drugbank_target|P54687 Branched-chain-amino-acid aminotransferase, cytosolic (DB00114; DB00142; DB00149; DB00161; DB00167; DB07544)
 OpenBabel12092119333D

  0  0  0     0  0            999 V3000
M  V30 BEGIN CTAB
M  V30 COUNTS 6004 6078 0 0 0
M  V30 BEGIN ATOM
M  V30 1 H -0.908 1.98254 -0.117106 0
M  V30 2 N 0 1.576 0 0
M  V30 3 C 0.933 2.03868 1.02534 0
M  V30 4 C 1.911 0.928543 1.3348 0
M  V30 5 O 3.095 1.19667 1.45644 0
M  V30 6 C 0.222 2.43627 2.35294 0
M  V30 7 C -0.732 3.65373 2.2001 0
M  V30 8 S 0.101 5.13292 1.52614 0
M  V30 9 C 1.257 5.56322 2.86805 0
M  V30 10 H 1.49 2.90518 0.631377 0
M  V30 11 H -0.977 1.52953 0.210867 0
M  V30 12 H 0.981 2.67203 3.11629 0
M  V30 13 H -0.358 1.57376 2.7183 0
M  V30 14 H -1.165 3.90944 3.18086 0
M  V30 15 H -1.563 3.418 1.51819 0
M  V30 16 H 0.729 5.58782 3.83104 0
M  V30 17 H 1.672 6.56266 2.65933 0
M  V30 18 H 2.08 4.83886 2.90714 0
M  V30 19 N 1.4781 -0.272755 1.55222 0
M  V30 20 C 2.4251 -1.33716 1.88119 0
M  V30 21 C 3.3951 -1.49066 0.73271 0
M  V30 22 O 4.5801 -1.63469 0.984002 0
M  V30 23 C 1.7201 -2.69238 2.15882 0
M  V30 24 C 0.8331 -2.62108 3.43399 0
M  V30 25 C -0.0319 -3.89811 3.60861 0
M  V30 26 C -0.9929 -3.77193 4.8207 0
M  V30 27 N -1.8559 -4.9673 4.96189 0
M  V30 28 H 2.9841 -1.04962 2.78903 0
M  V30 29 H 0.5211 -0.507088 1.38083 0
M  V30 30 H 2.4791 -3.48089 2.29978 0
M  V30 31 H 1.1091 -2.96194 1.28331 0
M  V30 32 H 0.1611 -1.74967 3.37773 0
M  V30 33 H 1.4731 -2.48685 4.32386 0
M  V30 34 H 0.6271 -4.77103 3.74777 0
M  V30 35 H -0.6339 -4.06102 2.7006 0
M  V30 36 H -1.6289 -2.88284 4.68159 0
M  V30 37 H -0.4039 -3.62421 5.74307 0
M  V30 38 H -2.4579 -5.13431 4.08319 0
M  V30 39 H -2.5409 -4.85839 5.79221 0
M  V30 40 H -1.2729 -5.85594 5.1449 0
M  V30 41 N 2.9562 -1.48159 -0.537278 0
M  V30 42 C 4.2332 -1.46291 -1.29839 0
M  V30 43 C 4.6132 -0.170613 -2.10409 0
M  V30 44 O 3.9612 0.847746 -2.12192 0
M  V30 45 C 4.1712 -2.72055 -2.18603 0
M  V30 46 C 5.5192 -3.20087 -2.7898 0
M  V30 47 O 6.5432 -2.72921 -2.28894 0
M  V30 48 O 5.4022 -4.02138 -3.70064 0
M  V30 49 H 2.4962 -0.583906 -0.585647 0
M  V30 50 H 5.0422 -1.60384 -0.554534 0
M  V30 51 H 3.8142 -3.57628 -1.58801 0
M  V30 52 H 3.4372 -2.60646 -3.00249 0
M  V30 53 N 4.4343 0.785586 -1.36625 0
M  V30 54 C 5.6743 1.55678 -1.32453 0
M  V30 55 C 6.0383 1.91769 0.0941089 0
M  V30 56 O 7.2393 2.67536 0.26042 0
M  V30 57 C 5.5103 2.79701 -2.22491 0
M  V30 58 S 7.0693 3.69907 -2.36038 0
M  V30 59 H 3.8873 0.533141 -0.470405 0
M  V30 60 H 6.4893 0.924953 -1.72235 0
M  V30 61 H 5.1933 2.51244 -3.24507 0
M  V30 62 H 4.7243 3.47854 -1.83742 0
M  V30 63 H 6.7393 4.71016 -1.56072 0
M  V30 64 N 5.9124 1.20967 1.01018 0
M  V30 65 C 7.1374 1.0503 1.78839 0
M  V30 66 C 7.5624 -0.395752 1.8389 0
M  V30 67 O 6.9204 -1.28529 1.27867 0
M  V30 68 C 6.9684 1.64602 3.2084 0
M  V30 69 O 6.0724 0.887988 4.02726 0
M  V30 70 H 5.4134 0.369987 0.551367 0
M  V30 71 H 7.9434 1.60399 1.27018 0
M  V30 72 H 7.9534 1.68607 3.71532 0
M  V30 73 H 6.6284 2.69841 3.16479 0
M  V30 74 H 5.2054 0.922648 3.61305 0
M  V30 75 N 7.3905 -1.2043 1.01659 0
M  V30 76 C 8.3385 -2.25249 0.580143 0
M  V30 77 C 9.3325 -1.65057 -0.381115 0
M  V30 78 O 10.5385 -1.78241 -0.251039 0
M  V30 79 H 6.9135 -0.732695 0.169299 0
M  V30 80 H 8.8845 -2.59389 1.47512 0
M  V30 81 C 7.6335 -3.47638 -0.065788 0
M  V30 82 H 6.9565 -3.94233 0.664874 0
M  V30 83 H 8.3965 -4.2268 -0.334282 0
M  V30 84 C 6.8555 -3.10447 -1.3086 0
M  V30 85 O 7.3855 -3.21981 -2.4019 0
M  V30 86 N 5.5915 -2.64996 -1.1927 0
M  V30 87 H 5.1385 -2.55811 -0.303064 0
M  V30 88 H 5.0965 -2.40482 -2.02523 0
M  V30 89 N 8.8686 -0.792821 -1.36206 0
M  V30 90 C 10.1166 -0.366062 -1.98757 0
M  V30 91 C 10.4376 1.0668 -1.63231 0
M  V30 92 O 9.7076 1.73587 -0.907978 0
M  V30 93 H 8.2876 -0.132364 -0.735179 0
M  V30 94 H 10.9496 -1.01562 -1.66347 0
M  V30 95 H 10.0456 -0.460638 -3.08682 0
M  V30 96 N 10.3467 1.47872 -0.545128 0
M  V30 97 C 11.5867 2.04391 -0.0187854 0
M  V30 98 C 11.9507 1.41162 1.30144 0
M  V30 99 O 13.1517 1.88656 1.91474 0
M  V30 100 C 11.4227 3.57299 0.0850867 0
M  V30 101 S 12.9817 4.35221 0.559302 0
M  V30 102 H 9.7997 0.710737 -0.0193301 0
M  V30 103 H 12.4017 1.81395 -0.729125 0
M  V30 104 H 11.1057 4.00847 -0.880351 0
M  V30 105 H 10.6367 3.84773 0.819348 0
M  V30 106 H 12.6517 4.61571 1.82118 0
M  V30 107 N 11.8248 0.280983 1.55075 0
M  V30 108 C 13.0498 -0.340154 2.04592 0
M  V30 109 C 13.4748 -1.48246 1.15779 0
M  V30 110 O 12.8328 -1.80614 0.15761 0
M  V30 111 C 12.8808 -0.793104 3.5177 0
M  V30 112 O 11.9848 -1.89981 3.66034 0
M  V30 113 H 11.3258 -0.0694289 0.66036 0
M  V30 114 H 13.8558 0.416993 2.00306 0
M  V30 115 H 13.8658 -1.08729 3.93245 0
M  V30 116 H 12.5408 0.0426163 4.15878 0
M  V30 117 H 11.1178 -1.60771 3.36463 0
M  V30 118 N 13.3029 -1.57598 0.00835791 0
M  V30 119 C 14.2659 -2.07884 -0.965242 0
M  V30 120 C 15.2659 -0.989825 -1.26725 0
M  V30 121 O 16.4559 -1.25218 -1.21104 0
M  V30 122 C 13.5879 -2.52731 -2.28779 0
M  V30 123 H 14.7809 -2.95178 -0.530112 0
M  V30 124 H 12.3339 -1.54458 -0.239283 0
M  V30 125 H 13.0689 -1.68705 -2.76964 0
M  V30 126 H 12.8539 -3.32272 -2.08177 0
M  V30 127 H 14.3439 -2.91933 -2.98605 0
M  V30 128 N 14.781 0.264519 -1.55364 0
M  V30 129 C 15.691 1.34902 -1.91934 0
M  V30 130 C 16.707 1.53595 -0.817593 0
M  V30 131 O 17.883 1.67558 -1.11742 0
M  V30 132 C 14.948 2.68676 -2.19121 0
M  V30 133 C 14.009 2.58657 -3.4263 0
M  V30 134 C 13.242 3.86051 -3.68511 0
M  V30 135 O 13.465 4.87126 -2.96757 0
M  V30 136 O 12.399 3.85744 -4.62045 0
M  V30 137 H 16.225 1.06883 -2.8427 0
M  V30 138 H 13.81 0.463775 -1.42019 0
M  V30 139 H 15.692 3.47759 -2.37995 0
M  V30 140 H 14.367 2.96463 -1.29966 0
M  V30 141 H 13.274 1.7792 -3.29082 0
M  V30 142 H 14.607 2.35818 -4.32031 0
M  V30 143 N 16.2591 1.48442 0.529413 0
M  V30 144 C 17.4991 1.58086 1.29569 0
M  V30 145 C 17.8631 0.249302 1.90375 0
M  V30 146 O 19.0641 0.220738 2.67892 0
M  V30 147 C 17.3351 2.68793 2.35552 0
M  V30 148 S 18.8941 2.98207 3.21898 0
M  V30 149 H 15.7121 0.557922 0.440732 0
M  V30 150 H 18.3141 1.85966 0.603059 0
M  V30 151 H 17.0181 3.64102 1.89363 0
M  V30 152 H 16.5491 2.42817 3.09522 0
M  V30 153 H 18.5641 2.37548 4.35644 0
M  V30 154 N 17.7372 -0.778329 1.37039 0
M  V30 155 C 18.9652 -1.56734 1.35063 0
M  V30 156 C 19.3802 -1.88686 -0.0655597 0
M  V30 157 O 18.7372 -1.5096 -1.02554 0
M  V30 158 C 18.7882 -2.88163 2.18276 0
M  V30 159 O 18.5092 -2.57583 3.54376 0
M  V30 160 C 20.0102 -3.82422 2.24206 0
M  V30 161 H 17.2302 -0.485778 0.462883 0
M  V30 162 H 19.7742 -0.965185 1.8029 0
M  V30 163 H 17.9292 -3.44818 1.76576 0
M  V30 164 H 18.3432 -3.41699 3.97922 0
M  V30 165 H 19.8172 -4.71667 2.86765 0
M  V30 166 H 20.2942 -4.21078 1.24861 0
M  V30 167 H 20.9002 -3.31697 2.6619 0
M  V30 168 N 19.2153 -1.21501 -1.00376 0
M  V30 169 C 20.4633 -1.03095 -1.73827 0
M  V30 170 C 20.7843 0.436341 -1.90055 0
M  V30 171 O 20.0543 1.31466 -1.45236 0
M  V30 172 H 18.6343 -0.378487 -0.644016 0
M  V30 173 H 21.2963 -1.52831 -1.20949 0
M  V30 174 H 20.3923 -1.49991 -2.73695 0
M  V30 175 N 20.6934 1.19889 -1.02296 0
M  V30 176 C 21.6034 2.26571 -0.608508 0
M  V30 177 C 22.6194 1.70299 0.356964 0
M  V30 178 O 23.7954 2.00235 0.216326 0
M  V30 179 C 20.8604 3.46677 0.0402814 0
M  V30 180 C 19.9214 4.18153 -0.97194 0
M  V30 181 C 19.1544 5.32525 -0.354016 0
M  V30 182 O 19.3774 5.64112 0.844604 0
M  V30 183 O 18.3114 5.92242 -1.07391 0
M  V30 184 H 22.1374 2.64251 -1.49684 0
M  V30 185 H 19.7224 1.26629 -0.792809 0
M  V30 186 H 21.6044 4.19475 0.402324 0
M  V30 187 H 20.2794 3.10858 0.902707 0
M  V30 188 H 19.1864 3.47499 -1.38546 0
M  V30 189 H 20.5194 4.57927 -1.80454 0
M  V30 190 N 22.1715 0.800033 1.35784 0
M  V30 191 C 23.4195 0.376597 1.9856 0
M  V30 192 C 23.7405 -1.05812 1.63795 0
M  V30 193 O 23.0105 -1.73103 0.917171 0
M  V30 194 H 21.5905 0.136261 0.734467 0
M  V30 195 H 24.2525 1.02442 1.65806 0
M  V30 196 H 23.3485 0.477002 3.08433 0
M  V30 197 N 23.6496 -1.47581 0.552962 0
M  V30 198 C 24.8976 -2.02082 0.0272703 0
M  V30 199 C 25.2186 -1.4301 -1.32563 0
M  V30 200 O 24.4886 -0.603745 -1.86365 0
M  V30 201 H 23.0686 -0.746966 0.00709182 0
M  V30 202 H 25.7306 -1.81033 0.722008 0
M  V30 203 H 24.8266 -3.12034 -0.0639951 0
M  V30 204 N 25.1277 -0.289203 -1.54924 0
M  V30 205 C 26.3527 0.329299 -2.04769 0
M  V30 206 C 26.7777 1.4763 -1.16564 0
M  V30 207 O 26.1357 1.80527 -0.167186 0
M  V30 208 C 26.1837 0.774438 -3.52186 0
M  V30 209 O 25.2877 1.88038 -3.67036 0
M  V30 210 H 24.6287 0.0659259 -0.660719 0
M  V30 211 H 27.1587 -0.42761 -2.00082 0
M  V30 212 H 27.1687 1.06642 -3.93816 0
M  V30 213 H 25.8437 -0.0646707 -4.1585 0
M  V30 214 H 24.4207 1.58985 -3.3731 0
M  V30 215 N 26.6058 1.57591 -0.0167156 0
M  V30 216 C 27.5528 2.09462 0.969251 0
M  V30 217 C 28.5228 0.99381 1.33089 0
M  V30 218 O 29.7078 1.26726 1.42636 0
M  V30 219 C 26.8478 2.61622 2.25051 0
M  V30 220 C 25.9608 3.85666 1.94642 0
M  V30 221 C 25.0958 4.26266 3.16972 0
M  V30 222 C 24.1348 5.43101 2.82326 0
M  V30 223 N 23.2718 5.78915 3.97243 0
M  V30 224 H 28.1118 2.93428 0.519997 0
M  V30 225 H 25.6488 1.45044 0.245087 0
M  V30 226 H 27.6068 2.89949 2.99976 0
M  V30 227 H 26.2368 1.80505 2.67615 0
M  V30 228 H 25.2888 3.64145 1.10013 0
M  V30 229 H 26.6008 4.70678 1.65117 0
M  V30 230 H 25.7548 4.55963 4.00228 0
M  V30 231 H 24.4938 3.39996 3.49648 0
M  V30 232 H 23.4988 5.1311 1.97479 0
M  V30 233 H 24.7238 6.3106 2.50879 0
M  V30 234 H 22.6698 4.95602 4.29785 0
M  V30 235 H 22.5868 6.58539 3.71299 0
M  V30 236 H 23.8548 6.13212 4.81239 0
M  V30 237 N 28.0839 -0.256276 1.55502 0
M  V30 238 C 28.9939 -1.33882 1.92647 0
M  V30 239 C 30.0099 -1.53159 0.825727 0
M  V30 240 O 31.1859 -1.66963 1.12629 0
M  V30 241 C 28.2509 -2.6751 2.20543 0
M  V30 242 C 27.3119 -2.56836 3.43997 0
M  V30 243 C 26.5449 -3.84092 3.70553 0
M  V30 244 O 26.7679 -4.85545 2.99336 0
M  V30 245 O 25.7019 -3.83288 4.64084 0
M  V30 246 H 29.5279 -1.05374 2.84833 0
M  V30 247 H 27.1129 -0.456237 1.42263 0
M  V30 248 H 28.9949 -3.46492 2.39835 0
M  V30 249 H 27.6699 -2.9577 1.31536 0
M  V30 250 H 26.5769 -1.76172 3.30021 0
M  V30 251 H 27.9099 -2.33523 4.33275 0
M  V30 252 N 29.562 -1.4872 -0.521534 0
M  V30 253 C 30.808 -1.574 -1.27879 0
M  V30 254 C 31.141 -0.250817 -1.92573 0
M  V30 255 O 30.416 0.743934 -1.79711 0
M  V30 256 C 30.699 -2.71843 -2.36164 0
M  V30 257 C 30.552 -4.13893 -1.76105 0
M  V30 258 C 31.871 -2.82008 -3.37875 0
M  V30 259 H 28.99 -0.572941 -0.463581 0
M  V30 260 H 31.632 -1.80927 -0.580119 0
M  V30 261 H 29.782 -2.51914 -2.95756 0
M  V30 262 H 31.454 -4.45284 -1.20499 0
M  V30 263 H 29.697 -4.20498 -1.06601 0
M  V30 264 H 30.368 -4.89804 -2.5455 0
M  V30 265 H 32.844 -3.00086 -2.88249 0
M  V30 266 H 31.72 -3.63796 -4.11028 0
M  V30 267 H 31.981 -1.90511 -3.98946 0
M  V30 268 N 31.0401 0.771051 -1.3745 0
M  V30 269 C 32.2861 1.5319 -1.32894 0
M  V30 270 C 32.6191 1.94008 0.0862511 0
M  V30 271 O 31.8941 1.64124 1.04373 0
M  V30 272 C 32.1771 2.79648 -2.26868 0
M  V30 273 C 32.0301 2.45079 -3.77169 0
M  V30 274 C 33.3491 3.81583 -2.19277 0
M  V30 275 H 30.4681 0.555744 -0.484064 0
M  V30 276 H 33.1101 0.884492 -1.68157 0
M  V30 277 H 31.2601 3.34891 -1.96926 0
M  V30 278 H 32.9321 1.95745 -4.1771 0
M  V30 279 H 31.1751 1.77767 -3.95704 0
M  V30 280 H 31.8461 3.35478 -4.38359 0
M  V30 281 H 34.3221 3.35835 -2.45671 0
M  V30 282 H 33.1981 4.67787 -2.87171 0
M  V30 283 H 33.4591 4.25897 -1.18592 0
M  V30 284 N 32.5182 1.22032 0.997298 0
M  V30 285 C 33.7662 1.04016 1.73278 0
M  V30 286 C 34.0872 -0.426255 1.90284 0
M  V30 287 O 33.3572 -1.30694 1.45931 0
M  V30 288 H 31.9372 0.381897 0.642 0
M  V30 289 H 34.5992 1.5347 1.20137 0
M  V30 290 H 33.6952 1.51441 2.72896 0
M  V30 291 N 33.9963 -1.19345 1.0293 0
M  V30 292 C 35.2243 -1.92997 0.745644 0
M  V30 293 C 35.6393 -1.75519 -0.695589 0
M  V30 294 O 34.9963 -1.07737 -1.47306 0
M  V30 295 C 35.0473 -3.44741 1.08792 0
M  V30 296 O 34.7683 -3.61658 2.47256 0
M  V30 297 C 36.2693 -4.35515 0.827129 0
M  V30 298 H 33.4893 -0.613042 0.272801 0
M  V30 299 H 36.0333 -1.51473 1.3739 0
M  V30 300 H 34.1883 -3.84097 0.504832 0
M  V30 301 H 34.6023 -4.55514 2.60015 0
M  V30 302 H 36.0763 -5.40589 1.11658 0
M  V30 303 H 36.5533 -4.38552 -0.238436 0
M  V30 304 H 37.1593 -4.01841 1.39297 0
M  V30 305 N 35.4744 -0.807222 -1.35358 0
M  V30 306 C 36.7214 -0.387888 -1.9875 0
M  V30 307 C 37.0494 1.04509 -1.64037 0
M  V30 308 O 36.3044 1.73986 -0.895946 0
M  V30 309 C 36.6034 -0.519036 -3.53611 0
M  V30 310 C 36.2694 -1.91542 -4.08194 0
M  V30 311 C 34.9314 -2.29745 -4.22813 0
M  V30 312 C 37.2834 -2.82896 -4.37744 0
M  V30 313 C 34.6114 -3.58668 -4.643 0
M  V30 314 C 36.9634 -4.11265 -4.8067 0
M  V30 315 C 35.6274 -4.49466 -4.93494 0
M  V30 316 H 34.8974 -0.141938 -0.727279 0
M  V30 317 H 37.5444 -1.02814 -1.6156 0
M  V30 318 H 35.8494 0.204658 -3.91265 0
M  V30 319 H 37.5464 -0.175345 -4.00616 0
M  V30 320 H 34.1364 -1.60862 -3.97268 0
M  V30 321 H 38.3204 -2.54629 -4.26002 0
M  V30 322 H 33.5764 -3.88113 -4.72418 0
M  V30 323 H 37.7504 -4.82153 -5.02496 0
M  V30 324 H 35.3774 -5.49418 -5.25399 0
M  V30 325 N 36.9525 1.47285 -0.560781 0
M  V30 326 C 37.8995 2.30058 0.18491 0
M  V30 327 C 38.8695 1.39281 0.904986 0
M  V30 328 O 40.0545 1.68241 0.899979 0
M  V30 329 C 37.1945 3.23317 1.20666 0
M  V30 330 C 36.3075 4.29186 0.492285 0
M  V30 331 C 35.4425 5.09592 1.49964 0
M  V30 332 C 34.4815 6.07232 0.770439 0
M  V30 333 N 33.6185 6.80584 1.72479 0
M  V30 334 H 38.4585 2.93302 -0.527048 0
M  V30 335 H 35.9955 1.44568 -0.271738 0
M  V30 336 H 37.9535 3.75811 1.81168 0
M  V30 337 H 36.5835 2.61929 1.88661 0
M  V30 338 H 35.6355 3.7972 -0.227333 0
M  V30 339 H 36.9475 4.98738 -0.0787929 0
M  V30 340 H 36.1015 5.66254 2.17809 0
M  V30 341 H 34.8405 4.3995 2.10464 0
M  V30 342 H 33.8455 5.49745 0.0780846 0
M  V30 343 H 35.0705 6.78884 0.171134 0
M  V30 344 H 33.0165 6.1367 2.3183 0
M  V30 345 H 32.9335 7.46319 1.20596 0
M  V30 346 H 34.2015 7.41818 2.39428 0
M  V30 347 N 38.4306 0.297415 1.54768 0
M  V30 348 C 39.3936 -0.567375 2.22066 0
M  V30 349 C 40.3936 -1.06409 1.20556 0
M  V30 350 O 41.5836 -0.960691 1.45315 0
M  V30 351 C 38.7156 -1.78517 2.90421 0
M  V30 352 H 39.9086 0.0205534 2.99893 0
M  V30 353 H 37.4616 0.0482163 1.56226 0
M  V30 354 H 38.1966 -2.41303 2.16664 0
M  V30 355 H 37.9816 -1.43669 3.64831 0
M  V30 356 H 39.4716 -2.39964 3.41771 0
M  V30 357 N 39.9087 -1.5758 0.0250728 0
M  V30 358 C 40.8557 -2.09973 -0.958129 0
M  V30 359 C 41.8257 -1.00085 -1.3256 0
M  V30 360 O 43.0107 -1.27481 -1.41962 0
M  V30 361 C 40.1507 -2.62812 -2.2366 0
M  V30 362 C 39.2637 -3.86693 -1.92594 0
M  V30 363 C 38.3987 -4.27941 -3.14707 0
M  V30 364 C 37.4377 -5.44591 -2.79442 0
M  V30 365 N 36.5747 -5.81014 -3.94167 0
M  V30 366 H 41.4147 -2.937 -0.504428 0
M  V30 367 H 38.9517 -1.45172 -0.237392 0
M  V30 368 H 40.9097 -2.91536 -2.98434 0
M  V30 369 H 39.5397 -1.81922 -2.66654 0
M  V30 370 H 38.5917 -3.64723 -1.0808 0
M  V30 371 H 39.9037 -4.71547 -1.62619 0
M  V30 372 H 39.0577 -4.58079 -3.97804 0
M  V30 373 H 37.7967 -3.41845 -3.4784 0
M  V30 374 H 36.8017 -5.1415 -1.94755 0
M  V30 375 H 38.0267 -6.32382 -2.47528 0
M  V30 376 H 35.9727 -4.97874 -4.2715 0
M  V30 377 H 35.8897 -6.60498 -3.67801 0
M  V30 378 H 37.1577 -6.15756 -4.7798 0
M  V30 379 N 41.3868 0.248026 -1.55636 0
M  V30 380 C 42.6638 0.998988 -1.68165 0
M  V30 381 C 43.0438 2.03409 -0.564621 0
M  V30 382 O 42.3918 2.24378 0.432076 0
M  V30 383 C 42.6018 1.63334 -3.0842 0
M  V30 384 C 43.9498 2.13562 -3.66983 0
M  V30 385 O 44.9738 1.73277 -3.11213 0
M  V30 386 O 43.8328 2.87526 -4.64749 0
M  V30 387 H 40.9268 0.464933 -0.683935 0
M  V30 388 H 43.4728 0.241902 -1.67967 0
M  V30 389 H 42.2448 0.884583 -3.8117 0
M  V30 390 H 41.8678 2.45666 -3.12624 0
M  V30 391 N 42.8649 1.48995 0.513639 0
M  V30 392 C 43.7949 1.67636 1.62544 0
M  V30 393 C 44.7759 0.525087 1.61793 0
M  V30 394 O 45.9609 0.759502 1.78732 0
M  V30 395 C 43.0909 1.73114 3.01079 0
M  V30 396 C 42.0449 2.87905 3.16693 0
M  V30 397 C 41.3709 2.78486 4.56453 0
M  V30 398 C 42.6709 4.29005 2.97913 0
M  V30 399 H 44.3649 2.60716 1.47198 0
M  V30 400 H 41.9109 1.25465 0.706714 0
M  V30 401 H 43.8639 1.84742 3.78746 0
M  V30 402 H 42.5879 0.766241 3.17484 0
M  V30 403 H 41.2469 2.75859 2.41448 0
M  V30 404 H 40.8949 1.7993 4.69717 0
M  V30 405 H 40.5949 3.55523 4.67843 0
M  V30 406 H 42.1189 2.92104 5.36197 0
M  V30 407 H 43.5329 4.41798 3.65359 0
M  V30 408 H 41.9299 5.07166 3.20785 0
M  V30 409 H 42.9999 4.44329 1.94165 0
M  V30 410 N 44.343 -0.763751 1.37857 0
M  V30 411 C 45.592 -1.51789 1.32827 0
M  V30 412 C 45.905 -1.95426 -0.0823719 0
M  V30 413 O 47.111 -2.70298 -0.255172 0
M  V30 414 C 45.567 -2.74133 2.33193 0
M  V30 415 C 45.175 -2.37562 3.79827 0
M  V30 416 C 46.919 -3.52054 2.37188 0
M  V30 417 C 44.826 -3.56456 4.71904 0
M  V30 418 H 43.756 -0.569896 0.493695 0
M  V30 419 H 46.407 -0.835822 1.63359 0
M  V30 420 H 44.789 -3.4427 1.9569 0
M  V30 421 H 45.963 -1.75157 4.26212 0
M  V30 422 H 44.278 -1.72798 3.78853 0
M  V30 423 H 46.875 -4.40437 3.03182 0
M  V30 424 H 47.218 -3.92486 1.38782 0
M  V30 425 H 47.751 -2.88921 2.7344 0
M  V30 426 H 44.49 -3.21099 5.71468 0
M  V30 427 H 44.01 -4.17938 4.30218 0
M  V30 428 H 45.689 -4.23168 4.89426 0
M  V30 429 N 45.8211 -1.22559 -0.990812 0
M  V30 430 C 47.0671 -1.05297 -1.73322 0
M  V30 431 C 47.4001 0.410655 -1.89808 0
M  V30 432 O 46.6751 1.30439 -1.44277 0
M  V30 433 C 46.9581 -1.76713 -3.13759 0
M  V30 434 C 46.8111 -3.30684 -3.04907 0
M  V30 435 C 48.1301 -1.52121 -4.12974 0
M  V30 436 H 45.2491 -0.38392 -0.629106 0
M  V30 437 H 47.8911 -1.50926 -1.15418 0
M  V30 438 H 46.0411 -1.37924 -3.63193 0
M  V30 439 H 47.7131 -3.7893 -2.63077 0
M  V30 440 H 45.9561 -3.60253 -2.41661 0
M  V30 441 H 46.6271 -3.75833 -4.04294 0
M  V30 442 H 49.1031 -1.85819 -3.72304 0
M  V30 443 H 47.9791 -2.04582 -5.0935 0
M  V30 444 H 48.2401 -0.454257 -4.3976 0
M  V30 445 N 47.2992 1.18797 -1.03562 0
M  V30 446 C 48.5272 1.92599 -0.755869 0
M  V30 447 C 48.9422 1.75886 0.686271 0
M  V30 448 O 48.2992 1.08517 1.46732 0
M  V30 449 C 48.3502 3.44159 -1.10619 0
M  V30 450 O 48.0712 3.60341 -2.4917 0
M  V30 451 C 49.5722 4.3507 -0.850214 0
M  V30 452 H 46.7922 0.611587 -0.276048 0
M  V30 453 H 49.3362 1.50742 -1.38192 0
M  V30 454 H 47.4912 3.83823 -0.525194 0
M  V30 455 H 47.9052 4.54128 -2.62427 0
M  V30 456 H 49.3792 5.39989 -1.14523 0
M  V30 457 H 49.8562 4.38673 0.215176 0
M  V30 458 H 50.4622 4.01097 -1.41426 0
M  V30 459 N 48.7773 0.814389 1.34928 0
M  V30 460 C 50.1883 0.458364 1.80986 0
M  V30 461 C 50.5393 -1.02042 1.67577 0
M  V30 462 O 49.6643 -1.79352 1.21086 0
M  V30 463 C 50.2593 0.825212 3.28597 0
M  V30 464 C 48.8183 0.521677 3.72767 0
M  V30 465 C 47.9653 1.04668 2.56788 0
M  V30 466 H 50.9163 1.00533 1.22795 0
M  V30 467 H 50.9373 0.12571 3.80292 0
M  V30 468 H 50.4493 1.90154 3.38324 0
M  V30 469 H 48.5503 -0.545589 3.68584 0
M  V30 470 H 48.6633 1.05977 4.67232 0
M  V30 471 H 47.0273 0.468622 2.50352 0
M  V30 472 H 47.8103 2.12927 2.6929 0
M  V30 473 N 50.2554 -1.46986 0.568584 0
M  V30 474 C 51.2184 -2.28624 -0.162366 0
M  V30 475 C 52.2184 -1.37596 -0.832103 0
M  V30 476 O 53.4084 -1.60115 -0.68622 0
M  V30 477 C 50.5404 -3.17596 -1.23878 0
M  V30 478 H 51.7334 -2.94722 0.554899 0
M  V30 479 H 49.2864 -1.52863 0.325976 0
M  V30 480 H 50.0214 -2.56214 -1.98808 0
M  V30 481 H 49.8064 -3.846 -0.763219 0
M  V30 482 H 51.2964 -3.79078 -1.75185 0
M  V30 483 N 51.7335 -0.305618 -1.54608 0
M  V30 484 C 52.9615 0.304775 -2.04643 0
M  V30 485 C 53.3765 1.47167 -1.18268 0
M  V30 486 O 52.7335 1.81296 -0.209328 0
M  V30 487 C 52.7845 0.756564 -3.53495 0
M  V30 488 O 52.5055 -0.36389 -4.36586 0
M  V30 489 C 54.0065 1.43163 -4.19546 0
M  V30 490 H 51.2265 0.0655481 -0.667791 0
M  V30 491 H 53.7705 -0.446592 -1.99564 0
M  V30 492 H 51.9255 1.45794 -3.58919 0
M  V30 493 H 52.3395 -0.0113121 -5.24499 0
M  V30 494 H 53.8135 1.69886 -5.25207 0
M  V30 495 H 54.2905 2.37318 -3.69563 0
M  V30 496 H 54.8965 0.773307 -4.18211 0
M  V30 497 N 53.2116 1.57565 -0.0334293 0
M  V30 498 C 54.4606 1.91155 0.643639 0
M  V30 499 C 54.7736 0.91192 1.73042 0
M  V30 500 O 55.9796 1.13923 2.46442 0
M  V30 501 C 54.4356 3.39443 1.1961 0
M  V30 502 C 54.0436 4.47774 0.142381 0
M  V30 503 C 55.7876 3.82094 1.84944 0
M  V30 504 C 53.6946 5.87162 0.706727 0
M  V30 505 H 52.6246 0.713368 0.244176 0
M  V30 506 H 55.2756 1.8323 -0.0994323 0
M  V30 507 H 53.6576 3.42313 1.99092 0
M  V30 508 H 54.8316 4.56469 -0.630296 0
M  V30 509 H 53.1466 4.14352 -0.412446 0
M  V30 510 H 55.7436 4.83591 2.2813 0
M  V30 511 H 56.0866 3.17386 2.69392 0
M  V30 512 H 56.6196 3.81665 1.12145 0
M  V30 513 H 53.3586 6.55424 -0.0997178 0
M  V30 514 H 52.8786 5.82064 1.44779 0
M  V30 515 H 54.5576 6.35866 1.19514 0
M  V30 516 N 54.6897 -0.239769 1.55765 0
M  V30 517 C 55.6197 -1.30052 1.9393 0
M  V30 518 C 56.6007 -1.49839 0.805132 0
M  V30 519 O 57.7857 -1.62328 1.06599 0
M  V30 520 C 54.9157 -2.65391 2.2402 0
M  V30 521 C 53.8697 -2.60289 3.39755 0
M  V30 522 C 53.1957 -3.99489 3.55405 0
M  V30 523 C 54.4957 -2.16654 4.75246 0
M  V30 524 H 56.1897 -0.983573 2.82783 0
M  V30 525 H 53.7357 -0.471701 1.36055 0
M  V30 526 H 55.6887 -3.3974 2.49308 0
M  V30 527 H 54.4127 -2.98736 1.32 0
M  V30 528 H 53.0717 -1.88398 3.14487 0
M  V30 529 H 52.7197 -4.30112 2.60793 0
M  V30 530 H 52.4197 -3.96962 4.33238 0
M  V30 531 H 53.9437 -4.75528 3.83022 0
M  V30 532 H 55.3577 -2.80737 4.99859 0
M  V30 533 H 53.7547 -2.25223 5.56232 0
M  V30 534 H 54.8247 -1.11835 4.71827 0
M  V30 535 N 56.1678 -1.49265 -0.50573 0
M  V30 536 C 57.1148 -1.65585 -1.6078 0
M  V30 537 C 58.0848 -0.497396 -1.58478 0
M  V30 538 O 59.2698 -0.72385 -1.76536 0
M  V30 539 C 56.4098 -1.72408 -2.98948 0
M  V30 540 C 55.5228 -2.99525 -3.11301 0
M  V30 541 C 54.6578 -2.97356 -4.40174 0
M  V30 542 C 53.6968 -4.19074 -4.46143 0
M  V30 543 N 52.8338 -4.14841 -5.66437 0
M  V30 544 H 57.6738 -2.59688 -1.46172 0
M  V30 545 H 55.2108 -1.28761 -0.711261 0
M  V30 546 H 57.1688 -1.74344 -3.79025 0
M  V30 547 H 55.7988 -0.817753 -3.1227 0
M  V30 548 H 54.8508 -3.07222 -2.24318 0
M  V30 549 H 56.1628 -3.89518 -3.11572 0
M  V30 550 H 55.3168 -2.97829 -5.28567 0
M  V30 551 H 54.0558 -2.05133 -4.42461 0
M  V30 552 H 53.0608 -4.1885 -3.56153 0
M  V30 553 H 54.2858 -5.12483 -4.45575 0
M  V30 554 H 52.2318 -3.25453 -5.69575 0
M  V30 555 H 52.1488 -4.98564 -5.68304 0
M  V30 556 H 53.4168 -4.1941 -6.57051 0
M  V30 557 N 57.6459 0.756429 -1.3826 0
M  V30 558 C 58.5559 1.9009 -1.37488 0
M  V30 559 C 59.5719 1.71855 -0.272366 0
M  V30 560 O 60.7479 1.94827 -0.510318 0
M  V30 561 C 57.8129 3.25421 -1.19592 0
M  V30 562 C 56.8739 3.56202 -2.39622 0
M  V30 563 C 56.1069 4.85075 -2.2257 0
M  V30 564 O 56.3299 5.57246 -1.21793 0
M  V30 565 O 55.2639 5.15269 -3.11098 0
M  V30 566 H 59.0899 1.93695 -2.33914 0
M  V30 567 H 56.6749 0.901313 -1.1915 0
M  V30 568 H 58.5569 4.06337 -1.11661 0
M  V30 569 H 57.2319 3.22634 -0.262486 0
M  V30 570 H 56.1389 2.75458 -2.53128 0
M  V30 571 H 57.4719 3.63747 -3.31586 0
M  V30 572 N 59.124 1.23083 0.984299 0
M  V30 573 C 60.071 1.00854 2.07598 0
M  V30 574 C 61.041 -0.0726709 1.65941 0
M  V30 575 O 62.226 0.0786535 1.90638 0
M  V30 576 C 59.366 0.601645 3.39815 0
M  V30 577 C 58.479 1.75456 3.94765 0
M  V30 578 C 57.614 1.29482 5.15177 0
M  V30 579 C 56.653 2.41873 5.62284 0
M  V30 580 N 55.79 1.96885 6.73929 0
M  V30 581 H 60.63 1.943 2.25946 0
M  V30 582 H 58.167 0.968001 1.10762 0
M  V30 583 H 60.125 0.346854 4.15756 0
M  V30 584 H 58.755 -0.295803 3.21442 0
M  V30 585 H 57.807 2.12346 3.15616 0
M  V30 586 H 59.119 2.59965 4.25699 0
M  V30 587 H 58.273 0.997923 5.98437 0
M  V30 588 H 57.012 0.420046 4.85888 0
M  V30 589 H 56.017 2.72342 4.77608 0
M  V30 590 H 57.242 3.29881 5.93595 0
M  V30 591 H 55.188 1.11782 6.46406 0
M  V30 592 H 55.105 2.74956 7.04227 0
M  V30 593 H 56.373 1.70289 7.60672 0
M  V30 594 N 60.6021 -1.18246 1.0419 0
M  V30 595 C 62.0131 -1.69914 0.773698 0
M  V30 596 C 62.3641 -1.83085 -0.705297 0
M  V30 597 O 61.4891 -1.51123 -1.5489 0
M  V30 598 C 62.0841 -3.08619 1.39784 0
M  V30 599 C 60.6431 -3.57494 1.17792 0
M  V30 600 C 59.7901 -2.34013 1.48773 0
M  V30 601 H 62.7411 -1.02904 1.20816 0
M  V30 602 H 62.7621 -3.71958 0.801714 0
M  V30 603 H 62.2741 -2.99001 2.47426 0
M  V30 604 H 60.3751 -3.72406 0.120295 0
M  V30 605 H 60.4881 -4.40852 1.87581 0
M  V30 606 H 58.8521 -2.37986 0.907463 0
M  V30 607 H 59.6351 -2.27013 2.57527 0
M  V30 608 N 62.0802 -0.821533 -1.34494 0
M  V30 609 C 63.3572 -0.33159 -1.92769 0
M  V30 610 C 63.7372 1.18088 -1.74981 0
M  V30 611 O 63.0852 1.98733 -1.12772 0
M  V30 612 C 63.2952 -0.759398 -3.40638 0
M  V30 613 C 64.6432 -0.757433 -4.1779 0
M  V30 614 O 65.6672 -0.70189 -3.49216 0
M  V30 615 O 64.5262 -0.829361 -5.4017 0
M  V30 616 H 61.6202 -0.0902502 -0.822061 0
M  V30 617 H 64.1662 -0.906231 -1.43477 0
M  V30 618 H 62.9382 -1.8012 -3.47379 0
M  V30 619 H 62.5612 -0.160378 -3.97276 0
M  V30 620 N 63.5583 1.46682 -0.576371 0
M  V30 621 C 64.9693 1.86112 -0.148091 0
M  V30 622 C 65.3203 1.48073 1.2872 0
M  V30 623 O 64.4453 0.892656 1.97131 0
M  V30 624 C 65.0403 3.37786 -0.261982 0
M  V30 625 C 63.5993 3.76235 0.111384 0
M  V30 626 C 62.7463 2.70713 -0.60083 0
M  V30 627 H 65.6973 1.37927 -0.78497 0
M  V30 628 H 65.7183 3.77007 0.514364 0
M  V30 629 H 65.2303 3.6544 -1.30671 0
M  V30 630 H 63.3313 3.54198 1.15649 0
M  V30 631 H 63.4443 4.78391 -0.26052 0
M  V30 632 H 61.8083 2.54666 -0.0417783 0
M  V30 633 H 62.5913 3.01208 -1.64708 0
M  V30 634 N 65.0364 0.313813 1.54444 0
M  V30 635 C 65.9844 -0.572171 2.25453 0
M  V30 636 C 66.9784 -1.12657 1.2651 0
M  V30 637 O 68.1844 -1.07573 1.44319 0
M  V30 638 H 64.5594 -0.203146 0.724041 0
M  V30 639 H 66.5304 0.0491145 2.9836 0
M  V30 640 C 65.2794 -1.72626 3.0182 0
M  V30 641 H 64.6024 -1.30891 3.77767 0
M  V30 642 H 66.0424 -2.32199 3.54767 0
M  V30 643 C 64.5014 -2.63806 2.09542 0
M  V30 644 O 65.0314 -3.65256 1.67185 0
M  V30 645 N 63.2374 -2.31824 1.75232 0
M  V30 646 H 62.7844 -1.49368 2.09873 0
M  V30 647 H 62.7424 -2.93095 1.13767 0
M  V30 648 N 66.5145 -1.57545 0.0417849 0
M  V30 649 C 67.4625 -2.12148 -0.953723 0
M  V30 650 C 68.4565 -1.05104 -1.32852 0
M  V30 651 O 69.6625 -1.23524 -1.30927 0
M  V30 652 H 66.0375 -0.677957 -0.325389 0
M  V30 653 H 68.0085 -2.94707 -0.467991 0
M  V30 654 C 66.7575 -2.6739 -2.22257 0
M  V30 655 H 66.0805 -3.49413 -1.94295 0
M  V30 656 H 67.5205 -3.09227 -2.90094 0
M  V30 657 C 65.9795 -1.60723 -2.96091 0
M  V30 658 O 66.5095 -1.01449 -3.88679 0
M  V30 659 N 64.7155 -1.32466 -2.58652 0
M  V30 660 H 64.2625 -1.80856 -1.83437 0
M  V30 661 H 64.2205 -0.61325 -3.08361 0
M  V30 662 N 67.9926 0.231505 -1.5589 0
M  V30 663 C 68.9226 1.29022 -1.94617 0
M  V30 664 C 69.9036 1.4941 -0.813067 0
M  V30 665 O 71.0886 1.6176 -1.07459 0
M  V30 666 C 68.2186 2.64199 -2.25424 0
M  V30 667 C 67.1726 2.58484 -3.41131 0
M  V30 668 C 66.4986 3.97599 -3.57518 0
M  V30 669 C 67.7986 2.1413 -4.76388 0
M  V30 670 H 69.4926 0.968563 -2.83301 0
M  V30 671 H 67.0386 0.464479 -1.36303 0
M  V30 672 H 68.9916 3.38413 -2.51107 0
M  V30 673 H 67.7156 2.98032 -1.33583 0
M  V30 674 H 66.3746 1.86727 -3.15481 0
M  V30 675 H 66.0226 4.28723 -2.6307 0
M  V30 676 H 65.7226 3.94659 -4.35337 0
M  V30 677 H 67.2466 4.7349 -3.85538 0
M  V30 678 H 68.6606 2.78083 -5.01341 0
M  V30 679 H 67.0576 2.2227 -5.57419 0
M  V30 680 H 68.1276 1.09331 -4.72414 0
M  V30 681 N 69.4707 1.49531 0.497807 0
M  V30 682 C 70.7167 1.59415 1.25358 0
M  V30 683 C 71.0497 0.281422 1.9215 0
M  V30 684 O 70.3247 -0.715249 1.80871 0
M  V30 685 C 70.6077 2.75566 2.3181 0
M  V30 686 C 70.4607 4.16642 1.69498 0
M  V30 687 C 71.7797 2.87347 3.33346 0
M  V30 688 H 68.8987 0.580244 0.454408 0
M  V30 689 H 71.5407 1.81827 0.551262 0
M  V30 690 H 69.6907 2.56587 2.91711 0
M  V30 691 H 71.3627 4.47145 1.13399 0
M  V30 692 H 69.6057 4.22141 0.998978 0
M  V30 693 H 70.2767 4.93792 2.46725 0
M  V30 694 H 72.7527 3.04634 2.83438 0
M  V30 695 H 71.6287 3.70289 4.05188 0
M  V30 696 H 71.8897 1.96834 3.95865 0
M  V30 697 N 70.9488 -0.749086 1.3866 0
M  V30 698 C 72.1958 -1.50833 1.35114 0
M  V30 699 C 72.5238 -1.94415 -0.0574049 0
M  V30 700 O 71.7788 -1.66065 -1.03541 0
M  V30 701 C 72.0778 -2.7712 2.25697 0
M  V30 702 C 71.7438 -2.52477 3.73585 0
M  V30 703 C 70.4058 -2.45466 4.13884 0
M  V30 704 C 72.7578 -2.31066 4.67181 0
M  V30 705 C 70.0858 -2.15064 5.45861 0
M  V30 706 C 72.4378 -2.02183 5.9942 0
M  V30 707 C 71.1018 -1.93631 6.38798 0
M  V30 708 H 70.3718 -0.551936 0.494416 0
M  V30 709 H 73.0188 -0.860979 1.71054 0
M  V30 710 H 71.3238 -3.46528 1.82827 0
M  V30 711 H 73.0208 -3.35096 2.20254 0
M  V30 712 H 69.6108 -2.58807 3.41638 0
M  V30 713 H 73.7948 -2.35459 4.3689 0
M  V30 714 H 69.0508 -2.06954 5.75308 0
M  V30 715 H 73.2248 -1.8462 6.71482 0
M  V30 716 H 70.8518 -1.69839 7.40985 0
M  V30 717 N 72.4269 -1.23603 -0.977757 0
M  V30 718 C 73.6749 -1.06759 -1.71601 0
M  V30 719 C 73.9959 0.395929 -1.90938 0
M  V30 720 O 73.2659 1.28356 -1.47992 0
M  V30 721 H 71.8459 -0.392062 -0.635843 0
M  V30 722 H 74.5079 -1.55362 -1.1768 0
M  V30 723 H 73.6039 -1.55763 -2.70452 0
M  V30 724 N 73.905 1.17692 -1.04816 0
M  V30 725 C 75.133 1.91786 -0.776254 0
M  V30 726 C 75.548 1.76604 0.667577 0
M  V30 727 O 74.905 1.10067 1.45573 0
M  V30 728 C 74.956 3.42967 -1.14263 0
M  V30 729 O 74.677 3.57678 -2.52978 0
M  V30 730 C 76.178 4.34144 -0.896311 0
M  V30 731 H 73.398 0.608624 -0.282519 0
M  V30 732 H 75.942 1.49268 -1.39783 0
M  V30 733 H 74.097 3.83245 -0.565874 0
M  V30 734 H 74.511 4.51319 -2.67229 0
M  V30 735 H 75.985 5.38744 -1.20244 0
M  V30 736 H 76.462 4.38876 0.168636 0
M  V30 737 H 77.068 3.99574 -1.45672 0
M  V30 738 N 75.3831 0.828654 1.34056 0
M  V30 739 C 76.6291 0.42008 1.98402 0
M  V30 740 C 76.9621 -1.01564 1.65525 0
M  V30 741 O 76.2371 -1.70834 0.929831 0
M  V30 742 C 76.5201 0.62927 3.54559 0
M  V30 743 C 76.3731 2.11152 3.97159 0
M  V30 744 C 77.6921 0.0688756 4.40046 0
M  V30 745 H 74.8111 0.154104 0.720709 0
M  V30 746 H 77.4531 1.04228 1.5886 0
M  V30 747 H 75.6031 0.0996418 3.88372 0
M  V30 748 H 77.2751 2.70522 3.73651 0
M  V30 749 H 75.5181 2.59985 3.47261 0
M  V30 750 H 76.1891 2.20868 5.05887 0
M  V30 751 H 78.6651 0.521458 4.1282 0
M  V30 752 H 77.5411 0.245006 5.48353 0
M  V30 753 H 77.8021 -1.0266 4.30015 0
M  V30 754 N 76.8612 -1.46375 0.584142 0
M  V30 755 C 78.1082 -2.02378 0.0702675 0
M  V30 756 C 78.4362 -1.45545 -1.29023 0
M  V30 757 O 77.6912 -0.610967 -1.85918 0
M  V30 758 C 77.9902 -3.57373 -0.0439342 0
M  V30 759 C 77.6562 -4.33252 1.24915 0
M  V30 760 C 76.3182 -4.53701 1.60341 0
M  V30 761 C 78.6702 -4.7681 2.1048 0
M  V30 762 C 75.9982 -5.1496 2.81128 0
M  V30 763 C 78.3502 -5.39404 3.30494 0
M  V30 764 C 77.0142 -5.5808 3.66201 0
M  V30 765 H 76.2842 -0.740554 0.0257127 0
M  V30 766 H 78.9312 -1.75727 0.761065 0
M  V30 767 H 77.2362 -3.83169 -0.817869 0
M  V30 768 H 78.9332 -3.98384 -0.457318 0
M  V30 769 H 75.5232 -4.17633 0.963364 0
M  V30 770 H 79.7072 -4.60766 1.84414 0
M  V30 771 H 74.9632 -5.27611 3.08928 0
M  V30 772 H 79.1372 -5.72114 3.97063 0
M  V30 773 H 76.7642 -6.05318 4.59885 0
M  V30 774 N 78.3393 -0.321999 -1.54275 0
M  V30 775 C 79.5673 0.283052 -2.04955 0
M  V30 776 C 79.9823 1.45904 -1.19823 0
M  V30 777 O 79.3393 1.81063 -0.228545 0
M  V30 778 C 79.3903 0.719028 -3.54277 0
M  V30 779 O 79.1113 -0.410175 -4.36176 0
M  V30 780 C 80.6123 1.38705 -4.21041 0
M  V30 781 H 77.8323 0.0584616 -0.668448 0
M  V30 782 H 80.3763 -0.467734 -1.99079 0
M  V30 783 H 78.5313 1.41979 -3.60445 0
M  V30 784 H 78.9453 -0.0669416 -5.24457 0
M  V30 785 H 80.4193 1.64306 -5.2698 0
M  V30 786 H 80.8963 2.33385 -3.72059 0
M  V30 787 H 81.5023 0.728906 -4.19007 0
M  V30 788 N 79.8174 1.5752 -0.0501392 0
M  V30 789 C 81.0944 1.83996 0.663685 0
M  V30 790 C 81.4744 0.938339 1.89099 0
M  V30 791 O 80.8224 -0.00087759 2.285 0
M  V30 792 C 81.0324 3.33702 1.02196 0
M  V30 793 C 82.3804 4.00691 1.40469 0
M  V30 794 O 83.4044 3.38321 1.11433 0
M  V30 795 O 82.2634 5.10658 1.94654 0
M  V30 796 H 79.3574 0.759385 0.32751 0
M  V30 797 H 81.9034 1.69514 -0.0794238 0
M  V30 798 H 80.6754 3.91015 0.149364 0
M  V30 799 H 80.2984 3.53368 1.82255 0
M  V30 800 N 81.2955 -0.223234 1.56011 0
M  V30 801 C 82.2455 -1.28008 1.88674 0
M  V30 802 C 83.2295 -1.42369 0.749663 0
M  V30 803 O 84.4215 -1.45212 1.01205 0
M  V30 804 C 81.5505 -2.63084 2.20548 0
M  V30 805 C 80.6365 -2.52632 3.40643 0
M  V30 806 N 81.0275 -2.11829 4.59306 0
M  V30 807 C 79.3255 -2.83594 3.44224 0
M  V30 808 C 80.0265 -2.12587 5.41463 0
M  V30 809 N 79.0025 -2.5301 4.81131 0
M  V30 810 H 82.8045 -0.955487 2.77935 0
M  V30 811 H 80.3185 -0.431801 1.56554 0
M  V30 812 H 82.3155 -3.39385 2.42122 0
M  V30 813 H 80.9755 -2.96391 1.32599 0
M  V30 814 H 81.9865 -1.82988 4.84496 0
M  V30 815 H 78.6635 -3.21284 2.66614 0
M  V30 816 H 80.0535 -1.83179 6.46448 0
M  V30 817 N 82.7736 -1.49793 -0.48987 0
M  V30 818 C 83.7066 -1.61898 -1.60823 0
M  V30 819 C 84.6846 -0.467651 -1.5573 0
M  V30 820 O 85.8686 -0.684682 -1.75626 0
M  V30 821 C 82.9956 -1.58422 -2.99366 0
M  V30 822 C 82.0416 -2.78889 -3.22682 0
M  V30 823 S 82.8746 -4.40429 -3.04602 0
M  V30 824 C 84.0306 -4.39617 -4.4552 0
M  V30 825 H 84.2636 -2.56502 -1.50312 0
M  V30 826 H 81.7966 -1.38822 -0.675849 0
M  V30 827 H 83.7546 -1.57103 -3.79248 0
M  V30 828 H 82.4156 -0.650866 -3.07283 0
M  V30 829 H 81.6086 -2.72708 -4.23847 0
M  V30 830 H 81.2106 -2.77678 -2.50541 0
M  V30 831 H 83.5026 -4.12022 -5.37814 0
M  V30 832 H 84.4456 -5.41097 -4.56749 0
M  V30 833 H 84.8536 -3.69554 -4.2672 0
M  V30 834 N 84.2517 0.741722 -1.39055 0
M  V30 835 C 85.1817 1.869 -1.39966 0
M  V30 836 C 86.1627 1.6804 -0.26392 0
M  V30 837 O 87.3477 1.88458 -0.468755 0
M  V30 838 C 84.4777 3.24572 -1.23574 0
M  V30 839 C 83.4317 3.58056 -2.34477 0
M  V30 840 C 82.7577 4.94593 -2.0318 0
M  V30 841 C 84.0577 3.61716 -3.76774 0
M  V30 842 H 85.7517 1.86395 -2.34302 0
M  V30 843 H 83.2977 0.895361 -1.1278 0
M  V30 844 H 85.2507 4.031 -1.22834 0
M  V30 845 H 83.9747 3.25587 -0.257045 0
M  V30 846 H 82.6337 2.81854 -2.34423 0
M  V30 847 H 82.2817 4.92181 -1.03765 0
M  V30 848 H 81.9817 5.17964 -2.77465 0
M  V30 849 H 83.5057 5.75486 -2.04079 0
M  V30 850 H 84.9197 4.30335 -3.78794 0
M  V30 851 H 83.3167 3.96603 -4.50362 0
M  V30 852 H 84.3867 2.61672 -4.08235 0
M  V30 853 N 85.7298 1.2412 0.971189 0
M  V30 854 C 86.9578 1.10575 1.74874 0
M  V30 855 C 87.3728 -0.342017 1.85676 0
M  V30 856 O 86.7298 -1.23617 1.34258 0
M  V30 857 C 86.7808 1.73579 3.171 0
M  V30 858 O 86.5018 3.12695 3.06844 0
M  V30 859 C 88.0028 1.65598 4.11208 0
M  V30 860 H 85.2228 0.386504 0.548503 0
M  V30 861 H 87.7668 1.64156 1.21955 0
M  V30 862 H 85.9218 1.24009 3.67016 0
M  V30 863 H 86.3358 3.43412 3.96445 0
M  V30 864 H 87.8098 2.1437 5.08674 0
M  V30 865 H 88.2868 0.616532 4.34851 0
M  V30 866 H 88.8928 2.14578 3.67201 0
M  V30 867 N 87.2079 -1.17134 1.05439 0
M  V30 868 C 88.4539 -1.87733 0.767077 0
M  V30 869 C 88.7869 -1.8098 -0.704253 0
M  V30 870 O 88.0619 -1.21951 -1.5152 0
M  V30 871 C 88.3449 -3.37659 1.25133 0
M  V30 872 C 88.1979 -3.53149 2.78578 0
M  V30 873 C 89.5169 -4.31768 0.852324 0
M  V30 874 H 86.6359 -0.681687 0.280129 0
M  V30 875 H 89.2779 -1.37732 1.30881 0
M  V30 876 H 87.4279 -3.80373 0.790469 0
M  V30 877 H 89.0999 -3.19434 3.32806 0
M  V30 878 H 87.3429 -2.95345 3.17732 0
M  V30 879 H 88.0139 -4.58403 3.07523 0
M  V30 880 H 90.4899 -3.96909 1.24911 0
M  V30 881 H 89.3659 -5.35199 1.21873 0
M  V30 882 H 89.6269 -4.41429 -0.243485 0
M  V30 883 N 88.686 -0.835752 -1.33615 0
M  V30 884 C 89.596 -0.269088 -2.33052 0
M  V30 885 C 90.612 0.603251 -1.63208 0
M  V30 886 O 91.788 0.508112 -1.94885 0
M  V30 887 C 88.853 0.549091 -3.42324 0
M  V30 888 C 87.914 -0.347156 -4.27894 0
M  V30 889 C 87.147 0.43207 -5.31948 0
M  V30 890 O 87.37 1.66409 -5.45586 0
M  V30 891 O 86.304 -0.192298 -6.01593 0
M  V30 892 H 90.13 -1.09243 -2.83372 0
M  V30 893 H 87.715 -0.598198 -1.36901 0
M  V30 894 H 89.597 1.01414 -4.09015 0
M  V30 895 H 88.272 1.34955 -2.94226 0
M  V30 896 H 87.179 -0.859979 -3.64081 0
M  V30 897 H 88.512 -1.1123 -4.79467 0
M  V30 898 N 90.1641 1.46063 -0.591896 0
M  V30 899 C 91.4101 2.03203 -0.0894879 0
M  V30 900 C 91.7651 1.45407 1.25994 0
M  V30 901 O 91.0581 0.61326 1.8152 0
M  V30 902 C 91.2521 3.57391 0.0249813 0
M  V30 903 C 91.0811 4.30142 -1.3118 0
M  V30 904 C 89.8511 4.68688 -1.88838 0
M  V30 905 C 92.0491 4.63098 -2.23708 0
M  V30 906 N 90.0311 5.26228 -3.1616 0
M  V30 907 C 91.4021 5.21305 -3.3562 0
M  V30 908 C 93.4571 4.45031 -2.23274 0
M  V30 909 C 92.1601 5.63351 -4.47245 0
M  V30 910 C 94.1861 4.881 -3.33935 0
M  V30 911 C 93.5481 5.46386 -4.44569 0
M  V30 912 H 89.6471 0.778323 -0.0757431 0
M  V30 913 H 92.2311 1.78094 -0.78681 0
M  V30 914 H 90.4021 3.82195 0.69149 0
M  V30 915 H 92.1341 4.0118 0.532613 0
M  V30 916 H 88.8891 4.5174 -1.42223 0
M  V30 917 H 89.3131 5.59512 -3.8115 0
M  V30 918 H 93.9551 3.99295 -1.39008 0
M  V30 919 H 91.6731 6.08061 -5.32247 0
M  V30 920 H 95.2591 4.75866 -3.34728 0
M  V30 921 H 94.1391 5.79102 -5.28782 0
M  V30 922 N 91.6422 0.330177 1.54103 0
M  V30 923 C 92.8672 -0.274893 2.0557 0
M  V30 924 C 93.2922 -1.44487 1.20437 0
M  V30 925 O 92.6502 -1.80021 0.214991 0
M  V30 926 C 92.6982 -0.68079 3.54115 0
M  V30 927 O 91.8022 -1.7824 3.71893 0
M  V30 928 H 91.1432 -0.0483849 0.662235 0
M  V30 929 H 93.6732 0.480508 1.98878 0
M  V30 930 H 93.6832 -0.961635 3.96505 0
M  V30 931 H 92.3582 0.174903 4.15532 0
M  V30 932 H 90.9352 -1.49985 3.41407 0
M  V30 933 N 93.1203 -1.57491 0.0584922 0
M  V30 934 C 94.3453 -1.97711 -0.62652 0
M  V30 935 C 94.7703 -0.936132 -1.63151 0
M  V30 936 O 94.1283 0.099811 -1.81025 0
M  V30 937 C 94.1763 -3.36989 -1.28338 0
M  V30 938 O 93.2803 -3.35433 -2.39913 0
M  V30 939 H 92.6213 -0.643868 -0.162266 0
M  V30 940 H 95.1513 -2.04193 0.129064 0
M  V30 941 H 95.1613 -3.73879 -1.63335 0
M  V30 942 H 93.8363 -4.12289 -0.546889 0
M  V30 943 H 92.4133 -3.10298 -2.06809 0
M  V30 944 N 94.5984 0.214957 -1.56127 0
M  V30 945 C 95.5084 1.28727 -1.96129 0
M  V30 946 C 96.5244 1.50916 -0.866044 0
M  V30 947 O 97.7004 1.63918 -1.17016 0
M  V30 948 C 94.7654 2.61569 -2.27558 0
M  V30 949 C 93.8264 2.47625 -3.50685 0
M  V30 950 C 93.0594 3.74132 -3.80606 0
M  V30 951 O 93.2824 4.77438 -3.12104 0
M  V30 952 O 92.2164 3.70849 -4.74083 0
M  V30 953 H 96.0424 0.977855 -2.87527 0
M  V30 954 H 93.6274 0.418358 -1.43423 0
M  V30 955 H 95.5094 3.40012 -2.48938 0
M  V30 956 H 94.1844 2.92178 -1.39332 0
M  V30 957 H 93.0914 1.67361 -3.34576 0
M  V30 958 H 94.4244 2.21954 -4.39315 0
M  V30 959 N 96.0765 1.50051 0.48192 0
M  V30 960 C 97.3235 1.60498 1.23477 0
M  V30 961 C 97.6515 0.300331 1.92167 0
M  V30 962 O 96.9065 -0.713094 1.82246 0
M  V30 963 C 97.2055 2.72717 2.30998 0
M  V30 964 C 96.8715 4.13572 1.79636 0
M  V30 965 C 95.5335 4.519 1.65348 0
M  V30 966 C 97.8855 5.01649 1.41412 0
M  V30 967 C 95.2135 5.76057 1.11244 0
M  V30 968 C 97.5655 6.26343 0.887538 0
M  V30 969 C 96.2295 6.63483 0.731207 0
M  V30 970 H 95.4995 0.587303 0.451836 0
M  V30 971 H 98.1465 1.83948 0.532468 0
M  V30 972 H 96.4515 2.43312 3.07094 0
M  V30 973 H 98.1485 2.78006 2.88988 0
M  V30 974 H 94.7385 3.83329 1.91721 0
M  V30 975 H 98.9225 4.72679 1.51289 0
M  V30 976 H 94.1785 6.03516 0.978686 0
M  V30 977 H 98.3525 6.93958 0.582654 0
M  V30 978 H 95.9795 7.59568 0.309806 0
M  V30 979 N 97.5546 -0.734337 1.39446 0
M  V30 980 C 98.8026 -1.49096 1.36436 0
M  V30 981 C 99.1236 -1.94961 -0.0388255 0
M  V30 982 O 98.3936 -1.69033 -0.990191 0
M  V30 983 H 96.9736 -0.5531 0.502085 0
M  V30 984 H 99.6356 -0.871725 1.74319 0
M  V30 985 H 98.7316 -2.37276 2.02747 0
M  V30 986 N 99.0327 -1.24633 -0.964593 0
M  V30 987 C 100.279 -1.09957 -1.71117 0
M  V30 988 C 100.634 0.357422 -1.89051 0
M  V30 989 O 99.9267 1.26029 -1.44317 0
M  V30 990 C 100.121 -1.7763 -3.10133 0
M  V30 991 C 99.9497 -3.29759 -3.05759 0
M  V30 992 C 98.7197 -3.98981 -3.10068 0
M  V30 993 C 100.918 -4.26305 -2.87695 0
M  V30 994 N 98.8997 -5.37966 -2.95747 0
M  V30 995 C 100.271 -5.52308 -2.81702 0
M  V30 996 C 102.326 -4.16842 -2.72299 0
M  V30 997 C 101.029 -6.69931 -2.61887 0
M  V30 998 C 103.055 -5.34147 -2.53853 0
M  V30 999 C 102.417 -6.59084 -2.48572 0
M  V30 1000 H 98.5157 -0.457003 -0.634564 0
M  V30 1001 H 101.1 -1.57592 -1.14337 0
M  V30 1002 H 99.2707 -1.32504 -3.65099 0
M  V30 1003 H 101.003 -1.55786 -3.73514 0
M  V30 1004 H 97.7577 -3.50169 -3.18871 0
M  V30 1005 H 98.1817 -6.10877 -2.91818 0
M  V30 1006 H 102.824 -3.21007 -2.75163 0
M  V30 1007 H 100.542 -7.65886 -2.57767 0
M  V30 1008 H 104.128 -5.28678 -2.4288 0
M  V30 1009 H 103.008 -7.48324 -2.34481 0
M  V30 1010 N 100.511 1.16574 -1.06058 0
M  V30 1011 C 101.421 2.2452 -0.680282 0
M  V30 1012 C 102.437 1.71348 0.302604 0
M  V30 1013 O 103.613 2.00822 0.152513 0
M  V30 1014 C 100.678 3.46629 -0.0700315 0
M  V30 1015 C 99.7388 4.14849 -1.10448 0
M  V30 1016 C 98.9718 5.31129 -0.523256 0
M  V30 1017 O 99.1948 5.66514 0.664709 0
M  V30 1018 O 98.1288 5.88526 -1.26179 0
M  V30 1019 H 101.955 2.59355 -1.58015 0
M  V30 1020 H 99.5398 1.24043 -0.832694 0
M  V30 1021 H 101.422 4.20543 0.268667 0
M  V30 1022 H 100.097 3.13573 0.803353 0
M  V30 1023 H 99.0038 3.42916 -1.49532 0
M  V30 1024 H 100.337 4.51954 -1.94931 0
M  V30 1025 N 101.989 0.842826 1.3317 0
M  V30 1026 C 102.936 0.276885 2.29133 0
M  V30 1027 C 103.906 -0.609527 1.54512 0
M  V30 1028 O 105.091 -0.546955 1.82792 0
M  V30 1029 C 102.231 -0.538707 3.40869 0
M  V30 1030 C 101.344 0.372169 4.30394 0
M  V30 1031 C 100.479 -0.454908 5.29249 0
M  V30 1032 C 99.5179 0.45411 6.10413 0
M  V30 1033 N 98.6549 -0.335075 7.013 0
M  V30 1034 H 103.495 1.10052 2.76934 0
M  V30 1035 H 101.032 0.554161 1.36262 0
M  V30 1036 H 102.99 -1.02709 4.0436 0
M  V30 1037 H 101.62 -1.32727 2.9425 0
M  V30 1038 H 100.672 0.97888 3.6759 0
M  V30 1039 H 101.984 1.0703 4.87182 0
M  V30 1040 H 101.138 -1.00695 5.98285 0
M  V30 1041 H 99.8769 -1.18646 4.73048 0
M  V30 1042 H 98.8819 1.01813 5.40291 0
M  V30 1043 H 100.107 1.18409 6.68697 0
M  V30 1044 H 98.0529 -1.04994 6.47543 0
M  V30 1045 H 97.9699 0.304262 7.55387 0
M  V30 1046 H 99.2379 -0.869224 7.74638 0
M  V30 1047 N 103.467 -1.45747 0.599634 0
M  V30 1048 C 104.878 -1.85853 0.177681 0
M  V30 1049 C 105.229 -1.50102 -1.26348 0
M  V30 1050 O 104.354 -0.923905 -1.95686 0
M  V30 1051 C 104.949 -3.37326 0.315688 0
M  V30 1052 C 103.508 -3.76365 -0.0515144 0
M  V30 1053 C 102.655 -2.69722 0.643822 0
M  V30 1054 H 105.606 -1.36661 0.806814 0
M  V30 1055 H 105.627 -3.77778 -0.454321 0
M  V30 1056 H 105.139 -3.63315 1.36468 0
M  V30 1057 H 103.24 -3.55993 -1.09999 0
M  V30 1058 H 103.353 -4.77916 0.336594 0
M  V30 1059 H 101.717 -2.54567 0.0822881 0
M  V30 1060 H 102.5 -2.98549 1.6948 0
M  V30 1061 N 104.945 -0.338344 -1.53925 0
M  V30 1062 C 105.895 0.536712 -2.21593 0
M  V30 1063 C 106.879 1.07015 -1.20153 0
M  V30 1064 O 108.071 1.00471 -1.45721 0
M  V30 1065 C 105.2 1.68977 -2.98834 0
M  V30 1066 C 104.286 1.17052 -4.07627 0
M  V30 1067 N 104.677 0.372085 -5.0443 0
M  V30 1068 C 102.975 1.44789 -4.21844 0
M  V30 1069 C 103.676 0.0909171 -5.81629 0
M  V30 1070 N 102.652 0.681131 -5.39316 0
M  V30 1071 H 106.454 -0.0804298 -2.9379 0
M  V30 1072 H 103.968 -0.144943 -1.61752 0
M  V30 1073 H 105.965 2.32857 -3.45808 0
M  V30 1074 H 104.625 2.31024 -2.28162 0
M  V30 1075 H 105.636 0.0136217 -5.17898 0
M  V30 1076 H 102.313 2.07313 -3.62391 0
M  V30 1077 H 103.703 -0.552817 -6.69622 0
M  V30 1078 N 106.423 1.57458 -0.0668435 0
M  V30 1079 C 107.672 1.92477 0.602947 0
M  V30 1080 C 107.985 0.948419 1.71068 0
M  V30 1081 O 109.191 1.19124 2.43971 0
M  V30 1082 C 107.647 3.41903 1.12383 0
M  V30 1083 C 107.255 4.47975 0.04737 0
M  V30 1084 C 108.999 3.85931 1.76797 0
M  V30 1085 C 106.906 5.88529 0.582022 0
M  V30 1086 H 105.836 0.718387 0.22899 0
M  V30 1087 H 108.487 1.82978 -0.138276 0
M  V30 1088 H 106.869 3.46459 1.91787 0
M  V30 1089 H 108.043 4.55029 -0.726978 0
M  V30 1090 H 106.358 4.13384 -0.500243 0
M  V30 1091 H 108.955 4.88322 2.17821 0
M  V30 1092 H 109.298 3.23029 2.62599 0
M  V30 1093 H 109.831 3.83958 1.04024 0
M  V30 1094 H 106.57 6.55065 -0.238721 0
M  V30 1095 H 106.09 5.85004 1.324 0
M  V30 1096 H 107.769 6.38258 1.05999 0
M  V30 1097 N 107.901 -0.206675 1.56239 0
M  V30 1098 C 108.848 -1.25617 1.93621 0
M  V30 1099 C 109.818 -1.45824 0.795274 0
M  V30 1100 O 111.003 -1.59148 1.05245 0
M  V30 1101 C 108.143 -2.59839 2.27107 0
M  V30 1102 C 107.256 -2.47308 3.54207 0
M  V30 1103 C 106.391 -3.74155 3.7707 0
M  V30 1104 C 105.43 -3.56407 4.97635 0
M  V30 1105 N 104.567 -4.75238 5.1681 0
M  V30 1106 H 109.407 -0.930383 2.83104 0
M  V30 1107 H 106.944 -0.448065 1.4011 0
M  V30 1108 H 108.902 -3.38021 2.44535 0
M  V30 1109 H 107.532 -2.90485 1.40778 0
M  V30 1110 H 106.584 -1.60483 3.4489 0
M  V30 1111 H 107.896 -2.30122 4.42544 0
M  V30 1112 H 107.05 -4.60778 3.94675 0
M  V30 1113 H 105.789 -3.94282 2.87042 0
M  V30 1114 H 104.794 -2.68168 4.79964 0
M  V30 1115 H 106.019 -3.37736 5.89161 0
M  V30 1116 H 103.965 -4.95651 4.29728 0
M  V30 1117 H 103.882 -4.60835 5.99306 0
M  V30 1118 H 105.15 -5.63246 5.38864 0
M  V30 1119 N 109.379 -1.50304 -0.473955 0
M  V30 1120 C 110.79 -1.54042 -1.0549 0
M  V30 1121 C 111.141 -0.342248 -1.93192 0
M  V30 1122 O 110.266 0.545157 -2.09421 0
M  V30 1123 C 110.861 -2.79152 -1.91989 0
M  V30 1124 C 109.42 -2.8558 -2.45196 0
M  V30 1125 C 108.567 -2.48295 -1.2347 0
M  V30 1126 H 111.518 -1.5661 -0.256693 0
M  V30 1127 H 111.539 -2.60845 -2.7702 0
M  V30 1128 H 111.051 -3.66339 -1.28131 0
M  V30 1129 H 109.152 -2.02738 -3.12615 0
M  V30 1130 H 109.265 -3.88403 -2.80499 0
M  V30 1131 H 107.629 -2.00669 -1.56856 0
M  V30 1132 H 108.412 -3.37787 -0.612789 0
M  V30 1133 N 110.857 0.726932 -1.39834 0
M  V30 1134 C 111.787 1.85405 -1.41941 0
M  V30 1135 C 112.768 1.67751 -0.281728 0
M  V30 1136 O 113.953 1.8795 -0.488717 0
M  V30 1137 C 111.083 3.23243 -1.2701 0
M  V30 1138 C 110.037 3.55549 -2.38262 0
M  V30 1139 C 109.363 4.9241 -2.08415 0
M  V30 1140 C 110.663 3.577 -3.80589 0
M  V30 1141 H 112.357 1.83899 -2.36266 0
M  V30 1142 H 109.903 0.883349 -1.13723 0
M  V30 1143 H 111.856 4.01775 -1.27103 0
M  V30 1144 H 110.58 3.25296 -0.291564 0
M  V30 1145 H 109.239 2.79351 -2.37399 0
M  V30 1146 H 108.887 4.91052 -1.0898 0
M  V30 1147 H 108.587 5.14992 -2.82943 0
M  V30 1148 H 110.111 5.73289 -2.10171 0
M  V30 1149 H 111.525 4.26293 -3.83337 0
M  V30 1150 H 109.922 3.91804 -4.54543 0
M  V30 1151 H 110.992 2.57328 -4.10987 0
M  V30 1152 N 112.336 1.25143 0.95797 0
M  V30 1153 C 113.268 1.01023 2.05735 0
M  V30 1154 C 114.281 -0.0236902 1.62783 0
M  V30 1155 O 115.47 0.21448 1.77207 0
M  V30 1156 C 112.57 0.504595 3.35122 0
M  V30 1157 C 111.743 1.6039 4.06932 0
M  V30 1158 C 110.802 1.09922 5.14591 0
M  V30 1159 O 109.828 1.79293 5.40225 0
M  V30 1160 N 111.03 -0.0612545 5.80468 0
M  V30 1161 H 113.795 1.95683 2.26998 0
M  V30 1162 H 111.356 1.16303 1.12629 0
M  V30 1163 H 113.348 0.151516 4.04416 0
M  V30 1164 H 111.918 -0.347989 3.10657 0
M  V30 1165 H 111.138 2.12872 3.31782 0
M  V30 1166 H 112.426 2.34252 4.51667 0
M  V30 1167 H 111.824 -0.640985 5.62057 0
M  V30 1168 H 110.381 -0.355395 6.5083 0
M  V30 1169 N 113.814 -1.1601 1.06675 0
M  V30 1170 C 114.762 -2.22586 0.675157 0
M  V30 1171 C 115.756 -1.66525 -0.310766 0
M  V30 1172 O 116.962 -1.79145 -0.175215 0
M  V30 1173 H 113.337 -0.724855 0.200223 0
M  V30 1174 H 115.308 -2.52899 1.58381 0
M  V30 1175 C 114.057 -3.47604 0.0817162 0
M  V30 1176 H 113.38 -3.91058 0.831484 0
M  V30 1177 H 114.82 -4.23718 -0.154708 0
M  V30 1178 C 113.279 -3.15718 -1.17576 0
M  V30 1179 O 113.809 -3.31878 -2.26318 0
M  V30 1180 N 112.015 -2.69816 -1.07923 0
M  V30 1181 H 111.562 -2.56866 -0.194293 0
M  V30 1182 H 111.52 -2.48855 -1.92141 0
M  V30 1183 N 115.292 -0.849877 -1.32721 0
M  V30 1184 C 116.222 -0.306308 -2.31482 0
M  V30 1185 C 117.203 0.591952 -1.59468 0
M  V30 1186 O 118.388 0.513199 -1.87296 0
M  V30 1187 C 115.518 0.510204 -3.43532 0
M  V30 1188 C 114.472 -0.293209 -4.26994 0
M  V30 1189 C 113.798 0.647743 -5.30762 0
M  V30 1190 C 115.098 -1.51634 -4.99804 0
M  V30 1191 H 116.792 -1.13153 -2.77195 0
M  V30 1192 H 114.338 -0.545553 -1.33266 0
M  V30 1193 H 116.291 0.900856 -4.11658 0
M  V30 1194 H 115.015 1.36874 -2.96535 0
M  V30 1195 H 113.674 -0.665555 -3.60508 0
M  V30 1196 H 113.322 1.50299 -4.8002 0
M  V30 1197 H 113.022 0.11422 -5.87489 0
M  V30 1198 H 114.546 1.03567 -6.01753 0
M  V30 1199 H 115.96 -1.19824 -5.60638 0
M  V30 1200 H 114.357 -1.98745 -5.66234 0
M  V30 1201 H 115.427 -2.28018 -4.27943 0
M  V30 1202 N 116.77 1.45427 -0.607355 0
M  V30 1203 C 117.995 2.07124 -0.107006 0
M  V30 1204 C 118.42 1.44906 1.19933 0
M  V30 1205 O 117.778 0.541687 1.73019 0
M  V30 1206 C 117.826 3.60595 0.0194119 0
M  V30 1207 O 116.93 3.98285 1.0697 0
M  V30 1208 H 116.271 0.659868 -0.0739597 0
M  V30 1209 H 118.801 1.86683 -0.837297 0
M  V30 1210 H 118.811 4.07419 0.2177 0
M  V30 1211 H 117.486 4.05266 -0.934453 0
M  V30 1212 H 116.063 3.63133 0.847889 0
M  V30 1213 N 118.248 0.346503 1.53744 0
M  V30 1214 C 119.178 -0.501193 2.28058 0
M  V30 1215 C 120.159 -1.10014 1.29734 0
M  V30 1216 O 121.344 -1.12097 1.58581 0
M  V30 1217 C 118.474 -1.65078 3.05559 0
M  V30 1218 C 117.428 -1.18003 4.11411 0
M  V30 1219 C 116.754 -2.41837 4.76884 0
M  V30 1220 C 118.054 -0.278394 5.21558 0
M  V30 1221 H 119.748 0.11875 2.99164 0
M  V30 1222 H 117.294 0.0585531 1.43881 0
M  V30 1223 H 119.247 -2.25028 3.56287 0
M  V30 1224 H 117.971 -2.29767 2.32109 0
M  V30 1225 H 116.63 -0.603331 3.61601 0
M  V30 1226 H 116.278 -3.0494 4.00026 0
M  V30 1227 H 115.978 -2.1102 5.48402 0
M  V30 1228 H 117.502 -3.02508 5.30397 0
M  V30 1229 H 118.916 -0.784823 5.67903 0
M  V30 1230 H 117.313 -0.0619707 6.00068 0
M  V30 1231 H 118.383 0.684677 4.80042 0
M  V30 1232 N 119.726 -1.57421 0.075193 0
M  V30 1233 C 120.676 -2.09441 -0.901025 0
M  V30 1234 C 121.66 -1.00486 -1.25663 0
M  V30 1235 O 122.852 -1.2679 -1.23504 0
M  V30 1236 C 119.981 -2.66233 -2.16737 0
M  V30 1237 C 119.067 -3.82198 -1.83808 0
M  V30 1238 N 119.458 -4.91028 -1.21345 0
M  V30 1239 C 117.756 -3.91558 -2.13538 0
M  V30 1240 C 118.457 -5.71852 -1.06585 0
M  V30 1241 N 117.433 -5.20233 -1.57667 0
M  V30 1242 H 121.235 -2.90972 -0.413815 0
M  V30 1243 H 118.749 -1.6189 -0.128601 0
M  V30 1244 H 120.746 -3.01819 -2.87595 0
M  V30 1245 H 119.406 -1.8615 -2.66042 0
M  V30 1246 H 120.417 -5.10323 -0.88268 0
M  V30 1247 H 117.094 -3.22454 -2.65197 0
M  V30 1248 H 118.484 -6.69401 -0.578933 0
M  V30 1249 N 121.204 0.198386 -1.56346 0
M  V30 1250 C 122.615 0.763358 -1.70381 0
M  V30 1251 C 122.966 1.83995 -0.681203 0
M  V30 1252 O 122.091 2.15785 0.16305 0
M  V30 1253 C 122.686 1.39143 -3.08909 0
M  V30 1254 C 121.245 1.90352 -3.2472 0
M  V30 1255 C 120.392 0.772233 -2.6633 0
M  V30 1256 H 123.343 -0.0266377 -1.58678 0
M  V30 1257 H 123.364 2.26076 -3.06055 0
M  V30 1258 H 122.876 0.607638 -3.83314 0
M  V30 1259 H 120.977 2.71461 -2.55225 0
M  V30 1260 H 121.09 2.06757 -4.3219 0
M  V30 1261 H 119.454 1.18566 -2.2542 0
M  V30 1262 H 120.237 0.00073556 -3.433 0
M  V30 1263 N 122.682 1.50554 0.465978 0
M  V30 1264 C 123.93 1.61479 1.21528 0
M  V30 1265 C 124.251 0.319596 1.92363 0
M  V30 1266 O 123.521 -0.663194 1.84333 0
M  V30 1267 H 122.101 0.595055 0.451573 0
M  V30 1268 H 124.763 1.87355 0.53704 0
M  V30 1269 H 123.859 2.42846 1.96042 0
M  V30 1270 N 124.16 -0.719506 1.40217 0
M  V30 1271 C 125.385 -1.51371 1.4178 0
M  V30 1272 C 125.81 -1.88091 0.0182355 0
M  V30 1273 O 125.168 -1.52997 -0.972707 0
M  V30 1274 C 125.216 -2.768 2.31115 0
M  V30 1275 O 124.32 -3.73349 1.7517 0
M  V30 1276 H 123.661 -0.456529 0.482159 0
M  V30 1277 H 126.191 -0.88644 1.844 0
M  V30 1278 H 126.201 -3.25371 2.46167 0
M  V30 1279 H 124.876 -2.49407 3.3282 0
M  V30 1280 H 123.453 -3.32179 1.69444 0
M  V30 1281 N 125.638 -1.25649 -0.95132 0
M  V30 1282 C 126.863 -1.13443 -1.73624 0
M  V30 1283 C 127.288 0.307565 -1.85568 0
M  V30 1284 O 126.646 1.22282 -1.33854 0
M  V30 1285 C 126.694 -1.79723 -3.12621 0
M  V30 1286 O 125.798 -1.07912 -3.98031 0
M  V30 1287 H 125.139 -0.395872 -0.533086 0
M  V30 1288 H 127.669 -1.66276 -1.1922 0
M  V30 1289 H 127.679 -1.86141 -3.63064 0
M  V30 1290 H 126.354 -2.84633 -3.03244 0
M  V30 1291 H 124.931 -1.09398 -3.56492 0
M  V30 1292 N 127.117 1.15442 -1.07289 0
M  V30 1293 C 128.08 2.18358 -0.696591 0
M  V30 1294 C 129.08 1.58637 0.262837 0
M  V30 1295 O 130.27 1.74145 0.0438809 0
M  V30 1296 C 127.402 3.4089 -0.0266151 0
M  V30 1297 H 128.595 2.53162 -1.60776 0
M  V30 1298 H 126.148 1.29893 -0.869342 0
M  V30 1299 H 126.883 3.11653 0.896822 0
M  V30 1300 H 126.668 3.85495 -0.716657 0
M  V30 1301 H 128.158 4.17009 0.222028 0
M  V30 1302 N 128.595 0.856903 1.32268 0
M  V30 1303 C 129.525 0.31858 2.31316 0
M  V30 1304 C 130.506 -0.583487 1.59779 0
M  V30 1305 O 131.691 -0.503259 1.87566 0
M  V30 1306 C 128.821 -0.491979 3.43798 0
M  V30 1307 C 127.775 0.315849 4.26833 0
M  V30 1308 C 127.101 -0.619586 5.31098 0
M  V30 1309 C 128.401 1.54282 4.98993 0
M  V30 1310 H 130.095 1.14621 2.76591 0
M  V30 1311 H 127.641 0.552613 1.32974 0
M  V30 1312 H 129.594 -0.879012 4.1213 0
M  V30 1313 H 128.318 -1.35299 2.97257 0
M  V30 1314 H 126.977 0.684664 3.6015 0
M  V30 1315 H 126.625 -1.47751 4.8081 0
M  V30 1316 H 126.325 -0.0830621 5.87541 0
M  V30 1317 H 127.849 -1.00375 6.02293 0
M  V30 1318 H 129.263 1.22796 5.59995 0
M  V30 1319 H 127.66 2.01745 5.65172 0
M  V30 1320 H 128.73 2.30285 4.26728 0
M  V30 1321 N 130.073 -1.45103 0.615059 0
M  V30 1322 C 131.023 -2.27679 -0.120966 0
M  V30 1323 C 132.007 -1.3775 -0.831491 0
M  V30 1324 O 133.199 -1.61683 -0.720249 0
M  V30 1325 C 130.328 -3.24767 -1.1127 0
M  V30 1326 C 129.414 -4.22184 -0.402627 0
M  V30 1327 N 129.805 -5.02692 0.559884 0
M  V30 1328 C 128.103 -4.4125 -0.649202 0
M  V30 1329 C 128.804 -5.73421 0.977942 0
M  V30 1330 N 127.78 -5.42657 0.320104 0
M  V30 1331 H 131.582 -2.87325 0.618181 0
M  V30 1332 H 129.096 -1.56345 0.439304 0
M  V30 1333 H 131.093 -3.82666 -1.65446 0
M  V30 1334 H 129.753 -2.66682 -1.85232 0
M  V30 1335 H 130.764 -5.09354 0.936976 0
M  V30 1336 H 127.441 -3.9428 -1.37293 0
M  V30 1337 H 128.831 -6.48107 1.77222 0
M  V30 1338 N 131.551 -0.354651 -1.53558 0
M  V30 1339 C 132.781 0.239167 -2.05211 0
M  V30 1340 C 133.189 1.43879 -1.22863 0
M  V30 1341 O 132.532 1.81857 -0.259565 0
M  V30 1342 C 132.594 0.707251 -3.52474 0
M  V30 1343 C 132.258 -0.374212 -4.55465 0
M  V30 1344 C 133.255 -1.22054 -5.0537 0
M  V30 1345 C 130.94 -0.531323 -4.99482 0
M  V30 1346 C 132.934 -2.20942 -5.97882 0
M  V30 1347 C 130.621 -1.52358 -5.91802 0
M  V30 1348 C 131.619 -2.36108 -6.40892 0
M  V30 1349 O 131.307 -3.33643 -7.31394 0
M  V30 1350 H 131.039 0.0479716 -0.674296 0
M  V30 1351 H 133.593 -0.508121 -1.99016 0
M  V30 1352 H 131.823 1.50596 -3.56171 0
M  V30 1353 H 133.512 1.22285 -3.87042 0
M  V30 1354 H 134.278 -1.1103 -4.7212 0
M  V30 1355 H 130.157 0.110738 -4.60867 0
M  V30 1356 H 133.701 -2.86348 -6.36121 0
M  V30 1357 H 129.598 -1.63434 -6.24467 0
M  V30 1358 H 130.366 -3.29244 -7.4936 0
M  V30 1359 N 133.029 1.57378 -0.0835403 0
M  V30 1360 C 133.992 2.12252 0.864959 0
M  V30 1361 C 134.992 1.04916 1.21858 0
M  V30 1362 O 136.182 1.30853 1.14991 0
M  V30 1363 C 133.314 2.63358 2.16461 0
M  V30 1364 H 134.507 2.97371 0.388676 0
M  V30 1365 H 132.06 1.55423 0.165317 0
M  V30 1366 H 132.795 1.81727 2.686 0
M  V30 1367 H 132.58 3.41826 1.92087 0
M  V30 1368 H 134.07 3.05847 2.84337 0
M  V30 1369 N 134.507 -0.190092 1.56449 0
M  V30 1370 C 135.753 -0.911052 1.81184 0
M  V30 1371 C 136.086 -1.82699 0.658396 0
M  V30 1372 O 135.361 -1.91491 -0.340775 0
M  V30 1373 C 135.644 -1.72297 3.16205 0
M  V30 1374 C 135.497 -0.831419 4.42049 0
M  V30 1375 C 136.816 -2.69454 3.47969 0
M  V30 1376 H 133.935 -0.32977 0.659106 0
M  V30 1377 H 136.577 -0.178169 1.89163 0
M  V30 1378 H 134.727 -2.34778 3.09534 0
M  V30 1379 H 136.399 -0.220929 4.60771 0
M  V30 1380 H 134.642 -0.138406 4.33579 0
M  V30 1381 H 135.313 -1.43461 5.33032 0
M  V30 1382 H 137.789 -2.17104 3.54972 0
M  V30 1383 H 136.665 -3.23342 4.43555 0
M  V30 1384 H 136.926 -3.48744 2.71717 0
M  V30 1385 N 135.985 -1.50799 -0.457987 0
M  V30 1386 C 136.895 -1.73426 -1.57989 0
M  V30 1387 C 137.911 -0.617745 -1.62665 0
M  V30 1388 O 139.087 -0.897614 -1.80291 0
M  V30 1389 C 136.152 -1.83557 -2.94122 0
M  V30 1390 C 135.213 -3.07345 -2.99729 0
M  V30 1391 C 134.446 -3.16983 -4.29368 0
M  V30 1392 O 134.669 -2.33077 -5.20607 0
M  V30 1393 O 133.603 -4.09812 -4.40837 0
M  V30 1394 H 137.429 -2.68555 -1.41817 0
M  V30 1395 H 135.014 -1.35052 -0.638859 0
M  V30 1396 H 136.896 -1.92326 -3.74952 0
M  V30 1397 H 135.571 -0.916137 -3.10465 0
M  V30 1398 H 134.478 -3.04068 -2.1793 0
M  V30 1399 H 135.811 -3.9891 -2.88326 0
M  V30 1400 N 137.463 0.71206 -1.40597 0
M  V30 1401 C 138.393 1.83889 -1.43899 0
M  V30 1402 C 139.374 1.67442 -0.299504 0
M  V30 1403 O 140.559 1.87421 -0.508624 0
M  V30 1404 C 137.689 3.21877 -1.30431 0
M  V30 1405 C 136.643 3.53002 -2.42019 0
M  V30 1406 C 135.969 4.90172 -2.13626 0
M  V30 1407 C 137.269 3.53643 -3.84362 0
M  V30 1408 H 138.963 1.81383 -2.38203 0
M  V30 1409 H 136.509 0.871237 -1.14654 0
M  V30 1410 H 138.462 4.00404 -1.31357 0
M  V30 1411 H 137.186 3.24968 -0.326049 0
M  V30 1412 H 135.845 2.76818 -2.40349 0
M  V30 1413 H 135.493 4.89869 -1.14182 0
M  V30 1414 H 135.193 5.11962 -2.88389 0
M  V30 1415 H 136.717 5.71028 -2.1624 0
M  V30 1416 H 138.131 4.22203 -3.87837 0
M  V30 1417 H 136.528 3.86961 -4.58673 0
M  V30 1418 H 137.598 2.52954 -4.13693 0
M  V30 1419 N 138.941 1.26152 0.944643 0
M  V30 1420 C 140.188 1.11492 1.69044 0
M  V30 1421 C 140.516 -0.342366 1.91463 0
M  V30 1422 O 139.771 -1.26812 1.49054 0
M  V30 1423 C 140.07 1.82541 3.07268 0
M  V30 1424 C 139.736 3.32445 3.04616 0
M  V30 1425 C 138.398 3.73337 3.036 0
M  V30 1426 C 140.75 4.28171 2.97185 0
M  V30 1427 C 138.078 5.08348 2.92915 0
M  V30 1428 C 140.43 5.63218 2.88041 0
M  V30 1429 C 139.094 6.03426 2.85366 0
M  V30 1430 H 138.364 0.407977 0.618576 0
M  V30 1431 H 141.011 1.56551 1.10291 0
M  V30 1432 H 139.316 1.29941 3.69625 0
M  V30 1433 H 141.013 1.68642 3.63815 0
M  V30 1434 H 137.603 2.99915 3.06185 0
M  V30 1435 H 141.787 3.97563 2.97081 0
M  V30 1436 H 137.043 5.38667 2.89219 0
M  V30 1437 H 141.217 6.37078 2.81254 0
M  V30 1438 H 138.844 7.07999 2.76842 0
M  V30 1439 N 140.419 -1.14872 1.07899 0
M  V30 1440 C 141.329 -2.2341 0.715915 0
M  V30 1441 C 142.345 -1.71808 -0.275306 0
M  V30 1442 O 143.521 -2.01039 -0.120545 0
M  V30 1443 C 140.586 -3.46474 0.125168 0
M  V30 1444 C 139.647 -4.13039 1.17034 0
M  V30 1445 C 138.88 -5.30229 0.607688 0
M  V30 1446 O 139.103 -5.675 -0.574497 0
M  V30 1447 O 138.037 -5.86444 1.35526 0
M  V30 1448 H 141.863 -2.56808 1.62121 0
M  V30 1449 H 139.448 -1.22702 0.852322 0
M  V30 1450 H 141.33 -4.20917 -0.201729 0
M  V30 1451 H 140.005 -3.14811 -0.753364 0
M  V30 1452 H 138.912 -3.40493 1.54968 0
M  V30 1453 H 140.245 -4.48796 2.02097 0
M  V30 1454 N 141.898 -0.863906 -1.31812 0
M  V30 1455 C 143.146 -0.470904 -1.96537 0
M  V30 1456 C 143.467 0.978771 -1.68657 0
M  V30 1457 O 142.737 1.6853 -0.998717 0
M  V30 1458 H 141.317 -0.171148 -0.72713 0
M  V30 1459 H 143.979 -1.10236 -1.60729 0
M  V30 1460 H 143.075 -0.623616 -3.05806 0
M  V30 1461 N 143.376 1.44774 -0.622745 0
M  V30 1462 C 144.306 2.33382 0.0741861 0
M  V30 1463 C 145.287 1.47719 0.843387 0
M  V30 1464 O 146.472 1.76458 0.810934 0
M  V30 1465 C 143.602 3.30663 1.06204 0
M  V30 1466 C 142.556 4.26079 0.405037 0
M  V30 1467 C 141.882 5.13165 1.5022 0
M  V30 1468 C 143.182 5.1781 -0.683414 0
M  V30 1469 H 144.876 2.91905 -0.665713 0
M  V30 1470 H 142.422 1.40363 -0.321587 0
M  V30 1471 H 144.375 3.9153 1.55827 0
M  V30 1472 H 143.099 2.70331 1.83272 0
M  V30 1473 H 141.758 3.66532 -0.0704683 0
M  V30 1474 H 141.406 4.49191 2.26355 0
M  V30 1475 H 141.106 5.77812 1.06803 0
M  V30 1476 H 142.63 5.76902 2.00041 0
M  V30 1477 H 144.044 5.72661 -0.270631 0
M  V30 1478 H 142.441 5.91015 -1.04023 0
M  V30 1479 H 143.511 4.59326 -1.55395 0
M  V30 1480 N 144.854 0.36279 1.53368 0
M  V30 1481 C 145.801 -0.485008 2.25646 0
M  V30 1482 C 146.771 -1.07982 1.2621 0
M  V30 1483 O 147.956 -1.11284 1.54986 0
M  V30 1484 C 145.096 -1.62023 3.04701 0
M  V30 1485 C 144.209 -1.05086 4.19024 0
M  V30 1486 C 143.344 -2.15496 4.85525 0
M  V30 1487 C 142.383 -1.5601 5.91884 0
M  V30 1488 N 141.52 -2.60241 6.52088 0
M  V30 1489 H 146.36 0.137864 2.97681 0
M  V30 1490 H 143.897 0.0798061 1.46883 0
M  V30 1491 H 145.855 -2.28887 3.48807 0
M  V30 1492 H 144.485 -2.2138 2.34927 0
M  V30 1493 H 143.537 -0.27259 3.79422 0
M  V30 1494 H 144.849 -0.575926 4.95464 0
M  V30 1495 H 144.003 -2.90186 5.32801 0
M  V30 1496 H 142.742 -2.66341 4.08551 0
M  V30 1497 H 141.747 -0.798338 5.43973 0
M  V30 1498 H 142.972 -1.05994 6.70777 0
M  V30 1499 H 140.918 -3.10304 5.77968 0
M  V30 1500 H 140.835 -2.17426 7.24059 0
M  V30 1501 H 142.103 -3.34641 7.04014 0
M  V30 1502 N 146.332 -1.57332 0.0918853 0
M  V30 1503 C 147.295 -2.12708 -0.85369 0
M  V30 1504 C 148.295 -1.05561 -1.213 0
M  V30 1505 O 149.485 -1.31461 -1.14296 0
M  V30 1506 C 146.617 -2.64503 -2.15061 0
M  V30 1507 H 147.81 -2.97573 -0.3729 0
M  V30 1508 H 145.363 -1.55509 -0.157072 0
M  V30 1509 H 146.098 -1.83149 -2.67632 0
M  V30 1510 H 145.883 -3.4284 -1.90272 0
M  V30 1511 H 147.373 -3.07351 -2.82711 0
M  V30 1512 N 147.81 0.181792 -1.56548 0
M  V30 1513 C 149.057 0.900097 -1.81396 0
M  V30 1514 C 149.385 1.82695 -0.667281 0
M  V30 1515 O 148.64 1.92614 0.346146 0
M  V30 1516 C 148.939 1.73728 -3.12335 0
M  V30 1517 C 148.605 0.960255 -4.40556 0
M  V30 1518 C 147.267 0.745766 -4.75386 0
M  V30 1519 C 149.619 0.414477 -5.19549 0
M  V30 1520 C 146.947 -0.0257694 -5.86694 0
M  V30 1521 C 149.299 -0.343916 -6.31664 0
M  V30 1522 C 147.963 -0.569301 -6.65068 0
M  V30 1523 H 147.233 0.329369 -0.663775 0
M  V30 1524 H 149.88 0.165647 -1.90782 0
M  V30 1525 H 148.185 2.54081 -2.98245 0
M  V30 1526 H 149.882 2.29591 -3.28769 0
M  V30 1527 H 146.472 1.13746 -4.13231 0
M  V30 1528 H 150.656 0.567554 -4.93044 0
M  V30 1529 H 145.912 -0.210233 -6.11038 0
M  V30 1530 H 150.086 -0.774133 -6.92084 0
M  V30 1531 H 147.713 -1.16903 -7.51158 0
M  V30 1532 N 149.288 1.51039 0.449983 0
M  V30 1533 C 150.704 1.38934 0.785462 0
M  V30 1534 C 150.904 0.461817 1.96136 0
M  V30 1535 O 149.96 -0.0877389 2.52348 0
M  V30 1536 C 151.273 2.80724 1.0777 0
M  V30 1537 C 152.821 2.89787 1.1829 0
M  V30 1538 C 153.296 4.32457 1.50815 0
M  V30 1539 N 154.787 4.35505 1.57764 0
M  V30 1540 C 155.522 5.42914 1.84477 0
M  V30 1541 N 155.018 6.60502 2.09068 0
M  V30 1542 N 156.811 5.3038 1.86155 0
M  V30 1543 H 148.962 2.09904 -0.324647 0
M  V30 1544 H 151.225 0.944378 -0.0827957 0
M  V30 1545 H 150.931 3.50531 0.286498 0
M  V30 1546 H 150.805 3.19273 2.00859 0
M  V30 1547 H 153.192 2.20186 1.96474 0
M  V30 1548 H 153.273 2.54752 0.231314 0
M  V30 1549 H 152.917 5.02603 0.731622 0
M  V30 1550 H 152.847 4.64995 2.47158 0
M  V30 1551 H 155.338 3.50724 1.40715 0
M  V30 1552 H 155.651 7.38158 2.28785 0
M  V30 1553 H 153.996 6.63639 2.06416 0
M  V30 1554 H 157.187 4.37505 1.66454 0
M  V30 1555 H 157.36 6.1417 2.06637 0
M  V30 1556 N 150.766 -0.704594 1.40972 0
M  V30 1557 C 152.014 -1.46169 1.39568 0
M  V30 1558 C 152.335 -1.95 0.00253745 0
M  V30 1559 O 151.605 -1.71095 -0.954114 0
M  V30 1560 H 150.185 -0.542326 0.513704 0
M  V30 1561 H 152.847 -0.834553 1.76128 0
M  V30 1562 H 151.943 -2.32922 2.07735 0
M  V30 1563 N 152.244 -1.26651 -0.937939 0
M  V30 1564 C 153.49 -1.12553 -1.687 0
M  V30 1565 C 153.823 0.329782 -1.91379 0
M  V30 1566 O 153.098 1.24202 -1.4968 0
M  V30 1567 C 153.381 -1.89862 -3.05981 0
M  V30 1568 C 153.234 -3.43318 -2.90607 0
M  V30 1569 C 154.553 -1.69499 -4.0615 0
M  V30 1570 H 151.672 -0.410257 -0.612257 0
M  V30 1571 H 154.314 -1.55685 -1.08913 0
M  V30 1572 H 152.464 -1.53204 -3.57017 0
M  V30 1573 H 154.136 -3.89747 -2.46769 0
M  V30 1574 H 152.379 -3.70179 -2.26164 0
M  V30 1575 H 153.05 -3.92642 -3.8799 0
M  V30 1576 H 155.526 -2.01442 -3.64088 0
M  V30 1577 H 154.402 -2.26002 -5.00214 0
M  V30 1578 H 154.663 -0.640365 -4.37438 0
M  V30 1579 N 153.722 1.14298 -1.08507 0
M  V30 1580 C 154.999 1.81544 -0.728088 0
M  V30 1581 C 155.379 1.95838 0.78808 0
M  V30 1582 O 154.727 1.51904 1.70697 0
M  V30 1583 C 154.937 3.17169 -1.45619 0
M  V30 1584 C 156.285 3.9265 -1.61591 0
M  V30 1585 O 157.309 3.26762 -1.41793 0
M  V30 1586 O 156.168 5.10807 -1.94263 0
M  V30 1587 H 153.262 0.78491 -0.260471 0
M  V30 1588 H 155.808 1.21307 -1.18671 0
M  V30 1589 H 154.58 3.01934 -2.489 0
M  V30 1590 H 154.203 3.851 -0.989124 0
M  V30 1591 N 155.201 0.870884 1.31352 0
M  V30 1592 C 156.149 0.316445 2.30437 0
M  V30 1593 C 157.143 -0.568965 1.59559 0
M  V30 1594 O 158.349 -0.454964 1.74155 0
M  V30 1595 H 154.724 0.0836521 0.747333 0
M  V30 1596 H 156.695 1.16606 2.74673 0
M  V30 1597 C 155.444 -0.46635 3.44558 0
M  V30 1598 H 154.767 0.205687 3.99271 0
M  V30 1599 H 156.207 -0.819614 4.16003 0
M  V30 1600 C 154.666 -1.65797 2.9328 0
M  V30 1601 O 155.196 -2.75728 2.92125 0
M  V30 1602 N 153.402 -1.49041 2.4947 0
M  V30 1603 H 152.949 -0.59612 2.50608 0
M  V30 1604 H 152.907 -2.28911 2.15516 0
M  V30 1605 N 156.679 -1.44442 0.630414 0
M  V30 1606 C 157.626 -2.30678 -0.0749355 0
M  V30 1607 C 158.596 -1.4344 -0.837502 0
M  V30 1608 O 159.781 -1.72343 -0.818684 0
M  V30 1609 C 156.921 -3.28706 -1.05103 0
M  V30 1610 C 156.034 -4.31046 -0.286954 0
M  V30 1611 C 155.169 -5.16167 -1.2548 0
M  V30 1612 C 154.208 -6.10216 -0.479843 0
M  V30 1613 N 153.345 -6.88039 -1.39811 0
M  V30 1614 H 158.185 -2.90454 0.666386 0
M  V30 1615 H 155.722 -1.43107 0.340404 0
M  V30 1616 H 157.68 -3.84027 -1.63031 0
M  V30 1617 H 156.31 -2.70632 -1.75949 0
M  V30 1618 H 155.362 -3.78203 0.408243 0
M  V30 1619 H 156.674 -4.97794 0.316657 0
M  V30 1620 H 155.828 -5.76002 -1.90544 0
M  V30 1621 H 154.567 -4.49491 -1.89233 0
M  V30 1622 H 153.572 -5.49491 0.184295 0
M  V30 1623 H 154.797 -6.78928 0.152965 0
M  V30 1624 H 152.743 -6.24032 -2.02287 0
M  V30 1625 H 152.66 -7.51223 -0.848508 0
M  V30 1626 H 153.928 -7.52397 -2.03762 0
M  V30 1627 N 158.157 -0.370918 -1.53173 0
M  V30 1628 C 159.406 0.218249 -2.00516 0
M  V30 1629 C 159.719 1.49429 -1.26215 0
M  V30 1630 O 160.925 2.16239 -1.64174 0
M  V30 1631 C 159.381 0.43948 -3.57207 0
M  V30 1632 C 158.989 -0.822244 -4.4039 0
M  V30 1633 C 160.733 0.986012 -4.1289 0
M  V30 1634 C 158.64 -0.570304 -5.88644 0
M  V30 1635 H 157.57 0.0853333 -0.749156 0
M  V30 1636 H 160.221 -0.490483 -1.76823 0
M  V30 1637 H 158.603 1.20961 -3.77074 0
M  V30 1638 H 159.777 -1.59557 -4.32294 0
M  V30 1639 H 158.092 -1.29238 -3.95836 0
M  V30 1640 H 160.689 1.18991 -5.21292 0
M  V30 1641 H 161.032 1.94972 -3.6782 0
M  V30 1642 H 161.565 0.27592 -3.96842 0
M  V30 1643 H 158.304 -1.50449 -6.38001 0
M  V30 1644 H 157.824 0.164427 -5.99575 0
M  V30 1645 H 159.503 -0.19784 -6.46697 0
M  V30 1646 N 159.635 1.57281 -0.100228 0
M  V30 1647 C 161.051 1.57527 0.256416 0
M  V30 1648 C 161.251 1.11173 1.68056 0
M  V30 1649 O 160.307 0.79053 2.39806 0
M  V30 1650 C 161.62 3.00673 0.0401747 0
M  V30 1651 C 163.168 3.12815 0.107528 0
M  V30 1652 C 163.643 4.57929 -0.0807834 0
M  V30 1653 N 165.134 4.63193 -0.0261207 0
M  V30 1654 C 165.869 5.73212 -0.146999 0
M  V30 1655 N 165.365 6.92047 -0.322999 0
M  V30 1656 N 167.158 5.62031 -0.0879044 0
M  V30 1657 H 159.309 1.85718 -1.03065 0
M  V30 1658 H 161.572 0.857446 -0.404339 0
M  V30 1659 H 161.278 3.38804 -0.943649 0
M  V30 1660 H 161.152 3.69042 0.780262 0
M  V30 1661 H 163.539 2.74554 1.08186 0
M  V30 1662 H 163.62 2.47028 -0.664134 0
M  V30 1663 H 163.264 4.96886 -1.05201 0
M  V30 1664 H 163.194 5.21783 0.710635 0
M  V30 1665 H 165.685 3.77748 0.107161 0
M  V30 1666 H 165.998 7.7173 -0.406608 0
M  V30 1667 H 164.343 6.94074 -0.358733 0
M  V30 1668 H 167.534 4.68075 0.048498 0
M  V30 1669 H 167.707 6.47734 -0.185557 0
M  V30 1670 N 161.113 -0.173488 1.56642 0
M  V30 1671 C 162.043 -1.2171 1.99271 0
M  V30 1672 C 163.024 -1.46289 0.867959 0
M  V30 1673 O 164.209 -1.5766 1.13388 0
M  V30 1674 C 161.339 -2.55651 2.35074 0
M  V30 1675 C 160.293 -2.45645 3.50489 0
M  V30 1676 C 159.619 -3.84056 3.72028 0
M  V30 1677 C 160.919 -1.96302 4.84007 0
M  V30 1678 H 162.613 -0.86275 2.867 0
M  V30 1679 H 160.159 -0.413571 1.37933 0
M  V30 1680 H 162.112 -3.2886 2.63494 0
M  V30 1681 H 160.836 -2.92869 1.44552 0
M  V30 1682 H 159.495 -1.7489 3.22194 0
M  V30 1683 H 159.143 -4.18664 2.788 0
M  V30 1684 H 158.843 -3.7823 4.49684 0
M  V30 1685 H 160.367 -4.58854 4.02846 0
M  V30 1686 H 161.781 -2.59284 5.11317 0
M  V30 1687 H 160.178 -2.01429 5.65284 0
M  V30 1688 H 161.248 -0.917226 4.76146 0
M  V30 1689 N 162.591 -1.51276 -0.441967 0
M  V30 1690 C 163.838 -1.63715 -1.19179 0
M  V30 1691 C 164.166 -0.351175 -1.91303 0
M  V30 1692 O 163.421 0.664524 -1.84072 0
M  V30 1693 C 163.72 -2.78746 -2.23686 0
M  V30 1694 C 163.386 -4.18189 -1.68607 0
M  V30 1695 C 162.048 -4.56125 -1.53308 0
M  V30 1696 C 164.4 -5.05222 -1.28062 0
M  V30 1697 C 161.728 -5.78804 -0.959317 0
M  V30 1698 C 164.08 -6.28476 -0.721162 0
M  V30 1699 C 162.744 -6.65188 -0.55504 0
M  V30 1700 H 162.014 -0.599076 -0.436106 0
M  V30 1701 H 164.661 -1.85296 -0.48351 0
M  V30 1702 H 162.966 -2.51369 -3.00535 0
M  V30 1703 H 164.663 -2.8557 -2.81515 0
M  V30 1704 H 161.253 -3.88277 -1.8149 0
M  V30 1705 H 165.437 -4.76524 -1.38704 0
M  V30 1706 H 160.693 -6.05899 -0.81833 0
M  V30 1707 H 164.867 -6.95259 -0.398458 0
M  V30 1708 H 162.494 -7.60123 -0.108311 0
M  V30 1709 N 164.069 0.697108 -1.41344 0
M  V30 1710 C 165.001 1.8224 -1.39001 0
M  V30 1711 C 166.014 1.60152 -0.292428 0
M  V30 1712 O 167.203 1.69684 -0.554048 0
M  V30 1713 C 164.303 3.18976 -1.14489 0
M  V30 1714 C 163.476 3.68105 -2.36258 0
M  V30 1715 C 162.535 4.83506 -2.07625 0
M  V30 1716 O 161.561 4.95201 -2.8065 0
M  V30 1717 N 162.763 5.70637 -1.06555 0
M  V30 1718 H 165.528 1.84742 -2.35988 0
M  V30 1719 H 163.089 0.87937 -1.35936 0
M  V30 1720 H 165.081 3.93801 -0.932885 0
M  V30 1721 H 163.651 3.11508 -0.261043 0
M  V30 1722 H 162.871 2.84204 -2.7317 0
M  V30 1723 H 164.159 3.97667 -3.17393 0
M  V30 1724 H 163.557 5.63817 -0.461125 0
M  V30 1725 H 162.114 6.45368 -0.913444 0
M  V30 1726 N 165.547 1.27147 0.931209 0
M  V30 1727 C 166.958 1.12044 1.49342 0
M  V30 1728 C 167.309 -0.295795 1.93957 0
M  V30 1729 O 166.434 -1.18835 1.80852 0
M  V30 1730 C 167.029 2.02781 2.71414 0
M  V30 1731 C 165.588 1.91794 3.2387 0
M  V30 1732 C 164.735 1.95543 1.96617 0
M  V30 1733 H 167.686 1.40091 0.745672 0
M  V30 1734 H 167.707 1.58156 3.46074 0
M  V30 1735 H 167.219 3.05848 2.38911 0
M  V30 1736 H 165.32 0.916992 3.6114 0
M  V30 1737 H 165.433 2.77852 3.90302 0
M  V30 1738 H 163.797 1.39722 2.12955 0
M  V30 1739 H 164.58 3.00259 1.66432 0
M  V30 1740 N 167.025 -1.13721 1.09112 0
M  V30 1741 C 167.973 -2.21103 0.722219 0
M  V30 1742 C 168.967 -1.67147 -0.275374 0
M  V30 1743 O 170.173 -1.79477 -0.137176 0
M  V30 1744 H 166.548 -0.720445 0.215553 0
M  V30 1745 H 168.519 -2.49483 1.63709 0
M  V30 1746 C 167.268 -3.47352 0.15543 0
M  V30 1747 H 166.591 -3.89206 0.914246 0
M  V30 1748 H 168.031 -4.2395 -0.0647967 0
M  V30 1749 C 166.49 -3.1814 -1.10852 0
M  V30 1750 O 167.02 -3.36604 -2.19227 0
M  V30 1751 N 165.226 -2.72045 -1.02176 0
M  V30 1752 H 164.773 -2.57221 -0.139764 0
M  V30 1753 H 164.731 -2.52875 -1.8682 0
M  V30 1754 N 168.503 -0.877838 -1.30888 0
M  V30 1755 C 169.433 -0.35534 -2.3078 0
M  V30 1756 C 170.414 0.557994 -1.60687 0
M  V30 1757 O 171.599 0.473355 -1.88343 0
M  V30 1758 C 168.729 0.437221 -3.44537 0
M  V30 1759 C 167.683 -0.383715 -4.26276 0
M  V30 1760 C 167.009 0.535014 -5.32017 0
M  V30 1761 C 168.309 -1.62201 -4.96476 0
M  V30 1762 H 170.003 -1.19007 -2.74732 0
M  V30 1763 H 167.549 -0.573698 -1.32078 0
M  V30 1764 H 169.502 0.813334 -4.13477 0
M  V30 1765 H 168.226 1.30553 -2.99372 0
M  V30 1766 H 166.885 -0.741874 -3.59015 0
M  V30 1767 H 166.533 1.40083 -4.831 0
M  V30 1768 H 166.233 -0.0104211 -5.87599 0
M  V30 1769 H 167.757 0.907799 -6.03814 0
M  V30 1770 H 169.171 -1.31689 -5.5797 0
M  V30 1771 H 167.568 -2.10711 -5.61891 0
M  V30 1772 H 168.638 -2.37044 -4.23011 0
M  V30 1773 N 169.982 1.44106 -0.638065 0
M  V30 1774 C 170.93 2.3248 0.0748149 0
M  V30 1775 C 171.924 1.47746 0.828702 0
M  V30 1776 O 173.13 1.64049 0.740816 0
M  V30 1777 H 169.505 0.750771 0.0429686 0
M  V30 1778 H 171.476 2.90348 -0.688504 0
M  V30 1779 C 170.225 3.31843 1.03805 0
M  V30 1780 H 169.548 3.97059 0.467375 0
M  V30 1781 H 170.988 3.96345 1.50622 0
M  V30 1782 C 169.447 2.61291 2.1267 0
M  V30 1783 O 169.977 2.41702 3.20847 0
M  V30 1784 N 168.183 2.20915 1.88798 0
M  V30 1785 H 167.73 2.37047 1.00829 0
M  V30 1786 H 167.688 1.74038 2.61836 0
M  V30 1787 N 171.46 0.379036 1.52974 0
M  V30 1788 C 172.393 -0.504932 2.22544 0
M  V30 1789 C 173.371 -1.0723 1.22231 0
M  V30 1790 O 174.555 -1.12589 1.51182 0
M  V30 1791 C 171.682 -1.69794 2.93066 0
M  V30 1792 C 170.728 -1.25678 4.07563 0
M  V30 1793 S 171.561 -0.246852 5.34931 0
M  V30 1794 C 172.717 -1.44588 6.08971 0
M  V30 1795 H 172.95 0.0858666 2.97176 0
M  V30 1796 H 170.483 0.163183 1.53535 0
M  V30 1797 H 172.441 -2.38219 3.34308 0
M  V30 1798 H 171.102 -2.26002 2.18133 0
M  V30 1799 H 170.295 -2.14725 4.5597 0
M  V30 1800 H 169.897 -0.651584 3.6828 0
M  V30 1801 H 172.189 -2.37469 6.34519 0
M  V30 1802 H 173.132 -1.00292 7.00962 0
M  V30 1803 H 173.54 -1.65804 5.39601 0
M  V30 1804 N 172.938 -1.57226 0.108567 0
M  V30 1805 C 174.215 -1.86333 -0.594939 0
M  V30 1806 C 174.595 -1.00788 -1.85486 0
M  V30 1807 O 173.943 -0.0839293 -2.28346 0
M  V30 1808 C 174.153 -3.37265 -0.897405 0
M  V30 1809 C 175.501 -4.05629 -1.25501 0
M  V30 1810 O 176.525 -3.42224 -0.987998 0
M  V30 1811 O 175.384 -5.17531 -1.75567 0
M  V30 1812 H 172.478 -0.771018 -0.2991 0
M  V30 1813 H 175.024 -1.69102 0.142283 0
M  V30 1814 H 173.796 -3.913 -0.00413806 0
M  V30 1815 H 173.419 -3.59889 -1.69014 0
M  V30 1816 N 174.416 0.165178 -1.56732 0
M  V30 1817 C 175.832 0.517174 -1.50988 0
M  V30 1818 C 176.032 1.84331 -0.813894 0
M  V30 1819 O 175.088 2.49672 -0.37682 0
M  V30 1820 C 176.401 0.544261 -2.95733 0
M  V30 1821 C 177.949 0.631039 -3.06573 0
M  V30 1822 C 178.424 0.68896 -4.52788 0
M  V30 1823 N 179.915 0.751683 -4.5706 0
M  V30 1824 C 180.65 0.817177 -5.67547 0
M  V30 1825 N 180.146 0.843129 -6.8765 0
M  V30 1826 N 181.939 0.856668 -5.55534 0
M  V30 1827 H 174.09 -0.704318 -2.00382 0
M  V30 1828 H 176.353 -0.254687 -0.913148 0
M  V30 1829 H 176.059 -0.361607 -3.49836 0
M  V30 1830 H 175.933 1.3886 -3.5071 0
M  V30 1831 H 178.32 1.52733 -2.52501 0
M  V30 1832 H 178.401 -0.240095 -2.54671 0
M  V30 1833 H 178.045 -0.2031 -5.07494 0
M  V30 1834 H 177.975 1.57633 -5.02454 0
M  V30 1835 H 180.466 0.739661 -3.70591 0
M  V30 1836 H 180.779 0.894448 -7.67606 0
M  V30 1837 H 179.124 0.811304 -6.90248 0
M  V30 1838 H 182.315 0.833437 -4.60621 0
M  V30 1839 H 182.488 0.904247 -6.4166 0
M  V30 1840 N 175.894 1.51508 0.433938 0
M  V30 1841 C 176.827 1.67756 1.54704 0
M  V30 1842 C 177.805 0.525127 1.53887 0
M  V30 1843 O 178.989 0.749393 1.72963 0
M  V30 1844 C 176.116 1.69424 2.9328 0
M  V30 1845 C 175.162 2.90673 3.12108 0
M  V30 1846 S 175.995 4.51431 2.88046 0
M  V30 1847 C 177.151 4.55849 4.28897 0
M  V30 1848 H 177.384 2.61904 1.40689 0
M  V30 1849 H 174.917 1.41235 0.62386 0
M  V30 1850 H 176.875 1.7107 3.73156 0
M  V30 1851 H 175.536 0.764464 3.04655 0
M  V30 1852 H 174.729 2.88251 4.13434 0
M  V30 1853 H 174.331 2.86786 2.40062 0
M  V30 1854 H 176.623 4.31699 5.22152 0
M  V30 1855 H 177.566 5.57676 4.36351 0
M  V30 1856 H 177.974 3.85137 4.12711 0
M  V30 1857 N 177.372 -0.689602 1.41712 0
M  V30 1858 C 178.602 -1.47613 1.44548 0
M  V30 1859 C 179.01 -1.89132 0.0509034 0
M  V30 1860 O 178.353 -1.57741 -0.94146 0
M  V30 1861 C 178.415 -2.76596 2.2964 0
M  V30 1862 C 178.079 -2.57245 3.77722 0
M  V30 1863 C 179.076 -2.22804 4.69739 0
M  V30 1864 C 176.761 -2.727 4.2183 0
M  V30 1865 C 178.755 -2.04064 6.03851 0
M  V30 1866 C 176.442 -2.53576 5.56006 0
M  V30 1867 C 177.44 -2.1931 6.46832 0
M  V30 1868 O 177.128 -2.00359 7.78532 0
M  V30 1869 H 176.86 -0.461227 0.494212 0
M  V30 1870 H 179.414 -0.856045 1.86711 0
M  V30 1871 H 177.644 -3.41033 1.82301 0
M  V30 1872 H 179.333 -3.38424 2.24107 0
M  V30 1873 H 180.099 -2.10473 4.36951 0
M  V30 1874 H 175.978 -2.98353 3.51435 0
M  V30 1875 H 179.522 -1.77241 6.74708 0
M  V30 1876 H 175.419 -2.65499 5.88371 0
M  V30 1877 H 176.187 -2.15075 7.89737 0
M  V30 1878 N 178.85 -1.27639 -0.924453 0
M  V30 1879 C 180.266 -1.05113 -1.20097 0
M  V30 1880 C 180.466 0.213262 -2.00368 0
M  V30 1881 O 179.522 0.91787 -2.35226 0
M  V30 1882 C 180.835 -2.29244 -1.94596 0
M  V30 1883 C 182.383 -2.34315 -2.07522 0
M  V30 1884 C 182.858 -3.58183 -2.85427 0
M  V30 1885 N 184.349 -3.5876 -2.92994 0
M  V30 1886 C 185.084 -4.51277 -3.53746 0
M  V30 1887 N 184.58 -5.54102 -4.15863 0
M  V30 1888 N 186.373 -4.38894 -3.51181 0
M  V30 1889 H 178.524 -2.08821 -0.388264 0
M  V30 1890 H 180.787 -0.918568 -0.234385 0
M  V30 1891 H 180.493 -3.21301 -1.43034 0
M  V30 1892 H 180.367 -2.34816 -2.95197 0
M  V30 1893 H 182.754 -1.42762 -2.58269 0
M  V30 1894 H 182.835 -2.32744 -1.06131 0
M  V30 1895 H 182.479 -4.50074 -2.35363 0
M  V30 1896 H 182.409 -3.57006 -3.8711 0
M  V30 1897 H 184.9 -2.84398 -2.4885 0
M  V30 1898 H 185.213 -6.20859 -4.60168 0
M  V30 1899 H 183.558 -5.57941 -4.144 0
M  V30 1900 H 186.749 -3.57772 -3.01856 0
M  V30 1901 H 186.922 -5.11186 -3.98237 0
M  V30 1902 N 180.328 1.1314 -1.09713 0
M  V30 1903 C 181.553 1.88862 -0.857081 0
M  V30 1904 C 181.978 1.78729 0.586304 0
M  V30 1905 O 181.336 1.13692 1.41222 0
M  V30 1906 C 181.384 3.36325 -1.30069 0
M  V30 1907 O 180.488 4.09815 -0.461007 0
M  V30 1908 H 179.829 0.587108 -0.310162 0
M  V30 1909 H 182.359 1.43129 -1.46203 0
M  V30 1910 H 182.369 3.87157 -1.28738 0
M  V30 1911 H 181.044 3.43017 -2.35185 0
M  V30 1912 H 179.621 3.68986 -0.538888 0
M  V30 1913 N 181.806 0.884767 1.30421 0
M  V30 1914 C 182.769 0.356277 2.26414 0
M  V30 1915 C 183.769 -0.501124 1.52792 0
M  V30 1916 O 184.959 -0.30831 1.7145 0
M  V30 1917 C 182.091 -0.492316 3.37326 0
M  V30 1918 H 183.284 1.20389 2.74675 0
M  V30 1919 H 180.837 0.661607 1.41607 0
M  V30 1920 H 181.572 -1.36052 2.94381 0
M  V30 1921 H 181.357 0.121832 3.91911 0
M  V30 1922 H 182.847 -0.853871 4.08777 0
M  V30 1923 N 183.284 -1.43765 0.645699 0
M  V30 1924 C 184.53 -2.02197 0.156271 0
M  V30 1925 C 184.863 -1.50776 -1.22393 0
M  V30 1926 O 184.138 -0.697771 -1.81553 0
M  V30 1927 C 184.421 -3.59749 0.158872 0
M  V30 1928 C 184.274 -4.21419 1.57245 0
M  V30 1929 C 185.593 -4.37149 -0.50879 0
M  V30 1930 H 182.712 -0.734694 0.0582602 0
M  V30 1931 H 185.354 -1.71157 0.824951 0
M  V30 1932 H 183.504 -3.86325 -0.410525 0
M  V30 1933 H 185.176 -4.059 2.19186 0
M  V30 1934 H 183.419 -3.78356 2.122 0
M  V30 1935 H 184.09 -5.30482 1.52619 0
M  V30 1936 H 186.566 -4.16093 -0.024412 0
M  V30 1937 H 185.442 -5.4683 -0.476213 0
M  V30 1938 H 185.703 -4.12839 -1.58165 0
M  V30 1939 N 184.763 -0.387143 -1.52771 0
M  V30 1940 C 186.179 -0.037007 -1.59557 0
M  V30 1941 C 186.379 1.44801 -1.40124 0
M  V30 1942 O 185.435 2.21227 -1.21716 0
M  V30 1943 C 186.748 -0.512256 -2.96305 0
M  V30 1944 C 188.296 -0.468328 -3.09476 0
M  V30 1945 C 188.771 -0.919731 -4.4867 0
M  V30 1946 N 190.262 -0.875656 -4.54848 0
M  V30 1947 C 190.997 -1.19637 -5.6078 0
M  V30 1948 N 190.493 -1.58745 -6.74368 0
M  V30 1949 N 192.286 -1.11776 -5.50874 0
M  V30 1950 H 184.437 -1.35395 -1.63652 0
M  V30 1951 H 186.7 -0.554818 -0.768688 0
M  V30 1952 H 186.406 -1.54935 -3.15734 0
M  V30 1953 H 186.28 0.089805 -3.77093 0
M  V30 1954 H 188.667 0.559671 -2.89744 0
M  V30 1955 H 188.748 -1.10616 -2.30646 0
M  V30 1956 H 188.392 -1.94595 -4.69143 0
M  V30 1957 H 188.322 -0.258927 -5.25963 0
M  V30 1958 H 190.813 -0.587843 -3.733 0
M  V30 1959 H 191.126 -1.81586 -7.51163 0
M  V30 1960 H 189.471 -1.6263 -6.75705 0
M  V30 1961 H 192.662 -0.811264 -4.61016 0
M  V30 1962 H 192.835 -1.37103 -6.3333 0
M  V30 1963 N 186.241 1.57166 -0.116904 0
M  V30 1964 C 187.204 2.14039 0.819742 0
M  V30 1965 C 188.204 1.07477 1.19605 0
M  V30 1966 O 189.394 1.33263 1.1219 0
M  V30 1967 C 186.526 2.67891 2.10826 0
M  V30 1968 H 187.719 2.98128 0.325511 0
M  V30 1969 H 185.272 1.55739 0.132312 0
M  V30 1970 H 186.007 1.87384 2.64685 0
M  V30 1971 H 185.792 3.45823 1.84793 0
M  V30 1972 H 187.282 3.11809 2.77785 0
M  V30 1973 N 187.719 -0.156864 1.56817 0
M  V30 1974 C 188.947 -0.886316 1.86955 0
M  V30 1975 C 189.362 -1.75185 0.703975 0
M  V30 1976 O 188.719 -1.79555 -0.326552 0
M  V30 1977 C 188.77 -1.75117 3.16253 0
M  V30 1978 O 188.491 -0.920537 4.2832 0
M  V30 1979 C 189.992 -2.58905 3.59837 0
M  V30 1980 H 187.212 -0.25678 0.619923 0
M  V30 1981 H 189.756 -0.152615 2.0393 0
M  V30 1982 H 187.911 -2.43805 3.01062 0
M  V30 1983 H 188.325 -1.51337 5.02192 0
M  V30 1984 H 189.799 -3.1518 4.53172 0
M  V30 1985 H 190.276 -3.34472 2.84649 0
M  V30 1986 H 190.882 -1.95526 3.7769 0
M  V30 1987 N 189.197 -1.51736 -0.425897 0
M  V30 1988 C 190.127 -1.76827 -1.52494 0
M  V30 1989 C 191.108 -0.618524 -1.58456 0
M  V30 1990 O 192.293 -0.862416 -1.74 0
M  V30 1991 C 189.423 -1.90374 -2.90474 0
M  V30 1992 C 188.377 -3.0588 -2.99369 0
M  V30 1993 C 187.703 -3.04625 -4.3944 0
M  V30 1994 C 189.003 -4.45644 -2.72394 0
M  V30 1995 H 190.697 -2.68855 -1.31748 0
M  V30 1996 H 188.243 -1.29372 -0.632362 0
M  V30 1997 H 190.196 -2.0651 -3.6733 0
M  V30 1998 H 188.92 -0.95004 -3.12477 0
M  V30 1999 H 187.579 -2.89467 -2.24954 0
M  V30 2000 H 187.227 -2.0701 -4.58428 0
M  V30 2001 H 186.927 -3.82195 -4.46319 0
M  V30 2002 H 188.451 -3.22869 -5.18255 0
M  V30 2003 H 189.865 -4.62348 -3.38979 0
M  V30 2004 H 188.262 -5.25006 -2.9067 0
M  V30 2005 H 189.332 -4.54893 -1.67929 0
M  V30 2006 N 190.675 0.682077 -1.42076 0
M  V30 2007 C 192.086 1.26246 -1.37546 0
M  V30 2008 C 192.437 1.96092 -0.0651481 0
M  V30 2009 O 191.562 1.99587 0.836297 0
M  V30 2010 C 192.157 2.29594 -2.49143 0
M  V30 2011 C 190.716 2.83175 -2.47969 0
M  V30 2012 C 189.863 1.57395 -2.28303 0
M  V30 2013 H 192.814 0.475937 -1.51395 0
M  V30 2014 H 192.835 3.11175 -2.18976 0
M  V30 2015 H 192.347 1.78729 -3.44496 0
M  V30 2016 H 190.448 3.3818 -1.56413 0
M  V30 2017 H 190.561 3.32687 -3.44755 0
M  V30 2018 H 188.925 1.83699 -1.76428 0
M  V30 2019 H 189.708 1.08507 -3.25701 0
M  V30 2020 N 192.153 1.28127 0.917671 0
M  V30 2021 C 193.399 1.15223 1.66888 0
M  V30 2022 C 193.732 -0.299293 1.9188 0
M  V30 2023 O 193.007 -1.21805 1.51637 0
M  V30 2024 C 193.29 1.94706 3.02922 0
M  V30 2025 C 193.143 3.47898 2.85109 0
M  V30 2026 C 194.462 1.75939 4.03402 0
M  V30 2027 H 191.581 0.419946 0.605652 0
M  V30 2028 H 194.223 1.57398 1.06423 0
M  V30 2029 H 192.373 1.58864 3.54534 0
M  V30 2030 H 194.045 3.93624 2.40537 0
M  V30 2031 H 192.288 3.7373 2.20246 0
M  V30 2032 H 192.959 3.98765 3.81694 0
M  V30 2033 H 195.435 2.07209 3.60837 0
M  V30 2034 H 194.311 2.33931 4.96556 0
M  V30 2035 H 194.572 0.709877 4.36364 0
M  V30 2036 N 193.631 -1.12557 1.10312 0
M  V30 2037 C 194.878 -1.84038 0.844759 0
M  V30 2038 C 195.206 -1.84026 -0.629668 0
M  V30 2039 O 194.461 -1.28026 -1.48013 0
M  V30 2040 C 194.76 -3.31462 1.33669 0
M  V30 2041 C 194.426 -3.51647 2.82232 0
M  V30 2042 C 193.088 -3.56864 3.22802 0
M  V30 2043 C 195.44 -3.58867 3.77974 0
M  V30 2044 C 192.768 -3.66844 4.57867 0
M  V30 2045 C 195.12 -3.70375 5.1284 0
M  V30 2046 C 193.784 -3.73848 5.52986 0
M  V30 2047 H 193.054 -0.673444 0.309119 0
M  V30 2048 H 195.701 -1.32824 1.37949 0
M  V30 2049 H 194.006 -3.85091 0.721949 0
M  V30 2050 H 195.703 -3.85236 1.11329 0
M  V30 2051 H 192.293 -3.48249 2.49842 0
M  V30 2052 H 196.477 -3.54107 3.47738 0
M  V30 2053 H 191.733 -3.67804 4.88396 0
M  V30 2054 H 195.907 -3.74904 5.86873 0
M  V30 2055 H 193.534 -3.81333 6.57639 0
M  V30 2056 N 195.109 -0.891671 -1.2995 0
M  V30 2057 C 196.386 -0.433307 -1.9074 0
M  V30 2058 C 196.766 1.08646 -1.80995 0
M  V30 2059 O 196.114 1.92476 -1.23147 0
M  V30 2060 C 196.324 -0.938895 -3.36134 0
M  V30 2061 C 197.672 -0.977829 -4.13187 0
M  V30 2062 O 198.696 -0.886015 -3.45005 0
M  V30 2063 O 197.555 -1.11453 -5.35015 0
M  V30 2064 H 194.649 -0.133699 -0.816121 0
M  V30 2065 H 197.195 -0.981011 -1.38471 0
M  V30 2066 H 195.967 -1.98281 -3.37343 0
M  V30 2067 H 195.59 -0.37074 -3.95868 0
M  V30 2068 N 196.587 1.43421 -0.653314 0
M  V30 2069 C 197.534 2.30768 0.0382271 0
M  V30 2070 C 198.504 1.44755 0.814576 0
M  V30 2071 O 199.689 1.73624 0.791162 0
M  V30 2072 C 196.829 3.30336 0.998599 0
M  V30 2073 C 195.942 4.31448 0.218342 0
M  V30 2074 C 195.077 5.18098 1.17252 0
M  V30 2075 C 194.116 6.10902 0.382702 0
M  V30 2076 N 193.253 6.90176 1.28848 0
M  V30 2077 H 198.093 2.89357 -0.712511 0
M  V30 2078 H 195.63 1.42548 -0.363128 0
M  V30 2079 H 197.588 3.86572 1.56901 0
M  V30 2080 H 196.218 2.73397 1.71621 0
M  V30 2081 H 195.27 3.77506 -0.46836 0
M  V30 2082 H 196.582 4.97227 -0.395812 0
M  V30 2083 H 195.736 5.7896 1.81356 0
M  V30 2084 H 194.475 4.52444 1.82058 0
M  V30 2085 H 193.48 5.49128 -0.27169 0
M  V30 2086 H 194.705 6.78598 -0.260957 0
M  V30 2087 H 192.651 6.27171 1.92334 0
M  V30 2088 H 192.568 7.52478 0.728887 0
M  V30 2089 H 193.836 7.55543 1.91766 0
M  V30 2090 N 198.065 0.39524 1.52563 0
M  V30 2091 C 198.975 -0.444232 2.30356 0
M  V30 2092 C 199.991 -1.06615 1.37511 0
M  V30 2093 O 201.167 -1.07067 1.70583 0
M  V30 2094 C 198.232 -1.55315 3.09964 0
M  V30 2095 C 197.293 -0.955734 4.18526 0
M  V30 2096 C 196.526 -2.01181 4.9433 0
M  V30 2097 O 196.749 -3.22781 4.70285 0
M  V30 2098 O 195.683 -1.62579 5.79527 0
M  V30 2099 H 199.509 0.189667 3.03107 0
M  V30 2100 H 197.094 0.1588 1.48554 0
M  V30 2101 H 198.976 -2.19724 3.59582 0
M  V30 2102 H 197.651 -2.17191 2.4002 0
M  V30 2103 H 196.558 -0.274743 3.7309 0
M  V30 2104 H 197.891 -0.381109 4.90722 0
M  V30 2105 N 199.544 -1.57102 0.125237 0
M  V30 2106 C 200.454 -2.19191 -0.8362 0
M  V30 2107 C 201.47 -1.16985 -1.28805 0
M  V30 2108 O 202.646 -1.49479 -1.34974 0
M  V30 2109 C 199.711 -2.78407 -2.06617 0
M  V30 2110 C 198.772 -3.9567 -1.66565 0
M  V30 2111 C 198.005 -4.52052 -2.83698 0
M  V30 2112 O 198.228 -4.07326 -3.99302 0
M  V30 2113 O 197.162 -5.42645 -2.60423 0
M  V30 2114 H 200.988 -3.01816 -0.337776 0
M  V30 2115 H 198.573 -1.4906 -0.100695 0
M  V30 2116 H 200.455 -3.16129 -2.7864 0
M  V30 2117 H 199.13 -1.9881 -2.55453 0
M  V30 2118 H 198.037 -3.62705 -0.916296 0
M  V30 2119 H 199.37 -4.76722 -1.22464 0
M  V30 2120 N 201.022 0.148545 -1.56898 0
M  V30 2121 C 201.952 1.18524 -2.01182 0
M  V30 2122 C 202.933 1.4489 -0.891123 0
M  V30 2123 O 204.118 1.55836 -1.15882 0
M  V30 2124 C 201.248 2.51879 -2.39112 0
M  V30 2125 C 200.202 2.40038 -3.54353 0
M  V30 2126 C 199.528 3.78089 -3.78091 0
M  V30 2127 C 200.828 1.88577 -4.87069 0
M  V30 2128 H 202.522 0.817029 -2.88036 0
M  V30 2129 H 200.068 0.391575 -1.38574 0
M  V30 2130 H 202.021 3.24627 -2.68692 0
M  V30 2131 H 200.745 2.90532 -1.49193 0
M  V30 2132 H 199.404 1.69742 -3.24936 0
M  V30 2133 H 199.052 4.14175 -2.85426 0
M  V30 2134 H 198.752 3.71028 -4.55645 0
M  V30 2135 H 200.276 4.52387 -4.10095 0
M  V30 2136 H 201.69 2.51117 -5.15377 0
M  V30 2137 H 200.087 1.9241 -5.68417 0
M  V30 2138 H 201.157 0.84136 -4.77545 0
M  V30 2139 N 202.5 1.5196 0.417844 0
M  V30 2140 C 203.43 1.77634 1.51554 0
M  V30 2141 C 204.411 0.626918 1.58126 0
M  V30 2142 O 205.596 0.871632 1.7354 0
M  V30 2143 C 202.726 1.91911 2.8946 0
M  V30 2144 C 201.68 3.07463 2.97743 0
M  V30 2145 C 201.006 3.06951 4.37819 0
M  V30 2146 C 202.306 4.47082 2.70027 0
M  V30 2147 H 204 2.6955 1.3032 0
M  V30 2148 H 201.546 1.29706 0.625492 0
M  V30 2149 H 203.499 2.08455 3.6623 0
M  V30 2150 H 202.223 0.966598 3.11969 0
M  V30 2151 H 200.882 2.90656 2.23416 0
M  V30 2152 H 200.53 2.09438 4.57323 0
M  V30 2153 H 200.23 3.84556 4.44286 0
M  V30 2154 H 201.754 3.25613 5.16535 0
M  V30 2155 H 203.168 4.6414 3.36522 0
M  V30 2156 H 201.565 5.2654 2.87881 0
M  V30 2157 H 202.635 4.55777 1.65514 0
M  V30 2158 N 203.978 -0.674533 1.42435 0
M  V30 2159 C 204.888 -1.81751 1.48337 0
M  V30 2160 C 205.904 -1.69975 0.372099 0
M  V30 2161 O 207.08 -1.91521 0.62304 0
M  V30 2162 C 204.145 -3.17895 1.38361 0
M  V30 2163 C 203.206 -3.41625 2.59982 0
M  V30 2164 C 202.439 -4.71274 2.50473 0
M  V30 2165 O 202.662 -5.49197 1.54075 0
M  V30 2166 O 201.596 -4.96254 3.4061 0
M  V30 2167 H 205.422 -1.79728 2.44809 0
M  V30 2168 H 203.007 -0.830312 1.24202 0
M  V30 2169 H 204.889 -3.99136 1.35161 0
M  V30 2170 H 203.564 -3.20555 0.450144 0
M  V30 2171 H 202.471 -2.60231 2.68757 0
M  V30 2172 H 203.804 -3.43796 3.52229 0
M  V30 2173 N 205.456 -1.28612 -0.910864 0
M  V30 2174 C 206.696 -1.1719 -1.67469 0
M  V30 2175 C 207.06 0.274441 -1.90028 0
M  V30 2176 O 208.261 0.511425 -2.6389 0
M  V30 2177 C 206.532 -1.95137 -2.99427 0
M  V30 2178 S 208.091 -2.00122 -3.90508 0
M  V30 2179 H 204.909 -0.41806 -0.575106 0
M  V30 2180 H 207.511 -1.6275 -1.08317 0
M  V30 2181 H 206.215 -2.99381 -2.80712 0
M  V30 2182 H 205.746 -1.50137 -3.63624 0
M  V30 2183 H 207.761 -1.10981 -4.8363 0
M  V30 2184 N 206.934 1.1197 -1.10907 0
M  V30 2185 C 208.183 1.82947 -0.849302 0
M  V30 2186 C 208.496 1.85275 0.627112 0
M  V30 2187 O 209.702 2.52296 1.00295 0
M  V30 2188 C 208.158 3.28529 -1.46959 0
M  V30 2189 C 207.766 3.34546 -2.97965 0
M  V30 2190 C 209.51 4.04443 -1.28942 0
M  V30 2191 C 207.417 4.74491 -3.53004 0
M  V30 2192 H 206.347 0.685477 -0.314065 0
M  V30 2193 H 208.998 1.2604 -1.33365 0
M  V30 2194 H 207.38 3.85333 -0.912917 0
M  V30 2195 H 208.554 2.87654 -3.59989 0
M  V30 2196 H 206.869 2.72108 -3.15192 0
M  V30 2197 H 209.466 5.07787 -1.67502 0
M  V30 2198 H 209.809 4.15656 -0.231456 0
M  V30 2199 H 210.342 3.5401 -1.81443 0
M  V30 2200 H 207.081 4.68474 -4.58489 0
M  V30 2201 H 206.601 5.21816 -2.9575 0
M  V30 2202 H 208.28 5.4344 -3.51115 0
M  V30 2203 N 208.412 0.89855 1.29475 0
M  V30 2204 C 209.344 0.332726 2.26772 0
M  V30 2205 C 210.357 -0.520323 1.54261 0
M  V30 2206 O 211.546 -0.337668 1.75277 0
M  V30 2207 C 208.646 -0.544334 3.345 0
M  V30 2208 C 207.819 0.282728 4.36485 0
M  V30 2209 C 206.878 -0.526982 5.23555 0
M  V30 2210 O 205.904 0.0551165 5.69173 0
M  V30 2211 N 207.106 -1.83331 5.5079 0
M  V30 2212 H 209.871 1.16897 2.75962 0
M  V30 2213 H 207.432 0.762919 1.42798 0
M  V30 2214 H 209.424 -1.09239 3.89678 0
M  V30 2215 H 207.994 -1.28127 2.85136 0
M  V30 2216 H 207.214 1.01221 3.80983 0
M  V30 2217 H 208.502 0.84918 5.01664 0
M  V30 2218 H 207.9 -2.32898 5.15534 0
M  V30 2219 H 206.457 -2.32852 6.08788 0
M  V30 2220 N 209.89 -1.43072 0.660911 0
M  V30 2221 C 210.822 -2.29108 -0.0647641 0
M  V30 2222 C 211.835 -1.42928 -0.779448 0
M  V30 2223 O 213.024 -1.66788 -0.635921 0
M  V30 2224 C 210.124 -3.20032 -1.11503 0
M  V30 2225 C 209.297 -4.34792 -0.476955 0
M  V30 2226 C 208.356 -5.06534 -1.42513 0
M  V30 2227 O 207.382 -5.61538 -0.930771 0
M  V30 2228 N 208.584 -5.1075 -2.75889 0
M  V30 2229 H 211.349 -2.92029 0.673731 0
M  V30 2230 H 208.91 -1.53846 0.50427 0
M  V30 2231 H 210.902 -3.64892 -1.75032 0
M  V30 2232 H 209.472 -2.58658 -1.75541 0
M  V30 2233 H 208.692 -3.92752 0.337572 0
M  V30 2234 H 209.98 -5.0879 -0.0318525 0
M  V30 2235 H 209.378 -4.67447 -3.18606 0
M  V30 2236 H 207.935 -5.59302 -3.347 0
M  V30 2237 N 211.368 -0.403325 -1.52352 0
M  V30 2238 C 212.298 0.416205 -2.29761 0
M  V30 2239 C 213.279 1.05123 -1.33728 0
M  V30 2240 O 214.464 1.06134 -1.62632 0
M  V30 2241 C 211.594 1.53624 -3.11475 0
M  V30 2242 C 210.548 1.02653 -4.15507 0
M  V30 2243 C 209.874 2.23971 -4.85532 0
M  V30 2244 C 211.174 0.08463 -5.22231 0
M  V30 2245 H 212.868 -0.229701 -2.98518 0
M  V30 2246 H 210.414 -0.111913 -1.43564 0
M  V30 2247 H 212.367 2.1165 -3.64393 0
M  V30 2248 H 211.091 2.20994 -2.40477 0
M  V30 2249 H 209.75 0.46871 -3.63591 0
M  V30 2250 H 209.398 2.89883 -4.11068 0
M  V30 2251 H 209.098 1.90521 -5.55856 0
M  V30 2252 H 210.622 2.82614 -5.41259 0
M  V30 2253 H 212.036 0.573509 -5.70424 0
M  V30 2254 H 210.433 -0.160783 -5.99885 0
M  V30 2255 H 211.503 -0.86237 -4.7717 0
M  V30 2256 N 212.846 1.57033 -0.133567 0
M  V30 2257 C 214.092 1.95976 0.521649 0
M  V30 2258 C 214.425 1.01779 1.65393 0
M  V30 2259 O 213.7 0.0576581 1.94415 0
M  V30 2260 C 213.983 3.44738 1.04057 0
M  V30 2261 C 213.836 4.49711 -0.0892897 0
M  V30 2262 C 215.155 3.95682 1.92675 0
M  V30 2263 H 212.274 0.712579 0.188149 0
M  V30 2264 H 214.916 1.88813 -0.212076 0
M  V30 2265 H 213.066 3.50973 1.66583 0
M  V30 2266 H 214.738 4.55565 -0.725152 0
M  V30 2267 H 212.981 4.27261 -0.750378 0
M  V30 2268 H 213.652 5.51099 0.315284 0
M  V30 2269 H 216.128 3.91841 1.39998 0
M  V30 2270 H 215.004 5.00262 2.25897 0
M  V30 2271 H 215.265 3.37239 2.85872 0
M  V30 2272 N 214.325 -0.140222 1.56975 0
M  V30 2273 C 215.272 -1.17292 1.98774 0
M  V30 2274 C 216.242 -1.4232 0.856408 0
M  V30 2275 O 217.427 -1.54541 1.119 0
M  V30 2276 C 214.567 -2.49973 2.37923 0
M  V30 2277 C 213.68 -2.32062 3.64378 0
M  V30 2278 C 212.815 -3.57825 3.926 0
M  V30 2279 C 211.854 -3.3498 5.12303 0
M  V30 2280 N 210.991 -4.52891 5.36502 0
M  V30 2281 H 215.831 -0.809472 2.86795 0
M  V30 2282 H 213.368 -0.388237 1.41884 0
M  V30 2283 H 215.326 -3.27346 2.58652 0
M  V30 2284 H 213.956 -2.84252 1.52972 0
M  V30 2285 H 213.008 -1.45711 3.51387 0
M  V30 2286 H 214.32 -2.11145 4.51906 0
M  V30 2287 H 213.474 -4.43624 4.13863 0
M  V30 2288 H 212.213 -3.81753 3.03506 0
M  V30 2289 H 211.218 -2.4757 4.90906 0
M  V30 2290 H 212.443 -3.12444 6.02956 0
M  V30 2291 H 210.389 -4.76979 4.50363 0
M  V30 2292 H 210.306 -4.35001 6.18312 0
M  V30 2293 H 211.574 -5.39884 5.62268 0
M  V30 2294 N 215.803 -1.52179 -0.40978 0
M  V30 2295 C 216.733 -1.78435 -1.5061 0
M  V30 2296 C 217.714 -0.635295 -1.57791 0
M  V30 2297 O 218.899 -0.880823 -1.73076 0
M  V30 2298 C 216.029 -1.93444 -2.88439 0
M  V30 2299 C 214.983 -3.09038 -2.96108 0
M  V30 2300 C 214.309 -3.09268 -4.36185 0
M  V30 2301 C 215.609 -4.48508 -2.67652 0
M  V30 2302 H 217.303 -2.70237 -1.28889 0
M  V30 2303 H 214.849 -1.30036 -0.618605 0
M  V30 2304 H 216.802 -2.10394 -3.65119 0
M  V30 2305 H 215.526 -0.983129 -3.11452 0
M  V30 2306 H 214.185 -2.91837 -2.21872 0
M  V30 2307 H 213.833 -2.11861 -4.56206 0
M  V30 2308 H 213.533 -3.86907 -4.42241 0
M  V30 2309 H 215.057 -3.28348 -5.14801 0
M  V30 2310 H 216.471 -4.65918 -3.34056 0
M  V30 2311 H 214.868 -5.28059 -2.85085 0
M  V30 2312 H 215.938 -4.56649 -1.63095 0
M  V30 2313 N 217.281 0.66697 -1.42791 0
M  V30 2314 C 218.558 1.4234 -1.34159 0
M  V30 2315 C 218.938 2.11093 0.0172729 0
M  V30 2316 O 218.286 2.03808 1.03318 0
M  V30 2317 C 218.496 2.41942 -2.51526 0
M  V30 2318 C 219.844 3.06353 -2.93995 0
M  V30 2319 O 220.868 2.52269 -2.51473 0
M  V30 2320 O 219.727 4.04376 -3.67617 0
M  V30 2321 H 216.821 0.635277 -0.529483 0
M  V30 2322 H 219.367 0.695034 -1.54814 0
M  V30 2323 H 218.139 1.89991 -3.42081 0
M  V30 2324 H 217.762 3.22249 -2.32898 0
M  V30 2325 N 218.759 1.29093 0.90403 0
M  V30 2326 C 219.691 1.09658 2.01266 0
M  V30 2327 C 220.704 0.0453729 1.62737 0
M  V30 2328 O 221.893 0.289446 1.76138 0
M  V30 2329 C 218.993 0.646278 3.32681 0
M  V30 2330 C 218.166 1.77505 3.99763 0
M  V30 2331 C 217.225 1.31649 5.09465 0
M  V30 2332 O 216.251 2.02045 5.32134 0
M  V30 2333 N 217.453 0.184997 5.80205 0
M  V30 2334 H 220.218 2.05135 2.18494 0
M  V30 2335 H 217.779 1.20975 1.07594 0
M  V30 2336 H 219.771 0.322906 4.0341 0
M  V30 2337 H 218.341 -0.215916 3.11853 0
M  V30 2338 H 217.561 2.26752 3.22455 0
M  V30 2339 H 218.849 2.53198 4.41325 0
M  V30 2340 H 218.247 -0.402021 5.6427 0
M  V30 2341 H 216.804 -0.0790358 6.51752 0
M  V30 2342 N 220.237 -1.11381 1.11499 0
M  V30 2343 C 221.147 -2.21019 0.786628 0
M  V30 2344 C 222.163 -1.72597 -0.220507 0
M  V30 2345 O 223.339 -2.01321 -0.0565251 0
M  V30 2346 C 220.404 -3.459 0.235333 0
M  V30 2347 C 219.465 -4.09107 1.30115 0
M  V30 2348 C 218.698 -5.28027 0.776068 0
M  V30 2349 O 218.921 -5.6904 -0.393661 0
M  V30 2350 O 217.855 -5.81835 1.54114 0
M  V30 2351 H 221.681 -2.51521 1.70209 0
M  V30 2352 H 219.266 -1.19928 0.890928 0
M  V30 2353 H 221.148 -4.21346 -0.067715 0
M  V30 2354 H 219.823 -3.17049 -0.652828 0
M  V30 2355 H 218.73 -3.35391 1.65722 0
M  V30 2356 H 220.063 -4.42139 2.16273 0
M  V30 2357 N 221.715 -0.905404 -1.28997 0
M  V30 2358 C 222.961 -0.544465 -1.95977 0
M  V30 2359 C 223.316 0.90041 -1.70031 0
M  V30 2360 O 222.609 1.63064 -1.00601 0
M  V30 2361 C 222.803 -0.779906 -3.48787 0
M  V30 2362 C 222.632 -2.24612 -3.89589 0
M  V30 2363 C 221.402 -2.89464 -4.14172 0
M  V30 2364 C 223.6 -3.22182 -4.00878 0
M  V30 2365 N 221.582 -4.26469 -4.41585 0
M  V30 2366 C 222.953 -4.44323 -4.32409 0
M  V30 2367 C 225.008 -3.17694 -3.83373 0
M  V30 2368 C 223.711 -5.62546 -4.48258 0
M  V30 2369 C 225.737 -4.35208 -4.00435 0
M  V30 2370 C 225.099 -5.56121 -4.3233 0
M  V30 2371 H 221.198 -0.248948 -0.741316 0
M  V30 2372 H 223.782 -1.1674 -1.5582 0
M  V30 2373 H 221.953 -0.186308 -3.87953 0
M  V30 2374 H 223.685 -0.383833 -4.02876 0
M  V30 2375 H 220.44 -2.40232 -4.08149 0
M  V30 2376 H 220.864 -4.97283 -4.5939 0
M  V30 2377 H 225.506 -2.25297 -3.57773 0
M  V30 2378 H 223.224 -6.55429 -4.72692 0
M  V30 2379 H 226.81 -4.33228 -3.88336 0
M  V30 2380 H 225.69 -6.45537 -4.45255 0
M  V30 2381 N 223.193 1.4272 -0.668489 0
M  V30 2382 C 224.439 2.01923 -0.188419 0
M  V30 2383 C 224.772 1.52704 1.19979 0
M  V30 2384 O 224.047 0.726566 1.8042 0
M  V30 2385 C 224.33 3.59451 -0.216085 0
M  V30 2386 C 224.183 4.18864 -1.6393 0
M  V30 2387 C 225.502 4.37903 0.439179 0
M  V30 2388 H 222.621 0.733674 -0.0699412 0
M  V30 2389 H 225.263 1.69822 -0.852076 0
M  V30 2390 H 223.413 3.86929 0.349012 0
M  V30 2391 H 225.085 4.02362 -2.25616 0
M  V30 2392 H 223.328 3.74933 -2.18193 0
M  V30 2393 H 223.999 5.27987 -1.61039 0
M  V30 2394 H 226.475 4.16079 -0.0417878 0
M  V30 2395 H 225.351 5.47519 0.389157 0
M  V30 2396 H 225.612 4.15303 1.51577 0
M  V30 2397 N 224.671 0.411399 1.52136 0
M  V30 2398 C 226.082 -0.0576826 1.86611 0
M  V30 2399 C 226.433 -1.44238 1.33003 0
M  V30 2400 O 225.558 -2.05759 0.670228 0
M  V30 2401 C 226.153 -0.111448 3.38617 0
M  V30 2402 C 224.712 -0.52487 3.72723 0
M  V30 2403 C 223.859 0.299176 2.75681 0
M  V30 2404 H 226.81 0.628368 1.4573 0
M  V30 2405 H 226.831 -0.926252 3.69054 0
M  V30 2406 H 226.343 0.896488 3.77604 0
M  V30 2407 H 224.444 -1.53936 3.39315 0
M  V30 2408 H 224.557 -0.267681 4.78352 0
M  V30 2409 H 222.921 -0.238814 2.53578 0
M  V30 2410 H 223.704 1.3055 3.17508 0
M  V30 2411 N 226.149 -1.5696 0.141893 0
M  V30 2412 C 227.379 -2.00031 -0.516828 0
M  V30 2413 C 227.787 -1.02091 -1.59293 0
M  V30 2414 O 227.13 -0.00909657 -1.83698 0
M  V30 2415 C 227.192 -3.39534 -1.1814 0
M  V30 2416 C 226.856 -4.56313 -0.250513 0
M  V30 2417 C 227.853 -5.17295 0.519839 0
M  V30 2418 C 225.538 -5.02061 -0.154907 0
M  V30 2419 C 227.532 -6.2243 1.3733 0
M  V30 2420 C 225.219 -6.07053 0.702161 0
M  V30 2421 C 226.217 -6.67106 1.46487 0
M  V30 2422 O 225.905 -7.70066 2.30767 0
M  V30 2423 H 225.637 -0.661451 -0.139493 0
M  V30 2424 H 228.191 -2.04086 0.231926 0
M  V30 2425 H 226.421 -3.32302 -1.97769 0
M  V30 2426 H 228.11 -3.66745 -1.73933 0
M  V30 2427 H 228.876 -4.82852 0.45598 0
M  V30 2428 H 224.755 -4.5505 -0.7383 0
M  V30 2429 H 228.299 -6.69233 1.96909 0
M  V30 2430 H 224.196 -6.40923 0.76733 0
M  V30 2431 H 224.964 -7.87264 2.23959 0
M  V30 2432 N 227.627 0.131896 -1.57047 0
M  V30 2433 C 228.852 0.860418 -1.8871 0
M  V30 2434 C 229.277 1.73251 -0.73251 0
M  V30 2435 O 228.635 1.785 0.317429 0
M  V30 2436 C 228.683 1.68047 -3.19049 0
M  V30 2437 O 227.787 2.7862 -3.04047 0
M  V30 2438 H 227.128 0.238743 -0.619595 0
M  V30 2439 H 229.658 0.118169 -2.04258 0
M  V30 2440 H 229.668 2.07238 -3.51449 0
M  V30 2441 H 228.343 1.04018 -4.02682 0
M  V30 2442 H 226.92 2.42726 -2.83088 0
M  V30 2443 N 229.106 1.52395 0.401703 0
M  V30 2444 C 230.334 1.70676 1.16949 0
M  V30 2445 C 230.749 0.419503 1.8408 0
M  V30 2446 O 230.106 -0.605061 1.72178 0
M  V30 2447 C 230.157 2.84753 2.22706 0
M  V30 2448 O 229.878 4.08495 1.58314 0
M  V30 2449 C 231.379 3.14608 3.12309 0
M  V30 2450 H 228.599 0.571787 0.351142 0
M  V30 2451 H 231.143 1.98987 0.471652 0
M  V30 2452 H 229.298 2.58941 2.88147 0
M  V30 2453 H 229.712 4.72117 2.28485 0
M  V30 2454 H 231.186 3.97923 3.82572 0
M  V30 2455 H 231.663 2.28464 3.75101 0
M  V30 2456 H 232.269 3.42212 2.52529 0
M  V30 2457 N 230.584 -0.659388 1.43143 0
M  V30 2458 C 231.809 -1.45221 1.48073 0
M  V30 2459 C 232.234 -1.87845 0.097995 0
M  V30 2460 O 231.592 -1.56985 -0.90694 0
M  V30 2461 C 231.64 -2.66748 2.42647 0
M  V30 2462 O 230.744 -3.65583 1.90848 0
M  V30 2463 H 230.085 -0.435669 0.501088 0
M  V30 2464 H 232.615 -0.807432 1.87994 0
M  V30 2465 H 232.625 -3.14637 2.59745 0
M  V30 2466 H 231.3 -2.35067 3.43098 0
M  V30 2467 H 229.877 -3.24693 1.83381 0
M  V30 2468 N 232.062 -1.29571 -0.897171 0
M  V30 2469 C 233.025 -1.14913 -1.98312 0
M  V30 2470 C 234.025 -0.0838629 -1.60581 0
M  V30 2471 O 235.215 -0.331006 -1.71026 0
M  V30 2472 C 232.347 -0.757835 -3.3237 0
M  V30 2473 H 233.54 -2.11377 -2.12743 0
M  V30 2474 H 231.093 -1.12793 -1.08201 0
M  V30 2475 H 231.828 0.206837 -3.2364 0
M  V30 2476 H 231.613 -1.52755 -3.61121 0
M  V30 2477 H 233.103 -0.678408 -4.12053 0
M  V30 2478 N 233.54 1.10788 -1.12088 0
M  V30 2479 C 234.765 1.87002 -0.896949 0
M  V30 2480 C 235.19 1.79933 0.548261 0
M  V30 2481 O 234.548 1.16662 1.38779 0
M  V30 2482 C 234.596 3.3349 -1.37174 0
M  V30 2483 O 233.7 4.08745 -0.547831 0
M  V30 2484 H 233.041 0.580397 -0.322545 0
M  V30 2485 H 235.571 1.39996 -1.49206 0
M  V30 2486 H 235.581 3.84339 -1.36922 0
M  V30 2487 H 234.256 3.37951 -2.42408 0
M  V30 2488 H 232.833 3.6776 -0.617034 0
M  V30 2489 N 235.018 0.912232 1.28515 0
M  V30 2490 C 235.948 0.416403 2.29757 0
M  V30 2491 C 236.929 -0.515194 1.6211 0
M  V30 2492 O 238.114 -0.423253 1.89532 0
M  V30 2493 C 235.244 -0.34572 3.45575 0
M  V30 2494 C 234.198 0.496599 4.25109 0
M  V30 2495 C 233.524 -0.393771 5.33248 0
M  V30 2496 C 234.824 1.75307 4.92001 0
M  V30 2497 H 236.518 1.26249 2.7148 0
M  V30 2498 H 234.064 0.608515 1.30511 0
M  V30 2499 H 236.017 -0.703422 4.15488 0
M  V30 2500 H 234.741 -1.2257 3.02728 0
M  V30 2501 H 233.4 0.8368 3.56922 0
M  V30 2502 H 233.048 -1.27225 4.86644 0
M  V30 2503 H 232.748 0.166209 5.87365 0
M  V30 2504 H 234.272 -0.747389 6.06009 0
M  V30 2505 H 235.686 1.46437 5.54283 0
M  V30 2506 H 234.083 2.25534 5.56106 0
M  V30 2507 H 235.153 2.48176 4.16577 0
M  V30 2508 N 236.496 -1.42363 0.676048 0
M  V30 2509 C 237.726 -2.05561 0.206967 0
M  V30 2510 C 238.134 -1.50887 -1.14148 0
M  V30 2511 O 237.477 -0.643933 -1.72044 0
M  V30 2512 C 237.539 -3.5944 0.0659508 0
M  V30 2513 C 237.203 -4.36812 1.34331 0
M  V30 2514 C 238.2 -4.67383 2.27704 0
M  V30 2515 C 235.885 -4.76429 1.59125 0
M  V30 2516 C 237.879 -5.36509 3.44147 0
M  V30 2517 C 235.566 -5.45294 2.75857 0
M  V30 2518 C 236.564 -5.75259 3.68193 0
M  V30 2519 O 236.252 -6.42712 4.82883 0
M  V30 2520 H 235.984 -0.668872 0.0979084 0
M  V30 2521 H 238.538 -1.83467 0.923531 0
M  V30 2522 H 236.768 -3.80197 -0.706204 0
M  V30 2523 H 238.457 -4.0427 -0.363418 0
M  V30 2524 H 239.223 -4.37275 2.09799 0
M  V30 2525 H 235.102 -4.52498 0.881258 0
M  V30 2526 H 238.646 -5.59814 4.16238 0
M  V30 2527 H 234.543 -5.7482 2.93688 0
M  V30 2528 H 235.311 -6.61204 4.82444 0
M  V30 2529 N 237.974 -0.419461 -1.51915 0
M  V30 2530 C 239.223 0.154346 -2.01109 0
M  V30 2531 C 239.536 1.45338 -1.30905 0
M  V30 2532 O 240.742 2.10906 -1.7097 0
M  V30 2533 C 239.198 0.325615 -3.58424 0
M  V30 2534 C 238.806 -0.961934 -4.37551 0
M  V30 2535 C 240.55 0.854155 -4.15818 0
M  V30 2536 C 238.457 -0.757287 -5.86531 0
M  V30 2537 H 237.387 0.0614563 -0.751491 0
M  V30 2538 H 240.038 -0.54649 -1.75173 0
M  V30 2539 H 238.42 1.08903 -3.80731 0
M  V30 2540 H 239.594 -1.7323 -4.26999 0
M  V30 2541 H 237.909 -1.41766 -3.91524 0
M  V30 2542 H 240.506 1.02346 -5.24814 0
M  V30 2543 H 240.849 1.83172 -3.73837 0
M  V30 2544 H 241.382 0.149528 -3.97519 0
M  V30 2545 H 238.121 -1.70671 -6.32892 0
M  V30 2546 H 237.641 -0.0264061 -5.99794 0
M  V30 2547 H 239.32 -0.403482 -6.45741 0
M  V30 2548 N 239.452 1.56882 -0.150215 0
M  V30 2549 C 240.868 1.58263 0.20617 0
M  V30 2550 C 241.068 1.16464 1.64434 0
M  V30 2551 O 240.124 0.866422 2.3717 0
M  V30 2552 C 241.437 3.00649 -0.0555025 0
M  V30 2553 C 242.985 3.12999 0.00795388 0
M  V30 2554 C 243.46 4.5744 -0.226429 0
M  V30 2555 N 244.951 4.62875 -0.173469 0
M  V30 2556 C 245.686 5.72454 -0.329288 0
M  V30 2557 N 245.182 6.90669 -0.543005 0
M  V30 2558 N 246.975 5.61467 -0.266666 0
M  V30 2559 H 239.126 1.82345 -1.08922 0
M  V30 2560 H 241.389 0.844149 -0.431413 0
M  V30 2561 H 241.095 3.3563 -1.05096 0
M  V30 2562 H 240.969 3.71337 0.66246 0
M  V30 2563 H 243.356 2.77857 0.993966 0
M  V30 2564 H 243.437 2.4479 -0.742388 0
M  V30 2565 H 243.081 4.93287 -1.20956 0
M  V30 2566 H 243.011 5.2378 0.544274 0
M  V30 2567 H 245.502 3.77898 -0.0130709 0
M  V30 2568 H 245.815 7.70045 -0.651922 0
M  V30 2569 H 244.16 6.92581 -0.579366 0
M  V30 2570 H 247.351 4.67992 -0.100441 0
M  V30 2571 H 247.524 6.46816 -0.391535 0
M  V30 2572 N 240.93 -0.123565 1.57115 0
M  V30 2573 C 242.341 -0.681198 1.73829 0
M  V30 2574 C 242.692 -1.80535 0.768214 0
M  V30 2575 O 241.817 -2.16317 -0.0599103 0
M  V30 2576 C 242.412 -1.24246 3.15196 0
M  V30 2577 C 240.971 -1.74643 3.33432 0
M  V30 2578 C 240.118 -0.644284 2.69711 0
M  V30 2579 H 243.069 0.102315 1.5837 0
M  V30 2580 H 243.09 -2.11216 3.16493 0
M  V30 2581 H 242.602 -0.424062 3.85776 0
M  V30 2582 H 240.703 -2.58974 2.67886 0
M  V30 2583 H 240.816 -1.85902 4.41562 0
M  V30 2584 H 239.18 -1.07676 2.3082 0
M  V30 2585 H 239.963 0.163058 3.42913 0
M  V30 2586 N 242.408 -1.52605 -0.393616 0
M  V30 2587 C 243.636 -1.71294 -1.16043 0
M  V30 2588 C 244.051 -0.429259 -1.83855 0
M  V30 2589 O 243.408 0.595921 -1.72496 0
M  V30 2590 C 243.459 -2.8593 -2.21193 0
M  V30 2591 O 243.18 -4.09329 -1.56146 0
M  V30 2592 C 244.681 -3.16259 -3.10636 0
M  V30 2593 H 241.901 -0.573641 -0.348104 0
M  V30 2594 H 244.445 -1.99234 -0.461092 0
M  V30 2595 H 242.6 -2.60465 -2.86769 0
M  V30 2596 H 243.014 -4.73323 -2.25978 0
M  V30 2597 H 244.488 -3.99946 -3.80456 0
M  V30 2598 H 244.965 -2.3045 -3.73884 0
M  V30 2599 H 245.571 -3.43547 -2.50711 0
M  V30 2600 N 243.887 0.651787 -1.4349 0
M  V30 2601 C 245.134 1.41167 -1.45183 0
M  V30 2602 C 245.462 1.94349 -0.0766601 0
M  V30 2603 O 244.717 1.72804 0.918555 0
M  V30 2604 C 245.016 2.60914 -2.44251 0
M  V30 2605 C 244.682 2.26142 -3.9009 0
M  V30 2606 C 243.344 2.16371 -4.2981 0
M  V30 2607 C 245.696 1.98334 -4.81989 0
M  V30 2608 C 243.024 1.7695 -5.5938 0
M  V30 2609 C 245.376 1.6041 -6.11924 0
M  V30 2610 C 244.04 1.49166 -6.5062 0
M  V30 2611 H 243.31 0.516566 -0.531263 0
M  V30 2612 H 245.957 0.741099 -1.76579 0
M  V30 2613 H 244.262 3.3311 -2.06265 0
M  V30 2614 H 245.959 3.19127 -2.42815 0
M  V30 2615 H 242.549 2.34658 -3.58655 0
M  V30 2616 H 246.733 2.04803 -4.52072 0
M  V30 2617 H 241.989 1.66831 -5.88198 0
M  V30 2618 H 246.163 1.37925 -6.82605 0
M  V30 2619 H 243.79 1.1839 -7.50925 0
M  V30 2620 N 245.365 1.30045 0.890287 0
M  V30 2621 C 246.614 1.17929 1.63633 0
M  V30 2622 C 246.927 -0.266204 1.9378 0
M  V30 2623 O 248.133 -0.508804 2.6669 0
M  V30 2624 C 246.589 2.06317 2.94892 0
M  V30 2625 C 246.197 3.55745 2.72305 0
M  V30 2626 C 247.941 2.0295 3.72843 0
M  V30 2627 C 245.848 4.36205 3.99348 0
M  V30 2628 H 244.778 0.437782 0.613892 0
M  V30 2629 H 247.429 1.54754 0.986075 0
M  V30 2630 H 245.811 1.6237 3.61182 0
M  V30 2631 H 246.985 4.07805 2.1455 0
M  V30 2632 H 245.3 3.6088 2.07737 0
M  V30 2633 H 247.897 2.60319 4.67053 0
M  V30 2634 H 248.24 1.0117 4.0382 0
M  V30 2635 H 248.773 2.4499 3.13408 0
M  V30 2636 H 245.512 5.38659 3.73533 0
M  V30 2637 H 245.032 3.8891 4.56628 0
M  V30 2638 H 246.711 4.47362 4.67415 0
M  V30 2639 N 246.843 -1.10192 1.12674 0
M  V30 2640 C 248.091 -1.81845 0.881861 0
M  V30 2641 C 248.412 -1.85737 -0.593867 0
M  V30 2642 O 247.682 -1.33724 -1.4316 0
M  V30 2643 H 246.262 -0.673432 0.323261 0
M  V30 2644 H 248.924 -1.33316 1.42172 0
M  V30 2645 H 248.02 -2.85288 1.2656 0
M  V30 2646 N 248.321 -0.919034 -1.28029 0
M  V30 2647 C 249.549 -0.570971 -1.98866 0
M  V30 2648 C 249.964 0.848996 -1.68634 0
M  V30 2649 O 249.321 1.56307 -0.942036 0
M  V30 2650 C 249.372 -0.776876 -3.53054 0
M  V30 2651 O 249.093 -2.14097 -3.82222 0
M  V30 2652 C 250.594 -0.436356 -4.41147 0
M  V30 2653 H 247.814 -0.217175 -0.634883 0
M  V30 2654 H 250.358 -1.23368 -1.63097 0
M  V30 2655 H 248.513 -0.161085 -3.87065 0
M  V30 2656 H 248.927 -2.18455 -4.76841 0
M  V30 2657 H 250.401 -0.63117 -5.4838 0
M  V30 2658 H 250.878 0.627686 -4.34692 0
M  V30 2659 H 251.484 -1.02991 -4.12641 0
M  V30 2660 N 249.799 1.42003 -0.683588 0
M  V30 2661 C 250.709 2.34597 -0.0109075 0
M  V30 2662 C 251.725 1.55576 0.779245 0
M  V30 2663 O 252.901 1.88107 0.719555 0
M  V30 2664 C 249.966 3.34199 0.922588 0
M  V30 2665 C 249.027 4.29115 0.125984 0
M  V30 2666 C 248.26 5.23959 1.01502 0
M  V30 2667 O 248.483 5.23952 2.25456 0
M  V30 2668 O 247.417 6.00053 0.47111 0
M  V30 2669 H 251.243 2.93675 -0.773853 0
M  V30 2670 H 248.828 1.42654 -0.443861 0
M  V30 2671 H 250.71 3.95365 1.45823 0
M  V30 2672 H 249.385 2.77582 1.66523 0
M  V30 2673 H 248.292 3.71335 -0.453969 0
M  V30 2674 H 249.625 4.88798 -0.577736 0
M  V30 2675 N 251.277 0.427512 1.51691 0
M  V30 2676 C 252.688 -0.0378867 1.86662 0
M  V30 2677 C 253.039 -1.42819 1.34525 0
M  V30 2678 O 252.164 -2.05037 0.692014 0
M  V30 2679 C 252.759 -0.0755266 3.38716 0
M  V30 2680 C 251.318 -0.485309 3.73258 0
M  V30 2681 C 250.465 0.328399 2.75349 0
M  V30 2682 H 253.416 0.64379 1.45055 0
M  V30 2683 H 253.437 -0.887056 3.70016 0
M  V30 2684 H 252.949 0.936487 3.76632 0
M  V30 2685 H 251.05 -1.50329 3.40928 0
M  V30 2686 H 251.163 -0.21693 4.78609 0
M  V30 2687 H 249.527 -0.211905 2.53817 0
M  V30 2688 H 250.31 1.3391 3.16106 0
M  V30 2689 N 252.755 -1.56801 0.158532 0
M  V30 2690 C 253.98 -2.01295 -0.499516 0
M  V30 2691 C 254.405 -1.03799 -1.56867 0
M  V30 2692 O 253.763 -0.0155162 -1.81293 0
M  V30 2693 C 253.811 -3.44469 -1.06647 0
M  V30 2694 O 252.915 -3.50012 -2.18095 0
M  V30 2695 H 252.256 -0.652884 -0.12099 0
M  V30 2696 H 254.786 -2.02958 0.258661 0
M  V30 2697 H 254.796 -3.8351 -1.39227 0
M  V30 2698 H 253.471 -4.14932 -0.283581 0
M  V30 2699 H 252.048 -3.22822 -1.86656 0
M  V30 2700 N 254.233 0.115231 -1.57178 0
M  V30 2701 C 255.163 1.1423 -2.03651 0
M  V30 2702 C 256.144 1.42967 -0.921655 0
M  V30 2703 O 257.329 1.53343 -1.19162 0
M  V30 2704 C 254.459 2.4675 -2.44401 0
M  V30 2705 C 253.413 2.32467 -3.59365 0
M  V30 2706 C 252.739 3.69984 -3.86026 0
M  V30 2707 C 254.039 1.78203 -4.90959 0
M  V30 2708 H 255.733 0.755749 -2.89705 0
M  V30 2709 H 253.279 0.362093 -1.39373 0
M  V30 2710 H 255.232 3.18854 -2.75517 0
M  V30 2711 H 253.956 2.87302 -1.55322 0
M  V30 2712 H 252.615 1.62811 -3.28463 0
M  V30 2713 H 252.263 4.08028 -2.94147 0
M  V30 2714 H 251.963 3.61279 -4.63412 0
M  V30 2715 H 253.487 4.43587 -4.19599 0
M  V30 2716 H 254.901 2.40128 -5.20587 0
M  V30 2717 H 253.298 1.8031 -5.72371 0
M  V30 2718 H 254.368 0.739876 -4.79222 0
M  V30 2719 N 255.711 1.52812 0.385517 0
M  V30 2720 C 256.959 1.67694 1.12797 0
M  V30 2721 C 257.28 0.421115 1.90399 0
M  V30 2722 O 256.55 -0.564551 1.87589 0
M  V30 2723 H 255.13 0.618155 0.419396 0
M  V30 2724 H 257.792 1.89938 0.436972 0
M  V30 2725 H 256.888 2.52896 1.82894 0
M  V30 2726 N 257.189 -0.644168 1.43834 0
M  V30 2727 C 258.435 -1.40603 1.46146 0
M  V30 2728 C 258.768 -1.93997 0.0887717 0
M  V30 2729 O 258.043 -1.72854 -0.891724 0
M  V30 2730 C 258.326 -2.58086 2.51124 0
M  V30 2731 C 258.179 -2.10126 3.97702 0
M  V30 2732 C 259.498 -3.60291 2.52742 0
M  V30 2733 H 256.617 -0.509905 0.532134 0
M  V30 2734 H 259.259 -0.729502 1.75437 0
M  V30 2735 H 257.409 -3.15801 2.26278 0
M  V30 2736 H 259.081 -1.57342 4.33637 0
M  V30 2737 H 257.324 -1.41419 4.10101 0
M  V30 2738 H 257.995 -2.94649 4.66783 0
M  V30 2739 H 260.471 -3.12352 2.7491 0
M  V30 2740 H 259.347 -4.40032 3.28121 0
M  V30 2741 H 259.608 -4.1349 1.56455 0
M  V30 2742 N 258.668 -1.30515 -0.883378 0
M  V30 2743 C 259.615 -1.17032 -1.98927 0
M  V30 2744 C 260.585 -0.0594241 -1.65994 0
M  V30 2745 O 261.77 -0.229895 -1.8941 0
M  V30 2746 C 258.91 -0.869777 -3.33959 0
M  V30 2747 C 258.023 -2.06271 -3.79574 0
M  V30 2748 C 257.158 -1.70011 -5.03259 0
M  V30 2749 C 256.197 -2.8579 -5.41286 0
M  V30 2750 N 255.334 -2.49816 -6.56153 0
M  V30 2751 H 260.174 -2.1164 -2.09792 0
M  V30 2752 H 257.711 -1.05296 -1.02719 0
M  V30 2753 H 259.669 -0.676138 -4.11685 0
M  V30 2754 H 258.299 0.0394332 -3.22776 0
M  V30 2755 H 257.351 -2.36755 -2.97744 0
M  V30 2756 H 258.663 -2.92971 -4.03694 0
M  V30 2757 H 257.817 -1.47032 -5.88614 0
M  V30 2758 H 256.556 -0.804829 -4.81013 0
M  V30 2759 H 255.561 -3.09434 -4.54456 0
M  V30 2760 H 256.786 -3.76008 -5.65504 0
M  V30 2761 H 254.732 -1.62795 -6.35479 0
M  V30 2762 H 254.649 -3.30048 -6.8015 0
M  V30 2763 H 255.917 -2.30197 -7.44735 0
M  V30 2764 N 260.146 1.09593 -1.13257 0
M  V30 2765 C 261.093 2.1618 -0.808381 0
M  V30 2766 C 262.063 1.64517 0.228754 0
M  V30 2767 O 263.248 1.9053 0.101381 0
M  V30 2768 C 260.388 3.43973 -0.278675 0
M  V30 2769 C 259.501 4.09545 -1.37466 0
M  V30 2770 C 258.636 5.25088 -0.803479 0
M  V30 2771 C 257.675 5.82579 -1.87799 0
M  V30 2772 N 256.812 6.89486 -1.32488 0
M  V30 2773 H 261.652 2.43254 -1.72138 0
M  V30 2774 H 259.189 1.19392 -0.859294 0
M  V30 2775 H 261.147 4.17174 0.0465583 0
M  V30 2776 H 259.777 3.17223 0.597459 0
M  V30 2777 H 258.829 3.34226 -1.81652 0
M  V30 2778 H 260.141 4.48307 -2.18684 0
M  V30 2779 H 259.295 6.05178 -0.429427 0
M  V30 2780 H 258.034 4.87684 0.0397956 0
M  V30 2781 H 257.039 5.01152 -2.26113 0
M  V30 2782 H 258.264 6.22045 -2.72463 0
M  V30 2783 H 256.21 6.54064 -0.503575 0
M  V30 2784 H 256.127 7.27007 -2.07355 0
M  V30 2785 H 257.395 7.73336 -0.978336 0
M  V30 2786 N 261.624 0.925811 1.2754 0
M  V30 2787 C 263.035 0.610102 1.7645 0
M  V30 2788 C 263.386 -0.874723 1.75622 0
M  V30 2789 O 262.511 -1.68444 1.35851 0
M  V30 2790 C 263.106 1.10073 3.20421 0
M  V30 2791 C 261.665 0.835723 3.67005 0
M  V30 2792 C 260.812 1.26054 2.46993 0
M  V30 2793 H 263.763 1.10579 1.13833 0
M  V30 2794 H 263.784 0.447557 3.77859 0
M  V30 2795 H 263.296 2.18143 3.20991 0
M  V30 2796 H 261.397 -0.231249 3.71882 0
M  V30 2797 H 261.51 1.45193 4.56569 0
M  V30 2798 H 259.874 0.679111 2.45479 0
M  V30 2799 H 260.657 2.34984 2.50275 0
M  V30 2800 N 263.102 -1.41638 0.69111 0
M  V30 2801 C 264.33 -2.05628 0.22909 0
M  V30 2802 C 264.745 -1.51992 -1.11999 0
M  V30 2803 O 264.102 -0.666322 -1.69901 0
M  V30 2804 C 264.153 -3.61084 0.173283 0
M  V30 2805 O 263.874 -4.12735 1.46907 0
M  V30 2806 C 265.375 -4.42213 -0.310266 0
M  V30 2807 H 262.595 -0.662327 0.107534 0
M  V30 2808 H 265.139 -1.81489 0.942438 0
M  V30 2809 H 263.294 -3.84278 -0.490858 0
M  V30 2810 H 263.708 -5.06743 1.35322 0
M  V30 2811 H 265.182 -5.51194 -0.298196 0
M  V30 2812 H 265.659 -4.1799 -1.34838 0
M  V30 2813 H 266.265 -4.24074 0.322716 0
M  V30 2814 N 264.58 -0.43555 -1.51462 0
M  V30 2815 C 265.527 0.376797 -2.27703 0
M  V30 2816 C 266.497 1.01838 -1.31219 0
M  V30 2817 O 267.682 1.03762 -1.60119 0
M  V30 2818 C 264.822 1.47301 -3.12084 0
M  V30 2819 C 263.935 0.849744 -4.2356 0
M  V30 2820 C 263.07 1.92086 -4.95254 0
M  V30 2821 C 262.109 1.27593 -5.98654 0
M  V30 2822 N 261.246 2.28833 -6.63762 0
M  V30 2823 H 266.086 -0.279734 -2.96684 0
M  V30 2824 H 263.623 -0.149795 -1.46335 0
M  V30 2825 H 265.581 2.11984 -3.59331 0
M  V30 2826 H 264.211 2.0992 -2.45221 0
M  V30 2827 H 263.263 0.0912529 -3.80291 0
M  V30 2828 H 264.575 0.338878 -4.97648 0
M  V30 2829 H 263.729 2.64435 -5.46039 0
M  V30 2830 H 262.468 2.46545 -4.20793 0
M  V30 2831 H 261.473 0.537893 -5.47162 0
M  V30 2832 H 262.698 0.738693 -6.7507 0
M  V30 2833 H 260.644 2.82375 -5.92115 0
M  V30 2834 H 260.561 1.82632 -7.33608 0
M  V30 2835 H 261.829 3.00671 -7.19178 0
M  V30 2836 N 266.058 1.56714 -0.166846 0
M  V30 2837 C 267.021 2.16539 0.751232 0
M  V30 2838 C 268.021 1.11228 1.16125 0
M  V30 2839 O 269.211 1.36765 1.07894 0
M  V30 2840 C 266.343 2.74462 2.02196 0
M  V30 2841 H 267.536 2.99013 0.230499 0
M  V30 2842 H 265.089 1.56081 0.0826982 0
M  V30 2843 H 265.824 1.95709 2.58589 0
M  V30 2844 H 265.609 3.51527 1.73698 0
M  V30 2845 H 267.099 3.20489 2.67725 0
M  V30 2846 N 267.536 -0.106894 1.57237 0
M  V30 2847 C 268.466 -1.13148 2.04254 0
M  V30 2848 C 269.447 -1.42476 0.929224 0
M  V30 2849 O 270.632 -1.52709 1.19973 0
M  V30 2850 C 267.762 -2.4545 2.45706 0
M  V30 2851 C 266.716 -2.30558 3.60592 0
M  V30 2852 C 266.042 -3.67931 3.87983 0
M  V30 2853 C 267.342 -1.75597 4.91897 0
M  V30 2854 H 269.036 -0.740374 2.90101 0
M  V30 2855 H 266.582 -0.354696 1.39563 0
M  V30 2856 H 268.535 -3.17389 2.77205 0
M  V30 2857 H 267.259 -2.86475 1.56843 0
M  V30 2858 H 265.918 -1.61067 3.29322 0
M  V30 2859 H 265.566 -4.06462 2.96306 0
M  V30 2860 H 265.266 -3.58817 4.65322 0
M  V30 2861 H 266.79 -4.41356 4.21945 0
M  V30 2862 H 268.204 -2.37364 5.21854 0
M  V30 2863 H 266.601 -1.77272 5.73319 0
M  V30 2864 H 267.671 -0.714451 4.79608 0
M  V30 2865 N 269.014 -1.53014 -0.377408 0
M  V30 2866 C 269.944 -1.81589 -1.46791 0
M  V30 2867 C 270.925 -0.668622 -1.56408 0
M  V30 2868 O 272.11 -0.917337 -1.71168 0
M  V30 2869 C 269.24 -1.99519 -2.8427 0
M  V30 2870 C 268.194 -3.15249 -2.89486 0
M  V30 2871 C 267.52 -3.18451 -4.29527 0
M  V30 2872 C 268.82 -4.54084 -2.58079 0
M  V30 2873 H 270.514 -2.7291 -1.23127 0
M  V30 2874 H 268.06 -1.31319 -0.590883 0
M  V30 2875 H 270.013 -2.18092 -3.60575 0
M  V30 2876 H 268.737 -1.04897 -3.09296 0
M  V30 2877 H 267.396 -2.96477 -2.15631 0
M  V30 2878 H 267.044 -2.2149 -4.5161 0
M  V30 2879 H 266.744 -3.962 -4.33934 0
M  V30 2880 H 268.268 -3.39193 -5.07721 0
M  V30 2881 H 269.682 -4.72899 -3.24098 0
M  V30 2882 H 268.079 -5.33987 -2.7382 0
M  V30 2883 H 269.149 -4.60006 -1.53372 0
M  V30 2884 N 270.492 0.636531 -1.44174 0
M  V30 2885 C 271.739 1.39619 -1.46672 0
M  V30 2886 C 272.067 1.94257 -0.0972691 0
M  V30 2887 O 271.322 1.73768 0.900175 0
M  V30 2888 C 271.621 2.58309 -2.47005 0
M  V30 2889 C 271.287 2.21992 -3.92467 0
M  V30 2890 C 269.949 2.118 -4.32081 0
M  V30 2891 C 272.301 1.9321 -4.84065 0
M  V30 2892 C 269.629 1.71007 -5.61225 0
M  V30 2893 C 271.981 1.53911 -6.13591 0
M  V30 2894 C 270.645 1.42257 -6.52165 0
M  V30 2895 H 269.915 0.510902 -0.536712 0
M  V30 2896 H 272.562 0.722328 -1.77355 0
M  V30 2897 H 270.867 3.30903 -2.09786 0
M  V30 2898 H 272.564 3.16533 -2.46186 0
M  V30 2899 H 269.154 2.30841 -3.61124 0
M  V30 2900 H 273.338 1.99997 -4.54219 0
M  V30 2901 H 268.594 1.60583 -5.89935 0
M  V30 2902 H 272.768 1.30677 -6.8403 0
M  V30 2903 H 270.395 1.10419 -7.52138 0
M  V30 2904 N 271.97 1.30982 0.876444 0
M  V30 2905 C 273.216 1.20474 1.63138 0
M  V30 2906 C 273.549 -0.238096 1.92735 0
M  V30 2907 O 272.824 -1.1692 1.55435 0
M  V30 2908 C 273.107 2.04244 2.96574 0
M  V30 2909 C 272.96 3.56793 2.73896 0
M  V30 2910 C 274.279 1.88684 3.97601 0
M  V30 2911 H 271.398 0.439001 0.591985 0
M  V30 2912 H 274.04 1.60704 1.01361 0
M  V30 2913 H 272.19 1.70063 3.493 0
M  V30 2914 H 273.862 4.01077 2.27892 0
M  V30 2915 H 272.105 3.80548 2.08245 0
M  V30 2916 H 272.776 4.10706 3.68815 0
M  V30 2917 H 275.252 2.18584 3.54062 0
M  V30 2918 H 274.128 2.4961 4.88862 0
M  V30 2919 H 274.389 0.848343 4.33884 0
M  V30 2920 N 273.449 -1.08991 1.13837 0
M  V30 2921 C 274.379 -2.17771 0.842507 0
M  V30 2922 C 275.36 -1.6892 -0.20001 0
M  V30 2923 O 276.545 -1.94113 -0.0579731 0
M  V30 2924 C 273.675 -3.4589 0.312644 0
M  V30 2925 C 272.629 -4.08099 1.28992 0
M  V30 2926 C 271.955 -5.31098 0.619623 0
M  V30 2927 C 273.255 -4.50077 2.65005 0
M  V30 2928 H 274.949 -2.42777 1.75213 0
M  V30 2929 H 272.495 -1.16682 0.843875 0
M  V30 2930 H 274.448 -4.21297 0.0933043 0
M  V30 2931 H 273.172 -3.20419 -0.632382 0
M  V30 2932 H 271.831 -3.34717 1.49533 0
M  V30 2933 H 271.479 -5.0191 -0.33102 0
M  V30 2934 H 271.179 -5.73674 1.27167 0
M  V30 2935 H 272.703 -6.09224 0.409669 0
M  V30 2936 H 274.117 -5.16688 2.48407 0
M  V30 2937 H 272.514 -5.03553 3.26427 0
M  V30 2938 H 273.584 -3.62257 3.22332 0
M  V30 2939 N 274.927 -0.932562 -1.27047 0
M  V30 2940 C 275.857 -0.452902 -2.29066 0
M  V30 2941 C 276.838 0.489338 -1.62909 0
M  V30 2942 O 278.023 0.393046 -1.90181 0
M  V30 2943 C 275.153 0.290698 -3.46081 0
M  V30 2944 C 274.107 -0.564168 -4.24265 0
M  V30 2945 C 273.433 0.308886 -5.33807 0
M  V30 2946 C 274.733 -1.83112 -4.89149 0
M  V30 2947 H 276.427 -1.30552 -2.69437 0
M  V30 2948 H 273.973 -0.629201 -1.29526 0
M  V30 2949 H 275.926 0.637233 -4.16554 0
M  V30 2950 H 274.65 1.17738 -3.0464 0
M  V30 2951 H 273.309 -0.893477 -3.55545 0
M  V30 2952 H 272.957 1.19467 -4.88607 0
M  V30 2953 H 272.657 -0.259633 -5.87026 0
M  V30 2954 H 274.181 0.650884 -6.07121 0
M  V30 2955 H 275.595 -1.55236 -5.51883 0
M  V30 2956 H 273.992 -2.34353 -5.52448 0
M  V30 2957 H 275.062 -2.54772 -4.12576 0
M  V30 2958 N 276.405 1.4127 -0.698611 0
M  V30 2959 C 277.63 2.06024 -0.238512 0
M  V30 2960 C 278.055 1.5224 1.10475 0
M  V30 2961 O 277.413 0.650623 1.69223 0
M  V30 2962 C 277.461 3.59988 -0.209952 0
M  V30 2963 O 276.565 4.04282 0.814235 0
M  V30 2964 H 275.906 0.653829 -0.115775 0
M  V30 2965 H 278.436 1.8098 -0.954326 0
M  V30 2966 H 278.446 4.07979 -0.0418436 0
M  V30 2967 H 277.121 3.98503 -1.1903 0
M  V30 2968 H 275.698 3.6779 0.615234 0
M  V30 2969 N 277.883 0.443576 1.51229 0
M  V30 2970 C 279.294 -0.0180867 1.86691 0
M  V30 2971 C 279.645 -1.41384 1.36033 0
M  V30 2972 O 278.77 -2.04291 0.713722 0
M  V30 2973 C 279.365 -0.039597 3.38777 0
M  V30 2974 C 277.924 -0.445692 3.73752 0
M  V30 2975 C 277.071 0.357584 2.74985 0
M  V30 2976 H 280.022 0.659138 1.44364 0
M  V30 2977 H 280.043 -0.847761 3.70936 0
M  V30 2978 H 279.555 0.976382 3.75617 0
M  V30 2979 H 277.656 -1.46704 3.42503 0
M  V30 2980 H 277.769 -0.166155 4.78812 0
M  V30 2981 H 276.133 -0.184973 2.54027 0
M  V30 2982 H 276.916 1.37256 3.14668 0
M  V30 2983 N 279.361 -1.56624 0.175154 0
M  V30 2984 C 280.607 -1.9729 -0.469506 0
M  V30 2985 C 280.94 -1.06128 -1.62636 0
M  V30 2986 O 280.215 -0.109183 -1.94193 0
M  V30 2987 C 280.498 -3.47375 -0.948804 0
M  V30 2988 C 280.351 -4.49317 0.208491 0
M  V30 2989 C 281.67 -4.00652 -1.82116 0
M  V30 2990 H 278.789 -0.717317 -0.16919 0
M  V30 2991 H 281.431 -1.88184 0.262062 0
M  V30 2992 H 279.581 -3.55267 -1.57219 0
M  V30 2993 H 281.253 -4.53482 0.845682 0
M  V30 2994 H 279.496 -4.25121 0.863395 0
M  V30 2995 H 280.167 -5.51741 -0.169059 0
M  V30 2996 H 282.643 -3.95416 -1.2956 0
M  V30 2997 H 281.519 -5.06075 -2.12554 0
M  V30 2998 H 281.78 -3.44699 -2.7683 0
M  V30 2999 N 280.839 0.0985539 -1.57292 0
M  V30 3000 C 282.087 0.801092 -1.85545 0
M  V30 3001 C 282.408 1.79438 -0.763353 0
M  V30 3002 O 281.678 1.94763 0.21073 0
M  V30 3003 H 280.258 0.29884 -0.684619 0
M  V30 3004 H 282.92 0.0810064 -1.94732 0
M  V30 3005 H 282.016 1.3338 -2.82163 0
M  V30 3006 N 282.317 1.53212 0.369288 0
M  V30 3007 C 283.728 1.60943 0.946276 0
M  V30 3008 C 284.079 0.47452 1.90375 0
M  V30 3009 O 283.204 -0.399597 2.12679 0
M  V30 3010 C 283.799 2.91715 1.72302 0
M  V30 3011 C 282.358 3.01792 2.24941 0
M  V30 3012 C 281.505 2.56211 1.06072 0
M  V30 3013 H 284.456 1.58007 0.148198 0
M  V30 3014 H 284.477 2.79309 2.58393 0
M  V30 3015 H 283.989 3.74295 1.0259 0
M  V30 3016 H 282.09 2.23791 2.97906 0
M  V30 3017 H 282.203 4.06803 2.53077 0
M  V30 3018 H 280.567 2.10998 1.4266 0
M  V30 3019 H 281.35 3.41206 0.378639 0
M  V30 3020 N 283.795 -0.628877 1.44509 0
M  V30 3021 C 285.025 -1.41349 1.50678 0
M  V30 3022 C 285.433 -1.88745 0.131075 0
M  V30 3023 O 284.776 -1.61592 -0.87371 0
M  V30 3024 C 284.838 -2.66608 2.41165 0
M  V30 3025 C 284.502 -2.40993 3.88293 0
M  V30 3026 C 285.499 -2.0268 4.78766 0
M  V30 3027 C 283.184 -2.54563 4.33016 0
M  V30 3028 C 285.178 -1.78269 6.11963 0
M  V30 3029 C 282.865 -2.29766 5.6626 0
M  V30 3030 C 283.863 -1.91678 6.55552 0
M  V30 3031 O 283.551 -1.67158 7.86329 0
M  V30 3032 H 283.283 -0.439851 0.51333 0
M  V30 3033 H 285.837 -0.776084 1.90174 0
M  V30 3034 H 284.067 -3.32994 1.96601 0
M  V30 3035 H 285.756 -3.28615 2.38259 0
M  V30 3036 H 286.522 -1.91751 4.45485 0
M  V30 3037 H 282.401 -2.83179 3.63773 0
M  V30 3038 H 285.945 -1.48465 6.81619 0
M  V30 3039 H 281.842 -2.40306 5.99102 0
M  V30 3040 H 282.61 -1.81386 7.98149 0
M  V30 3041 N 285.273 -1.31445 -0.869486 0
M  V30 3042 C 286.52 -1.21158 -1.62256 0
M  V30 3043 C 286.848 0.230155 -1.93133 0
M  V30 3044 O 286.103 1.17906 -1.56194 0
M  V30 3045 C 286.402 -2.00145 -2.96102 0
M  V30 3046 C 286.068 -3.4964 -2.84715 0
M  V30 3047 C 284.73 -3.90403 -2.81317 0
M  V30 3048 C 287.082 -4.44769 -2.71716 0
M  V30 3049 C 284.41 -5.24561 -2.62778 0
M  V30 3050 C 286.762 -5.79054 -2.54714 0
M  V30 3051 C 285.426 -6.19037 -2.49699 0
M  V30 3052 H 284.696 -0.443348 -0.593737 0
M  V30 3053 H 287.343 -1.62715 -1.00976 0
M  V30 3054 H 285.648 -1.5127 -3.6142 0
M  V30 3055 H 287.345 -1.89566 -3.53363 0
M  V30 3056 H 283.935 -3.17256 -2.88178 0
M  V30 3057 H 288.119 -4.14208 -2.73397 0
M  V30 3058 H 283.375 -5.54613 -2.57321 0
M  V30 3059 H 287.549 -6.52393 -2.43632 0
M  V30 3060 H 285.176 -7.22935 -2.35093 0
M  V30 3061 N 286.751 1.08385 -1.14413 0
M  V30 3062 C 287.976 1.85057 -0.936413 0
M  V30 3063 C 288.401 1.81055 0.509971 0
M  V30 3064 O 287.759 1.1958 1.36273 0
M  V30 3065 C 287.807 3.30505 -1.44217 0
M  V30 3066 O 286.911 4.07491 -0.634409 0
M  V30 3067 H 286.252 0.573425 -0.334784 0
M  V30 3068 H 288.782 1.36799 -1.52142 0
M  V30 3069 H 288.792 3.81348 -1.45043 0
M  V30 3070 H 287.467 3.32734 -2.49522 0
M  V30 3071 H 286.044 3.66368 -0.694902 0
M  V30 3072 N 288.23 0.939286 1.26551 0
M  V30 3073 C 289.455 0.602008 1.98471 0
M  V30 3074 C 289.88 -0.815624 1.69497 0
M  V30 3075 O 289.238 -1.54912 0.941905 0
M  V30 3076 C 289.286 0.848407 3.50477 0
M  V30 3077 O 288.39 -0.0804009 4.12322 0
M  V30 3078 H 287.731 0.23049 0.622712 0
M  V30 3079 H 290.261 1.2617 1.61066 0
M  V30 3080 H 290.271 0.768553 4.00696 0
M  V30 3081 H 288.946 1.88171 3.70897 0
M  V30 3082 H 287.523 0.0503508 3.72866 0
M  V30 3083 N 289.708 -1.40897 0.706093 0
M  V30 3084 C 290.956 -2.00657 0.241054 0
M  V30 3085 C 291.277 -1.56241 -1.16678 0
M  V30 3086 O 290.547 -0.79765 -1.78926 0
M  V30 3087 H 289.127 -0.742018 0.0861308 0
M  V30 3088 H 291.789 -1.72372 0.909604 0
M  V30 3089 H 290.885 -3.10958 0.266705 0
M  V30 3090 N 291.186 -0.45159 -1.50991 0
M  V30 3091 C 292.414 0.108334 -2.06616 0
M  V30 3092 C 292.829 1.35224 -1.31757 0
M  V30 3093 O 292.186 1.78475 -0.381174 0
M  V30 3094 C 292.237 0.41619 -3.59096 0
M  V30 3095 O 291.958 -0.778361 -4.3113 0
M  V30 3096 C 293.459 1.02523 -4.31282 0
M  V30 3097 H 290.679 0.00159995 -0.670998 0
M  V30 3098 H 293.223 -0.634771 -1.94399 0
M  V30 3099 H 291.378 1.10921 -3.71181 0
M  V30 3100 H 291.792 -0.511181 -5.22003 0
M  V30 3101 H 293.266 1.19053 -5.39009 0
M  V30 3102 H 293.743 2.01013 -3.905 0
M  V30 3103 H 294.349 0.371173 -4.23677 0
M  V30 3104 N 292.664 1.56529 -0.183458 0
M  V30 3105 C 293.911 1.97244 0.458357 0
M  V30 3106 C 294.239 1.06992 1.62428 0
M  V30 3107 O 293.494 0.106542 1.9541 0
M  V30 3108 C 293.793 3.43939 0.971637 0
M  V30 3109 C 293.459 4.5083 -0.0796784 0
M  V30 3110 C 292.121 4.79786 -0.368584 0
M  V30 3111 C 294.473 5.15138 -0.792638 0
M  V30 3112 C 291.801 5.70345 -1.37563 0
M  V30 3113 C 294.153 6.06784 -1.78875 0
M  V30 3114 C 292.817 6.34102 -2.08497 0
M  V30 3115 H 292.087 0.721768 0.167725 0
M  V30 3116 H 294.734 1.89472 -0.277976 0
M  V30 3117 H 293.039 3.48724 1.78602 0
M  V30 3118 H 294.736 3.72791 1.47744 0
M  V30 3119 H 291.326 4.28317 0.155668 0
M  V30 3120 H 295.51 4.92868 -0.582659 0
M  V30 3121 H 290.766 5.89789 -1.61118 0
M  V30 3122 H 294.94 6.55677 -2.3465 0
M  V30 3123 H 292.567 7.04074 -2.86678 0
M  V30 3124 N 294.142 -0.090211 1.57342 0
M  V30 3125 C 295.09 -1.12792 2.03422 0
M  V30 3126 C 296.084 -1.41182 0.936166 0
M  V30 3127 O 297.29 -1.40805 1.12133 0
M  V30 3128 H 293.665 -0.380986 0.648347 0
M  V30 3129 H 295.636 -0.71299 2.89757 0
M  V30 3130 C 294.385 -2.43855 2.47851 0
M  V30 3131 H 293.708 -2.22855 3.31927 0
M  V30 3132 H 295.148 -3.14955 2.83865 0
M  V30 3133 C 293.607 -3.08503 1.3538 0
M  V30 3134 O 294.137 -3.95805 0.685641 0
M  V30 3135 N 292.343 -2.68831 1.10355 0
M  V30 3136 H 291.89 -1.97929 1.64869 0
M  V30 3137 H 291.848 -3.12412 0.353031 0
M  V30 3138 N 295.62 -1.53406 -0.361157 0
M  V30 3139 C 297.031 -1.61442 -0.937728 0
M  V30 3140 C 297.382 -0.48461 -1.90121 0
M  V30 3141 O 296.507 0.388312 -2.12888 0
M  V30 3142 C 297.102 -2.92624 -1.70753 0
M  V30 3143 C 295.661 -3.02981 -2.23337 0
M  V30 3144 C 294.808 -2.5677 -1.04712 0
M  V30 3145 H 297.759 -1.58083 -0.139816 0
M  V30 3146 H 297.78 -2.80675 -2.56908 0
M  V30 3147 H 297.292 -3.74834 -1.00604 0
M  V30 3148 H 295.393 -2.25368 -2.96715 0
M  V30 3149 H 295.506 -4.0814 -2.50916 0
M  V30 3150 H 293.87 -2.11752 -1.41539 0
M  V30 3151 H 294.653 -3.41402 -0.360539 0
M  V30 3152 N 297.098 0.621204 -1.44841 0
M  V30 3153 C 298.344 1.3826 -1.48365 0
M  V30 3154 C 298.677 1.93831 -0.119624 0
M  V30 3155 O 297.952 1.74251 0.864111 0
M  V30 3156 C 298.235 2.54058 -2.55199 0
M  V30 3157 C 298.088 2.03772 -4.00995 0
M  V30 3158 C 299.407 3.56225 -2.58442 0
M  V30 3159 H 296.526 0.501374 -0.540179 0
M  V30 3160 H 299.168 0.7015 -1.76576 0
M  V30 3161 H 297.318 3.12162 -2.31274 0
M  V30 3162 H 298.99 1.50423 -4.36086 0
M  V30 3163 H 297.233 1.34876 -4.12299 0
M  V30 3164 H 297.904 2.87185 -4.71411 0
M  V30 3165 H 300.38 3.07939 -2.79844 0
M  V30 3166 H 299.256 4.34756 -3.3508 0
M  V30 3167 H 299.517 4.10949 -1.63013 0
M  V30 3168 N 298.576 1.31904 0.862503 0
M  V30 3169 C 299.801 1.25135 1.65397 0
M  V30 3170 C 300.226 -0.179 1.87246 0
M  V30 3171 O 299.584 -1.1277 1.4196 0
M  V30 3172 C 299.632 2.00832 2.99498 0
M  V30 3173 O 298.736 1.35075 3.89652 0
M  V30 3174 H 298.077 0.431655 0.504549 0
M  V30 3175 H 300.607 1.74094 1.07483 0
M  V30 3176 H 300.617 2.10709 3.49379 0
M  V30 3177 H 299.292 3.04847 2.82916 0
M  V30 3178 H 297.869 1.33696 3.48109 0
M  V30 3179 N 300.054 -1.07777 1.14986 0
M  V30 3180 C 300.984 -2.16865 0.865557 0
M  V30 3181 C 301.965 -1.69123 -0.182083 0
M  V30 3182 O 303.15 -1.94164 -0.0373815 0
M  V30 3183 C 300.28 -3.45539 0.349313 0
M  V30 3184 C 299.234 -4.06708 1.33313 0
M  V30 3185 C 298.56 -5.30411 0.675918 0
M  V30 3186 C 299.86 -4.47241 2.69764 0
M  V30 3187 H 301.554 -2.40905 1.77778 0
M  V30 3188 H 299.1 -1.15781 0.856203 0
M  V30 3189 H 301.053 -4.21174 0.137983 0
M  V30 3190 H 299.777 -3.21072 -0.598362 0
M  V30 3191 H 298.436 -3.33112 1.53075 0
M  V30 3192 H 298.084 -5.02232 -0.277767 0
M  V30 3193 H 297.784 -5.72293 1.33244 0
M  V30 3194 H 299.308 -6.08755 0.474262 0
M  V30 3195 H 300.722 -5.14025 2.53873 0
M  V30 3196 H 299.119 -5.00062 3.3175 0
M  V30 3197 H 300.189 -3.58818 3.26156 0
M  V30 3198 N 301.532 -0.945985 -1.26051 0
M  V30 3199 C 302.778 -0.606539 -1.94146 0
M  V30 3200 C 303.133 0.84586 -1.72809 0
M  V30 3201 O 302.426 1.59781 -1.05738 0
M  V30 3202 C 302.62 -0.890475 -3.46129 0
M  V30 3203 C 302.449 -2.36892 -3.82246 0
M  V30 3204 C 301.219 -3.02494 -4.04753 0
M  V30 3205 C 303.417 -3.34772 -3.90425 0
M  V30 3206 N 301.399 -4.40302 -4.27794 0
M  V30 3207 C 302.77 -4.57855 -4.18054 0
M  V30 3208 C 304.825 -3.2973 -3.73072 0
M  V30 3209 C 303.528 -5.76522 -4.30134 0
M  V30 3210 C 305.554 -4.47727 -3.86386 0
M  V30 3211 C 304.916 -5.69593 -4.14419 0
M  V30 3212 H 301.015 -0.272407 -0.73302 0
M  V30 3213 H 303.599 -1.21638 -1.52027 0
M  V30 3214 H 301.77 -0.309638 -3.87164 0
M  V30 3215 H 303.502 -0.51181 -4.01451 0
M  V30 3216 H 300.257 -2.53095 -4.003 0
M  V30 3217 H 300.681 -5.11646 -4.43337 0
M  V30 3218 H 305.323 -2.36565 -3.50424 0
M  V30 3219 H 303.041 -6.70136 -4.51601 0
M  V30 3220 H 306.627 -4.45363 -3.74356 0
M  V30 3221 H 305.507 -6.59375 -4.24493 0
M  V30 3222 N 303.011 1.40521 -0.713556 0
M  V30 3223 C 303.974 2.29098 -0.0684347 0
M  V30 3224 C 304.974 1.45268 0.689472 0
M  V30 3225 O 306.164 1.66205 0.521677 0
M  V30 3226 C 303.296 3.28446 0.913024 0
M  V30 3227 H 304.489 2.87645 -0.84855 0
M  V30 3228 H 302.042 1.48809 -0.47809 0
M  V30 3229 H 302.777 2.74913 1.72027 0
M  V30 3230 H 302.562 3.90327 0.372472 0
M  V30 3231 H 304.052 3.94777 1.36165 0
M  V30 3232 N 304.489 0.459591 1.5075 0
M  V30 3233 C 305.437 -0.354678 2.2988 0
M  V30 3234 C 306.431 -1.00086 1.36672 0
M  V30 3235 O 307.637 -0.933277 1.53915 0
M  V30 3236 H 304.012 -0.13321 0.740107 0
M  V30 3237 H 305.983 0.333269 2.96533 0
M  V30 3238 C 304.732 -1.43073 3.169 0
M  V30 3239 H 304.055 -0.942882 3.88523 0
M  V30 3240 H 305.495 -1.97328 3.75284 0
M  V30 3241 C 303.954 -2.42633 2.33732 0
M  V30 3242 O 304.484 -3.47658 2.01238 0
M  V30 3243 N 302.69 -2.14066 1.9653 0
M  V30 3244 H 302.237 -1.28685 2.23155 0
M  V30 3245 H 302.195 -2.80917 1.41185 0
M  V30 3246 N 305.967 -1.56429 0.191757 0
M  V30 3247 C 307.378 -1.83912 -0.321428 0
M  V30 3248 C 307.729 -1.11231 -1.61623 0
M  V30 3249 O 306.854 -0.37202 -2.13178 0
M  V30 3250 C 307.449 -3.33624 -0.589961 0
M  V30 3251 C 306.008 -3.6153 -1.04753 0
M  V30 3252 C 305.155 -2.7714 -0.0943327 0
M  V30 3253 H 308.106 -1.53161 0.415612 0
M  V30 3254 H 308.127 -3.52213 -1.43966 0
M  V30 3255 H 307.639 -3.86495 0.352588 0
M  V30 3256 H 305.74 -3.14089 -2.00447 0
M  V30 3257 H 305.853 -4.69737 -0.942549 0
M  V30 3258 H 304.217 -2.47638 -0.595589 0
M  V30 3259 H 305 -3.32799 0.842601 0
M  V30 3260 N 307.445 0.0818655 -1.57387 0
M  V30 3261 C 308.392 1.09834 -2.0299 0
M  V30 3262 C 309.362 1.39043 -0.908639 0
M  V30 3263 O 310.547 1.50282 -1.17559 0
M  V30 3264 C 307.687 2.40971 -2.47037 0
M  V30 3265 C 306.8 2.18379 -3.7274 0
M  V30 3266 C 305.935 3.43008 -4.0561 0
M  V30 3267 C 304.974 3.15736 -5.24383 0
M  V30 3268 N 304.111 4.32667 -5.52941 0
M  V30 3269 H 308.951 0.702472 -2.89602 0
M  V30 3270 H 306.488 0.33531 -1.43227 0
M  V30 3271 H 308.446 3.1752 -2.70623 0
M  V30 3272 H 307.076 2.78379 -1.63417 0
M  V30 3273 H 306.128 1.32569 -3.56552 0
M  V30 3274 H 307.44 1.94227 -4.59431 0
M  V30 3275 H 306.594 4.27958 -4.30043 0
M  V30 3276 H 305.333 3.70225 -3.17466 0
M  V30 3277 H 304.338 2.2918 -4.99757 0
M  V30 3278 H 305.563 2.8985 -6.14136 0
M  V30 3279 H 303.509 4.59935 -4.67756 0
M  V30 3280 H 303.426 4.11753 -6.34031 0
M  V30 3281 H 304.694 5.18644 -5.81918 0
M  V30 3282 N 308.923 1.53595 0.353017 0
M  V30 3283 C 310.153 1.74058 1.11299 0
M  V30 3284 C 310.561 0.475205 1.83135 0
M  V30 3285 O 309.904 -0.562344 1.74881 0
M  V30 3286 C 309.966 2.85994 2.17825 0
M  V30 3287 C 309.63 4.25923 1.65647 0
M  V30 3288 C 310.627 5.07829 1.11383 0
M  V30 3289 C 308.312 4.72377 1.7078 0
M  V30 3290 C 310.306 6.34285 0.629439 0
M  V30 3291 C 307.993 5.98808 1.21953 0
M  V30 3292 C 308.991 6.79594 0.681265 0
M  V30 3293 O 308.679 8.03651 0.200248 0
M  V30 3294 H 308.411 0.585327 0.338183 0
M  V30 3295 H 310.965 2.01186 0.413927 0
M  V30 3296 H 309.195 2.54368 2.91262 0
M  V30 3297 H 310.884 2.94515 2.79313 0
M  V30 3298 H 311.65 4.73107 1.06746 0
M  V30 3299 H 307.529 4.0956 2.11617 0
M  V30 3300 H 311.073 6.97288 0.208636 0
M  V30 3301 H 306.97 6.33026 1.26287 0
M  V30 3302 H 307.738 8.1788 0.318416 0
M  V30 3303 N 310.401 -0.613514 1.45168 0
M  V30 3304 C 311.647 -1.37471 1.49096 0
M  V30 3305 C 311.98 -1.93765 0.129901 0
M  V30 3306 O 311.255 -1.74707 -0.854858 0
M  V30 3307 C 311.538 -2.52701 2.56542 0
M  V30 3308 C 311.391 -2.01643 4.0207 0
M  V30 3309 C 312.71 -3.54849 2.60327 0
M  V30 3310 H 309.829 -0.498502 0.54283 0
M  V30 3311 H 312.471 -0.692125 1.76945 0
M  V30 3312 H 310.621 -3.10931 2.32926 0
M  V30 3313 H 312.293 -1.48108 4.36877 0
M  V30 3314 H 310.536 -1.32688 4.13009 0
M  V30 3315 H 311.207 -2.84681 4.72928 0
M  V30 3316 H 313.683 -3.0645 2.81474 0
M  V30 3317 H 312.559 -4.32973 3.37381 0
M  V30 3318 H 312.82 -4.10079 1.6519 0
M  V30 3319 N 311.879 -1.3236 -0.855495 0
M  V30 3320 C 313.295 -1.11332 -1.14356 0
M  V30 3321 C 313.495 0.106751 -2.01217 0
M  V30 3322 O 312.551 0.791891 -2.39761 0
M  V30 3323 C 313.864 -2.39237 -1.82171 0
M  V30 3324 C 315.412 -2.44986 -1.9481 0
M  V30 3325 C 315.887 -3.7281 -2.66039 0
M  V30 3326 N 317.378 -3.73787 -2.73565 0
M  V30 3327 C 318.113 -4.69394 -3.29327 0
M  V30 3328 N 317.609 -5.75367 -3.85907 0
M  V30 3329 N 319.402 -4.56893 -3.27423 0
M  V30 3330 H 311.553 -2.10586 -0.277027 0
M  V30 3331 H 313.816 -0.929701 -0.185364 0
M  V30 3332 H 313.522 -3.28431 -1.25802 0
M  V30 3333 H 313.396 -2.50134 -2.82335 0
M  V30 3334 H 315.783 -1.56252 -2.50338 0
M  V30 3335 H 315.864 -2.38043 -0.936448 0
M  V30 3336 H 315.508 -4.61918 -2.11174 0
M  V30 3337 H 315.438 -3.77024 -3.67642 0
M  V30 3338 H 317.929 -2.97189 -2.33424 0
M  V30 3339 H 318.242 -6.44378 -4.26611 0
M  V30 3340 H 316.587 -5.79123 -3.84242 0
M  V30 3341 H 319.778 -3.73269 -2.82467 0
M  V30 3342 H 319.951 -5.31577 -3.7058 0
M  V30 3343 N 313.357 1.07166 -1.15556 0
M  V30 3344 C 314.32 2.12589 -0.856644 0
M  V30 3345 C 315.32 1.6015 0.14444 0
M  V30 3346 O 316.51 1.7399 -0.0854163 0
M  V30 3347 C 313.642 3.39753 -0.279405 0
M  V30 3348 H 314.835 2.40539 -1.79112 0
M  V30 3349 H 312.388 1.23086 -0.963298 0
M  V30 3350 H 313.123 3.17447 0.663174 0
M  V30 3351 H 312.908 3.79117 -1.00063 0
M  V30 3352 H 314.398 4.17507 -0.0879113 0
M  V30 3353 N 314.835 0.952656 1.25548 0
M  V30 3354 C 316.081 0.616826 1.93822 0
M  V30 3355 C 316.436 -0.836684 1.73255 0
M  V30 3356 O 315.729 -1.59218 1.06584 0
M  V30 3357 C 315.923 0.908818 3.45652 0
M  V30 3358 C 315.752 2.38916 3.80984 0
M  V30 3359 C 314.522 3.04637 4.03143 0
M  V30 3360 C 316.72 3.36838 3.88645 0
M  V30 3361 N 314.702 4.42565 4.25453 0
M  V30 3362 C 316.073 4.60065 4.1562 0
M  V30 3363 C 318.128 3.31704 3.71318 0
M  V30 3364 C 316.831 5.78795 4.2707 0
M  V30 3365 C 318.857 4.4977 3.84006 0
M  V30 3366 C 318.219 5.71783 4.11392 0
M  V30 3367 H 314.318 0.27629 0.731565 0
M  V30 3368 H 316.902 1.22443 1.5138 0
M  V30 3369 H 315.073 0.330166 3.86994 0
M  V30 3370 H 316.805 0.533093 4.01174 0
M  V30 3371 H 313.56 2.55215 3.98952 0
M  V30 3372 H 313.984 5.1399 4.40617 0
M  V30 3373 H 318.626 2.3842 3.49164 0
M  V30 3374 H 316.344 6.72521 4.48041 0
M  V30 3375 H 319.93 4.47342 3.71989 0
M  V30 3376 H 318.81 6.61617 4.2099 0
M  V30 3377 N 316.313 -1.40141 0.720998 0
M  V30 3378 C 317.26 -2.30688 0.071919 0
M  V30 3379 C 318.23 -1.48476 -0.744584 0
M  V30 3380 O 319.415 -1.77201 -0.707423 0
M  V30 3381 C 316.555 -3.34724 -0.839855 0
M  V30 3382 C 315.668 -4.31998 -0.0122438 0
M  V30 3383 C 314.803 -5.23102 -0.923995 0
M  V30 3384 C 313.842 -6.12033 -0.0907969 0
M  V30 3385 N 312.979 -6.95537 -0.957718 0
M  V30 3386 H 317.819 -2.85628 0.849755 0
M  V30 3387 H 315.356 -1.40653 0.430726 0
M  V30 3388 H 317.314 -3.93618 -1.38279 0
M  V30 3389 H 315.944 -2.81274 -1.58381 0
M  V30 3390 H 314.996 -3.74841 0.64794 0
M  V30 3391 H 316.308 -4.94772 0.632595 0
M  V30 3392 H 315.462 -5.86953 -1.53527 0
M  V30 3393 H 314.201 -4.60615 -1.60264 0
M  V30 3394 H 313.206 -5.47207 0.533377 0
M  V30 3395 H 314.431 -6.76581 0.584428 0
M  V30 3396 H 312.377 -6.35633 -1.62192 0
M  V30 3397 H 312.294 -7.55099 -0.36904 0
M  V30 3398 H 313.562 -7.63832 -1.555 0
M  V30 3399 N 317.792 -0.46758 -1.50504 0
M  V30 3400 C 319.04 0.0884469 -2.01906 0
M  V30 3401 C 319.361 1.40532 -1.35188 0
M  V30 3402 O 318.631 1.89515 -0.496079 0
M  V30 3403 H 317.211 0.0356765 -0.746148 0
M  V30 3404 H 319.873 -0.6172 -1.84869 0
M  V30 3405 H 318.969 0.2425 -3.11156 0
M  V30 3406 N 319.27 1.56325 -0.20005 0
M  V30 3407 C 320.518 1.97329 0.436547 0
M  V30 3408 C 320.839 1.08826 1.61808 0
M  V30 3409 O 320.109 0.160604 1.95241 0
M  V30 3410 H 318.689 0.728714 0.164272 0
M  V30 3411 H 321.351 1.92761 -0.287937 0
M  V30 3412 H 320.447 3.02264 0.777353 0
M  V30 3413 N 320.748 -0.0735177 1.57428 0
M  V30 3414 C 321.976 -0.785969 1.9139 0
M  V30 3415 C 322.391 -1.71207 0.795847 0
M  V30 3416 O 321.748 -1.81033 -0.230915 0
M  V30 3417 C 321.799 -1.58107 3.25091 0
M  V30 3418 O 321.52 -0.6922 4.32597 0
M  V30 3419 C 323.021 -2.39467 3.73055 0
M  V30 3420 H 320.241 -0.223558 0.632663 0
M  V30 3421 H 322.785 -0.044302 2.04452 0
M  V30 3422 H 320.94 -2.27503 3.13562 0
M  V30 3423 H 321.354 -1.24504 5.09508 0
M  V30 3424 H 322.828 -2.90716 4.69242 0
M  V30 3425 H 323.305 -3.18913 3.01979 0
M  V30 3426 H 323.911 -1.7523 3.87523 0
M  V30 3427 N 322.226 -1.5378 -0.344866 0
M  V30 3428 C 323.474 -1.70625 -1.08311 0
M  V30 3429 C 323.795 -0.471447 -1.89215 0
M  V30 3430 O 323.065 0.514616 -1.8902 0
M  V30 3431 H 321.645 -0.629058 -0.402859 0
M  V30 3432 H 324.307 -1.9103 -0.386459 0
M  V30 3433 H 323.403 -2.57656 -1.76124 0
M  V30 3434 N 323.704 0.605807 -1.45491 0
M  V30 3435 C 324.981 1.36522 -1.40075 0
M  V30 3436 C 325.361 2.10976 -0.0722744 0
M  V30 3437 O 324.709 2.08007 0.945808 0
M  V30 3438 C 324.919 2.31056 -2.61561 0
M  V30 3439 C 326.267 2.93608 -3.06724 0
M  V30 3440 O 327.291 2.41376 -2.61946 0
M  V30 3441 O 326.15 3.88421 -3.84437 0
M  V30 3442 H 323.244 0.612248 -0.555951 0
M  V30 3443 H 325.79 0.628747 -1.57623 0
M  V30 3444 H 324.562 1.75311 -3.49831 0
M  V30 3445 H 324.185 3.12081 -2.46356 0
M  V30 3446 N 325.182 1.32811 0.848464 0
M  V30 3447 C 326.422 1.25046 1.61687 0
M  V30 3448 C 326.786 -0.183464 1.91121 0
M  V30 3449 O 327.987 -0.384937 2.66029 0
M  V30 3450 C 326.258 2.09201 2.89775 0
M  V30 3451 S 327.817 2.18526 3.80515 0
M  V30 3452 H 324.635 0.445023 0.554505 0
M  V30 3453 H 327.237 1.67733 1.00429 0
M  V30 3454 H 325.941 3.12433 2.66108 0
M  V30 3455 H 325.472 1.67315 3.56047 0
M  V30 3456 H 327.487 1.3393 4.77784 0
M  V30 3457 N 326.66 -1.06551 1.16123 0
M  V30 3458 C 327.607 -2.13961 0.865414 0
M  V30 3459 C 328.577 -1.65066 -0.185055 0
M  V30 3460 O 329.762 -1.90732 -0.05083 0
M  V30 3461 C 326.902 -3.43113 0.369776 0
M  V30 3462 C 326.015 -4.05756 1.48276 0
M  V30 3463 C 325.15 -5.22773 0.942414 0
M  V30 3464 C 324.189 -5.77395 2.03179 0
M  V30 3465 N 323.326 -6.85731 1.50721 0
M  V30 3466 H 328.166 -2.38605 1.78527 0
M  V30 3467 H 325.703 -1.17072 0.890646 0
M  V30 3468 H 327.661 -4.17151 0.0640643 0
M  V30 3469 H 326.291 -3.18695 -0.513143 0
M  V30 3470 H 325.343 -3.29292 1.9045 0
M  V30 3471 H 326.655 -4.42351 2.30493 0
M  V30 3472 H 325.809 -6.03827 0.589729 0
M  V30 3473 H 324.548 -4.87618 0.0895191 0
M  V30 3474 H 323.553 -4.94981 2.3932 0
M  V30 3475 H 324.778 -6.14603 2.8886 0
M  V30 3476 H 322.724 -6.52499 0.676811 0
M  V30 3477 H 322.641 -7.21254 2.26557 0
M  V30 3478 H 323.909 -7.7047 1.18303 0
M  V30 3479 N 328.138 -0.959301 -1.25041 0
M  V30 3480 C 329.071 -0.427418 -2.24161 0
M  V30 3481 C 330.049 0.493837 -1.54919 0
M  V30 3482 O 331.233 0.427144 -1.83597 0
M  V30 3483 C 328.36 0.383893 -3.36517 0
M  V30 3484 C 327.406 -0.478431 -4.23808 0
M  V30 3485 S 328.239 -1.91353 -5.00144 0
M  V30 3486 C 329.395 -1.11077 -6.15965 0
M  V30 3487 H 329.628 -1.26743 -2.6893 0
M  V30 3488 H 327.161 -0.763714 -1.34189 0
M  V30 3489 H 329.119 0.846039 -4.01687 0
M  V30 3490 H 327.78 1.19878 -2.90324 0
M  V30 3491 H 326.973 0.14406 -5.03794 0
M  V30 3492 H 326.575 -0.87597 -3.63597 0
M  V30 3493 H 328.867 -0.361699 -6.76534 0
M  V30 3494 H 329.81 -1.88472 -6.82557 0
M  V30 3495 H 330.218 -0.638843 -5.60873 0
M  V30 3496 N 329.616 1.39756 -0.72842 0
M  V30 3497 C 330.864 2.00248 -0.272946 0
M  V30 3498 C 331.185 1.58077 1.14178 0
M  V30 3499 O 330.455 0.826014 1.77634 0
M  V30 3500 H 329.035 0.740554 -0.0979247 0
M  V30 3501 H 331.697 1.70903 -0.936912 0
M  V30 3502 H 330.793 3.10495 -0.316142 0
M  V30 3503 N 331.094 0.475555 1.50254 0
M  V30 3504 C 332.342 -0.077738 2.0195 0
M  V30 3505 C 332.663 -1.39813 1.35931 0
M  V30 3506 O 331.933 -1.89249 0.506123 0
M  V30 3507 H 330.513 -0.031719 0.746326 0
M  V30 3508 H 333.175 0.626995 1.84539 0
M  V30 3509 H 332.271 -0.225995 3.11281 0
M  V30 3510 N 332.573 -1.56217 0.208337 0
M  V30 3511 C 333.521 -2.21053 -0.723769 0
M  V30 3512 C 334.515 -1.18578 -1.20978 0
M  V30 3513 O 335.721 -1.36691 -1.17114 0
M  V30 3514 H 332.096 -0.708595 -0.251788 0
M  V30 3515 H 334.067 -2.98006 -0.153365 0
M  V30 3516 C 332.816 -2.89417 -1.927 0
M  V30 3517 H 332.139 -3.68019 -1.56212 0
M  V30 3518 H 333.579 -3.38201 -2.55727 0
M  V30 3519 C 332.038 -1.91166 -2.77411 0
M  V30 3520 O 332.568 -1.42026 -3.75754 0
M  V30 3521 N 330.774 -1.59105 -2.43175 0
M  V30 3522 H 330.321 -1.99259 -1.63259 0
M  V30 3523 H 330.279 -0.936255 -3.00136 0
M  V30 3524 N 334.051 0.0651679 -1.57465 0
M  V30 3525 C 335.281 0.774683 -1.91526 0
M  V30 3526 C 335.689 1.71305 -0.803196 0
M  V30 3527 O 335.032 1.82231 0.231881 0
M  V30 3528 C 335.094 1.61645 -3.21109 0
M  V30 3529 C 334.758 0.846753 -4.49087 0
M  V30 3530 C 335.755 0.163024 -5.19644 0
M  V30 3531 C 333.44 0.811966 -4.95694 0
M  V30 3532 C 335.434 -0.54519 -6.35064 0
M  V30 3533 C 333.121 0.0999836 -6.11018 0
M  V30 3534 C 334.119 -0.577388 -6.80555 0
M  V30 3535 O 333.807 -1.27789 -7.93678 0
M  V30 3536 H 333.539 0.225031 -0.637446 0
M  V30 3537 H 336.093 0.0377134 -2.05365 0
M  V30 3538 H 334.323 2.39638 -3.03497 0
M  V30 3539 H 336.012 2.20525 -3.40769 0
M  V30 3540 H 336.778 0.181163 -4.84662 0
M  V30 3541 H 332.657 1.32867 -4.41438 0
M  V30 3542 H 336.201 -1.07446 -6.89276 0
M  V30 3543 H 332.098 0.0797945 -6.45451 0
M  V30 3544 H 332.866 -1.18784 -8.09835 0
M  V30 3545 N 335.529 1.53961 0.336706 0
M  V30 3546 C 336.777 1.71197 1.07405 0
M  V30 3547 C 337.098 0.481475 1.88962 0
M  V30 3548 O 336.368 -0.504585 1.8929 0
M  V30 3549 H 334.948 0.631185 0.399517 0
M  V30 3550 H 337.61 1.91232 0.376323 0
M  V30 3551 H 336.706 2.58587 1.74755 0
M  V30 3552 N 337.007 -0.598083 1.45811 0
M  V30 3553 C 338.232 -1.3881 1.54099 0
M  V30 3554 C 338.657 -1.8726 0.177578 0
M  V30 3555 O 338.015 -1.6069 -0.839541 0
M  V30 3556 C 338.063 -2.56217 2.53743 0
M  V30 3557 O 337.167 -3.5716 2.06182 0
M  V30 3558 H 336.508 -0.414024 0.519115 0
M  V30 3559 H 339.038 -0.726971 1.91249 0
M  V30 3560 H 339.048 -3.03337 2.72856 0
M  V30 3561 H 337.723 -2.20303 3.5276 0
M  V30 3562 H 336.3 -3.16624 1.96987 0
M  V30 3563 N 338.485 -1.33259 -0.841409 0
M  V30 3564 C 339.71 -1.2775 -1.63385 0
M  V30 3565 C 340.135 0.149188 -1.87507 0
M  V30 3566 O 339.493 1.10498 -1.43736 0
M  V30 3567 C 339.541 -2.05571 -2.96265 0
M  V30 3568 O 338.645 -1.41257 -3.87453 0
M  V30 3569 H 337.986 -0.439627 -0.497618 0
M  V30 3570 H 340.516 -1.75782 -1.04699 0
M  V30 3571 H 340.526 -2.16241 -3.45982 0
M  V30 3572 H 339.201 -3.09309 -2.7803 0
M  V30 3573 H 337.778 -1.39217 -3.45938 0
M  V30 3574 N 339.963 1.05934 -1.16686 0
M  V30 3575 C 340.893 2.1546 -0.899949 0
M  V30 3576 C 341.874 1.69391 0.155154 0
M  V30 3577 O 343.059 1.94199 0.00648693 0
M  V30 3578 C 340.189 3.44939 -0.404241 0
M  V30 3579 C 339.143 4.04536 -1.39767 0
M  V30 3580 C 338.469 5.29268 -0.760216 0
M  V30 3581 C 339.769 4.42893 -2.76845 0
M  V30 3582 H 341.463 2.38046 -1.81588 0
M  V30 3583 H 339.009 1.14404 -0.874514 0
M  V30 3584 H 340.962 4.20901 -0.204971 0
M  V30 3585 H 339.686 3.21983 0.547206 0
M  V30 3586 H 338.345 3.30635 -1.58355 0
M  V30 3587 H 337.993 5.02611 0.197831 0
M  V30 3588 H 337.693 5.70101 -1.42332 0
M  V30 3589 H 339.217 6.07924 -0.57105 0
M  V30 3590 H 340.631 5.09921 -2.62019 0
M  V30 3591 H 339.028 4.94721 -3.39663 0
M  V30 3592 H 340.098 3.53584 -3.31823 0
M  V30 3593 N 341.441 0.965919 1.2453 0
M  V30 3594 C 342.688 0.626831 1.92554 0
M  V30 3595 C 343.016 -0.837739 1.75534 0
M  V30 3596 O 342.271 -1.61793 1.10098 0
M  V30 3597 C 342.57 0.945428 3.44669 0
M  V30 3598 C 342.236 2.39785 3.81856 0
M  V30 3599 C 340.898 2.79483 3.91718 0
M  V30 3600 C 343.25 3.34055 4.00071 0
M  V30 3601 C 340.578 4.12496 4.1721 0
M  V30 3602 C 342.93 4.66694 4.27059 0
M  V30 3603 C 341.594 5.06172 4.3514 0
M  V30 3604 H 340.864 0.229374 0.704605 0
M  V30 3605 H 343.511 1.21707 1.4785 0
M  V30 3606 H 341.816 0.272926 3.90848 0
M  V30 3607 H 343.513 0.661484 3.95507 0
M  V30 3608 H 340.103 2.08003 3.74743 0
M  V30 3609 H 344.287 3.04571 3.91855 0
M  V30 3610 H 339.543 4.42709 4.21685 0
M  V30 3611 H 343.717 5.3971 4.40097 0
M  V30 3612 H 341.344 6.09262 4.54646 0
M  V30 3613 N 342.919 -1.39368 0.735821 0
M  V30 3614 C 343.882 -2.2896 0.104874 0
M  V30 3615 C 344.882 -1.46347 -0.666274 0
M  V30 3616 O 346.072 -1.67014 -0.49517 0
M  V30 3617 C 343.204 -3.29857 -0.860656 0
M  V30 3618 H 344.397 -2.86259 0.894205 0
M  V30 3619 H 341.95 -1.48029 0.501704 0
M  V30 3620 H 342.685 -2.77615 -1.67631 0
M  V30 3621 H 342.47 -3.9087 -0.310327 0
M  V30 3622 H 343.96 -3.96893 -1.29867 0
M  V30 3623 N 344.397 -0.483516 -1.5 0
M  V30 3624 C 345.329 0.340634 -2.26655 0
M  V30 3625 C 346.342 0.946152 -1.32483 0
M  V30 3626 O 347.531 0.832453 -1.579 0
M  V30 3627 C 344.631 1.4929 -3.04246 0
M  V30 3628 C 343.804 0.997903 -4.25865 0
M  V30 3629 C 342.863 2.02569 -4.85646 0
M  V30 3630 O 341.889 1.60128 -5.46212 0
M  V30 3631 N 343.091 3.3548 -4.73744 0
M  V30 3632 H 345.856 -0.316577 -2.98023 0
M  V30 3633 H 343.417 -0.315024 -1.58806 0
M  V30 3634 H 345.409 2.17766 -3.41116 0
M  V30 3635 H 343.979 2.05458 -2.35597 0
M  V30 3636 H 343.199 0.138617 -3.93956 0
M  V30 3637 H 344.487 0.645305 -5.04691 0
M  V30 3638 H 343.885 3.72661 -4.25605 0
M  V30 3639 H 342.442 3.99718 -5.14848 0
M  V30 3640 N 345.875 1.56104 -0.216619 0
M  V30 3641 C 347.115 2.00074 0.418322 0
M  V30 3642 C 347.479 1.10098 1.57297 0
M  V30 3643 O 348.68 1.43393 2.27359 0
M  V30 3644 C 346.951 3.47231 0.846477 0
M  V30 3645 S 348.51 4.13223 1.47622 0
M  V30 3646 H 345.328 0.698457 0.132962 0
M  V30 3647 H 347.93 1.92784 -0.324748 0
M  V30 3648 H 346.634 4.104 -0.0036319 0
M  V30 3649 H 346.165 3.58384 1.62248 0
M  V30 3650 H 348.18 4.12005 2.76526 0
M  V30 3651 N 347.353 -0.0568162 1.57498 0
M  V30 3652 C 348.263 -1.08346 2.08083 0
M  V30 3653 C 349.279 -1.41439 1.01346 0
M  V30 3654 O 350.455 -1.51316 1.32912 0
M  V30 3655 C 347.52 -2.37352 2.52715 0
M  V30 3656 C 346.581 -2.11093 3.73816 0
M  V30 3657 C 345.814 -3.33949 4.1631 0
M  V30 3658 O 346.037 -4.43622 3.58547 0
M  V30 3659 O 344.971 -3.21279 5.08983 0
M  V30 3660 H 348.797 -0.683667 2.95905 0
M  V30 3661 H 346.382 -0.271965 1.46904 0
M  V30 3662 H 348.264 -3.13246 2.81877 0
M  V30 3663 H 346.939 -2.76681 1.68016 0
M  V30 3664 H 345.846 -1.32856 3.49714 0
M  V30 3665 H 347.179 -1.76637 4.59413 0
M  V30 3666 N 348.832 -1.54138 -0.328536 0
M  V30 3667 C 349.795 -1.82462 -1.38709 0
M  V30 3668 C 350.795 -0.696229 -1.44946 0
M  V30 3669 O 351.985 -0.964535 -1.4506 0
M  V30 3670 C 349.117 -1.98018 -2.77492 0
M  V30 3671 H 350.31 -2.77037 -1.14851 0
M  V30 3672 H 347.863 -1.45779 -0.563751 0
M  V30 3673 H 348.598 -1.05637 -3.06613 0
M  V30 3674 H 348.383 -2.80124 -2.74359 0
M  V30 3675 H 349.873 -2.21396 -3.54081 0
M  V30 3676 N 350.31 0.590341 -1.46126 0
M  V30 3677 C 351.556 1.35082 -1.51264 0
M  V30 3678 C 351.889 1.93534 -0.160711 0
M  V30 3679 O 351.164 1.76045 0.826956 0
M  V30 3680 C 351.447 2.48588 -2.6053 0
M  V30 3681 C 351.3 1.95221 -4.05227 0
M  V30 3682 C 352.619 3.50662 -2.6594 0
M  V30 3683 H 349.738 0.489803 -0.550692 0
M  V30 3684 H 352.38 0.663887 -1.78024 0
M  V30 3685 H 350.53 3.07186 -2.37843 0
M  V30 3686 H 352.202 1.41139 -4.39178 0
M  V30 3687 H 350.445 1.26101 -4.15068 0
M  V30 3688 H 351.116 2.77121 -4.77397 0
M  V30 3689 H 353.592 3.01934 -2.86313 0
M  V30 3690 H 352.468 4.27551 -3.44226 0
M  V30 3691 H 352.729 4.07399 -1.71694 0
M  V30 3692 N 351.788 1.33704 0.83433 0
M  V30 3693 C 353.065 1.16011 1.57483 0
M  V30 3694 C 353.445 -0.27176 2.09343 0
M  V30 3695 O 352.793 -1.27146 1.89858 0
M  V30 3696 C 353.003 2.20507 2.70514 0
M  V30 3697 C 354.351 2.54898 3.39577 0
M  V30 3698 O 355.375 2.19209 2.80759 0
M  V30 3699 O 354.234 3.16158 4.45765 0
M  V30 3700 H 351.328 0.448992 0.694503 0
M  V30 3701 H 353.874 1.453 0.876691 0
M  V30 3702 H 352.646 3.16667 2.29865 0
M  V30 3703 H 352.269 1.92329 3.47987 0
M  V30 3704 N 353.266 -1.05314 1.17247 0
M  V30 3705 C 354.214 -2.15137 0.884238 0
M  V30 3706 C 355.208 -1.68729 -0.15063 0
M  V30 3707 O 356.414 -1.8 -0.00366673 0
M  V30 3708 H 352.789 -0.702471 0.2684 0
M  V30 3709 H 354.76 -2.36652 1.81764 0
M  V30 3710 C 353.509 -3.45243 0.412659 0
M  V30 3711 H 352.832 -3.81352 1.20043 0
M  V30 3712 H 354.272 -4.23263 0.249858 0
M  V30 3713 C 352.731 -3.25487 -0.86948 0
M  V30 3714 O 353.261 -3.51938 -1.93655 0
M  V30 3715 N 351.467 -2.78875 -0.817147 0
M  V30 3716 H 351.014 -2.57549 0.0514211 0
M  V30 3717 H 350.972 -2.66036 -1.67547 0
M  V30 3718 N 354.744 -0.972509 -1.24016 0
M  V30 3719 C 355.992 -0.635776 -1.91839 0
M  V30 3720 C 356.313 0.832312 -1.76345 0
M  V30 3721 O 355.583 1.5946 -1.13795 0
M  V30 3722 H 354.163 -0.232157 -0.710009 0
M  V30 3723 H 356.825 -1.23462 -1.50809 0
M  V30 3724 H 355.921 -0.880545 -2.99421 0
M  V30 3725 N 356.222 1.38976 -0.743202 0
M  V30 3726 C 357.462 2.02193 -0.29954 0
M  V30 3727 C 357.826 1.5771 1.09506 0
M  V30 3728 O 359.027 2.13184 1.63726 0
M  V30 3729 C 357.298 3.55077 -0.406822 0
M  V30 3730 S 358.857 4.38778 -0.0442109 0
M  V30 3731 H 355.675 0.701335 -0.116836 0
M  V30 3732 H 358.277 1.69651 -0.971529 0
M  V30 3733 H 356.981 3.84942 -1.42295 0
M  V30 3734 H 356.512 3.92383 0.282707 0
M  V30 3735 H 358.527 4.82222 1.16947 0
M  V30 3736 N 357.7 0.491464 1.49741 0
M  V30 3737 C 358.632 -0.328609 2.26832 0
M  V30 3738 C 359.645 -0.939113 1.32983 0
M  V30 3739 O 360.834 -0.824067 1.58339 0
M  V30 3740 C 357.934 -1.47675 3.05033 0
M  V30 3741 C 357.107 -0.975305 4.26388 0
M  V30 3742 C 356.166 -1.99991 4.86714 0
M  V30 3743 O 355.192 -1.57229 5.47054 0
M  V30 3744 N 356.394 -3.32962 4.75517 0
M  V30 3745 H 359.159 0.332377 2.97851 0
M  V30 3746 H 356.72 0.323441 1.58636 0
M  V30 3747 H 358.712 -2.15954 3.42266 0
M  V30 3748 H 357.282 -2.04206 2.36683 0
M  V30 3749 H 356.502 -0.117723 3.94024 0
M  V30 3750 H 357.79 -0.618531 5.05026 0
M  V30 3751 H 357.188 -3.70399 4.27576 0
M  V30 3752 H 355.745 -3.96982 5.16961 0
M  V30 3753 N 359.178 -1.55987 0.224894 0
M  V30 3754 C 360.11 -2.17722 -0.716224 0
M  V30 3755 C 361.123 -1.14723 -1.15509 0
M  V30 3756 O 362.312 -1.41688 -1.08567 0
M  V30 3757 C 359.412 -2.74873 -1.98238 0
M  V30 3758 C 358.585 -4.03074 -1.69853 0
M  V30 3759 C 357.644 -4.44757 -2.81208 0
M  V30 3760 O 356.67 -5.11587 -2.49534 0
M  V30 3761 N 357.872 -4.10716 -4.10235 0
M  V30 3762 H 360.637 -2.99109 -0.188123 0
M  V30 3763 H 358.198 -1.6184 0.0440123 0
M  V30 3764 H 360.19 -2.99727 -2.7193 0
M  V30 3765 H 358.76 -1.9777 -2.42086 0
M  V30 3766 H 357.98 -3.86041 -0.797875 0
M  V30 3767 H 359.268 -4.86701 -1.48324 0
M  V30 3768 H 358.666 -3.57019 -4.38809 0
M  V30 3769 H 357.223 -4.40455 -4.80461 0
M  V30 3770 N 360.656 0.0484629 -1.57525 0
M  V30 3771 C 361.902 0.744226 -1.88651 0
M  V30 3772 C 362.235 1.76029 -0.820212 0
M  V30 3773 O 361.51 1.93782 0.166985 0
M  V30 3774 C 361.793 1.43128 -3.30434 0
M  V30 3775 C 361.646 0.43005 -4.47739 0
M  V30 3776 C 362.965 2.37031 -3.70816 0
M  V30 3777 H 360.084 0.269089 -0.68612 0
M  V30 3778 H 362.726 0.00713532 -1.89999 0
M  V30 3779 H 360.876 2.05956 -3.29415 0
M  V30 3780 H 362.548 -0.194816 -4.60888 0
M  V30 3781 H 360.791 -0.252522 -4.33064 0
M  V30 3782 H 361.462 0.948874 -5.43783 0
M  V30 3783 H 363.938 1.84263 -3.73077 0
M  V30 3784 H 362.814 2.82094 -4.70865 0
M  V30 3785 H 363.075 3.22864 -3.02012 0
M  V30 3786 N 362.134 1.5431 0.320358 0
M  V30 3787 C 363.064 1.86912 1.3995 0
M  V30 3788 C 364.045 0.726211 1.53819 0
M  V30 3789 O 365.23 0.980233 1.67646 0
M  V30 3790 C 362.36 2.09932 2.7667 0
M  V30 3791 C 361.314 3.25776 2.77586 0
M  V30 3792 C 360.64 3.34173 4.17412 0
M  V30 3793 C 361.94 4.6335 2.41048 0
M  V30 3794 H 363.634 2.77292 1.12914 0
M  V30 3795 H 361.18 1.33421 0.541738 0
M  V30 3796 H 363.133 2.31324 3.52232 0
M  V30 3797 H 361.857 1.16304 3.0519 0
M  V30 3798 H 360.516 3.04276 2.04479 0
M  V30 3799 H 360.164 2.38098 4.43078 0
M  V30 3800 H 359.864 4.12033 4.18931 0
M  V30 3801 H 361.388 3.57803 4.94782 0
M  V30 3802 H 362.802 4.84602 3.06324 0
M  V30 3803 H 361.199 5.43782 2.53813 0
M  V30 3804 H 362.269 4.65381 1.36193 0
M  V30 3805 N 363.613 -0.582584 1.46437 0
M  V30 3806 C 364.859 -1.34064 1.52965 0
M  V30 3807 C 365.214 -1.91566 0.178968 0
M  V30 3808 O 364.507 -1.73526 -0.812365 0
M  V30 3809 C 364.701 -2.48964 2.56421 0
M  V30 3810 C 364.53 -2.02717 4.01417 0
M  V30 3811 C 363.3 -1.87728 4.69134 0
M  V30 3812 C 365.498 -1.58675 4.8921 0
M  V30 3813 N 363.48 -1.35554 5.98747 0
M  V30 3814 C 364.851 -1.18093 6.08649 0
M  V30 3815 C 366.906 -1.46494 4.75861 0
M  V30 3816 C 365.609 -0.665427 7.16215 0
M  V30 3817 C 367.635 -0.96347 5.83499 0
M  V30 3818 C 366.997 -0.567432 7.02111 0
M  V30 3819 H 363.096 -0.483551 0.614575 0
M  V30 3820 H 365.68 -0.663309 1.83053 0
M  V30 3821 H 363.851 -3.1426 2.28244 0
M  V30 3822 H 365.583 -3.15913 2.52944 0
M  V30 3823 H 362.338 -2.09678 4.24655 0
M  V30 3824 H 362.762 -1.11628 6.67734 0
M  V30 3825 H 367.404 -1.75731 3.8455 0
M  V30 3826 H 365.122 -0.360639 8.07295 0
M  V30 3827 H 368.708 -0.873129 5.75211 0
M  V30 3828 H 367.588 -0.185389 7.83981 0
M  V30 3829 N 365.091 -1.34144 -0.827227 0
M  V30 3830 C 366.021 -1.28005 -1.95287 0
M  V30 3831 C 367.002 -0.158321 -1.69362 0
M  V30 3832 O 368.187 -0.349987 -1.9102 0
M  V30 3833 C 365.317 -1.03036 -3.31664 0
M  V30 3834 C 364.271 -2.11628 -3.72019 0
M  V30 3835 C 363.597 -1.71854 -5.0633 0
M  V30 3836 C 364.897 -3.53417 -3.8457 0
M  V30 3837 H 366.591 -2.22187 -2.00682 0
M  V30 3838 H 364.137 -1.0696 -0.964135 0
M  V30 3839 H 366.09 -0.973863 -4.09993 0
M  V30 3840 H 364.814 -0.0529391 -3.26557 0
M  V30 3841 H 363.473 -2.16339 -2.95961 0
M  V30 3842 H 363.121 -0.727841 -4.97706 0
M  V30 3843 H 362.821 -2.44531 -5.34302 0
M  V30 3844 H 364.345 -1.67692 -5.87122 0
M  V30 3845 H 365.759 -3.51142 -4.5318 0
M  V30 3846 H 364.156 -4.24679 -4.2399 0
M  V30 3847 H 365.226 -3.91072 -2.86689 0
M  V30 3848 N 366.569 1.04691 -1.17803 0
M  V30 3849 C 367.799 1.81183 -0.992788 0
M  V30 3850 C 368.207 1.8347 0.462098 0
M  V30 3851 O 367.55 1.2643 1.33271 0
M  V30 3852 C 367.612 3.28363 -1.46349 0
M  V30 3853 C 367.276 3.49749 -2.94151 0
M  V30 3854 C 368.273 3.41456 -3.92051 0
M  V30 3855 C 365.958 3.76548 -3.32441 0
M  V30 3856 C 367.952 3.59656 -5.26238 0
M  V30 3857 C 365.639 3.94396 -4.66792 0
M  V30 3858 C 366.637 3.8595 -5.635 0
M  V30 3859 O 366.325 4.03294 -6.9542 0
M  V30 3860 H 366.057 0.577622 -0.351182 0
M  V30 3861 H 368.611 1.32876 -1.5663 0
M  V30 3862 H 366.841 3.77609 -0.833574 0
M  V30 3863 H 368.53 3.86395 -1.24313 0
M  V30 3864 H 369.296 3.20723 -3.63815 0
M  V30 3865 H 365.175 3.82224 -2.57732 0
M  V30 3866 H 368.719 3.52979 -6.01707 0
M  V30 3867 H 364.616 4.14622 -4.94731 0
M  V30 3868 H 365.384 4.2049 -7.02232 0
M  V30 3869 N 368.047 0.979072 1.23499 0
M  V30 3870 C 369.295 0.645941 1.91499 0
M  V30 3871 C 369.616 -0.822948 1.76784 0
M  V30 3872 O 368.886 -1.58854 1.14639 0
M  V30 3873 H 367.466 0.235919 0.708767 0
M  V30 3874 H 370.128 1.2426 1.50152 0
M  V30 3875 H 369.224 0.896411 2.9895 0
M  V30 3876 N 369.525 -1.3858 0.750561 0
M  V30 3877 C 370.435 -2.34278 0.122825 0
M  V30 3878 C 371.451 -1.59116 -0.704131 0
M  V30 3879 O 372.627 -1.91326 -0.628987 0
M  V30 3880 C 369.692 -3.38221 -0.762086 0
M  V30 3881 C 368.753 -4.29227 0.078896 0
M  V30 3882 C 367.986 -5.28205 -0.763874 0
M  V30 3883 O 368.209 -5.34112 -2.00201 0
M  V30 3884 O 367.143 -6.01618 -0.18428 0
M  V30 3885 H 370.969 -2.89649 0.913088 0
M  V30 3886 H 368.554 -1.40374 0.511417 0
M  V30 3887 H 370.436 -4.01872 -1.26793 0
M  V30 3888 H 369.111 -2.85211 -1.5309 0
M  V30 3889 H 368.018 -3.68747 0.630621 0
M  V30 3890 H 369.351 -4.85484 0.810289 0
M  V30 3891 N 371.003 -0.499398 -1.49478 0
M  V30 3892 C 372.28 0.108629 -1.95298 0
M  V30 3893 C 372.66 1.54282 -1.44084 0
M  V30 3894 O 372.008 2.18944 -0.653908 0
M  V30 3895 C 372.218 0.0229111 -3.48992 0
M  V30 3896 C 373.566 0.197643 -4.2414 0
M  V30 3897 O 374.59 0.0981735 -3.56065 0
M  V30 3898 O 373.449 0.401669 -5.45022 0
M  V30 3899 H 370.543 0.096181 -0.821388 0
M  V30 3900 H 373.089 -0.561822 -1.6013 0
M  V30 3901 H 371.861 -0.977321 -3.78899 0
M  V30 3902 H 371.484 0.733579 -3.90774 0
M  V30 3903 N 372.481 1.55866 -0.233164 0
M  V30 3904 C 373.431 2.17442 0.685774 0
M  V30 3905 C 374.415 1.12617 1.14918 0
M  V30 3906 O 375.607 1.3857 1.10124 0
M  V30 3907 C 372.736 2.86685 1.88856 0
M  V30 3908 C 371.822 3.98749 1.4443 0
M  V30 3909 N 372.213 5.00744 0.713364 0
M  V30 3910 C 370.511 4.11052 1.73068 0
M  V30 3911 C 371.212 5.79673 0.485205 0
M  V30 3912 N 370.188 5.33454 1.04536 0
M  V30 3913 H 373.99 2.93659 0.119022 0
M  V30 3914 H 371.504 1.62362 -0.0348995 0
M  V30 3915 H 373.501 3.29218 2.55776 0
M  V30 3916 H 372.161 2.11967 2.45967 0
M  V30 3917 H 373.172 5.16613 0.364861 0
M  V30 3918 H 369.849 3.47495 2.31416 0
M  V30 3919 H 371.239 6.71829 -0.097365 0
M  V30 3920 N 373.959 -0.0401083 1.57549 0
M  V30 3921 C 374.891 -1.07149 2.02612 0
M  V30 3922 C 375.904 -1.33126 0.937085 0
M  V30 3923 O 377.093 -1.30808 1.21456 0
M  V30 3924 C 374.193 -2.41561 2.37701 0
M  V30 3925 C 373.366 -2.35096 3.68848 0
M  V30 3926 C 372.425 -3.51867 3.91249 0
M  V30 3927 O 371.451 -3.3186 4.62447 0
M  V30 3928 N 372.653 -4.73351 3.36035 0
M  V30 3929 H 375.418 -0.687485 2.91708 0
M  V30 3930 H 372.979 -0.228248 1.60283 0
M  V30 3931 H 374.971 -3.18379 2.49833 0
M  V30 3932 H 373.541 -2.71846 1.54332 0
M  V30 3933 H 372.761 -1.4345 3.67173 0
M  V30 3934 H 374.049 -2.27908 4.54901 0
M  V30 3935 H 373.447 -4.92507 2.78304 0
M  V30 3936 H 372.004 -5.47572 3.53565 0
M  V30 3937 N 375.437 -1.54477 -0.31217 0
M  V30 3938 C 376.686 -1.72438 -1.04633 0
M  V30 3939 C 376.999 -0.511163 -1.88803 0
M  V30 3940 O 378.205 -0.572341 -2.65399 0
M  V30 3941 C 376.661 -3.05043 -1.9099 0
M  V30 3942 C 376.269 -4.33806 -1.11877 0
M  V30 3943 C 378.013 -3.32364 -2.64073 0
M  V30 3944 C 375.92 -5.57467 -1.97445 0
M  V30 3945 H 374.85 -0.642647 -0.394361 0
M  V30 3946 H 377.501 -1.80966 -0.303929 0
M  V30 3947 H 375.883 -2.90451 -2.69173 0
M  V30 3948 H 377.057 -4.59199 -0.383843 0
M  V30 3949 H 375.372 -4.13336 -0.504252 0
M  V30 3950 H 377.969 -4.21951 -3.28423 0
M  V30 3951 H 378.312 -2.50745 -3.32314 0
M  V30 3952 H 378.845 -3.47875 -1.92944 0
M  V30 3953 H 375.584 -6.41722 -1.33692 0
M  V30 3954 H 375.104 -5.36277 -2.6864 0
M  V30 3955 H 376.783 -5.94303 -2.5576 0
M  V30 3956 N 376.915 0.57481 -1.46744 0
M  V30 3957 C 378.143 1.35856 -1.56047 0
M  V30 3958 C 378.558 1.87691 -0.204365 0
M  V30 3959 O 377.915 1.64049 0.79963 0
M  V30 3960 C 377.966 2.54066 -2.57163 0
M  V30 3961 O 377.687 2.04377 -3.87507 0
M  V30 3962 C 379.188 3.46514 -2.76483 0
M  V30 3963 H 376.408 0.414754 -0.527466 0
M  V30 3964 H 378.952 0.698035 -1.92218 0
M  V30 3965 H 377.107 3.16092 -2.23974 0
M  V30 3966 H 377.521 2.81419 -4.4261 0
M  V30 3967 H 378.995 4.25919 -3.51137 0
M  V30 3968 H 379.472 3.98951 -1.83671 0
M  V30 3969 H 380.078 2.90318 -3.10799 0
M  V30 3970 N 378.394 1.34581 0.820102 0
M  V30 3971 C 379.304 1.28471 1.96297 0
M  V30 3972 C 380.32 0.191902 1.72939 0
M  V30 3973 O 381.496 0.418879 1.96996 0
M  V30 3974 C 378.561 1.04281 3.30645 0
M  V30 3975 C 377.622 2.22745 3.66992 0
M  V30 3976 C 376.855 1.997 4.9493 0
M  V30 3977 O 377.078 0.956656 5.6232 0
M  V30 3978 O 376.012 2.86723 5.2922 0
M  V30 3979 H 379.838 2.24624 2.04396 0
M  V30 3980 H 377.423 1.14816 0.955913 0
M  V30 3981 H 379.305 0.925841 4.11104 0
M  V30 3982 H 377.98 0.111697 3.23507 0
M  V30 3983 H 376.887 2.40003 2.86966 0
M  V30 3984 H 378.22 3.14257 3.78819 0
M  V30 3985 N 379.872 -1.04064 1.18357 0
M  V30 3986 C 381.118 -1.77528 0.980397 0
M  V30 3987 C 381.451 -1.87948 -0.48879 0
M  V30 3988 O 380.726 -1.3876 -1.36293 0
M  V30 3989 C 381.009 -3.20797 1.63588 0
M  V30 3990 C 380.862 -3.1832 3.17793 0
M  V30 3991 C 382.181 -4.18911 1.34914 0
M  V30 3992 H 379.3 -0.644443 0.357578 0
M  V30 3993 H 381.942 -1.2156 1.46024 0
M  V30 3994 H 380.092 -3.68586 1.22788 0
M  V30 3995 H 381.764 -2.78521 3.67728 0
M  V30 3996 H 380.007 -2.56351 3.49952 0
M  V30 3997 H 380.678 -4.19489 3.58794 0
M  V30 3998 H 383.154 -3.7967 1.70265 0
M  V30 3999 H 382.03 -5.17374 1.83346 0
M  V30 4000 H 382.291 -4.41262 0.272027 0
M  V30 4001 N 381.35 -0.985608 -1.22978 0
M  V30 4002 C 382.598 -0.656087 -1.91154 0
M  V30 4003 C 382.919 0.813561 -1.77218 0
M  V30 4004 O 382.189 1.58244 -1.1548 0
M  V30 4005 H 380.769 -0.239674 -0.707506 0
M  V30 4006 H 383.431 -1.25054 -1.49491 0
M  V30 4007 H 382.527 -0.912253 -2.9847 0
M  V30 4008 N 382.828 1.3818 -0.7579 0
M  V30 4009 C 384.056 2.04301 -0.326937 0
M  V30 4010 C 384.471 1.57163 1.0462 0
M  V30 4011 O 383.828 0.746626 1.66529 0
M  V30 4012 C 383.879 3.59846 -0.345363 0
M  V30 4013 O 383.6 4.05256 -1.66432 0
M  V30 4014 C 385.101 4.4319 0.098927 0
M  V30 4015 H 382.321 0.656443 -0.139012 0
M  V30 4016 H 384.865 1.76786 -1.02796 0
M  V30 4017 H 383.02 3.86182 0.306955 0
M  V30 4018 H 383.434 4.99709 -1.59345 0
M  V30 4019 H 384.908 5.51989 0.0348745 0
M  V30 4020 H 385.385 4.23947 1.14741 0
M  V30 4021 H 385.991 4.22051 -0.52468 0
M  V30 4022 N 384.306 0.507319 1.49211 0
M  V30 4023 C 385.239 -0.314509 2.26022 0
M  V30 4024 C 386.217 -0.964849 1.30879 0
M  V30 4025 O 387.401 -0.993707 1.6018 0
M  V30 4026 C 384.528 -1.44346 3.06402 0
M  V30 4027 C 383.574 -0.90685 4.16748 0
M  V30 4028 S 384.407 0.207392 5.35098 0
M  V30 4029 C 385.563 -0.924573 6.19033 0
M  V30 4030 H 385.796 0.337416 2.95379 0
M  V30 4031 H 383.329 0.292718 1.516 0
M  V30 4032 H 385.287 -2.09029 3.53295 0
M  V30 4033 H 383.948 -2.06702 2.36502 0
M  V30 4034 H 383.141 -1.75309 4.72528 0
M  V30 4035 H 382.743 -0.33712 3.72478 0
M  V30 4036 H 385.035 -1.82839 6.52362 0
M  V30 4037 H 385.978 -0.405248 7.06939 0
M  V30 4038 H 386.386 -1.19476 5.51712 0
M  V30 4039 N 385.784 -1.5574 0.241426 0
M  V30 4040 C 386.732 -2.22538 -0.676718 0
M  V30 4041 C 387.726 -1.21117 -1.18436 0
M  V30 4042 O 388.932 -1.39144 -1.14188 0
M  V30 4043 H 385.307 -0.713776 -0.236701 0
M  V30 4044 H 387.278 -2.98264 -0.0901187 0
M  V30 4045 C 386.027 -2.93439 -1.86518 0
M  V30 4046 H 385.35 -3.7125 -1.4837 0
M  V30 4047 H 386.79 -3.43549 -2.48495 0
M  V30 4048 C 385.249 -1.97008 -2.73294 0
M  V30 4049 O 385.779 -1.49965 -3.72657 0
M  V30 4050 N 383.985 -1.64227 -2.39745 0
M  V30 4051 H 383.532 -2.02677 -1.58996 0
M  V30 4052 H 383.49 -0.999708 -2.98083 0
M  V30 4053 N 387.262 0.0317525 -1.57568 0
M  V30 4054 C 388.192 1.03274 -2.0942 0
M  V30 4055 C 389.173 1.3788 -0.996143 0
M  V30 4056 O 390.358 1.46811 -1.27122 0
M  V30 4057 C 387.488 2.33448 -2.57137 0
M  V30 4058 C 386.442 2.13091 -3.71182 0
M  V30 4059 C 385.768 3.49001 -4.05095 0
M  V30 4060 C 387.068 1.51928 -4.99715 0
M  V30 4061 H 388.762 0.60112 -2.93303 0
M  V30 4062 H 386.308 0.287705 -1.41097 0
M  V30 4063 H 388.261 3.03802 -2.92032 0
M  V30 4064 H 386.985 2.78665 -1.70333 0
M  V30 4065 H 385.644 1.45171 -3.36632 0
M  V30 4066 H 385.292 3.91862 -3.15362 0
M  V30 4067 H 384.992 3.36207 -4.81911 0
M  V30 4068 H 386.516 4.20721 -4.42522 0
M  V30 4069 H 387.93 2.12196 -5.32584 0
M  V30 4070 H 386.327 1.49716 -5.81124 0
M  V30 4071 H 387.397 0.484811 -4.8247 0
M  V30 4072 N 388.74 1.54641 0.303973 0
M  V30 4073 C 389.987 1.7378 1.03955 0
M  V30 4074 C 390.315 0.521986 1.87365 0
M  V30 4075 O 389.57 -0.496099 1.89308 0
M  V30 4076 C 389.869 2.97753 1.97681 0
M  V30 4077 C 389.535 4.31671 1.30271 0
M  V30 4078 C 388.197 4.68075 1.11619 0
M  V30 4079 C 390.549 5.147 0.82055 0
M  V30 4080 C 387.877 5.8509 0.434304 0
M  V30 4081 C 390.229 6.32416 0.152395 0
M  V30 4082 C 388.893 6.67484 -0.0461067 0
M  V30 4083 H 388.163 0.635908 0.380398 0
M  V30 4084 H 390.81 1.88896 0.314718 0
M  V30 4085 H 389.115 2.77406 2.76682 0
M  V30 4086 H 390.812 3.09756 2.54661 0
M  V30 4087 H 387.402 4.03041 1.45795 0
M  V30 4088 H 391.586 4.87077 0.952374 0
M  V30 4089 H 386.842 6.10806 0.269495 0
M  V30 4090 H 391.016 6.96023 -0.229126 0
M  V30 4091 H 388.643 7.58011 -0.576494 0
M  V30 4092 N 390.218 -0.567019 1.47046 0
M  V30 4093 C 391.148 -1.68482 1.61667 0
M  V30 4094 C 392.129 -1.6358 0.466418 0
M  V30 4095 O 393.314 -1.81354 0.694574 0
M  V30 4096 C 390.444 -3.07124 1.62148 0
M  V30 4097 C 389.398 -3.26867 2.76301 0
M  V30 4098 C 388.724 -4.66196 2.61849 0
M  V30 4099 C 390.024 -3.13186 4.17986 0
M  V30 4100 H 391.718 -1.56502 2.5524 0
M  V30 4101 H 389.264 -0.751486 1.22836 0
M  V30 4102 H 391.217 -3.8516 1.70968 0
M  V30 4103 H 389.941 -3.2004 0.651287 0
M  V30 4104 H 388.6 -2.51237 2.66975 0
M  V30 4105 H 388.248 -4.75898 1.62879 0
M  V30 4106 H 387.948 -4.80356 3.38425 0
M  V30 4107 H 389.472 -5.46379 2.72584 0
M  V30 4108 H 390.886 -3.81049 4.2834 0
M  V30 4109 H 389.283 -3.3886 4.95272 0
M  V30 4110 H 390.353 -2.10057 4.3704 0
M  V30 4111 N 391.696 -1.35014 -0.812953 0
M  V30 4112 C 392.926 -1.30841 -1.59888 0
M  V30 4113 C 393.334 0.117576 -1.88834 0
M  V30 4114 O 392.677 1.07807 -1.48739 0
M  V30 4115 C 392.739 -2.0412 -2.95931 0
M  V30 4116 C 392.403 -3.53336 -2.89832 0
M  V30 4117 C 393.4 -4.48052 -2.63714 0
M  V30 4118 C 391.085 -3.95894 -3.0915 0
M  V30 4119 C 393.079 -5.833 -2.56982 0
M  V30 4120 C 390.766 -5.31239 -3.0204 0
M  V30 4121 C 391.764 -6.24754 -2.75991 0
M  V30 4122 O 391.452 -7.57617 -2.68833 0
M  V30 4123 H 391.184 -0.451215 -0.50337 0
M  V30 4124 H 393.738 -1.78354 -1.01877 0
M  V30 4125 H 391.968 -1.51235 -3.559 0
M  V30 4126 H 393.657 -1.93107 -3.57022 0
M  V30 4127 H 394.423 -4.16492 -2.48515 0
M  V30 4128 H 390.302 -3.23495 -3.28438 0
M  V30 4129 H 393.846 -6.56263 -2.36569 0
M  V30 4130 H 389.743 -5.62415 -3.16796 0
M  V30 4131 H 390.511 -7.67469 -2.84487 0
M  V30 4132 N 393.175 1.03435 -1.18907 0
M  V30 4133 C 394.421 1.7713 -0.99982 0
M  V30 4134 C 394.776 1.86695 0.465049 0
M  V30 4135 O 394.069 1.36866 1.34083 0
M  V30 4136 C 394.263 3.19792 -1.59586 0
M  V30 4137 C 394.092 3.24134 -3.11717 0
M  V30 4138 C 392.862 3.32398 -3.80578 0
M  V30 4139 C 395.06 3.11625 -4.09138 0
M  V30 4140 N 393.042 3.26055 -5.20155 0
M  V30 4141 C 394.413 3.12855 -5.35277 0
M  V30 4142 C 396.468 2.95713 -4.00572 0
M  V30 4143 C 395.171 2.99805 -6.53842 0
M  V30 4144 C 397.197 2.84011 -5.1874 0
M  V30 4145 C 396.559 2.8589 -6.43775 0
M  V30 4146 H 392.658 0.659683 -0.419931 0
M  V30 4147 H 395.242 1.2317 -1.50789 0
M  V30 4148 H 393.413 3.72085 -1.11389 0
M  V30 4149 H 395.145 3.81819 -1.3415 0
M  V30 4150 H 391.9 3.38392 -3.31342 0
M  V30 4151 H 392.324 3.26307 -5.93172 0
M  V30 4152 H 396.966 2.93086 -3.0473 0
M  V30 4153 H 394.684 3.01184 -7.49876 0
M  V30 4154 H 398.27 2.72744 -5.13909 0
M  V30 4155 H 397.15 2.76931 -7.33675 0
M  V30 4156 N 394.653 0.992116 1.22453 0
M  V30 4157 C 395.902 0.662992 1.90492 0
M  V30 4158 C 396.215 -0.808407 1.78113 0
M  V30 4159 O 397.421 -1.24908 2.41061 0
M  V30 4160 C 395.877 1.1353 3.41524 0
M  V30 4161 C 395.485 2.63187 3.62542 0
M  V30 4162 C 397.229 0.880465 4.15269 0
M  V30 4163 C 395.136 3.04024 5.0727 0
M  V30 4164 H 394.066 0.244278 0.713333 0
M  V30 4165 H 396.717 1.20157 1.38688 0
M  V30 4166 H 395.099 0.52485 3.92506 0
M  V30 4167 H 396.273 3.2957 3.22056 0
M  V30 4168 H 394.588 2.86543 3.02129 0
M  V30 4169 H 397.185 1.16128 5.21937 0
M  V30 4170 H 397.528 -0.183408 4.15896 0
M  V30 4171 H 398.061 1.45307 3.70312 0
M  V30 4172 H 394.8 4.09584 5.11782 0
M  V30 4173 H 394.32 2.42343 5.48662 0
M  V30 4174 H 395.999 2.95282 5.75689 0
M  V30 4175 N 396.131 -1.37776 0.765217 0
M  V30 4176 C 397.079 -2.32209 0.134798 0
M  V30 4177 C 398.073 -1.54607 -0.692315 0
M  V30 4178 O 399.279 -1.70052 -0.590109 0
M  V30 4179 H 395.654 -0.751591 0.0248005 0
M  V30 4180 H 397.625 -2.8297 0.947119 0
M  V30 4181 C 396.374 -3.39841 -0.735063 0
M  V30 4182 H 395.697 -3.99654 -0.107991 0
M  V30 4183 H 397.137 -4.08296 -1.14326 0
M  V30 4184 C 395.596 -2.79378 -1.88281 0
M  V30 4185 O 396.126 -2.69608 -2.97783 0
M  V30 4186 N 394.332 -2.37016 -1.68142 0
M  V30 4187 H 393.879 -2.45162 -0.790772 0
M  V30 4188 H 393.837 -1.96905 -2.45104 0
M  V30 4189 N 397.609 -0.515225 -1.4894 0
M  V30 4190 C 398.519 0.259774 -2.33157 0
M  V30 4191 C 399.535 0.953501 -1.45548 0
M  V30 4192 O 400.711 0.931735 -1.78552 0
M  V30 4193 C 397.776 1.30193 -3.21326 0
M  V30 4194 C 396.837 0.620129 -4.24797 0
M  V30 4195 C 396.07 1.61263 -5.08753 0
M  V30 4196 O 396.293 2.84389 -4.94448 0
M  V30 4197 O 395.227 1.16013 -5.90614 0
M  V30 4198 H 399.053 -0.429932 -3.00641 0
M  V30 4199 H 396.638 -0.276346 -1.46822 0
M  V30 4200 H 398.52 1.90455 -3.75905 0
M  V30 4201 H 397.195 1.97431 -2.56521 0
M  V30 4202 H 396.102 -0.0226019 -3.74093 0
M  V30 4203 H 397.435 -0.0100493 -4.92199 0
M  V30 4204 N 399.087 1.5561 -0.249682 0
M  V30 4205 C 400.364 1.90932 0.424761 0
M  V30 4206 C 400.744 1.17078 1.75658 0
M  V30 4207 O 400.092 0.289176 2.26663 0
M  V30 4208 C 400.302 3.43975 0.590109 0
M  V30 4209 C 401.65 4.15281 0.884714 0
M  V30 4210 O 402.674 3.49729 0.67587 0
M  V30 4211 O 401.533 5.31236 1.28259 0
M  V30 4212 H 398.627 0.794815 0.228468 0
M  V30 4213 H 401.173 1.67135 -0.293954 0
M  V30 4214 H 399.945 3.89748 -0.34818 0
M  V30 4215 H 399.568 3.73644 1.35926 0
M  V30 4216 N 400.565 -0.0233959 1.57583 0
M  V30 4217 C 401.813 -0.711654 1.89156 0
M  V30 4218 C 402.134 -1.75591 0.848096 0
M  V30 4219 O 401.404 -1.95547 -0.117566 0
M  V30 4220 H 399.984 -0.265835 0.698098 0
M  V30 4221 H 402.646 0.0119948 1.94896 0
M  V30 4222 H 401.742 -1.19766 2.88206 0
M  V30 4223 N 402.043 -1.548 -0.295768 0
M  V30 4224 C 402.953 -1.89177 -1.38742 0
M  V30 4225 C 403.969 -0.786481 -1.55211 0
M  V30 4226 O 405.145 -1.08344 -1.69775 0
M  V30 4227 C 402.21 -2.13663 -2.73036 0
M  V30 4228 C 401.271 -3.37349 -2.65508 0
M  V30 4229 C 400.504 -3.60658 -3.93398 0
M  V30 4230 O 400.727 -2.86882 -4.93006 0
M  V30 4231 O 399.661 -4.54179 -3.94975 0
M  V30 4232 H 403.487 -2.82059 -1.12589 0
M  V30 4233 H 401.072 -1.41056 -0.492295 0
M  V30 4234 H 402.954 -2.3094 -3.52484 0
M  V30 4235 H 401.629 -1.23967 -2.99022 0
M  V30 4236 H 400.536 -3.25431 -1.84514 0
M  V30 4237 H 401.869 -4.27192 -2.44474 0
M  V30 4238 N 403.521 0.559213 -1.47345 0
M  V30 4239 C 404.431 1.69388 -1.62311 0
M  V30 4240 C 405.447 1.6648 -0.505993 0
M  V30 4241 O 406.623 1.85964 -0.773262 0
M  V30 4242 C 403.688 3.05894 -1.63185 0
M  V30 4243 C 402.749 3.19885 -2.86307 0
M  V30 4244 C 401.982 4.49879 -2.87131 0
M  V30 4245 O 402.205 5.35217 -1.97229 0
M  V30 4246 O 401.139 4.67618 -3.78968 0
M  V30 4247 H 404.965 1.59706 -2.58317 0
M  V30 4248 H 402.55 0.728989 -1.30407 0
M  V30 4249 H 404.432 3.87133 -1.66451 0
M  V30 4250 H 403.107 3.15964 -0.70345 0
M  V30 4251 H 402.014 2.38052 -2.88587 0
M  V30 4252 H 403.347 3.14718 -3.78435 0
M  V30 4253 N 404.999 1.35443 0.805782 0
M  V30 4254 C 405.909 1.30546 1.94923 0
M  V30 4255 C 406.925 0.210233 1.72725 0
M  V30 4256 O 408.101 0.43975 1.9654 0
M  V30 4257 C 405.166 1.07782 3.29521 0
M  V30 4258 C 404.227 2.26625 3.64609 0
M  V30 4259 C 403.46 2.04938 4.92784 0
M  V30 4260 O 403.683 1.01624 5.61274 0
M  V30 4261 O 402.617 2.9232 5.26149 0
M  V30 4262 H 406.443 2.26779 2.02002 0
M  V30 4263 H 404.028 1.15823 0.943682 0
M  V30 4264 H 405.91 0.969392 4.10098 0
M  V30 4265 H 404.585 0.146003 3.23371 0
M  V30 4266 H 403.492 2.43033 2.84404 0
M  V30 4267 H 404.825 3.18257 3.75464 0
M  V30 4268 N 406.477 -1.02803 1.19454 0
M  V30 4269 C 407.407 -2.12999 0.956758 0
M  V30 4270 C 408.388 -1.69743 -0.110188 0
M  V30 4271 O 409.573 -1.94148 0.0450038 0
M  V30 4272 C 406.703 -3.43746 0.495553 0
M  V30 4273 C 405.657 -4.00688 1.50443 0
M  V30 4274 C 404.983 -5.27067 0.900275 0
M  V30 4275 C 406.283 -4.35397 2.8849 0
M  V30 4276 H 407.977 -2.33148 1.87836 0
M  V30 4277 H 405.523 -1.12045 0.904539 0
M  V30 4278 H 407.476 -4.2021 0.316493 0
M  V30 4279 H 406.2 -3.23321 -0.461646 0
M  V30 4280 H 404.859 -3.2632 1.67065 0
M  V30 4281 H 404.507 -5.02959 -0.064503 0
M  V30 4282 H 404.207 -5.66127 1.57397 0
M  V30 4283 H 405.731 -6.06196 0.73203 0
M  V30 4284 H 407.145 -5.02795 2.75446 0
M  V30 4285 H 405.542 -4.85541 3.52661 0
M  V30 4286 H 406.612 -3.44662 3.41081 0
M  V30 4287 N 407.956 -0.998596 -1.21925 0
M  V30 4288 C 408.919 -0.558679 -2.22287 0
M  V30 4289 C 409.919 0.361525 -1.56683 0
M  V30 4290 O 411.109 0.152695 -1.73529 0
M  V30 4291 C 408.241 0.18661 -3.40389 0
M  V30 4292 H 409.434 -1.4463 -2.62721 0
M  V30 4293 H 406.987 -0.786413 -1.35075 0
M  V30 4294 H 407.722 1.08996 -3.05435 0
M  V30 4295 H 407.507 -0.474188 -3.89222 0
M  V30 4296 H 408.997 0.482367 -4.14805 0
M  V30 4297 N 409.434 1.37368 -0.772513 0
M  V30 4298 C 410.662 2.03942 -0.348588 0
M  V30 4299 C 411.077 1.58264 1.02947 0
M  V30 4300 O 410.434 0.764246 1.65727 0
M  V30 4301 C 410.485 3.5946 -0.38351 0
M  V30 4302 O 410.206 4.03468 -1.70721 0
M  V30 4303 C 411.707 4.4327 0.0519152 0
M  V30 4304 H 408.927 0.654931 -0.145966 0
M  V30 4305 H 411.471 1.75686 -1.04665 0
M  V30 4306 H 409.626 3.86486 0.265978 0
M  V30 4307 H 410.04 4.97991 -1.64636 0
M  V30 4308 H 411.514 5.51995 -0.0236733 0
M  V30 4309 H 411.991 4.2514 1.10238 0
M  V30 4310 H 412.597 4.21471 -0.569415 0
M  V30 4311 N 410.912 0.523116 1.48665 0
M  V30 4312 C 412.323 0.0808997 1.86525 0
M  V30 4313 C 412.674 -1.33975 1.43336 0
M  V30 4314 O 411.799 -2.00221 0.821009 0
M  V30 4315 C 412.394 0.140037 3.3851 0
M  V30 4316 C 410.953 -0.246948 3.75589 0
M  V30 4317 C 410.1 0.502845 2.72703 0
M  V30 4318 H 413.051 0.734736 1.40667 0
M  V30 4319 H 413.072 -0.649945 3.74908 0
M  V30 4320 H 412.584 1.17412 3.69914 0
M  V30 4321 H 410.685 -1.28343 3.49798 0
M  V30 4322 H 410.798 0.0878859 4.79019 0
M  V30 4323 H 409.162 -0.0500581 2.54651 0
M  V30 4324 H 409.945 1.53743 3.0695 0
M  V30 4325 N 412.39 -1.55475 0.257931 0
M  V30 4326 C 413.801 -1.8511 -0.243135 0
M  V30 4327 C 414.152 -1.17986 -1.5676 0
M  V30 4328 O 413.277 -0.462102 -2.11409 0
M  V30 4329 C 413.872 -3.35826 -0.447929 0
M  V30 4330 C 412.431 -3.65647 -0.893245 0
M  V30 4331 C 411.578 -2.7729 0.0232965 0
M  V30 4332 H 414.529 -1.51261 0.480199 0
M  V30 4333 H 414.55 -3.58002 -1.28898 0
M  V30 4334 H 414.062 -3.84652 0.516196 0
M  V30 4335 H 412.163 -3.22308 -1.86945 0
M  V30 4336 H 412.276 -4.73312 -0.742469 0
M  V30 4337 H 410.64 -2.49942 -0.490021 0
M  V30 4338 H 411.423 -3.28926 0.982994 0
M  V30 4339 N 413.868 0.0150385 -1.57593 0
M  V30 4340 C 414.798 1.01047 -2.10503 0
M  V30 4341 C 415.779 1.36816 -1.01071 0
M  V30 4342 O 416.964 1.45455 -1.28672 0
M  V30 4343 C 414.094 2.30708 -2.59598 0
M  V30 4344 C 413.048 2.09142 -3.73421 0
M  V30 4345 C 412.374 3.44685 -4.08774 0
M  V30 4346 C 413.674 1.46619 -5.01298 0
M  V30 4347 H 415.368 0.569978 -2.93925 0
M  V30 4348 H 412.914 0.272724 -1.41394 0
M  V30 4349 H 414.867 3.00687 -2.95238 0
M  V30 4350 H 413.591 2.76843 -1.73279 0
M  V30 4351 H 412.25 1.41592 -3.38153 0
M  V30 4352 H 411.898 3.88495 -3.195 0
M  V30 4353 H 411.598 3.31077 -4.8545 0
M  V30 4354 H 413.122 4.16004 -4.4696 0
M  V30 4355 H 414.536 2.06535 -5.34805 0
M  V30 4356 H 412.933 1.43544 -5.82679 0
M  V30 4357 H 414.003 0.433611 -4.82957 0
M  V30 4358 N 415.346 1.54954 0.287554 0
M  V30 4359 C 416.623 1.65569 1.04146 0
M  V30 4360 C 417.003 0.512672 2.0478 0
M  V30 4361 O 416.351 -0.489038 2.23205 0
M  V30 4362 C 416.561 3.04163 1.71131 0
M  V30 4363 C 417.909 3.61429 2.22832 0
M  V30 4364 O 418.933 3.06702 1.81141 0
M  V30 4365 O 417.792 4.57281 2.9926 0
M  V30 4366 H 414.886 0.671881 0.482188 0
M  V30 4367 H 417.432 1.67297 0.28457 0
M  V30 4368 H 416.204 3.78796 0.981303 0
M  V30 4369 H 415.827 3.06271 2.53543 0
M  V30 4370 N 416.824 -0.551391 1.4764 0
M  V30 4371 C 418.072 -1.30572 1.54258 0
M  V30 4372 C 418.393 -1.93877 0.208963 0
M  V30 4373 O 417.663 -1.80234 -0.767619 0
M  V30 4374 H 416.243 -0.484894 0.568231 0
M  V30 4375 H 418.905 -0.643402 1.83974 0
M  V30 4376 H 418.001 -2.09621 2.31226 0
M  V30 4377 N 418.302 -1.35869 -0.798587 0
M  V30 4378 C 419.551 -1.28921 -1.5512 0
M  V30 4379 C 419.864 0.13208 -1.95154 0
M  V30 4380 O 421.07 0.323879 -2.69561 0
M  V30 4381 C 419.526 -2.26141 -2.79979 0
M  V30 4382 C 419.134 -3.73658 -2.47151 0
M  V30 4383 C 420.878 -2.28152 -3.57976 0
M  V30 4384 C 418.785 -4.62679 -3.6835 0
M  V30 4385 H 417.715 -0.479031 -0.582276 0
M  V30 4386 H 420.366 -1.61179 -0.877125 0
M  V30 4387 H 418.748 -1.86865 -3.49138 0
M  V30 4388 H 419.922 -4.21616 -1.85947 0
M  V30 4389 H 418.237 -3.74333 -1.82383 0
M  V30 4390 H 420.834 -2.91875 -4.4801 0
M  V30 4391 H 421.177 -1.28748 -3.95891 0
M  V30 4392 H 421.71 -2.65998 -2.95787 0
M  V30 4393 H 418.449 -5.63111 -3.35538 0
M  V30 4394 H 417.969 -4.19442 -4.28752 0
M  V30 4395 H 419.648 -4.78498 -4.35487 0
M  V30 4396 N 419.78 1.02168 -1.19998 0
M  V30 4397 C 421.029 1.75091 -1.0013 0
M  V30 4398 C 421.342 1.89923 0.467835 0
M  V30 4399 O 422.548 2.59888 0.785515 0
M  V30 4400 C 421.004 3.14892 -1.74273 0
M  V30 4401 C 420.612 3.0809 -3.25245 0
M  V30 4402 C 422.356 3.9206 -1.62755 0
M  V30 4403 C 420.263 4.42867 -3.91948 0
M  V30 4404 H 419.193 0.656394 -0.37103 0
M  V30 4405 H 421.844 1.14284 -1.43567 0
M  V30 4406 H 420.226 3.7621 -1.2362 0
M  V30 4407 H 421.4 2.5611 -3.83072 0
M  V30 4408 H 419.715 2.44416 -3.3712 0
M  V30 4409 H 422.312 4.91764 -2.09934 0
M  V30 4410 H 422.655 4.12199 -0.582894 0
M  V30 4411 H 423.188 3.37359 -2.10793 0
M  V30 4412 H 419.927 4.27931 -4.96543 0
M  V30 4413 H 419.447 4.94874 -3.3891 0
M  V30 4414 H 421.126 5.11728 -3.95909 0
M  V30 4415 N 421.258 1.00505 1.21394 0
M  V30 4416 C 422.188 0.585684 2.26035 0
M  V30 4417 C 423.169 -0.393525 1.65485 0
M  V30 4418 O 424.354 -0.281497 1.92149 0
M  V30 4419 C 421.484 -0.0884283 3.47187 0
M  V30 4420 C 420.438 0.810567 4.20254 0
M  V30 4421 C 419.764 0.00286382 5.347 0
M  V30 4422 C 421.064 2.1132 4.77641 0
M  V30 4423 H 422.758 1.46039 2.61368 0
M  V30 4424 H 420.304 0.703648 1.25638 0
M  V30 4425 H 422.257 -0.393286 4.19561 0
M  V30 4426 H 420.981 -0.997766 3.10986 0
M  V30 4427 H 419.64 1.09925 3.49731 0
M  V30 4428 H 419.288 -0.907765 4.94741 0
M  V30 4429 H 418.988 0.601444 5.84514 0
M  V30 4430 H 420.512 -0.295808 6.09883 0
M  V30 4431 H 421.926 1.87148 5.41893 0
M  V30 4432 H 420.323 2.66164 5.37845 0
M  V30 4433 H 421.393 2.78393 3.9702 0
M  V30 4434 N 422.737 -1.36956 0.779787 0
M  V30 4435 C 424.148 -1.82094 0.412156 0
M  V30 4436 C 424.499 -1.64926 -1.06273 0
M  V30 4437 O 423.624 -1.16483 -1.82375 0
M  V30 4438 C 424.219 -3.3059 0.741319 0
M  V30 4439 C 422.778 -3.73974 0.426641 0
M  V30 4440 C 421.925 -2.59368 0.980987 0
M  V30 4441 H 424.876 -1.25314 0.973758 0
M  V30 4442 H 424.897 -3.80489 0.028887 0
M  V30 4443 H 424.409 -3.43054 1.81482 0
M  V30 4444 H 422.51 -3.67076 -0.639215 0
M  V30 4445 H 422.623 -4.69778 0.940515 0
M  V30 4446 H 420.987 -2.51463 0.404757 0
M  V30 4447 H 421.77 -2.74621 2.06005 0
M  V30 4448 N 424.215 -0.530993 -1.48385 0
M  V30 4449 C 425.463 0.00273189 -2.021 0
M  V30 4450 C 425.784 1.34672 -1.41027 0
M  V30 4451 O 425.054 1.8724 -0.576012 0
M  V30 4452 H 423.634 0.00399774 -0.746989 0
M  V30 4453 H 426.296 -0.695054 -1.82085 0
M  V30 4454 H 425.392 0.11031 -3.11905 0
M  V30 4455 N 425.693 1.55336 -0.266172 0
M  V30 4456 C 426.939 1.99692 0.353681 0
M  V30 4457 C 427.272 1.1543 1.56172 0
M  V30 4458 O 426.547 0.222218 1.93226 0
M  V30 4459 C 426.83 3.52316 0.74466 0
M  V30 4460 C 426.683 4.47337 -0.470101 0
M  V30 4461 C 428.002 4.10588 1.58447 0
M  V30 4462 H 425.121 0.725961 0.12708 0
M  V30 4463 H 427.763 1.86336 -0.371333 0
M  V30 4464 H 425.913 3.63829 1.36239 0
M  V30 4465 H 427.585 4.4778 -1.10864 0
M  V30 4466 H 425.828 4.19364 -1.10978 0
M  V30 4467 H 426.499 5.51788 -0.15291 0
M  V30 4468 H 428.975 4.02297 1.06286 0
M  V30 4469 H 427.851 5.17607 1.82686 0
M  V30 4470 H 428.112 3.60253 2.56262 0
M  V30 4471 N 427.171 -0.0066808 1.57599 0
M  V30 4472 C 428.399 -0.704087 1.94551 0
M  V30 4473 C 428.814 -1.67677 0.867746 0
M  V30 4474 O 428.171 -1.8185 -0.153925 0
M  V30 4475 C 428.222 -1.44177 3.31505 0
M  V30 4476 O 427.943 -0.508097 4.35144 0
M  V30 4477 C 429.444 -2.23429 3.82876 0
M  V30 4478 H 426.664 -0.196523 0.641576 0
M  V30 4479 H 429.208 0.042453 2.04456 0
M  V30 4480 H 427.363 -2.13999 3.22929 0
M  V30 4481 H 427.777 -1.02782 5.14331 0
M  V30 4482 H 429.251 -2.70552 4.8115 0
M  V30 4483 H 429.728 -3.05818 3.15233 0
M  V30 4484 H 430.334 -1.58636 3.94607 0
M  V30 4485 N 428.649 -1.55105 -0.279332 0
M  V30 4486 C 430.065 -1.46803 -0.626187 0
M  V30 4487 C 430.265 -0.676939 -1.89789 0
M  V30 4488 O 429.321 -0.19326 -2.51759 0
M  V30 4489 C 430.634 -2.90962 -0.759034 0
M  V30 4490 C 432.182 -3.01138 -0.853504 0
M  V30 4491 C 432.657 -4.46539 -1.01818 0
M  V30 4492 N 434.148 -4.50341 -1.08386 0
M  V30 4493 C 434.883 -5.60053 -1.22996 0
M  V30 4494 N 434.379 -6.79645 -1.34366 0
M  V30 4495 N 436.172 -5.47783 -1.26056 0
M  V30 4496 H 428.323 -2.04996 0.555921 0
M  V30 4497 H 430.586 -0.929325 0.187239 0
M  V30 4498 H 430.292 -3.51544 0.104852 0
M  V30 4499 H 430.166 -3.39619 -1.64131 0
M  V30 4500 H 432.553 -2.40658 -1.70786 0
M  V30 4501 H 432.634 -2.55745 0.0532466 0
M  V30 4502 H 432.278 -5.0762 -0.168504 0
M  V30 4503 H 432.208 -4.89583 -1.93948 0
M  V30 4504 H 434.699 -3.64191 -1.00864 0
M  V30 4505 H 435.012 -7.59012 -1.4533 0
M  V30 4506 H 433.357 -6.82469 -1.31382 0
M  V30 4507 H 436.548 -4.53294 -1.168 0
M  V30 4508 H 436.721 -6.33331 -1.37098 0
M  V30 4509 N 430.127 0.543554 -1.4793 0
M  V30 4510 C 431.543 0.870806 -1.3375 0
M  V30 4511 C 431.743 1.9864 -0.338261 0
M  V30 4512 O 430.799 2.51305 0.245371 0
M  V30 4513 C 432.112 1.25114 -2.73435 0
M  V30 4514 C 433.66 1.3618 -2.81823 0
M  V30 4515 C 434.135 1.77563 -4.22179 0
M  V30 4516 N 435.626 1.8469 -4.24787 0
M  V30 4517 C 436.361 2.18067 -5.30315 0
M  V30 4518 N 435.857 2.49963 -6.46135 0
M  V30 4519 N 437.65 2.18958 -5.17701 0
M  V30 4520 H 429.801 -0.19275 -2.11524 0
M  V30 4521 H 432.064 -0.0235777 -0.947707 0
M  V30 4522 H 431.77 0.50514 -3.48053 0
M  V30 4523 H 431.644 2.20431 -3.06088 0
M  V30 4524 H 434.031 2.09859 -2.07468 0
M  V30 4525 H 434.112 0.390169 -2.52807 0
M  V30 4526 H 433.756 1.04449 -4.97044 0
M  V30 4527 H 433.686 2.75753 -4.48629 0
M  V30 4528 H 436.177 1.62372 -3.41239 0
M  V30 4529 H 436.49 2.74497 -7.22406 0
M  V30 4530 H 434.835 2.47513 -6.49432 0
M  V30 4531 H 438.026 1.93488 -4.2624 0
M  V30 4532 H 438.199 2.44639 -6.00047 0
M  V30 4533 N 431.605 1.3629 0.791371 0
M  V30 4534 C 432.845 1.31792 1.56238 0
M  V30 4535 C 433.209 -0.102237 1.91728 0
M  V30 4536 O 434.41 -0.271759 2.67423 0
M  V30 4537 C 432.681 2.21303 2.80642 0
M  V30 4538 S 434.24 2.34468 3.70904 0
M  V30 4539 H 431.058 0.468141 0.535131 0
M  V30 4540 H 433.66 1.71841 0.932246 0
M  V30 4541 H 432.364 3.23439 2.52617 0
M  V30 4542 H 431.895 1.82266 3.4863 0
M  V30 4543 H 433.91 1.54074 4.71673 0
M  V30 4544 N 433.083 -1.0153 1.20538 0
M  V30 4545 C 434.332 -1.74558 1.01057 0
M  V30 4546 C 434.645 -1.90168 -0.457756 0
M  V30 4547 O 435.851 -2.60301 -0.771722 0
M  V30 4548 C 434.307 -3.13963 1.75941 0
M  V30 4549 C 433.915 -3.06361 3.26875 0
M  V30 4550 C 435.659 -3.91191 1.64832 0
M  V30 4551 C 433.566 -4.40782 3.94291 0
M  V30 4552 H 432.496 -0.654417 0.374505 0
M  V30 4553 H 435.147 -1.13521 1.44171 0
M  V30 4554 H 433.529 -3.75549 1.25614 0
M  V30 4555 H 434.703 -2.54074 3.84425 0
M  V30 4556 H 433.018 -2.42625 3.38411 0
M  V30 4557 H 435.615 -4.90644 2.12539 0
M  V30 4558 H 435.958 -4.11884 0.604745 0
M  V30 4559 H 436.491 -3.36236 2.12579 0
M  V30 4560 H 433.23 -4.25292 4.98805 0
M  V30 4561 H 432.75 -4.9307 3.41529 0
M  V30 4562 H 434.429 -5.09621 3.98617 0
M  V30 4563 N 434.561 -1.01147 -1.20859 0
M  V30 4564 C 435.491 -0.597663 -2.25722 0
M  V30 4565 C 436.472 0.384744 -1.65692 0
M  V30 4566 O 437.657 0.271303 -1.92296 0
M  V30 4567 C 434.787 0.0700149 -3.47229 0
M  V30 4568 C 433.741 -0.832843 -4.19819 0
M  V30 4569 C 433.067 -0.0312202 -5.34691 0
M  V30 4570 C 434.367 -2.1385 -4.76514 0
M  V30 4571 H 436.061 -1.47423 -2.60589 0
M  V30 4572 H 433.607 -0.710301 -1.25263 0
M  V30 4573 H 435.56 0.37103 -4.19763 0
M  V30 4574 H 434.284 0.981259 -3.11511 0
M  V30 4575 H 432.943 -1.11778 -3.49144 0
M  V30 4576 H 432.591 0.881515 -4.95215 0
M  V30 4577 H 432.291 -0.632434 -5.84187 0
M  V30 4578 H 433.815 0.26346 -6.10031 0
M  V30 4579 H 435.229 -1.9002 -5.40893 0
M  V30 4580 H 433.626 -2.69012 -5.36426 0
M  V30 4581 H 434.696 -2.80495 -3.95538 0
M  V30 4582 N 436.039 1.36541 -0.78704 0
M  V30 4583 C 437.316 1.9355 -0.282424 0
M  V30 4584 C 437.696 1.71919 1.22503 0
M  V30 4585 O 437.044 1.07677 2.01539 0
M  V30 4586 C 437.254 3.4246 -0.672462 0
M  V30 4587 C 438.602 4.19582 -0.650863 0
M  V30 4588 O 439.626 3.50889 -0.612789 0
M  V30 4589 O 438.485 5.42106 -0.691623 0
M  V30 4590 H 435.579 0.824091 -0.0693 0
M  V30 4591 H 438.125 1.45736 -0.869423 0
M  V30 4592 H 436.897 3.51851 -1.71221 0
M  V30 4593 H 436.52 3.97556 -0.0592211 0
M  V30 4594 N 437.518 0.538854 1.48102 0
M  V30 4595 C 438.448 -0.207654 2.32575 0
M  V30 4596 C 439.429 -0.926559 1.4265 0
M  V30 4597 O 440.614 -0.91061 1.71527 0
M  V30 4598 C 437.744 -1.24957 3.24042 0
M  V30 4599 C 436.698 -0.648263 4.23062 0
M  V30 4600 C 436.024 -1.79348 5.03725 0
M  V30 4601 C 437.324 0.385897 5.20872 0
M  V30 4602 H 439.018 0.497534 2.95237 0
M  V30 4603 H 436.564 0.240715 1.41974 0
M  V30 4604 H 438.517 -1.77983 3.81969 0
M  V30 4605 H 437.241 -1.98446 2.59397 0
M  V30 4606 H 435.9 -0.139452 3.66335 0
M  V30 4607 H 435.548 -2.51696 4.35498 0
M  V30 4608 H 435.248 -1.39702 5.70751 0
M  V30 4609 H 436.772 -2.32735 5.64506 0
M  V30 4610 H 438.186 -0.057607 5.73271 0
M  V30 4611 H 436.583 0.700227 5.96001 0
M  V30 4612 H 437.653 1.28848 4.67468 0
M  V30 4613 N 438.996 -1.55193 0.274407 0
M  V30 4614 C 439.959 -2.212 -0.600279 0
M  V30 4615 C 440.959 -1.18963 -1.08187 0
M  V30 4616 O 442.149 -1.43873 -0.982158 0
M  V30 4617 C 439.281 -2.87739 -1.82809 0
M  V30 4618 H 440.474 -2.9989 -0.0239682 0
M  V30 4619 H 438.027 -1.5628 0.0250192 0
M  V30 4620 H 438.762 -2.13058 -2.44493 0
M  V30 4621 H 438.547 -3.62658 -1.49069 0
M  V30 4622 H 440.037 -3.38171 -2.45011 0
M  V30 4623 N 440.474 -0.00167713 -1.576 0
M  V30 4624 C 441.424 0.997744 -2.0501 0
M  V30 4625 C 442.408 1.30214 -0.94515 0
M  V30 4626 O 443.6 1.29284 -1.20891 0
M  V30 4627 C 440.729 2.2892 -2.55833 0
M  V30 4628 C 439.815 2.01437 -3.73208 0
M  V30 4629 N 440.206 1.44119 -4.84833 0
M  V30 4630 C 438.504 2.31571 -3.8117 0
M  V30 4631 C 439.205 1.33145 -5.66257 0
M  V30 4632 N 438.181 1.81763 -5.12312 0
M  V30 4633 H 441.983 0.549098 -2.88725 0
M  V30 4634 H 439.497 0.20398 -1.61114 0
M  V30 4635 H 441.494 3.01361 -2.88075 0
M  V30 4636 H 440.154 2.74436 -1.73537 0
M  V30 4637 H 441.165 1.11978 -5.0565 0
M  V30 4638 H 437.842 2.7995 -3.09732 0
M  V30 4639 H 439.232 0.890567 -6.65972 0
M  V30 4640 N 441.952 1.55251 0.271103 0
M  V30 4641 C 442.884 1.84675 1.35749 0
M  V30 4642 C 443.897 0.731366 1.45447 0
M  V30 4643 O 445.086 1.00924 1.4723 0
M  V30 4644 C 442.186 1.99638 2.73857 0
M  V30 4645 C 441.359 3.30312 2.86727 0
M  V30 4646 C 440.418 3.35318 4.05522 0
M  V30 4647 O 439.444 4.08682 3.96191 0
M  V30 4648 N 440.646 2.62857 5.17577 0
M  V30 4649 H 443.411 2.78445 1.10853 0
M  V30 4650 H 440.972 1.55191 0.461218 0
M  V30 4651 H 442.964 2.00355 3.51625 0
M  V30 4652 H 441.534 1.12725 2.91568 0
M  V30 4653 H 440.754 3.42118 1.95829 0
M  V30 4654 H 442.042 4.16488 2.92258 0
M  V30 4655 H 441.44 2.02939 5.28046 0
M  V30 4656 H 439.997 2.69295 5.93568 0
M  V30 4657 N 443.43 -0.535701 1.48216 0
M  V30 4658 C 444.676 -1.2913 1.57153 0
M  V30 4659 C 445.031 -1.90899 0.239823 0
M  V30 4660 O 444.324 -1.76022 -0.756748 0
M  V30 4661 C 444.518 -2.4068 2.64212 0
M  V30 4662 C 444.347 -1.89844 4.07663 0
M  V30 4663 C 443.117 -1.72708 4.74869 0
M  V30 4664 C 445.315 -1.43031 4.94011 0
M  V30 4665 N 443.297 -1.16437 6.02757 0
M  V30 4666 C 444.668 -0.986691 6.12098 0
M  V30 4667 C 446.723 -1.3128 4.80281 0
M  V30 4668 C 445.426 -0.437231 7.1797 0
M  V30 4669 C 447.452 -0.777346 5.86269 0
M  V30 4670 C 446.814 -0.343774 7.03561 0
M  V30 4671 H 442.913 -0.463753 0.629648 0
M  V30 4672 H 445.497 -0.604736 1.8507 0
M  V30 4673 H 443.668 -3.06839 2.38126 0
M  V30 4674 H 445.4 -3.07706 2.62867 0
M  V30 4675 H 442.155 -1.96061 4.31111 0
M  V30 4676 H 442.579 -0.903281 6.70947 0
M  V30 4677 H 447.221 -1.63408 3.89946 0
M  V30 4678 H 444.939 -0.103621 8.08034 0
M  V30 4679 H 448.525 -0.689688 5.77698 0
M  V30 4680 H 447.405 0.0641219 7.84174 0
M  V30 4681 N 444.908 -1.36708 -0.784132 0
M  V30 4682 C 446.156 -1.30972 -1.53918 0
M  V30 4683 C 446.477 0.109086 -1.94695 0
M  V30 4684 O 445.747 1.05048 -1.65353 0
M  V30 4685 H 444.327 -0.481819 -0.570841 0
M  V30 4686 H 446.989 -1.71063 -0.934002 0
M  V30 4687 H 446.085 -1.94061 -2.44431 0
M  V30 4688 N 446.386 1.0089 -1.21074 0
M  V30 4689 C 447.296 2.13039 -0.982425 0
M  V30 4690 C 448.312 1.73881 0.0642161 0
M  V30 4691 O 449.488 2.01012 -0.12496 0
M  V30 4692 C 446.553 3.42377 -0.545803 0
M  V30 4693 C 445.614 3.95731 -1.6642 0
M  V30 4694 C 444.847 5.18896 -1.24832 0
M  V30 4695 O 445.07 5.70273 -0.120265 0
M  V30 4696 O 444.004 5.65597 -2.05873 0
M  V30 4697 H 447.83 2.35175 -1.92163 0
M  V30 4698 H 445.415 1.1142 -0.995285 0
M  V30 4699 H 447.297 4.20244 -0.311912 0
M  V30 4700 H 445.972 3.21639 0.364727 0
M  V30 4701 H 444.879 3.19108 -1.95246 0
M  V30 4702 H 446.212 4.20872 -2.55201 0
M  V30 4703 N 447.864 1.01787 1.20321 0
M  V30 4704 C 449.111 0.707936 1.89722 0
M  V30 4705 C 449.439 -0.762535 1.78929 0
M  V30 4706 O 448.694 -1.56977 1.16861 0
M  V30 4707 C 448.993 1.09076 3.40349 0
M  V30 4708 C 448.659 2.55765 3.71342 0
M  V30 4709 C 447.321 2.95845 3.79511 0
M  V30 4710 C 449.673 3.50723 3.85542 0
M  V30 4711 C 447.001 4.2982 3.99339 0
M  V30 4712 C 449.353 4.84387 4.06881 0
M  V30 4713 C 448.017 5.24172 4.1328 0
M  V30 4714 H 447.287 0.259052 0.694243 0
M  V30 4715 H 449.934 1.27868 1.42555 0
M  V30 4716 H 448.239 0.438453 3.89339 0
M  V30 4717 H 449.936 0.828636 3.92345 0
M  V30 4718 H 446.526 2.2371 3.65584 0
M  V30 4719 H 450.71 3.20916 3.78585 0
M  V30 4720 H 445.966 4.60196 4.02529 0
M  V30 4721 H 450.14 5.57891 4.1681 0
M  V30 4722 H 447.767 6.27997 4.28396 0
M  V30 4723 N 449.342 -1.36122 0.79427 0
M  V30 4724 C 450.289 -2.29982 0.194101 0
M  V30 4725 C 451.259 -1.52214 -0.664833 0
M  V30 4726 O 452.444 -1.80702 -0.612498 0
M  V30 4727 C 449.584 -3.38706 -0.661244 0
M  V30 4728 C 448.697 -4.31456 0.216766 0
M  V30 4729 C 447.832 -5.27265 -0.645411 0
M  V30 4730 C 446.871 -6.11653 0.233756 0
M  V30 4731 N 446.008 -6.99636 -0.587682 0
M  V30 4732 H 450.848 -2.80722 0.999965 0
M  V30 4733 H 448.385 -1.38172 0.504677 0
M  V30 4734 H 450.343 -4.00394 -1.17219 0
M  V30 4735 H 448.973 -2.89274 -1.43249 0
M  V30 4736 H 448.025 -3.7088 0.845724 0
M  V30 4737 H 449.337 -4.90724 0.893973 0
M  V30 4738 H 448.491 -5.94266 -1.22198 0
M  V30 4739 H 447.23 -4.68463 -1.35623 0
M  V30 4740 H 446.235 -5.4361 0.82269 0
M  V30 4741 H 447.46 -6.72531 0.942247 0
M  V30 4742 H 445.406 -6.43337 -1.2827 0
M  V30 4743 H 445.323 -7.55993 0.0317402 0
M  V30 4744 H 446.591 -7.71001 -1.14792 0
M  V30 4745 N 450.82 -0.546701 -1.47814 0
M  V30 4746 C 452.066 -0.0187684 -2.02791 0
M  V30 4747 C 452.399 1.32338 -1.42128 0
M  V30 4748 O 451.674 1.85867 -0.573023 0
M  V30 4749 C 451.957 0.0854985 -3.59998 0
M  V30 4750 C 451.81 -1.283 -4.31114 0
M  V30 4751 C 453.129 0.80412 -4.32691 0
M  V30 4752 H 450.248 -0.0082946 -0.736953 0
M  V30 4753 H 452.89 -0.706962 -1.76358 0
M  V30 4754 H 451.04 0.671609 -3.82651 0
M  V30 4755 H 452.712 -1.91151 -4.19832 0
M  V30 4756 H 450.955 -1.86049 -3.91878 0
M  V30 4757 H 451.626 -1.16287 -5.39612 0
M  V30 4758 H 454.102 0.306576 -4.14969 0
M  V30 4759 H 452.978 0.846011 -5.42341 0
M  V30 4760 H 453.239 1.85802 -4.01161 0
M  V30 4761 N 452.299 1.55045 -0.282633 0
M  V30 4762 C 453.524 2.04628 0.337977 0
M  V30 4763 C 453.949 1.15937 1.48123 0
M  V30 4764 O 453.307 0.159532 1.80597 0
M  V30 4765 C 453.355 3.51854 0.78936 0
M  V30 4766 O 452.459 3.66236 1.89592 0
M  V30 4767 H 451.8 0.660434 0.0687261 0
M  V30 4768 H 454.33 2.00261 -0.419124 0
M  V30 4769 H 454.34 3.93361 1.08311 0
M  V30 4770 H 453.015 4.15873 -0.0470419 0
M  V30 4771 H 451.592 3.36633 1.60413 0
M  V30 4772 N 453.777 0.010035 1.57597 0
M  V30 4773 C 454.687 -0.994226 2.12491 0
M  V30 4774 C 455.703 -1.37013 1.07254 0
M  V30 4775 O 456.879 -1.45542 1.3921 0
M  V30 4776 C 453.944 -2.2642 2.62555 0
M  V30 4777 C 453.005 -1.95049 3.82432 0
M  V30 4778 C 452.238 -3.15991 4.30099 0
M  V30 4779 O 452.461 -4.28015 3.7704 0
M  V30 4780 O 451.395 -2.99403 5.22151 0
M  V30 4781 H 455.221 -0.557549 2.98538 0
M  V30 4782 H 452.806 -0.209413 1.47925 0
M  V30 4783 H 454.688 -3.01009 2.9491 0
M  V30 4784 H 453.363 -2.69306 1.796 0
M  V30 4785 H 452.27 -1.17904 3.55034 0
M  V30 4786 H 453.603 -1.56992 4.66491 0
M  V30 4787 N 455.255 -1.55392 -0.262866 0
M  V30 4788 C 456.671 -1.47459 -0.610582 0
M  V30 4789 C 456.871 -0.697031 -1.8906 0
M  V30 4790 O 455.927 -0.219952 -2.5154 0
M  V30 4791 C 457.24 -2.91751 -0.728131 0
M  V30 4792 C 458.788 -3.02027 -0.821517 0
M  V30 4793 C 459.263 -4.47594 -0.97076 0
M  V30 4794 N 460.754 -4.51465 -1.03603 0
M  V30 4795 C 461.489 -5.61326 -1.17049 0
M  V30 4796 N 460.985 -6.81032 -1.2715 0
M  V30 4797 N 462.778 -5.49089 -1.20239 0
M  V30 4798 H 454.929 -2.04395 0.577632 0
M  V30 4799 H 457.192 -0.927287 0.197086 0
M  V30 4800 H 456.898 -3.51413 0.142132 0
M  V30 4801 H 456.772 -3.4134 -1.6052 0
M  V30 4802 H 459.159 -2.42456 -1.68224 0
M  V30 4803 H 459.24 -2.55674 0.0803688 0
M  V30 4804 H 458.884 -5.07771 -0.114655 0
M  V30 4805 H 458.814 -4.91613 -1.88745 0
M  V30 4806 H 461.305 -3.6524 -0.96996 0
M  V30 4807 H 461.618 -7.60511 -1.37271 0
M  V30 4808 H 459.963 -6.83824 -1.24136 0
M  V30 4809 H 463.154 -4.54507 -1.11985 0
M  V30 4810 H 463.327 -6.34749 -1.30373 0
M  V30 4811 N 456.733 0.527833 -1.48498 0
M  V30 4812 C 457.963 1.30633 -1.60058 0
M  V30 4813 C 458.371 1.87394 -0.260786 0
M  V30 4814 O 457.714 1.67227 0.760317 0
M  V30 4815 C 457.776 2.49361 -2.58958 0
M  V30 4816 C 457.44 2.13671 -4.03972 0
M  V30 4817 C 458.437 1.69217 -4.91591 0
M  V30 4818 C 456.122 2.24129 -4.49524 0
M  V30 4819 C 458.116 1.35689 -6.2279 0
M  V30 4820 C 455.803 1.90212 -5.80743 0
M  V30 4821 C 456.801 1.46063 -6.67199 0
M  V30 4822 O 456.489 1.12593 -7.95976 0
M  V30 4823 H 456.221 0.403444 -0.54241 0
M  V30 4824 H 458.775 0.643233 -1.95068 0
M  V30 4825 H 457.005 3.18659 -2.19073 0
M  V30 4826 H 458.694 3.11421 -2.6033 0
M  V30 4827 H 459.46 1.60607 -4.57636 0
M  V30 4828 H 455.339 2.57447 -3.82416 0
M  V30 4829 H 458.883 1.01157 -6.90227 0
M  V30 4830 H 454.78 1.98464 -6.14233 0
M  V30 4831 H 455.548 1.25972 -8.08748 0
M  V30 4832 N 458.211 1.37122 0.776871 0
M  V30 4833 C 459.141 1.35164 1.90402 0
M  V30 4834 C 460.122 0.221069 1.68657 0
M  V30 4835 O 461.307 0.420642 1.8959 0
M  V30 4836 C 458.437 1.15274 3.27611 0
M  V30 4837 C 457.391 2.25289 3.63908 0
M  V30 4838 C 456.717 1.90527 4.99603 0
M  V30 4839 C 458.017 3.67446 3.71188 0
M  V30 4840 H 459.711 2.29482 1.92297 0
M  V30 4841 H 457.257 1.10465 0.923773 0
M  V30 4842 H 459.21 1.12536 4.06096 0
M  V30 4843 H 457.934 0.174102 3.26136 0
M  V30 4844 H 456.593 2.27174 2.87728 0
M  V30 4845 H 456.241 0.91206 4.94662 0
M  V30 4846 H 455.941 2.64193 5.24858 0
M  V30 4847 H 457.465 1.89367 5.80493 0
M  V30 4848 H 458.879 3.67719 4.39836 0
M  V30 4849 H 457.276 4.40123 4.07936 0
M  V30 4850 H 458.346 4.01443 2.71977 0
M  V30 4851 N 459.689 -1.00246 1.21608 0
M  V30 4852 C 460.917 -1.77631 1.06089 0
M  V30 4853 C 461.332 -1.84746 -0.38916 0
M  V30 4854 O 460.689 -1.31068 -1.26994 0
M  V30 4855 C 460.74 -3.21415 1.65453 0
M  V30 4856 O 460.461 -3.14703 3.04785 0
M  V30 4857 C 461.962 -4.15289 1.55079 0
M  V30 4858 H 459.182 -0.558162 0.37242 0
M  V30 4859 H 461.726 -1.26093 1.60999 0
M  V30 4860 H 459.881 -3.70053 1.14629 0
M  V30 4861 H 460.295 -4.05056 3.33212 0
M  V30 4862 H 461.769 -5.13965 2.01355 0
M  V30 4863 H 462.246 -4.36279 0.505665 0
M  V30 4864 H 462.852 -3.72543 2.05163 0
M  V30 4865 N 461.167 -1.02423 -1.1978 0
M  V30 4866 C 462.1 -0.545641 -2.21581 0
M  V30 4867 C 463.078 0.411024 -1.57319 0
M  V30 4868 O 464.262 0.329223 -1.85603 0
M  V30 4869 C 461.389 0.204973 -3.38079 0
M  V30 4870 C 460.435 -0.70241 -4.20676 0
M  V30 4871 S 461.268 -2.17595 -4.89298 0
M  V30 4872 C 462.424 -1.43572 -6.09211 0
M  V30 4873 H 462.657 -1.4082 -2.61834 0
M  V30 4874 H 460.19 -0.833771 -1.29952 0
M  V30 4875 H 462.148 0.631924 -4.05607 0
M  V30 4876 H 460.809 1.0432 -2.9627 0
M  V30 4877 H 460.002 -0.123193 -5.03849 0
M  V30 4878 H 459.604 -1.06747 -3.58442 0
M  V30 4879 H 461.896 -0.719806 -6.73665 0
M  V30 4880 H 462.839 -2.24388 -6.71607 0
M  V30 4881 H 463.247 -0.935252 -5.56699 0
M  V30 4882 N 462.645 1.35699 -0.801477 0
M  V30 4883 C 463.922 1.9324 -0.302937 0
M  V30 4884 C 464.302 1.73209 1.20672 0
M  V30 4885 O 463.65 1.09809 2.00385 0
M  V30 4886 C 463.86 3.41728 -0.708747 0
M  V30 4887 C 465.208 4.18868 -0.695328 0
M  V30 4888 O 466.232 3.5022 -0.649971 0
M  V30 4889 O 465.091 5.41342 -0.749081 0
M  V30 4890 H 462.185 0.82331 -0.0780367 0
M  V30 4891 H 464.731 1.44806 -0.884832 0
M  V30 4892 H 463.503 3.50015 -1.74944 0
M  V30 4893 H 463.126 3.97471 -0.101384 0
M  V30 4894 N 464.123 0.554532 1.47522 0
M  V30 4895 C 465.4 -0.0360704 1.95567 0
M  V30 4896 C 465.78 -1.48828 1.49711 0
M  V30 4897 O 465.128 -2.16366 0.734717 0
M  V30 4898 C 465.338 0.106631 3.48837 0
M  V30 4899 C 466.686 -0.0400899 4.24581 0
M  V30 4900 O 467.71 0.0340453 3.56184 0
M  V30 4901 O 466.569 -0.199111 5.46137 0
M  V30 4902 H 463.663 -0.0656294 0.824392 0
M  V30 4903 H 466.209 0.620867 1.57935 0
M  V30 4904 H 464.981 1.11727 3.7501 0
M  V30 4905 H 464.604 -0.58804 3.93227 0
M  V30 4906 N 465.601 -1.54893 0.290851 0
M  V30 4907 C 466.531 -2.26103 -0.583084 0
M  V30 4908 C 467.512 -1.25684 -1.14619 0
M  V30 4909 O 468.697 -1.54436 -1.17741 0
M  V30 4910 C 465.827 -2.99409 -1.75987 0
M  V30 4911 C 464.781 -4.0689 -1.32758 0
M  V30 4912 C 464.107 -4.67856 -2.58872 0
M  V30 4913 C 465.407 -5.20215 -0.46624 0
M  V30 4914 H 467.101 -2.99398 0.0108214 0
M  V30 4915 H 464.647 -1.43998 0.00664468 0
M  V30 4916 H 466.6 -3.47943 -2.37727 0
M  V30 4917 H 465.324 -2.23675 -2.37985 0
M  V30 4918 H 463.983 -3.59191 -0.733299 0
M  V30 4919 H 463.631 -3.88772 -3.19163 0
M  V30 4920 H 463.331 -5.40438 -2.30653 0
M  V30 4921 H 464.855 -5.19147 -3.21433 0
M  V30 4922 H 466.269 -5.64704 -0.989047 0
M  V30 4923 H 464.666 -5.99455 -0.27826 0
M  V30 4924 H 465.736 -4.82198 0.511173 0
M  V30 4925 N 467.08 -0.0183926 -1.57589 0
M  V30 4926 C 468.308 0.673046 -1.95647 0
M  V30 4927 C 468.723 1.66275 -0.894312 0
M  V30 4928 O 468.08 1.82072 0.124975 0
M  V30 4929 C 468.131 1.38884 -3.33756 0
M  V30 4930 O 467.852 0.438806 -4.35897 0
M  V30 4931 C 469.353 2.1731 -3.86383 0
M  V30 4932 H 466.573 0.186292 -0.644621 0
M  V30 4933 H 469.117 -0.0749748 -2.04363 0
M  V30 4934 H 467.272 2.08835 -3.26293 0
M  V30 4935 H 467.686 0.945869 -5.15901 0
M  V30 4936 H 469.16 2.62863 -4.85394 0
M  V30 4937 H 469.637 3.00764 -3.20059 0
M  V30 4938 H 470.243 1.52339 -3.97081 0
M  V30 4939 N 468.558 1.5553 0.254621 0
M  V30 4940 C 469.786 1.81046 1.00149 0
M  V30 4941 C 470.201 0.593047 1.79244 0
M  V30 4942 O 469.558 -0.438196 1.77161 0
M  V30 4943 C 469.609 3.04684 1.94551 0
M  V30 4944 O 469.33 4.21725 1.18658 0
M  V30 4945 C 470.831 3.42943 2.80901 0
M  V30 4946 H 468.051 0.602653 0.295044 0
M  V30 4947 H 470.595 2.02576 0.279842 0
M  V30 4948 H 468.75 2.85226 2.62154 0
M  V30 4949 H 469.164 4.91746 1.82445 0
M  V30 4950 H 470.638 4.32576 3.42902 0
M  V30 4951 H 471.115 2.63176 3.51617 0
M  V30 4952 H 471.721 3.64724 2.18762 0
M  V30 4953 N 470.036 -0.519951 1.48776 0
M  V30 4954 C 470.999 -1.60574 1.6355 0
M  V30 4955 C 471.999 -1.52557 0.508234 0
M  V30 4956 O 473.189 -1.56047 0.774262 0
M  V30 4957 C 470.321 -3.00211 1.61512 0
M  V30 4958 H 471.514 -1.4881 2.60376 0
M  V30 4959 H 469.067 -0.742772 1.37523 0
M  V30 4960 H 469.802 -3.17471 0.662009 0
M  V30 4961 H 469.587 -3.07439 2.43359 0
M  V30 4962 H 471.077 -3.79134 1.75064 0
M  V30 4963 N 471.514 -1.37532 -0.769588 0
M  V30 4964 C 472.444 -1.36172 -1.89682 0
M  V30 4965 C 473.425 -0.23001 -1.68538 0
M  V30 4966 O 474.61 -0.43069 -1.89364 0
M  V30 4967 C 471.74 -1.1701 -3.26995 0
M  V30 4968 C 470.694 -2.27216 -3.62708 0
M  V30 4969 C 470.02 -1.93174 -4.98586 0
M  V30 4970 C 471.32 -3.6941 -3.69234 0
M  V30 4971 H 473.014 -2.30499 -1.91078 0
M  V30 4972 H 470.56 -1.10953 -0.917902 0
M  V30 4973 H 472.513 -1.14688 -4.05493 0
M  V30 4974 H 471.237 -0.191395 -3.26039 0
M  V30 4975 H 469.896 -2.28697 -2.86519 0
M  V30 4976 H 469.544 -0.938281 -4.94171 0
M  V30 4977 H 469.244 -2.66973 -5.23449 0
M  V30 4978 H 470.768 -1.92443 -5.79481 0
M  V30 4979 H 472.182 -3.70047 -4.37879 0
M  V30 4980 H 470.579 -4.4228 -4.05597 0
M  V30 4981 H 471.649 -4.0288 -2.69844 0
M  V30 4982 N 472.992 0.995999 -1.22138 0
M  V30 4983 C 473.902 2.11985 -1.00496 0
M  V30 4984 C 474.918 1.7394 0.0457701 0
M  V30 4985 O 476.094 2.00868 -0.146273 0
M  V30 4986 C 473.159 3.41779 -0.582086 0
M  V30 4987 C 472.22 3.93943 -1.70608 0
M  V30 4988 C 471.453 5.17542 -1.30328 0
M  V30 4989 O 471.676 5.70114 -0.180743 0
M  V30 4990 O 470.61 5.63382 -2.11861 0
M  V30 4991 H 474.436 2.33123 -1.94647 0
M  V30 4992 H 472.021 1.10358 -1.00705 0
M  V30 4993 H 473.903 4.1989 -0.356467 0
M  V30 4994 H 472.578 3.22007 0.330592 0
M  V30 4995 H 471.485 3.17019 -1.98619 0
M  V30 4996 H 472.818 4.18141 -2.59651 0
M  V30 4997 N 474.47 1.03057 1.19235 0
M  V30 4998 C 475.718 0.726581 1.88587 0
M  V30 4999 C 476.039 -0.747227 1.80115 0
M  V30 5000 O 475.309 -1.53849 1.21274 0
M  V30 5001 H 473.889 0.265768 0.698124 0
M  V30 5002 H 476.551 1.30516 1.44746 0
M  V30 5003 H 475.647 1.0224 2.94879 0
M  V30 5004 N 475.948 -1.35272 0.808662 0
M  V30 5005 C 476.896 -2.31663 0.208606 0
M  V30 5006 C 477.89 -1.56731 -0.642778 0
M  V30 5007 O 479.096 -1.71843 -0.53571 0
M  V30 5008 H 475.471 -0.750421 0.0486993 0
M  V30 5009 H 477.442 -2.79814 1.03666 0
M  V30 5010 C 476.191 -3.42008 -0.626573 0
M  V30 5011 H 475.514 -3.99795 0.0192103 0
M  V30 5012 H 476.954 -4.11727 -1.01278 0
M  V30 5013 C 475.413 -2.85226 -1.79298 0
M  V30 5014 O 475.943 -2.78945 -2.89055 0
M  V30 5015 N 474.149 -2.42245 -1.60516 0
M  V30 5016 H 473.696 -2.47554 -0.712375 0
M  V30 5017 H 473.654 -2.04603 -2.38715 0
M  V30 5018 N 477.426 -0.562348 -1.47226 0
M  V30 5019 C 478.842 -0.222492 -1.58042 0
M  V30 5020 C 479.042 1.27505 -1.56028 0
M  V30 5021 O 478.098 2.05555 -1.46641 0
M  V30 5022 C 479.411 -0.853694 -2.88327 0
M  V30 5023 C 480.959 -0.825397 -3.01921 0
M  V30 5024 C 481.434 -1.43576 -4.34914 0
M  V30 5025 N 482.925 -1.39918 -4.41562 0
M  V30 5026 C 483.66 -1.84103 -5.43041 0
M  V30 5027 N 483.156 -2.36167 -6.51304 0
M  V30 5028 N 484.949 -1.75142 -5.34118 0
M  V30 5029 H 477.1 -1.53525 -1.46778 0
M  V30 5030 H 479.363 -0.640527 -0.698877 0
M  V30 5031 H 479.069 -1.90635 -2.95552 0
M  V30 5032 H 478.943 -0.34977 -3.75575 0
M  V30 5033 H 481.33 0.218583 -2.94289 0
M  V30 5034 H 481.411 -1.36713 -2.16202 0
M  V30 5035 H 481.055 -2.47884 -4.43301 0
M  V30 5036 H 480.985 -0.869427 -5.19373 0
M  V30 5037 H 483.476 -1.0184 -3.63919 0
M  V30 5038 H 483.789 -2.67793 -7.24919 0
M  V30 5039 H 482.134 -2.40181 -6.52179 0
M  V30 5040 H 485.325 -1.34241 -4.48439 0
M  V30 5041 H 485.498 -2.09895 -6.13065 0
M  V30 5042 N 478.904 1.54736 -0.299062 0
M  V30 5043 C 480.15 2.00397 0.311244 0
M  V30 5044 C 480.483 1.18716 1.53688 0
M  V30 5045 O 479.758 0.263154 1.92712 0
M  V30 5046 C 480.041 3.53817 0.669761 0
M  V30 5047 C 479.894 4.46239 -0.564882 0
M  V30 5048 C 481.213 4.13856 1.49702 0
M  V30 5049 H 478.332 0.728493 0.111653 0
M  V30 5050 H 480.974 1.85506 -0.410774 0
M  V30 5051 H 479.124 3.66637 1.28491 0
M  V30 5052 H 480.796 4.45328 -1.20337 0
M  V30 5053 H 479.039 4.16916 -1.19849 0
M  V30 5054 H 479.71 5.5134 -0.269918 0
M  V30 5055 H 482.186 4.04461 0.977284 0
M  V30 5056 H 481.062 5.21365 1.71666 0
M  V30 5057 H 481.323 3.65608 2.48563 0
M  V30 5058 N 480.382 0.0267497 1.57577 0
M  V30 5059 C 481.798 -0.32962 1.56159 0
M  V30 5060 C 481.998 -1.73059 1.03213 0
M  V30 5061 O 481.054 -2.43233 0.677804 0
M  V30 5062 C 482.367 -0.18039 3.00158 0
M  V30 5063 C 483.915 -0.253334 3.11973 0
M  V30 5064 C 484.39 -0.132921 4.57807 0
M  V30 5065 N 485.881 -0.189979 4.6281 0
M  V30 5066 C 486.616 -0.120554 5.73273 0
M  V30 5067 N 486.112 -0.000180315 6.928 0
M  V30 5068 N 487.905 -0.174369 5.61829 0
M  V30 5069 H 480.056 0.942896 1.90324 0
M  V30 5070 H 482.319 0.3639 0.875375 0
M  V30 5071 H 482.025 0.784576 3.42837 0
M  V30 5072 H 481.899 -0.951565 3.65 0
M  V30 5073 H 484.286 -1.20876 2.69208 0
M  V30 5074 H 484.367 0.548177 2.49857 0
M  V30 5075 H 484.011 0.819073 5.01252 0
M  V30 5076 H 483.941 -0.953264 5.179 0
M  V30 5077 H 486.432 -0.283257 3.76837 0
M  V30 5078 H 486.745 0.0461666 7.72786 0
M  V30 5079 H 485.09 0.034569 6.94991 0
M  V30 5080 H 488.281 -0.266794 4.67339 0
M  V30 5081 H 488.454 -0.116802 6.47895 0
M  V30 5082 N 481.861 -1.55662 -0.24637 0
M  V30 5083 C 482.771 -1.93495 -1.32653 0
M  V30 5084 C 483.787 -0.835462 -1.5263 0
M  V30 5085 O 484.963 -1.1369 -1.66242 0
M  V30 5086 C 482.028 -2.22242 -2.66101 0
M  V30 5087 C 481.089 -3.45625 -2.54641 0
M  V30 5088 C 480.322 -3.72991 -3.81724 0
M  V30 5089 O 480.545 -3.02421 -4.8363 0
M  V30 5090 O 479.479 -4.66515 -3.80325 0
M  V30 5091 H 483.305 -2.85498 -1.03559 0
M  V30 5092 H 480.89 -1.42551 -0.44717 0
M  V30 5093 H 482.772 -2.42037 -3.44958 0
M  V30 5094 H 481.447 -1.33417 -2.94926 0
M  V30 5095 H 480.354 -3.31136 -1.74067 0
M  V30 5096 H 481.687 -4.34754 -2.3076 0
M  V30 5097 N 483.339 0.512053 -1.4905 0
M  V30 5098 C 484.272 1.63209 -1.59493 0
M  V30 5099 C 485.25 1.56407 -0.444481 0
M  V30 5100 O 486.434 1.76623 -0.658535 0
M  V30 5101 C 483.561 3.01685 -1.53961 0
M  V30 5102 C 482.607 3.26786 -2.74068 0
M  V30 5103 S 483.44 3.11107 -4.35859 0
M  V30 5104 C 484.596 4.51997 -4.32954 0
M  V30 5105 H 484.829 1.54104 -2.54243 0
M  V30 5106 H 482.362 0.696382 -1.37804 0
M  V30 5107 H 484.32 3.81538 -1.51455 0
M  V30 5108 H 482.981 3.08215 -0.605178 0
M  V30 5109 H 482.174 4.27849 -2.66386 0
M  V30 5110 H 481.776 2.54635 -2.73928 0
M  V30 5111 H 484.068 5.43871 -4.03993 0
M  V30 5112 H 485.011 4.64731 -5.34257 0
M  V30 5113 H 485.419 4.32159 -3.63178 0
M  V30 5114 N 484.817 1.37938 0.762283 0
M  V30 5115 C 486.064 1.33668 1.52115 0
M  V30 5116 C 486.392 -0.0759538 1.94352 0
M  V30 5117 O 485.647 -1.05121 1.6507 0
M  V30 5118 C 485.946 2.23042 2.79261 0
M  V30 5119 C 485.612 3.71159 2.56031 0
M  V30 5120 C 484.274 4.11523 2.49404 0
M  V30 5121 C 486.626 4.64955 2.35513 0
M  V30 5122 C 483.954 5.43784 2.20263 0
M  V30 5123 C 486.306 5.97464 2.07894 0
M  V30 5124 C 484.97 6.36922 1.99718 0
M  V30 5125 H 484.24 0.489127 0.556629 0
M  V30 5126 H 486.887 1.70224 0.877262 0
M  V30 5127 H 485.192 1.79512 3.48256 0
M  V30 5128 H 486.889 2.17047 3.37182 0
M  V30 5129 H 483.479 3.39153 2.62056 0
M  V30 5130 H 487.663 4.34623 2.39617 0
M  V30 5131 H 482.919 5.73307 2.12435 0
M  V30 5132 H 487.093 6.6969 1.91019 0
M  V30 5133 H 484.72 7.39331 1.76902 0
M  V30 5134 N 486.295 -0.989507 1.22664 0
M  V30 5135 C 487.543 -1.72612 1.05117 0
M  V30 5136 C 487.864 -1.90552 -0.414131 0
M  V30 5137 O 487.134 -1.4676 -1.29762 0
M  V30 5138 H 485.714 -0.639555 0.385977 0
M  V30 5139 H 488.376 -1.19158 1.54232 0
M  V30 5140 H 487.472 -2.71926 1.53175 0
M  V30 5141 N 487.773 -1.03688 -1.18687 0
M  V30 5142 C 488.998 -0.757819 -1.93059 0
M  V30 5143 C 489.423 0.678353 -1.75442 0
M  V30 5144 O 488.781 1.46938 -1.06203 0
M  V30 5145 C 488.829 -1.12423 -3.42627 0
M  V30 5146 O 487.933 -0.247505 -4.11657 0
M  V30 5147 H 487.274 -0.279245 -0.602427 0
M  V30 5148 H 489.804 -1.3857 -1.5053 0
M  V30 5149 H 489.814 -1.08454 -3.93322 0
M  V30 5150 H 488.489 -2.17049 -3.54771 0
M  V30 5151 H 487.066 -0.34649 -3.71287 0
M  V30 5152 N 489.251 1.34841 -0.815825 0
M  V30 5153 C 490.499 1.98107 -0.399744 0
M  V30 5154 C 490.82 1.65019 1.03894 0
M  V30 5155 O 490.09 0.937311 1.72021 0
M  V30 5156 H 488.67 0.732827 -0.144823 0
M  V30 5157 H 491.332 1.64599 -1.0437 0
M  V30 5158 H 490.428 3.07856 -0.512965 0
M  V30 5159 N 490.729 0.570148 1.46925 0
M  V30 5160 C 491.957 0.0561966 2.06824 0
M  V30 5161 C 492.372 -1.24326 1.42086 0
M  V30 5162 O 491.729 -1.74882 0.521794 0
M  V30 5163 C 491.78 -0.129517 3.61268 0
M  V30 5164 O 491.501 1.1185 4.23581 0
M  V30 5165 C 493.002 -0.679266 4.38065 0
M  V30 5166 H 490.222 0.0517261 0.669003 0
M  V30 5167 H 492.766 0.787243 1.8874 0
M  V30 5168 H 490.921 -0.810739 3.78822 0
M  V30 5169 H 491.335 0.924375 5.1629 0
M  V30 5170 H 492.809 -0.758445 5.46765 0
M  V30 5171 H 493.286 -1.69346 4.05239 0
M  V30 5172 H 493.892 -0.0333237 4.25287 0
M  V30 5173 N 492.207 -1.54576 0.307264 0
M  V30 5174 C 493.17 -2.22423 -0.553224 0
M  V30 5175 C 494.17 -1.21231 -1.05639 0
M  V30 5176 O 495.36 -1.45923 -0.951419 0
M  V30 5177 C 492.492 -2.91552 -1.76664 0
M  V30 5178 H 493.685 -2.99874 0.0396484 0
M  V30 5179 H 491.238 -1.56192 0.0581629 0
M  V30 5180 H 491.973 -2.18196 -2.39918 0
M  V30 5181 H 491.758 -3.65738 -1.41343 0
M  V30 5182 H 493.248 -3.43292 -2.37783 0
M  V30 5183 N 493.685 -0.035106 -1.57561 0
M  V30 5184 C 494.925 0.646316 -1.93913 0
M  V30 5185 C 495.289 1.68947 -0.912185 0
M  V30 5186 O 496.49 2.42381 -1.1621 0
M  V30 5187 C 494.761 1.24136 -3.35149 0
M  V30 5188 S 496.32 1.94302 -3.93436 0
M  V30 5189 H 493.138 0.212642 -0.678457 0
M  V30 5190 H 495.74 -0.100203 -1.95243 0
M  V30 5191 H 494.444 0.46979 -4.07702 0
M  V30 5192 H 493.975 2.02505 -3.37276 0
M  V30 5193 H 495.99 3.22205 -3.77357 0
M  V30 5194 N 495.163 1.55791 0.238111 0
M  V30 5195 C 496.409 1.78297 0.966337 0
M  V30 5196 C 496.742 0.601903 1.84637 0
M  V30 5197 O 496.017 -0.399499 1.90353 0
M  V30 5198 C 496.3 3.10758 1.81939 0
M  V30 5199 C 496.153 4.39283 0.966958 0
M  V30 5200 C 497.472 3.39519 2.80027 0
M  V30 5201 H 494.591 0.648654 0.349882 0
M  V30 5202 H 497.233 1.88525 0.236253 0
M  V30 5203 H 495.383 3.02168 2.44185 0
M  V30 5204 H 497.055 4.59873 0.362514 0
M  V30 5205 H 495.298 4.32948 0.271669 0
M  V30 5206 H 495.969 5.28368 1.59784 0
M  V30 5207 H 498.445 3.48128 2.27917 0
M  V30 5208 H 497.321 4.33402 3.36829 0
M  V30 5209 H 497.582 2.60864 3.56934 0
M  V30 5210 N 496.642 -0.504142 1.49319 0
M  V30 5211 C 497.888 -1.26033 1.58882 0
M  V30 5212 C 498.221 -1.92268 0.273274 0
M  V30 5213 O 497.496 -1.80567 -0.72291 0
M  V30 5214 C 497.779 -2.32976 2.7458 0
M  V30 5215 C 497.632 -1.71263 4.1592 0
M  V30 5216 C 498.951 -3.34561 2.85932 0
M  V30 5217 H 496.07 -0.456863 0.578312 0
M  V30 5218 H 498.712 -0.558965 1.81592 0
M  V30 5219 H 496.862 -2.92796 2.55348 0
M  V30 5220 H 498.534 -1.15294 4.4666 0
M  V30 5221 H 496.777 -1.01686 4.21714 0
M  V30 5222 H 497.448 -2.48816 4.92742 0
M  V30 5223 H 499.924 -2.84727 3.0343 0
M  V30 5224 H 498.8 -4.06754 3.68568 0
M  V30 5225 H 499.061 -3.96695 1.95154 0
M  V30 5226 N 498.12 -1.38341 -0.754957 0
M  V30 5227 C 499.36 -1.35888 -1.52689 0
M  V30 5228 C 499.724 0.0513682 -1.91931 0
M  V30 5229 O 500.925 0.200761 -2.68049 0
M  V30 5230 C 499.196 -2.28666 -2.74676 0
M  V30 5231 S 500.755 -2.4422 -3.64558 0
M  V30 5232 H 497.573 -0.482165 -0.522531 0
M  V30 5233 H 500.175 -1.74253 -0.886358 0
M  V30 5234 H 498.879 -3.30023 -2.43953 0
M  V30 5235 H 498.41 -1.91445 -3.43675 0
M  V30 5236 H 500.425 -1.66525 -4.67423 0
M  V30 5237 N 499.598 0.982988 -1.23187 0
M  V30 5238 C 501.009 1.53847 -1.05773 0
M  V30 5239 C 501.36 1.92568 0.375744 0
M  V30 5240 O 500.485 1.75783 1.26211 0
M  V30 5241 C 501.08 2.79567 -1.91384 0
M  V30 5242 C 499.639 3.31524 -1.78238 0
M  V30 5243 C 498.786 2.04534 -1.87246 0
M  V30 5244 H 501.737 0.802962 -1.36888 0
M  V30 5245 H 501.758 3.52317 -1.43711 0
M  V30 5246 H 501.27 2.51353 -2.95708 0
M  V30 5247 H 499.371 3.64623 -0.766875 0
M  V30 5248 H 499.484 4.01457 -2.61475 0
M  V30 5249 H 497.848 2.1855 -1.30797 0
M  V30 5250 H 498.631 1.78706 -2.9312 0
M  V30 5251 N 501.076 1.04316 1.18135 0
M  V30 5252 C 502.322 0.749128 1.88457 0
M  V30 5253 C 502.655 -0.72149 1.803 0
M  V30 5254 O 501.93 -1.52676 1.205 0
M  V30 5255 C 502.213 1.21905 3.38838 0
M  V30 5256 C 502.066 2.75195 3.55792 0
M  V30 5257 C 503.385 0.811085 4.32561 0
M  V30 5258 H 500.504 0.273611 0.684329 0
M  V30 5259 H 503.146 1.29561 1.38975 0
M  V30 5260 H 501.296 0.754137 3.8111 0
M  V30 5261 H 502.968 3.29743 3.22595 0
M  V30 5262 H 501.211 3.14899 2.98364 0
M  V30 5263 H 501.882 3.03135 4.61317 0
M  V30 5264 H 504.358 1.21118 3.98082 0
M  V30 5265 H 503.234 1.16761 5.36338 0
M  V30 5266 H 503.495 -0.285596 4.41177 0
M  V30 5267 N 502.554 -1.34406 0.822964 0
M  V30 5268 C 503.779 -2.0304 0.423034 0
M  V30 5269 C 504.204 -1.61568 -0.963196 0
M  V30 5270 O 503.562 -0.800339 -1.62678 0
M  V30 5271 C 503.61 -3.56636 0.53321 0
M  V30 5272 O 502.714 -4.09971 -0.446939 0
M  V30 5273 H 502.055 -0.64075 0.174171 0
M  V30 5274 H 504.585 -1.71653 1.11339 0
M  V30 5275 H 504.595 -4.05945 0.408991 0
M  V30 5276 H 503.27 -3.86168 1.54425 0
M  V30 5277 H 501.847 -3.71835 -0.281601 0
M  V30 5278 N 504.032 -0.577932 -1.46621 0
M  V30 5279 C 505.309 0.00495287 -1.95599 0
M  V30 5280 C 505.689 1.46428 -1.5206 0
M  V30 5281 O 505.037 2.1517 -0.769046 0
M  V30 5282 C 505.247 -0.162114 -3.48623 0
M  V30 5283 C 506.595 -0.0274623 -4.24591 0
M  V30 5284 O 507.619 -0.0907067 -3.56084 0
M  V30 5285 O 506.478 0.1122 -5.46385 0
M  V30 5286 H 503.572 0.0525057 -0.825332 0
M  V30 5287 H 506.118 -0.645914 -1.56927 0
M  V30 5288 H 504.89 -1.17679 -3.73185 0
M  V30 5289 H 504.513 0.525407 -3.94113 0
M  V30 5290 N 505.51 1.54411 -0.315457 0
M  V30 5291 C 506.759 1.99599 0.290395 0
M  V30 5292 C 507.072 1.20746 1.53882 0
M  V30 5293 O 508.278 1.56272 2.22017 0
M  V30 5294 C 506.734 3.5539 0.56797 0
M  V30 5295 C 506.342 4.43068 -0.662945 0
M  V30 5296 C 508.086 4.09067 1.13422 0
M  V30 5297 C 505.993 5.90317 -0.357722 0
M  V30 5298 H 504.923 0.745592 0.112286 0
M  V30 5299 H 507.574 1.78477 -0.426418 0
M  V30 5300 H 505.956 3.72468 1.34476 0
M  V30 5301 H 507.13 4.37765 -1.43869 0
M  V30 5302 H 505.445 4.00238 -1.14884 0
M  V30 5303 H 508.042 5.16663 1.37707 0
M  V30 5304 H 508.385 3.60552 2.08106 0
M  V30 5305 H 508.918 3.95589 0.418805 0
M  V30 5306 H 505.657 6.4301 -1.27351 0
M  V30 5307 H 505.177 5.98592 0.380472 0
M  V30 5308 H 506.856 6.4699 0.0354284 0
M  V30 5309 N 506.988 0.0434614 1.5754 0
M  V30 5310 C 507.918 -0.931651 2.14109 0
M  V30 5311 C 508.899 -1.32971 1.06079 0
M  V30 5312 O 510.084 -1.40579 1.33982 0
M  V30 5313 C 507.214 -2.20914 2.67982 0
M  V30 5314 C 506.168 -1.95139 3.80926 0
M  V30 5315 C 505.494 -3.29276 4.21285 0
M  V30 5316 C 506.794 -1.27913 5.06395 0
M  V30 5317 H 508.488 -0.460497 2.95837 0
M  V30 5318 H 506.034 -0.220058 1.42309 0
M  V30 5319 H 507.987 -2.89522 3.06194 0
M  V30 5320 H 506.711 -2.70221 1.83434 0
M  V30 5321 H 505.37 -1.28945 3.43175 0
M  V30 5322 H 505.018 -3.76369 3.33699 0
M  V30 5323 H 504.718 -3.12831 4.97404 0
M  V30 5324 H 506.242 -3.99129 4.62091 0
M  V30 5325 H 507.656 -1.86544 5.42102 0
M  V30 5326 H 506.053 -1.2182 5.87605 0
M  V30 5327 H 507.123 -0.254066 4.84234 0
M  V30 5328 N 508.466 -1.55915 -0.229846 0
M  V30 5329 C 509.696 -1.82352 -0.971152 0
M  V30 5330 C 510.104 -0.619231 -1.7878 0
M  V30 5331 O 509.447 0.421597 -1.78797 0
M  V30 5332 C 509.509 -3.02399 -1.9441 0
M  V30 5333 C 509.173 -4.37739 -1.31277 0
M  V30 5334 C 510.17 -5.15074 -0.706757 0
M  V30 5335 C 507.855 -4.84454 -1.32702 0
M  V30 5336 C 509.849 -6.37281 -0.123413 0
M  V30 5337 C 507.536 -6.06605 -0.739831 0
M  V30 5338 C 508.534 -6.82858 -0.139071 0
M  V30 5339 O 508.222 -8.027 0.439007 0
M  V30 5340 H 507.954 -0.61035 -0.290601 0
M  V30 5341 H 510.508 -2.03839 -0.252746 0
M  V30 5342 H 508.738 -2.76709 -2.70128 0
M  V30 5343 H 510.427 -3.15779 -2.55026 0
M  V30 5344 H 511.193 -4.80093 -0.688131 0
M  V30 5345 H 507.072 -4.25081 -1.78402 0
M  V30 5346 H 510.616 -6.96741 0.346124 0
M  V30 5347 H 506.513 -6.4106 -0.755841 0
M  V30 5348 H 507.281 -8.17824 0.332521 0
M  V30 5349 N 509.944 0.496216 -1.49584 0
M  V30 5350 C 510.891 1.59722 -1.66606 0
M  V30 5351 C 511.861 1.58158 -0.507477 0
M  V30 5352 O 513.046 1.76072 -0.735076 0
M  V30 5353 C 510.186 2.97844 -1.74308 0
M  V30 5354 C 509.299 3.09388 -3.01502 0
M  V30 5355 C 508.434 4.38271 -3.00153 0
M  V30 5356 C 507.473 4.43466 -4.21906 0
M  V30 5357 N 506.61 5.63784 -4.1844 0
M  V30 5358 H 511.45 1.44515 -2.60613 0
M  V30 5359 H 508.987 0.703048 -1.29212 0
M  V30 5360 H 510.945 3.77907 -1.76754 0
M  V30 5361 H 509.575 3.11743 -0.837619 0
M  V30 5362 H 508.627 2.22357 -3.08645 0
M  V30 5363 H 509.939 3.09085 -3.91494 0
M  V30 5364 H 509.093 5.2666 -3.01188 0
M  V30 5365 H 507.832 4.41146 -2.07947 0
M  V30 5366 H 506.837 3.53478 -4.21109 0
M  V30 5367 H 508.062 4.42303 -5.1531 0
M  V30 5368 H 506.008 5.67491 -3.29074 0
M  V30 5369 H 505.925 5.65118 -5.02173 0
M  V30 5370 H 507.193 6.54367 -4.23585 0
M  V30 5371 N 511.423 1.38739 0.74761 0
M  V30 5372 C 512.671 1.35007 1.50391 0
M  V30 5373 C 512.992 -0.0574274 1.94915 0
M  V30 5374 O 512.262 -1.00628 1.6808 0
M  V30 5375 H 510.842 0.496784 0.557866 0
M  V30 5376 H 513.504 1.73479 0.888319 0
M  V30 5377 H 512.6 2.00474 2.392 0
M  V30 5378 N 512.901 -0.976442 1.23707 0
M  V30 5379 C 513.811 -2.10359 1.03856 0
M  V30 5380 C 514.827 -1.73991 -0.0180919 0
M  V30 5381 O 516.003 -2.0061 0.178211 0
M  V30 5382 C 513.068 -3.40809 0.636387 0
M  V30 5383 C 512.129 -3.91179 1.76854 0
M  V30 5384 C 511.362 -5.15404 1.38546 0
M  V30 5385 O 511.585 -5.69754 0.27142 0
M  V30 5386 O 510.519 -5.5994 2.20797 0
M  V30 5387 H 514.345 -2.29997 1.98331 0
M  V30 5388 H 511.93 -1.08742 1.02448 0
M  V30 5389 H 513.812 -4.19269 0.423223 0
M  V30 5390 H 512.487 -3.22493 -0.279322 0
M  V30 5391 H 511.394 -3.13819 2.03638 0
M  V30 5392 H 512.727 -4.13958 2.6627 0
M  V30 5393 N 514.379 -1.04941 -1.1758 0
M  V30 5394 C 515.607 -0.778294 -1.91703 0
M  V30 5395 C 516.022 0.665697 -1.76675 0
M  V30 5396 O 515.379 1.45456 -1.10222 0
M  V30 5397 C 515.43 -1.14628 -3.42845 0
M  V30 5398 O 515.151 -2.53359 -3.57409 0
M  V30 5399 C 516.652 -0.900931 -4.34049 0
M  V30 5400 H 513.872 -0.283167 -0.608323 0
M  V30 5401 H 516.416 -1.39942 -1.49119 0
M  V30 5402 H 514.571 -0.569953 -3.83184 0
M  V30 5403 H 514.985 -2.67709 -4.51035 0
M  V30 5404 H 516.459 -1.20817 -5.38616 0
M  V30 5405 H 516.936 0.163966 -4.38894 0
M  V30 5406 H 517.542 -1.46097 -3.99419 0
M  V30 5407 N 515.857 1.33968 -0.830081 0
M  V30 5408 C 517.106 1.97323 -0.417928 0
M  V30 5409 C 517.419 1.6652 1.02618 0
M  V30 5410 O 518.625 2.2342 1.54259 0
M  V30 5411 C 517.081 3.53099 -0.696359 0
M  V30 5412 C 516.689 3.92788 -2.15457 0
M  V30 5413 C 518.433 4.23049 -0.350724 0
M  V30 5414 C 516.34 5.41506 -2.37751 0
M  V30 5415 H 515.27 0.738409 -0.152541 0
M  V30 5416 H 517.921 1.52711 -1.01744 0
M  V30 5417 H 516.303 3.95991 -0.0265904 0
M  V30 5418 H 517.477 3.6098 -2.86408 0
M  V30 5419 H 515.792 3.35795 -2.46232 0
M  V30 5420 H 518.389 5.32403 -0.495036 0
M  V30 5421 H 518.732 4.10279 0.705476 0
M  V30 5422 H 519.265 3.85657 -0.975362 0
M  V30 5423 H 516.004 5.5927 -3.41903 0
M  V30 5424 H 515.524 5.74804 -1.7135 0
M  V30 5425 H 517.203 6.0828 -2.20465 0
M  V30 5426 N 517.335 0.585699 1.46312 0
M  V30 5427 C 518.285 -0.166813 2.27389 0
M  V30 5428 C 519.269 -0.859076 1.36047 0
M  V30 5429 O 520.461 -0.752678 1.60199 0
M  V30 5430 C 517.59 -1.17791 3.2246 0
M  V30 5431 C 516.676 -0.487605 4.21288 0
M  V30 5432 N 517.067 0.45849 5.03718 0
M  V30 5433 C 515.365 -0.737971 4.39852 0
M  V30 5434 C 516.066 0.862213 5.75275 0
M  V30 5435 N 515.042 0.210707 5.43191 0
M  V30 5436 H 518.844 0.560167 2.88512 0
M  V30 5437 H 516.358 0.407715 1.57199 0
M  V30 5438 H 518.355 -1.73122 3.79255 0
M  V30 5439 H 517.015 -1.90568 2.62896 0
M  V30 5440 H 518.026 0.834163 5.11138 0
M  V30 5441 H 514.703 -1.45209 3.91434 0
M  V30 5442 H 516.093 1.64128 6.51546 0
M  V30 5443 N 518.813 -1.54241 0.323641 0
M  V30 5444 C 520.062 -1.9975 -0.279806 0
M  V30 5445 C 520.375 -1.2156 -1.5324 0
M  V30 5446 O 521.581 -1.57447 -2.21185 0
M  V30 5447 C 520.037 -3.55686 -0.549115 0
M  V30 5448 C 519.645 -4.4271 0.686432 0
M  V30 5449 C 521.389 -4.09663 -1.11251 0
M  V30 5450 C 519.296 -5.90119 0.389022 0
M  V30 5451 H 518.226 -0.746177 -0.10833 0
M  V30 5452 H 520.877 -1.78248 0.435877 0
M  V30 5453 H 519.259 -3.73176 -1.32499 0
M  V30 5454 H 520.433 -4.36996 1.46188 0
M  V30 5455 H 518.748 -3.99623 1.17005 0
M  V30 5456 H 521.345 -5.17386 -1.34965 0
M  V30 5457 H 521.688 -3.61651 -2.06191 0
M  V30 5458 H 522.221 -3.95806 -0.39782 0
M  V30 5459 H 518.96 -6.42326 1.30759 0
M  V30 5460 H 518.48 -5.98785 -0.348722 0
M  V30 5461 H 520.159 -6.47 -0.0011164 0
M  V30 5462 N 520.291 -0.0518155 -1.57515 0
M  V30 5463 C 521.702 0.483787 -1.80323 0
M  V30 5464 C 522.053 1.70879 -0.964099 0
M  V30 5465 O 521.178 2.15643 -0.180872 0
M  V30 5466 C 521.773 0.884459 -3.27052 0
M  V30 5467 C 520.332 1.36504 -3.50776 0
M  V30 5468 C 519.479 0.340539 -2.75201 0
M  V30 5469 H 522.43 -0.277691 -1.56252 0
M  V30 5470 H 522.451 1.74733 -3.38007 0
M  V30 5471 H 521.963 -0.00731093 -3.88099 0
M  V30 5472 H 520.064 2.27598 -2.95009 0
M  V30 5473 H 520.177 1.35675 -4.59488 0
M  V30 5474 H 518.541 0.81356 -2.41357 0
M  V30 5475 H 519.324 -0.543156 -3.38976 0
M  V30 5476 N 521.769 1.56035 0.221574 0
M  V30 5477 C 522.997 1.8313 0.962864 0
M  V30 5478 C 523.412 0.630934 1.77946 0
M  V30 5479 O 522.769 -0.400519 1.78051 0
M  V30 5480 C 522.82 3.08742 1.88045 0
M  V30 5481 O 522.541 4.24147 1.09686 0
M  V30 5482 C 524.042 3.48824 2.73563 0
M  V30 5483 H 521.262 0.608775 0.282194 0
M  V30 5484 H 523.806 2.03124 0.23681 0
M  V30 5485 H 521.961 2.90723 2.56045 0
M  V30 5486 H 522.375 4.95505 1.71974 0
M  V30 5487 H 523.849 4.39752 3.3365 0
M  V30 5488 H 524.326 2.70575 3.45956 0
M  V30 5489 H 524.932 3.69282 2.10976 0
M  V30 5490 N 523.247 -0.488276 1.49845 0
M  V30 5491 C 524.18 -1.60651 1.62069 0
M  V30 5492 C 525.158 -1.5568 0.469308 0
M  V30 5493 O 526.342 -1.75553 0.686551 0
M  V30 5494 C 523.469 -2.99197 1.58741 0
M  V30 5495 C 522.515 -3.22385 2.79232 0
M  V30 5496 S 523.348 -3.04133 4.40753 0
M  V30 5497 C 524.504 -4.45052 4.4009 0
M  V30 5498 H 524.737 -1.50039 2.56662 0
M  V30 5499 H 522.27 -0.674371 1.38894 0
M  V30 5500 H 524.228 -3.79081 1.57506 0
M  V30 5501 H 522.889 -3.07213 0.654136 0
M  V30 5502 H 522.082 -4.23557 2.73159 0
M  V30 5503 H 521.684 -2.50245 2.77945 0
M  V30 5504 H 523.976 -5.37375 4.12594 0
M  V30 5505 H 524.919 -4.56172 5.41583 0
M  V30 5506 H 525.327 -4.26327 3.70008 0
M  V30 5507 N 524.725 -1.39134 -0.740242 0
M  V30 5508 C 525.635 -1.39697 -1.88473 0
M  V30 5509 C 526.651 -0.292403 -1.71526 0
M  V30 5510 O 527.827 -0.533021 -1.94219 0
M  V30 5511 C 524.892 -1.23382 -3.24003 0
M  V30 5512 C 523.953 -2.43763 -3.53381 0
M  V30 5513 C 523.186 -2.28216 -4.82445 0
M  V30 5514 O 523.409 -1.28288 -5.55786 0
M  V30 5515 O 522.343 -3.1709 -5.11603 0
M  V30 5516 H 526.169 -2.36159 -1.90952 0
M  V30 5517 H 523.754 -1.20194 -0.887346 0
M  V30 5518 H 525.636 -1.16395 -4.05006 0
M  V30 5519 H 524.311 -0.300121 -3.22306 0
M  V30 5520 H 523.218 -2.56325 -2.72485 0
M  V30 5521 H 524.551 -3.35808 -3.59852 0
M  V30 5522 N 526.204 0.969867 -1.24223 0
M  V30 5523 C 527.152 2.08535 -1.03034 0
M  V30 5524 C 528.146 1.69366 0.0340379 0
M  V30 5525 O 529.352 1.79597 -0.12034 0
M  V30 5526 H 525.727 0.682313 -0.316154 0
M  V30 5527 H 527.698 2.23569 -1.97635 0
M  V30 5528 C 526.447 3.4158 -0.649509 0
M  V30 5529 H 525.77 3.72177 -1.46028 0
M  V30 5530 H 527.21 4.20536 -0.540841 0
M  V30 5531 C 525.669 3.30703 0.643194 0
M  V30 5532 O 526.199 3.64443 1.68951 0
M  V30 5533 N 524.405 2.83841 0.623095 0
M  V30 5534 H 523.952 2.56583 -0.228719 0
M  V30 5535 H 523.91 2.76946 1.48823 0
M  V30 5536 N 527.682 1.05563 1.17022 0
M  V30 5537 C 528.93 0.76642 1.87004 0
M  V30 5538 C 529.251 -0.708854 1.8166 0
M  V30 5539 O 528.521 -1.51242 1.2451 0
M  V30 5540 H 527.101 0.280516 0.692329 0
M  V30 5541 H 529.763 1.33557 1.41945 0
M  V30 5542 H 528.859 1.08472 2.92644 0
M  V30 5543 N 529.16 -1.33526 0.837174 0
M  V30 5544 C 530.571 -1.80182 0.489017 0
M  V30 5545 C 530.922 -1.69285 -0.991826 0
M  V30 5546 O 530.047 -1.24113 -1.77271 0
M  V30 5547 C 530.642 -3.27149 0.880866 0
M  V30 5548 C 529.201 -3.71828 0.584872 0
M  V30 5549 C 528.348 -2.54974 1.09011 0
M  V30 5550 H 531.299 -1.21071 1.02603 0
M  V30 5551 H 531.32 -3.80024 0.190239 0
M  V30 5552 H 530.832 -3.35048 1.95869 0
M  V30 5553 H 528.933 -3.69457 -0.48295 0
M  V30 5554 H 529.046 -4.65366 1.13892 0
M  V30 5555 H 527.41 -2.4952 0.511047 0
M  V30 5556 H 528.193 -2.65637 2.17467 0
M  V30 5557 N 530.638 -0.59345 -1.46 0
M  V30 5558 C 531.585 0.133618 -2.30413 0
M  V30 5559 C 532.555 0.873736 -1.41262 0
M  V30 5560 O 533.74 0.862279 -1.70204 0
M  V30 5561 C 530.88 1.13434 -3.25924 0
M  V30 5562 C 529.993 0.39656 -4.30176 0
M  V30 5563 C 529.128 1.38575 -5.12806 0
M  V30 5564 C 528.167 0.634984 -6.08797 0
M  V30 5565 N 527.304 1.57276 -6.84258 0
M  V30 5566 H 532.144 -0.592252 -2.92055 0
M  V30 5567 H 529.681 -0.303874 -1.43927 0
M  V30 5568 H 531.639 1.72752 -3.79753 0
M  V30 5569 H 530.269 1.82779 -2.66067 0
M  V30 5570 H 529.321 -0.311861 -3.79119 0
M  V30 5571 H 530.633 -0.189869 -4.98438 0
M  V30 5572 H 529.787 2.05141 -5.70966 0
M  V30 5573 H 528.526 2.00611 -4.44529 0
M  V30 5574 H 527.531 -0.0443925 -5.49782 0
M  V30 5575 H 528.756 0.0198678 -6.79097 0
M  V30 5576 H 526.702 2.18103 -6.18682 0
M  V30 5577 H 526.619 1.03941 -7.48821 0
M  V30 5578 H 527.887 2.22844 -7.46968 0
M  V30 5579 N 532.116 1.54067 -0.331816 0
M  V30 5580 C 533.046 2.27569 0.522932 0
M  V30 5581 C 534.027 1.28679 1.11247 0
M  V30 5582 O 535.212 1.57504 1.13605 0
M  V30 5583 C 532.342 3.0397 1.67987 0
M  V30 5584 C 531.296 4.10267 1.21924 0
M  V30 5585 C 530.622 4.74555 2.46377 0
M  V30 5586 C 531.922 5.21268 0.32815 0
M  V30 5587 H 533.616 2.99264 -0.0901977 0
M  V30 5588 H 531.162 1.4393 -0.044821 0
M  V30 5589 H 533.115 3.54123 2.28418 0
M  V30 5590 H 531.839 2.29906 2.31971 0
M  V30 5591 H 530.498 3.61009 0.637809 0
M  V30 5592 H 530.146 3.97098 3.08743 0
M  V30 5593 H 529.846 5.46363 2.16243 0
M  V30 5594 H 531.37 5.27487 3.07555 0
M  V30 5595 H 532.784 5.67128 0.838978 0
M  V30 5596 H 531.181 5.99982 0.119228 0
M  V30 5597 H 532.251 4.80673 -0.638839 0
M  V30 5598 N 533.594 0.0601682 1.57485 0
M  V30 5599 C 534.557 -0.896373 2.10945 0
M  V30 5600 C 535.557 -1.23402 1.03095 0
M  V30 5601 O 536.747 -1.16921 1.29132 0
M  V30 5602 C 533.879 -2.20346 2.60116 0
M  V30 5603 H 535.072 -0.432778 2.96761 0
M  V30 5604 H 532.625 -0.188372 1.55161 0
M  V30 5605 H 533.36 -2.71268 1.7772 0
M  V30 5606 H 533.145 -1.9714 3.38937 0
M  V30 5607 H 534.635 -2.88846 3.01592 0
M  V30 5608 N 535.072 -1.5615 -0.213296 0
M  V30 5609 C 536.297 -1.83986 -0.957282 0
M  V30 5610 C 536.722 -0.641526 -1.76822 0
M  V30 5611 O 536.08 0.409722 -1.7661 0
M  V30 5612 C 536.128 -3.09889 -1.84393 0
M  V30 5613 O 535.232 -2.89163 -2.94038 0
M  V30 5614 H 534.573 -0.606357 -0.270605 0
M  V30 5615 H 537.103 -2.03369 -0.224111 0
M  V30 5616 H 537.113 -3.40209 -2.25215 0
M  V30 5617 H 535.788 -3.96735 -1.24795 0
M  V30 5618 H 534.365 -2.70097 -2.57103 0
M  V30 5619 N 536.55 0.480323 -1.50102 0
M  V30 5620 C 537.966 0.813295 -1.37323 0
M  V30 5621 C 538.166 1.97027 -0.422206 0
M  V30 5622 O 537.222 2.5212 0.138563 0
M  V30 5623 C 538.535 1.13404 -2.78496 0
M  V30 5624 C 540.083 1.24104 -2.87345 0
M  V30 5625 C 540.558 1.59497 -4.29331 0
M  V30 5626 N 542.049 1.66507 -4.32238 0
M  V30 5627 C 542.784 1.95378 -5.39087 0
M  V30 5628 N 542.28 2.22333 -6.56155 0
M  V30 5629 N 544.073 1.96803 -5.26522 0
M  V30 5630 H 536.224 -0.282291 -2.10516 0
M  V30 5631 H 538.487 -0.063752 -0.945854 0
M  V30 5632 H 538.193 0.357064 -3.49883 0
M  V30 5633 H 538.067 2.07251 -3.15162 0
M  V30 5634 H 540.454 2.00871 -2.16183 0
M  V30 5635 H 540.535 0.282593 -2.54234 0
M  V30 5636 H 540.179 0.832736 -5.01027 0
M  V30 5637 H 540.109 2.56477 -4.59921 0
M  V30 5638 H 542.6 1.47753 -3.47818 0
M  V30 5639 H 542.913 2.43611 -7.33399 0
M  V30 5640 H 541.258 2.19745 -6.59346 0
M  V30 5641 H 544.449 1.75235 -4.34062 0
M  V30 5642 H 544.622 2.18969 -6.09883 0
M  V30 5643 N 538.028 1.39524 0.732853 0
M  V30 5644 C 539.277 1.36175 1.48792 0
M  V30 5645 C 539.59 -0.0388195 1.95561 0
M  V30 5646 O 540.796 -0.194899 2.708 0
M  V30 5647 C 539.252 2.39242 2.68871 0
M  V30 5648 C 538.86 3.85024 2.29042 0
M  V30 5649 C 540.604 2.44972 3.46683 0
M  V30 5650 C 538.511 4.79727 3.45856 0
M  V30 5651 H 537.441 0.506267 0.558757 0
M  V30 5652 H 540.092 1.65181 0.799226 0
M  V30 5653 H 538.474 2.0331 3.39825 0
M  V30 5654 H 539.648 4.30008 1.6562 0
M  V30 5655 H 537.963 3.82609 1.64316 0
M  V30 5656 H 540.56 3.12918 4.33574 0
M  V30 5657 H 540.903 1.4749 3.89297 0
M  V30 5658 H 541.436 2.79808 2.82759 0
M  V30 5659 H 538.175 5.78479 3.08289 0
M  V30 5660 H 537.695 4.39421 4.08251 0
M  V30 5661 H 539.374 4.98731 4.12161 0
M  V30 5662 N 539.506 -0.963266 1.24736 0
M  V30 5663 C 540.436 -2.07628 1.06832 0
M  V30 5664 C 541.417 -1.70088 -0.0200566 0
M  V30 5665 O 542.602 -1.93636 0.147854 0
M  V30 5666 C 539.732 -3.40636 0.677069 0
M  V30 5667 C 538.686 -3.9215 1.71471 0
M  V30 5668 C 538.012 -5.21553 1.1784 0
M  V30 5669 C 539.312 -4.19493 3.11164 0
M  V30 5670 H 541.006 -2.22864 1.9993 0
M  V30 5671 H 538.552 -1.07093 0.96266 0
M  V30 5672 H 540.505 -4.17941 0.538792 0
M  V30 5673 H 539.229 -3.25313 -0.289612 0
M  V30 5674 H 537.888 -3.17005 1.84128 0
M  V30 5675 H 537.536 -5.02593 0.202195 0
M  V30 5676 H 537.236 -5.56988 1.87185 0
M  V30 5677 H 538.76 -6.01463 1.05233 0
M  V30 5678 H 540.174 -4.87487 3.01711 0
M  V30 5679 H 538.571 -4.66165 3.77902 0
M  V30 5680 H 539.641 -3.26097 3.58871 0
M  V30 5681 N 540.985 -1.06182 -1.16461 0
M  V30 5682 C 542.21 -0.798599 -1.91408 0
M  V30 5683 C 542.635 0.640987 -1.76842 0
M  V30 5684 O 541.993 1.44652 -1.09296 0
M  V30 5685 C 542.041 -1.19665 -3.40165 0
M  V30 5686 O 541.145 -0.334768 -4.11039 0
M  V30 5687 H 540.486 -0.291961 -0.596368 0
M  V30 5688 H 543.016 -1.41732 -1.47557 0
M  V30 5689 H 543.026 -1.16772 -3.90933 0
M  V30 5690 H 541.701 -2.24526 -3.50087 0
M  V30 5691 H 540.278 -0.425168 -3.70468 0
M  V30 5692 N 542.463 1.3308 -0.844243 0
M  V30 5693 C 543.41 2.29104 -0.279323 0
M  V30 5694 C 544.38 1.54577 0.607882 0
M  V30 5695 O 545.565 1.8285 0.545009 0
M  V30 5696 C 542.705 3.40927 0.53508 0
M  V30 5697 C 541.818 4.30354 -0.376749 0
M  V30 5698 C 540.953 5.29297 0.449276 0
M  V30 5699 C 539.992 6.10365 -0.460606 0
M  V30 5700 N 539.129 7.01335 0.327612 0
M  V30 5701 H 543.969 2.76817 -1.10346 0
M  V30 5702 H 541.506 1.36203 -0.555611 0
M  V30 5703 H 543.464 4.04469 1.02278 0
M  V30 5704 H 542.094 2.94391 1.32414 0
M  V30 5705 H 541.146 3.67485 -0.982791 0
M  V30 5706 H 542.458 4.87067 -1.07549 0
M  V30 5707 H 541.612 5.98392 1.00058 0
M  V30 5708 H 540.351 4.73174 1.18143 0
M  V30 5709 H 539.356 5.40182 -1.02388 0
M  V30 5710 H 540.581 6.68571 -1.1912 0
M  V30 5711 H 538.527 6.47655 1.04305 0
M  V30 5712 H 538.444 7.55355 -0.3123 0
M  V30 5713 H 539.712 7.74731 0.86098 0
M  V30 5714 N 543.941 0.601185 1.45683 0
M  V30 5715 C 544.871 -0.108824 2.33246 0
M  V30 5716 C 545.852 -0.865223 1.46451 0
M  V30 5717 O 547.037 -0.83704 1.75235 0
M  V30 5718 C 544.167 -1.11101 3.2905 0
M  V30 5719 C 543.121 -0.468244 4.25431 0
M  V30 5720 C 542.447 -1.57822 5.10878 0
M  V30 5721 C 543.747 0.606469 5.18767 0
M  V30 5722 H 545.441 0.622306 2.92861 0
M  V30 5723 H 542.987 0.300714 1.40825 0
M  V30 5724 H 544.94 -1.61622 3.89174 0
M  V30 5725 H 543.664 -1.87265 2.67581 0
M  V30 5726 H 542.323 0.0160484 3.66596 0
M  V30 5727 H 541.971 -2.32998 4.45781 0
M  V30 5728 H 541.671 -1.15369 5.76163 0
M  V30 5729 H 543.195 -2.08583 5.73869 0
M  V30 5730 H 544.609 0.185589 5.73 0
M  V30 5731 H 543.006 0.952381 5.92494 0
M  V30 5732 H 544.076 1.48559 4.61582 0
M  V30 5733 N 545.419 -1.53889 0.339982 0
M  V30 5734 C 546.647 -2.05271 -0.259114 0
M  V30 5735 C 547.062 -1.21517 -1.44496 0
M  V30 5736 O 546.419 -0.24966 -1.80784 0
M  V30 5737 C 546.47 -3.55092 -0.677634 0
M  V30 5738 O 546.191 -4.35667 0.461051 0
M  V30 5739 C 547.692 -4.22631 -1.33782 0
M  V30 5740 H 544.912 -0.669085 -0.0506566 0
M  V30 5741 H 547.456 -1.9852 0.490935 0
M  V30 5742 H 545.611 -3.62077 -1.37763 0
M  V30 5743 H 546.025 -5.24343 0.128144 0
M  V30 5744 H 547.499 -5.28861 -1.58145 0
M  V30 5745 H 547.976 -3.74758 -2.29027 0
M  V30 5746 H 548.582 -4.19829 -0.679957 0
M  V30 5747 N 546.897 -0.0685191 -1.57451 0
M  V30 5748 C 548.174 0.642167 -1.84758 0
M  V30 5749 C 548.554 1.87991 -0.960344 0
M  V30 5750 O 547.902 2.28485 -0.0257894 0
M  V30 5751 C 548.112 0.982946 -3.34872 0
M  V30 5752 C 549.46 1.35784 -4.02303 0
M  V30 5753 O 550.484 1.07477 -3.39598 0
M  V30 5754 O 549.343 1.88681 -5.12895 0
M  V30 5755 H 546.437 0.318625 -0.763156 0
M  V30 5756 H 548.983 -0.0992015 -1.6941 0
M  V30 5757 H 547.755 0.10372 -3.91163 0
M  V30 5758 H 547.378 1.78119 -3.55471 0
M  V30 5759 N 548.375 1.56261 0.205012 0
M  V30 5760 C 549.624 1.79236 0.925058 0
M  V30 5761 C 549.937 0.640011 1.84833 0
M  V30 5762 O 551.143 0.753809 2.60826 0
M  V30 5763 C 549.599 3.17475 1.69522 0
M  V30 5764 C 549.207 4.40482 0.817269 0
M  V30 5765 C 550.951 3.49766 2.4055 0
M  V30 5766 C 548.858 5.69744 1.58573 0
M  V30 5767 H 547.788 0.668287 0.349153 0
M  V30 5768 H 550.439 1.82629 0.178544 0
M  V30 5769 H 548.821 3.08304 2.48526 0
M  V30 5770 H 549.995 4.60752 0.0665988 0
M  V30 5771 H 548.31 4.15827 0.218316 0
M  V30 5772 H 550.907 4.43573 2.98575 0
M  V30 5773 H 551.25 2.73041 3.14252 0
M  V30 5774 H 551.783 3.60341 1.68522 0
M  V30 5775 H 548.522 6.49407 0.891679 0
M  V30 5776 H 548.042 5.53509 2.31059 0
M  V30 5777 H 549.721 6.1051 2.14212 0
M  V30 5778 N 549.853 -0.472356 1.50355 0
M  V30 5779 C 550.785 -1.58795 1.65278 0
M  V30 5780 C 551.798 -1.53782 0.534313 0
M  V30 5781 O 552.987 -1.59193 0.807446 0
M  V30 5782 C 550.087 -2.97672 1.62001 0
M  V30 5783 C 549.26 -3.27568 2.89859 0
M  V30 5784 C 548.319 -4.45993 2.79242 0
M  V30 5785 O 547.345 -4.46364 3.53197 0
M  V30 5786 N 548.547 -5.47578 1.92713 0
M  V30 5787 H 551.312 -1.46411 2.61503 0
M  V30 5788 H 548.873 -0.660751 1.47803 0
M  V30 5789 H 550.865 -3.74862 1.52513 0
M  V30 5790 H 549.435 -3.03832 0.735159 0
M  V30 5791 H 548.655 -2.39003 3.13483 0
M  V30 5792 H 549.943 -3.44352 3.74565 0
M  V30 5793 H 549.341 -5.50099 1.31939 0
M  V30 5794 H 547.898 -6.23757 1.8913 0
M  V30 5795 N 551.331 -1.39911 -0.725443 0
M  V30 5796 C 552.561 -1.40744 -1.51244 0
M  V30 5797 C 552.969 -0.00275403 -1.892 0
M  V30 5798 O 552.312 0.981299 -1.55294 0
M  V30 5799 C 552.374 -2.22527 -2.82351 0
M  V30 5800 C 552.038 -3.71053 -2.66774 0
M  V30 5801 C 553.035 -4.63916 -2.34686 0
M  V30 5802 C 550.72 -4.14753 -2.83347 0
M  V30 5803 C 552.714 -5.98463 -2.19366 0
M  V30 5804 C 550.401 -5.49372 -2.67644 0
M  V30 5805 C 551.399 -6.41042 -2.357 0
M  V30 5806 O 551.087 -7.73181 -2.20107 0
M  V30 5807 H 550.819 -0.482314 -0.473655 0
M  V30 5808 H 553.373 -1.84472 -0.903284 0
M  V30 5809 H 551.603 -1.73563 -3.45562 0
M  V30 5810 H 553.292 -2.15421 -3.44018 0
M  V30 5811 H 554.058 -4.31453 -2.21525 0
M  V30 5812 H 549.937 -3.43728 -3.072 0
M  V30 5813 H 553.481 -6.69979 -1.94354 0
M  V30 5814 H 549.378 -5.81424 -2.80387 0
M  V30 5815 H 550.146 -7.84008 -2.35103 0
M  V30 5816 N 552.809 0.956637 -1.25245 0
M  V30 5817 C 554.057 1.69764 -1.09657 0
M  V30 5818 C 554.378 1.91583 0.363464 0
M  V30 5819 O 553.648 1.50149 1.25825 0
M  V30 5820 H 552.228 0.629097 -0.402798 0
M  V30 5821 H 554.89 1.15026 -1.57337 0
M  V30 5822 H 553.986 2.67769 -1.60331 0
M  V30 5823 N 554.287 1.06798 1.15896 0
M  V30 5824 C 555.703 0.792423 1.38538 0
M  V30 5825 C 555.903 -0.60592 1.92174 0
M  V30 5826 O 554.959 -1.36561 2.12385 0
M  V30 5827 C 556.272 1.86157 2.36149 0
M  V30 5828 C 557.82 1.88567 2.49823 0
M  V30 5829 C 558.295 2.9455 3.5072 0
M  V30 5830 N 559.786 2.93616 3.58251 0
M  V30 5831 C 560.521 3.72267 4.36125 0
M  V30 5832 N 560.017 4.60751 5.17379 0
M  V30 5833 N 561.81 3.60637 4.31158 0
M  V30 5834 H 553.961 1.96993 0.794198 0
M  V30 5835 H 556.224 0.853942 0.411688 0
M  V30 5836 H 555.93 2.86603 2.03843 0
M  V30 5837 H 555.804 1.71692 3.3586 0
M  V30 5838 H 558.191 0.887765 2.8143 0
M  V30 5839 H 558.272 2.0711 1.5013 0
M  V30 5840 H 557.916 3.94537 3.19849 0
M  V30 5841 H 557.846 2.73255 4.50155 0
M  V30 5842 H 560.337 2.29472 3.00252 0
M  V30 5843 H 560.65 5.17408 5.74028 0
M  V30 5844 H 558.995 4.64803 5.16704 0
M  V30 5845 H 562.186 2.90892 3.66742 0
M  V30 5846 H 562.359 4.22176 4.91601 0
M  V30 5847 N 555.766 -1.3263 0.851289 0
M  V30 5848 C 556.676 -2.32722 0.296268 0
M  V30 5849 C 557.692 -1.63901 -0.584162 0
M  V30 5850 O 558.868 -1.95465 -0.485334 0
M  V30 5851 C 555.933 -3.42942 -0.509103 0
M  V30 5852 C 554.994 -4.2746 0.397069 0
M  V30 5853 C 554.227 -5.32416 -0.36996 0
M  V30 5854 O 554.45 -5.47491 -1.6003 0
M  V30 5855 O 553.384 -6.01327 0.262493 0
M  V30 5856 H 557.21 -2.82078 1.12543 0
M  V30 5857 H 554.795 -1.36194 0.614135 0
M  V30 5858 H 556.677 -4.1017 -0.96634 0
M  V30 5859 H 555.352 -2.95781 -1.31512 0
M  V30 5860 H 554.259 -3.63053 0.902411 0
M  V30 5861 H 555.592 -4.78136 1.16818 0
M  V30 5862 N 557.244 -0.608902 -1.45362 0
M  V30 5863 C 558.154 0.110969 -2.34337 0
M  V30 5864 C 559.17 0.859007 -1.51318 0
M  V30 5865 O 560.346 0.816296 -1.84116 0
M  V30 5866 C 557.411 1.09494 -3.28956 0
M  V30 5867 C 556.472 0.348718 -4.27881 0
M  V30 5868 C 555.705 1.28582 -5.17979 0
M  V30 5869 O 555.928 2.52369 -5.11533 0
M  V30 5870 O 554.862 0.782172 -5.96796 0
M  V30 5871 H 558.688 -0.620258 -2.97299 0
M  V30 5872 H 556.273 -0.36916 -1.44767 0
M  V30 5873 H 558.155 1.66163 -3.87257 0
M  V30 5874 H 556.83 1.80717 -2.68557 0
M  V30 5875 H 555.737 -0.260465 -3.73192 0
M  V30 5876 H 557.07 -0.323049 -4.91139 0
M  V30 5877 N 558.722 1.53707 -0.348139 0
M  V30 5878 C 559.947 2.05877 0.250883 0
M  V30 5879 C 560.372 1.22115 1.43072 0
M  V30 5880 O 559.73 0.235986 1.79758 0
M  V30 5881 C 559.778 3.54886 0.639416 0
M  V30 5882 O 558.882 3.73948 1.73888 0
M  V30 5883 H 558.223 0.662754 0.040653 0
M  V30 5884 H 560.753 1.98303 -0.503685 0
M  V30 5885 H 560.763 3.97601 0.915295 0
M  V30 5886 H 559.438 4.153 -0.223386 0
M  V30 5887 H 558.015 3.43134 1.45991 0
M  V30 5888 N 560.2 0.0768682 1.57412 0
M  V30 5889 C 561.477 -0.632359 1.85096 0
M  V30 5890 C 561.857 -1.87479 0.9703 0
M  V30 5891 O 561.205 -2.28469 0.0379062 0
M  V30 5892 C 561.415 -0.965174 3.35388 0
M  V30 5893 C 562.763 -1.33648 4.03018 0
M  V30 5894 O 563.787 -1.05675 3.40164 0
M  V30 5895 O 562.646 -1.85959 5.13889 0
M  V30 5896 H 559.74 -0.314574 0.764835 0
M  V30 5897 H 562.286 0.108184 1.69355 0
M  V30 5898 H 561.058 -0.0829745 3.91212 0
M  V30 5899 H 560.681 -1.76231 3.5641 0
M  V30 5900 N 561.678 -1.56367 -0.196722 0
M  V30 5901 C 562.924 -1.81698 -0.914182 0
M  V30 5902 C 563.279 -0.65367 -1.80956 0
M  V30 5903 O 562.572 0.351224 -1.88353 0
M  V30 5904 C 562.766 -3.10663 -1.767 0
M  V30 5905 C 562.595 -4.39428 -0.955689 0
M  V30 5906 C 561.365 -5.01221 -0.64076 0
M  V30 5907 C 563.563 -5.1337 -0.309165 0
M  V30 5908 N 561.545 -6.13608 0.189358 0
M  V30 5909 C 562.916 -6.18815 0.383225 0
M  V30 5910 C 564.971 -4.97393 -0.224726 0
M  V30 5911 C 563.674 -7.10015 1.15201 0
M  V30 5912 C 565.7 -5.89014 0.530658 0
M  V30 5913 C 565.062 -6.93903 1.2115 0
M  V30 5914 H 561.161 -0.716203 -0.31397 0
M  V30 5915 H 563.745 -1.93838 -0.18304 0
M  V30 5916 H 561.916 -2.99762 -2.46976 0
M  V30 5917 H 563.648 -3.24088 -2.42382 0
M  V30 5918 H 560.403 -4.63669 -0.96479 0
M  V30 5919 H 560.827 -6.74389 0.593979 0
M  V30 5920 H 565.469 -4.16331 -0.736754 0
M  V30 5921 H 563.187 -7.9054 1.67547 0
M  V30 5922 H 566.773 -5.78726 0.597326 0
M  V30 5923 H 565.653 -7.63576 1.78665 0
M  V30 5924 N 563.156 0.464375 -1.50603 0
M  V30 5925 C 564.384 1.23907 -1.65695 0
M  V30 5926 C 564.799 1.85658 -0.343027 0
M  V30 5927 O 564.156 1.69529 0.675739 0
M  V30 5928 C 564.207 2.3429 -2.75301 0
M  V30 5929 O 563.928 1.7507 -4.01599 0
M  V30 5930 C 565.429 3.25051 -3.01424 0
M  V30 5931 H 562.649 0.374485 -0.556778 0
M  V30 5932 H 565.193 0.55353 -1.96866 0
M  V30 5933 H 563.348 2.98607 -2.46804 0
M  V30 5934 H 563.762 2.47812 -4.62266 0
M  V30 5935 H 565.236 3.98699 -3.81763 0
M  V30 5936 H 565.713 3.84227 -2.12758 0
M  V30 5937 H 566.319 2.66463 -3.31477 0
M  V30 5938 N 564.634 1.40294 0.718013 0
M  V30 5939 C 565.883 1.37746 1.4734 0
M  V30 5940 C 566.196 -0.0180754 1.95592 0
M  V30 5941 O 567.402 -0.166166 2.70991 0
M  V30 5942 C 565.858 2.4208 2.66318 0
M  V30 5943 C 565.466 3.87432 2.24945 0
M  V30 5944 C 567.21 2.48635 3.44065 0
M  V30 5945 C 565.117 4.83368 3.40748 0
M  V30 5946 H 564.047 0.512165 0.553356 0
M  V30 5947 H 566.698 1.66019 0.781661 0
M  V30 5948 H 565.08 2.06903 3.3765 0
M  V30 5949 H 566.254 4.3174 1.6105 0
M  V30 5950 H 564.569 3.8433 1.60249 0
M  V30 5951 H 567.166 3.17499 4.30231 0
M  V30 5952 H 567.509 1.51611 3.87711 0
M  V30 5953 H 568.042 2.82791 2.79775 0
M  V30 5954 H 564.781 5.81716 3.02136 0
M  V30 5955 H 564.301 4.43726 4.03568 0
M  V30 5956 H 565.98 5.03074 4.06848 0
M  V30 5957 N 566.112 -0.949982 1.2575 0
M  V30 5958 C 567.358 -1.69766 1.10938 0
M  V30 5959 C 567.691 -1.91056 -0.348028 0
M  V30 5960 O 566.966 -1.48488 -1.25625 0
M  V30 5961 C 567.249 -3.07779 1.86933 0
M  V30 5962 C 567.102 -2.9387 3.4053 0
M  V30 5963 C 568.421 -4.07749 1.65616 0
M  V30 5964 H 565.54 -0.616144 0.404396 0
M  V30 5965 H 568.182 -1.10394 1.54639 0
M  V30 5966 H 566.332 -3.58462 1.4979 0
M  V30 5967 H 568.004 -2.50476 3.87375 0
M  V30 5968 H 566.247 -2.29686 3.68004 0
M  V30 5969 H 566.918 -3.91719 3.88922 0
M  V30 5970 H 569.394 -3.65994 1.97959 0
M  V30 5971 H 568.27 -5.02348 2.21218 0
M  V30 5972 H 568.531 -4.38029 0.598595 0
M  V30 5973 N 567.59 -1.07411 -1.15328 0
M  V30 5974 C 568.52 -0.716472 -2.22236 0
M  V30 5975 C 569.501 0.296373 -1.67498 0
M  V30 5976 O 570.686 0.168989 -1.93463 0
M  V30 5977 C 567.816 -0.114142 -3.47112 0
M  V30 5978 C 566.77 -1.05421 -4.14814 0
M  V30 5979 C 566.096 -0.314604 -5.33774 0
M  V30 5980 C 567.396 -2.38808 -4.64508 0
M  V30 5981 H 569.09 -1.61029 -2.52408 0
M  V30 5982 H 566.636 -0.775702 -1.21321 0
M  V30 5983 H 568.589 0.148001 -4.2114 0
M  V30 5984 H 567.313 0.814755 -3.16274 0
M  V30 5985 H 565.972 -1.30128 -3.42728 0
M  V30 5986 H 565.62 0.617772 -4.99192 0
M  V30 5987 H 565.32 -0.941209 -5.80013 0
M  V30 5988 H 566.844 -0.0602747 -6.1057 0
M  V30 5989 H 568.258 -2.18424 -5.3006 0
M  V30 5990 H 566.655 -2.97069 -5.21412 0
M  V30 5991 H 567.725 -3.01067 -3.80114 0
M  V30 5992 N 569.068 1.32177 -0.85831 0
M  V30 5993 C 570.293 2.01847 -0.476718 0
M  V30 5994 C 570.718 1.64065 0.920021 0
M  V30 5995 O 570.076 0.843189 1.60499 0
M  V30 5996 C 570.124 3.55097 -0.627578 0
M  V30 5997 O 569.228 4.11012 0.338086 0
M  V30 5998 H 568.569 0.635907 -0.191099 0
M  V30 5999 H 571.099 1.68641 -1.15851 0
M  V30 6000 H 571.109 4.04718 -0.516476 0
M  V30 6001 H 569.784 3.81938 -1.64609 0
M  V30 6002 H 568.361 3.72451 0.182917 0
M  V30 6003 O 570.585 0.756816 1.42669 0
M  V30 6004 H 571.276 0.315719 1.9111 0
M  V30 END ATOM
M  V30 BEGIN BOND
M  V30 END BOND
M  V30 END CTAB
M  END
$$$$
