drugbank_target|P02763 Alpha-1-acid glycoprotein 1 (DB00276; DB00281; DB00396; DB00975)
 OpenBabel12092119433D

  0  0  0     0  0            999 V3000
M  V30 BEGIN CTAB
M  V30 COUNTS 3277 3315 0 0 0
M  V30 BEGIN ATOM
M  V30 1 H -0.908 1.98254 -0.117106 0
M  V30 2 N 0 1.576 0 0
M  V30 3 C 0.933 2.03868 1.02534 0
M  V30 4 C 1.911 0.928543 1.3348 0
M  V30 5 O 3.095 1.19667 1.45644 0
M  V30 6 C 0.222 2.43627 2.35294 0
M  V30 7 C -0.732 3.65373 2.2001 0
M  V30 8 S 0.101 5.13292 1.52614 0
M  V30 9 C 1.257 5.56322 2.86805 0
M  V30 10 H 1.49 2.90518 0.631377 0
M  V30 11 H -0.977 1.52953 0.210867 0
M  V30 12 H 0.981 2.67203 3.11629 0
M  V30 13 H -0.358 1.57376 2.7183 0
M  V30 14 H -1.165 3.90944 3.18086 0
M  V30 15 H -1.563 3.418 1.51819 0
M  V30 16 H 0.729 5.58782 3.83104 0
M  V30 17 H 1.672 6.56266 2.65933 0
M  V30 18 H 2.08 4.83886 2.90714 0
M  V30 19 N 1.4781 -0.272755 1.55222 0
M  V30 20 C 2.4411 -1.32041 1.87344 0
M  V30 21 C 3.4411 -1.42342 0.74803 0
M  V30 22 O 4.6311 -1.41488 1.0162 0
M  V30 23 C 1.7631 -2.70173 2.07893 0
M  V30 24 H 2.9561 -1.04789 2.80997 0
M  V30 25 H 0.5091 -0.51083 1.47717 0
M  V30 26 H 1.2441 -3.02605 1.16622 0
M  V30 27 H 1.0291 -2.64082 2.89833 0
M  V30 28 H 2.5191 -3.45869 2.34017 0
M  V30 29 N 2.9562 -1.48159 -0.537278 0
M  V30 30 C 3.8862 -1.65029 -1.6519 0
M  V30 31 C 4.8672 -0.499281 -1.62607 0
M  V30 32 O 6.0522 -0.730972 -1.79918 0
M  V30 33 C 3.1822 -1.68303 -3.03795 0
M  V30 34 C 2.1362 -2.8283 -3.21234 0
M  V30 35 C 1.4622 -2.71189 -4.60826 0
M  V30 36 C 2.7622 -4.24211 -3.04701 0
M  V30 37 H 4.4562 -2.58341 -1.51328 0
M  V30 38 H 2.0022 -1.24325 -0.726585 0
M  V30 39 H 3.9552 -1.78693 -3.81637 0
M  V30 40 H 2.6792 -0.715635 -3.18663 0
M  V30 41 H 1.3382 -2.71983 -2.45807 0
M  V30 42 H 0.9862 -1.72435 -4.7252 0
M  V30 43 H 0.6862 -3.48035 -4.7344 0
M  V30 44 H 2.2102 -2.83537 -5.40777 0
M  V30 45 H 3.6242 -4.3593 -3.72341 0
M  V30 46 H 2.0212 -5.01998 -3.28813 0
M  V30 47 H 3.0912 -4.41184 -2.01209 0
M  V30 48 N 4.4343 0.785586 -1.36625 0
M  V30 49 C 5.6593 1.57963 -1.34397 0
M  V30 50 C 6.0843 1.87964 0.071526 0
M  V30 51 O 5.4423 1.48182 1.0446 0
M  V30 52 C 5.4903 2.87511 -2.17646 0
M  V30 53 O 4.5943 3.81281 -1.57158 0
M  V30 54 H 3.9353 0.479014 -0.459828 0
M  V30 55 H 6.4653 0.973411 -1.79961 0
M  V30 56 H 6.4753 3.36745 -2.30362 0
M  V30 57 H 5.1503 2.65002 -3.20541 0
M  V30 58 H 3.7273 3.39885 -1.53403 0
M  V30 59 N 5.9124 1.20967 1.01018 0
M  V30 60 C 7.1584 1.0353 1.7508 0
M  V30 61 C 7.5134 -0.42734 1.87594 0
M  V30 62 O 6.8064 -1.31298 1.3954 0
M  V30 63 C 7.0004 1.65997 3.16512 0
M  V30 64 C 6.8294 3.18184 3.17788 0
M  V30 65 C 5.5994 3.87198 3.24662 0
M  V30 66 C 7.7974 4.15334 3.03319 0
M  V30 67 N 5.7794 5.26618 3.15509 0
M  V30 68 C 7.1504 5.41472 3.02007 0
M  V30 69 C 9.2054 4.06449 2.87583 0
M  V30 70 C 7.9084 6.5975 2.86571 0
M  V30 71 C 9.9344 5.24357 2.73503 0
M  V30 72 C 9.2964 6.49404 2.72862 0
M  V30 73 H 5.3954 0.433137 0.651089 0
M  V30 74 H 7.9794 1.5324 1.20107 0
M  V30 75 H 6.1504 1.18863 3.69765 0
M  V30 76 H 7.8824 1.41816 3.79039 0
M  V30 77 H 4.6374 3.38093 3.31648 0
M  V30 78 H 5.0614 5.99626 3.14289 0
M  V30 79 H 9.7034 3.10573 2.86887 0
M  V30 80 H 7.4214 7.55792 2.86015 0
M  V30 81 H 11.0074 5.19299 2.62334 0
M  V30 82 H 9.8874 7.39105 2.62093 0
M  V30 83 N 7.3905 -1.2043 1.01659 0
M  V30 84 C 8.6365 -1.90079 0.706963 0
M  V30 85 C 8.9695 -1.78648 -0.761474 0
M  V30 86 O 8.2445 -1.17069 -1.55323 0
M  V30 87 C 8.5275 -3.41469 1.14327 0
M  V30 88 C 8.3805 -3.61833 2.67201 0
M  V30 89 C 9.6995 -4.34261 0.714529 0
M  V30 90 H 6.8185 -0.690254 0.2583 0
M  V30 91 H 9.4605 -1.41826 1.26433 0
M  V30 92 H 7.6105 -3.82696 0.669056 0
M  V30 93 H 9.2825 -3.2986 3.22475 0
M  V30 94 H 7.5255 -3.05304 3.08175 0
M  V30 95 H 8.1965 -4.67955 2.92783 0
M  V30 96 H 10.6725 -4.00682 1.12221 0
M  V30 97 H 9.5485 -5.38806 1.04784 0
M  V30 98 H 9.8095 -4.40431 -0.383799 0
M  V30 99 N 8.8686 -0.792821 -1.36206 0
M  V30 100 C 9.7986 -0.207853 -2.32573 0
M  V30 101 C 10.7796 0.659055 -1.56813 0
M  V30 102 O 11.9646 0.592176 -1.84951 0
M  V30 103 C 9.0946 0.655449 -3.41059 0
M  V30 104 C 8.0486 -0.111842 -4.27854 0
M  V30 105 C 7.3746 0.872274 -5.27537 0
M  V30 106 C 8.6746 -1.30299 -5.05786 0
M  V30 107 H 10.3686 -1.01294 -2.81744 0
M  V30 108 H 7.9146 -0.48854 -1.3546 0
M  V30 109 H 9.8676 1.07464 -4.07467 0
M  V30 110 H 8.5916 1.49328 -2.90463 0
M  V30 111 H 7.2506 -0.512053 -3.63006 0
M  V30 112 H 6.8986 1.70523 -4.73214 0
M  V30 113 H 6.5986 0.363291 -5.86476 0
M  V30 114 H 8.1226 1.28996 -5.96818 0
M  V30 115 H 9.5366 -0.959379 -5.65216 0
M  V30 116 H 7.9336 -1.7455 -5.74154 0
M  V30 117 H 9.0036 -2.09663 -4.37229 0
M  V30 118 N 10.3467 1.47872 -0.545128 0
M  V30 119 C 11.5747 2.06889 -0.021084 0
M  V30 120 C 11.9897 1.39955 1.2672 0
M  V30 121 O 11.3467 0.492036 1.75742 0
M  V30 122 C 11.3977 3.60996 0.190817 0
M  V30 123 O 11.1187 4.25419 -1.04644 0
M  V30 124 C 12.6197 4.36849 0.753521 0
M  V30 125 H 9.8397 0.669785 -0.0403635 0
M  V30 126 H 12.3837 1.90049 -0.755095 0
M  V30 127 H 10.5387 3.77391 0.87492 0
M  V30 128 H 10.9527 5.17785 -0.836611 0
M  V30 129 H 12.4267 5.45399 0.851139 0
M  V30 130 H 12.9037 4.02306 1.762 0
M  V30 131 H 13.5097 4.25169 0.105503 0
M  V30 132 N 11.8248 0.280983 1.55075 0
M  V30 133 C 13.0708 -0.33461 2.00021 0
M  V30 134 C 13.4038 -1.55063 1.16915 0
M  V30 135 O 12.6788 -1.93006 0.240646 0
M  V30 136 C 12.9618 -0.711007 3.53011 0
M  V30 137 C 12.8148 0.512766 4.46868 0
M  V30 138 C 14.1338 -1.54522 4.12081 0
M  V30 139 H 11.2528 -0.120147 0.727141 0
M  V30 140 H 13.8948 0.389097 1.85973 0
M  V30 141 H 12.0448 -1.32761 3.65112 0
M  V30 142 H 13.7168 1.15131 4.46702 0
M  V30 143 H 11.9598 1.14975 4.18286 0
M  V30 144 H 12.6308 0.205556 5.51617 0
M  V30 145 H 15.1068 -1.02442 4.03293 0
M  V30 146 H 13.9828 -1.77739 5.19327 0
M  V30 147 H 14.2438 -2.52813 3.62682 0
M  V30 148 N 13.3029 -1.57598 0.00835791 0
M  V30 149 C 14.2329 -2.1198 -0.979113 0
M  V30 150 C 15.2139 -1.03091 -1.35301 0
M  V30 151 O 16.3989 -1.30818 -1.43528 0
M  V30 152 C 13.5289 -2.62995 -2.26828 0
M  V30 153 C 12.4829 -3.76485 -2.03576 0
M  V30 154 C 11.8089 -4.13846 -3.38579 0
M  V30 155 C 13.1089 -5.0342 -1.39161 0
M  V30 156 H 14.8029 -2.94738 -0.526281 0
M  V30 157 H 12.3489 -1.41783 -0.251704 0
M  V30 158 H 14.3019 -2.99669 -2.96271 0
M  V30 159 H 13.0259 -1.7737 -2.7424 0
M  V30 160 H 11.6849 -3.40217 -1.36557 0
M  V30 161 H 11.3329 -3.25232 -3.83709 0
M  V30 162 H 11.0329 -4.90312 -3.23834 0
M  V30 163 H 12.5569 -4.53086 -4.09323 0
M  V30 164 H 13.9709 -5.37812 -1.98573 0
M  V30 165 H 12.3679 -5.84746 -1.34878 0
M  V30 166 H 13.4379 -4.83548 -0.361868 0
M  V30 167 N 14.781 0.264519 -1.55364 0
M  V30 168 C 16.006 1.01726 -1.80739 0
M  V30 169 C 16.431 1.78836 -0.583044 0
M  V30 170 O 15.789 1.75167 0.467566 0
M  V30 171 C 15.837 1.94482 -3.03659 0
M  V30 172 O 14.941 3.03386 -2.7934 0
M  V30 173 H 14.282 0.290395 -0.597132 0
M  V30 174 H 16.812 0.290854 -2.02522 0
M  V30 175 H 16.822 2.36278 -3.32621 0
M  V30 176 H 15.497 1.37772 -3.92418 0
M  V30 177 H 14.074 2.65844 -2.61498 0
M  V30 178 N 16.2591 1.48442 0.529413 0
M  V30 179 C 17.1891 1.65902 1.64313 0
M  V30 180 C 18.1701 0.507897 1.6234 0
M  V30 181 O 19.3551 0.740503 1.79528 0
M  V30 182 C 16.4851 1.69911 3.02898 0
M  V30 183 C 15.4391 2.8453 3.19729 0
M  V30 184 C 14.7651 2.73629 4.59381 0
M  V30 185 C 16.0651 4.25821 3.02447 0
M  V30 186 H 17.7591 2.5914 1.49955 0
M  V30 187 H 15.3051 1.24709 0.719982 0
M  V30 188 H 17.2581 1.80715 3.80684 0
M  V30 189 H 15.9821 0.732524 3.18279 0
M  V30 190 H 14.6411 2.73283 2.44361 0
M  V30 191 H 14.2891 1.74938 4.71599 0
M  V30 192 H 13.9891 3.50541 4.71588 0
M  V30 193 H 15.5131 2.86401 5.39265 0
M  V30 194 H 16.9271 4.37898 3.70024 0
M  V30 195 H 15.3241 5.03735 3.26146 0
M  V30 196 H 16.3941 4.42244 1.98867 0
M  V30 197 N 17.7372 -0.778329 1.37039 0
M  V30 198 C 18.6672 -1.90546 1.34962 0
M  V30 199 C 19.6482 -1.68681 0.219274 0
M  V30 200 O 20.8332 -1.89634 0.418624 0
M  V30 201 C 17.9632 -3.27734 1.14925 0
M  V30 202 C 16.9172 -3.64147 2.24902 0
M  V30 203 C 16.2432 -4.99806 1.89996 0
M  V30 204 C 17.5432 -3.71579 3.67051 0
M  V30 205 H 19.2372 -1.92541 2.29277 0
M  V30 206 H 16.7832 -0.924948 1.10366 0
M  V30 207 H 18.7362 -4.06215 1.12104 0
M  V30 208 H 17.4602 -3.26154 0.170631 0
M  V30 209 H 16.1192 -2.8797 2.26868 0
M  V30 210 H 15.7672 -4.94759 0.906796 0
M  V30 211 H 15.4672 -5.25139 2.63634 0
M  V30 212 H 16.9912 -5.80694 1.88749 0
M  V30 213 H 18.4052 -4.40227 3.67251 0
M  V30 214 H 16.8022 -4.08405 4.39688 0
M  V30 215 H 17.8722 -2.72404 4.01154 0
M  V30 216 N 19.2153 -1.21501 -1.00376 0
M  V30 217 C 20.6263 -1.03146 -1.55621 0
M  V30 218 C 20.9773 0.408375 -1.91903 0
M  V30 219 O 20.1023 1.29177 -1.73616 0
M  V30 220 C 20.6973 -1.86612 -2.82775 0
M  V30 221 C 19.2563 -1.72586 -3.34501 0
M  V30 222 C 18.4033 -1.83747 -2.07683 0
M  V30 223 H 21.3543 -1.35505 -0.826081 0
M  V30 224 H 21.3753 -1.3771 -3.54706 0
M  V30 225 H 20.8873 -2.91399 -2.56336 0
M  V30 226 H 18.9883 -0.704877 -3.65872 0
M  V30 227 H 19.1013 -2.54623 -4.05837 0
M  V30 228 H 17.4653 -1.27069 -2.20739 0
M  V30 229 H 18.2483 -2.90044 -1.83655 0
M  V30 230 N 20.6934 1.19889 -1.02296 0
M  V30 231 C 21.6234 2.25141 -0.619174 0
M  V30 232 C 22.6044 1.66051 0.368915 0
M  V30 233 O 23.7894 1.92546 0.252941 0
M  V30 234 C 20.9194 3.4728 0.0368783 0
M  V30 235 C 19.8734 4.19005 -0.872865 0
M  V30 236 C 19.1994 5.34637 -0.0822402 0
M  V30 237 C 20.4994 4.74452 -2.18387 0
M  V30 238 H 22.1934 2.59171 -1.49903 0
M  V30 239 H 19.7394 1.24579 -0.722222 0
M  V30 240 H 21.6924 4.20098 0.330958 0
M  V30 241 H 20.4164 3.12433 0.95149 0
M  V30 242 H 19.0754 3.48061 -1.15105 0
M  V30 243 H 18.7234 4.96034 0.83422 0
M  V30 244 H 18.4234 5.83557 -0.688149 0
M  V30 245 H 19.9474 6.10255 0.205238 0
M  V30 246 H 21.3614 5.39055 -1.95172 0
M  V30 247 H 19.7584 5.33834 -2.74119 0
M  V30 248 H 20.8284 3.92844 -2.84257 0
M  V30 249 N 22.1715 0.800033 1.35784 0
M  V30 250 C 23.1015 0.220184 2.3246 0
M  V30 251 C 24.0825 -0.65073 1.57161 0
M  V30 252 O 25.2675 -0.582359 1.85263 0
M  V30 253 C 22.3975 -0.637353 3.41402 0
M  V30 254 C 21.3515 0.134531 4.27789 0
M  V30 255 C 20.6775 -0.844285 5.27992 0
M  V30 256 C 21.9775 1.32979 5.05088 0
M  V30 257 H 23.6715 1.02787 2.81203 0
M  V30 258 H 21.2175 0.495717 1.35199 0
M  V30 259 H 23.1705 -1.05302 4.08031 0
M  V30 260 H 21.8945 -1.47785 2.91251 0
M  V30 261 H 20.5535 0.531296 3.6273 0
M  V30 262 H 20.2015 -1.68011 4.74111 0
M  V30 263 H 19.9015 -0.332184 5.8666 0
M  V30 264 H 21.4255 -1.2583 5.97494 0
M  V30 265 H 22.8395 0.98934 5.64699 0
M  V30 266 H 21.2365 1.77593 5.7322 0
M  V30 267 H 22.3065 2.11978 4.36111 0
M  V30 268 N 23.6496 -1.47581 0.552962 0
M  V30 269 C 24.5596 -2.33743 -0.200353 0
M  V30 270 C 25.5756 -1.47928 -0.916151 0
M  V30 271 O 26.7516 -1.80865 -0.885993 0
M  V30 272 C 23.8166 -3.24536 -1.21973 0
M  V30 273 C 22.8776 -4.26238 -0.511819 0
M  V30 274 C 22.1106 -5.12693 -1.48263 0
M  V30 275 O 22.3336 -5.01525 -2.71714 0
M  V30 276 O 21.2676 -5.93375 -1.00945 0
M  V30 277 H 25.0936 -2.9945 0.506304 0
M  V30 278 H 22.6786 -1.46071 0.313622 0
M  V30 279 H 24.5606 -3.80631 -1.80827 0
M  V30 280 H 23.2356 -2.61462 -1.90839 0
M  V30 281 H 22.1426 -3.73914 0.117799 0
M  V30 282 H 23.4756 -4.92014 0.135308 0
M  V30 283 N 25.1277 -0.289203 -1.54924 0
M  V30 284 C 26.0907 0.579144 -2.21762 0
M  V30 285 C 27.0907 1.07047 -1.1999 0
M  V30 286 O 28.2807 0.968384 -1.44803 0
M  V30 287 C 25.4127 1.80055 -2.8947 0
M  V30 288 H 26.6057 -0.00464908 -2.999 0
M  V30 289 H 24.1587 -0.0399306 -1.56249 0
M  V30 290 H 24.8937 2.42449 -2.15381 0
M  V30 291 H 24.6787 1.45602 -3.64064 0
M  V30 292 H 26.1687 2.41773 -3.40493 0
M  V30 293 N 26.6058 1.57591 -0.0167156 0
M  V30 294 C 27.5378 2.06343 0.997753 0
M  V30 295 C 28.5508 0.984469 1.29661 0
M  V30 296 O 29.7398 1.26093 1.26344 0
M  V30 297 C 26.8398 2.46255 2.32834 0
M  V30 298 C 26.0128 3.77083 2.21646 0
M  V30 299 C 25.0718 4.0368 3.37534 0
M  V30 300 O 24.0978 4.7411 3.14973 0
M  V30 301 N 25.2998 3.52881 4.60929 0
M  V30 302 H 28.0648 2.93997 0.581875 0
M  V30 303 H 25.6258 1.61002 0.170316 0
M  V30 304 H 27.6178 2.61149 3.09166 0
M  V30 305 H 26.1878 1.64032 2.66106 0
M  V30 306 H 25.4078 3.72106 1.30119 0
M  V30 307 H 26.6958 4.62822 2.11361 0
M  V30 308 H 26.0938 2.95878 4.82154 0
M  V30 309 H 24.6508 3.73076 5.34469 0
M  V30 310 N 28.0839 -0.256276 1.55502 0
M  V30 311 C 29.3329 -0.983486 1.76098 0
M  V30 312 C 29.6459 -1.86837 0.578896 0
M  V30 313 O 30.8519 -2.63163 0.667648 0
M  V30 314 C 29.3079 -1.79868 3.1173 0
M  V30 315 C 28.9159 -0.961648 4.37557 0
M  V30 316 C 30.6599 -2.51919 3.41668 0
M  V30 317 C 28.5669 -1.77219 5.64223 0
M  V30 318 H 27.4969 -0.370936 0.656447 0
M  V30 319 H 30.1479 -0.238492 1.81944 0
M  V30 320 H 28.5299 -2.58527 2.99966 0
M  V30 321 H 29.7039 -0.218048 4.60284 0
M  V30 322 H 28.0189 -0.354913 4.14885 0
M  V30 323 H 30.6159 -3.12998 4.33516 0
M  V30 324 H 30.9589 -3.23059 2.62562 0
M  V30 325 H 31.4919 -1.80278 3.54605 0
M  V30 326 H 28.2309 -1.10471 6.46124 0
M  V30 327 H 27.7509 -2.49132 5.45613 0
M  V30 328 H 29.4299 -2.34169 6.03137 0
M  V30 329 N 29.562 -1.4872 -0.521534 0
M  V30 330 C 30.973 -1.50607 -1.10337 0
M  V30 331 C 31.324 -0.280612 -1.94183 0
M  V30 332 O 30.449 0.611507 -2.0758 0
M  V30 333 C 31.044 -2.72903 -2.00772 0
M  V30 334 C 29.603 -2.77634 -2.54158 0
M  V30 335 C 28.75 -2.44241 -1.31307 0
M  V30 336 H 31.701 -1.55714 -0.306388 0
M  V30 337 H 31.722 -2.519 -2.85178 0
M  V30 338 H 31.234 -3.62077 -1.39721 0
M  V30 339 H 29.335 -1.92689 -3.18907 0
M  V30 340 H 29.448 -3.79283 -2.92714 0
M  V30 341 H 27.812 -1.95577 -1.63161 0
M  V30 342 H 28.595 -3.35666 -0.719943 0
M  V30 343 N 31.0401 0.771051 -1.3745 0
M  V30 344 C 31.9701 1.89827 -1.3597 0
M  V30 345 C 32.9511 1.68562 -0.228216 0
M  V30 346 O 34.1361 1.8941 -0.428675 0
M  V30 347 C 31.2661 3.2712 -1.16662 0
M  V30 348 C 30.2201 3.6295 -2.2683 0
M  V30 349 C 29.5461 4.98791 -1.92644 0
M  V30 350 C 30.8461 3.69627 -3.69017 0
M  V30 351 H 32.5401 1.91323 -2.30295 0
M  V30 352 H 30.0861 0.919082 -1.10855 0
M  V30 353 H 32.0391 4.05615 -1.14256 0
M  V30 354 H 30.7631 3.26059 -0.187926 0
M  V30 355 H 29.4221 2.86763 -2.28392 0
M  V30 356 H 29.0701 4.94271 -0.933021 0
M  V30 357 H 28.7701 5.23733 -2.66416 0
M  V30 358 H 30.2941 5.79685 -1.91826 0
M  V30 359 H 31.7081 4.38273 -3.69581 0
M  V30 360 H 30.1051 4.06067 -4.41848 0
M  V30 361 H 31.1751 2.70273 -4.02592 0
M  V30 362 N 32.5182 1.22032 0.997298 0
M  V30 363 C 33.7582 1.05375 1.75144 0
M  V30 364 C 34.1222 -0.404696 1.87686 0
M  V30 365 O 35.3232 -0.691998 2.5974 0
M  V30 366 C 33.5942 1.74046 3.12158 0
M  V30 367 S 35.1532 1.72745 4.03366 0
M  V30 368 H 31.9712 0.377449 0.602539 0
M  V30 369 H 34.5732 1.54902 1.19272 0
M  V30 370 H 33.2772 2.79332 3.00669 0
M  V30 371 H 32.8082 1.24731 3.73103 0
M  V30 372 H 34.8232 0.774015 4.90126 0
M  V30 373 N 33.9963 -1.19345 1.0293 0
M  V30 374 C 34.9593 -2.20793 0.615069 0
M  V30 375 C 35.9593 -1.57553 -0.321533 0
M  V30 376 O 37.1493 -1.73862 -0.108483 0
M  V30 377 C 34.2813 -3.40754 -0.0999222 0
M  V30 378 H 35.4743 -2.58955 1.51269 0
M  V30 379 H 33.0273 -1.3303 0.820534 0
M  V30 380 H 33.7623 -3.0811 -1.01187 0
M  V30 381 H 33.5473 -3.87889 0.57309 0
M  V30 382 H 35.0373 -4.15898 -0.376645 0
M  V30 383 N 35.4744 -0.807222 -1.35358 0
M  V30 384 C 36.4224 -0.20614 -2.31685 0
M  V30 385 C 37.4164 0.644445 -1.56663 0
M  V30 386 O 38.6224 0.537538 -1.71786 0
M  V30 387 H 34.9974 -0.0479006 -0.750473 0
M  V30 388 H 36.9684 -1.03369 -2.79924 0
M  V30 389 C 35.7174 0.630212 -3.41941 0
M  V30 390 H 35.0404 -0.0149558 -3.99797 0
M  V30 391 H 36.4804 1.01716 -4.11619 0
M  V30 392 C 34.9394 1.79601 -2.85035 0
M  V30 393 O 35.4694 2.89351 -2.78637 0
M  V30 394 N 33.6754 1.60774 -2.42074 0
M  V30 395 H 33.2224 0.715009 -2.47478 0
M  V30 396 H 33.1804 2.38933 -2.04349 0
M  V30 397 N 36.9525 1.47285 -0.560781 0
M  V30 398 C 37.8825 2.32857 0.173105 0
M  V30 399 C 38.8635 1.44009 0.905281 0
M  V30 400 O 40.0485 1.7286 0.885046 0
M  V30 401 C 37.1785 3.25861 1.20133 0
M  V30 402 C 36.1325 4.23978 0.585388 0
M  V30 403 C 35.4585 5.06332 1.7185 0
M  V30 404 C 36.7585 5.20242 -0.463178 0
M  V30 405 H 38.4525 2.94466 -0.541307 0
M  V30 406 H 35.9985 1.41601 -0.261764 0
M  V30 407 H 37.9515 3.84569 1.72293 0
M  V30 408 H 36.6755 2.62315 1.94573 0
M  V30 409 H 35.3345 3.66501 0.085054 0
M  V30 410 H 34.9825 4.39186 2.45203 0
M  V30 411 H 34.6825 5.72762 1.31213 0
M  V30 412 H 36.2065 5.67899 2.24329 0
M  V30 413 H 37.6205 5.73293 -0.027502 0
M  V30 414 H 36.0175 5.94896 -0.788627 0
M  V30 415 H 37.0875 4.65504 -1.35773 0
M  V30 416 N 38.4306 0.297415 1.54768 0
M  V30 417 C 39.6766 -0.313376 2.00364 0
M  V30 418 C 40.0096 -1.53815 1.18553 0
M  V30 419 O 39.2846 -1.92739 0.261103 0
M  V30 420 C 39.5676 -0.673525 3.53745 0
M  V30 421 C 39.4206 0.560133 4.46299 0
M  V30 422 C 40.7396 -1.50143 4.13697 0
M  V30 423 H 37.8586 -0.112428 0.728374 0
M  V30 424 H 40.5006 0.4088 1.8555 0
M  V30 425 H 38.6506 -1.28881 3.665 0
M  V30 426 H 40.3226 1.19863 4.45455 0
M  V30 427 H 38.5656 1.19405 4.17043 0
M  V30 428 H 39.2366 0.26405 5.51368 0
M  V30 429 H 41.7126 -0.981588 4.04356 0
M  V30 430 H 40.5886 -1.72221 5.21182 0
M  V30 431 H 40.8496 -2.48952 3.65343 0
M  V30 432 N 39.9087 -1.5758 0.0250728 0
M  V30 433 C 41.3197 -1.79476 -0.514323 0
M  V30 434 C 41.6707 -0.934956 -1.72491 0
M  V30 435 O 40.7957 -0.144245 -2.15919 0
M  V30 436 C 41.3907 -3.25503 -0.939842 0
M  V30 437 C 39.9497 -3.48408 -1.42438 0
M  V30 438 C 39.0967 -2.74583 -0.387201 0
M  V30 439 H 42.0477 -1.567 0.25113 0
M  V30 440 H 42.0687 -3.34992 -1.80445 0
M  V30 441 H 41.5807 -3.88056 -0.0585628 0
M  V30 442 H 39.6817 -2.91103 -2.32572 0
M  V30 443 H 39.7947 -4.57119 -1.43455 0
M  V30 444 H 38.1587 -2.39942 -0.854409 0
M  V30 445 H 38.9417 -3.39849 0.485543 0
M  V30 446 N 41.3868 0.248026 -1.55636 0
M  V30 447 C 42.6328 0.97767 -1.77678 0
M  V30 448 C 42.9658 1.85016 -0.590135 0
M  V30 449 O 42.2408 1.90095 0.411611 0
M  V30 450 C 42.5238 1.83914 -3.09593 0
M  V30 451 C 42.3768 0.99491 -4.38659 0
M  V30 452 C 43.6958 2.82183 -3.37729 0
M  V30 453 H 40.8148 0.354005 -0.646413 0
M  V30 454 H 43.4568 0.248253 -1.88371 0
M  V30 455 H 41.6068 2.46104 -3.00608 0
M  V30 456 H 43.2788 0.391789 -4.59633 0
M  V30 457 H 41.5218 0.299231 -4.32767 0
M  V30 458 H 42.1928 1.63145 -5.2734 0
M  V30 459 H 44.6688 2.30129 -3.4667 0
M  V30 460 H 43.5448 3.39582 -4.31249 0
M  V30 461 H 43.8058 3.58588 -2.58586 0
M  V30 462 N 42.8649 1.48995 0.513639 0
M  V30 463 C 44.2759 1.5119 1.09537 0
M  V30 464 C 44.6269 0.290906 1.94031 0
M  V30 465 O 43.7519 -0.60049 2.07902 0
M  V30 466 C 44.3469 2.73964 1.99322 0
M  V30 467 C 42.9059 2.78978 2.52682 0
M  V30 468 C 42.0529 2.44934 1.30009 0
M  V30 469 H 45.0039 1.55875 0.298125 0
M  V30 470 H 45.0249 2.53409 2.83838 0
M  V30 471 H 44.5369 3.62813 1.37799 0
M  V30 472 H 42.6379 1.94378 3.1788 0
M  V30 473 H 42.7509 3.8083 2.90698 0
M  V30 474 H 41.1149 1.9644 1.62122 0
M  V30 475 H 41.8979 3.36043 0.702131 0
M  V30 476 N 44.343 -0.763751 1.37857 0
M  V30 477 C 45.592 -1.51789 1.32827 0
M  V30 478 C 45.905 -1.95426 -0.0823719 0
M  V30 479 O 47.111 -2.70298 -0.255172 0
M  V30 480 C 45.567 -2.74133 2.33193 0
M  V30 481 C 45.175 -2.37562 3.79827 0
M  V30 482 C 46.919 -3.52054 2.37188 0
M  V30 483 C 44.826 -3.56456 4.71904 0
M  V30 484 H 43.756 -0.569896 0.493695 0
M  V30 485 H 46.407 -0.835822 1.63359 0
M  V30 486 H 44.789 -3.4427 1.9569 0
M  V30 487 H 45.963 -1.75157 4.26212 0
M  V30 488 H 44.278 -1.72798 3.78853 0
M  V30 489 H 46.875 -4.40437 3.03182 0
M  V30 490 H 47.218 -3.92486 1.38782 0
M  V30 491 H 47.751 -2.88921 2.7344 0
M  V30 492 H 44.49 -3.21099 5.71468 0
M  V30 493 H 44.01 -4.17938 4.30218 0
M  V30 494 H 45.689 -4.23168 4.89426 0
M  V30 495 N 45.8211 -1.22559 -0.990812 0
M  V30 496 C 47.0491 -1.07779 -1.76611 0
M  V30 497 C 47.4641 0.371513 -1.85109 0
M  V30 498 O 46.8211 1.25737 -1.32274 0
M  V30 499 C 46.8721 -1.68512 -3.19822 0
M  V30 500 O 46.5931 -3.07774 -3.1178 0
M  V30 501 C 48.0941 -1.59035 -4.13791 0
M  V30 502 H 45.3141 -0.377729 -0.554583 0
M  V30 503 H 47.8581 -1.62195 -1.24551 0
M  V30 504 H 46.0131 -1.18154 -3.68942 0
M  V30 505 H 46.4271 -3.37062 -4.01858 0
M  V30 506 H 47.9011 -2.0625 -5.1202 0
M  V30 507 H 48.3781 -0.547273 -4.35777 0
M  V30 508 H 48.9841 -2.08709 -3.70568 0
M  V30 509 N 47.2992 1.18797 -1.03562 0
M  V30 510 C 48.2472 2.24297 -0.615905 0
M  V30 511 C 49.2412 1.65643 0.354808 0
M  V30 512 O 50.4472 1.78618 0.22265 0
M  V30 513 H 46.8222 0.729909 -0.180934 0
M  V30 514 H 48.7932 2.5701 -1.5162 0
M  V30 515 C 47.5422 3.47698 0.0104735 0
M  V30 516 H 46.8652 3.93125 -0.727509 0
M  V30 517 H 48.3052 4.23159 0.266995 0
M  V30 518 C 46.7642 3.12489 1.25905 0
M  V30 519 O 47.2942 3.25761 2.35038 0
M  V30 520 N 45.5002 2.6686 1.15039 0
M  V30 521 H 45.0472 2.56261 0.262328 0
M  V30 522 H 45.0052 2.43674 1.98672 0
M  V30 523 N 48.7773 0.814389 1.34928 0
M  V30 524 C 49.7403 0.235759 2.27984 0
M  V30 525 C 50.7403 -0.581412 1.49921 0
M  V30 526 O 51.9303 -0.398758 1.69575 0
M  V30 527 C 49.0623 -0.670433 3.34242 0
M  V30 528 H 50.2553 1.05659 2.80671 0
M  V30 529 H 47.8083 0.585614 1.44915 0
M  V30 530 H 48.5433 -1.51466 2.86755 0
M  V30 531 H 48.3283 -0.0860822 3.92005 0
M  V30 532 H 49.8183 -1.06935 4.03676 0
M  V30 533 N 50.2554 -1.46986 0.568584 0
M  V30 534 C 51.4834 -2.0683 0.0539956 0
M  V30 535 C 51.8984 -1.41953 -1.24478 0
M  V30 536 O 51.2554 -0.519933 -1.74937 0
M  V30 537 C 51.3064 -3.61254 -0.133362 0
M  V30 538 O 51.0274 -4.237 1.11399 0
M  V30 539 C 52.5284 -4.37992 -0.683927 0
M  V30 540 H 49.7484 -0.669058 0.0510141 0
M  V30 541 H 52.2924 -1.88824 0.785234 0
M  V30 542 H 50.4474 -3.78735 -0.81477 0
M  V30 543 H 50.8614 -5.16388 0.91888 0
M  V30 544 H 52.3354 -5.46684 -0.764263 0
M  V30 545 H 52.8124 -4.05058 -1.69778 0
M  V30 546 H 53.4184 -4.25283 -0.0378494 0
M  V30 547 N 51.7335 -0.305618 -1.54608 0
M  V30 548 C 52.6635 0.561482 -2.26649 0
M  V30 549 C 53.6445 1.13415 -1.26772 0
M  V30 550 O 54.8295 1.16262 -1.55553 0
M  V30 551 C 51.9595 1.73122 -3.01075 0
M  V30 552 C 50.9135 1.2887 -4.08138 0
M  V30 553 C 50.2395 2.54396 -4.70305 0
M  V30 554 C 51.5395 0.416578 -5.20636 0
M  V30 555 H 53.2335 -0.0393902 -2.99374 0
M  V30 556 H 50.7795 -0.020385 -1.43986 0
M  V30 557 H 52.7325 2.34396 -3.50195 0
M  V30 558 H 51.4565 2.3584 -2.25936 0
M  V30 559 H 50.1155 0.698991 -3.59875 0
M  V30 560 H 49.7635 3.15439 -3.918 0
M  V30 561 H 49.4635 2.25486 -5.42614 0
M  V30 562 H 50.9875 3.16464 -5.2219 0
M  V30 563 H 52.4015 0.935116 -5.65622 0
M  V30 564 H 50.7985 0.221046 -5.99693 0
M  V30 565 H 51.8685 -0.557162 -4.81688 0
M  V30 566 N 53.2116 1.57565 -0.0334293 0
M  V30 567 C 54.4886 1.83282 0.683163 0
M  V30 568 C 54.8686 0.91823 1.90084 0
M  V30 569 O 54.2166 -0.025113 2.28486 0
M  V30 570 C 54.4266 3.32599 1.0573 0
M  V30 571 C 55.7746 3.99179 1.44711 0
M  V30 572 O 56.7986 3.3712 1.15015 0
M  V30 573 O 55.6576 5.08565 2.0006 0
M  V30 574 H 52.7516 0.755869 0.335546 0
M  V30 575 H 55.2976 1.69589 -0.0614402 0
M  V30 576 H 54.0696 3.90834 0.190828 0
M  V30 577 H 53.6926 3.51415 1.85993 0
M  V30 578 N 54.6897 -0.239769 1.55765 0
M  V30 579 C 55.6217 -1.32001 1.87372 0
M  V30 580 C 56.6347 -1.43944 0.760522 0
M  V30 581 O 57.8237 -1.45167 1.0387 0
M  V30 582 C 54.9237 -2.69779 2.05115 0
M  V30 583 C 54.0967 -2.80014 3.36022 0
M  V30 584 C 53.1557 -3.98684 3.4342 0
M  V30 585 O 52.1817 -3.87877 4.16582 0
M  V30 586 N 53.3837 -5.12176 2.73232 0
M  V30 587 H 56.1487 -1.0522 2.80622 0
M  V30 588 H 53.7097 -0.429857 1.56089 0
M  V30 589 H 55.7017 -3.47517 2.07399 0
M  V30 590 H 54.2717 -2.89237 1.18577 0
M  V30 591 H 53.4917 -1.88896 3.45994 0
M  V30 592 H 54.7797 -2.83808 4.22292 0
M  V30 593 H 54.1777 -5.2385 2.13536 0
M  V30 594 H 52.7347 -5.88022 2.81199 0
M  V30 595 N 56.1678 -1.49265 -0.50573 0
M  V30 596 C 57.4168 -1.57761 -1.25675 0
M  V30 597 C 57.7298 -0.267371 -1.93764 0
M  V30 598 O 58.9358 -0.230827 -2.70517 0
M  V30 599 C 57.3918 -2.78332 -2.28165 0
M  V30 600 C 56.9998 -4.16096 -1.66037 0
M  V30 601 C 58.7438 -2.96155 -3.04125 0
M  V30 602 C 56.6508 -5.27895 -2.6661 0
M  V30 603 H 55.5808 -0.587391 -0.472745 0
M  V30 604 H 58.2318 -1.75644 -0.53118 0
M  V30 605 H 56.6138 -2.53934 -3.03865 0
M  V30 606 H 57.7878 -4.50612 -0.963622 0
M  V30 607 H 56.1028 -4.03591 -1.02484 0
M  V30 608 H 58.6998 -3.76849 -3.79327 0
M  V30 609 H 59.0428 -2.06534 -3.61455 0
M  V30 610 H 59.5758 -3.2057 -2.35541 0
M  V30 611 H 56.3148 -6.1956 -2.14068 0
M  V30 612 H 55.8348 -4.97839 -3.34539 0
M  V30 613 H 57.5138 -5.57031 -3.29129 0
M  V30 614 N 57.6459 0.756429 -1.3826 0
M  V30 615 C 58.8739 1.54565 -1.3754 0
M  V30 616 C 59.2889 1.88767 0.0355331 0
M  V30 617 O 58.6459 1.52572 1.0014 0
M  V30 618 C 58.6969 2.84654 -2.22833 0
M  V30 619 O 58.4179 2.51912 -3.5843 0
M  V30 620 C 59.9189 3.78807 -2.30261 0
M  V30 621 H 57.1389 0.478353 -0.470553 0
M  V30 622 H 59.6829 0.936381 -1.81803 0
M  V30 623 H 57.8379 3.41965 -1.8204 0
M  V30 624 H 58.2519 3.35325 -4.03308 0
M  V30 625 H 59.7259 4.67045 -2.94233 0
M  V30 626 H 60.2029 4.19038 -1.31545 0
M  V30 627 H 60.8089 3.2742 -2.71433 0
M  V30 628 N 59.124 1.23083 0.984299 0
M  V30 629 C 60.372 1.05848 1.72165 0
M  V30 630 C 60.693 -0.406049 1.90726 0
M  V30 631 O 59.963 -1.29139 1.47309 0
M  V30 632 H 58.543 0.388685 0.637913 0
M  V30 633 H 61.205 1.54736 1.18503 0
M  V30 634 H 60.301 1.54327 2.71274 0
M  V30 635 N 60.6021 -1.18246 1.0419 0
M  V30 636 C 61.5491 -2.2192 0.634037 0
M  V30 637 C 62.5191 -1.62179 -0.358765 0
M  V30 638 O 63.7041 -1.89122 -0.252466 0
M  V30 639 C 60.8441 -3.451 0.00445535 0
M  V30 640 C 59.9571 -4.19174 1.04487 0
M  V30 641 C 59.0921 -5.29813 0.383676 0
M  V30 642 C 58.1311 -5.9566 1.4091 0
M  V30 643 N 57.2681 -6.97834 0.772784 0
M  V30 644 H 62.1081 -2.56164 1.52263 0
M  V30 645 H 59.6451 -1.25843 0.761701 0
M  V30 646 H 61.6031 -4.15485 -0.377919 0
M  V30 647 H 60.2331 -3.11472 -0.847652 0
M  V30 648 H 59.2851 -3.47604 1.54518 0
M  V30 649 H 60.5971 -4.64267 1.82368 0
M  V30 650 H 59.7511 -6.06677 -0.0528366 0
M  V30 651 H 58.4901 -4.85825 -0.427208 0
M  V30 652 H 57.4951 -5.17535 1.85574 0
M  V30 653 H 58.7201 -6.4173 2.22171 0
M  V30 654 H 56.6661 -6.55998 -0.0177708 0
M  V30 655 H 56.5831 -7.41186 1.48928 0
M  V30 656 H 57.8511 -7.78665 0.36071 0
M  V30 657 N 62.0802 -0.821533 -1.34494 0
M  V30 658 C 63.3262 -0.418729 -1.99043 0
M  V30 659 C 63.6812 1.00672 -1.6396 0
M  V30 660 O 62.9742 1.69132 -0.900271 0
M  V30 661 C 63.1682 -0.556512 -3.53041 0
M  V30 662 C 62.9972 -1.9938 -4.03085 0
M  V30 663 C 61.7672 -2.62539 -4.31742 0
M  V30 664 C 63.9652 -2.96035 -4.20556 0
M  V30 665 N 61.9472 -3.97523 -4.67813 0
M  V30 666 C 63.3182 -4.15924 -4.59791 0
M  V30 667 C 65.3732 -2.9267 -4.02801 0
M  V30 668 C 64.0762 -5.32899 -4.83126 0
M  V30 669 C 66.1022 -4.08861 -4.27302 0
M  V30 670 C 65.4642 -5.275 -4.66822 0
M  V30 671 H 61.5632 -0.201299 -0.755647 0
M  V30 672 H 64.1472 -1.06594 -1.62929 0
M  V30 673 H 62.3182 0.0607924 -3.88352 0
M  V30 674 H 64.0502 -0.126842 -4.04501 0
M  V30 675 H 60.8052 -2.13789 -4.22601 0
M  V30 676 H 61.2292 -4.67061 -4.90085 0
M  V30 677 H 65.8712 -2.02088 -3.71376 0
M  V30 678 H 63.5892 -6.24041 -5.13418 0
M  V30 679 H 67.1752 -4.07654 -4.15101 0
M  V30 680 H 66.0552 -6.15913 -4.85408 0
M  V30 681 N 63.5583 1.46682 -0.576371 0
M  V30 682 C 64.8053 2.02412 -0.0595339 0
M  V30 683 C 65.1333 1.44859 1.29793 0
M  V30 684 O 64.3883 0.601099 1.8624 0
M  V30 685 C 64.6873 3.57345 0.062886 0
M  V30 686 C 64.3533 4.33908 -1.22616 0
M  V30 687 C 63.0153 4.54544 -1.57933 0
M  V30 688 C 65.3673 4.77919 -2.07948 0
M  V30 689 C 62.6953 5.16444 -2.78393 0
M  V30 690 C 65.0473 5.41149 -3.27629 0
M  V30 691 C 63.7113 5.60014 -3.63236 0
M  V30 692 H 62.9813 0.74068 -0.021785 0
M  V30 693 H 65.6283 1.76128 -0.751735 0
M  V30 694 H 63.9333 3.82729 0.838178 0
M  V30 695 H 65.6303 3.98136 0.478439 0
M  V30 696 H 62.2203 4.18138 -0.941202 0
M  V30 697 H 66.4043 4.61738 -1.81967 0
M  V30 698 H 61.6603 5.29242 -3.06126 0
M  V30 699 H 65.8343 5.74211 -3.94023 0
M  V30 700 H 63.4613 6.07748 -4.56669 0
M  V30 701 N 65.0364 0.313813 1.54444 0
M  V30 702 C 66.2664 -0.293491 2.04505 0
M  V30 703 C 66.6744 -1.47086 1.19005 0
M  V30 704 O 66.0174 -1.82481 0.211257 0
M  V30 705 C 66.0794 -0.800455 3.50475 0
M  V30 706 C 65.7434 0.253322 4.56297 0
M  V30 707 C 66.7404 1.08612 5.08428 0
M  V30 708 C 64.4254 0.398708 5.00715 0
M  V30 709 C 66.4194 2.05013 6.0353 0
M  V30 710 C 64.1064 1.36614 5.95634 0
M  V30 711 C 65.1044 2.19033 6.46926 0
M  V30 712 O 64.7924 3.14134 7.39983 0
M  V30 713 H 64.5244 -0.0658325 0.672787 0
M  V30 714 H 67.0784 0.455177 2.00293 0
M  V30 715 H 65.3084 -1.59987 3.52053 0
M  V30 716 H 66.9974 -1.32504 3.83663 0
M  V30 717 H 67.7634 0.984736 4.74898 0
M  V30 718 H 63.6424 -0.23289 4.60411 0
M  V30 719 H 67.1864 2.69382 6.4349 0
M  V30 720 H 63.0834 1.4682 6.28581 0
M  V30 721 H 63.8514 3.0926 7.57826 0
M  V30 722 N 66.5145 -1.57545 0.0417849 0
M  V30 723 C 67.7635 -1.91494 -0.633492 0
M  V30 724 C 68.0765 -0.921084 -1.72556 0
M  V30 725 O 69.2825 -1.15228 -2.45835 0
M  V30 726 C 67.7385 -3.40072 -1.17808 0
M  V30 727 C 67.3465 -4.47843 -0.118633 0
M  V30 728 C 69.0905 -3.8307 -1.82915 0
M  V30 729 C 66.9975 -5.87529 -0.675578 0
M  V30 730 H 65.9275 -0.714653 -0.24039 0
M  V30 731 H 68.5785 -1.83175 0.109148 0
M  V30 732 H 66.9605 -3.43364 -1.97274 0
M  V30 733 H 68.1345 -4.56128 0.654494 0
M  V30 734 H 66.4495 -4.14128 0.434414 0
M  V30 735 H 69.0465 -4.84794 -2.25563 0
M  V30 736 H 69.3895 -3.1881 -2.67705 0
M  V30 737 H 69.9225 -3.82255 -1.10119 0
M  V30 738 H 66.6615 -6.55362 0.134475 0
M  V30 739 H 66.1815 -5.82824 -1.4169 0
M  V30 740 H 67.8605 -6.36491 -1.1614 0
M  V30 741 N 67.9926 0.231505 -1.5589 0
M  V30 742 C 68.9556 1.27028 -1.90779 0
M  V30 743 C 69.9556 1.40308 -0.785507 0
M  V30 744 O 71.1456 1.38744 -1.05336 0
M  V30 745 C 68.2776 2.64566 -2.14983 0
M  V30 746 H 69.4706 0.973017 -2.83677 0
M  V30 747 H 67.0236 0.471486 -1.49019 0
M  V30 748 H 67.7586 2.99406 -1.24604 0
M  V30 749 H 67.5436 2.56305 -2.96732 0
M  V30 750 H 69.0336 3.39543 -2.43105 0
M  V30 751 N 69.4707 1.49531 0.497807 0
M  V30 752 C 70.6957 1.63159 1.28039 0
M  V30 753 C 71.1207 0.30418 1.85624 0
M  V30 754 O 70.4787 -0.728618 1.66015 0
M  V30 755 C 70.5267 2.70537 2.38416 0
M  V30 756 O 69.6307 2.29931 3.42353 0
M  V30 757 H 68.9717 0.546001 0.377861 0
M  V30 758 H 71.5017 1.9574 0.59558 0
M  V30 759 H 71.5117 2.92802 2.84132 0
M  V30 760 H 70.1867 3.6689 1.95869 0
M  V30 761 H 68.7637 2.18009 3.02533 0
M  V30 762 N 70.9488 -0.749086 1.3866 0
M  V30 763 C 71.9118 -1.84457 1.36045 0
M  V30 764 C 72.9118 -1.58682 0.260122 0
M  V30 765 O 74.1018 -1.66343 0.517261 0
M  V30 766 C 71.2338 -3.22008 1.11911 0
M  V30 767 H 72.4268 -1.88182 2.33512 0
M  V30 768 H 69.9798 -0.951266 1.24019 0
M  V30 769 H 70.7148 -3.2395 0.150686 0
M  V30 770 H 70.4998 -3.42111 1.91579 0
M  V30 771 H 71.9898 -4.0208 1.12788 0
M  V30 772 N 72.4269 -1.23603 -0.977757 0
M  V30 773 C 73.6739 -1.06971 -1.71941 0
M  V30 774 C 74.0019 0.393009 -1.90488 0
M  V30 775 O 73.2569 1.30719 -1.4564 0
M  V30 776 C 73.5559 -1.7433 -3.11999 0
M  V30 777 C 73.2219 -3.24252 -3.13323 0
M  V30 778 C 71.8839 -3.65156 -3.13392 0
M  V30 779 C 74.2359 -4.20141 -3.08433 0
M  V30 780 C 71.5639 -5.00403 -3.0629 0
M  V30 781 C 73.9159 -5.55384 -3.02873 0
M  V30 782 C 72.5799 -5.95647 -3.01265 0
M  V30 783 H 71.8499 -0.391433 -0.629175 0
M  V30 784 H 74.4969 -1.53572 -1.14403 0
M  V30 785 H 72.8019 -1.20096 -3.7294 0
M  V30 786 H 74.4989 -1.58936 -3.68158 0
M  V30 787 H 71.0889 -2.91692 -3.14029 0
M  V30 788 H 75.2729 -3.89547 -3.07517 0
M  V30 789 H 70.5289 -5.3081 -3.03399 0
M  V30 790 H 74.7029 -6.29398 -2.98046 0
M  V30 791 H 72.3299 -7.0041 -2.95516 0
M  V30 792 N 73.905 1.17692 -1.04816 0
M  V30 793 C 75.321 1.39863 -0.768794 0
M  V30 794 C 75.521 1.91118 0.638451 0
M  V30 795 O 74.577 2.10036 1.40146 0
M  V30 796 C 75.89 2.39274 -1.82122 0
M  V30 797 C 77.438 2.52987 -1.843 0
M  V30 798 C 77.913 3.55669 -2.88555 0
M  V30 799 N 79.404 3.63183 -2.87493 0
M  V30 800 C 80.139 4.42381 -3.64811 0
M  V30 801 N 79.635 5.25125 -4.51903 0
M  V30 802 N 81.428 4.37217 -3.53267 0
M  V30 803 H 73.579 0.82752 -1.95617 0
M  V30 804 H 75.842 0.426123 -0.846831 0
M  V30 805 H 75.548 2.08678 -2.83102 0
M  V30 806 H 75.422 3.38725 -1.65967 0
M  V30 807 H 77.809 2.82896 -0.839869 0
M  V30 808 H 77.89 1.53623 -2.04532 0
M  V30 809 H 77.534 3.26499 -3.89051 0
M  V30 810 H 77.464 4.54728 -2.65575 0
M  V30 811 H 79.955 3.04103 -2.24343 0
M  V30 812 H 80.268 5.82728 -5.07591 0
M  V30 813 H 78.613 5.24519 -4.55966 0
M  V30 814 H 81.804 3.71626 -2.84625 0
M  V30 815 H 81.977 4.98696 -4.13771 0
M  V30 816 N 75.3831 0.828654 1.34056 0
M  V30 817 C 76.3311 0.242973 2.31327 0
M  V30 818 C 77.3251 -0.61944 1.57668 0
M  V30 819 O 78.5311 -0.51014 1.7262 0
M  V30 820 H 74.9061 0.059834 0.749616 0
M  V30 821 H 76.8771 1.07809 2.78244 0
M  V30 822 C 75.6261 -0.575733 3.429 0
M  V30 823 H 74.9491 0.0785582 3.99723 0
M  V30 824 H 76.3891 -0.951547 4.13185 0
M  V30 825 C 74.8481 -1.75044 2.87856 0
M  V30 826 O 75.3781 -2.84882 2.83205 0
M  V30 827 N 73.5841 -1.56903 2.44602 0
M  V30 828 H 73.1311 -0.675547 2.48584 0
M  V30 829 H 73.0891 -2.35652 2.08124 0
M  V30 830 N 76.8612 -1.46375 0.584142 0
M  V30 831 C 77.7712 -2.34115 -0.150728 0
M  V30 832 C 78.7872 -1.49838 -0.884567 0
M  V30 833 O 79.9632 -1.82704 -0.847429 0
M  V30 834 C 77.0282 -3.2705 -1.15062 0
M  V30 835 C 76.0892 -4.27228 -0.421293 0
M  V30 836 C 75.3222 -5.15722 -1.37355 0
M  V30 837 O 75.5452 -5.07176 -2.61014 0
M  V30 838 O 74.4792 -5.95383 -0.883355 0
M  V30 839 H 78.3052 -2.98309 0.569708 0
M  V30 840 H 75.8902 -1.45373 0.344535 0
M  V30 841 H 77.7722 -3.84381 -1.72712 0
M  V30 842 H 76.4472 -2.65451 -1.8525 0
M  V30 843 H 75.3542 -3.7358 0.197085 0
M  V30 844 H 76.6872 -4.91616 0.239641 0
M  V30 845 N 78.3393 -0.321999 -1.54275 0
M  V30 846 C 79.2493 0.553631 -2.27974 0
M  V30 847 C 80.2653 1.13054 -1.32268 0
M  V30 848 O 81.4413 1.15084 -1.6528 0
M  V30 849 C 78.5063 1.69927 -3.02201 0
M  V30 850 C 77.5673 1.15433 -4.1349 0
M  V30 851 C 76.8003 2.24537 -4.84168 0
M  V30 852 O 77.0233 3.44852 -4.5435 0
M  V30 853 O 75.9573 1.90044 -5.7111 0
M  V30 854 H 79.7833 -0.0448345 -3.03667 0
M  V30 855 H 77.3683 -0.0877418 -1.49142 0
M  V30 856 H 79.2503 2.3663 -3.48689 0
M  V30 857 H 77.9253 2.28395 -2.29385 0
M  V30 858 H 76.8323 0.452436 -3.71354 0
M  V30 859 H 78.1653 0.614805 -4.88345 0
M  V30 860 N 79.8174 1.5752 -0.0501392 0
M  V30 861 C 81.0474 1.96678 0.632573 0
M  V30 862 C 81.4554 0.926298 1.64974 0
M  V30 863 O 80.7984 -0.09802 1.83438 0
M  V30 864 C 80.8604 3.32068 1.37735 0
M  V30 865 C 80.5244 4.54076 0.516131 0
M  V30 866 C 81.5214 5.19445 -0.217357 0
M  V30 867 C 79.2064 5.00304 0.44736 0
M  V30 868 C 81.2004 6.29378 -1.00807 0
M  V30 869 C 78.8874 6.10114 -0.347038 0
M  V30 870 C 79.8854 6.74512 -1.07344 0
M  V30 871 O 79.5734 7.82211 -1.85477 0
M  V30 872 H 79.3054 0.652193 0.177821 0
M  V30 873 H 81.8594 2.05091 -0.112543 0
M  V30 874 H 80.0894 3.20206 2.16807 0
M  V30 875 H 81.7784 3.55981 1.95019 0
M  V30 876 H 82.5444 4.84689 -0.173688 0
M  V30 877 H 78.4234 4.49971 1.00235 0
M  V30 878 H 81.9674 6.79575 -1.57556 0
M  V30 879 H 77.8644 6.44307 -0.392349 0
M  V30 880 H 78.6324 7.98982 -1.77678 0
M  V30 881 N 81.2955 -0.223234 1.56011 0
M  V30 882 C 82.2435 -1.29627 1.93131 0
M  V30 883 C 83.2375 -1.48608 0.813146 0
M  V30 884 O 84.4435 -1.49802 0.997966 0
M  V30 885 H 80.8185 -0.434563 0.613726 0
M  V30 886 H 82.7895 -0.955995 2.82672 0
M  V30 887 C 81.5385 -2.63983 2.26292 0
M  V30 888 H 80.8615 -2.50185 3.11846 0
M  V30 889 H 82.3015 -3.3788 2.56151 0
M  V30 890 C 80.7605 -3.18866 1.08747 0
M  V30 891 O 81.2905 -4.00192 0.347727 0
M  V30 892 N 79.4965 -2.77217 0.871743 0
M  V30 893 H 79.0435 -2.1119 1.47501 0
M  V30 894 H 79.0015 -3.1428 0.0869905 0
M  V30 895 N 82.7736 -1.49793 -0.48987 0
M  V30 896 C 83.7206 -1.67281 -1.59014 0
M  V30 897 C 84.6906 -0.514177 -1.57941 0
M  V30 898 O 85.8756 -0.742533 -1.75759 0
M  V30 899 C 83.0156 -1.75569 -2.97102 0
M  V30 900 C 82.1286 -3.0281 -3.08107 0
M  V30 901 C 81.2636 -3.02008 -4.36995 0
M  V30 902 C 80.3026 -4.23782 -4.41673 0
M  V30 903 N 79.4396 -4.20826 -5.62005 0
M  V30 904 H 84.2796 -2.61224 -1.43409 0
M  V30 905 H 81.8166 -1.29508 -0.697565 0
M  V30 906 H 83.7746 -1.78354 -3.77155 0
M  V30 907 H 82.4046 -0.850827 -3.11385 0
M  V30 908 H 81.4566 -3.09584 -2.21047 0
M  V30 909 H 82.7686 -3.92801 -3.07423 0
M  V30 910 H 81.9226 -3.03418 -5.25378 0
M  V30 911 H 80.6616 -2.09815 -4.4026 0
M  V30 912 H 79.6666 -4.22604 -3.5169 0
M  V30 913 H 80.8916 -5.17181 -4.40115 0
M  V30 914 H 78.8376 -3.31476 -5.66091 0
M  V30 915 H 78.7546 -5.04564 -5.62984 0
M  V30 916 H 80.0226 -4.26355 -6.52565 0
M  V30 917 N 84.2517 0.741722 -1.39055 0
M  V30 918 C 85.4767 1.53607 -1.39354 0
M  V30 919 C 85.9017 1.88096 0.0116905 0
M  V30 920 O 85.2597 1.5143 0.996924 0
M  V30 921 C 85.3077 2.80441 -2.26682 0
M  V30 922 O 84.4117 3.76088 -1.69208 0
M  V30 923 H 83.7527 0.464142 -0.474835 0
M  V30 924 H 86.2827 0.915665 -1.82967 0
M  V30 925 H 86.2927 3.29246 -2.40959 0
M  V30 926 H 84.9677 2.5467 -3.2881 0
M  V30 927 H 83.5447 3.34833 -1.64138 0
M  V30 928 N 85.7298 1.2412 0.971189 0
M  V30 929 C 86.9758 1.08041 1.71625 0
M  V30 930 C 87.3088 -0.380407 1.90438 0
M  V30 931 O 86.5838 -1.28127 1.46334 0
M  V30 932 C 86.8668 1.81682 3.10908 0
M  V30 933 C 86.7198 3.35493 2.99608 0
M  V30 934 C 88.0388 1.58671 4.10501 0
M  V30 935 H 85.1578 0.39388 0.622919 0
M  V30 936 H 87.7998 1.52743 1.13003 0
M  V30 937 H 85.9498 1.43684 3.60953 0
M  V30 938 H 87.6218 3.83068 2.57015 0
M  V30 939 H 85.8648 3.64052 2.35899 0
M  V30 940 H 86.5358 3.82217 3.98264 0
M  V30 941 H 89.0118 1.91719 3.69301 0
M  V30 942 H 87.8878 2.1266 5.06031 0
M  V30 943 H 88.1488 0.524161 4.38982 0
M  V30 944 N 87.2079 -1.17134 1.05439 0
M  V30 945 C 88.1399 -2.2078 0.615539 0
M  V30 946 C 89.1529 -1.59584 -0.322001 0
M  V30 947 O 90.3419 -1.78133 -0.114344 0
M  V30 948 C 87.4419 -3.38691 -0.118938 0
M  V30 949 C 86.6149 -4.29454 0.829924 0
M  V30 950 C 85.6739 -5.26024 0.136258 0
M  V30 951 O 84.6999 -5.63952 0.77115 0
M  V30 952 N 85.9019 -5.69487 -1.1254 0
M  V30 953 H 88.6669 -2.59052 1.50705 0
M  V30 954 H 86.2279 -1.32058 0.936603 0
M  V30 955 H 88.2199 -4.00329 -0.593179 0
M  V30 956 H 86.7899 -2.98996 -0.91215 0
M  V30 957 H 86.0099 -3.65211 1.48373 0
M  V30 958 H 87.2979 -4.86984 1.47392 0
M  V30 959 H 86.6959 -5.4075 -1.6615 0
M  V30 960 H 85.2529 -6.33257 -1.54366 0
M  V30 961 N 88.686 -0.835752 -1.33615 0
M  V30 962 C 89.596 -0.269088 -2.33052 0
M  V30 963 C 90.612 0.603251 -1.63208 0
M  V30 964 O 91.788 0.508112 -1.94885 0
M  V30 965 C 88.853 0.549091 -3.42324 0
M  V30 966 C 87.914 -0.347156 -4.27894 0
M  V30 967 C 87.147 0.43207 -5.31948 0
M  V30 968 O 87.37 1.66409 -5.45586 0
M  V30 969 O 86.304 -0.192298 -6.01593 0
M  V30 970 H 90.13 -1.09243 -2.83372 0
M  V30 971 H 87.715 -0.598198 -1.36901 0
M  V30 972 H 89.597 1.01414 -4.09015 0
M  V30 973 H 88.272 1.34955 -2.94226 0
M  V30 974 H 87.179 -0.859979 -3.64081 0
M  V30 975 H 88.512 -1.1123 -4.79467 0
M  V30 976 N 90.1641 1.46063 -0.591896 0
M  V30 977 C 91.4131 2.01547 -0.0786637 0
M  V30 978 C 91.7261 1.46796 1.29268 0
M  V30 979 O 92.9321 1.94157 1.89777 0
M  V30 980 C 91.3881 3.59787 -0.0900024 0
M  V30 981 C 90.9961 4.23534 -1.46023 0
M  V30 982 C 92.7401 4.22895 0.368806 0
M  V30 983 C 90.6471 5.73881 -1.4288 0
M  V30 984 H 89.5771 0.753564 -0.0256388 0
M  V30 985 H 92.2281 1.677 -0.744905 0
M  V30 986 H 90.6101 3.90752 0.642586 0
M  V30 987 H 91.7841 4.04167 -2.21328 0
M  V30 988 H 90.0991 3.72558 -1.85982 0
M  V30 989 H 92.6961 5.33116 0.411258 0
M  V30 990 H 93.0391 3.9247 1.38827 0
M  V30 991 H 93.5721 3.9659 -0.31001 0
M  V30 992 H 90.3111 6.0898 -2.42536 0
M  V30 993 H 89.8311 5.95486 -0.718095 0
M  V30 994 H 91.5101 6.36776 -1.14565 0
M  V30 995 N 91.6422 0.330177 1.54103 0
M  V30 996 C 92.5742 -0.566902 2.22079 0
M  V30 997 C 93.5872 -1.07462 1.22294 0
M  V30 998 O 94.7762 -0.987065 1.48726 0
M  V30 999 C 91.8762 -1.79138 2.87685 0
M  V30 1000 C 91.0492 -1.42123 4.13666 0
M  V30 1001 C 90.1082 -2.50394 4.62806 0
M  V30 1002 O 89.1342 -2.14261 5.27334 0
M  V30 1003 N 90.3362 -3.81433 4.37595 0
M  V30 1004 H 93.1012 0.0151844 2.99696 0
M  V30 1005 H 90.6622 0.153681 1.61169 0
M  V30 1006 H 92.6542 -2.50975 3.1748 0
M  V30 1007 H 91.2242 -2.28115 2.13734 0
M  V30 1008 H 90.4442 -0.534201 3.90564 0
M  V30 1009 H 91.7322 -1.14971 4.9564 0
M  V30 1010 H 91.1302 -4.13584 3.8596 0
M  V30 1011 H 89.6872 -4.4948 4.72029 0
M  V30 1012 N 93.1203 -1.57491 0.0584922 0
M  V30 1013 C 94.0833 -2.1085 -0.898617 0
M  V30 1014 C 95.0833 -1.02964 -1.23511 0
M  V30 1015 O 96.2733 -1.29007 -1.17059 0
M  V30 1016 C 93.4053 -2.59881 -2.20623 0
M  V30 1017 H 94.5983 -2.96715 -0.435936 0
M  V30 1018 H 92.1513 -1.55141 -0.190023 0
M  V30 1019 H 92.8863 -1.77431 -2.71457 0
M  V30 1020 H 92.6713 -3.38727 -1.97501 0
M  V30 1021 H 94.1613 -3.01285 -2.89166 0
M  V30 1022 N 94.5984 0.214957 -1.56127 0
M  V30 1023 C 95.8264 0.955092 -1.83536 0
M  V30 1024 C 96.2414 1.77677 -0.638472 0
M  V30 1025 O 95.5984 1.78219 0.392968 0
M  V30 1026 C 95.6494 1.86734 -3.09536 0
M  V30 1027 O 95.3704 1.07887 -4.24608 0
M  V30 1028 C 96.8714 2.72082 -3.4998 0
M  V30 1029 H 94.0914 0.279611 -0.609966 0
M  V30 1030 H 96.6354 0.228197 -2.03223 0
M  V30 1031 H 94.7904 2.5481 -2.91806 0
M  V30 1032 H 95.2044 1.69872 -4.9623 0
M  V30 1033 H 96.6784 3.31782 -4.41163 0
M  V30 1034 H 97.1554 3.44806 -2.7204 0
M  V30 1035 H 97.7614 2.09409 -3.70173 0
M  V30 1036 N 96.0765 1.50051 0.48192 0
M  V30 1037 C 97.3235 1.60498 1.23477 0
M  V30 1038 C 97.6515 0.300331 1.92167 0
M  V30 1039 O 96.9065 -0.713094 1.82246 0
M  V30 1040 C 97.2055 2.72717 2.30998 0
M  V30 1041 C 96.8715 4.13572 1.79636 0
M  V30 1042 C 95.5335 4.519 1.65348 0
M  V30 1043 C 97.8855 5.01649 1.41412 0
M  V30 1044 C 95.2135 5.76057 1.11244 0
M  V30 1045 C 97.5655 6.26343 0.887538 0
M  V30 1046 C 96.2295 6.63483 0.731207 0
M  V30 1047 H 95.4995 0.587303 0.451836 0
M  V30 1048 H 98.1465 1.83948 0.532468 0
M  V30 1049 H 96.4515 2.43312 3.07094 0
M  V30 1050 H 98.1485 2.78006 2.88988 0
M  V30 1051 H 94.7385 3.83329 1.91721 0
M  V30 1052 H 98.9225 4.72679 1.51289 0
M  V30 1053 H 94.1785 6.03516 0.978686 0
M  V30 1054 H 98.3525 6.93958 0.582654 0
M  V30 1055 H 95.9795 7.59568 0.309806 0
M  V30 1056 N 97.5546 -0.734337 1.39446 0
M  V30 1057 C 98.8016 -1.49391 1.36706 0
M  V30 1058 C 99.1296 -1.94465 -0.0367813 0
M  V30 1059 O 98.3846 -1.67154 -1.01774 0
M  V30 1060 C 98.6836 -2.74711 2.28623 0
M  V30 1061 C 98.3496 -2.48501 3.76242 0
M  V30 1062 C 97.0116 -2.41062 4.16464 0
M  V30 1063 C 99.3636 -2.26098 4.69606 0
M  V30 1064 C 96.6916 -2.09262 5.48112 0
M  V30 1065 C 99.0436 -1.95814 6.01531 0
M  V30 1066 C 97.7076 -1.86845 6.40816 0
M  V30 1067 H 96.9776 -0.546661 0.500243 0
M  V30 1068 H 99.6246 -0.842788 1.71957 0
M  V30 1069 H 97.9296 -3.44569 1.86492 0
M  V30 1070 H 99.6266 -3.32741 2.23796 0
M  V30 1071 H 96.2166 -2.55169 3.44364 0
M  V30 1072 H 100.401 -2.30812 4.39363 0
M  V30 1073 H 95.6566 -2.00841 5.77471 0
M  V30 1074 H 99.8306 -1.77488 6.73403 0
M  V30 1075 H 97.4576 -1.6197 7.42745 0
M  V30 1076 N 99.0327 -1.24633 -0.964593 0
M  V30 1077 C 100.263 -1.11339 -1.74032 0
M  V30 1078 C 100.671 0.336593 -1.86182 0
M  V30 1079 O 100.014 1.24389 -1.35178 0
M  V30 1080 C 100.076 -1.68284 -3.1768 0
M  V30 1081 C 99.7397 -3.17196 -3.28992 0
M  V30 1082 C 100.737 -4.14308 -3.14078 0
M  V30 1083 C 98.4217 -3.57215 -3.53133 0
M  V30 1084 C 100.416 -5.4942 -3.23135 0
M  V30 1085 C 98.1027 -4.92468 -3.61827 0
M  V30 1086 C 99.1007 -5.8838 -3.46841 0
M  V30 1087 O 98.7887 -7.21173 -3.55197 0
M  V30 1088 H 98.5207 -0.389551 -0.552472 0
M  V30 1089 H 101.075 -1.65282 -1.21946 0
M  V30 1090 H 99.3047 -1.08777 -3.71085 0
M  V30 1091 H 100.994 -1.50234 -3.77074 0
M  V30 1092 H 101.76 -3.84731 -2.95308 0
M  V30 1093 H 97.6387 -2.83063 -3.63863 0
M  V30 1094 H 101.183 -6.24263 -3.11355 0
M  V30 1095 H 97.0797 -5.21714 -3.80111 0
M  V30 1096 H 97.8477 -7.29135 -3.71892 0
M  V30 1097 N 100.511 1.16574 -1.06058 0
M  V30 1098 C 101.758 1.87047 -0.775873 0
M  V30 1099 C 102.086 1.81562 0.697534 0
M  V30 1100 O 101.341 1.22445 1.52662 0
M  V30 1101 C 101.64 3.36195 -1.21275 0
M  V30 1102 C 101.306 3.6188 -2.68986 0
M  V30 1103 C 99.9678 3.68599 -3.09335 0
M  V30 1104 C 102.32 3.72648 -3.64394 0
M  V30 1105 C 99.6478 3.83584 -4.43937 0
M  V30 1106 C 102 3.89154 -4.98741 0
M  V30 1107 C 100.664 3.94114 -5.3873 0
M  V30 1108 H 99.9338 0.684452 -0.283912 0
M  V30 1109 H 102.581 1.37853 -1.32925 0
M  V30 1110 H 100.886 3.87505 -0.578528 0
M  V30 1111 H 102.583 3.89103 -0.969542 0
M  V30 1112 H 99.1728 3.57281 -2.36744 0
M  V30 1113 H 103.357 3.66769 -3.34356 0
M  V30 1114 H 98.6128 3.85677 -4.74409 0
M  V30 1115 H 102.787 3.96427 -5.72554 0
M  V30 1116 H 100.414 4.05478 -6.43033 0
M  V30 1117 N 101.989 0.842826 1.3317 0
M  V30 1118 C 103.217 0.454055 2.01856 0
M  V30 1119 C 103.632 -0.94587 1.63397 0
M  V30 1120 O 102.989 -1.61534 0.849302 0
M  V30 1121 C 103.04 0.569715 3.56982 0
M  V30 1122 O 102.761 1.91448 3.94055 0
M  V30 1123 C 104.262 0.178412 4.42941 0
M  V30 1124 H 101.482 0.17979 0.646465 0
M  V30 1125 H 104.026 1.1365 1.70012 0
M  V30 1126 H 102.181 -0.0648587 3.87346 0
M  V30 1127 H 102.595 1.90282 4.88767 0
M  V30 1128 H 104.069 0.310376 5.51127 0
M  V30 1129 H 104.546 -0.880056 4.30293 0
M  V30 1130 H 105.152 0.787579 4.17944 0
M  V30 1131 N 103.467 -1.45747 0.599634 0
M  V30 1132 C 104.878 -1.85853 0.177681 0
M  V30 1133 C 105.229 -1.50102 -1.26348 0
M  V30 1134 O 104.354 -0.923905 -1.95686 0
M  V30 1135 C 104.949 -3.37326 0.315688 0
M  V30 1136 C 103.508 -3.76365 -0.0515144 0
M  V30 1137 C 102.655 -2.69722 0.643822 0
M  V30 1138 H 105.606 -1.36661 0.806814 0
M  V30 1139 H 105.627 -3.77778 -0.454321 0
M  V30 1140 H 105.139 -3.63315 1.36468 0
M  V30 1141 H 103.24 -3.55993 -1.09999 0
M  V30 1142 H 103.353 -4.77916 0.336594 0
M  V30 1143 H 101.717 -2.54567 0.0822881 0
M  V30 1144 H 102.5 -2.98549 1.6948 0
M  V30 1145 N 104.945 -0.338344 -1.53925 0
M  V30 1146 C 105.893 0.536231 -2.26335 0
M  V30 1147 C 106.887 1.1063 -1.28286 0
M  V30 1148 O 108.093 1.05264 -1.46012 0
M  V30 1149 H 104.468 0.191602 -0.727181 0
M  V30 1150 H 106.439 -0.0965747 -2.98244 0
M  V30 1151 C 105.188 1.67803 -3.04528 0
M  V30 1152 H 104.511 1.24864 -3.79801 0
M  V30 1153 H 105.951 2.26526 -3.58416 0
M  V30 1154 C 104.41 2.60439 -2.13712 0
M  V30 1155 O 104.94 3.6255 -1.72975 0
M  V30 1156 N 103.146 2.29006 -1.78898 0
M  V30 1157 H 102.693 1.46011 -2.12223 0
M  V30 1158 H 102.651 2.91248 -1.18416 0
M  V30 1159 N 106.423 1.57458 -0.0668435 0
M  V30 1160 C 107.37 2.12439 0.902122 0
M  V30 1161 C 108.34 1.03565 1.2986 0
M  V30 1162 O 109.525 1.312 1.38532 0
M  V30 1163 C 106.665 2.6865 2.16614 0
M  V30 1164 C 105.778 3.91663 1.82274 0
M  V30 1165 C 104.913 4.36134 3.0325 0
M  V30 1166 C 103.952 5.51808 2.64904 0
M  V30 1167 N 103.089 5.9126 3.78624 0
M  V30 1168 H 107.929 2.94934 0.426382 0
M  V30 1169 H 105.466 1.4575 0.198819 0
M  V30 1170 H 107.424 2.99346 2.90599 0
M  V30 1171 H 106.054 1.88928 2.61737 0
M  V30 1172 H 105.106 3.6746 0.983719 0
M  V30 1173 H 106.418 4.75693 1.50059 0
M  V30 1174 H 105.572 4.68465 3.85519 0
M  V30 1175 H 104.311 3.50948 3.38655 0
M  V30 1176 H 103.316 5.19133 1.81055 0
M  V30 1177 H 104.541 6.38722 2.30675 0
M  V30 1178 H 102.487 5.09024 4.138 0
M  V30 1179 H 102.404 6.70018 3.5016 0
M  V30 1180 H 103.672 6.28212 4.61486 0
M  V30 1181 N 107.901 -0.206675 1.56239 0
M  V30 1182 C 109.129 -0.945345 1.8404 0
M  V30 1183 C 109.544 -1.77336 0.647885 0
M  V30 1184 O 108.901 -1.78425 -0.383511 0
M  V30 1185 C 108.952 -1.8509 3.10522 0
M  V30 1186 O 108.673 -1.05634 4.25174 0
M  V30 1187 C 110.174 -2.70222 3.51418 0
M  V30 1188 H 107.394 -0.276372 0.61144 0
M  V30 1189 H 109.938 -0.217417 2.03341 0
M  V30 1190 H 108.093 -2.53259 2.93153 0
M  V30 1191 H 108.507 -1.67238 4.97124 0
M  V30 1192 H 109.981 -3.29438 4.42916 0
M  V30 1193 H 110.458 -3.43358 2.73864 0
M  V30 1194 H 111.064 -2.07443 3.71278 0
M  V30 1195 N 109.379 -1.50304 -0.473955 0
M  V30 1196 C 110.289 -1.7174 -1.5982 0
M  V30 1197 C 111.305 -0.600457 -1.63311 0
M  V30 1198 O 112.481 -0.878441 -1.81233 0
M  V30 1199 C 109.546 -1.80427 -2.96052 0
M  V30 1200 C 108.607 -3.04148 -3.02972 0
M  V30 1201 C 107.84 -3.12411 -4.32706 0
M  V30 1202 O 108.063 -2.27542 -5.23049 0
M  V30 1203 O 106.997 -4.05113 -4.45159 0
M  V30 1204 H 110.823 -2.67035 -1.44657 0
M  V30 1205 H 108.408 -1.34366 -0.653148 0
M  V30 1206 H 110.29 -1.88338 -3.7697 0
M  V30 1207 H 108.965 -0.883156 -3.11419 0
M  V30 1208 H 107.872 -3.0174 -2.21142 0
M  V30 1209 H 109.205 -3.95829 -2.92541 0
M  V30 1210 N 110.857 0.726932 -1.39834 0
M  V30 1211 C 112.134 1.47902 -1.28001 0
M  V30 1212 C 112.514 2.1083 0.106789 0
M  V30 1213 O 111.862 1.99242 1.11869 0
M  V30 1214 C 112.072 2.52392 -2.41038 0
M  V30 1215 C 113.42 3.18546 -2.80737 0
M  V30 1216 O 114.444 2.62708 -2.40547 0
M  V30 1217 O 113.303 4.19604 -3.50135 0
M  V30 1218 H 110.397 0.657163 -0.502062 0
M  V30 1219 H 112.943 0.760071 -1.51727 0
M  V30 1220 H 111.715 2.04329 -3.33715 0
M  V30 1221 H 111.338 3.31837 -2.19021 0
M  V30 1222 N 112.336 1.25143 0.95797 0
M  V30 1223 C 113.564 1.12424 1.73691 0
M  V30 1224 C 113.979 -0.322304 1.86029 0
M  V30 1225 O 113.336 -1.22186 1.35561 0
M  V30 1226 C 113.387 1.76933 3.15241 0
M  V30 1227 O 113.108 3.15932 3.03511 0
M  V30 1228 C 114.609 1.6995 4.09429 0
M  V30 1229 H 111.829 0.3923 0.544373 0
M  V30 1230 H 114.373 1.6544 1.20207 0
M  V30 1231 H 112.528 1.27895 3.6568 0
M  V30 1232 H 112.942 3.47598 3.9278 0
M  V30 1233 H 114.416 2.19753 5.06372 0
M  V30 1234 H 114.893 0.662619 4.34173 0
M  V30 1235 H 115.499 2.18461 3.64904 0
M  V30 1236 N 113.814 -1.1601 1.06675 0
M  V30 1237 C 115.063 -1.85973 0.780818 0
M  V30 1238 C 115.376 -1.82819 -0.695444 0
M  V30 1239 O 116.582 -2.484 -1.09589 0
M  V30 1240 C 115.038 -3.33757 1.34665 0
M  V30 1241 C 114.646 -3.45374 2.85343 0
M  V30 1242 C 116.39 -4.0895 1.13843 0
M  V30 1243 C 114.297 -4.87266 3.35151 0
M  V30 1244 H 113.227 -0.696661 0.288407 0
M  V30 1245 H 115.878 -1.30903 1.28595 0
M  V30 1246 H 114.26 -3.88456 0.769274 0
M  V30 1247 H 115.434 -3.00816 3.49065 0
M  V30 1248 H 113.749 -2.83619 3.04876 0
M  V30 1249 H 116.346 -5.13654 1.4854 0
M  V30 1250 H 116.689 -4.16229 0.0770282 0
M  V30 1251 H 117.222 -3.605 1.68179 0
M  V30 1252 H 113.961 -4.85168 4.40786 0
M  V30 1253 H 113.481 -5.32433 2.76179 0
M  V30 1254 H 115.16 -5.56097 3.30704 0
M  V30 1255 N 115.292 -0.849877 -1.32721 0
M  V30 1256 C 116.539 -0.450923 -1.97416 0
M  V30 1257 C 116.867 0.992376 -1.67279 0
M  V30 1258 O 116.122 1.71048 -0.950845 0
M  V30 1259 C 116.421 -0.631272 -3.51781 0
M  V30 1260 C 116.087 -2.04432 -4.01894 0
M  V30 1261 C 114.749 -2.4308 -4.1529 0
M  V30 1262 C 117.101 -2.96679 -4.28522 0
M  V30 1263 C 114.429 -3.73257 -4.52654 0
M  V30 1264 C 116.781 -4.26349 -4.67343 0
M  V30 1265 C 115.445 -4.64939 -4.78945 0
M  V30 1266 H 114.715 -0.165004 -0.722395 0
M  V30 1267 H 117.362 -1.07901 -1.58207 0
M  V30 1268 H 115.667 0.0800767 -3.91718 0
M  V30 1269 H 117.364 -0.302709 -3.99856 0
M  V30 1270 H 113.954 -1.73419 -3.91949 0
M  V30 1271 H 118.138 -2.68054 -4.17685 0
M  V30 1272 H 113.394 -4.02946 -4.59831 0
M  V30 1273 H 117.568 -4.97895 -4.86902 0
M  V30 1274 H 115.195 -5.65855 -5.07654 0
M  V30 1275 N 116.77 1.45427 -0.607355 0
M  V30 1276 C 117.7 2.3329 0.0989352 0
M  V30 1277 C 118.681 1.46816 0.859007 0
M  V30 1278 O 119.866 1.75588 0.829604 0
M  V30 1279 C 116.996 3.29518 1.09705 0
M  V30 1280 C 115.95 4.25626 0.450206 0
M  V30 1281 C 115.276 5.11542 1.55655 0
M  V30 1282 C 116.576 5.18505 -0.628455 0
M  V30 1283 H 118.27 2.92595 -0.634716 0
M  V30 1284 H 115.816 1.40696 -0.306681 0
M  V30 1285 H 117.769 3.89855 1.59971 0
M  V30 1286 H 116.493 2.68372 1.86129 0
M  V30 1287 H 115.152 3.66586 -0.0315886 0
M  V30 1288 H 114.8 4.46765 2.31107 0
M  V30 1289 H 114.5 5.76647 1.12925 0
M  V30 1290 H 116.024 5.74748 2.06148 0
M  V30 1291 H 117.438 5.72916 -0.209877 0
M  V30 1292 H 115.835 5.92085 -0.977489 0
M  V30 1293 H 116.905 4.60948 -1.50514 0
M  V30 1294 N 118.248 0.346503 1.53744 0
M  V30 1295 C 119.664 -0.00530975 1.59599 0
M  V30 1296 C 119.864 -1.48465 1.36236 0
M  V30 1297 O 118.92 -2.24376 1.15808 0
M  V30 1298 C 120.233 0.433516 2.97559 0
M  V30 1299 C 121.781 0.386111 3.10609 0
M  V30 1300 C 122.256 0.800451 4.50951 0
M  V30 1301 N 123.747 0.754753 4.5701 0
M  V30 1302 C 124.482 1.04727 5.63755 0
M  V30 1303 N 123.978 1.4081 6.7834 0
M  V30 1304 N 125.771 0.971316 5.53644 0
M  V30 1305 H 117.922 1.31009 1.67184 0
M  V30 1306 H 120.185 0.534242 0.783128 0
M  V30 1307 H 119.891 1.46509 3.19731 0
M  V30 1308 H 119.765 -0.189753 3.76722 0
M  V30 1309 H 122.152 -0.636295 2.88158 0
M  V30 1310 H 122.233 1.04462 2.33498 0
M  V30 1311 H 121.877 1.82088 4.74137 0
M  V30 1312 H 121.807 0.119386 5.26465 0
M  V30 1313 H 124.298 0.488662 3.74727 0
M  V30 1314 H 124.611 1.61607 7.55714 0
M  V30 1315 H 122.956 1.44657 6.79779 0
M  V30 1316 H 126.147 0.688748 4.63005 0
M  V30 1317 H 126.32 1.20263 6.36742 0
M  V30 1318 N 119.726 -1.57421 0.075193 0
M  V30 1319 C 120.636 -2.1642 -0.905511 0
M  V30 1320 C 121.652 -1.12828 -1.32461 0
M  V30 1321 O 122.828 -1.45109 -1.39661 0
M  V30 1322 C 119.893 -2.71693 -2.15369 0
M  V30 1323 C 118.954 -3.90171 -1.79068 0
M  V30 1324 C 118.187 -4.42798 -2.97936 0
M  V30 1325 O 118.41 -3.94416 -4.12058 0
M  V30 1326 O 117.344 -5.34085 -2.77555 0
M  V30 1327 H 121.17 -3.00588 -0.433626 0
M  V30 1328 H 118.755 -1.48664 -0.148067 0
M  V30 1329 H 120.637 -3.07104 -2.88557 0
M  V30 1330 H 119.312 -1.90582 -2.61649 0
M  V30 1331 H 118.219 -3.59606 -1.03122 0
M  V30 1332 H 119.552 -4.72584 -1.37569 0
M  V30 1333 N 121.204 0.198386 -1.56346 0
M  V30 1334 C 122.434 0.934215 -1.84271 0
M  V30 1335 C 122.842 1.77496 -0.655125 0
M  V30 1336 O 122.185 1.7961 0.385488 0
M  V30 1337 C 122.247 1.88278 -3.06254 0
M  V30 1338 C 121.911 1.22431 -4.40295 0
M  V30 1339 C 122.908 0.602839 -5.16393 0
M  V30 1340 C 120.593 1.22915 -4.87029 0
M  V30 1341 C 122.587 -0.0050083 -6.374 0
M  V30 1342 C 120.274 0.617465 -6.07973 0
M  V30 1343 C 121.272 0.00146341 -6.83 0
M  V30 1344 O 120.96 -0.600642 -8.01653 0
M  V30 1345 H 120.692 0.278245 -0.616081 0
M  V30 1346 H 123.246 0.211626 -2.04307 0
M  V30 1347 H 121.476 2.64498 -2.82095 0
M  V30 1348 H 123.165 2.48612 -3.20853 0
M  V30 1349 H 123.931 0.591265 -4.81382 0
M  V30 1350 H 119.81 1.69801 -4.28589 0
M  V30 1351 H 123.354 -0.48643 -6.95902 0
M  V30 1352 H 119.251 0.62653 -6.42452 0
M  V30 1353 H 120.019 -0.497225 -8.16988 0
M  V30 1354 N 122.682 1.50554 0.465978 0
M  V30 1355 C 123.614 1.65949 1.58093 0
M  V30 1356 C 124.627 0.540827 1.53554 0
M  V30 1357 O 125.816 0.814187 1.5885 0
M  V30 1358 C 122.916 1.63261 2.96983 0
M  V30 1359 C 122.089 2.91245 3.26336 0
M  V30 1360 C 121.148 2.8113 4.44806 0
M  V30 1361 O 120.174 3.55086 4.44862 0
M  V30 1362 N 121.376 1.95032 5.46756 0
M  V30 1363 H 124.141 2.62122 1.45301 0
M  V30 1364 H 121.702 1.48082 0.65448 0
M  V30 1365 H 123.694 1.54101 3.74212 0
M  V30 1366 H 122.264 0.748032 3.03518 0
M  V30 1367 H 121.484 3.14493 2.37672 0
M  V30 1368 H 122.772 3.76022 3.42761 0
M  V30 1369 H 122.17 1.3427 5.49534 0
M  V30 1370 H 120.727 1.91772 6.2295 0
M  V30 1371 N 124.16 -0.719506 1.40217 0
M  V30 1372 C 125.388 -1.50864 1.41589 0
M  V30 1373 C 125.803 -1.88794 0.0145275 0
M  V30 1374 O 125.16 -1.55174 -0.960594 0
M  V30 1375 C 125.211 -2.78646 2.30302 0
M  V30 1376 O 124.932 -2.42321 3.64983 0
M  V30 1377 C 126.433 -3.72569 2.40224 0
M  V30 1378 H 123.653 -0.465709 0.48307 0
M  V30 1379 H 126.197 -0.88785 1.84221 0
M  V30 1380 H 124.352 -3.37019 1.91042 0
M  V30 1381 H 124.766 -3.24514 4.12057 0
M  V30 1382 H 126.24 -4.5908 3.06512 0
M  V30 1383 H 126.717 -4.15403 1.42608 0
M  V30 1384 H 127.323 -3.20109 2.80019 0
M  V30 1385 N 125.638 -1.25649 -0.95132 0
M  V30 1386 C 127.054 -1.02542 -1.223 0
M  V30 1387 C 127.254 0.255715 -1.99871 0
M  V30 1388 O 126.31 0.967558 -2.33226 0
M  V30 1389 C 127.623 -2.25065 -1.99415 0
M  V30 1390 C 129.171 -2.29861 -2.12446 0
M  V30 1391 C 129.646 -3.52048 -2.92961 0
M  V30 1392 N 131.137 -3.52465 -3.00538 0
M  V30 1393 C 131.872 -4.43672 -3.63239 0
M  V30 1394 N 131.368 -5.45157 -4.27523 0
M  V30 1395 N 133.161 -4.31346 -3.60412 0
M  V30 1396 H 125.312 -2.07951 -0.432471 0
M  V30 1397 H 127.575 -0.91339 -0.253816 0
M  V30 1398 H 127.281 -3.18194 -1.49817 0
M  V30 1399 H 127.155 -2.28502 -3.00111 0
M  V30 1400 H 129.542 -1.37252 -2.61239 0
M  V30 1401 H 129.623 -2.3044 -1.11044 0
M  V30 1402 H 129.267 -4.44981 -2.44856 0
M  V30 1403 H 129.197 -3.48715 -3.94596 0
M  V30 1404 H 131.688 -2.79056 -2.54826 0
M  V30 1405 H 132.001 -6.10958 -4.73234 0
M  V30 1406 H 130.346 -5.49025 -4.26141 0
M  V30 1407 H 133.537 -3.51288 -3.09377 0
M  V30 1408 H 133.71 -5.02624 -4.0899 0
M  V30 1409 N 127.117 1.15442 -1.07289 0
M  V30 1410 C 128.049 2.19773 -0.650585 0
M  V30 1411 C 129.062 1.60076 0.296572 0
M  V30 1412 O 130.251 1.78293 0.0859905 0
M  V30 1413 C 127.351 3.38838 0.0650398 0
M  V30 1414 C 126.524 4.2808 -0.898141 0
M  V30 1415 C 125.583 5.2574 -0.219926 0
M  V30 1416 O 124.609 5.62654 -0.860773 0
M  V30 1417 N 125.811 5.71205 1.03466 0
M  V30 1418 H 128.576 2.56622 -1.54808 0
M  V30 1419 H 126.137 1.30551 -0.957494 0
M  V30 1420 H 128.129 4.01222 0.529415 0
M  V30 1421 H 126.699 3.00409 0.864466 0
M  V30 1422 H 125.919 3.62804 -1.54165 0
M  V30 1423 H 127.207 4.84577 -1.5512 0
M  V30 1424 H 126.605 5.43325 1.57526 0
M  V30 1425 H 125.162 6.35633 1.44272 0
M  V30 1426 N 128.595 0.856903 1.32268 0
M  V30 1427 C 129.872 0.382583 1.91822 0
M  V30 1428 C 130.252 -1.13407 1.78051 0
M  V30 1429 O 129.6 -1.95673 1.18001 0
M  V30 1430 C 129.81 0.849446 3.38505 0
M  V30 1431 C 131.158 0.867936 4.15634 0
M  V30 1432 O 132.182 0.794232 3.47232 0
M  V30 1433 O 131.041 0.972286 5.37781 0
M  V30 1434 H 128.135 0.112014 0.819379 0
M  V30 1435 H 130.681 0.943952 1.41024 0
M  V30 1436 H 129.453 1.89267 3.42482 0
M  V30 1437 H 129.076 0.265652 3.96712 0
M  V30 1438 N 130.073 -1.45103 0.615059 0
M  V30 1439 C 131.005 -2.28786 -0.13762 0
M  V30 1440 C 132.018 -1.40376 -0.824525 0
M  V30 1441 O 133.207 -1.64681 -0.688662 0
M  V30 1442 C 130.307 -3.16322 -1.21628 0
M  V30 1443 C 129.48 -4.33054 -0.615039 0
M  V30 1444 C 128.539 -5.01743 -1.58556 0
M  V30 1445 O 127.565 -5.58293 -1.10895 0
M  V30 1446 N 128.767 -5.01714 -2.91998 0
M  V30 1447 H 131.532 -2.94025 0.580483 0
M  V30 1448 H 129.093 -1.55373 0.45507 0
M  V30 1449 H 131.085 -3.59139 -1.86552 0
M  V30 1450 H 129.655 -2.52943 -1.83681 0
M  V30 1451 H 128.875 -3.93627 0.21245 0
M  V30 1452 H 130.163 -5.08431 -0.193704 0
M  V30 1453 H 129.561 -4.57075 -3.33316 0
M  V30 1454 H 128.118 -5.48371 -3.52325 0
M  V30 1455 N 131.551 -0.354651 -1.53558 0
M  V30 1456 C 132.791 0.238651 -2.03002 0
M  V30 1457 C 133.155 1.46878 -1.23656 0
M  V30 1458 O 134.356 2.13699 -1.63053 0
M  V30 1459 C 132.627 0.534175 -3.53386 0
M  V30 1460 S 134.186 1.10271 -4.24719 0
M  V30 1461 H 131.004 0.0702908 -0.707517 0
M  V30 1462 H 133.606 -0.494987 -1.8913 0
M  V30 1463 H 132.31 -0.368765 -4.0874 0
M  V30 1464 H 131.841 1.29718 -3.71398 0
M  V30 1465 H 133.856 2.38772 -4.34974 0
M  V30 1466 N 133.029 1.57378 -0.0835403 0
M  V30 1467 C 134.278 1.93106 0.582498 0
M  V30 1468 C 134.591 0.96651 1.70053 0
M  V30 1469 O 135.797 1.21705 2.42693 0
M  V30 1470 C 134.253 3.43076 1.08751 0
M  V30 1471 C 133.861 4.48 -0.000146404 0
M  V30 1472 C 135.605 3.87785 1.72694 0
M  V30 1473 C 133.512 5.89113 0.519568 0
M  V30 1474 H 132.442 0.720775 0.221358 0
M  V30 1475 H 135.093 1.82821 -0.157675 0
M  V30 1476 H 133.475 3.48474 1.88101 0
M  V30 1477 H 134.649 4.54233 -0.775199 0
M  V30 1478 H 132.964 4.1283 -0.54406 0
M  V30 1479 H 135.561 4.90604 2.1263 0
M  V30 1480 H 135.904 3.25796 2.59158 0
M  V30 1481 H 136.437 3.8504 0.999457 0
M  V30 1482 H 133.176 6.54775 -0.308186 0
M  V30 1483 H 132.696 5.86376 1.26188 0
M  V30 1484 H 134.375 6.39346 0.992237 0
M  V30 1485 N 134.507 -0.190092 1.56449 0
M  V30 1486 C 135.737 -0.92443 1.84764 0
M  V30 1487 C 136.145 -1.77146 0.664529 0
M  V30 1488 O 135.488 -1.79812 -0.375957 0
M  V30 1489 C 135.55 -1.86651 3.07248 0
M  V30 1490 C 135.214 -1.20094 4.40938 0
M  V30 1491 C 136.211 -0.575445 5.16706 0
M  V30 1492 C 133.896 -1.2033 4.87674 0
M  V30 1493 C 135.89 0.0388111 6.37388 0
M  V30 1494 C 133.577 -0.585214 6.08291 0
M  V30 1495 C 134.575 0.0347578 6.82991 0
M  V30 1496 O 134.263 0.643147 8.01323 0
M  V30 1497 H 133.995 -0.274974 0.617548 0
M  V30 1498 H 136.549 -0.200788 2.04416 0
M  V30 1499 H 134.779 -2.62998 2.83494 0
M  V30 1500 H 136.468 -2.46907 3.22167 0
M  V30 1501 H 137.234 -0.565728 4.81689 0
M  V30 1502 H 133.113 -1.67526 4.29484 0
M  V30 1503 H 136.657 0.523329 6.95634 0
M  V30 1504 H 132.554 -0.592451 6.42775 0
M  V30 1505 H 133.322 0.540545 8.16713 0
M  V30 1506 N 135.985 -1.50799 -0.457987 0
M  V30 1507 C 136.933 -1.71162 -1.575 0
M  V30 1508 C 137.927 -0.577592 -1.59249 0
M  V30 1509 O 139.133 -0.758443 -1.63241 0
M  V30 1510 H 135.508 -0.540468 -0.522875 0
M  V30 1511 H 137.479 -2.64837 -1.37492 0
M  V30 1512 C 136.228 -1.83496 -2.95338 0
M  V30 1513 H 135.551 -2.70153 -2.94716 0
M  V30 1514 H 136.991 -2.01765 -3.72917 0
M  V30 1515 C 135.45 -0.589694 -3.31699 0
M  V30 1516 O 135.98 0.265163 -4.00824 0
M  V30 1517 N 134.186 -0.439845 -2.87252 0
M  V30 1518 H 133.733 -1.13655 -2.31172 0
M  V30 1519 H 133.691 0.392159 -3.11945 0
M  V30 1520 N 137.463 0.71206 -1.40597 0
M  V30 1521 C 138.691 1.50111 -1.42388 0
M  V30 1522 C 139.106 1.88784 -0.0245395 0
M  V30 1523 O 138.463 1.55681 0.952351 0
M  V30 1524 C 138.514 2.7742 -2.31776 0
M  V30 1525 O 138.235 2.40382 -3.66262 0
M  V30 1526 C 139.736 3.7129 -2.42196 0
M  V30 1527 H 136.956 0.46314 -0.485533 0
M  V30 1528 H 139.5 0.878068 -1.8469 0
M  V30 1529 H 137.655 3.36001 -1.92827 0
M  V30 1530 H 138.069 3.22324 -4.13772 0
M  V30 1531 H 139.543 4.57448 -3.08943 0
M  V30 1532 H 140.02 4.14641 -1.44809 0
M  V30 1533 H 140.626 3.18619 -2.81712 0
M  V30 1534 N 138.941 1.26152 0.944643 0
M  V30 1535 C 140.169 1.14259 1.72489 0
M  V30 1536 C 140.584 -0.302555 1.8636 0
M  V30 1537 O 139.941 -1.20741 1.36849 0
M  V30 1538 C 139.992 1.80266 3.13347 0
M  V30 1539 O 139.713 3.19133 3.00143 0
M  V30 1540 C 141.214 1.74283 4.07603 0
M  V30 1541 H 138.434 0.398051 0.540181 0
M  V30 1542 H 140.978 1.66706 1.18446 0
M  V30 1543 H 139.133 1.31766 3.64303 0
M  V30 1544 H 139.547 3.51744 3.89071 0
M  V30 1545 H 141.021 2.25111 5.04013 0
M  V30 1546 H 141.498 0.708631 4.33446 0
M  V30 1547 H 142.104 2.22319 3.62567 0
M  V30 1548 N 140.419 -1.14872 1.07899 0
M  V30 1549 C 141.649 -1.89386 0.825631 0
M  V30 1550 C 142.057 -1.78565 -0.625406 0
M  V30 1551 O 141.4 -1.13918 -1.44113 0
M  V30 1552 C 141.462 -3.40206 1.16191 0
M  V30 1553 C 141.126 -3.74812 2.61467 0
M  V30 1554 C 142.123 -3.75367 3.59716 0
M  V30 1555 C 139.808 -4.0495 2.97189 0
M  V30 1556 C 141.802 -4.05574 4.9172 0
M  V30 1557 C 139.489 -4.34821 4.29388 0
M  V30 1558 C 140.487 -4.35116 5.26463 0
M  V30 1559 O 140.175 -4.64267 6.56286 0
M  V30 1560 H 139.907 -0.606894 0.297751 0
M  V30 1561 H 142.461 -1.46438 1.44031 0
M  V30 1562 H 140.691 -3.8358 0.490214 0
M  V30 1563 H 142.38 -3.96018 0.890193 0
M  V30 1564 H 143.146 -3.52176 3.33462 0
M  V30 1565 H 139.025 -4.03876 2.22273 0
M  V30 1566 H 142.569 -4.05719 5.67484 0
M  V30 1567 H 138.466 -4.5748 4.55392 0
M  V30 1568 H 139.234 -4.82007 6.61522 0
M  V30 1569 N 141.898 -0.863906 -1.31812 0
M  V30 1570 C 142.828 -0.330843 -2.31144 0
M  V30 1571 C 143.809 0.575005 -1.60087 0
M  V30 1572 O 144.994 0.493304 -1.8783 0
M  V30 1573 C 142.124 0.47374 -3.44054 0
M  V30 1574 C 141.078 -0.338481 -4.26659 0
M  V30 1575 C 140.404 0.591412 -5.31419 0
M  V30 1576 C 141.704 -1.56926 -4.98168 0
M  V30 1577 H 143.398 -1.16086 -2.75979 0
M  V30 1578 H 140.944 -0.559657 -1.32679 0
M  V30 1579 H 142.897 0.857143 -4.12591 0
M  V30 1580 H 141.621 1.33721 -2.9797 0
M  V30 1581 H 140.28 -0.703754 -3.59782 0
M  V30 1582 H 139.928 1.45199 -4.81587 0
M  V30 1583 H 139.628 0.0519022 -5.87577 0
M  V30 1584 H 141.152 0.97179 -6.02817 0
M  V30 1585 H 142.566 -1.25764 -5.59336 0
M  V30 1586 H 140.963 -2.04739 -5.64094 0
M  V30 1587 H 142.033 -2.32544 -4.25501 0
M  V30 1588 N 143.376 1.44774 -0.622745 0
M  V30 1589 C 144.324 2.32387 0.0994683 0
M  V30 1590 C 145.318 1.46859 0.844326 0
M  V30 1591 O 146.524 1.63254 0.758174 0
M  V30 1592 H 142.899 0.750273 0.0509291 0
M  V30 1593 H 144.87 2.91062 -0.65767 0
M  V30 1594 C 143.619 3.30723 1.07319 0
M  V30 1595 H 142.942 3.96541 0.509462 0
M  V30 1596 H 144.382 3.94725 1.54817 0
M  V30 1597 C 142.841 2.59021 2.15429 0
M  V30 1598 O 143.371 2.38286 3.23393 0
M  V30 1599 N 141.577 2.189 1.91131 0
M  V30 1600 H 141.124 2.35964 1.03337 0
M  V30 1601 H 141.082 1.71251 2.63668 0
M  V30 1602 N 144.854 0.36279 1.53368 0
M  V30 1603 C 146.1 -0.228113 2.01513 0
M  V30 1604 C 146.433 -1.48648 1.2497 0
M  V30 1605 O 145.708 -1.91459 0.342616 0
M  V30 1606 C 145.991 -0.522884 3.56284 0
M  V30 1607 C 145.844 0.74892 4.43521 0
M  V30 1608 C 147.163 -1.32461 4.19693 0
M  V30 1609 H 144.282 -0.0814343 0.732487 0
M  V30 1610 H 146.924 0.48713 1.83649 0
M  V30 1611 H 145.074 -1.1322 3.71636 0
M  V30 1612 H 146.746 1.38648 4.39971 0
M  V30 1613 H 144.989 1.36986 4.11603 0
M  V30 1614 H 145.66 0.497667 5.49752 0
M  V30 1615 H 148.136 -0.809203 4.08156 0
M  V30 1616 H 147.012 -1.49961 5.28018 0
M  V30 1617 H 147.273 -2.33232 3.75573 0
M  V30 1618 N 146.332 -1.57332 0.0918853 0
M  V30 1619 C 147.264 -2.10869 -0.898168 0
M  V30 1620 C 148.277 -1.04521 -1.24817 0
M  V30 1621 O 149.466 -1.31977 -1.20184 0
M  V30 1622 C 146.566 -2.57083 -2.2082 0
M  V30 1623 C 145.739 -3.87229 -2.03402 0
M  V30 1624 C 144.798 -4.19324 -3.17889 0
M  V30 1625 O 143.824 -4.88598 -2.91994 0
M  V30 1626 N 145.026 -3.74471 -4.43567 0
M  V30 1627 H 147.791 -2.96439 -0.440943 0
M  V30 1628 H 145.352 -1.61631 -0.0933064 0
M  V30 1629 H 147.344 -2.75602 -2.96354 0
M  V30 1630 H 145.914 -1.76541 -2.57977 0
M  V30 1631 H 145.134 -3.7789 -1.12218 0
M  V30 1632 H 146.422 -4.72379 -1.89038 0
M  V30 1633 H 145.82 -3.18546 -4.67488 0
M  V30 1634 H 144.377 -3.98151 -5.16061 0
M  V30 1635 N 147.81 0.181792 -1.56548 0
M  V30 1636 C 149.226 0.53316 -1.50431 0
M  V30 1637 C 149.426 1.85184 -0.794297 0
M  V30 1638 O 148.482 2.50058 -0.350318 0
M  V30 1639 C 149.795 0.575597 -2.9514 0
M  V30 1640 C 151.343 0.663519 -3.05886 0
M  V30 1641 C 151.818 0.736946 -4.52032 0
M  V30 1642 N 153.309 0.800118 -4.56237 0
M  V30 1643 C 154.044 0.877327 -5.66649 0
M  V30 1644 N 153.54 0.916016 -6.86718 0
M  V30 1645 N 155.333 0.915542 -5.54594 0
M  V30 1646 H 147.484 -0.683025 -2.01118 0
M  V30 1647 H 149.747 -0.244988 -0.915797 0
M  V30 1648 H 149.453 -0.324482 -3.502 0
M  V30 1649 H 149.327 1.42572 -3.49218 0
M  V30 1650 H 151.714 1.55403 -2.50867 0
M  V30 1651 H 151.795 -0.21307 -2.54911 0
M  V30 1652 H 151.439 -0.149262 -5.07681 0
M  V30 1653 H 151.369 1.62953 -5.00753 0
M  V30 1654 H 153.86 0.778926 -3.69785 0
M  V30 1655 H 154.173 0.975813 -7.66614 0
M  V30 1656 H 152.518 0.884469 -6.89349 0
M  V30 1657 H 155.709 0.882245 -4.59711 0
M  V30 1658 H 155.882 0.972253 -6.40665 0
M  V30 1659 N 149.288 1.51039 0.449983 0
M  V30 1660 C 150.198 1.74261 1.57067 0
M  V30 1661 C 151.214 0.626363 1.62335 0
M  V30 1662 O 152.39 0.907162 1.79812 0
M  V30 1663 C 149.455 1.85114 2.93144 0
M  V30 1664 C 148.516 3.0893 2.98095 0
M  V30 1665 C 147.749 3.19256 4.27681 0
M  V30 1666 O 147.972 2.35835 5.19363 0
M  V30 1667 O 146.906 4.12144 4.38658 0
M  V30 1668 H 150.732 2.69303 1.40391 0
M  V30 1669 H 148.317 1.35389 0.631688 0
M  V30 1670 H 150.199 1.94311 3.73926 0
M  V30 1671 H 148.874 0.932588 3.09975 0
M  V30 1672 H 147.781 3.0522 2.16314 0
M  V30 1673 H 149.114 4.00433 2.86206 0
M  V30 1674 N 150.766 -0.704594 1.40972 0
M  V30 1675 C 151.714 -1.83994 1.42299 0
M  V30 1676 C 152.708 -1.66684 0.302111 0
M  V30 1677 O 153.914 -1.73655 0.473697 0
M  V30 1678 H 150.289 -0.606171 0.44504 0
M  V30 1679 H 152.26 -1.79992 2.38003 0
M  V30 1680 C 151.009 -3.21946 1.31323 0
M  V30 1681 H 150.332 -3.35878 2.16855 0
M  V30 1682 H 151.772 -4.01491 1.36311 0
M  V30 1683 C 150.231 -3.36891 0.0245977 0
M  V30 1684 O 150.761 -3.90687 -0.934153 0
M  V30 1685 N 148.967 -2.90559 -0.0485243 0
M  V30 1686 H 148.514 -2.46968 0.732419 0
M  V30 1687 H 148.472 -3.00937 -0.910171 0
M  V30 1688 N 152.244 -1.26651 -0.937939 0
M  V30 1689 C 153.492 -1.12165 -1.68118 0
M  V30 1690 C 153.813 0.334983 -1.92101 0
M  V30 1691 O 153.083 1.23583 -1.52 0
M  V30 1692 H 151.663 -0.412093 -0.623048 0
M  V30 1693 H 154.325 -1.59027 -1.12678 0
M  V30 1694 H 153.421 -1.64289 -2.6536 0
M  V30 1695 N 153.722 1.14298 -1.08507 0
M  V30 1696 C 154.95 1.89219 -0.836876 0
M  V30 1697 C 155.365 1.78638 0.611054 0
M  V30 1698 O 154.722 1.14643 1.41998 0
M  V30 1699 C 154.773 3.39158 -1.25116 0
M  V30 1700 O 154.494 3.49449 -2.64229 0
M  V30 1701 C 155.995 4.31073 -1.03398 0
M  V30 1702 H 153.215 0.599328 -0.301739 0
M  V30 1703 H 155.759 1.44746 -1.44461 0
M  V30 1704 H 153.914 3.81251 -0.687514 0
M  V30 1705 H 154.328 4.42589 -2.81452 0
M  V30 1706 H 155.802 5.34646 -1.37323 0
M  V30 1707 H 156.279 4.3919 0.0289259 0
M  V30 1708 H 156.885 3.94738 -1.58311 0
M  V30 1709 N 155.201 0.870884 1.31352 0
M  V30 1710 C 156.45 0.478408 1.95944 0
M  V30 1711 C 156.763 -0.974493 1.69597 0
M  V30 1712 O 157.969 -1.47316 2.28058 0
M  V30 1713 C 156.425 0.804609 3.50791 0
M  V30 1714 C 156.033 2.27433 3.85977 0
M  V30 1715 C 157.777 0.480648 4.2177 0
M  V30 1716 C 155.684 2.5429 5.33939 0
M  V30 1717 H 154.614 0.175175 0.733369 0
M  V30 1718 H 157.265 1.06391 1.4951 0
M  V30 1719 H 155.647 0.148347 3.95722 0
M  V30 1720 H 156.821 2.97373 3.52002 0
M  V30 1721 H 155.136 2.56442 3.28065 0
M  V30 1722 H 157.733 0.658519 5.30629 0
M  V30 1723 H 158.076 -0.578979 4.12254 0
M  V30 1724 H 158.609 1.09349 3.82476 0
M  V30 1725 H 155.348 3.58939 5.48491 0
M  V30 1726 H 154.868 1.88945 5.69263 0
M  V30 1727 H 156.547 2.39066 6.01212 0
M  V30 1728 N 156.679 -1.44442 0.630414 0
M  V30 1729 C 157.904 -2.06927 0.139944 0
M  V30 1730 C 158.329 -1.46795 -1.17613 0
M  V30 1731 O 157.687 -0.569144 -1.72135 0
M  V30 1732 C 157.735 -3.6058 0.0379581 0
M  V30 1733 O 156.839 -3.99937 -1.0062 0
M  V30 1734 H 156.18 -0.658608 0.0844483 0
M  V30 1735 H 158.71 -1.85327 0.866891 0
M  V30 1736 H 158.72 -4.07714 -0.152856 0
M  V30 1737 H 157.395 -4.03728 0.998809 0
M  V30 1738 H 155.972 -3.64436 -0.79001 0
M  V30 1739 N 158.157 -0.370918 -1.53173 0
M  V30 1740 C 159.573 -0.0200818 -1.59587 0
M  V30 1741 C 159.773 1.46279 -1.38581 0
M  V30 1742 O 158.829 2.22506 -1.19363 0
M  V30 1743 C 160.142 -0.4808 -2.96831 0
M  V30 1744 C 161.69 -0.435477 -3.09956 0
M  V30 1745 C 162.165 -0.872092 -4.4962 0
M  V30 1746 N 163.656 -0.827364 -4.55751 0
M  V30 1747 C 164.391 -1.13683 -5.62018 0
M  V30 1748 N 163.887 -1.51584 -6.76014 0
M  V30 1749 N 165.68 -1.05927 -5.52029 0
M  V30 1750 H 157.831 -1.33652 -1.65079 0
M  V30 1751 H 160.094 -0.546634 -0.774529 0
M  V30 1752 H 159.8 -1.51577 -3.1736 0
M  V30 1753 H 159.674 0.129796 -3.76977 0
M  V30 1754 H 162.061 0.590371 -2.89134 0
M  V30 1755 H 162.142 -1.08164 -2.31806 0
M  V30 1756 H 161.786 -1.89608 -4.71181 0
M  V30 1757 H 161.716 -0.203127 -5.26208 0
M  V30 1758 H 164.207 -0.548216 -3.73902 0
M  V30 1759 H 164.52 -1.73609 -7.53047 0
M  V30 1760 H 162.865 -1.55454 -6.77391 0
M  V30 1761 H 166.056 -0.762321 -4.61851 0
M  V30 1762 H 166.229 -1.30378 -6.34749 0
M  V30 1763 N 159.635 1.57281 -0.100228 0
M  V30 1764 C 160.865 1.98591 0.569681 0
M  V30 1765 C 161.273 0.978315 1.61943 0
M  V30 1766 O 160.616 -0.0396108 1.83657 0
M  V30 1767 C 160.678 3.36282 1.271 0
M  V30 1768 C 160.342 4.55488 0.371409 0
M  V30 1769 C 161.339 5.18491 -0.382504 0
M  V30 1770 C 159.024 5.01474 0.287965 0
M  V30 1771 C 161.018 6.25852 -1.20779 0
M  V30 1772 C 158.705 6.08701 -0.540965 0
M  V30 1773 C 159.703 6.70755 -1.28749 0
M  V30 1774 O 159.391 7.75914 -2.10269 0
M  V30 1775 H 159.123 0.65752 0.156982 0
M  V30 1776 H 161.677 2.0463 -0.177734 0
M  V30 1777 H 159.907 3.26941 2.0651 0
M  V30 1778 H 161.596 3.62005 1.83595 0
M  V30 1779 H 162.362 4.83891 -0.3278 0
M  V30 1780 H 158.241 4.52932 0.858689 0
M  V30 1781 H 161.785 6.74218 -1.79096 0
M  V30 1782 H 157.682 6.42732 -0.597131 0
M  V30 1783 H 158.45 7.92925 -2.03007 0
M  V30 1784 N 161.113 -0.173488 1.56642 0
M  V30 1785 C 162.359 -0.891784 1.8214 0
M  V30 1786 C 162.692 -1.8199 0.677736 0
M  V30 1787 O 161.967 -1.91842 -0.320446 0
M  V30 1788 C 162.25 -1.68933 3.18015 0
M  V30 1789 C 162.103 -0.784487 4.42906 0
M  V30 1790 C 163.422 -2.65748 3.50808 0
M  V30 1791 H 160.541 -0.322761 0.662567 0
M  V30 1792 H 163.183 -0.158095 1.89341 0
M  V30 1793 H 161.333 -2.31482 3.12007 0
M  V30 1794 H 163.005 -0.172046 4.60979 0
M  V30 1795 H 161.248 -0.0924117 4.33702 0
M  V30 1796 H 161.919 -1.37799 5.34524 0
M  V30 1797 H 164.395 -2.13327 3.57255 0
M  V30 1798 H 163.271 -3.18619 4.4696 0
M  V30 1799 H 163.532 -3.45842 2.75401 0
M  V30 1800 N 162.591 -1.51276 -0.441967 0
M  V30 1801 C 163.839 -1.63392 -1.18943 0
M  V30 1802 C 164.16 -0.350159 -1.9183 0
M  V30 1803 O 163.43 0.633784 -1.85364 0
M  V30 1804 H 162.01 -0.602164 -0.442049 0
M  V30 1805 H 164.672 -1.88186 -0.507165 0
M  V30 1806 H 163.768 -2.45934 -1.92154 0
M  V30 1807 N 164.069 0.697108 -1.41344 0
M  V30 1808 C 165.317 1.45426 -1.40341 0
M  V30 1809 C 165.638 1.94996 -0.0128787 0
M  V30 1810 O 164.908 1.71599 0.945027 0
M  V30 1811 H 163.488 0.539594 -0.516573 0
M  V30 1812 H 166.15 0.825201 -1.76569 0
M  V30 1813 H 165.246 2.31817 -2.08967 0
M  V30 1814 N 165.547 1.27147 0.931209 0
M  V30 1815 C 166.479 1.05364 2.03546 0
M  V30 1816 C 167.492 0.0108438 1.62796 0
M  V30 1817 O 168.681 0.25202 1.76712 0
M  V30 1818 C 165.781 0.575566 3.33977 0
M  V30 1819 C 164.954 1.68985 4.03439 0
M  V30 1820 C 164.013 1.20813 5.12143 0
M  V30 1821 O 163.039 1.90712 5.363 0
M  V30 1822 N 164.241 0.0618851 5.80467 0
M  V30 1823 H 167.006 2.00454 2.22796 0
M  V30 1824 H 164.567 1.18666 1.10136 0
M  V30 1825 H 166.559 0.237264 4.04004 0
M  V30 1826 H 165.129 -0.282016 3.11325 0
M  V30 1827 H 164.349 2.19861 3.27192 0
M  V30 1828 H 165.637 2.4378 4.46597 0
M  V30 1829 H 165.035 -0.521621 5.6329 0
M  V30 1830 H 163.592 -0.217264 6.51438 0
M  V30 1831 N 167.025 -1.13721 1.09112 0
M  V30 1832 C 167.935 -2.22638 0.73957 0
M  V30 1833 C 168.951 -1.72091 -0.257068 0
M  V30 1834 O 170.127 -2.01155 -0.0992154 0
M  V30 1835 C 167.192 -3.46322 0.16191 0
M  V30 1836 C 166.253 -4.11775 1.21408 0
M  V30 1837 C 165.486 -5.29555 0.663891 0
M  V30 1838 O 165.709 -5.68077 -0.514274 0
M  V30 1839 O 164.643 -5.84973 1.41738 0
M  V30 1840 H 168.469 -2.55074 1.64836 0
M  V30 1841 H 166.054 -1.21791 0.865289 0
M  V30 1842 H 167.936 -4.21107 -0.157073 0
M  V30 1843 H 166.611 -3.15593 -0.719932 0
M  V30 1844 H 165.518 -3.3883 1.58571 0
M  V30 1845 H 166.851 -4.46627 2.06845 0
M  V30 1846 N 168.503 -0.877838 -1.30888 0
M  V30 1847 C 169.453 -0.310872 -2.25871 0
M  V30 1848 C 170.437 0.556596 -1.50966 0
M  V30 1849 O 171.629 0.402187 -1.7237 0
M  V30 1850 C 168.758 0.479821 -3.3993 0
M  V30 1851 C 167.844 -0.401333 -4.22197 0
M  V30 1852 N 168.235 -1.49848 -4.83093 0
M  V30 1853 C 166.533 -0.195167 -4.45573 0
M  V30 1854 C 167.234 -2.0425 -5.44662 0
M  V30 1855 N 166.21 -1.33843 -5.26865 0
M  V30 1856 H 170.012 -1.1493 -2.70496 0
M  V30 1857 H 167.526 -0.726458 -1.45246 0
M  V30 1858 H 169.523 0.902582 -4.07012 0
M  V30 1859 H 168.183 1.31577 -2.96846 0
M  V30 1860 H 169.194 -1.88137 -4.82519 0
M  V30 1861 H 165.871 0.604192 -4.13105 0
M  V30 1862 H 167.261 -2.96345 -6.03017 0
M  V30 1863 N 169.982 1.44106 -0.638065 0
M  V30 1864 C 171.229 2.01978 -0.14533 0
M  V30 1865 C 171.557 1.50234 1.23532 0
M  V30 1866 O 170.812 0.679548 1.83523 0
M  V30 1867 C 171.111 3.5729 -0.0887327 0
M  V30 1868 C 170.777 4.28317 -1.40909 0
M  V30 1869 C 169.439 4.47437 -1.77069 0
M  V30 1870 C 171.791 4.6867 -2.28031 0
M  V30 1871 C 169.119 5.04171 -3.00047 0
M  V30 1872 C 171.471 5.26766 -3.50286 0
M  V30 1873 C 170.135 5.44104 -3.86661 0
M  V30 1874 H 169.405 0.739089 -0.0531801 0
M  V30 1875 H 172.052 1.72781 -0.825761 0
M  V30 1876 H 170.357 3.8594 0.675095 0
M  V30 1877 H 172.054 3.99807 0.309145 0
M  V30 1878 H 168.644 4.1377 -1.1177 0
M  V30 1879 H 172.828 4.53604 -2.01388 0
M  V30 1880 H 168.084 5.15782 -3.28298 0
M  V30 1881 H 172.258 5.56983 -4.18023 0
M  V30 1882 H 169.885 5.87832 -4.82034 0
M  V30 1883 N 171.46 0.379036 1.52974 0
M  V30 1884 C 172.423 -0.448865 2.24762 0
M  V30 1885 C 173.423 -0.998689 1.26027 0
M  V30 1886 O 174.613 -0.882313 1.50203 0
M  V30 1887 C 171.745 -1.62872 2.99476 0
M  V30 1888 H 172.938 0.179491 2.99362 0
M  V30 1889 H 170.491 0.13096 1.5575 0
M  V30 1890 H 171.226 -2.29479 2.29151 0
M  V30 1891 H 171.011 -1.24128 3.71934 0
M  V30 1892 H 172.501 -2.2151 3.5401 0
M  V30 1893 N 172.938 -1.57226 0.108567 0
M  V30 1894 C 173.888 -2.11305 -0.856396 0
M  V30 1895 C 174.872 -1.03129 -1.23504 0
M  V30 1896 O 176.064 -1.29381 -1.20787 0
M  V30 1897 C 173.193 -2.70771 -2.11041 0
M  V30 1898 C 172.279 -3.86011 -1.7566 0
M  V30 1899 N 172.67 -4.93492 -1.10902 0
M  V30 1900 C 170.968 -3.95999 -2.05185 0
M  V30 1901 C 171.669 -5.73984 -0.944308 0
M  V30 1902 N 170.645 -5.2346 -1.46596 0
M  V30 1903 H 174.447 -2.91784 -0.352002 0
M  V30 1904 H 171.961 -1.62126 -0.0942324 0
M  V30 1905 H 173.958 -3.07851 -2.81128 0
M  V30 1906 H 172.618 -1.91751 -2.62034 0
M  V30 1907 H 173.629 -5.1208 -0.774235 0
M  V30 1908 H 170.306 -3.28007 -2.58298 0
M  V30 1909 H 171.696 -6.70479 -0.436813 0
M  V30 1910 N 174.416 0.165178 -1.56732 0
M  V30 1911 C 175.346 1.20651 -1.99914 0
M  V30 1912 C 176.327 1.45827 -0.875705 0
M  V30 1913 O 177.512 1.57057 -1.14223 0
M  V30 1914 C 174.642 2.54401 -2.36427 0
M  V30 1915 C 173.596 2.43782 -3.51787 0
M  V30 1916 C 172.922 3.82078 -3.7406 0
M  V30 1917 C 174.222 1.93732 -4.85041 0
M  V30 1918 H 175.916 0.847534 -2.87154 0
M  V30 1919 H 173.462 0.40625 -1.38151 0
M  V30 1920 H 175.415 3.27458 -2.65234 0
M  V30 1921 H 174.139 2.92098 -1.46103 0
M  V30 1922 H 172.798 1.73178 -3.23117 0
M  V30 1923 H 172.446 4.17179 -2.81017 0
M  V30 1924 H 172.146 3.7584 -4.51684 0
M  V30 1925 H 173.67 4.56712 -4.05274 0
M  V30 1926 H 175.084 2.56569 -5.12684 0
M  V30 1927 H 173.481 1.98428 -5.66345 0
M  V30 1928 H 174.551 0.891962 -4.76626 0
M  V30 1929 N 175.894 1.51508 0.433938 0
M  V30 1930 C 176.824 1.76016 1.53429 0
M  V30 1931 C 177.805 0.610112 1.58782 0
M  V30 1932 O 178.99 0.853177 1.74455 0
M  V30 1933 C 176.12 1.88831 2.9148 0
M  V30 1934 C 175.074 3.04288 3.00987 0
M  V30 1935 C 174.4 3.0229 4.4105 0
M  V30 1936 C 175.7 4.44193 2.74754 0
M  V30 1937 H 177.394 2.68152 1.33171 0
M  V30 1938 H 174.94 1.29035 0.639214 0
M  V30 1939 H 176.893 2.04559 3.6842 0
M  V30 1940 H 175.617 0.933455 3.12976 0
M  V30 1941 H 174.276 2.8827 2.26486 0
M  V30 1942 H 173.924 2.04576 4.59519 0
M  V30 1943 H 173.624 3.79822 4.4834 0
M  V30 1944 H 175.148 3.20116 5.1996 0
M  V30 1945 H 176.562 4.60544 3.41426 0
M  V30 1946 H 174.959 5.23457 2.9345 0
M  V30 1947 H 176.029 4.53996 1.70339 0
M  V30 1948 N 177.372 -0.689602 1.41712 0
M  V30 1949 C 178.621 -1.44534 1.40686 0
M  V30 1950 C 178.934 -1.95588 0.0213352 0
M  V30 1951 O 180.14 -2.71271 -0.111534 0
M  V30 1952 C 178.596 -2.61387 2.47396 0
M  V30 1953 C 178.204 -2.17094 3.91885 0
M  V30 1954 C 179.948 -3.38986 2.55517 0
M  V30 1955 C 177.855 -3.3094 4.90135 0
M  V30 1956 H 176.785 -0.542925 0.52321 0
M  V30 1957 H 179.436 -0.748054 1.6756 0
M  V30 1958 H 177.818 -3.33412 2.13664 0
M  V30 1959 H 178.992 -1.52318 4.34897 0
M  V30 1960 H 177.307 -1.52473 3.8748 0
M  V30 1961 H 179.904 -4.23747 3.26102 0
M  V30 1962 H 180.247 -3.84578 1.59391 0
M  V30 1963 H 180.78 -2.74021 2.8837 0
M  V30 1964 H 177.519 -2.90355 5.87685 0
M  V30 1965 H 177.039 -3.94546 4.51767 0
M  V30 1966 H 178.718 -3.9663 5.11169 0
M  V30 1967 N 178.85 -1.27639 -0.924453 0
M  V30 1968 C 179.78 -1.13166 -2.04244 0
M  V30 1969 C 180.761 -0.032256 -1.70069 0
M  V30 1970 O 181.946 -0.207328 -1.9309 0
M  V30 1971 C 179.076 -0.781496 -3.38393 0
M  V30 1972 C 178.03 -1.83449 -3.86692 0
M  V30 1973 C 177.356 -1.33822 -5.17683 0
M  V30 1974 C 178.656 -3.23917 -4.09726 0
M  V30 1975 H 180.35 -2.06689 -2.1661 0
M  V30 1976 H 177.896 -0.995136 -1.04082 0
M  V30 1977 H 179.849 -0.667057 -4.16087 0
M  V30 1978 H 178.573 0.189439 -3.2605 0
M  V30 1979 H 177.232 -1.93789 -3.11193 0
M  V30 1980 H 176.88 -0.35665 -5.01734 0
M  V30 1981 H 176.58 -2.04224 -5.50968 0
M  V30 1982 H 178.104 -1.23679 -5.97943 0
M  V30 1983 H 179.518 -3.16559 -4.77978 0
M  V30 1984 H 177.915 -3.92059 -4.54324 0
M  V30 1985 H 178.985 -3.68729 -3.14908 0
M  V30 1986 N 180.328 1.1314 -1.09713 0
M  V30 1987 C 181.744 1.36477 -0.827423 0
M  V30 1988 C 181.944 1.93654 0.556817 0
M  V30 1989 O 181 2.15791 1.31112 0
M  V30 1990 C 182.313 2.31334 -1.92106 0
M  V30 1991 C 183.861 2.44943 -1.94864 0
M  V30 1992 C 184.336 3.4311 -3.0338 0
M  V30 1993 N 185.827 3.50662 -3.02639 0
M  V30 1994 C 186.562 4.2651 -3.83246 0
M  V30 1995 N 186.058 5.05485 -4.73768 0
M  V30 1996 N 187.851 4.2184 -3.71493 0
M  V30 1997 H 180.002 0.743807 -1.9895 0
M  V30 1998 H 182.265 0.389823 -0.864143 0
M  V30 1999 H 181.971 1.96483 -2.91698 0
M  V30 2000 H 181.845 3.31381 -1.80184 0
M  V30 2001 H 184.232 2.79079 -0.959099 0
M  V30 2002 H 184.313 1.4481 -2.10864 0
M  V30 2003 H 183.957 3.09704 -4.02549 0
M  V30 2004 H 183.887 4.43055 -2.84622 0
M  V30 2005 H 186.378 2.94315 -2.37039 0
M  V30 2006 H 186.691 5.60675 -5.3185 0
M  V30 2007 H 185.036 5.04708 -4.77802 0
M  V30 2008 H 188.227 3.5922 -3.00131 0
M  V30 2009 H 188.4 4.80697 -4.3455 0
M  V30 2010 N 181.806 0.884767 1.30421 0
M  V30 2011 C 183.083 0.423185 1.90967 0
M  V30 2012 C 183.463 -1.09605 1.80416 0
M  V30 2013 O 182.811 -1.93126 1.22125 0
M  V30 2014 C 183.021 0.921056 3.36627 0
M  V30 2015 C 184.369 0.955903 4.137 0
M  V30 2016 O 185.393 0.867706 3.4547 0
M  V30 2017 O 184.252 1.08614 5.35598 0
M  V30 2018 H 181.346 0.129369 0.816819 0
M  V30 2019 H 183.892 0.973653 1.3899 0
M  V30 2020 H 182.664 1.96489 3.3839 0
M  V30 2021 H 182.287 0.349741 3.96059 0
M  V30 2022 N 183.284 -1.43765 0.645699 0
M  V30 2023 C 184.512 -2.06253 0.163556 0
M  V30 2024 C 184.927 -1.48352 -1.16778 0
M  V30 2025 O 184.284 -0.611932 -1.71935 0
M  V30 2026 C 184.335 -3.61453 0.0583186 0
M  V30 2027 O 184.056 -4.172 1.33702 0
M  V30 2028 C 185.557 -4.41002 -0.450795 0
M  V30 2029 H 182.777 -0.665413 0.0864077 0
M  V30 2030 H 185.321 -1.84396 0.884222 0
M  V30 2031 H 183.476 -3.82522 -0.612865 0
M  V30 2032 H 183.89 -5.10791 1.19131 0
M  V30 2033 H 185.364 -5.49966 -0.473403 0
M  V30 2034 H 185.841 -4.13488 -1.48068 0
M  V30 2035 H 186.447 -4.24886 0.187637 0
M  V30 2036 N 184.763 -0.387143 -1.52771 0
M  V30 2037 C 185.71 0.449048 -2.26389 0
M  V30 2038 C 186.68 1.05961 -1.27912 0
M  V30 2039 O 187.865 1.08804 -1.56737 0
M  V30 2040 C 185.005 1.57155 -3.0724 0
M  V30 2041 C 184.118 0.984066 -4.20643 0
M  V30 2042 C 183.253 2.07745 -4.88892 0
M  V30 2043 C 182.292 1.46574 -5.94292 0
M  V30 2044 N 181.429 2.49834 -6.56146 0
M  V30 2045 H 186.269 -0.185205 -2.97424 0
M  V30 2046 H 183.806 -0.103164 -1.46738 0
M  V30 2047 H 185.764 2.23309 -3.52405 0
M  V30 2048 H 184.394 2.17615 -2.38419 0
M  V30 2049 H 183.446 0.212193 -3.79808 0
M  V30 2050 H 184.758 0.497029 -4.96318 0
M  V30 2051 H 183.912 2.81673 -5.3735 0
M  V30 2052 H 182.651 2.59807 -4.12737 0
M  V30 2053 H 181.656 0.711696 -5.45174 0
M  V30 2054 H 182.881 0.953088 -6.72379 0
M  V30 2055 H 180.827 3.0107 -5.82832 0
M  V30 2056 H 180.744 2.05879 -7.27427 0
M  V30 2057 H 182.012 3.23399 -7.09249 0
M  V30 2058 N 186.241 1.57166 -0.116904 0
M  V30 2059 C 187.469 1.99473 0.549383 0
M  V30 2060 C 187.884 0.996541 1.60357 0
M  V30 2061 O 187.241 -0.0108731 1.82497 0
M  V30 2062 C 187.292 3.41788 1.17741 0
M  V30 2063 O 187.013 4.37788 0.165362 0
M  V30 2064 C 188.514 3.99216 1.92722 0
M  V30 2065 H 185.734 0.655009 0.145616 0
M  V30 2066 H 188.278 2.03494 -0.202625 0
M  V30 2067 H 186.433 3.38713 1.88021 0
M  V30 2068 H 186.847 5.20806 0.621403 0
M  V30 2069 H 188.321 5.00882 2.31995 0
M  V30 2070 H 188.798 3.3824 2.80161 0
M  V30 2071 H 189.404 4.0583 1.27209 0
M  V30 2072 N 187.719 -0.156864 1.56817 0
M  V30 2073 C 188.949 -0.885031 1.86684 0
M  V30 2074 C 189.357 -1.75696 0.701954 0
M  V30 2075 O 188.7 -1.80569 -0.337732 0
M  V30 2076 C 188.762 -1.80092 3.11138 0
M  V30 2077 C 188.426 -1.10714 4.43386 0
M  V30 2078 C 189.423 -0.465714 5.1781 0
M  V30 2079 C 187.108 -1.09959 4.90117 0
M  V30 2080 C 189.102 0.174002 6.37162 0
M  V30 2081 C 186.789 -0.456055 6.09396 0
M  V30 2082 C 187.787 0.179622 6.82764 0
M  V30 2083 O 187.475 0.812975 7.99779 0
M  V30 2084 H 187.207 -0.261813 0.623242 0
M  V30 2085 H 189.761 -0.157383 2.04796 0
M  V30 2086 H 187.991 -2.56926 2.89009 0
M  V30 2087 H 189.68 -2.40018 3.27332 0
M  V30 2088 H 190.446 -0.463427 4.82781 0
M  V30 2089 H 186.325 -1.58378 4.3294 0
M  V30 2090 H 189.869 0.670765 6.94368 0
M  V30 2091 H 185.766 -0.455975 6.43888 0
M  V30 2092 H 186.534 0.71366 8.15383 0
M  V30 2093 N 189.197 -1.51736 -0.425897 0
M  V30 2094 C 190.13 -1.68574 -1.53812 0
M  V30 2095 C 191.108 -0.53328 -1.53606 0
M  V30 2096 O 192.292 -0.758555 -1.72564 0
M  V30 2097 C 189.419 -1.70977 -2.92377 0
M  V30 2098 C 188.465 -2.92324 -3.10563 0
M  V30 2099 S 189.298 -4.52952 -2.85648 0
M  V30 2100 C 190.454 -4.58117 -4.26474 0
M  V30 2101 H 190.687 -2.62647 -1.39298 0
M  V30 2102 H 188.22 -1.41564 -0.616361 0
M  V30 2103 H 190.178 -1.73047 -3.72243 0
M  V30 2104 H 188.839 -0.78061 -3.04245 0
M  V30 2105 H 188.032 -2.90439 -4.11899 0
M  V30 2106 H 187.634 -2.88055 -2.38538 0
M  V30 2107 H 189.926 -4.34462 -5.19855 0
M  V30 2108 H 190.869 -5.59983 -4.33388 0
M  V30 2109 H 191.277 -3.8732 -4.10662 0
M  V30 2110 N 190.675 0.682077 -1.42076 0
M  V30 2111 C 191.605 1.80796 -1.47767 0
M  V30 2112 C 192.586 1.6677 -0.334954 0
M  V30 2113 O 193.771 1.863 -0.548264 0
M  V30 2114 C 190.901 3.19038 -1.37229 0
M  V30 2115 C 189.855 3.47789 -2.49453 0
M  V30 2116 C 189.181 4.8553 -2.23975 0
M  V30 2117 C 190.481 3.45411 -3.91776 0
M  V30 2118 H 192.175 1.7629 -2.41997 0
M  V30 2119 H 189.721 0.846721 -1.16476 0
M  V30 2120 H 191.674 3.97528 -1.39821 0
M  V30 2121 H 190.398 3.24204 -0.394907 0
M  V30 2122 H 189.057 2.71657 -2.46166 0
M  V30 2123 H 188.705 4.87337 -1.24547 0
M  V30 2124 H 188.405 5.0573 -2.99184 0
M  V30 2125 H 189.929 5.66312 -2.28304 0
M  V30 2126 H 191.343 4.13882 -3.96705 0
M  V30 2127 H 189.74 3.77145 -4.66778 0
M  V30 2128 H 190.81 2.44122 -4.18966 0
M  V30 2129 N 192.153 1.28127 0.917671 0
M  V30 2130 C 193.116 1.11744 2.00115 0
M  V30 2131 C 194.116 0.0583052 1.60694 0
M  V30 2132 O 195.306 0.303755 1.71531 0
M  V30 2133 C 192.438 0.704862 3.33533 0
M  V30 2134 H 193.631 2.07966 2.16079 0
M  V30 2135 H 191.184 1.11058 1.09981 0
M  V30 2136 H 191.919 -0.258299 3.2327 0
M  V30 2137 H 191.704 1.4699 3.63505 0
M  V30 2138 H 193.194 0.612768 4.1308 0
M  V30 2139 N 193.631 -1.12557 1.10312 0
M  V30 2140 C 194.878 -1.84038 0.844759 0
M  V30 2141 C 195.206 -1.84026 -0.629668 0
M  V30 2142 O 194.461 -1.28026 -1.48013 0
M  V30 2143 C 194.76 -3.31462 1.33669 0
M  V30 2144 C 194.426 -3.51647 2.82232 0
M  V30 2145 C 193.088 -3.56864 3.22802 0
M  V30 2146 C 195.44 -3.58867 3.77974 0
M  V30 2147 C 192.768 -3.66844 4.57867 0
M  V30 2148 C 195.12 -3.70375 5.1284 0
M  V30 2149 C 193.784 -3.73848 5.52986 0
M  V30 2150 H 193.054 -0.673444 0.309119 0
M  V30 2151 H 195.701 -1.32824 1.37949 0
M  V30 2152 H 194.006 -3.85091 0.721949 0
M  V30 2153 H 195.703 -3.85236 1.11329 0
M  V30 2154 H 192.293 -3.48249 2.49842 0
M  V30 2155 H 196.477 -3.54107 3.47738 0
M  V30 2156 H 191.733 -3.67804 4.88396 0
M  V30 2157 H 195.907 -3.74904 5.86873 0
M  V30 2158 H 193.534 -3.81333 6.57639 0
M  V30 2159 N 195.109 -0.891671 -1.2995 0
M  V30 2160 C 196.386 -0.433307 -1.9074 0
M  V30 2161 C 196.766 1.08646 -1.80995 0
M  V30 2162 O 196.114 1.92476 -1.23147 0
M  V30 2163 C 196.324 -0.938895 -3.36134 0
M  V30 2164 C 197.672 -0.977829 -4.13187 0
M  V30 2165 O 198.696 -0.886015 -3.45005 0
M  V30 2166 O 197.555 -1.11453 -5.35015 0
M  V30 2167 H 194.649 -0.133699 -0.816121 0
M  V30 2168 H 197.195 -0.981011 -1.38471 0
M  V30 2169 H 195.967 -1.98281 -3.37343 0
M  V30 2170 H 195.59 -0.37074 -3.95868 0
M  V30 2171 N 196.587 1.43421 -0.653314 0
M  V30 2172 C 197.833 2.02111 -0.166992 0
M  V30 2173 C 198.166 1.51423 1.21592 0
M  V30 2174 O 197.441 0.707389 1.8118 0
M  V30 2175 C 197.724 3.5966 -0.177948 0
M  V30 2176 C 197.577 4.20579 -1.59478 0
M  V30 2177 C 198.896 4.37413 0.4856 0
M  V30 2178 H 196.015 0.734374 -0.0621557 0
M  V30 2179 H 198.657 1.70717 -0.834016 0
M  V30 2180 H 196.807 3.86537 0.390032 0
M  V30 2181 H 198.479 4.04732 -2.21336 0
M  V30 2182 H 196.722 3.77226 -2.14204 0
M  V30 2183 H 197.393 5.29665 -1.5543 0
M  V30 2184 H 199.869 4.161 0.00234528 0
M  V30 2185 H 198.745 5.47075 0.447207 0
M  V30 2186 H 199.006 4.13672 1.55974 0
M  V30 2187 N 198.065 0.39524 1.52563 0
M  V30 2188 C 199.013 -0.451859 2.28169 0
M  V30 2189 C 200.007 -1.05792 1.32304 0
M  V30 2190 O 201.213 -0.997718 1.49818 0
M  V30 2191 H 197.588 -0.164481 0.733792 0
M  V30 2192 H 199.559 0.207199 2.9768 0
M  V30 2193 C 198.308 -1.56385 3.10546 0
M  V30 2194 H 197.631 -1.10682 3.84174 0
M  V30 2195 H 199.071 -2.13067 3.66577 0
M  V30 2196 C 197.53 -2.52328 2.23231 0
M  V30 2197 O 198.06 -3.5588 1.86312 0
M  V30 2198 N 196.266 -2.22209 1.87274 0
M  V30 2199 H 195.813 -1.38033 2.17496 0
M  V30 2200 H 195.771 -2.86652 1.29143 0
M  V30 2201 N 199.544 -1.57102 0.125237 0
M  V30 2202 C 200.821 -1.86953 -0.575142 0
M  V30 2203 C 201.201 -1.02749 -1.84407 0
M  V30 2204 O 200.549 -0.108144 -2.28244 0
M  V30 2205 C 200.759 -3.38198 -0.861583 0
M  V30 2206 C 202.107 -4.06937 -1.21192 0
M  V30 2207 O 203.131 -3.43252 -0.951645 0
M  V30 2208 O 201.99 -5.19364 -1.70068 0
M  V30 2209 H 199.084 -0.774147 -0.290906 0
M  V30 2210 H 201.63 -1.68942 0.160211 0
M  V30 2211 H 200.402 -3.91282 0.0373647 0
M  V30 2212 H 200.025 -3.61661 -1.65188 0
M  V30 2213 N 201.022 0.148545 -1.56898 0
M  V30 2214 C 201.932 1.20293 -2.01412 0
M  V30 2215 C 202.948 1.47107 -0.929273 0
M  V30 2216 O 204.124 1.58807 -1.23863 0
M  V30 2217 C 201.189 2.51682 -2.38447 0
M  V30 2218 C 200.25 2.32529 -3.60872 0
M  V30 2219 C 199.483 3.57653 -3.96132 0
M  V30 2220 O 199.706 4.63771 -3.32073 0
M  V30 2221 O 198.64 3.50408 -4.89385 0
M  V30 2222 H 202.466 0.855025 -2.91416 0
M  V30 2223 H 200.051 0.357151 -1.45068 0
M  V30 2224 H 201.933 3.29147 -2.63135 0
M  V30 2225 H 200.608 2.86006 -1.51599 0
M  V30 2226 H 199.515 1.53019 -3.41373 0
M  V30 2227 H 200.848 2.03121 -4.48333 0
M  V30 2228 N 202.5 1.5196 0.417844 0
M  V30 2229 C 203.447 1.74678 1.50852 0
M  V30 2230 C 204.417 0.588947 1.55308 0
M  V30 2231 O 205.602 0.825544 1.72016 0
M  V30 2232 C 202.742 1.89544 2.88387 0
M  V30 2233 C 201.855 3.17166 2.93309 0
M  V30 2234 C 200.99 3.22513 4.22088 0
M  V30 2235 C 200.029 4.44372 4.20951 0
M  V30 2236 N 199.166 4.47161 5.41287 0
M  V30 2237 H 204.006 2.67768 1.30783 0
M  V30 2238 H 201.543 1.32689 0.63498 0
M  V30 2239 H 203.501 1.96146 3.68216 0
M  V30 2240 H 202.131 0.998424 3.06971 0
M  V30 2241 H 201.183 3.19778 2.06024 0
M  V30 2242 H 202.495 4.07021 2.88332 0
M  V30 2243 H 201.649 3.28139 5.10303 0
M  V30 2244 H 200.388 2.30581 4.29748 0
M  V30 2245 H 199.393 4.38902 3.31127 0
M  V30 2246 H 200.618 5.3759 4.14938 0
M  V30 2247 H 198.564 3.58108 5.49632 0
M  V30 2248 H 198.481 5.3085 5.3827 0
M  V30 2249 H 199.749 4.57005 6.3148 0
M  V30 2250 N 203.978 -0.674533 1.42435 0
M  V30 2251 C 204.926 -1.80934 1.46169 0
M  V30 2252 C 205.92 -1.66006 0.3374 0
M  V30 2253 O 207.126 -1.72611 0.510425 0
M  V30 2254 H 203.501 -0.596594 0.457798 0
M  V30 2255 H 205.472 -1.74903 2.41767 0
M  V30 2256 C 204.221 -3.19088 1.38123 0
M  V30 2257 H 203.544 -3.31203 2.23931 0
M  V30 2258 H 204.984 -3.9851 1.44797 0
M  V30 2259 C 203.443 -3.36763 0.0960517 0
M  V30 2260 O 203.973 -3.92581 -0.851073 0
M  V30 2261 N 202.179 -2.90597 0.0131186 0
M  V30 2262 H 201.726 -2.45359 0.784639 0
M  V30 2263 H 201.684 -3.028 -0.846133 0
M  V30 2264 N 205.456 -1.28612 -0.910864 0
M  V30 2265 C 206.702 -1.17116 -1.66299 0
M  V30 2266 C 207.057 0.276917 -1.90397 0
M  V30 2267 O 206.35 1.19795 -1.49532 0
M  V30 2268 C 206.544 -1.90624 -3.0232 0
M  V30 2269 C 206.373 -3.42431 -2.91498 0
M  V30 2270 C 205.143 -4.11773 -2.92867 0
M  V30 2271 C 207.341 -4.38124 -2.69355 0
M  V30 2272 N 205.323 -5.50025 -2.72664 0
M  V30 2273 C 206.694 -5.63759 -2.58023 0
M  V30 2274 C 208.749 -4.28016 -2.54375 0
M  V30 2275 C 207.452 -6.80436 -2.33238 0
M  V30 2276 C 209.478 -5.44433 -2.30969 0
M  V30 2277 C 208.84 -6.69034 -2.20394 0
M  V30 2278 H 204.939 -0.483506 -0.61461 0
M  V30 2279 H 207.523 -1.62299 -1.0755 0
M  V30 2280 H 205.694 -1.4787 -3.5915 0
M  V30 2281 H 207.426 -1.71488 -3.66571 0
M  V30 2282 H 204.181 -3.63378 -3.03732 0
M  V30 2283 H 204.605 -6.22705 -2.65646 0
M  V30 2284 H 209.247 -3.32388 -2.613 0
M  V30 2285 H 206.965 -7.7613 -2.25051 0
M  V30 2286 H 210.551 -5.38504 -2.20238 0
M  V30 2287 H 209.431 -7.57595 -2.02531 0
M  V30 2288 N 206.934 1.1197 -1.10907 0
M  V30 2289 C 208.182 1.83225 -0.852819 0
M  V30 2290 C 208.503 1.84769 0.623341 0
M  V30 2291 O 207.773 1.3143 1.45269 0
M  V30 2292 H 206.353 0.67849 -0.312507 0
M  V30 2293 H 209.015 1.3556 -1.40033 0
M  V30 2294 H 208.111 2.87265 -1.22005 0
M  V30 2295 N 208.412 0.89855 1.29475 0
M  V30 2296 C 209.342 0.39201 2.30186 0
M  V30 2297 C 210.323 -0.532359 1.61555 0
M  V30 2298 O 211.508 -0.443331 1.89072 0
M  V30 2299 C 208.638 -0.382353 3.45189 0
M  V30 2300 C 207.592 0.451483 4.25612 0
M  V30 2301 C 206.918 -0.450307 5.328 0
M  V30 2302 C 208.218 1.70079 4.93832 0
M  V30 2303 H 209.912 1.23362 2.72804 0
M  V30 2304 H 207.458 0.594638 1.31149 0
M  V30 2305 H 209.411 -0.747451 4.14718 0
M  V30 2306 H 208.135 -1.25774 3.01411 0
M  V30 2307 H 206.794 0.798897 3.57789 0
M  V30 2308 H 206.442 -1.32379 4.85268 0
M  V30 2309 H 206.142 0.103902 5.87508 0
M  V30 2310 H 207.666 -0.811623 6.05182 0
M  V30 2311 H 209.08 1.40549 5.55805 0
M  V30 2312 H 207.477 2.19623 5.58467 0
M  V30 2313 H 208.547 2.43744 4.19186 0
M  V30 2314 N 209.89 -1.43072 0.660911 0
M  V30 2315 C 211.115 -2.06584 0.183805 0
M  V30 2316 C 211.54 -1.49257 -1.14472 0
M  V30 2317 O 210.898 -0.605528 -1.70889 0
M  V30 2318 C 210.946 -3.60418 0.114434 0
M  V30 2319 O 210.05 -4.01981 -0.921137 0
M  V30 2320 H 209.391 -0.656669 0.0983994 0
M  V30 2321 H 211.921 -1.83447 0.906006 0
M  V30 2322 H 211.931 -4.07946 -0.0663394 0
M  V30 2323 H 210.606 -4.01519 1.08422 0
M  V30 2324 H 209.183 -3.66029 -0.71253 0
M  V30 2325 N 211.368 -0.403325 -1.52352 0
M  V30 2326 C 212.614 0.174605 -2.02047 0
M  V30 2327 C 212.947 1.45282 -1.28867 0
M  V30 2328 O 212.222 1.90483 -0.393257 0
M  V30 2329 C 212.505 0.428238 -3.57545 0
M  V30 2330 C 212.358 -0.866248 -4.4138 0
M  V30 2331 C 213.677 1.21287 -4.23057 0
M  V30 2332 H 210.796 0.0619851 -0.734389 0
M  V30 2333 H 213.438 -0.53565 -1.82293 0
M  V30 2334 H 211.588 1.03327 -3.74507 0
M  V30 2335 H 213.26 -1.50265 -4.3614 0
M  V30 2336 H 211.503 -1.47851 -4.07827 0
M  V30 2337 H 212.174 -0.643249 -5.48239 0
M  V30 2338 H 214.65 0.700703 -4.10158 0
M  V30 2339 H 213.526 1.35909 -5.31808 0
M  V30 2340 H 213.787 2.23193 -3.81625 0
M  V30 2341 N 212.846 1.57033 -0.133567 0
M  V30 2342 C 214.076 1.99754 0.527429 0
M  V30 2343 C 214.484 1.01245 1.59832 0
M  V30 2344 O 213.827 -0.000645496 1.837 0
M  V30 2345 C 213.889 3.38903 1.19939 0
M  V30 2346 C 213.553 4.56174 0.274709 0
M  V30 2347 C 214.55 5.17563 -0.492398 0
M  V30 2348 C 212.235 5.01972 0.18153 0
M  V30 2349 C 214.229 6.2315 -1.34027 0
M  V30 2350 C 211.916 6.07416 -0.669958 0
M  V30 2351 C 212.914 6.67874 -1.42947 0
M  V30 2352 O 212.602 7.71279 -2.2668 0
M  V30 2353 H 212.334 0.660702 0.142999 0
M  V30 2354 H 214.888 2.04207 -0.221099 0
M  V30 2355 H 213.118 3.31248 1.99528 0
M  V30 2356 H 214.807 3.65818 1.75875 0
M  V30 2357 H 215.573 4.83087 -0.430367 0
M  V30 2358 H 211.452 4.54652 0.762422 0
M  V30 2359 H 214.996 6.70268 -1.93357 0
M  V30 2360 H 210.893 6.41321 -0.73333 0
M  V30 2361 H 211.661 7.88441 -2.1978 0
M  V30 2362 N 214.325 -0.140222 1.56975 0
M  V30 2363 C 215.288 -1.15689 1.97861 0
M  V30 2364 C 216.288 -1.3549 0.865974 0
M  V30 2365 O 217.478 -1.32367 1.13246 0
M  V30 2366 C 214.61 -2.51582 2.30042 0
M  V30 2367 H 215.803 -0.805971 2.88867 0
M  V30 2368 H 213.356 -0.383801 1.51515 0
M  V30 2369 H 214.091 -2.91632 1.41849 0
M  V30 2370 H 213.876 -2.38569 3.11171 0
M  V30 2371 H 215.366 -3.24792 2.62488 0
M  V30 2372 N 215.803 -1.52179 -0.40978 0
M  V30 2373 C 217.08 -1.56769 -1.16974 0
M  V30 2374 C 217.46 -0.348322 -2.08206 0
M  V30 2375 O 216.808 0.664862 -2.18613 0
M  V30 2376 C 217.018 -2.89603 -1.9476 0
M  V30 2377 C 218.366 -3.42579 -2.50849 0
M  V30 2378 O 219.39 -2.91338 -2.04941 0
M  V30 2379 O 218.249 -4.32054 -3.34652 0
M  V30 2380 H 215.343 -0.631439 -0.534054 0
M  V30 2381 H 217.889 -1.64507 -0.416613 0
M  V30 2382 H 216.661 -3.698 -1.27921 0
M  V30 2383 H 216.284 -2.85155 -2.77079 0
M  V30 2384 N 217.281 0.66697 -1.42791 0
M  V30 2385 C 218.228 1.7803 -1.4688 0
M  V30 2386 C 219.198 1.6299 -0.319919 0
M  V30 2387 O 220.383 1.83432 -0.525118 0
M  V30 2388 C 217.523 3.1611 -1.38451 0
M  V30 2389 C 216.636 3.42381 -2.63437 0
M  V30 2390 C 215.771 4.70232 -2.47094 0
M  V30 2391 C 214.81 4.89564 -3.67415 0
M  V30 2392 N 213.947 6.08661 -3.49966 0
M  V30 2393 H 218.787 1.7387 -2.42019 0
M  V30 2394 H 216.324 0.84868 -1.20149 0
M  V30 2395 H 218.282 3.95914 -1.31561 0
M  V30 2396 H 216.912 3.19374 -0.469033 0
M  V30 2397 H 215.964 2.56774 -2.80662 0
M  V30 2398 H 217.276 3.52557 -3.52853 0
M  V30 2399 H 216.43 5.5814 -2.37834 0
M  V30 2400 H 215.169 4.62353 -1.5518 0
M  V30 2401 H 214.174 4.00096 -3.77099 0
M  V30 2402 H 215.399 4.99282 -4.6032 0
M  V30 2403 H 213.345 6.0194 -2.60776 0
M  V30 2404 H 213.262 6.19733 -4.32975 0
M  V30 2405 H 214.53 6.99226 -3.44532 0
M  V30 2406 N 218.759 1.29093 0.90403 0
M  V30 2407 C 220.17 1.15186 1.46932 0
M  V30 2408 C 220.521 -0.254587 1.94541 0
M  V30 2409 O 219.646 -1.14972 1.83332 0
M  V30 2410 C 220.241 2.08492 2.67051 0
M  V30 2411 C 218.8 1.98621 3.19729 0
M  V30 2412 C 217.947 1.9967 1.92425 0
M  V30 2413 H 220.898 1.41641 0.715789 0
M  V30 2414 H 220.919 1.65461 3.42641 0
M  V30 2415 H 220.431 3.10847 2.3237 0
M  V30 2416 H 218.532 0.993389 3.59114 0
M  V30 2417 H 218.645 2.86068 3.8432 0
M  V30 2418 H 217.009 1.44208 2.09943 0
M  V30 2419 H 217.792 3.03721 1.60026 0
M  V30 2420 N 220.237 -1.11381 1.11499 0
M  V30 2421 C 221.147 -2.21019 0.786628 0
M  V30 2422 C 222.163 -1.72597 -0.220507 0
M  V30 2423 O 223.339 -2.01321 -0.0565251 0
M  V30 2424 C 220.404 -3.459 0.235333 0
M  V30 2425 C 219.465 -4.09107 1.30115 0
M  V30 2426 C 218.698 -5.28027 0.776068 0
M  V30 2427 O 218.921 -5.6904 -0.393661 0
M  V30 2428 O 217.855 -5.81835 1.54114 0
M  V30 2429 H 221.681 -2.51521 1.70209 0
M  V30 2430 H 219.266 -1.19928 0.890928 0
M  V30 2431 H 221.148 -4.21346 -0.067715 0
M  V30 2432 H 219.823 -3.17049 -0.652828 0
M  V30 2433 H 218.73 -3.35391 1.65722 0
M  V30 2434 H 220.063 -4.42139 2.16273 0
M  V30 2435 N 221.715 -0.905404 -1.28997 0
M  V30 2436 C 222.943 -0.549846 -1.9946 0
M  V30 2437 C 223.358 0.866834 -1.67724 0
M  V30 2438 O 222.715 1.57298 -0.925404 0
M  V30 2439 C 222.766 -0.739387 -3.53858 0
M  V30 2440 O 222.487 -2.10031 -3.84472 0
M  V30 2441 C 223.988 -0.389541 -4.41585 0
M  V30 2442 H 221.208 -0.210429 -0.637151 0
M  V30 2443 H 223.752 -1.21632 -1.64396 0
M  V30 2444 H 221.907 -0.120023 -3.87214 0
M  V30 2445 H 222.321 -2.13385 -4.79132 0
M  V30 2446 H 223.795 -0.572972 -5.49018 0
M  V30 2447 H 224.272 0.673756 -4.34001 0
M  V30 2448 H 224.878 -0.986089 -4.1371 0
M  V30 2449 N 223.193 1.4272 -0.668489 0
M  V30 2450 C 224.421 2.05966 -0.196348 0
M  V30 2451 C 224.836 1.50191 1.14403 0
M  V30 2452 O 224.193 0.639208 1.7094 0
M  V30 2453 C 224.244 3.61314 -0.115815 0
M  V30 2454 O 223.965 4.1502 -1.40322 0
M  V30 2455 C 225.466 4.41663 0.380579 0
M  V30 2456 H 222.686 0.663954 -0.0969829 0
M  V30 2457 H 225.23 1.82966 -0.913446 0
M  V30 2458 H 223.385 3.83448 0.551931 0
M  V30 2459 H 223.799 5.08832 -1.27243 0
M  V30 2460 H 225.273 5.5065 0.385848 0
M  V30 2461 H 225.75 4.15792 1.41471 0
M  V30 2462 H 226.356 4.24534 -0.255209 0
M  V30 2463 N 224.671 0.411399 1.52136 0
M  V30 2464 C 225.618 -0.412975 2.27075 0
M  V30 2465 C 226.588 -1.03912 1.29582 0
M  V30 2466 O 227.773 -1.06296 1.58448 0
M  V30 2467 C 224.913 -1.52247 3.09701 0
M  V30 2468 C 224.026 -0.917021 4.22155 0
M  V30 2469 C 223.161 -1.9994 4.92135 0
M  V30 2470 C 222.2 -1.37101 5.96548 0
M  V30 2471 N 221.337 -2.39364 6.60038 0
M  V30 2472 H 226.177 0.232499 2.97092 0
M  V30 2473 H 223.714 0.126496 1.46555 0
M  V30 2474 H 225.672 -2.17674 3.55913 0
M  V30 2475 H 224.302 -2.13794 2.41851 0
M  V30 2476 H 223.354 -0.151742 3.80097 0
M  V30 2477 H 224.666 -0.418006 4.97045 0
M  V30 2478 H 223.82 -2.73088 5.41763 0
M  V30 2479 H 222.559 -2.53208 4.16818 0
M  V30 2480 H 221.564 -0.624873 5.46237 0
M  V30 2481 H 222.789 -0.845998 6.7381 0
M  V30 2482 H 220.735 -2.91759 5.87548 0
M  V30 2483 H 220.652 -1.9428 7.3061 0
M  V30 2484 H 221.92 -3.12074 7.14304 0
M  V30 2485 N 226.149 -1.5696 0.141893 0
M  V30 2486 C 227.059 -2.20066 -0.812905 0
M  V30 2487 C 228.075 -1.18344 -1.27557 0
M  V30 2488 O 229.251 -1.50902 -1.33381 0
M  V30 2489 C 226.316 -2.80583 -2.03652 0
M  V30 2490 C 225.377 -3.97414 -1.62359 0
M  V30 2491 C 224.61 -4.55036 -2.78887 0
M  V30 2492 O 224.833 -4.11538 -3.94959 0
M  V30 2493 O 223.767 -5.45376 -2.54653 0
M  V30 2494 H 227.593 -3.02157 -0.305746 0
M  V30 2495 H 225.178 -1.49159 -0.0848799 0
M  V30 2496 H 227.06 -3.19067 -2.75272 0
M  V30 2497 H 225.735 -2.01508 -2.5333 0
M  V30 2498 H 224.642 -3.63656 -0.877775 0
M  V30 2499 H 225.975 -4.77994 -1.17401 0
M  V30 2500 N 227.627 0.131896 -1.57047 0
M  V30 2501 C 228.559 1.1878 -1.9602 0
M  V30 2502 C 229.572 1.38363 -0.857875 0
M  V30 2503 O 230.761 1.37666 -1.13623 0
M  V30 2504 C 227.861 2.55008 -2.23213 0
M  V30 2505 C 227.034 2.56201 -3.54513 0
M  V30 2506 C 226.093 3.7408 -3.70069 0
M  V30 2507 O 225.119 3.58258 -4.42312 0
M  V30 2508 N 226.321 4.92137 -3.07866 0
M  V30 2509 H 229.086 0.85639 -2.87204 0
M  V30 2510 H 226.647 0.321309 -1.5868 0
M  V30 2511 H 228.639 3.32404 -2.30846 0
M  V30 2512 H 227.209 2.80382 -1.3822 0
M  V30 2513 H 226.429 1.64613 -3.58185 0
M  V30 2514 H 227.717 2.54043 -4.4084 0
M  V30 2515 H 227.115 5.07895 -2.49116 0
M  V30 2516 H 225.672 5.67254 -3.21039 0
M  V30 2517 N 229.106 1.52395 0.401703 0
M  V30 2518 C 230.036 1.79231 1.49661 0
M  V30 2519 C 231.017 0.643654 1.57452 0
M  V30 2520 O 232.202 0.889989 1.72606 0
M  V30 2521 C 229.332 1.94971 2.87409 0
M  V30 2522 C 228.286 3.10604 2.94465 0
M  V30 2523 C 227.612 3.11577 4.34538 0
M  V30 2524 C 228.912 4.49921 2.6527 0
M  V30 2525 H 230.606 2.70917 1.27454 0
M  V30 2526 H 228.152 1.30362 0.6117 0
M  V30 2527 H 230.105 2.12328 3.63999 0
M  V30 2528 H 228.829 0.999632 3.10926 0
M  V30 2529 H 227.488 2.93009 2.20321 0
M  V30 2530 H 227.136 2.14277 4.55076 0
M  V30 2531 H 226.836 3.89247 4.40183 0
M  V30 2532 H 228.36 3.31073 5.13053 0
M  V30 2533 H 229.774 4.67683 3.31581 0
M  V30 2534 H 228.171 5.29564 2.82281 0
M  V30 2535 H 229.241 4.57507 1.60671 0
M  V30 2536 N 230.584 -0.659388 1.43143 0
M  V30 2537 C 231.832 -1.41654 1.44147 0
M  V30 2538 C 232.153 -1.94893 0.0645739 0
M  V30 2539 O 231.423 -1.74044 -0.899198 0
M  V30 2540 H 230.003 -0.525708 0.530697 0
M  V30 2541 H 232.665 -0.778097 1.78694 0
M  V30 2542 H 231.761 -2.26195 2.1504 0
M  V30 2543 N 232.062 -1.29571 -0.897171 0
M  V30 2544 C 232.972 -1.16808 -2.03453 0
M  V30 2545 C 233.988 -0.0907471 -1.73763 0
M  V30 2546 O 235.164 -0.303312 -1.99103 0
M  V30 2547 C 232.229 -0.848264 -3.36163 0
M  V30 2548 C 231.29 -2.0097 -3.79354 0
M  V30 2549 C 230.523 -1.70505 -5.05731 0
M  V30 2550 O 230.746 -0.62718 -5.66941 0
M  V30 2551 O 229.68 -2.5538 -5.45036 0
M  V30 2552 H 233.506 -2.12325 -2.17144 0
M  V30 2553 H 231.091 -1.09047 -1.02123 0
M  V30 2554 H 232.973 -0.684581 -4.15802 0
M  V30 2555 H 231.648 0.0771071 -3.23608 0
M  V30 2556 H 230.555 -2.22863 -3.00471 0
M  V30 2557 H 231.888 -2.91636 -3.96496 0
M  V30 2558 N 233.54 1.10788 -1.12088 0
M  V30 2559 C 234.787 1.82671 -0.873931 0
M  V30 2560 C 235.115 1.85004 0.600311 0
M  V30 2561 O 234.37 1.30365 1.45957 0
M  V30 2562 C 234.669 3.29294 -1.38926 0
M  V30 2563 C 234.335 3.47113 -2.87791 0
M  V30 2564 C 232.997 3.51684 -3.28439 0
M  V30 2565 C 235.349 3.52808 -3.83635 0
M  V30 2566 C 232.677 3.59513 -4.63646 0
M  V30 2567 C 235.029 3.62169 -5.18668 0
M  V30 2568 C 233.693 3.65003 -5.58864 0
M  V30 2569 H 232.963 0.668441 -0.319794 0
M  V30 2570 H 235.61 1.30613 -1.40045 0
M  V30 2571 H 233.915 3.83894 -0.783122 0
M  V30 2572 H 235.612 3.83416 -1.17443 0
M  V30 2573 H 232.202 3.4423 -2.5535 0
M  V30 2574 H 236.386 3.4853 -3.53328 0
M  V30 2575 H 231.642 3.59987 -4.94185 0
M  V30 2576 H 235.816 3.6552 -5.92763 0
M  V30 2577 H 233.443 3.70822 -6.63623 0
M  V30 2578 N 235.018 0.912232 1.28515 0
M  V30 2579 C 236.248 0.559604 1.98877 0
M  V30 2580 C 236.656 -0.863113 1.68366 0
M  V30 2581 O 235.999 -1.58304 0.931969 0
M  V30 2582 C 236.061 0.68703 3.52874 0
M  V30 2583 C 235.725 2.07901 4.06972 0
M  V30 2584 C 236.722 3.05157 4.20922 0
M  V30 2585 C 234.407 2.39178 4.417 0
M  V30 2586 C 236.401 4.31806 4.68852 0
M  V30 2587 C 234.088 3.66068 4.89324 0
M  V30 2588 C 235.086 4.62195 5.02856 0
M  V30 2589 O 234.774 5.86829 5.49442 0
M  V30 2590 H 234.506 0.212191 0.641834 0
M  V30 2591 H 237.06 1.22712 1.64715 0
M  V30 2592 H 235.29 -0.0375486 3.86682 0
M  V30 2593 H 236.979 0.341727 4.04459 0
M  V30 2594 H 237.745 2.82311 3.94367 0
M  V30 2595 H 233.624 1.65109 4.30418 0
M  V30 2596 H 237.168 5.06842 4.79329 0
M  V30 2597 H 233.065 3.88739 5.15318 0
M  V30 2598 H 233.833 5.89597 5.6773 0
M  V30 2599 N 236.496 -1.42363 0.676048 0
M  V30 2600 C 237.406 -2.346 -0.00153389 0
M  V30 2601 C 238.422 -1.5516 -0.787485 0
M  V30 2602 O 239.598 -1.87723 -0.729521 0
M  V30 2603 C 236.663 -3.33705 -0.940298 0
M  V30 2604 C 235.724 -4.29042 -0.148739 0
M  V30 2605 C 234.957 -5.23413 -1.04279 0
M  V30 2606 O 235.18 -5.22749 -2.28232 0
M  V30 2607 O 234.114 -5.99795 -0.502925 0
M  V30 2608 H 237.94 -2.94082 0.758268 0
M  V30 2609 H 235.525 -1.42888 0.436289 0
M  V30 2610 H 237.407 -3.94586 -1.47917 0
M  V30 2611 H 236.082 -2.76695 -1.67993 0
M  V30 2612 H 234.989 -3.71571 0.43427 0
M  V30 2613 H 236.322 -4.89097 0.551805 0
M  V30 2614 N 237.974 -0.419461 -1.51915 0
M  V30 2615 C 238.937 0.389116 -2.25873 0
M  V30 2616 C 239.937 0.964924 -1.28631 0
M  V30 2617 O 241.127 0.842179 -1.52489 0
M  V30 2618 C 238.259 1.54874 -3.03689 0
M  V30 2619 H 239.452 -0.258799 -2.98781 0
M  V30 2620 H 237.005 -0.172209 -1.55348 0
M  V30 2621 H 237.74 2.23323 -2.35154 0
M  V30 2622 H 237.525 1.14223 -3.75094 0
M  V30 2623 H 239.015 2.12046 -3.59759 0
M  V30 2624 N 239.452 1.56882 -0.150215 0
M  V30 2625 C 240.382 2.19935 0.784284 0
M  V30 2626 C 241.363 1.14854 1.25469 0
M  V30 2627 O 242.548 1.43209 1.31168 0
M  V30 2628 C 239.678 2.82349 2.02229 0
M  V30 2629 C 238.632 3.93285 1.68853 0
M  V30 2630 C 237.958 4.42649 2.99944 0
M  V30 2631 C 239.258 5.13904 0.932714 0
M  V30 2632 H 240.952 2.9828 0.258781 0
M  V30 2633 H 238.498 1.43473 0.123029 0
M  V30 2634 H 240.451 3.25126 2.68088 0
M  V30 2635 H 239.175 2.0134 2.57157 0
M  V30 2636 H 237.834 3.5113 1.05371 0
M  V30 2637 H 237.482 3.58458 3.52869 0
M  V30 2638 H 237.182 5.17476 2.78374 0
M  V30 2639 H 238.706 4.88099 3.66868 0
M  V30 2640 H 240.12 5.53506 1.49345 0
M  V30 2641 H 238.517 5.94515 0.81684 0
M  V30 2642 H 239.587 4.84842 -0.0749568 0
M  V30 2643 N 240.93 -0.123565 1.57115 0
M  V30 2644 C 242.207 -0.862196 1.75572 0
M  V30 2645 C 242.587 -1.98279 0.724475 0
M  V30 2646 O 241.935 -2.27102 -0.252407 0
M  V30 2647 C 242.145 -1.38309 3.20424 0
M  V30 2648 C 243.493 -1.83724 3.82793 0
M  V30 2649 O 244.517 -1.47999 3.23998 0
M  V30 2650 O 243.376 -2.49685 4.86127 0
M  V30 2651 H 240.47 -0.409113 0.718718 0
M  V30 2652 H 243.016 -0.107661 1.69358 0
M  V30 2653 H 241.788 -0.578889 3.86994 0
M  V30 2654 H 241.411 -2.20046 3.31158 0
M  V30 2655 N 242.408 -1.52605 -0.393616 0
M  V30 2656 C 243.648 -1.6911 -1.1481 0
M  V30 2657 C 244.012 -0.41969 -1.87357 0
M  V30 2658 O 245.213 -0.461034 -2.64817 0
M  V30 2659 C 243.484 -2.88909 -2.10395 0
M  V30 2660 S 245.043 -3.25977 -2.93742 0
M  V30 2661 H 241.861 -0.595337 -0.38871 0
M  V30 2662 H 244.463 -1.90641 -0.433178 0
M  V30 2663 H 243.167 -3.79672 -1.55812 0
M  V30 2664 H 242.698 -2.69698 -2.86403 0
M  V30 2665 H 244.713 -2.75806 -4.12487 0
M  V30 2666 N 243.887 0.651787 -1.4349 0
M  V30 2667 C 244.817 1.77621 -1.51569 0
M  V30 2668 C 245.798 1.66022 -0.370253 0
M  V30 2669 O 246.983 1.85095 -0.587658 0
M  V30 2670 C 244.113 3.16056 -1.43966 0
M  V30 2671 C 243.067 3.4242 -2.56774 0
M  V30 2672 C 242.393 4.8067 -2.34223 0
M  V30 2673 C 243.693 3.37023 -3.99015 0
M  V30 2674 H 245.387 1.71117 -2.45681 0
M  V30 2675 H 242.933 0.821825 -1.18246 0
M  V30 2676 H 244.886 3.94472 -1.48221 0
M  V30 2677 H 243.61 3.23293 -0.463586 0
M  V30 2678 H 242.269 2.66375 -2.51873 0
M  V30 2679 H 241.917 4.84585 -1.34856 0
M  V30 2680 H 241.617 4.9927 -3.09844 0
M  V30 2681 H 243.141 5.61342 -2.40265 0
M  V30 2682 H 244.555 4.05374 -4.05395 0
M  V30 2683 H 242.952 3.67159 -4.74673 0
M  V30 2684 H 244.022 2.3518 -4.2405 0
M  V30 2685 N 245.365 1.30045 0.890287 0
M  V30 2686 C 246.781 1.08261 1.17268 0
M  V30 2687 C 246.981 -0.160063 2.00863 0
M  V30 2688 O 246.037 -0.855181 2.37577 0
M  V30 2689 C 247.35 2.34323 1.8845 0
M  V30 2690 C 248.898 2.39735 2.01237 0
M  V30 2691 C 249.373 3.65625 2.7583 0
M  V30 2692 N 250.864 3.66402 2.83379 0
M  V30 2693 C 251.599 4.60498 3.41657 0
M  V30 2694 N 251.095 5.64933 4.01026 0
M  V30 2695 N 252.888 4.48051 3.39421 0
M  V30 2696 H 245.039 2.09777 0.332762 0
M  V30 2697 H 247.302 0.92446 0.209948 0
M  V30 2698 H 247.008 3.2498 1.34465 0
M  V30 2699 H 246.882 2.4256 2.88867 0
M  V30 2700 H 249.269 1.4956 2.54393 0
M  V30 2701 H 249.35 2.35476 0.999232 0
M  V30 2702 H 248.994 4.56156 2.23347 0
M  V30 2703 H 248.924 3.67144 3.77509 0
M  V30 2704 H 251.415 2.90896 2.41222 0
M  V30 2705 H 251.728 6.32841 4.43545 0
M  V30 2706 H 250.073 5.68732 3.99461 0
M  V30 2707 H 253.264 3.65649 2.92264 0
M  V30 2708 H 253.437 5.21565 3.84544 0
M  V30 2709 N 246.843 -1.10192 1.12674 0
M  V30 2710 C 248.092 -1.81573 0.8783 0
M  V30 2711 C 248.405 -1.86249 -0.597557 0
M  V30 2712 O 249.611 -2.5386 -0.962681 0
M  V30 2713 C 248.067 -3.26149 1.52167 0
M  V30 2714 C 247.675 -3.29763 3.03249 0
M  V30 2715 C 249.419 -4.0234 1.3536 0
M  V30 2716 C 247.326 -4.68815 3.60508 0
M  V30 2717 H 246.256 -0.680394 0.324931 0
M  V30 2718 H 248.907 -1.23902 1.35353 0
M  V30 2719 H 247.289 -3.83832 0.974104 0
M  V30 2720 H 248.463 -2.8189 3.6452 0
M  V30 2721 H 246.778 -2.67059 3.19481 0
M  V30 2722 H 249.375 -5.05058 1.75559 0
M  V30 2723 H 249.718 -4.15235 0.297554 0
M  V30 2724 H 250.251 -3.51079 1.87052 0
M  V30 2725 H 246.99 -4.61121 4.65884 0
M  V30 2726 H 246.51 -5.17045 3.04014 0
M  V30 2727 H 248.189 -5.37785 3.59717 0
M  V30 2728 N 248.321 -0.919034 -1.28029 0
M  V30 2729 C 249.732 -0.600735 -1.76771 0
M  V30 2730 C 250.083 0.884024 -1.75156 0
M  V30 2731 O 249.208 1.69163 -1.34956 0
M  V30 2732 C 249.803 -1.08372 -3.21 0
M  V30 2733 C 248.362 -0.816248 -3.67443 0
M  V30 2734 C 247.509 -1.24742 -2.47658 0
M  V30 2735 H 250.46 -1.09974 -1.14418 0
M  V30 2736 H 250.481 -0.427512 -3.78091 0
M  V30 2737 H 249.993 -2.16437 -3.22144 0
M  V30 2738 H 248.094 0.250968 -3.71754 0
M  V30 2739 H 248.207 -1.4277 -4.57333 0
M  V30 2740 H 246.571 -0.666083 -2.45836 0
M  V30 2741 H 247.354 -2.33653 -2.51518 0
M  V30 2742 N 249.799 1.42003 -0.683588 0
M  V30 2743 C 250.746 2.30798 -0.0107309 0
M  V30 2744 C 251.716 1.4645 0.783688 0
M  V30 2745 O 252.901 1.75263 0.754156 0
M  V30 2746 C 250.041 3.3238 0.928306 0
M  V30 2747 C 249.154 4.31814 0.126776 0
M  V30 2748 C 248.289 5.20468 1.06236 0
M  V30 2749 C 247.328 6.11577 0.253035 0
M  V30 2750 N 246.465 6.92754 1.14179 0
M  V30 2751 H 251.305 2.8778 -0.773727 0
M  V30 2752 H 248.842 1.41745 -0.393283 0
M  V30 2753 H 250.8 3.89813 1.48666 0
M  V30 2754 H 249.43 2.76976 1.65783 0
M  V30 2755 H 248.482 3.76427 -0.54833 0
M  V30 2756 H 249.794 4.96276 -0.501192 0
M  V30 2757 H 248.948 5.82677 1.69035 0
M  V30 2758 H 247.687 4.56204 1.7242 0
M  V30 2759 H 246.692 5.48428 -0.388108 0
M  V30 2760 H 247.917 6.77892 -0.404839 0
M  V30 2761 H 245.863 6.3111 1.78987 0
M  V30 2762 H 245.78 7.53855 0.569111 0
M  V30 2763 H 247.048 7.59441 1.75697 0
M  V30 2764 N 251.277 0.427512 1.51691 0
M  V30 2765 C 252.502 -0.143601 2.06902 0
M  V30 2766 C 252.927 -1.36536 1.29382 0
M  V30 2767 O 252.285 -1.78289 0.329043 0
M  V30 2768 C 252.333 -0.454207 3.57728 0
M  V30 2769 O 251.437 -1.54228 3.82475 0
M  V30 2770 H 250.778 -0.00617128 0.663971 0
M  V30 2771 H 253.308 0.606014 1.95419 0
M  V30 2772 H 253.318 -0.707525 4.01818 0
M  V30 2773 H 251.993 0.438812 4.13579 0
M  V30 2774 H 250.57 -1.2797 3.50254 0
M  V30 2775 N 252.755 -1.56801 0.158532 0
M  V30 2776 C 254.032 -1.88131 -0.535357 0
M  V30 2777 C 254.412 -1.06638 -1.82186 0
M  V30 2778 O 253.76 -0.156533 -2.27963 0
M  V30 2779 C 253.97 -3.39949 -0.789653 0
M  V30 2780 C 255.318 -4.09416 -1.12533 0
M  V30 2781 O 256.342 -3.45194 -0.878622 0
M  V30 2782 O 255.201 -5.22855 -1.59014 0
M  V30 2783 H 252.295 -0.780143 -0.27442 0
M  V30 2784 H 254.841 -1.68564 0.19601 0
M  V30 2785 H 253.613 -3.91115 0.120353 0
M  V30 2786 H 253.236 -3.65084 -1.57479 0
M  V30 2787 N 254.233 0.115231 -1.57178 0
M  V30 2788 C 255.479 0.82357 -1.85325 0
M  V30 2789 C 255.812 1.79349 -0.744814 0
M  V30 2790 O 255.087 1.92899 0.249024 0
M  V30 2791 C 255.37 1.57014 -3.24066 0
M  V30 2792 C 255.223 0.619565 -4.45513 0
M  V30 2793 C 256.542 2.52545 -3.60429 0
M  V30 2794 H 253.661 0.297948 -0.674089 0
M  V30 2795 H 256.303 0.0877138 -1.89797 0
M  V30 2796 H 254.453 2.19742 -3.20383 0
M  V30 2797 H 256.125 0.000837639 -4.613 0
M  V30 2798 H 254.368 -0.0686174 -4.33746 0
M  V30 2799 H 255.039 1.17866 -5.3927 0
M  V30 2800 H 257.515 1.9992 -3.64926 0
M  V30 2801 H 256.391 3.01811 -4.58477 0
M  V30 2802 H 256.652 3.35383 -2.88047 0
M  V30 2803 N 255.711 1.52812 0.385517 0
M  V30 2804 C 256.957 1.68275 1.13188 0
M  V30 2805 C 257.29 0.423179 1.89533 0
M  V30 2806 O 256.565 -0.579113 1.85679 0
M  V30 2807 C 256.848 2.92001 2.1073 0
M  V30 2808 C 256.701 4.28067 1.38125 0
M  V30 2809 C 258.02 3.11283 3.11113 0
M  V30 2810 H 255.139 0.612352 0.410115 0
M  V30 2811 H 257.781 1.85415 0.414869 0
M  V30 2812 H 255.931 2.77519 2.71874 0
M  V30 2813 H 257.603 4.54324 0.799187 0
M  V30 2814 H 255.846 4.28388 0.683092 0
M  V30 2815 H 256.517 5.10733 2.09417 0
M  V30 2816 H 258.993 3.2482 2.6006 0
M  V30 2817 H 257.869 3.99325 3.76605 0
M  V30 2818 H 258.13 2.25656 3.80173 0
M  V30 2819 N 257.189 -0.644168 1.43834 0
M  V30 2820 C 258.419 -1.42939 1.49171 0
M  V30 2821 C 258.827 -1.88874 0.111048 0
M  V30 2822 O 258.17 -1.60656 -0.8908 0
M  V30 2823 C 258.232 -2.69151 2.38324 0
M  V30 2824 C 257.896 -2.45097 3.85715 0
M  V30 2825 C 258.893 -2.07747 4.76589 0
M  V30 2826 C 256.578 -2.59141 4.30292 0
M  V30 2827 C 258.572 -1.8475 6.10038 0
M  V30 2828 C 256.259 -2.35759 5.63792 0
M  V30 2829 C 257.257 -1.9862 6.53482 0
M  V30 2830 O 256.945 -1.75489 7.84512 0
M  V30 2831 H 256.677 -0.445271 0.508635 0
M  V30 2832 H 259.231 -0.79621 1.8934 0
M  V30 2833 H 257.461 -3.3506 1.93058 0
M  V30 2834 H 259.15 -3.31123 2.3476 0
M  V30 2835 H 259.916 -1.96465 4.43426 0
M  V30 2836 H 255.795 -2.87022 3.60749 0
M  V30 2837 H 259.339 -1.55686 6.80006 0
M  V30 2838 H 255.236 -2.46646 5.9652 0
M  V30 2839 H 256.004 -1.89841 7.9618 0
M  V30 2840 N 258.668 -1.30515 -0.883378 0
M  V30 2841 C 259.896 -1.22359 -1.66841 0
M  V30 2842 C 260.311 0.213296 -1.87591 0
M  V30 2843 O 259.668 1.14075 -1.42454 0
M  V30 2844 C 259.719 -1.95011 -3.04389 0
M  V30 2845 O 259.44 -3.3309 -2.84575 0
M  V30 2846 C 260.941 -1.93532 -3.98824 0
M  V30 2847 H 258.161 -0.423371 -0.520575 0
M  V30 2848 H 260.705 -1.72167 -1.10357 0
M  V30 2849 H 258.86 -1.48997 -3.57601 0
M  V30 2850 H 259.274 -3.69907 -3.71846 0
M  V30 2851 H 260.748 -2.48902 -4.92699 0
M  V30 2852 H 261.225 -0.914627 -4.29571 0
M  V30 2853 H 261.831 -2.39364 -3.51547 0
M  V30 2854 N 260.146 1.09593 -1.13257 0
M  V30 2855 C 261.423 1.78293 -0.804432 0
M  V30 2856 C 261.803 1.99004 0.70431 0
M  V30 2857 O 261.151 1.59007 1.641 0
M  V30 2858 C 261.361 3.10707 -1.5894 0
M  V30 2859 C 262.709 3.85443 -1.78099 0
M  V30 2860 O 263.733 3.20454 -1.55525 0
M  V30 2861 O 262.592 5.02108 -2.15753 0
M  V30 2862 H 259.686 0.773156 -0.293528 0
M  V30 2863 H 262.232 1.16164 -1.23709 0
M  V30 2864 H 261.004 2.91106 -2.61482 0
M  V30 2865 H 260.627 3.80558 -1.15157 0
M  V30 2866 N 261.624 0.925811 1.2754 0
M  V30 2867 C 262.87 0.575575 1.95086 0
M  V30 2868 C 263.225 -0.873246 1.71441 0
M  V30 2869 O 262.518 -1.61443 1.03183 0
M  V30 2870 C 262.712 0.835296 3.47502 0
M  V30 2871 C 262.541 2.30781 3.85967 0
M  V30 2872 C 261.311 2.96017 4.09514 0
M  V30 2873 C 263.509 3.28519 3.95702 0
M  V30 2874 N 261.491 4.3344 4.34744 0
M  V30 2875 C 262.862 4.51146 4.25285 0
M  V30 2876 C 264.917 3.23753 3.7827 0
M  V30 2877 C 263.62 5.69606 4.39251 0
M  V30 2878 C 265.646 4.41523 3.9346 0
M  V30 2879 C 265.008 5.62928 4.23428 0
M  V30 2880 H 261.107 0.260711 0.737261 0
M  V30 2881 H 263.691 1.19204 1.53943 0
M  V30 2882 H 261.862 0.248005 3.87607 0
M  V30 2883 H 263.594 0.447878 4.02214 0
M  V30 2884 H 260.349 2.46695 4.04275 0
M  V30 2885 H 260.773 5.04528 4.5142 0
M  V30 2886 H 265.415 2.3096 3.54143 0
M  V30 2887 H 263.133 6.62866 4.62205 0
M  V30 2888 H 266.719 4.39351 3.81394 0
M  V30 2889 H 265.599 6.52538 4.34929 0
M  V30 2890 N 263.102 -1.41638 0.69111 0
M  V30 2891 C 264.049 -2.30789 0.0229705 0
M  V30 2892 C 265.019 -1.46863 -0.775911 0
M  V30 2893 O 266.204 -1.75661 -0.74485 0
M  V30 2894 C 263.344 -3.32868 -0.910666 0
M  V30 2895 C 262.457 -4.31875 -0.103874 0
M  V30 2896 C 261.592 -5.21024 -1.03475 0
M  V30 2897 C 260.631 -6.11702 -0.220598 0
M  V30 2898 N 259.768 -6.93349 -1.10504 0
M  V30 2899 H 264.608 -2.87366 0.788978 0
M  V30 2900 H 262.145 -1.41535 0.400794 0
M  V30 2901 H 264.103 -3.90596 -1.46597 0
M  V30 2902 H 262.733 -2.77851 -1.64312 0
M  V30 2903 H 261.785 -3.76131 0.568285 0
M  V30 2904 H 263.097 -4.96003 0.527504 0
M  V30 2905 H 262.251 -5.83565 -1.65943 0
M  V30 2906 H 260.99 -4.57112 -1.69999 0
M  V30 2907 H 259.995 -5.48215 0.417187 0
M  V30 2908 H 261.22 -6.77668 0.440784 0
M  V30 2909 H 259.166 -6.3205 -1.75638 0
M  V30 2910 H 259.083 -7.54146 -0.529125 0
M  V30 2911 H 260.351 -7.60362 -1.71667 0
M  V30 2912 N 264.58 -0.43555 -1.51462 0
M  V30 2913 C 265.527 0.376797 -2.27703 0
M  V30 2914 C 266.497 1.01838 -1.31219 0
M  V30 2915 O 267.682 1.03762 -1.60119 0
M  V30 2916 C 264.822 1.47301 -3.12084 0
M  V30 2917 C 263.935 0.849744 -4.2356 0
M  V30 2918 C 263.07 1.92086 -4.95254 0
M  V30 2919 C 262.109 1.27593 -5.98654 0
M  V30 2920 N 261.246 2.28833 -6.63762 0
M  V30 2921 H 266.086 -0.279734 -2.96684 0
M  V30 2922 H 263.623 -0.149795 -1.46335 0
M  V30 2923 H 265.581 2.11984 -3.59331 0
M  V30 2924 H 264.211 2.0992 -2.45221 0
M  V30 2925 H 263.263 0.0912529 -3.80291 0
M  V30 2926 H 264.575 0.338878 -4.97648 0
M  V30 2927 H 263.729 2.64435 -5.46039 0
M  V30 2928 H 262.468 2.46545 -4.20793 0
M  V30 2929 H 261.473 0.537893 -5.47162 0
M  V30 2930 H 262.698 0.738693 -6.7507 0
M  V30 2931 H 260.644 2.82375 -5.92115 0
M  V30 2932 H 260.561 1.82632 -7.33608 0
M  V30 2933 H 261.829 3.00671 -7.19178 0
M  V30 2934 N 266.058 1.56714 -0.166846 0
M  V30 2935 C 267.335 1.88412 0.525373 0
M  V30 2936 C 267.715 1.07602 1.81618 0
M  V30 2937 O 267.063 0.168621 2.27877 0
M  V30 2938 C 267.273 3.40363 0.771613 0
M  V30 2939 C 268.621 4.10007 1.1036 0
M  V30 2940 O 269.645 3.45655 0.860304 0
M  V30 2941 O 268.504 5.2369 1.56239 0
M  V30 2942 H 265.598 0.781587 0.270278 0
M  V30 2943 H 268.144 1.68458 -0.204946 0
M  V30 2944 H 266.916 3.91046 -0.141093 0
M  V30 2945 H 266.539 3.65914 1.55541 0
M  V30 2946 N 267.536 -0.106894 1.57237 0
M  V30 2947 C 268.483 -1.13049 2.01217 0
M  V30 2948 C 269.453 -1.40471 0.886403 0
M  V30 2949 O 270.638 -1.52133 1.15153 0
M  V30 2950 C 267.778 -2.4487 2.43172 0
M  V30 2951 C 266.891 -2.24281 3.69218 0
M  V30 2952 C 266.026 -3.49417 4.00101 0
M  V30 2953 C 265.065 -3.24038 5.19294 0
M  V30 2954 N 264.202 -4.41409 5.45988 0
M  V30 2955 H 269.042 -0.748456 2.88448 0
M  V30 2956 H 266.579 -0.358054 1.42676 0
M  V30 2957 H 268.537 -3.21786 2.65537 0
M  V30 2958 H 267.167 -2.80944 1.58967 0
M  V30 2959 H 266.219 -1.38224 3.54398 0
M  V30 2960 H 267.531 -2.01512 4.56283 0
M  V30 2961 H 266.685 -4.34746 4.2318 0
M  V30 2962 H 265.424 -3.75229 3.11535 0
M  V30 2963 H 264.429 -2.37102 4.96047 0
M  V30 2964 H 265.654 -2.99584 6.09447 0
M  V30 2965 H 263.6 -4.67319 4.60379 0
M  V30 2966 H 263.517 -4.21788 6.274 0
M  V30 2967 H 264.785 -5.27836 5.73593 0
M  V30 2968 N 269.014 -1.53014 -0.377408 0
M  V30 2969 C 270.254 -1.70318 -1.1301 0
M  V30 2970 C 270.618 -0.439538 -1.86901 0
M  V30 2971 O 271.819 -0.489095 -2.64313 0
M  V30 2972 C 270.09 -2.91125 -2.07319 0
M  V30 2973 S 271.649 -3.29075 -2.90268 0
M  V30 2974 H 268.467 -0.599426 -0.382374 0
M  V30 2975 H 271.069 -1.91089 -0.412933 0
M  V30 2976 H 269.773 -3.81303 -1.51777 0
M  V30 2977 H 269.304 -2.7272 -2.83526 0
M  V30 2978 H 271.319 -2.80165 -4.09539 0
M  V30 2979 N 270.492 0.636531 -1.44174 0
M  V30 2980 C 271.402 1.77754 -1.53103 0
M  V30 2981 C 272.418 1.68928 -0.417034 0
M  V30 2982 O 273.594 1.89801 -0.6736 0
M  V30 2983 C 270.659 3.14115 -1.46741 0
M  V30 2984 C 269.72 3.34612 -2.68948 0
M  V30 2985 C 268.953 4.64467 -2.6288 0
M  V30 2986 O 269.176 5.44919 -1.68581 0
M  V30 2987 O 268.11 4.87049 -3.53648 0
M  V30 2988 H 271.936 1.73174 -2.49489 0
M  V30 2989 H 269.521 0.79709 -1.2636 0
M  V30 2990 H 271.403 3.95412 -1.45696 0
M  V30 2991 H 270.078 3.19249 -0.534975 0
M  V30 2992 H 268.985 2.53014 -2.75562 0
M  V30 2993 H 270.318 3.34336 -3.61221 0
M  V30 2994 N 271.97 1.30982 0.876444 0
M  V30 2995 C 273.381 1.18277 1.44456 0
M  V30 2996 C 273.732 -0.213265 1.95037 0
M  V30 2997 O 272.857 -1.11057 1.85729 0
M  V30 2998 C 273.452 2.1411 2.62569 0
M  V30 2999 C 272.011 2.05358 3.15444 0
M  V30 3000 C 271.158 2.03706 1.88146 0
M  V30 3001 H 274.109 1.43127 0.685584 0
M  V30 3002 H 274.13 1.72692 3.39054 0
M  V30 3003 H 273.642 3.15706 2.25724 0
M  V30 3004 H 271.743 1.06934 3.56926 0
M  V30 3005 H 271.856 2.94156 3.78166 0
M  V30 3006 H 270.22 1.48629 2.06837 0
M  V30 3007 H 271.003 3.07047 1.53547 0
M  V30 3008 N 273.449 -1.08991 1.13837 0
M  V30 3009 C 274.379 -2.17771 0.842507 0
M  V30 3010 C 275.36 -1.6892 -0.20001 0
M  V30 3011 O 276.545 -1.94113 -0.0579731 0
M  V30 3012 C 273.675 -3.4589 0.312644 0
M  V30 3013 C 272.629 -4.08099 1.28992 0
M  V30 3014 C 271.955 -5.31098 0.619623 0
M  V30 3015 C 273.255 -4.50077 2.65005 0
M  V30 3016 H 274.949 -2.42777 1.75213 0
M  V30 3017 H 272.495 -1.16682 0.843875 0
M  V30 3018 H 274.448 -4.21297 0.0933043 0
M  V30 3019 H 273.172 -3.20419 -0.632382 0
M  V30 3020 H 271.831 -3.34717 1.49533 0
M  V30 3021 H 271.479 -5.0191 -0.33102 0
M  V30 3022 H 271.179 -5.73674 1.27167 0
M  V30 3023 H 272.703 -6.09224 0.409669 0
M  V30 3024 H 274.117 -5.16688 2.48407 0
M  V30 3025 H 272.514 -5.03553 3.26427 0
M  V30 3026 H 273.584 -3.62257 3.22332 0
M  V30 3027 N 274.927 -0.932562 -1.27047 0
M  V30 3028 C 275.837 -0.441219 -2.30414 0
M  V30 3029 C 276.853 0.480525 -1.67233 0
M  V30 3030 O 278.029 0.362151 -1.98117 0
M  V30 3031 C 275.094 0.293651 -3.45454 0
M  V30 3032 C 274.155 -0.663601 -4.2414 0
M  V30 3033 C 273.388 0.0362932 -5.33688 0
M  V30 3034 O 273.611 1.2548 -5.56427 0
M  V30 3035 O 272.545 -0.638015 -5.98509 0
M  V30 3036 H 276.371 -1.29962 -2.74488 0
M  V30 3037 H 273.956 -0.6981 -1.32087 0
M  V30 3038 H 275.838 0.707951 -4.15411 0
M  V30 3039 H 274.513 1.12758 -3.03426 0
M  V30 3040 H 273.42 -1.12768 -3.56699 0
M  V30 3041 H 274.753 -1.46489 -4.69896 0
M  V30 3042 N 276.405 1.4127 -0.698611 0
M  V30 3043 C 277.352 2.30773 -0.0352094 0
M  V30 3044 C 278.322 1.47273 0.768111 0
M  V30 3045 O 279.507 1.76053 0.735524 0
M  V30 3046 C 276.647 3.33346 0.893 0
M  V30 3047 C 275.76 4.31924 0.0809695 0
M  V30 3048 C 274.895 5.21566 1.0071 0
M  V30 3049 C 273.934 6.11811 0.188155 0
M  V30 3050 N 273.071 6.93926 1.06825 0
M  V30 3051 H 277.911 2.86943 -0.804207 0
M  V30 3052 H 275.448 1.4132 -0.408294 0
M  V30 3053 H 277.406 3.91368 1.44523 0
M  V30 3054 H 276.036 2.78719 1.62836 0
M  V30 3055 H 275.088 3.75825 -0.588224 0
M  V30 3056 H 276.4 4.95716 -0.553801 0
M  V30 3057 H 275.554 5.84437 1.62845 0
M  V30 3058 H 274.293 4.58008 1.67572 0
M  V30 3059 H 273.298 5.47986 -0.446254 0
M  V30 3060 H 274.523 6.77425 -0.476716 0
M  V30 3061 H 272.469 6.32973 1.72283 0
M  V30 3062 H 272.386 7.54416 0.489123 0
M  V30 3063 H 273.654 7.61262 1.67632 0
M  V30 3064 N 277.883 0.443576 1.51229 0
M  V30 3065 C 278.815 -0.400608 2.25672 0
M  V30 3066 C 279.828 -0.980945 1.29928 0
M  V30 3067 O 281.017 -0.874024 1.55638 0
M  V30 3068 C 278.117 -1.57304 3.00181 0
M  V30 3069 C 277.29 -1.11046 4.23069 0
M  V30 3070 C 276.349 -2.15374 4.80105 0
M  V30 3071 O 275.375 -1.74554 5.41774 0
M  V30 3072 N 276.577 -3.47922 4.64683 0
M  V30 3073 H 279.342 0.23745 2.98758 0
M  V30 3074 H 276.903 0.272809 1.59585 0
M  V30 3075 H 278.895 -2.26733 3.35223 0
M  V30 3076 H 277.465 -2.11632 2.30066 0
M  V30 3077 H 276.685 -0.243019 3.9345 0
M  V30 3078 H 277.973 -0.778888 5.02803 0
M  V30 3079 H 277.371 -3.83815 4.15575 0
M  V30 3080 H 275.928 -4.13228 5.0407 0
M  V30 3081 N 279.361 -1.56624 0.175154 0
M  V30 3082 C 280.311 -2.14747 -0.766004 0
M  V30 3083 C 281.295 -1.08275 -1.19018 0
M  V30 3084 O 282.487 -1.34388 -1.15191 0
M  V30 3085 C 279.616 -2.79478 -1.99366 0
M  V30 3086 C 278.702 -3.93114 -1.5913 0
M  V30 3087 N 279.093 -4.97752 -0.89872 0
M  V30 3088 C 277.391 -4.04345 -1.88204 0
M  V30 3089 C 278.092 -5.77473 -0.700012 0
M  V30 3090 N 277.068 -5.29207 -1.24263 0
M  V30 3091 H 280.87 -2.93015 -0.22793 0
M  V30 3092 H 278.384 -1.6238 -0.0253843 0
M  V30 3093 H 280.381 -3.19498 -2.67818 0
M  V30 3094 H 279.041 -2.02692 -2.53665 0
M  V30 3095 H 280.052 -5.14903 -0.556347 0
M  V30 3096 H 276.729 -3.38667 -2.44153 0
M  V30 3097 H 278.119 -6.71728 -0.152047 0
M  V30 3098 N 280.839 0.0985539 -1.57292 0
M  V30 3099 C 281.749 1.13824 -2.05137 0
M  V30 3100 C 282.765 1.44076 -0.975604 0
M  V30 3101 O 283.941 1.54786 -1.28853 0
M  V30 3102 C 281.006 2.43969 -2.46333 0
M  V30 3103 C 280.067 2.2093 -3.68087 0
M  V30 3104 C 279.3 3.44869 -4.0731 0
M  V30 3105 O 279.523 4.52972 -3.46659 0
M  V30 3106 O 278.457 3.34661 -5.00285 0
M  V30 3107 H 282.283 0.761881 -2.93988 0
M  V30 3108 H 279.868 0.310818 -1.46131 0
M  V30 3109 H 281.75 3.20609 -2.73473 0
M  V30 3110 H 280.425 2.81038 -1.60621 0
M  V30 3111 H 279.332 1.42081 -3.46069 0
M  V30 3112 H 280.665 1.88755 -4.54568 0
M  V30 3113 N 282.317 1.53212 0.369288 0
M  V30 3114 C 283.264 1.79388 1.45219 0
M  V30 3115 C 284.234 0.638059 1.53356 0
M  V30 3116 O 285.419 0.879852 1.69302 0
M  V30 3117 C 282.559 1.98623 2.82211 0
M  V30 3118 C 281.672 3.26337 2.8307 0
M  V30 3119 C 280.807 3.35779 4.11614 0
M  V30 3120 C 279.846 4.5754 4.06601 0
M  V30 3121 N 278.983 4.64155 5.26787 0
M  V30 3122 H 283.823 2.71794 1.22198 0
M  V30 3123 H 281.36 1.34642 0.592444 0
M  V30 3124 H 283.318 2.07761 3.61789 0
M  V30 3125 H 281.948 1.09558 3.03639 0
M  V30 3126 H 281 3.26171 1.95747 0
M  V30 3127 H 282.312 4.15988 2.75237 0
M  V30 3128 H 281.466 3.44208 4.99606 0
M  V30 3129 H 280.205 2.44137 4.22195 0
M  V30 3130 H 279.21 4.49215 3.16996 0
M  V30 3131 H 280.435 5.50519 3.97625 0
M  V30 3132 H 278.381 3.75413 5.3796 0
M  V30 3133 H 278.298 5.47706 5.21109 0
M  V30 3134 H 279.566 4.76863 6.16621 0
M  V30 3135 N 283.795 -0.628877 1.44509 0
M  V30 3136 C 284.705 -1.7694 1.54044 0
M  V30 3137 C 285.721 -1.68705 0.425987 0
M  V30 3138 O 286.897 -1.89442 0.683656 0
M  V30 3139 C 283.962 -3.13332 1.48405 0
M  V30 3140 C 283.023 -3.33181 2.70719 0
M  V30 3141 C 282.256 -4.63067 2.6534 0
M  V30 3142 O 282.479 -5.44017 1.71469 0
M  V30 3143 O 281.413 -4.85167 3.56226 0
M  V30 3144 H 285.239 -1.71848 2.50403 0
M  V30 3145 H 282.824 -0.790378 1.26781 0
M  V30 3146 H 284.706 -3.94634 1.47791 0
M  V30 3147 H 283.381 -3.1896 0.551898 0
M  V30 3148 H 282.288 -2.51549 2.769 0
M  V30 3149 H 283.621 -3.32416 3.62988 0
M  V30 3150 N 285.273 -1.31445 -0.869486 0
M  V30 3151 C 286.689 -1.10113 -1.15531 0
M  V30 3152 C 286.889 0.128087 -2.01092 0
M  V30 3153 O 285.945 0.817276 -2.38908 0
M  V30 3154 C 287.258 -2.37291 -1.84698 0
M  V30 3155 C 288.806 -2.42906 -1.97397 0
M  V30 3156 C 289.281 -3.69967 -2.69979 0
M  V30 3157 N 290.772 -3.70864 -2.77514 0
M  V30 3158 C 291.507 -4.65875 -3.34287 0
M  V30 3159 N 291.003 -5.71242 -3.91988 0
M  V30 3160 N 292.796 -4.53394 -3.3225 0
M  V30 3161 H 284.947 -2.1028 -0.299347 0
M  V30 3162 H 287.21 -0.927683 -0.195214 0
M  V30 3163 H 286.916 -3.27078 -1.29278 0
M  V30 3164 H 286.79 -2.47125 -2.84972 0
M  V30 3165 H 289.177 -1.53588 -2.51982 0
M  V30 3166 H 289.258 -2.37036 -0.961643 0
M  V30 3167 H 288.902 -4.59652 -2.16062 0
M  V30 3168 H 288.832 -3.73103 -3.7162 0
M  V30 3169 H 291.323 -2.94697 -2.36563 0
M  V30 3170 H 291.636 -6.39817 -4.33421 0
M  V30 3171 H 289.981 -5.75015 -3.90362 0
M  V30 3172 H 293.172 -3.70252 -2.8641 0
M  V30 3173 H 293.345 -5.27617 -3.76197 0
M  V30 3174 N 286.751 1.08385 -1.14413 0
M  V30 3175 C 287.698 2.15311 -0.831265 0
M  V30 3176 C 288.668 1.64751 0.211292 0
M  V30 3177 O 289.853 1.90627 0.0811674 0
M  V30 3178 C 286.993 3.43658 -0.315143 0
M  V30 3179 C 286.106 4.08064 -1.41802 0
M  V30 3180 C 285.241 5.24207 -0.859126 0
M  V30 3181 C 284.28 5.80554 -1.93967 0
M  V30 3182 N 283.417 6.88042 -1.39793 0
M  V30 3183 H 288.257 2.41415 -1.74708 0
M  V30 3184 H 285.794 1.18474 -0.871909 0
M  V30 3185 H 287.752 4.172 0.00230884 0
M  V30 3186 H 286.382 3.17839 0.56378 0
M  V30 3187 H 285.434 3.3228 -1.85187 0
M  V30 3188 H 286.746 4.45962 -2.23427 0
M  V30 3189 H 285.9 6.04689 -0.49359 0
M  V30 3190 H 284.639 4.87699 -0.011932 0
M  V30 3191 H 283.644 4.98725 -2.31415 0
M  V30 3192 H 284.869 6.19121 -2.79046 0
M  V30 3193 H 282.815 6.53493 -0.572919 0
M  V30 3194 H 282.732 7.24767 -2.15054 0
M  V30 3195 H 284 7.72255 -1.0603 0
M  V30 3196 N 288.23 0.939286 1.26551 0
M  V30 3197 C 289.162 0.404704 2.25599 0
M  V30 3198 C 290.175 -0.470983 1.55838 0
M  V30 3199 O 291.364 -0.281734 1.76263 0
M  V30 3200 C 288.464 -0.43764 3.36062 0
M  V30 3201 C 287.637 0.421449 4.35365 0
M  V30 3202 C 286.696 -0.36015 5.24966 0
M  V30 3203 O 285.722 0.236167 5.6871 0
M  V30 3204 N 286.924 -1.65715 5.56344 0
M  V30 3205 H 289.689 1.25618 2.72103 0
M  V30 3206 H 287.25 0.807963 1.40298 0
M  V30 3207 H 289.242 -0.967866 3.92956 0
M  V30 3208 H 287.812 -1.18991 2.89067 0
M  V30 3209 H 287.032 1.1329 3.7757 0
M  V30 3210 H 288.32 1.00835 4.98708 0
M  V30 3211 H 287.718 -2.16378 5.22682 0
M  V30 3212 H 286.275 -2.13366 6.15888 0
M  V30 3213 N 289.708 -1.40897 0.706093 0
M  V30 3214 C 290.618 -2.3455 0.0482286 0
M  V30 3215 C 291.634 -1.56796 -0.754396 0
M  V30 3216 O 292.81 -1.89228 -0.689538 0
M  V30 3217 C 289.875 -3.35625 -0.869303 0
M  V30 3218 C 288.936 -4.29261 -0.0576994 0
M  V30 3219 C 288.169 -5.25508 -0.931531 0
M  V30 3220 O 288.392 -5.27472 -2.17092 0
M  V30 3221 O 287.326 -6.00727 -0.375587 0
M  V30 3222 H 291.152 -2.92407 0.820476 0
M  V30 3223 H 288.737 -1.4193 0.4665 0
M  V30 3224 H 290.619 -3.97635 -1.39514 0
M  V30 3225 H 289.294 -2.80196 -1.62086 0
M  V30 3226 H 288.201 -3.70566 0.512988 0
M  V30 3227 H 289.534 -4.87817 0.655426 0
M  V30 3228 N 291.186 -0.45159 -1.50991 0
M  V30 3229 C 292.096 0.358431 -2.31846 0
M  V30 3230 C 293.112 1.01438 -1.41373 0
M  V30 3231 O 294.288 1.00663 -1.74439 0
M  V30 3232 C 291.353 1.43704 -3.15515 0
M  V30 3233 C 290.414 0.799742 -4.21785 0
M  V30 3234 C 289.647 1.82696 -5.01456 0
M  V30 3235 O 289.87 3.05105 -4.81941 0
M  V30 3236 O 288.804 1.40958 -5.85162 0
M  V30 3237 H 292.63 -0.302032 -3.02194 0
M  V30 3238 H 290.215 -0.213825 -1.47862 0
M  V30 3239 H 292.097 2.06227 -3.67489 0
M  V30 3240 H 290.772 2.08133 -2.47916 0
M  V30 3241 H 289.679 0.136084 -3.73852 0
M  V30 3242 H 291.012 0.198718 -4.91799 0
M  V30 3243 N 292.664 1.56529 -0.183458 0
M  V30 3244 C 293.912 1.96855 0.457452 0
M  V30 3245 C 294.233 1.07104 1.62953 0
M  V30 3246 O 293.503 0.139887 1.954 0
M  V30 3247 H 292.083 0.72693 0.171992 0
M  V30 3248 H 294.745 1.93056 -0.267476 0
M  V30 3249 H 293.841 3.01423 0.809368 0
M  V30 3250 N 294.142 -0.090211 1.57342 0
M  V30 3251 C 295.052 -1.12735 2.05738 0
M  V30 3252 C 296.068 -1.43557 0.983231 0
M  V30 3253 O 297.244 -1.54101 1.29672 0
M  V30 3254 C 294.309 -2.42659 2.47624 0
M  V30 3255 C 293.37 -2.18975 3.69254 0
M  V30 3256 C 292.603 -3.42704 4.09133 0
M  V30 3257 O 292.826 -4.51127 3.49057 0
M  V30 3258 O 291.76 -3.32003 5.02053 0
M  V30 3259 H 295.586 -0.746279 2.94388 0
M  V30 3260 H 293.171 -0.303064 1.46294 0
M  V30 3261 H 295.053 -3.19155 2.7517 0
M  V30 3262 H 293.728 -2.80182 1.62109 0
M  V30 3263 H 292.635 -1.40244 3.46818 0
M  V30 3264 H 293.968 -1.86342 4.55563 0
M  V30 3265 N 295.62 -1.53406 -0.361157 0
M  V30 3266 C 296.845 -1.74024 -1.12829 0
M  V30 3267 C 297.27 -0.470069 -1.82132 0
M  V30 3268 O 296.628 0.57619 -1.719 0
M  V30 3269 C 296.676 -2.90903 -2.13091 0
M  V30 3270 O 295.78 -2.59821 -3.20261 0
M  V30 3271 H 295.121 -0.577804 -0.327168 0
M  V30 3272 H 297.651 -2.00307 -0.41693 0
M  V30 3273 H 297.661 -3.17194 -2.56616 0
M  V30 3274 H 296.336 -3.83034 -1.62042 0
M  V30 3275 H 294.913 -2.44362 -2.81677 0
M  V30 3276 O 297.137 0.507134 -1.53331 0
M  V30 3277 H 297.828 1.16207 -1.5497 0
M  V30 END ATOM
M  V30 BEGIN BOND
M  V30 END BOND
M  V30 END CTAB
M  END
$$$$
