drugbank_target|P07024 Protein UshA (DB03148)
 OpenBabel12092120263D

  0  0  0     0  0            999 V3000
M  V30 BEGIN CTAB
M  V30 COUNTS 8512 8601 0 0 0
M  V30 BEGIN ATOM
M  V30 1 H -0.908 1.98254 -0.117106 0
M  V30 2 N 0 1.576 0 0
M  V30 3 C 0.933 2.03868 1.02534 0
M  V30 4 C 1.911 0.928543 1.3348 0
M  V30 5 O 3.095 1.19667 1.45644 0
M  V30 6 C 0.222 2.43627 2.35294 0
M  V30 7 C -0.732 3.65373 2.2001 0
M  V30 8 S 0.101 5.13292 1.52614 0
M  V30 9 C 1.257 5.56322 2.86805 0
M  V30 10 H 1.49 2.90518 0.631377 0
M  V30 11 H -0.977 1.52953 0.210867 0
M  V30 12 H 0.981 2.67203 3.11629 0
M  V30 13 H -0.358 1.57376 2.7183 0
M  V30 14 H -1.165 3.90944 3.18086 0
M  V30 15 H -1.563 3.418 1.51819 0
M  V30 16 H 0.729 5.58782 3.83104 0
M  V30 17 H 1.672 6.56266 2.65933 0
M  V30 18 H 2.08 4.83886 2.90714 0
M  V30 19 N 1.4781 -0.272755 1.55222 0
M  V30 20 C 2.4251 -1.33716 1.88119 0
M  V30 21 C 3.3951 -1.49066 0.73271 0
M  V30 22 O 4.5801 -1.63469 0.984002 0
M  V30 23 C 1.7201 -2.69238 2.15882 0
M  V30 24 C 0.8331 -2.62108 3.43399 0
M  V30 25 C -0.0319 -3.89811 3.60861 0
M  V30 26 C -0.9929 -3.77193 4.8207 0
M  V30 27 N -1.8559 -4.9673 4.96189 0
M  V30 28 H 2.9841 -1.04962 2.78903 0
M  V30 29 H 0.5211 -0.507088 1.38083 0
M  V30 30 H 2.4791 -3.48089 2.29978 0
M  V30 31 H 1.1091 -2.96194 1.28331 0
M  V30 32 H 0.1611 -1.74967 3.37773 0
M  V30 33 H 1.4731 -2.48685 4.32386 0
M  V30 34 H 0.6271 -4.77103 3.74777 0
M  V30 35 H -0.6339 -4.06102 2.7006 0
M  V30 36 H -1.6289 -2.88284 4.68159 0
M  V30 37 H -0.4039 -3.62421 5.74307 0
M  V30 38 H -2.4579 -5.13431 4.08319 0
M  V30 39 H -2.5409 -4.85839 5.79221 0
M  V30 40 H -1.2729 -5.85594 5.1449 0
M  V30 41 N 2.9562 -1.48159 -0.537278 0
M  V30 42 C 3.8862 -1.65029 -1.6519 0
M  V30 43 C 4.8672 -0.499281 -1.62607 0
M  V30 44 O 6.0522 -0.730972 -1.79918 0
M  V30 45 C 3.1822 -1.68303 -3.03795 0
M  V30 46 C 2.1362 -2.8283 -3.21234 0
M  V30 47 C 1.4622 -2.71189 -4.60826 0
M  V30 48 C 2.7622 -4.24211 -3.04701 0
M  V30 49 H 4.4562 -2.58341 -1.51328 0
M  V30 50 H 2.0022 -1.24325 -0.726585 0
M  V30 51 H 3.9552 -1.78693 -3.81637 0
M  V30 52 H 2.6792 -0.715635 -3.18663 0
M  V30 53 H 1.3382 -2.71983 -2.45807 0
M  V30 54 H 0.9862 -1.72435 -4.7252 0
M  V30 55 H 0.6862 -3.48035 -4.7344 0
M  V30 56 H 2.2102 -2.83537 -5.40777 0
M  V30 57 H 3.6242 -4.3593 -3.72341 0
M  V30 58 H 2.0212 -5.01998 -3.28813 0
M  V30 59 H 3.0912 -4.41184 -2.01209 0
M  V30 60 N 4.4343 0.785586 -1.36625 0
M  V30 61 C 5.3643 1.91259 -1.33949 0
M  V30 62 C 6.3453 1.68795 -0.210325 0
M  V30 63 O 7.5303 1.89854 -0.408561 0
M  V30 64 C 4.6603 3.28339 -1.13186 0
M  V30 65 C 3.6143 3.65335 -2.22967 0
M  V30 66 C 2.9403 5.00806 -1.87342 0
M  V30 67 C 4.2403 3.7352 -3.65075 0
M  V30 68 H 5.9343 1.93755 -2.28253 0
M  V30 69 H 3.4803 0.930788 -1.09874 0
M  V30 70 H 5.4333 4.06804 -1.09948 0
M  V30 71 H 4.1573 3.2624 -0.153332 0
M  V30 72 H 2.8163 2.89169 -2.25337 0
M  V30 73 H 2.4643 4.95233 -0.880545 0
M  V30 74 H 2.1643 5.26529 -2.60846 0
M  V30 75 H 3.6883 5.81687 -1.85667 0
M  V30 76 H 5.1023 4.42168 -3.64911 0
M  V30 77 H 3.4993 4.10731 -4.37516 0
M  V30 78 H 4.5693 2.74527 -3.99703 0
M  V30 79 N 5.9124 1.20967 1.01018 0
M  V30 80 C 6.8444 0.922059 2.09835 0
M  V30 81 C 7.8574 -0.0927106 1.62536 0
M  V30 82 O 9.0464 0.139127 1.77957 0
M  V30 83 C 6.1464 0.362004 3.36961 0
M  V30 84 C 5.3194 1.42986 4.13369 0
M  V30 85 C 4.3784 0.879976 5.1879 0
M  V30 86 O 3.4044 1.56219 5.47343 0
M  V30 87 N 4.6064 -0.307396 5.79686 0
M  V30 88 H 7.3714 1.8588 2.35093 0
M  V30 89 H 4.9324 1.11422 1.1746 0
M  V30 90 H 6.9244 -0.0201474 4.04695 0
M  V30 91 H 5.4944 -0.479437 3.08902 0
M  V30 92 H 4.7144 1.98608 3.40512 0
M  V30 93 H 6.0024 2.14885 4.61196 0
M  V30 94 H 5.4004 -0.878796 5.58832 0
M  V30 95 H 3.9574 -0.631115 6.48737 0
M  V30 96 N 7.3905 -1.2043 1.01659 0
M  V30 97 C 8.8065 -1.41852 0.731442 0
M  V30 98 C 9.0065 -1.89358 -0.688898 0
M  V30 99 O 8.0625 -2.06247 -1.45666 0
M  V30 100 C 9.3755 -2.44019 1.75714 0
M  V30 101 C 10.9235 -2.57785 1.77527 0
M  V30 102 C 11.3985 -3.63194 2.79023 0
M  V30 103 N 12.8895 -3.70678 2.77763 0
M  V30 104 C 13.6245 -4.51897 3.52954 0
M  V30 105 N 13.1205 -5.36921 4.37821 0
M  V30 106 N 14.9135 -4.4643 3.41551 0
M  V30 107 H 7.0645 -0.879093 1.93354 0
M  V30 108 H 9.3275 -0.448425 0.835236 0
M  V30 109 H 9.0335 -2.1611 2.77469 0
M  V30 110 H 8.9075 -3.43007 1.56927 0
M  V30 111 H 11.2945 -2.85023 0.764569 0
M  V30 112 H 11.3755 -1.58992 2.00387 0
M  V30 113 H 11.0195 -3.36699 3.80258 0
M  V30 114 H 10.9495 -4.61609 2.53425 0
M  V30 115 H 13.4405 -3.09944 2.16201 0
M  V30 116 H 13.7535 -5.95981 4.91962 0
M  V30 117 H 12.0985 -5.36424 4.41899 0
M  V30 118 H 15.2895 -3.79042 2.74672 0
M  V30 119 H 15.4625 -5.09491 4.00404 0
M  V30 120 N 8.8686 -0.792821 -1.36206 0
M  V30 121 C 10.1166 -0.366062 -1.98757 0
M  V30 122 C 10.4376 1.0668 -1.63231 0
M  V30 123 O 9.7076 1.73587 -0.907978 0
M  V30 124 H 8.2876 -0.132364 -0.735179 0
M  V30 125 H 10.9496 -1.01562 -1.66347 0
M  V30 126 H 10.0456 -0.460638 -3.08682 0
M  V30 127 N 10.3467 1.47872 -0.545128 0
M  V30 128 C 11.5927 2.02793 -0.0166104 0
M  V30 129 C 11.9257 1.41987 1.32489 0
M  V30 130 O 11.2007 0.571045 1.85928 0
M  V30 131 C 11.4837 3.59989 0.0893294 0
M  V30 132 C 11.3367 4.3125 -1.27841 0
M  V30 133 C 12.6557 4.32606 0.808724 0
M  V30 134 H 9.7747 0.736962 -0.00751035 0
M  V30 135 H 12.4167 1.76433 -0.705085 0
M  V30 136 H 10.5667 3.82579 0.675681 0
M  V30 137 H 12.2387 4.20035 -1.90704 0
M  V30 138 H 10.4817 3.92076 -1.85632 0
M  V30 139 H 11.1527 5.39736 -1.15713 0
M  V30 140 H 13.6287 4.14936 0.310992 0
M  V30 141 H 12.5047 5.42251 0.851782 0
M  V30 142 H 12.7657 4.00963 1.86229 0
M  V30 143 N 11.8248 0.280983 1.55075 0
M  V30 144 C 12.7878 -0.590896 2.21452 0
M  V30 145 C 13.7878 -1.07682 1.19421 0
M  V30 146 O 14.9778 -0.97605 1.44288 0
M  V30 147 C 12.1098 -1.81587 2.88511 0
M  V30 148 H 13.3028 -0.0112554 2.99898 0
M  V30 149 H 10.8558 0.0316438 1.56268 0
M  V30 150 H 11.5908 -2.43587 2.14093 0
M  V30 151 H 11.3758 -1.4753 3.63287 0
M  V30 152 H 12.8658 -2.43575 3.39206 0
M  V30 153 N 13.3029 -1.57598 0.00835791 0
M  V30 154 C 14.2329 -2.1198 -0.979113 0
M  V30 155 C 15.2139 -1.03091 -1.35301 0
M  V30 156 O 16.3989 -1.30818 -1.43528 0
M  V30 157 C 13.5289 -2.62995 -2.26828 0
M  V30 158 C 12.4829 -3.76485 -2.03576 0
M  V30 159 C 11.8089 -4.13846 -3.38579 0
M  V30 160 C 13.1089 -5.0342 -1.39161 0
M  V30 161 H 14.8029 -2.94738 -0.526281 0
M  V30 162 H 12.3489 -1.41783 -0.251704 0
M  V30 163 H 14.3019 -2.99669 -2.96271 0
M  V30 164 H 13.0259 -1.7737 -2.7424 0
M  V30 165 H 11.6849 -3.40217 -1.36557 0
M  V30 166 H 11.3329 -3.25232 -3.83709 0
M  V30 167 H 11.0329 -4.90312 -3.23834 0
M  V30 168 H 12.5569 -4.53086 -4.09323 0
M  V30 169 H 13.9709 -5.37812 -1.98573 0
M  V30 170 H 12.3679 -5.84746 -1.34878 0
M  V30 171 H 13.4379 -4.83548 -0.361868 0
M  V30 172 N 14.781 0.264519 -1.55364 0
M  V30 173 C 15.744 1.31046 -1.88042 0
M  V30 174 C 16.744 1.41943 -0.755569 0
M  V30 175 O 17.934 1.40947 -1.02369 0
M  V30 176 C 15.066 2.69067 -2.09323 0
M  V30 177 H 16.259 1.03297 -2.81549 0
M  V30 178 H 13.812 0.502989 -1.47986 0
M  V30 179 H 14.547 3.01982 -1.18226 0
M  V30 180 H 14.332 2.62542 -2.91229 0
M  V30 181 H 15.822 3.44623 -2.35848 0
M  V30 182 N 16.2591 1.48442 0.529413 0
M  V30 183 C 17.1891 1.65902 1.64313 0
M  V30 184 C 18.1701 0.507897 1.6234 0
M  V30 185 O 19.3551 0.740503 1.79528 0
M  V30 186 C 16.4851 1.69911 3.02898 0
M  V30 187 C 15.4391 2.8453 3.19729 0
M  V30 188 C 14.7651 2.73629 4.59381 0
M  V30 189 C 16.0651 4.25821 3.02447 0
M  V30 190 H 17.7591 2.5914 1.49955 0
M  V30 191 H 15.3051 1.24709 0.719982 0
M  V30 192 H 17.2581 1.80715 3.80684 0
M  V30 193 H 15.9821 0.732524 3.18279 0
M  V30 194 H 14.6411 2.73283 2.44361 0
M  V30 195 H 14.2891 1.74938 4.71599 0
M  V30 196 H 13.9891 3.50541 4.71588 0
M  V30 197 H 15.5131 2.86401 5.39265 0
M  V30 198 H 16.9271 4.37898 3.70024 0
M  V30 199 H 15.3241 5.03735 3.26146 0
M  V30 200 H 16.3941 4.42244 1.98867 0
M  V30 201 N 17.7372 -0.778329 1.37039 0
M  V30 202 C 18.6672 -1.90546 1.34962 0
M  V30 203 C 19.6482 -1.68681 0.219274 0
M  V30 204 O 20.8332 -1.89634 0.418624 0
M  V30 205 C 17.9632 -3.27734 1.14925 0
M  V30 206 C 16.9172 -3.64147 2.24902 0
M  V30 207 C 16.2432 -4.99806 1.89996 0
M  V30 208 C 17.5432 -3.71579 3.67051 0
M  V30 209 H 19.2372 -1.92541 2.29277 0
M  V30 210 H 16.7832 -0.924948 1.10366 0
M  V30 211 H 18.7362 -4.06215 1.12104 0
M  V30 212 H 17.4602 -3.26154 0.170631 0
M  V30 213 H 16.1192 -2.8797 2.26868 0
M  V30 214 H 15.7672 -4.94759 0.906796 0
M  V30 215 H 15.4672 -5.25139 2.63634 0
M  V30 216 H 16.9912 -5.80694 1.88749 0
M  V30 217 H 18.4052 -4.40227 3.67251 0
M  V30 218 H 16.8022 -4.08405 4.39688 0
M  V30 219 H 17.8722 -2.72404 4.01154 0
M  V30 220 N 19.2153 -1.21501 -1.00376 0
M  V30 221 C 20.4433 -1.059 -1.77744 0
M  V30 222 C 20.8583 0.391125 -1.84704 0
M  V30 223 O 20.2153 1.27133 -1.30933 0
M  V30 224 C 20.2663 -1.65111 -3.21591 0
M  V30 225 O 19.9873 -3.0445 -3.15027 0
M  V30 226 C 21.4883 -1.54637 -4.15454 0
M  V30 227 H 18.7083 -0.371825 -0.558558 0
M  V30 228 H 21.2523 -1.60865 -1.26264 0
M  V30 229 H 19.4073 -1.14235 -3.70175 0
M  V30 230 H 19.8213 -3.3278 -4.0541 0
M  V30 231 H 21.2953 -2.00808 -5.14179 0
M  V30 232 H 21.7723 -0.501022 -4.36333 0
M  V30 233 H 22.3783 -2.04767 -3.72761 0
M  V30 234 N 20.6934 1.19889 -1.02296 0
M  V30 235 C 21.9214 1.9339 -0.735399 0
M  V30 236 C 22.3364 1.75148 0.704887 0
M  V30 237 O 21.6934 1.06954 1.47875 0
M  V30 238 C 21.7444 3.45313 -1.06962 0
M  V30 239 O 21.4654 3.62964 -2.45334 0
M  V30 240 C 22.9664 4.35948 -0.804021 0
M  V30 241 H 20.1864 0.61448 -0.269546 0
M  V30 242 H 22.7304 1.522 -1.36585 0
M  V30 243 H 20.8854 3.84359 -0.484455 0
M  V30 244 H 21.2994 4.56886 -2.57595 0
M  V30 245 H 22.7734 5.41174 -1.0879 0
M  V30 246 H 23.2504 4.3842 0.261691 0
M  V30 247 H 23.8564 4.02574 -1.37164 0
M  V30 248 N 22.1715 0.800033 1.35784 0
M  V30 249 C 23.4185 0.377342 1.98953 0
M  V30 250 C 23.7465 -1.05378 1.6348 0
M  V30 251 O 23.0015 -1.74459 0.886707 0
M  V30 252 C 23.3005 0.500276 3.53881 0
M  V30 253 C 22.9665 1.89375 4.09204 0
M  V30 254 C 21.6285 2.27499 4.24025 0
M  V30 255 C 23.9805 2.8057 4.39238 0
M  V30 256 C 21.3085 3.562 4.66195 0
M  V30 257 C 23.6605 4.0871 4.82844 0
M  V30 258 C 22.3245 4.46843 4.95871 0
M  V30 259 H 21.5945 0.138079 0.728021 0
M  V30 260 H 24.2415 1.01955 1.62103 0
M  V30 261 H 22.5465 -0.225405 3.91151 0
M  V30 262 H 24.2435 0.154097 4.00704 0
M  V30 263 H 20.8335 1.58753 3.98115 0
M  V30 264 H 25.0175 2.52367 4.27346 0
M  V30 265 H 20.2735 3.85602 4.74469 0
M  V30 266 H 24.4475 4.79481 5.05046 0
M  V30 267 H 22.0745 5.46623 5.28306 0
M  V30 268 N 23.6496 -1.47581 0.552962 0
M  V30 269 C 24.8776 -2.06875 0.0320556 0
M  V30 270 C 25.2926 -1.40625 -1.25976 0
M  V30 271 O 24.6496 -0.501349 -1.75479 0
M  V30 272 C 24.7006 -3.61092 -0.17167 0
M  V30 273 O 24.4216 -4.24858 1.06899 0
M  V30 274 C 25.9226 -4.37242 -0.730344 0
M  V30 275 H 23.1426 -0.669561 0.043915 0
M  V30 276 H 25.6866 -1.89646 0.765163 0
M  V30 277 H 23.8416 -3.7785 -0.854894 0
M  V30 278 H 24.2556 -5.17334 0.864059 0
M  V30 279 H 25.7296 -5.45842 -0.822203 0
M  V30 280 H 26.2066 -4.03235 -1.74064 0
M  V30 281 H 26.8126 -4.25219 -0.0829543 0
M  V30 282 N 25.1277 -0.289203 -1.54924 0
M  V30 283 C 26.0577 0.58549 -2.2604 0
M  V30 284 C 27.0387 1.14753 -1.25562 0
M  V30 285 O 28.2237 1.17906 -1.54311 0
M  V30 286 C 25.3537 1.76305 -2.99222 0
M  V30 287 C 24.3077 1.33191 -4.06748 0
M  V30 288 C 23.6337 2.5937 -4.6758 0
M  V30 289 C 24.9337 0.471775 -5.20165 0
M  V30 290 H 26.6277 -0.00763532 -2.99399 0
M  V30 291 H 24.1737 -0.00511229 -1.43999 0
M  V30 292 H 26.1267 2.38097 -3.47689 0
M  V30 293 H 24.8507 2.38223 -2.23422 0
M  V30 294 H 23.5097 0.737121 -3.59113 0
M  V30 295 H 23.1577 3.19576 -3.88433 0
M  V30 296 H 22.8577 2.31228 -5.40192 0
M  V30 297 H 24.3817 3.21985 -5.18804 0
M  V30 298 H 25.7957 0.995056 -5.64599 0
M  V30 299 H 24.1927 0.284639 -5.99425 0
M  V30 300 H 25.2627 -0.506041 -4.82252 0
M  V30 301 N 26.6058 1.57591 -0.0167156 0
M  V30 302 C 27.5688 2.08393 0.954204 0
M  V30 303 C 28.5688 0.996531 1.26198 0
M  V30 304 O 29.7588 1.25858 1.20438 0
M  V30 305 C 26.8908 2.5394 2.27436 0
M  V30 306 H 28.0838 2.95455 0.514451 0
M  V30 307 H 25.6368 1.54582 0.231089 0
M  V30 308 H 26.3718 1.70171 2.76066 0
M  V30 309 H 26.1568 3.33371 2.06412 0
M  V30 310 H 27.6468 2.93512 2.97053 0
M  V30 311 N 28.0839 -0.256276 1.55502 0
M  V30 312 C 29.3089 -1.00766 1.81276 0
M  V30 313 C 29.7339 -1.78524 0.59252 0
M  V30 314 O 29.0919 -1.75413 -0.45827 0
M  V30 315 C 29.1399 -1.92869 3.04687 0
M  V30 316 O 28.2439 -3.019 2.80945 0
M  V30 317 H 27.5849 -0.287224 0.598664 0
M  V30 318 H 30.1149 -0.280109 2.02674 0
M  V30 319 H 30.1249 -2.34511 3.33869 0
M  V30 320 H 28.7999 -1.35689 3.93143 0
M  V30 321 H 27.3769 -2.64454 2.62904 0
M  V30 322 N 29.562 -1.4872 -0.521534 0
M  V30 323 C 30.472 -1.66569 -1.65203 0
M  V30 324 C 31.488 -0.548197 -1.65139 0
M  V30 325 O 32.664 -0.820339 -1.83936 0
M  V30 326 C 29.729 -1.70917 -3.01642 0
M  V30 327 C 28.79 -2.94356 -3.12495 0
M  V30 328 C 28.023 -2.98487 -4.42426 0
M  V30 329 O 28.246 -2.10786 -5.30024 0
M  V30 330 O 27.18 -3.90746 -4.57822 0
M  V30 331 H 31.006 -2.62298 -1.5308 0
M  V30 332 H 28.591 -1.3222 -0.695565 0
M  V30 333 H 30.473 -1.7625 -3.82771 0
M  V30 334 H 29.148 -0.783633 -3.14071 0
M  V30 335 H 28.055 -2.94552 -2.3063 0
M  V30 336 H 29.388 -3.86322 -3.04986 0
M  V30 337 N 31.0401 0.771051 -1.3745 0
M  V30 338 C 32.2681 1.56015 -1.35893 0
M  V30 339 C 32.6831 1.88718 0.0555523 0
M  V30 340 O 32.0401 1.51502 1.01752 0
M  V30 341 C 32.0911 2.87001 -2.19801 0
M  V30 342 O 31.8121 2.557 -3.55738 0
M  V30 343 C 33.3131 3.81228 -2.26231 0
M  V30 344 H 30.5331 0.483317 -0.465453 0
M  V30 345 H 33.0771 0.955611 -1.80799 0
M  V30 346 H 31.2321 3.43877 -1.78402 0
M  V30 347 H 31.6461 3.39584 -3.99729 0
M  V30 348 H 33.1201 4.70139 -2.89263 0
M  V30 349 H 33.5971 4.20409 -1.27093 0
M  V30 350 H 34.2031 3.30281 -2.67945 0
M  V30 351 N 32.5182 1.22032 0.997298 0
M  V30 352 C 33.4812 0.987909 2.06816 0
M  V30 353 C 34.4812 -0.0440084 1.6074 0
M  V30 354 O 35.6712 0.194053 1.73116 0
M  V30 355 C 32.8032 0.49132 3.37341 0
M  V30 356 H 33.9962 1.93803 2.28868 0
M  V30 357 H 31.5492 1.03838 1.16822 0
M  V30 358 H 32.2842 -0.463364 3.20973 0
M  V30 359 H 32.0692 1.23575 3.72118 0
M  V30 360 H 33.5592 0.348824 4.16141 0
M  V30 361 N 33.9963 -1.19345 1.0293 0
M  V30 362 C 34.9263 -2.2481 0.631105 0
M  V30 363 C 35.9073 -1.66245 -0.360104 0
M  V30 364 O 37.0923 -1.92677 -0.242726 0
M  V30 365 C 34.2223 -3.47295 -0.0184607 0
M  V30 366 C 33.1763 -4.18536 0.895073 0
M  V30 367 C 32.5023 -5.34586 0.110592 0
M  V30 368 C 33.8023 -4.73287 2.209 0
M  V30 369 H 35.4963 -2.58372 1.51275 0
M  V30 370 H 33.0423 -1.24194 0.728818 0
M  V30 371 H 34.9953 -4.20268 -0.308675 0
M  V30 372 H 33.7193 -3.12933 -0.934907 0
M  V30 373 H 32.3783 -3.47446 1.16949 0
M  V30 374 H 32.0263 -4.96469 -0.807902 0
M  V30 375 H 31.7263 -5.83183 0.719087 0
M  V30 376 H 33.2503 -6.10355 -0.172871 0
M  V30 377 H 34.6643 -5.38013 1.98028 0
M  V30 378 H 33.0613 -5.32373 2.76946 0
M  V30 379 H 34.1313 -3.91331 2.86336 0
M  V30 380 N 35.4744 -0.807222 -1.35358 0
M  V30 381 C 36.4374 -0.223665 -2.28106 0
M  V30 382 C 37.4374 0.589354 -1.4961 0
M  V30 383 O 38.6274 0.407745 -1.69361 0
M  V30 384 C 35.7594 0.688149 -3.33882 0
M  V30 385 H 36.9524 -1.04169 -2.81227 0
M  V30 386 H 34.5054 -0.577921 -1.45223 0
M  V30 387 H 35.2404 1.52984 -2.85948 0
M  V30 388 H 35.0254 0.10687 -3.91954 0
M  V30 389 H 36.5154 1.09075 -4.03104 0
M  V30 390 N 36.9525 1.47285 -0.560781 0
M  V30 391 C 38.1825 2.06555 -0.0429638 0
M  V30 392 C 38.5905 1.41339 1.25777 0
M  V30 393 O 37.9335 0.505182 1.76617 0
M  V30 394 C 37.9955 3.58827 0.219887 0
M  V30 395 C 37.6595 4.46105 -0.991944 0
M  V30 396 C 38.6565 4.84 -1.89843 0
M  V30 397 C 36.3415 4.87567 -1.20762 0
M  V30 398 C 38.3355 5.6216 -3.00425 0
M  V30 399 C 36.0225 5.65491 -2.31653 0
M  V30 400 C 37.0205 6.02699 -3.21315 0
M  V30 401 O 36.7085 6.79052 -4.30283 0
M  V30 402 H 36.4405 0.674537 -0.0444468 0
M  V30 403 H 38.9945 1.90225 -0.774818 0
M  V30 404 H 37.2245 3.73383 1.00609 0
M  V30 405 H 38.9135 4.00103 0.683522 0
M  V30 406 H 39.6795 4.52564 -1.74387 0
M  V30 407 H 35.5585 4.5807 -0.518893 0
M  V30 408 H 39.1025 5.9112 -3.70436 0
M  V30 409 H 34.9995 5.9634 -2.47081 0
M  V30 410 H 35.7675 6.9745 -4.28376 0
M  V30 411 N 38.4306 0.297415 1.54768 0
M  V30 412 C 39.3406 -0.58983 2.27064 0
M  V30 413 C 40.3566 -1.15144 1.30453 0
M  V30 414 O 41.5326 -1.17699 1.63428 0
M  V30 415 C 38.5976 -1.74714 2.9946 0
M  V30 416 C 37.6586 -1.21997 4.11601 0
M  V30 417 C 36.8916 -2.32212 4.80535 0
M  V30 418 O 37.1146 -3.52036 4.48806 0
M  V30 419 O 36.0486 -1.99106 5.68014 0
M  V30 420 H 39.8746 -0.00348199 3.037 0
M  V30 421 H 37.4596 0.0640035 1.49263 0
M  V30 422 H 39.3416 -2.42147 3.44881 0
M  V30 423 H 38.0166 -2.32016 2.25722 0
M  V30 424 H 36.9236 -0.511458 3.70587 0
M  V30 425 H 38.2566 -0.692419 4.87305 0
M  V30 426 N 39.9087 -1.5758 0.0250728 0
M  V30 427 C 40.8407 -2.06869 -0.986796 0
M  V30 428 C 41.8537 -0.991332 -1.29137 0
M  V30 429 O 43.0427 -1.26761 -1.25674 0
M  V30 430 C 40.1427 -2.47486 -2.31525 0
M  V30 431 C 39.3157 -3.78253 -2.19643 0
M  V30 432 C 38.3747 -4.05464 -3.35388 0
M  V30 433 O 37.4007 -4.75774 -3.12454 0
M  V30 434 N 38.6027 -3.55321 -4.59051 0
M  V30 435 H 41.3677 -2.94302 -0.566276 0
M  V30 436 H 38.9287 -1.6109 -0.161776 0
M  V30 437 H 40.9207 -2.62785 -3.07776 0
M  V30 438 H 39.4907 -1.65441 -2.65232 0
M  V30 439 H 38.7107 -3.7279 -1.28144 0
M  V30 440 H 39.9987 -4.63936 -2.08903 0
M  V30 441 H 39.3967 -2.98431 -4.80578 0
M  V30 442 H 37.9537 -3.75905 -5.32483 0
M  V30 443 N 41.3868 0.248026 -1.55636 0
M  V30 444 C 42.6638 0.998988 -1.68165 0
M  V30 445 C 43.0438 2.03409 -0.564621 0
M  V30 446 O 42.3918 2.24378 0.432076 0
M  V30 447 C 42.6018 1.63334 -3.0842 0
M  V30 448 C 43.9498 2.13562 -3.66983 0
M  V30 449 O 44.9738 1.73277 -3.11213 0
M  V30 450 O 43.8328 2.87526 -4.64749 0
M  V30 451 H 40.9268 0.464933 -0.683935 0
M  V30 452 H 43.4728 0.241902 -1.67967 0
M  V30 453 H 42.2448 0.884583 -3.8117 0
M  V30 454 H 41.8678 2.45666 -3.12624 0
M  V30 455 N 42.8649 1.48995 0.513639 0
M  V30 456 C 43.8119 1.6473 1.61656 0
M  V30 457 C 44.7819 0.488984 1.58739 0
M  V30 458 O 45.9669 0.714478 1.76918 0
M  V30 459 C 43.1069 1.7082 2.99858 0
M  V30 460 C 42.2199 2.9787 3.12885 0
M  V30 461 C 41.3549 2.95017 4.41744 0
M  V30 462 C 40.3939 4.16702 4.48359 0
M  V30 463 N 39.5309 4.11832 5.68629 0
M  V30 464 H 44.3709 2.58909 1.47547 0
M  V30 465 H 41.9079 1.28382 0.71808 0
M  V30 466 H 43.8659 1.72331 3.79944 0
M  V30 467 H 42.4959 0.801181 3.12699 0
M  V30 468 H 41.5479 3.06029 2.25944 0
M  V30 469 H 42.8599 3.8786 3.13633 0
M  V30 470 H 42.0139 2.95021 5.30139 0
M  V30 471 H 40.7529 2.02784 4.43542 0
M  V30 472 H 39.7579 4.16955 3.58369 0
M  V30 473 H 40.9829 5.10113 4.48287 0
M  V30 474 H 38.9289 3.22428 5.71293 0
M  V30 475 H 38.8459 4.95543 5.7094 0
M  V30 476 H 40.1139 4.1592 6.59266 0
M  V30 477 N 44.343 -0.763751 1.37857 0
M  V30 478 C 45.571 -1.55293 1.36718 0
M  V30 479 C 45.986 -1.88745 -0.0455434 0
M  V30 480 O 45.343 -1.52039 -1.00947 0
M  V30 481 C 45.394 -2.85831 2.2132 0
M  V30 482 O 45.115 -2.5381 3.57089 0
M  V30 483 C 46.616 -3.80023 2.28249 0
M  V30 484 H 43.836 -0.480841 0.468009 0
M  V30 485 H 46.38 -0.946009 1.81303 0
M  V30 486 H 44.535 -3.42926 1.80223 0
M  V30 487 H 44.949 -3.37459 4.01524 0
M  V30 488 H 46.423 -4.68599 2.91752 0
M  V30 489 H 46.9 -4.1973 1.2932 0
M  V30 490 H 47.506 -3.28855 2.69693 0
M  V30 491 N 45.8211 -1.22559 -0.990812 0
M  V30 492 C 47.0511 -1.07623 -1.76355 0
M  V30 493 C 47.4591 0.37601 -1.85426 0
M  V30 494 O 46.8021 1.27228 -1.32509 0
M  V30 495 C 46.8641 -1.61507 -3.21179 0
M  V30 496 C 46.5281 -3.10146 -3.35646 0
M  V30 497 C 47.5251 -4.07553 -3.22796 0
M  V30 498 C 45.2101 -3.49644 -3.60631 0
M  V30 499 C 47.2041 -5.42442 -3.34716 0
M  V30 500 C 44.8911 -4.84682 -3.72192 0
M  V30 501 C 45.8891 -5.8089 -3.59243 0
M  V30 502 O 45.5771 -7.13476 -3.70415 0
M  V30 503 H 45.3091 -0.377745 -0.560611 0
M  V30 504 H 47.8631 -1.62658 -1.25425 0
M  V30 505 H 46.0931 -1.00881 -3.73309 0
M  V30 506 H 47.7821 -1.42202 -3.80175 0
M  V30 507 H 48.5481 -3.78381 -3.03403 0
M  V30 508 H 44.4271 -2.75282 -3.69785 0
M  V30 509 H 47.9711 -6.17518 -3.24526 0
M  V30 510 H 43.8681 -5.13534 -3.91092 0
M  V30 511 H 44.6361 -7.21083 -3.87275 0
M  V30 512 N 47.2992 1.18797 -1.03562 0
M  V30 513 C 48.2462 2.22253 -0.622259 0
M  V30 514 C 49.2162 1.61987 0.36736 0
M  V30 515 O 50.4012 1.88986 0.262492 0
M  V30 516 C 47.5412 3.45097 0.0138462 0
M  V30 517 C 46.6542 4.19722 -1.02263 0
M  V30 518 C 45.7892 5.30009 -0.355573 0
M  V30 519 C 44.8282 5.96399 -1.37749 0
M  V30 520 N 43.9652 6.98234 -0.735766 0
M  V30 521 H 48.8052 2.56968 -1.50903 0
M  V30 522 H 46.3422 1.26245 -0.755017 0
M  V30 523 H 48.3002 4.15279 0.399948 0
M  V30 524 H 46.9302 3.11018 0.864158 0
M  V30 525 H 45.9822 3.48418 -1.52673 0
M  V30 526 H 47.2942 4.65227 -1.79903 0
M  V30 527 H 46.4482 6.0664 0.0850095 0
M  V30 528 H 45.1872 4.85592 0.452967 0
M  V30 529 H 44.1922 5.18512 -1.82826 0
M  V30 530 H 45.4172 6.42899 -2.18764 0
M  V30 531 H 43.3632 6.55979 0.0525597 0
M  V30 532 H 43.2802 7.41965 -1.44995 0
M  V30 533 H 44.5482 7.78845 -0.31941 0
M  V30 534 N 48.7773 0.814389 1.34928 0
M  V30 535 C 50.0263 0.394871 1.97797 0
M  V30 536 C 50.3393 -1.04555 1.65311 0
M  V30 537 O 51.5453 -1.56856 2.21604 0
M  V30 538 C 50.0013 0.655103 3.53888 0
M  V30 539 C 49.6093 2.10858 3.95276 0
M  V30 540 C 51.3533 0.301329 4.23429 0
M  V30 541 C 49.2603 2.31415 5.44244 0
M  V30 542 H 48.1903 0.143913 0.740139 0
M  V30 543 H 50.8413 0.999544 1.53888 0
M  V30 544 H 49.2233 -0.0196253 3.95995 0
M  V30 545 H 50.3973 2.82176 3.64298 0
M  V30 546 H 48.7123 2.42297 3.38646 0
M  V30 547 H 51.3093 0.432869 5.32945 0
M  V30 548 H 51.6523 -0.75331 4.09428 0
M  V30 549 H 52.1853 0.930288 3.86769 0
M  V30 550 H 48.9243 3.35353 5.63222 0
M  V30 551 H 48.4443 1.6463 5.76764 0
M  V30 552 H 50.1233 2.13352 6.10811 0
M  V30 553 N 50.2554 -1.46986 0.568584 0
M  V30 554 C 51.4834 -2.0683 0.0539956 0
M  V30 555 C 51.8984 -1.41953 -1.24478 0
M  V30 556 O 51.2554 -0.519933 -1.74937 0
M  V30 557 C 51.3064 -3.61254 -0.133362 0
M  V30 558 O 51.0274 -4.237 1.11399 0
M  V30 559 C 52.5284 -4.37992 -0.683927 0
M  V30 560 H 49.7484 -0.669058 0.0510141 0
M  V30 561 H 52.2924 -1.88824 0.785234 0
M  V30 562 H 50.4474 -3.78735 -0.81477 0
M  V30 563 H 50.8614 -5.16388 0.91888 0
M  V30 564 H 52.3354 -5.46684 -0.764263 0
M  V30 565 H 52.8124 -4.05058 -1.69778 0
M  V30 566 H 53.4184 -4.25283 -0.0378494 0
M  V30 567 N 51.7335 -0.305618 -1.54608 0
M  V30 568 C 52.9795 0.302746 -2.00528 0
M  V30 569 C 53.3125 1.53184 -1.19367 0
M  V30 570 O 52.5875 1.92598 -0.271321 0
M  V30 571 C 52.8705 0.654756 -3.54097 0
M  V30 572 C 52.7235 -0.583793 -4.45995 0
M  V30 573 C 54.0425 1.47947 -4.14487 0
M  V30 574 H 51.1615 0.108564 -0.72896 0
M  V30 575 H 53.8035 -0.418634 -1.85331 0
M  V30 576 H 51.9535 1.26935 -3.67178 0
M  V30 577 H 53.6255 -1.22224 -4.44814 0
M  V30 578 H 51.8685 -1.21615 -4.16404 0
M  V30 579 H 52.5395 -0.293287 -5.5122 0
M  V30 580 H 55.0155 0.96013 -4.04871 0
M  V30 581 H 53.8915 1.69454 -5.22088 0
M  V30 582 H 54.1525 2.47011 -3.66658 0
M  V30 583 N 53.2116 1.57565 -0.0334293 0
M  V30 584 C 54.1416 2.13511 0.945265 0
M  V30 585 C 55.1226 1.05231 1.33643 0
M  V30 586 O 56.3076 1.33084 1.41429 0
M  V30 587 C 53.4376 2.6657 2.22616 0
M  V30 588 C 52.3916 3.79676 1.97561 0
M  V30 589 C 51.7176 4.1918 3.31952 0
M  V30 590 C 53.0176 5.0557 1.31135 0
M  V30 591 H 54.7116 2.95538 0.479325 0
M  V30 592 H 52.2576 1.42166 0.229115 0
M  V30 593 H 54.2106 3.04344 2.91466 0
M  V30 594 H 52.9346 1.8171 2.71384 0
M  V30 595 H 51.5936 3.42347 1.31127 0
M  V30 596 H 51.2416 3.31296 3.78487 0
M  V30 597 H 50.9416 4.95402 3.15992 0
M  V30 598 H 52.4656 4.59541 4.02063 0
M  V30 599 H 53.8796 5.40903 1.89992 0
M  V30 600 H 52.2766 5.86818 1.25559 0
M  V30 601 H 53.3466 4.84062 0.284894 0
M  V30 602 N 54.6897 -0.239769 1.55765 0
M  V30 603 C 55.6397 -1.30002 1.87306 0
M  V30 604 C 56.6237 -1.43156 0.73452 0
M  V30 605 O 57.8157 -1.46277 0.99659 0
M  V30 606 C 54.9447 -2.65409 2.17745 0
M  V30 607 C 54.0307 -2.56231 3.37945 0
M  V30 608 N 54.4217 -2.16689 4.57033 0
M  V30 609 C 52.7197 -2.87229 3.41197 0
M  V30 610 C 53.4207 -2.18318 5.39177 0
M  V30 611 N 52.3967 -2.58098 4.78421 0
M  V30 612 H 56.1987 -0.984912 2.76906 0
M  V30 613 H 53.7127 -0.448381 1.56087 0
M  V30 614 H 55.7097 -3.41934 2.38509 0
M  V30 615 H 54.3697 -2.97781 1.29448 0
M  V30 616 H 55.3807 -1.88116 4.82528 0
M  V30 617 H 52.0577 -3.24094 2.63191 0
M  V30 618 H 53.4477 -1.90025 6.44469 0
M  V30 619 N 56.1678 -1.49265 -0.50573 0
M  V30 620 C 57.3958 -1.62215 -1.28429 0
M  V30 621 C 57.8108 -0.291697 -1.86533 0
M  V30 622 O 57.1678 0.722233 -1.67601 0
M  V30 623 C 57.2188 -2.68735 -2.41793 0
M  V30 624 O 56.9398 -3.96619 -1.86078 0
M  V30 625 C 58.4408 -2.92346 -3.3324 0
M  V30 626 H 55.6608 -0.546239 -0.389697 0
M  V30 627 H 58.2048 -1.95265 -0.607609 0
M  V30 628 H 56.3598 -2.38476 -3.053 0
M  V30 629 H 56.7738 -4.55256 -2.60465 0
M  V30 630 H 58.2478 -3.70623 -4.09075 0
M  V30 631 H 58.7248 -2.02081 -3.89948 0
M  V30 632 H 59.3308 -3.24003 -2.75503 0
M  V30 633 N 57.6459 0.756429 -1.3826 0
M  V30 634 C 58.5939 1.89149 -1.35372 0
M  V30 635 C 59.5879 1.67691 -0.24004 0
M  V30 636 O 60.7939 1.75294 -0.408919 0
M  V30 637 H 57.1689 0.622271 -0.422236 0
M  V30 638 H 59.1399 1.88701 -2.31159 0
M  V30 639 C 57.8889 3.26599 -1.19284 0
M  V30 640 H 57.2119 3.43695 -2.0424 0
M  V30 641 H 58.6519 4.06274 -1.21316 0
M  V30 642 C 57.1109 3.3675 0.100454 0
M  V30 643 O 57.6409 3.86951 1.07851 0
M  V30 644 N 55.8469 2.90179 0.15633 0
M  V30 645 H 55.3939 2.49517 -0.640253 0
M  V30 646 H 55.3519 2.97352 1.02123 0
M  V30 647 N 59.124 1.23083 0.984299 0
M  V30 648 C 60.401 0.9689 1.69917 0
M  V30 649 C 60.781 -0.513604 2.04757 0
M  V30 650 O 60.129 -1.48383 1.73767 0
M  V30 651 C 60.339 1.87518 2.94343 0
M  V30 652 C 61.687 2.13636 3.6694 0
M  V30 653 O 62.711 1.85036 3.04368 0
M  V30 654 O 61.57 2.62119 4.79537 0
M  V30 655 H 58.664 0.365095 0.742048 0
M  V30 656 H 61.21 1.34107 1.03987 0
M  V30 657 H 59.982 2.87756 2.65164 0
M  V30 658 H 59.605 1.50514 3.6801 0
M  V30 659 N 60.6021 -1.18246 1.0419 0
M  V30 660 C 61.5521 -2.19843 0.604392 0
M  V30 661 C 62.5361 -1.56962 -0.353814 0
M  V30 662 O 63.7281 -1.76156 -0.17267 0
M  V30 663 C 60.8571 -3.43287 -0.0298975 0
M  V30 664 C 59.9431 -4.13288 0.951531 0
M  V30 665 N 60.3341 -4.59271 2.11906 0
M  V30 666 C 58.6321 -4.39165 0.7778 0
M  V30 667 C 59.3331 -5.13173 2.73912 0
M  V30 668 N 58.3091 -5.04763 2.01779 0
M  V30 669 H 62.1111 -2.53089 1.4941 0
M  V30 670 H 59.6251 -1.34465 0.910658 0
M  V30 671 H 61.6221 -4.15334 -0.361037 0
M  V30 672 H 60.2821 -3.11537 -0.915127 0
M  V30 673 H 61.2931 -4.5368 2.49789 0
M  V30 674 H 57.9701 -4.17461 -0.0572331 0
M  V30 675 H 59.3601 -5.58947 3.72864 0
M  V30 676 N 62.0802 -0.821533 -1.34494 0
M  V30 677 C 63.0302 -0.214793 -2.26986 0
M  V30 678 C 64.0142 0.620125 -1.4847 0
M  V30 679 O 65.2062 0.474933 -1.70509 0
M  V30 680 C 62.3352 0.623566 -3.37589 0
M  V30 681 C 61.4212 -0.221904 -4.23519 0
M  V30 682 N 61.8122 -1.29223 -4.89014 0
M  V30 683 C 60.1102 -0.00600922 -4.46 0
M  V30 684 C 60.8112 -1.80965 -5.52835 0
M  V30 685 N 59.7872 -1.11376 -5.32068 0
M  V30 686 H 63.5892 -1.03354 -2.75128 0
M  V30 687 H 61.1032 -0.6642 -1.48196 0
M  V30 688 H 63.1002 1.0744 -4.02818 0
M  V30 689 H 61.7602 1.44049 -2.90998 0
M  V30 690 H 62.7712 -1.67502 -4.90065 0
M  V30 691 H 59.4482 0.77886 -4.10171 0
M  V30 692 H 60.8382 -2.70502 -6.15043 0
M  V30 693 N 63.5583 1.46682 -0.576371 0
M  V30 694 C 64.8063 2.02013 -0.0594163 0
M  V30 695 C 65.1273 1.45101 1.30271 0
M  V30 696 O 64.3973 0.633317 1.8538 0
M  V30 697 H 62.9773 0.746759 -0.0189745 0
M  V30 698 H 65.6393 1.79862 -0.750717 0
M  V30 699 H 64.7353 3.12097 0.014345 0
M  V30 700 N 65.0364 0.313813 1.54444 0
M  V30 701 C 65.9864 -0.571898 2.20711 0
M  V30 702 C 66.9704 -1.08913 1.18435 0
M  V30 703 O 68.1624 -1.02777 1.44104 0
M  V30 704 C 65.2914 -1.7371 2.96108 0
M  V30 705 C 64.3774 -1.23522 4.05713 0
M  V30 706 N 64.7684 -0.452288 5.03774 0
M  V30 707 C 63.0664 -1.51482 4.19487 0
M  V30 708 C 63.7674 -0.183438 5.81411 0
M  V30 709 N 62.7434 -0.766845 5.38164 0
M  V30 710 H 66.5454 0.0336802 2.93881 0
M  V30 711 H 64.0594 0.119192 1.61962 0
M  V30 712 H 66.0564 -2.38329 3.4206 0
M  V30 713 H 64.7164 -2.34625 2.24458 0
M  V30 714 H 65.7274 -0.0960131 5.17811 0
M  V30 715 H 62.4044 -2.13053 3.59047 0
M  V30 716 H 63.7944 0.446216 6.70417 0
M  V30 717 N 66.5145 -1.57545 0.0417849 0
M  V30 718 C 67.7615 -1.92317 -0.634082 0
M  V30 719 C 68.0895 -0.919334 -1.71402 0
M  V30 720 O 67.3445 0.0698253 -1.95575 0
M  V30 721 C 67.6435 -3.33794 -1.27735 0
M  V30 722 C 67.3095 -4.49716 -0.326543 0
M  V30 723 C 65.9715 -4.81156 -0.0648814 0
M  V30 724 C 68.3235 -5.20182 0.325623 0
M  V30 725 C 65.6515 -5.80414 0.856539 0
M  V30 726 C 68.0035 -6.20424 1.23518 0
M  V30 727 C 66.6675 -6.50298 1.5056 0
M  V30 728 H 65.9375 -0.703736 -0.232027 0
M  V30 729 H 68.5845 -1.91205 0.106259 0
M  V30 730 H 66.8895 -3.31228 -2.09274 0
M  V30 731 H 68.5865 -3.57975 -1.80707 0
M  V30 732 H 65.1765 -4.25176 -0.540665 0
M  V30 733 H 69.3605 -4.96112 0.136546 0
M  V30 734 H 64.6165 -6.019 1.07363 0
M  V30 735 H 68.7905 -6.74141 1.74664 0
M  V30 736 H 66.4175 -7.27025 2.22123 0
M  V30 737 N 67.9926 0.231505 -1.5589 0
M  V30 738 C 69.2386 0.954429 -1.79617 0
M  V30 739 C 69.5936 1.82367 -0.613199 0
M  V30 740 O 68.8866 1.87524 0.393094 0
M  V30 741 C 69.0806 1.83577 -3.0665 0
M  V30 742 C 68.9096 1.05334 -4.3719 0
M  V30 743 C 67.6796 0.75225 -4.99669 0
M  V30 744 C 69.8776 0.423444 -5.12554 0
M  V30 745 N 67.8596 -0.052627 -6.13877 0
M  V30 746 C 69.2306 -0.245287 -6.19515 0
M  V30 747 C 71.2856 0.335466 -4.96769 0
M  V30 748 C 69.9886 -0.993566 -7.12405 0
M  V30 749 C 72.0146 -0.399321 -5.9005 0
M  V30 750 C 71.3766 -1.05663 -6.9643 0
M  V30 751 H 67.4756 0.329846 -0.709031 0
M  V30 752 H 70.0596 0.226172 -1.93382 0
M  V30 753 H 68.2306 2.53592 -2.94186 0
M  V30 754 H 69.9626 2.49541 -3.18608 0
M  V30 755 H 66.7176 1.06783 -4.61405 0
M  V30 756 H 67.1416 -0.443609 -6.75545 0
M  V30 757 H 71.7836 0.829311 -4.14587 0
M  V30 758 H 69.5016 -1.49896 -7.94076 0
M  V30 759 H 73.0876 -0.468265 -5.79913 0
M  V30 760 H 71.9676 -1.61612 -7.67366 0
M  V30 761 N 69.4707 1.49531 0.497807 0
M  V30 762 C 70.8867 1.36365 0.829266 0
M  V30 763 C 71.0867 0.399184 1.97506 0
M  V30 764 O 70.1427 -0.167977 2.51941 0
M  V30 765 C 71.4557 2.77153 1.16647 0
M  V30 766 C 73.0037 2.85877 1.27449 0
M  V30 767 C 73.4787 4.2744 1.64497 0
M  V30 768 N 74.9697 4.30265 1.7154 0
M  V30 769 C 75.7047 5.3677 2.01656 0
M  V30 770 N 75.2007 6.53516 2.29976 0
M  V30 771 N 76.9937 5.24189 2.02934 0
M  V30 772 H 69.1447 2.10831 -0.257703 0
M  V30 773 H 71.4077 0.946534 -0.0527091 0
M  V30 774 H 71.1137 3.49442 0.397872 0
M  V30 775 H 70.9877 3.12722 2.10915 0
M  V30 776 H 73.3747 2.13824 2.0338 0
M  V30 777 H 73.4557 2.53887 0.312244 0
M  V30 778 H 73.0997 5.00021 0.891151 0
M  V30 779 H 73.0297 4.56896 2.61827 0
M  V30 780 H 75.5207 3.4607 1.51802 0
M  V30 781 H 75.8337 7.30506 2.52153 0
M  V30 782 H 74.1787 6.56737 2.27425 0
M  V30 783 H 77.3697 4.31988 1.80289 0
M  V30 784 H 77.5427 6.07286 2.26071 0
M  V30 785 N 70.9488 -0.749086 1.3866 0
M  V30 786 C 71.8968 -1.88428 1.36373 0
M  V30 787 C 72.8908 -1.67561 0.248929 0
M  V30 788 O 74.0968 -1.75074 0.41821 0
M  V30 789 H 70.4718 -0.620023 0.42553 0
M  V30 790 H 72.4428 -1.87473 2.32156 0
M  V30 791 C 71.1918 -3.25961 1.21014 0
M  V30 792 H 70.5148 -3.42607 2.06059 0
M  V30 793 H 71.9548 -4.05625 1.23469 0
M  V30 794 C 70.4138 -3.36799 -0.0825941 0
M  V30 795 O 70.9438 -3.87517 -1.05797 0
M  V30 796 N 69.1498 -2.90258 -0.140939 0
M  V30 797 H 68.6968 -2.49174 0.653477 0
M  V30 798 H 68.6548 -2.97889 -1.00545 0
M  V30 799 N 72.4269 -1.23603 -0.977757 0
M  V30 800 C 73.3369 -1.03632 -2.1047 0
M  V30 801 C 74.3529 0.0199435 -1.73989 0
M  V30 802 O 75.5289 -0.176076 -2.00629 0
M  V30 803 C 72.5939 -0.63276 -3.40877 0
M  V30 804 C 71.6549 -1.76437 -3.91367 0
M  V30 805 C 70.8879 -1.37997 -5.15551 0
M  V30 806 O 71.1109 -0.265357 -5.69782 0
M  V30 807 O 70.0449 -2.20201 -5.60174 0
M  V30 808 H 73.8709 -1.98086 -2.30208 0
M  V30 809 H 71.4559 -1.02332 -1.08851 0
M  V30 810 H 73.3379 -0.418761 -4.19314 0
M  V30 811 H 72.0129 0.282754 -3.22463 0
M  V30 812 H 70.9199 -2.03304 -3.14036 0
M  V30 813 H 72.2529 -2.6583 -4.14241 0
M  V30 814 N 73.905 1.17692 -1.04816 0
M  V30 815 C 75.135 1.91508 -0.775128 0
M  V30 816 C 75.543 1.76844 0.67253 0
M  V30 817 O 74.886 1.10057 1.47082 0
M  V30 818 C 74.948 3.43167 -1.0713 0
M  V30 819 C 74.612 3.81612 -2.51438 0
M  V30 820 C 75.609 3.84772 -3.49638 0
M  V30 821 C 73.294 4.12687 -2.86348 0
M  V30 822 C 75.288 4.18469 -4.80794 0
M  V30 823 C 72.975 4.46053 -4.17708 0
M  V30 824 C 73.973 4.48921 -5.14741 0
M  V30 825 O 73.661 4.81504 -6.43746 0
M  V30 826 H 73.393 0.614575 -0.281555 0
M  V30 827 H 75.947 1.50206 -1.40098 0
M  V30 828 H 74.177 3.84745 -0.388342 0
M  V30 829 H 75.866 3.98239 -0.784883 0
M  V30 830 H 76.632 3.60893 -3.24008 0
M  V30 831 H 72.511 4.09627 -2.11486 0
M  V30 832 H 76.055 4.20623 -5.56527 0
M  V30 833 H 71.952 4.69393 -4.43103 0
M  V30 834 H 72.72 4.99377 -6.4851 0
M  V30 835 N 75.3831 0.828654 1.34056 0
M  V30 836 C 76.6311 0.41863 1.97717 0
M  V30 837 C 76.9521 -1.02314 1.66002 0
M  V30 838 O 76.2221 -1.71119 0.953683 0
M  V30 839 H 74.8021 0.151809 0.731412 0
M  V30 840 H 77.4641 1.05936 1.63596 0
M  V30 841 H 76.5601 0.542318 3.07352 0
M  V30 842 N 76.8612 -1.46375 0.584142 0
M  V30 843 C 77.7712 -2.34115 -0.150728 0
M  V30 844 C 78.7872 -1.49838 -0.884567 0
M  V30 845 O 79.9632 -1.82704 -0.847429 0
M  V30 846 C 77.0282 -3.2705 -1.15062 0
M  V30 847 C 76.0892 -4.27228 -0.421293 0
M  V30 848 C 75.3222 -5.15722 -1.37355 0
M  V30 849 O 75.5452 -5.07176 -2.61014 0
M  V30 850 O 74.4792 -5.95383 -0.883355 0
M  V30 851 H 78.3052 -2.98309 0.569708 0
M  V30 852 H 75.8902 -1.45373 0.344535 0
M  V30 853 H 77.7722 -3.84381 -1.72712 0
M  V30 854 H 76.4472 -2.65451 -1.8525 0
M  V30 855 H 75.3542 -3.7358 0.197085 0
M  V30 856 H 76.6872 -4.91616 0.239641 0
M  V30 857 N 78.3393 -0.321999 -1.54275 0
M  V30 858 C 79.5693 0.282642 -2.04658 0
M  V30 859 C 79.9773 1.46453 -1.19784 0
M  V30 860 O 79.3203 1.82367 -0.220932 0
M  V30 861 C 79.3823 0.781857 -3.50895 0
M  V30 862 C 79.0463 -0.277517 -4.56157 0
M  V30 863 C 80.0433 -1.11307 -5.07845 0
M  V30 864 C 77.7283 -0.425256 -5.00497 0
M  V30 865 C 79.7223 -2.08211 -6.02434 0
M  V30 866 C 77.4093 -1.39771 -5.94901 0
M  V30 867 C 78.4073 -2.2246 -6.45756 0
M  V30 868 O 78.0953 -3.18054 -7.38307 0
M  V30 869 H 77.8273 0.0622636 -0.673126 0
M  V30 870 H 80.3813 -0.465792 -2.00049 0
M  V30 871 H 78.6113 1.58118 -3.52896 0
M  V30 872 H 80.3003 1.30467 -3.84361 0
M  V30 873 H 81.0663 -1.00991 -4.74369 0
M  V30 874 H 76.9453 0.20847 -4.60528 0
M  V30 875 H 80.4893 -2.72791 -6.42052 0
M  V30 876 H 76.3863 -1.50152 -6.27794 0
M  V30 877 H 77.1543 -3.13275 -7.56175 0
M  V30 878 N 79.8174 1.5752 -0.0501392 0
M  V30 879 C 81.0654 1.9227 0.622642 0
M  V30 880 C 81.3864 0.929083 1.71444 0
M  V30 881 O 80.6564 -0.0262186 1.95882 0
M  V30 882 H 79.2364 0.709739 0.232981 0
M  V30 883 H 81.8984 1.94628 -0.102898 0
M  V30 884 H 80.9944 2.93479 1.06191 0
M  V30 885 N 81.2955 -0.223234 1.56011 0
M  V30 886 C 82.2255 -1.27988 1.95298 0
M  V30 887 C 83.2065 -1.48976 0.820979 0
M  V30 888 O 84.3915 -1.61188 1.08315 0
M  V30 889 C 81.5215 -2.63 2.26822 0
M  V30 890 C 80.4755 -2.56671 3.42497 0
M  V30 891 C 79.8015 -3.95697 3.59622 0
M  V30 892 C 81.1015 -2.11601 4.77517 0
M  V30 893 H 82.7955 -0.953525 2.8381 0
M  V30 894 H 80.3415 -0.457244 1.36548 0
M  V30 895 H 82.2945 -3.37077 2.52898 0
M  V30 896 H 81.0185 -2.9732 1.35161 0
M  V30 897 H 79.6775 -1.85051 3.16467 0
M  V30 898 H 79.3255 -4.27322 2.6534 0
M  V30 899 H 79.0255 -3.92345 4.37424 0
M  V30 900 H 80.5495 -4.71438 3.88044 0
M  V30 901 H 81.9635 -2.7542 5.02809 0
M  V30 902 H 80.3605 -2.19311 5.5859 0
M  V30 903 H 81.4305 -1.06824 4.72987 0
M  V30 904 N 82.7736 -1.49793 -0.48987 0
M  V30 905 C 83.7366 -1.66752 -1.57246 0
M  V30 906 C 84.7366 -0.538867 -1.51502 0
M  V30 907 O 85.9266 -0.805545 -1.54456 0
M  V30 908 C 83.0586 -1.67528 -2.96896 0
M  V30 909 H 84.2516 -2.63321 -1.43534 0
M  V30 910 H 81.8046 -1.38992 -0.714914 0
M  V30 911 H 82.5396 -0.725837 -3.16073 0
M  V30 912 H 82.3246 -2.49504 -3.02473 0
M  V30 913 H 83.8146 -1.82667 -3.7553 0
M  V30 914 N 84.2517 0.741722 -1.39055 0
M  V30 915 C 85.2147 1.83733 -1.37021 0
M  V30 916 C 86.2147 1.58542 -0.268534 0
M  V30 917 O 87.4047 1.66067 -0.526076 0
M  V30 918 C 84.5367 3.2141 -1.13617 0
M  V30 919 H 85.7297 1.86941 -2.34506 0
M  V30 920 H 83.2827 0.944676 -1.24521 0
M  V30 921 H 84.0177 3.23865 -0.167863 0
M  V30 922 H 83.8027 3.4109 -1.93391 0
M  V30 923 H 85.2927 4.01477 -1.14918 0
M  V30 924 N 85.7298 1.2412 0.971189 0
M  V30 925 C 86.6618 0.988349 2.06795 0
M  V30 926 C 87.6748 -0.0409541 1.62748 0
M  V30 927 O 88.8638 0.195673 1.77424 0
M  V30 928 C 85.9638 0.469023 3.35639 0
M  V30 929 C 85.1368 1.56065 4.08611 0
M  V30 930 C 84.1958 1.04458 5.15728 0
M  V30 931 O 83.2218 1.73553 5.42096 0
M  V30 932 N 84.4238 -0.122817 5.8037 0
M  V30 933 H 87.1888 1.93265 2.29061 0
M  V30 934 H 84.7498 1.15102 1.13856 0
M  V30 935 H 86.7418 0.108613 4.04554 0
M  V30 936 H 85.3118 -0.380919 3.1027 0
M  V30 937 H 84.5318 2.09341 3.34021 0
M  V30 938 H 85.8198 2.29449 4.54126 0
M  V30 939 H 85.2178 -0.700563 5.61345 0
M  V30 940 H 83.7748 -0.424404 6.50417 0
M  V30 941 N 87.2079 -1.17134 1.05439 0
M  V30 942 C 88.1549 -2.21235 0.657539 0
M  V30 943 C 89.1249 -1.62551 -0.341543 0
M  V30 944 O 90.3099 -1.89379 -0.232393 0
M  V30 945 C 87.4499 -3.45076 0.0410575 0
M  V30 946 C 86.5629 -4.18042 1.08927 0
M  V30 947 C 85.6979 -5.29376 0.439848 0
M  V30 948 C 84.7369 -5.94132 1.4722 0
M  V30 949 N 83.8739 -6.96975 0.846756 0
M  V30 950 H 88.7139 -2.54534 1.54972 0
M  V30 951 H 86.2509 -1.25028 0.775006 0
M  V30 952 H 88.2089 -4.15862 -0.33383 0
M  V30 953 H 86.8389 -3.12353 -0.814568 0
M  V30 954 H 85.8909 -3.45945 1.58196 0
M  V30 955 H 87.2029 -4.62306 1.87282 0
M  V30 956 H 86.3569 -6.06699 0.0115125 0
M  V30 957 H 85.0959 -4.86251 -0.375656 0
M  V30 958 H 84.1009 -5.15538 1.91052 0
M  V30 959 H 85.3259 -6.39337 2.28965 0
M  V30 960 H 83.2719 -6.5598 0.0518075 0
M  V30 961 H 83.1889 -7.39565 1.5678 0
M  V30 962 H 84.4569 -7.78239 0.443277 0
M  V30 963 N 88.686 -0.835752 -1.33615 0
M  V30 964 C 89.914 -0.443344 -2.02094 0
M  V30 965 C 90.329 0.954522 -1.62894 0
M  V30 966 O 89.686 1.61982 -0.840723 0
M  V30 967 C 89.737 -0.550775 -3.5728 0
M  V30 968 O 89.458 -1.89356 -3.95065 0
M  V30 969 C 90.959 -0.154919 -4.43029 0
M  V30 970 H 88.179 -0.176359 -0.647409 0
M  V30 971 H 90.723 -1.12746 -1.70612 0
M  V30 972 H 88.878 0.0853997 -3.87306 0
M  V30 973 H 89.292 -1.87687 -4.89769 0
M  V30 974 H 90.766 -0.281144 -5.51284 0
M  V30 975 H 91.243 0.902863 -4.2982 0
M  V30 976 H 91.849 -0.765404 -4.18356 0
M  V30 977 N 90.1641 1.46063 -0.591896 0
M  V30 978 C 91.0941 2.33172 0.123673 0
M  V30 979 C 92.0751 1.45897 0.87453 0
M  V30 980 O 93.2601 1.74698 0.848181 0
M  V30 981 C 90.3901 3.28336 1.13194 0
M  V30 982 C 89.3441 4.25124 0.495324 0
M  V30 983 C 88.6701 5.09863 1.61071 0
M  V30 984 C 89.9701 5.19143 -0.573425 0
M  V30 985 H 91.6641 2.93252 -0.603646 0
M  V30 986 H 89.2101 1.41014 -0.291741 0
M  V30 987 H 91.1631 3.88137 1.64097 0
M  V30 988 H 89.8871 2.66383 1.88965 0
M  V30 989 H 88.5461 3.66599 0.00729452 0
M  V30 990 H 88.1941 4.44288 2.35832 0
M  V30 991 H 87.8941 5.75417 1.19035 0
M  V30 992 H 89.4181 5.72529 2.12233 0
M  V30 993 H 90.8321 5.73106 -0.1491 0
M  V30 994 H 89.2291 5.93089 -0.914636 0
M  V30 995 H 90.2991 4.62519 -1.45617 0
M  V30 996 N 91.6422 0.330177 1.54103 0
M  V30 997 C 92.8882 -0.270806 2.00984 0
M  V30 998 C 93.2212 -1.51265 1.21789 0
M  V30 999 O 92.4962 -1.92142 0.301927 0
M  V30 1000 C 92.7792 -0.598339 3.55094 0
M  V30 1001 C 92.6322 0.654674 4.4501 0
M  V30 1002 C 93.9512 -1.41334 4.16789 0
M  V30 1003 H 91.0702 -0.0969531 0.730595 0
M  V30 1004 H 93.7122 0.448066 1.84641 0
M  V30 1005 H 91.8622 -1.21078 3.69151 0
M  V30 1006 H 93.5342 1.29285 4.42813 0
M  V30 1007 H 91.7772 1.28224 4.14416 0
M  V30 1008 H 92.4482 0.380944 5.50684 0
M  V30 1009 H 94.9242 -0.895597 4.06347 0
M  V30 1010 H 93.8002 -1.61127 5.24718 0
M  V30 1011 H 94.0612 -2.41146 3.70541 0
M  V30 1012 N 93.1203 -1.57491 0.0584922 0
M  V30 1013 C 94.3973 -1.84346 -0.653918 0
M  V30 1014 C 94.7773 -0.948355 -1.88599 0
M  V30 1015 O 94.1253 -0.0112403 -2.28497 0
M  V30 1016 C 94.3353 -3.34239 -1.00425 0
M  V30 1017 C 95.6833 -4.01431 -1.38342 0
M  V30 1018 O 96.7073 -3.38907 -1.09637 0
M  V30 1019 O 95.5663 -5.11683 -1.91943 0
M  V30 1020 H 92.6603 -0.761112 -0.323478 0
M  V30 1021 H 95.2063 -1.6947 0.0884125 0
M  V30 1022 H 93.9783 -3.91089 -0.128625 0
M  V30 1023 H 93.6013 -3.54329 -1.80378 0
M  V30 1024 N 94.5984 0.214957 -1.56127 0
M  V30 1025 C 95.8464 0.936518 -1.79091 0
M  V30 1026 C 96.1674 1.84606 -0.628148 0
M  V30 1027 O 95.4374 1.92664 0.35462 0
M  V30 1028 H 94.0174 0.3488 -0.660566 0
M  V30 1029 H 96.6794 0.22523 -1.93594 0
M  V30 1030 H 95.7754 1.53943 -2.71492 0
M  V30 1031 N 96.0765 1.50051 0.48192 0
M  V30 1032 C 97.3255 1.59741 1.23149 0
M  V30 1033 C 97.6385 0.298163 1.93314 0
M  V30 1034 O 98.8445 0.273835 2.70116 0
M  V30 1035 C 97.3005 2.81926 2.23708 0
M  V30 1036 C 96.9085 4.18685 1.59396 0
M  V30 1037 C 98.6525 3.00956 2.99375 0
M  V30 1038 C 96.5595 5.3207 2.58178 0
M  V30 1039 H 95.4895 0.594838 0.46334 0
M  V30 1040 H 98.1405 1.76467 0.503169 0
M  V30 1041 H 96.5225 2.58736 2.99786 0
M  V30 1042 H 97.6965 4.52088 0.891811 0
M  V30 1043 H 96.0115 4.05171 0.960503 0
M  V30 1044 H 98.6085 3.82836 3.73283 0
M  V30 1045 H 98.9515 2.12258 3.58123 0
M  V30 1046 H 99.4845 3.24277 2.30411 0
M  V30 1047 H 96.2235 6.22888 2.04184 0
M  V30 1048 H 95.7435 5.03098 3.26577 0
M  V30 1049 H 97.4225 5.62196 3.20225 0
M  V30 1050 N 97.5546 -0.734337 1.39446 0
M  V30 1051 C 98.9706 -1.03997 1.21065 0
M  V30 1052 C 99.1706 -2.01369 0.0727019 0
M  V30 1053 O 98.2266 -2.45856 -0.575426 0
M  V30 1054 C 99.5396 -1.60163 2.54496 0
M  V30 1055 C 101.088 -1.7224 2.61347 0
M  V30 1056 C 101.563 -2.31814 3.95002 0
M  V30 1057 N 103.054 -2.39223 3.96644 0
M  V30 1058 C 103.789 -2.86258 4.96834 0
M  V30 1059 N 103.285 -3.33184 6.07421 0
M  V30 1060 N 105.078 -2.85473 4.84213 0
M  V30 1061 H 97.2286 -0.0885624 2.12215 0
M  V30 1062 H 99.4916 -0.10191 0.942506 0
M  V30 1063 H 99.1976 -0.960811 3.38321 0
M  V30 1064 H 99.0716 -2.5896 2.74262 0
M  V30 1065 H 101.459 -2.35443 1.77906 0
M  V30 1066 H 101.54 -0.720939 2.4543 0
M  V30 1067 H 101.184 -1.69238 4.78875 0
M  V30 1068 H 101.114 -3.32638 4.08239 0
M  V30 1069 H 103.605 -2.06057 3.16779 0
M  V30 1070 H 103.918 -3.67586 6.7978 0
M  V30 1071 H 102.263 -3.31191 6.11013 0
M  V30 1072 H 105.454 -2.48136 3.96921 0
M  V30 1073 H 105.627 -3.21814 5.62441 0
M  V30 1074 N 99.0327 -1.24633 -0.964593 0
M  V30 1075 C 99.9797 -1.04144 -2.05968 0
M  V30 1076 C 100.95 0.046262 -1.66036 0
M  V30 1077 O 102.135 -0.108972 -1.90489 0
M  V30 1078 C 99.2747 -0.65563 -3.38815 0
M  V30 1079 C 98.3877 -1.81714 -3.91923 0
M  V30 1080 C 97.5227 -1.37662 -5.13052 0
M  V30 1081 C 96.5617 -2.50788 -5.58365 0
M  V30 1082 N 95.6987 -2.07582 -6.70712 0
M  V30 1083 H 100.539 -1.9787 -2.22827 0
M  V30 1084 H 98.0757 -0.9855 -1.09208 0
M  V30 1085 H 100.034 -0.412954 -4.15151 0
M  V30 1086 H 98.6637 0.244627 -3.21872 0
M  V30 1087 H 97.7157 -2.1734 -3.12198 0
M  V30 1088 H 99.0277 -2.66705 -4.21509 0
M  V30 1089 H 98.1817 -1.093 -5.96773 0
M  V30 1090 H 96.9207 -0.497293 -4.85158 0
M  V30 1091 H 95.9257 -2.79906 -4.73215 0
M  V30 1092 H 97.1507 -3.39283 -5.88272 0
M  V30 1093 H 95.0967 -1.22051 -6.44546 0
M  V30 1094 H 95.0137 -2.86125 -6.99763 0
M  V30 1095 H 96.2817 -1.82369 -7.57867 0
M  V30 1096 N 100.511 1.16574 -1.06058 0
M  V30 1097 C 101.421 2.2452 -0.680282 0
M  V30 1098 C 102.437 1.71348 0.302604 0
M  V30 1099 O 103.613 2.00822 0.152513 0
M  V30 1100 C 100.678 3.46629 -0.0700315 0
M  V30 1101 C 99.7388 4.14849 -1.10448 0
M  V30 1102 C 98.9718 5.31129 -0.523256 0
M  V30 1103 O 99.1948 5.66514 0.664709 0
M  V30 1104 O 98.1288 5.88526 -1.26179 0
M  V30 1105 H 101.955 2.59355 -1.58015 0
M  V30 1106 H 99.5398 1.24043 -0.832694 0
M  V30 1107 H 101.422 4.20543 0.268667 0
M  V30 1108 H 100.097 3.13573 0.803353 0
M  V30 1109 H 99.0038 3.42916 -1.49532 0
M  V30 1110 H 100.337 4.51954 -1.94931 0
M  V30 1111 N 101.989 0.842826 1.3317 0
M  V30 1112 C 103.235 0.441099 1.97945 0
M  V30 1113 C 103.568 -0.998024 1.66593 0
M  V30 1114 O 102.843 -1.69839 0.947898 0
M  V30 1115 C 103.126 0.666841 3.53872 0
M  V30 1116 C 102.979 2.15352 3.94897 0
M  V30 1117 C 104.298 0.115544 4.39948 0
M  V30 1118 H 101.417 0.161739 0.719034 0
M  V30 1119 H 104.059 1.05907 1.57746 0
M  V30 1120 H 102.209 0.140828 3.88245 0
M  V30 1121 H 103.881 2.7447 3.70761 0
M  V30 1122 H 102.124 2.63653 3.44484 0
M  V30 1123 H 102.795 2.26221 5.03516 0
M  V30 1124 H 105.271 0.565213 4.12243 0
M  V30 1125 H 104.147 0.303152 5.48062 0
M  V30 1126 H 104.408 -0.980935 4.3108 0
M  V30 1127 N 103.467 -1.45747 0.599634 0
M  V30 1128 C 104.43 -2.28917 -0.113835 0
M  V30 1129 C 105.43 -1.3933 -0.802729 0
M  V30 1130 O 106.62 -1.61534 -0.652103 0
M  V30 1131 C 103.752 -3.20152 -1.17114 0
M  V30 1132 H 104.945 -2.93478 0.617289 0
M  V30 1133 H 102.498 -1.52137 0.358327 0
M  V30 1134 H 103.233 -2.60374 -1.93329 0
M  V30 1135 H 103.018 -3.86133 -0.681468 0
M  V30 1136 H 104.508 -3.82708 -1.67105 0
M  V30 1137 N 104.945 -0.338344 -1.53925 0
M  V30 1138 C 105.908 0.508299 -2.23493 0
M  V30 1139 C 106.908 1.03175 -1.23335 0
M  V30 1140 O 108.098 0.921826 -1.47811 0
M  V30 1141 C 105.23 1.70754 -2.95052 0
M  V30 1142 H 106.423 -0.100058 -2.99733 0
M  V30 1143 H 103.976 -0.0896198 -1.56043 0
M  V30 1144 H 104.711 2.35474 -2.22986 0
M  V30 1145 H 104.496 1.33946 -3.68512 0
M  V30 1146 H 105.986 2.30818 -3.48013 0
M  V30 1147 N 106.423 1.57458 -0.0668435 0
M  V30 1148 C 107.333 2.15937 0.916975 0
M  V30 1149 C 108.349 1.12123 1.33058 0
M  V30 1150 O 109.525 1.44366 1.40429 0
M  V30 1151 C 106.59 2.70547 2.16807 0
M  V30 1152 C 105.651 3.89215 1.81135 0
M  V30 1153 C 104.884 4.41211 3.0028 0
M  V30 1154 O 105.107 3.92225 4.14144 0
M  V30 1155 O 104.041 5.32605 2.80384 0
M  V30 1156 H 107.867 3.00354 0.449561 0
M  V30 1157 H 105.452 1.48584 0.155949 0
M  V30 1158 H 107.334 3.0557 2.90181 0
M  V30 1159 H 106.009 1.89192 2.62656 0
M  V30 1160 H 104.916 3.59054 1.05028 0
M  V30 1161 H 106.249 4.71848 1.40073 0
M  V30 1162 N 107.901 -0.206675 1.56239 0
M  V30 1163 C 109.149 -0.927007 1.79586 0
M  V30 1164 C 109.47 -1.8427 0.637929 0
M  V30 1165 O 108.74 -1.92849 -0.344398 0
M  V30 1166 H 107.32 -0.345292 0.662407 0
M  V30 1167 H 109.982 -0.21496 1.93711 0
M  V30 1168 H 109.078 -1.52501 2.72305 0
M  V30 1169 N 109.379 -1.50304 -0.473955 0
M  V30 1170 C 110.627 -1.60832 -1.22382 0
M  V30 1171 C 110.948 -0.30939 -1.9253 0
M  V30 1172 O 110.218 0.67296 -1.83978 0
M  V30 1173 H 108.798 -0.592652 -0.454723 0
M  V30 1174 H 111.46 -1.87068 -0.546968 0
M  V30 1175 H 110.556 -2.41803 -1.97327 0
M  V30 1176 N 110.857 0.726932 -1.39834 0
M  V30 1177 C 112.082 1.52121 -1.40976 0
M  V30 1178 C 112.507 1.88098 -0.00826029 0
M  V30 1179 O 111.865 1.52479 0.980807 0
M  V30 1180 C 111.913 2.78021 -2.29644 0
M  V30 1181 O 111.017 3.74272 -1.73188 0
M  V30 1182 H 110.358 0.45908 -0.479731 0
M  V30 1183 H 112.888 0.896207 -1.83927 0
M  V30 1184 H 112.898 3.26671 -2.44438 0
M  V30 1185 H 111.573 2.51169 -3.31492 0
M  V30 1186 H 110.15 3.33073 -1.6768 0
M  V30 1187 N 112.336 1.25143 0.95797 0
M  V30 1188 C 113.582 1.09855 1.70469 0
M  V30 1189 C 113.915 -0.360187 1.90831 0
M  V30 1190 O 113.19 -1.26568 1.47685 0
M  V30 1191 C 113.473 1.8497 3.08963 0
M  V30 1192 C 113.326 3.38652 2.96032 0
M  V30 1193 C 114.645 1.63016 4.08795 0
M  V30 1194 H 111.764 0.400465 0.618706 0
M  V30 1195 H 114.406 1.53933 1.11376 0
M  V30 1196 H 112.556 1.47505 3.59409 0
M  V30 1197 H 114.228 3.85772 2.52938 0
M  V30 1198 H 112.471 3.66534 2.32025 0
M  V30 1199 H 113.142 3.8642 3.94187 0
M  V30 1200 H 115.618 1.95625 3.67247 0
M  V30 1201 H 114.494 2.18015 5.03747 0
M  V30 1202 H 114.755 0.570692 4.38401 0
M  V30 1203 N 113.814 -1.1601 1.06675 0
M  V30 1204 C 114.744 -2.22688 0.702307 0
M  V30 1205 C 115.725 -1.67306 -0.307032 0
M  V30 1206 O 116.91 -1.93352 -0.181305 0
M  V30 1207 C 114.04 -3.47178 0.092038 0
M  V30 1208 C 112.994 -4.15477 1.02777 0
M  V30 1209 C 112.32 -5.33963 0.28061 0
M  V30 1210 C 113.62 -4.66019 2.35846 0
M  V30 1211 H 115.314 -2.53429 1.59419 0
M  V30 1212 H 112.86 -1.21813 0.767961 0
M  V30 1213 H 114.813 -4.21037 -0.174814 0
M  V30 1214 H 113.537 -3.15749 -0.834877 0
M  V30 1215 H 112.196 -3.43549 1.27944 0
M  V30 1216 H 111.844 -4.98788 -0.649545 0
M  V30 1217 H 111.544 -5.806 0.904258 0
M  V30 1218 H 113.068 -6.10596 0.021396 0
M  V30 1219 H 114.482 -5.3144 2.15045 0
M  V30 1220 H 112.879 -5.23293 2.93743 0
M  V30 1221 H 113.949 -3.82023 2.98641 0
M  V30 1222 N 115.292 -0.849877 -1.32721 0
M  V30 1223 C 116.222 -0.306308 -2.31482 0
M  V30 1224 C 117.203 0.591952 -1.59468 0
M  V30 1225 O 118.388 0.513199 -1.87296 0
M  V30 1226 C 115.518 0.510204 -3.43532 0
M  V30 1227 C 114.472 -0.293209 -4.26994 0
M  V30 1228 C 113.798 0.647743 -5.30762 0
M  V30 1229 C 115.098 -1.51634 -4.99804 0
M  V30 1230 H 116.792 -1.13153 -2.77195 0
M  V30 1231 H 114.338 -0.545553 -1.33266 0
M  V30 1232 H 116.291 0.900856 -4.11658 0
M  V30 1233 H 115.015 1.36874 -2.96535 0
M  V30 1234 H 113.674 -0.665555 -3.60508 0
M  V30 1235 H 113.322 1.50299 -4.8002 0
M  V30 1236 H 113.022 0.11422 -5.87489 0
M  V30 1237 H 114.546 1.03567 -6.01753 0
M  V30 1238 H 115.96 -1.19824 -5.60638 0
M  V30 1239 H 114.357 -1.98745 -5.66234 0
M  V30 1240 H 115.427 -2.28018 -4.27943 0
M  V30 1241 N 116.77 1.45427 -0.607355 0
M  V30 1242 C 117.7 2.3329 0.0989352 0
M  V30 1243 C 118.681 1.46816 0.859007 0
M  V30 1244 O 119.866 1.75588 0.829604 0
M  V30 1245 C 116.996 3.29518 1.09705 0
M  V30 1246 C 115.95 4.25626 0.450206 0
M  V30 1247 C 115.276 5.11542 1.55655 0
M  V30 1248 C 116.576 5.18505 -0.628455 0
M  V30 1249 H 118.27 2.92595 -0.634716 0
M  V30 1250 H 115.816 1.40696 -0.306681 0
M  V30 1251 H 117.769 3.89855 1.59971 0
M  V30 1252 H 116.493 2.68372 1.86129 0
M  V30 1253 H 115.152 3.66586 -0.0315886 0
M  V30 1254 H 114.8 4.46765 2.31107 0
M  V30 1255 H 114.5 5.76647 1.12925 0
M  V30 1256 H 116.024 5.74748 2.06148 0
M  V30 1257 H 117.438 5.72916 -0.209877 0
M  V30 1258 H 115.835 5.92085 -0.977489 0
M  V30 1259 H 116.905 4.60948 -1.50514 0
M  V30 1260 N 118.248 0.346503 1.53744 0
M  V30 1261 C 119.473 -0.253074 2.0585 0
M  V30 1262 C 119.898 -1.43202 1.21962 0
M  V30 1263 O 119.256 -1.79783 0.234073 0
M  V30 1264 C 119.304 -0.643193 3.54817 0
M  V30 1265 O 118.408 -1.74286 3.73762 0
M  V30 1266 H 117.749 -0.0413583 0.662711 0
M  V30 1267 H 120.279 0.501574 1.98357 0
M  V30 1268 H 120.289 -0.919526 3.97503 0
M  V30 1269 H 118.964 0.218966 4.15323 0
M  V30 1270 H 117.541 -1.46356 3.42979 0
M  V30 1271 N 119.726 -1.57421 0.075193 0
M  V30 1272 C 120.974 -1.93236 -0.591974 0
M  V30 1273 C 121.295 -0.956241 -1.69944 0
M  V30 1274 O 120.565 -0.00494792 -1.95899 0
M  V30 1275 H 119.145 -0.713355 -0.22166 0
M  V30 1276 H 121.807 -1.9444 0.133848 0
M  V30 1277 H 120.903 -2.95131 -1.01509 0
M  V30 1278 N 121.204 0.198386 -1.56346 0
M  V30 1279 C 122.452 0.91747 -1.80075 0
M  V30 1280 C 122.773 1.83929 -0.647692 0
M  V30 1281 O 122.043 1.93029 0.334166 0
M  V30 1282 H 120.623 0.341774 -0.664228 0
M  V30 1283 H 123.285 0.204684 -1.93822 0
M  V30 1284 H 122.381 1.51055 -2.7311 0
M  V30 1285 N 122.682 1.50554 0.465978 0
M  V30 1286 C 123.959 1.5232 1.22712 0
M  V30 1287 C 124.339 0.270807 2.09356 0
M  V30 1288 O 123.687 -0.745541 2.15995 0
M  V30 1289 C 123.897 2.82175 2.05374 0
M  V30 1290 C 125.245 3.33033 2.6339 0
M  V30 1291 O 126.269 2.83531 2.15612 0
M  V30 1292 O 125.128 4.19336 3.50456 0
M  V30 1293 H 122.222 0.611183 0.557122 0
M  V30 1294 H 124.768 1.62847 0.477381 0
M  V30 1295 H 123.54 3.64797 1.41558 0
M  V30 1296 H 123.163 2.74675 2.87471 0
M  V30 1297 N 124.16 -0.719506 1.40217 0
M  V30 1298 C 125.409 -1.47486 1.37589 0
M  V30 1299 C 125.722 -1.9559 -0.0201568 0
M  V30 1300 O 126.928 -2.70973 -0.169049 0
M  V30 1301 C 125.384 -2.66575 2.41796 0
M  V30 1302 C 124.992 -2.25358 3.87192 0
M  V30 1303 C 126.736 -3.4433 2.48269 0
M  V30 1304 C 124.643 -3.41262 4.83005 0
M  V30 1305 H 123.573 -0.553901 0.511576 0
M  V30 1306 H 126.224 -0.783427 1.65936 0
M  V30 1307 H 124.606 -3.3787 2.06543 0
M  V30 1308 H 125.78 -1.61509 4.31569 0
M  V30 1309 H 124.095 -1.60657 3.84159 0
M  V30 1310 H 126.692 -4.30569 3.17041 0
M  V30 1311 H 127.035 -3.87872 1.51198 0
M  V30 1312 H 127.568 -2.80076 2.82493 0
M  V30 1313 H 124.307 -3.02755 5.81394 0
M  V30 1314 H 123.827 -4.0404 4.43297 0
M  V30 1315 H 125.506 -4.07383 5.02641 0
M  V30 1316 N 125.638 -1.25649 -0.95132 0
M  V30 1317 C 126.586 -1.06118 -2.06982 0
M  V30 1318 C 127.58 0.00889169 -1.69398 0
M  V30 1319 O 128.786 -0.146988 -1.79399 0
M  V30 1320 H 125.161 -0.326248 -0.677544 0
M  V30 1321 H 127.132 -2.00932 -2.2061 0
M  V30 1322 C 125.881 -0.700145 -3.40578 0
M  V30 1323 H 125.204 -1.51537 -3.69968 0
M  V30 1324 H 126.644 -0.603211 -4.19687 0
M  V30 1325 C 125.103 0.59403 -3.31622 0
M  V30 1326 O 125.633 1.63522 -3.66911 0
M  V30 1327 N 123.839 0.58089 -2.84735 0
M  V30 1328 H 123.386 -0.266783 -2.56215 0
M  V30 1329 H 123.344 1.44695 -2.79125 0
M  V30 1330 N 127.117 1.15442 -1.07289 0
M  V30 1331 C 128.345 1.90096 -0.81676 0
M  V30 1332 C 128.76 1.7798 0.629966 0
M  V30 1333 O 128.117 1.1313 1.43206 0
M  V30 1334 C 128.168 3.40466 -1.21512 0
M  V30 1335 O 127.889 3.52232 -2.60508 0
M  V30 1336 C 129.39 4.32145 -0.988198 0
M  V30 1337 H 126.61 0.602495 -0.295366 0
M  V30 1338 H 129.154 1.4627 -1.42918 0
M  V30 1339 H 127.309 3.81958 -0.647039 0
M  V30 1340 H 127.723 4.45549 -2.76742 0
M  V30 1341 H 129.197 5.36072 -1.31645 0
M  V30 1342 H 129.674 4.39135 0.0755063 0
M  V30 1343 H 130.28 3.96395 -1.54115 0
M  V30 1344 N 128.595 0.856903 1.32268 0
M  V30 1345 C 129.843 0.460474 1.96784 0
M  V30 1346 C 130.164 -0.987701 1.68135 0
M  V30 1347 O 129.434 -1.69058 0.989765 0
M  V30 1348 H 128.014 0.167289 0.728027 0
M  V30 1349 H 130.676 1.09383 1.61312 0
M  V30 1350 H 129.772 0.60739 3.06133 0
M  V30 1351 N 130.073 -1.45103 0.615059 0
M  V30 1352 C 131.319 -2.02483 0.113347 0
M  V30 1353 C 131.652 -1.48146 -1.25564 0
M  V30 1354 O 130.927 -0.659104 -1.82992 0
M  V30 1355 C 131.21 -3.60005 0.0825278 0
M  V30 1356 C 131.063 -4.2466 1.48271 0
M  V30 1357 C 132.382 -4.35972 -0.601401 0
M  V30 1358 H 129.501 -0.735764 0.0426632 0
M  V30 1359 H 132.143 -1.72868 0.788461 0
M  V30 1360 H 130.293 -3.85367 -0.492378 0
M  V30 1361 H 131.965 -4.10458 2.10527 0
M  V30 1362 H 130.208 -3.82772 2.04127 0
M  V30 1363 H 130.879 -5.336 1.41332 0
M  V30 1364 H 133.355 -4.15947 -0.112666 0
M  V30 1365 H 132.231 -5.45697 -0.592097 0
M  V30 1366 H 132.492 -4.09391 -1.66887 0
M  V30 1367 N 131.551 -0.354651 -1.53558 0
M  V30 1368 C 132.962 0.126902 -1.86268 0
M  V30 1369 C 133.313 1.49075 -1.27558 0
M  V30 1370 O 132.438 2.08105 -0.5934 0
M  V30 1371 C 133.033 0.237046 -3.3797 0
M  V30 1372 C 131.592 0.662842 -3.70518 0
M  V30 1373 C 130.739 -0.196652 -2.76602 0
M  V30 1374 H 133.69 -0.573849 -1.47962 0
M  V30 1375 H 133.711 1.06259 -3.65362 0
M  V30 1376 H 133.223 -0.755725 -3.80671 0
M  V30 1377 H 131.324 1.66424 -3.33367 0
M  V30 1378 H 131.437 0.445034 -4.77029 0
M  V30 1379 H 129.801 0.332763 -2.52517 0
M  V30 1380 H 130.584 -1.18676 -3.22135 0
M  V30 1381 N 133.029 1.57378 -0.0835403 0
M  V30 1382 C 133.939 2.16897 0.894021 0
M  V30 1383 C 134.955 1.13528 1.31861 0
M  V30 1384 O 136.131 1.45848 1.3889 0
M  V30 1385 C 133.196 2.72831 2.13925 0
M  V30 1386 C 132.257 3.91115 1.76997 0
M  V30 1387 C 131.49 4.44371 2.95584 0
M  V30 1388 O 131.713 3.96596 4.09961 0
M  V30 1389 O 130.647 5.35549 2.74719 0
M  V30 1390 H 134.473 3.00814 0.417679 0
M  V30 1391 H 132.058 1.48741 0.140181 0
M  V30 1392 H 133.94 3.0863 2.86924 0
M  V30 1393 H 132.615 1.91967 2.60635 0
M  V30 1394 H 131.522 3.60148 1.01214 0
M  V30 1395 H 132.855 4.73307 1.3506 0
M  V30 1396 N 134.507 -0.190092 1.56449 0
M  V30 1397 C 135.732 -0.929864 1.85387 0
M  V30 1398 C 136.157 -1.7585 0.667704 0
M  V30 1399 O 135.515 -1.77198 -0.383459 0
M  V30 1400 C 135.563 -1.79773 3.12593 0
M  V30 1401 O 134.667 -2.89713 2.93496 0
M  V30 1402 H 134.008 -0.261574 0.610307 0
M  V30 1403 H 136.538 -0.193896 2.03679 0
M  V30 1404 H 136.548 -2.20139 3.43515 0
M  V30 1405 H 135.223 -1.18892 3.98544 0
M  V30 1406 H 133.8 -2.53065 2.73884 0
M  V30 1407 N 135.985 -1.50799 -0.457987 0
M  V30 1408 C 137.262 -1.52968 -1.21902 0
M  V30 1409 C 137.642 -0.281906 -2.09209 0
M  V30 1410 O 136.99 0.734076 -2.16388 0
M  V30 1411 C 137.2 -2.8326 -2.03875 0
M  V30 1412 C 138.548 -3.34425 -2.6162 0
M  V30 1413 O 139.572 -2.8467 -2.14106 0
M  V30 1414 O 138.431 -4.21188 -3.48228 0
M  V30 1415 H 135.525 -0.614129 -0.553873 0
M  V30 1416 H 138.071 -1.63098 -0.468739 0
M  V30 1417 H 136.843 -3.65543 -1.39621 0
M  V30 1418 H 136.466 -2.76195 -2.8601 0
M  V30 1419 N 137.463 0.71206 -1.40597 0
M  V30 1420 C 138.393 1.83889 -1.43899 0
M  V30 1421 C 139.374 1.67442 -0.299504 0
M  V30 1422 O 140.559 1.87421 -0.508624 0
M  V30 1423 C 137.689 3.21877 -1.30431 0
M  V30 1424 C 136.643 3.53002 -2.42019 0
M  V30 1425 C 135.969 4.90172 -2.13626 0
M  V30 1426 C 137.269 3.53643 -3.84362 0
M  V30 1427 H 138.963 1.81383 -2.38203 0
M  V30 1428 H 136.509 0.871237 -1.14654 0
M  V30 1429 H 138.462 4.00404 -1.31357 0
M  V30 1430 H 137.186 3.24968 -0.326049 0
M  V30 1431 H 135.845 2.76818 -2.40349 0
M  V30 1432 H 135.493 4.89869 -1.14182 0
M  V30 1433 H 135.193 5.11962 -2.88389 0
M  V30 1434 H 136.717 5.71028 -2.1624 0
M  V30 1435 H 138.131 4.22203 -3.87837 0
M  V30 1436 H 136.528 3.86961 -4.58673 0
M  V30 1437 H 137.598 2.52954 -4.13693 0
M  V30 1438 N 138.941 1.26152 0.944643 0
M  V30 1439 C 139.873 1.03199 2.04652 0
M  V30 1440 C 140.886 -0.00642356 1.62799 0
M  V30 1441 O 142.075 0.233263 1.76969 0
M  V30 1442 C 139.175 0.540111 3.34568 0
M  V30 1443 C 138.348 1.64697 4.05208 0
M  V30 1444 C 137.407 1.15374 5.13396 0
M  V30 1445 O 136.433 1.85013 5.38293 0
M  V30 1446 N 137.635 0.00031529 5.805 0
M  V30 1447 H 140.4 1.9808 2.2491 0
M  V30 1448 H 137.961 1.17491 1.11389 0
M  V30 1449 H 139.953 0.194401 4.04233 0
M  V30 1450 H 138.523 -0.315021 3.11009 0
M  V30 1451 H 137.743 2.16379 3.29506 0
M  V30 1452 H 139.031 2.3903 4.49157 0
M  V30 1453 H 138.429 -0.581336 5.62705 0
M  V30 1454 H 136.986 -0.286346 6.51171 0
M  V30 1455 N 140.419 -1.14872 1.07899 0
M  V30 1456 C 141.696 -1.81928 0.71845 0
M  V30 1457 C 142.076 -1.95417 -0.798455 0
M  V30 1458 O 141.424 -1.50997 -1.715 0
M  V30 1459 C 141.634 -3.17937 1.43935 0
M  V30 1460 C 142.982 -3.93501 1.59506 0
M  V30 1461 O 144.006 -3.27509 1.40058 0
M  V30 1462 O 142.865 -5.1183 1.91551 0
M  V30 1463 H 139.959 -0.78628 0.256305 0
M  V30 1464 H 142.505 -1.21934 1.18026 0
M  V30 1465 H 141.277 -3.0325 2.47295 0
M  V30 1466 H 140.9 -3.85619 0.968687 0
M  V30 1467 N 141.898 -0.863906 -1.31812 0
M  V30 1468 C 142.861 -0.320212 -2.26952 0
M  V30 1469 C 143.861 0.525369 -1.51975 0
M  V30 1470 O 145.051 0.335547 -1.70938 0
M  V30 1471 C 142.183 0.545919 -3.365 0
M  V30 1472 H 143.376 -1.16004 -2.76556 0
M  V30 1473 H 140.929 -0.638995 -1.42641 0
M  V30 1474 H 141.664 1.40718 -2.92179 0
M  V30 1475 H 141.449 -0.0594674 -3.92055 0
M  V30 1476 H 142.939 0.918796 -4.07367 0
M  V30 1477 N 143.376 1.44774 -0.622745 0
M  V30 1478 C 144.286 2.34433 0.0886031 0
M  V30 1479 C 145.302 1.52131 0.844529 0
M  V30 1480 O 146.478 1.84886 0.798691 0
M  V30 1481 C 143.543 3.29986 1.0635 0
M  V30 1482 C 142.604 4.28195 0.307873 0
M  V30 1483 C 141.837 5.19183 1.23633 0
M  V30 1484 O 142.06 5.13918 2.47476 0
M  V30 1485 O 140.994 5.97515 0.725189 0
M  V30 1486 H 144.82 2.96693 -0.648599 0
M  V30 1487 H 142.405 1.44408 -0.382957 0
M  V30 1488 H 144.287 3.88825 1.6246 0
M  V30 1489 H 142.962 2.70269 1.78146 0
M  V30 1490 H 141.869 3.72927 -0.296064 0
M  V30 1491 H 143.202 4.90808 -0.3699 0
M  V30 1492 N 144.854 0.36279 1.53368 0
M  V30 1493 C 146.265 -0.117022 1.86333 0
M  V30 1494 C 146.616 -1.48397 1.28347 0
M  V30 1495 O 145.741 -2.07787 0.604428 0
M  V30 1496 C 146.336 -0.21912 3.38091 0
M  V30 1497 C 144.895 -0.643184 3.70864 0
M  V30 1498 C 144.042 0.211318 2.76494 0
M  V30 1499 H 146.993 0.581687 1.47655 0
M  V30 1500 H 147.014 -1.04319 3.6592 0
M  V30 1501 H 146.526 0.775902 3.80265 0
M  V30 1502 H 144.627 -1.64654 3.34245 0
M  V30 1503 H 144.74 -0.41973 4.77258 0
M  V30 1504 H 143.104 -0.319367 2.5269 0
M  V30 1505 H 143.887 1.20383 3.21501 0
M  V30 1506 N 146.332 -1.57332 0.0918853 0
M  V30 1507 C 147.609 -1.85691 -0.614668 0
M  V30 1508 C 147.989 -0.988146 -1.86545 0
M  V30 1509 O 147.337 -0.0597055 -2.28422 0
M  V30 1510 C 147.547 -3.36294 -0.933126 0
M  V30 1511 C 148.895 -4.04275 -1.29796 0
M  V30 1512 O 149.919 -3.41157 -1.02424 0
M  V30 1513 O 148.778 -5.1564 -1.81047 0
M  V30 1514 H 145.872 -0.767802 -0.307261 0
M  V30 1515 H 148.418 -1.69244 0.12434 0
M  V30 1516 H 147.19 -3.91273 -0.0456404 0
M  V30 1517 H 146.813 -3.58076 -1.72822 0
M  V30 1518 N 147.81 0.181792 -1.56548 0
M  V30 1519 C 149.057 0.900097 -1.81396 0
M  V30 1520 C 149.385 1.82695 -0.667281 0
M  V30 1521 O 148.64 1.92614 0.346146 0
M  V30 1522 C 148.939 1.73728 -3.12335 0
M  V30 1523 C 148.605 0.960255 -4.40556 0
M  V30 1524 C 147.267 0.745766 -4.75386 0
M  V30 1525 C 149.619 0.414477 -5.19549 0
M  V30 1526 C 146.947 -0.0257694 -5.86694 0
M  V30 1527 C 149.299 -0.343916 -6.31664 0
M  V30 1528 C 147.963 -0.569301 -6.65068 0
M  V30 1529 H 147.233 0.329369 -0.663775 0
M  V30 1530 H 149.88 0.165647 -1.90782 0
M  V30 1531 H 148.185 2.54081 -2.98245 0
M  V30 1532 H 149.882 2.29591 -3.28769 0
M  V30 1533 H 146.472 1.13746 -4.13231 0
M  V30 1534 H 150.656 0.567554 -4.93044 0
M  V30 1535 H 145.912 -0.210233 -6.11038 0
M  V30 1536 H 150.086 -0.774133 -6.92084 0
M  V30 1537 H 147.713 -1.16903 -7.51158 0
M  V30 1538 N 149.288 1.51039 0.449983 0
M  V30 1539 C 150.704 1.38934 0.785462 0
M  V30 1540 C 150.904 0.461817 1.96136 0
M  V30 1541 O 149.96 -0.0877389 2.52348 0
M  V30 1542 C 151.273 2.80724 1.0777 0
M  V30 1543 C 152.821 2.89787 1.1829 0
M  V30 1544 C 153.296 4.32457 1.50815 0
M  V30 1545 N 154.787 4.35505 1.57764 0
M  V30 1546 C 155.522 5.42914 1.84477 0
M  V30 1547 N 155.018 6.60502 2.09068 0
M  V30 1548 N 156.811 5.3038 1.86155 0
M  V30 1549 H 148.962 2.09904 -0.324647 0
M  V30 1550 H 151.225 0.944378 -0.0827957 0
M  V30 1551 H 150.931 3.50531 0.286498 0
M  V30 1552 H 150.805 3.19273 2.00859 0
M  V30 1553 H 153.192 2.20186 1.96474 0
M  V30 1554 H 153.273 2.54752 0.231314 0
M  V30 1555 H 152.917 5.02603 0.731622 0
M  V30 1556 H 152.847 4.64995 2.47158 0
M  V30 1557 H 155.338 3.50724 1.40715 0
M  V30 1558 H 155.651 7.38158 2.28785 0
M  V30 1559 H 153.996 6.63639 2.06416 0
M  V30 1560 H 157.187 4.37505 1.66454 0
M  V30 1561 H 157.36 6.1417 2.06637 0
M  V30 1562 N 150.766 -0.704594 1.40972 0
M  V30 1563 C 152.014 -1.46169 1.39568 0
M  V30 1564 C 152.335 -1.95 0.00253745 0
M  V30 1565 O 151.605 -1.71095 -0.954114 0
M  V30 1566 H 150.185 -0.542326 0.513704 0
M  V30 1567 H 152.847 -0.834553 1.76128 0
M  V30 1568 H 151.943 -2.32922 2.07735 0
M  V30 1569 N 152.244 -1.26651 -0.937939 0
M  V30 1570 C 153.177 -1.02811 -2.03728 0
M  V30 1571 C 154.155 0.0481915 -1.62529 0
M  V30 1572 O 155.339 -0.0948839 -1.88261 0
M  V30 1573 C 152.466 -0.557517 -3.3408 0
M  V30 1574 C 151.512 -1.62686 -3.94253 0
M  V30 1575 S 152.345 -3.21667 -4.28125 0
M  V30 1576 C 153.501 -2.76384 -5.61572 0
M  V30 1577 H 153.734 -1.95891 -2.23638 0
M  V30 1578 H 151.267 -1.10367 -1.07974 0
M  V30 1579 H 153.225 -0.292674 -4.09455 0
M  V30 1580 H 151.886 0.353062 -3.12109 0
M  V30 1581 H 151.079 -1.24866 -4.88287 0
M  V30 1582 H 150.681 -1.84324 -3.25424 0
M  V30 1583 H 152.973 -2.2105 -6.40424 0
M  V30 1584 H 153.916 -3.69123 -6.0428 0
M  V30 1585 H 154.324 -2.15847 -5.21604 0
M  V30 1586 N 153.722 1.14298 -1.08507 0
M  V30 1587 C 154.67 2.21483 -0.710483 0
M  V30 1588 C 155.664 1.66998 0.284234 0
M  V30 1589 O 156.87 1.79401 0.146692 0
M  V30 1590 H 153.245 0.721578 -0.211729 0
M  V30 1591 H 155.216 2.50348 -1.62384 0
M  V30 1592 C 153.965 3.4743 -0.137007 0
M  V30 1593 H 153.288 3.89686 -0.893592 0
M  V30 1594 H 154.728 4.2391 0.0872789 0
M  V30 1595 C 153.187 3.17548 1.12538 0
M  V30 1596 O 153.717 3.35437 2.21009 0
M  V30 1597 N 151.923 2.71499 1.03617 0
M  V30 1598 H 151.47 2.57143 0.153403 0
M  V30 1599 H 151.428 2.51881 1.88158 0
M  V30 1600 N 155.201 0.870884 1.31352 0
M  V30 1601 C 156.131 0.343096 2.30966 0
M  V30 1602 C 157.112 -0.566507 1.60389 0
M  V30 1603 O 158.297 -0.483336 1.88089 0
M  V30 1604 C 155.427 -0.455487 3.443 0
M  V30 1605 C 154.381 0.361103 4.26474 0
M  V30 1606 C 153.707 -0.563221 5.31725 0
M  V30 1607 C 155.007 1.59566 4.97329 0
M  V30 1608 H 156.701 1.17548 2.75359 0
M  V30 1609 H 154.247 0.566686 1.32381 0
M  V30 1610 H 156.2 -0.83525 4.13039 0
M  V30 1611 H 154.924 -1.32139 2.98675 0
M  V30 1612 H 153.583 0.722825 3.59403 0
M  V30 1613 H 153.231 -1.42643 4.82351 0
M  V30 1614 H 152.931 -0.0207409 5.87596 0
M  V30 1615 H 154.455 -0.939808 6.03324 0
M  V30 1616 H 155.869 1.28728 5.58661 0
M  V30 1617 H 154.266 2.07728 5.63 0
M  V30 1618 H 155.336 2.34798 4.24262 0
M  V30 1619 N 156.679 -1.44442 0.630414 0
M  V30 1620 C 157.925 -2.02351 0.134816 0
M  V30 1621 C 158.258 -1.4947 -1.23986 0
M  V30 1622 O 157.533 -0.678475 -1.82283 0
M  V30 1623 C 157.816 -3.59898 0.120707 0
M  V30 1624 C 157.669 -4.23063 1.52767 0
M  V30 1625 C 158.988 -4.36585 -0.555127 0
M  V30 1626 H 156.107 -0.73527 0.0504646 0
M  V30 1627 H 158.749 -1.72022 0.806751 0
M  V30 1628 H 156.899 -3.85868 -0.451477 0
M  V30 1629 H 158.571 -4.08202 2.14869 0
M  V30 1630 H 156.814 -3.80586 2.08175 0
M  V30 1631 H 157.485 -5.32071 1.46984 0
M  V30 1632 H 159.961 -4.16044 -0.0685429 0
M  V30 1633 H 158.837 -5.46294 -0.534185 0
M  V30 1634 H 159.098 -4.11138 -1.62535 0
M  V30 1635 N 158.157 -0.370918 -1.53173 0
M  V30 1636 C 159.405 0.216673 -2.00935 0
M  V30 1637 C 159.726 1.48845 -1.25977 0
M  V30 1638 O 158.996 1.92286 -0.374551 0
M  V30 1639 H 157.576 0.0830565 -0.742368 0
M  V30 1640 H 160.238 -0.49838 -1.8842 0
M  V30 1641 H 159.334 0.439893 -3.08984 0
M  V30 1642 N 159.635 1.57281 -0.100228 0
M  V30 1643 C 160.865 1.98591 0.569681 0
M  V30 1644 C 161.273 0.978315 1.61943 0
M  V30 1645 O 160.616 -0.0396108 1.83657 0
M  V30 1646 C 160.678 3.36282 1.271 0
M  V30 1647 C 160.342 4.55488 0.371409 0
M  V30 1648 C 161.339 5.18491 -0.382504 0
M  V30 1649 C 159.024 5.01474 0.287965 0
M  V30 1650 C 161.018 6.25852 -1.20779 0
M  V30 1651 C 158.705 6.08701 -0.540965 0
M  V30 1652 C 159.703 6.70755 -1.28749 0
M  V30 1653 O 159.391 7.75914 -2.10269 0
M  V30 1654 H 159.123 0.65752 0.156982 0
M  V30 1655 H 161.677 2.0463 -0.177734 0
M  V30 1656 H 159.907 3.26941 2.0651 0
M  V30 1657 H 161.596 3.62005 1.83595 0
M  V30 1658 H 162.362 4.83891 -0.3278 0
M  V30 1659 H 158.241 4.52932 0.858689 0
M  V30 1660 H 161.785 6.74218 -1.79096 0
M  V30 1661 H 157.682 6.42732 -0.597131 0
M  V30 1662 H 158.45 7.92925 -2.03007 0
M  V30 1663 N 161.113 -0.173488 1.56642 0
M  V30 1664 C 162.39 -0.917617 1.7274 0
M  V30 1665 C 162.77 -2.00484 0.661027 0
M  V30 1666 O 162.118 -2.26184 -0.32453 0
M  V30 1667 C 162.328 -1.48433 3.15862 0
M  V30 1668 C 163.676 -1.95809 3.76754 0
M  V30 1669 O 164.7 -1.58231 3.19126 0
M  V30 1670 O 163.559 -2.65024 4.77938 0
M  V30 1671 H 160.653 -0.431772 0.705338 0
M  V30 1672 H 163.199 -0.161487 1.6893 0
M  V30 1673 H 161.971 -0.701715 3.84957 0
M  V30 1674 H 161.594 -2.30471 3.23989 0
M  V30 1675 N 162.591 -1.51276 -0.441967 0
M  V30 1676 C 163.554 -1.7167 -1.51862 0
M  V30 1677 C 164.554 -0.586793 -1.49711 0
M  V30 1678 O 165.744 -0.854276 -1.51815 0
M  V30 1679 C 162.876 -1.76889 -2.91416 0
M  V30 1680 H 164.069 -2.67754 -1.35084 0
M  V30 1681 H 161.622 -1.41196 -0.670333 0
M  V30 1682 H 162.357 -0.826026 -3.13604 0
M  V30 1683 H 162.142 -2.59001 -2.94382 0
M  V30 1684 H 163.632 -1.94522 -3.69528 0
M  V30 1685 N 164.069 0.697108 -1.41344 0
M  V30 1686 C 165.002 1.82134 -1.37486 0
M  V30 1687 C 165.98 1.60784 -0.242351 0
M  V30 1688 O 167.164 1.83553 -0.429012 0
M  V30 1689 C 164.291 3.18788 -1.14421 0
M  V30 1690 C 163.337 3.58932 -2.3037 0
M  V30 1691 S 164.17 3.63916 -3.92843 0
M  V30 1692 C 165.326 5.03298 -3.72078 0
M  V30 1693 H 165.559 1.85129 -2.32625 0
M  V30 1694 H 163.092 0.865671 -1.2785 0
M  V30 1695 H 165.05 3.97677 -1.018 0
M  V30 1696 H 163.711 3.13404 -0.20905 0
M  V30 1697 H 162.904 4.58202 -2.09922 0
M  V30 1698 H 162.506 2.87347 -2.39391 0
M  V30 1699 H 164.798 5.90753 -3.31688 0
M  V30 1700 H 165.741 5.28788 -4.70945 0
M  V30 1701 H 166.149 4.74764 -3.05384 0
M  V30 1702 N 165.547 1.27147 0.931209 0
M  V30 1703 C 166.51 1.09615 2.01289 0
M  V30 1704 C 167.51 0.0412581 1.60747 0
M  V30 1705 O 168.7 0.285545 1.71844 0
M  V30 1706 C 165.832 0.669447 3.34262 0
M  V30 1707 H 167.025 2.05662 2.18273 0
M  V30 1708 H 164.578 1.09885 1.11153 0
M  V30 1709 H 165.313 -0.292572 3.22978 0
M  V30 1710 H 165.098 1.43127 3.65044 0
M  V30 1711 H 166.588 0.568921 4.13706 0
M  V30 1712 N 167.025 -1.13721 1.09112 0
M  V30 1713 C 168.274 -1.84275 0.82009 0
M  V30 1714 C 168.587 -1.84253 -0.656509 0
M  V30 1715 O 169.793 -2.50668 -1.04296 0
M  V30 1716 C 168.249 -3.30825 1.41714 0
M  V30 1717 C 167.857 -3.39244 2.92605 0
M  V30 1718 C 169.601 -4.06443 1.22492 0
M  V30 1719 C 167.508 -4.80047 3.45411 0
M  V30 1720 H 166.438 -0.690387 0.30312 0
M  V30 1721 H 169.089 -1.28146 1.31343 0
M  V30 1722 H 167.471 -3.86737 0.851498 0
M  V30 1723 H 168.645 -2.93344 3.55367 0
M  V30 1724 H 166.96 -2.77088 3.10823 0
M  V30 1725 H 169.557 -5.10387 1.59402 0
M  V30 1726 H 169.9 -4.15972 0.165299 0
M  V30 1727 H 170.433 -3.56852 1.75788 0
M  V30 1728 H 167.172 -4.75709 4.50978 0
M  V30 1729 H 166.692 -5.26455 2.87411 0
M  V30 1730 H 168.371 -5.48957 3.42425 0
M  V30 1731 N 168.503 -0.877838 -1.30888 0
M  V30 1732 C 169.751 -0.491723 -1.96027 0
M  V30 1733 C 170.072 0.960827 -1.69685 0
M  V30 1734 O 169.342 1.67462 -1.01654 0
M  V30 1735 H 167.922 -0.17885 -0.725273 0
M  V30 1736 H 170.584 -1.11935 -1.59551 0
M  V30 1737 H 169.68 -0.656016 -3.05128 0
M  V30 1738 N 169.982 1.44106 -0.638065 0
M  V30 1739 C 170.93 2.3248 0.0748149 0
M  V30 1740 C 171.924 1.47746 0.828702 0
M  V30 1741 O 173.13 1.64049 0.740816 0
M  V30 1742 H 169.505 0.750771 0.0429686 0
M  V30 1743 H 171.476 2.90348 -0.688504 0
M  V30 1744 C 170.225 3.31843 1.03805 0
M  V30 1745 H 169.548 3.97059 0.467375 0
M  V30 1746 H 170.988 3.96345 1.50622 0
M  V30 1747 C 169.447 2.61291 2.1267 0
M  V30 1748 O 169.977 2.41702 3.20847 0
M  V30 1749 N 168.183 2.20915 1.88798 0
M  V30 1750 H 167.73 2.37047 1.00829 0
M  V30 1751 H 167.688 1.74038 2.61836 0
M  V30 1752 N 171.46 0.379036 1.52974 0
M  V30 1753 C 172.41 -0.477772 2.22938 0
M  V30 1754 C 173.394 -1.03792 1.22948 0
M  V30 1755 O 174.586 -0.965725 1.48333 0
M  V30 1756 C 171.715 -1.60994 3.03209 0
M  V30 1757 C 170.801 -1.06203 4.10587 0
M  V30 1758 N 171.192 -0.238214 5.05239 0
M  V30 1759 C 169.49 -1.33554 4.25534 0
M  V30 1760 C 170.191 0.0633235 5.81666 0
M  V30 1761 N 169.167 -0.537901 5.40932 0
M  V30 1762 H 172.969 0.158295 2.93473 0
M  V30 1763 H 170.483 0.187778 1.61311 0
M  V30 1764 H 172.48 -2.23607 3.5186 0
M  V30 1765 H 171.14 -2.24893 2.34207 0
M  V30 1766 H 172.151 0.123695 5.17752 0
M  V30 1767 H 168.828 -1.97632 3.6776 0
M  V30 1768 H 170.218 0.730161 6.67921 0
M  V30 1769 N 172.938 -1.57226 0.108567 0
M  V30 1770 C 173.848 -2.18292 -0.859401 0
M  V30 1771 C 174.864 -1.15612 -1.30038 0
M  V30 1772 O 176.04 -1.48039 -1.36552 0
M  V30 1773 C 173.105 -2.762 -2.09558 0
M  V30 1774 C 172.166 -3.93881 -1.70752 0
M  V30 1775 C 171.399 -4.49018 -2.88477 0
M  V30 1776 O 171.622 -4.03068 -4.036 0
M  V30 1777 O 170.556 -5.39852 -2.66164 0
M  V30 1778 H 174.382 -3.01441 -0.369769 0
M  V30 1779 H 171.967 -1.48945 -0.1165 0
M  V30 1780 H 173.849 -3.13156 -2.81978 0
M  V30 1781 H 172.524 -1.96089 -2.57548 0
M  V30 1782 H 171.431 -3.61713 -0.954714 0
M  V30 1783 H 172.764 -4.75396 -1.27513 0
M  V30 1784 N 174.416 0.165178 -1.56732 0
M  V30 1785 C 175.663 0.880807 -1.8234 0
M  V30 1786 C 175.991 1.81977 -0.686621 0
M  V30 1787 O 175.246 1.92971 0.325697 0
M  V30 1788 C 175.545 1.70405 -3.1416 0
M  V30 1789 C 175.211 0.913475 -4.4155 0
M  V30 1790 C 173.873 0.695303 -4.7615 0
M  V30 1791 C 176.225 0.359349 -5.1996 0
M  V30 1792 C 173.553 -0.0879947 -5.86634 0
M  V30 1793 C 175.905 -0.410893 -6.31264 0
M  V30 1794 C 174.569 -0.639808 -6.64427 0
M  V30 1795 H 173.839 0.32231 -0.667231 0
M  V30 1796 H 176.486 0.145402 -1.90947 0
M  V30 1797 H 174.791 2.50903 -3.00923 0
M  V30 1798 H 176.488 2.26091 -3.31186 0
M  V30 1799 H 173.078 1.09357 -4.14414 0
M  V30 1800 H 177.262 0.515228 -4.93618 0
M  V30 1801 H 172.518 -0.27503 -6.10781 0
M  V30 1802 H 176.692 -0.847494 -6.91224 0
M  V30 1803 H 174.319 -1.24864 -7.49875 0
M  V30 1804 N 175.894 1.51508 0.433938 0
M  V30 1805 C 177.171 1.54888 1.19453 0
M  V30 1806 C 177.551 0.315154 2.08734 0
M  V30 1807 O 176.899 -0.699558 2.17528 0
M  V30 1808 C 177.109 2.86467 1.99342 0
M  V30 1809 C 178.457 3.38545 2.56267 0
M  V30 1810 O 179.481 2.88041 2.0955 0
M  V30 1811 O 178.34 4.26675 3.41483 0
M  V30 1812 H 175.434 0.622863 0.544032 0
M  V30 1813 H 177.98 1.63823 0.442732 0
M  V30 1814 H 176.752 3.67718 1.33788 0
M  V30 1815 H 176.375 2.8071 2.8158 0
M  V30 1816 N 177.372 -0.689602 1.41712 0
M  V30 1817 C 178.32 -1.82475 1.44242 0
M  V30 1818 C 179.314 -1.66354 0.319774 0
M  V30 1819 O 180.52 -1.73143 0.492089 0
M  V30 1820 H 176.895 -0.601416 0.451445 0
M  V30 1821 H 178.866 -1.77458 2.39899 0
M  V30 1822 C 177.615 -3.20535 1.3473 0
M  V30 1823 H 176.938 -3.33559 2.20405 0
M  V30 1824 H 178.378 -4.00023 1.40562 0
M  V30 1825 C 176.837 -3.36846 0.0603281 0
M  V30 1826 O 177.367 -3.91656 -0.892663 0
M  V30 1827 N 175.573 -2.90595 -0.0177039 0
M  V30 1828 H 175.12 -2.46178 0.758572 0
M  V30 1829 H 175.078 -3.01886 -0.878201 0
M  V30 1830 N 178.85 -1.27639 -0.924453 0
M  V30 1831 C 180.261 -1.12834 -1.48746 0
M  V30 1832 C 180.612 0.285505 -1.94112 0
M  V30 1833 O 179.737 1.17874 -1.81479 0
M  V30 1834 C 180.332 -2.04217 -2.70334 0
M  V30 1835 C 178.891 -1.93509 -3.22848 0
M  V30 1836 C 178.038 -1.96583 -1.95577 0
M  V30 1837 H 180.989 -1.40484 -0.738233 0
M  V30 1838 H 181.01 -1.59989 -3.4523 0
M  V30 1839 H 180.522 -3.07111 -2.37285 0
M  V30 1840 H 178.623 -0.936131 -3.60649 0
M  V30 1841 H 178.736 -2.79917 -3.88823 0
M  V30 1842 H 177.1 -1.4085 -2.12211 0
M  V30 1843 H 177.883 -3.01137 -1.64837 0
M  V30 1844 N 180.328 1.1314 -1.09713 0
M  V30 1845 C 181.258 2.20748 -0.761102 0
M  V30 1846 C 182.239 1.68061 0.262566 0
M  V30 1847 O 183.424 1.93765 0.129977 0
M  V30 1848 C 180.554 3.46812 -0.184054 0
M  V30 1849 C 179.508 4.12606 -1.13757 0
M  V30 1850 C 178.834 5.33031 -0.422083 0
M  V30 1851 C 180.134 4.59603 -2.48118 0
M  V30 1852 H 181.828 2.49113 -1.66082 0
M  V30 1853 H 179.374 1.19734 -0.799987 0
M  V30 1854 H 181.327 4.21353 0.0631215 0
M  V30 1855 H 180.051 3.17851 0.750868 0
M  V30 1856 H 178.71 3.40036 -1.37007 0
M  V30 1857 H 178.358 5.00335 0.517072 0
M  V30 1858 H 178.058 5.77999 -1.05788 0
M  V30 1859 H 179.582 6.10325 -0.183277 0
M  V30 1860 H 180.996 5.25552 -2.29059 0
M  V30 1861 H 179.393 5.15321 -3.07514 0
M  V30 1862 H 180.463 3.73971 -3.08665 0
M  V30 1863 N 181.806 0.884767 1.30421 0
M  V30 1864 C 183.034 0.518044 2.0031 0
M  V30 1865 C 183.449 -0.893408 1.66324 0
M  V30 1866 O 182.806 -1.5875 0.900262 0
M  V30 1867 C 182.857 0.682997 3.54989 0
M  V30 1868 O 182.578 2.03888 3.87764 0
M  V30 1869 C 184.079 0.31924 4.42149 0
M  V30 1870 H 181.299 0.200265 0.640418 0
M  V30 1871 H 183.843 1.19001 1.6631 0
M  V30 1872 H 181.998 0.0584052 3.87356 0
M  V30 1873 H 182.412 2.05735 4.82466 0
M  V30 1874 H 183.886 0.485555 5.4986 0
M  V30 1875 H 184.363 -0.742717 4.32875 0
M  V30 1876 H 184.969 0.920147 4.15227 0
M  V30 1877 N 183.284 -1.43765 0.645699 0
M  V30 1878 C 184.53 -2.02197 0.156271 0
M  V30 1879 C 184.863 -1.50776 -1.22393 0
M  V30 1880 O 184.138 -0.697771 -1.81553 0
M  V30 1881 C 184.421 -3.59749 0.158872 0
M  V30 1882 C 184.274 -4.21419 1.57245 0
M  V30 1883 C 185.593 -4.37149 -0.50879 0
M  V30 1884 H 182.712 -0.734694 0.0582602 0
M  V30 1885 H 185.354 -1.71157 0.824951 0
M  V30 1886 H 183.504 -3.86325 -0.410525 0
M  V30 1887 H 185.176 -4.059 2.19186 0
M  V30 1888 H 183.419 -3.78356 2.122 0
M  V30 1889 H 184.09 -5.30482 1.52619 0
M  V30 1890 H 186.566 -4.16093 -0.024412 0
M  V30 1891 H 185.442 -5.4683 -0.476213 0
M  V30 1892 H 185.703 -4.12839 -1.58165 0
M  V30 1893 N 184.763 -0.387143 -1.52771 0
M  V30 1894 C 185.693 0.440551 -2.29306 0
M  V30 1895 C 186.674 1.06535 -1.32606 0
M  V30 1896 O 187.859 1.07853 -1.61497 0
M  V30 1897 C 184.989 1.56919 -3.09829 0
M  V30 1898 C 183.943 1.07054 -4.14395 0
M  V30 1899 C 183.269 2.29109 -4.83129 0
M  V30 1900 C 184.569 0.140015 -5.22112 0
M  V30 1901 H 186.263 -0.198026 -2.98744 0
M  V30 1902 H 183.809 -0.09668 -1.43675 0
M  V30 1903 H 185.762 2.15503 -3.62128 0
M  V30 1904 H 184.486 2.23532 -2.3812 0
M  V30 1905 H 183.145 0.507247 -3.63074 0
M  V30 1906 H 182.793 2.94227 -4.0797 0
M  V30 1907 H 182.493 1.96406 -5.53804 0
M  V30 1908 H 184.017 2.88339 -5.38231 0
M  V30 1909 H 185.431 0.633978 -5.69784 0
M  V30 1910 H 183.828 -0.0971485 -6.00021 0
M  V30 1911 H 184.898 -0.811711 -4.78058 0
M  V30 1912 N 186.241 1.57166 -0.116904 0
M  V30 1913 C 187.657 1.5779 0.239693 0
M  V30 1914 C 187.857 1.1295 1.66867 0
M  V30 1915 O 186.913 0.81592 2.38954 0
M  V30 1916 C 188.226 3.00699 0.00828202 0
M  V30 1917 C 189.774 3.12912 0.0743438 0
M  V30 1918 C 190.249 4.57817 -0.129348 0
M  V30 1919 N 191.74 4.63139 -0.075247 0
M  V30 1920 C 192.475 5.73023 -0.207788 0
M  V30 1921 N 191.971 6.91665 -0.396382 0
M  V30 1922 N 193.764 5.61906 -0.14751 0
M  V30 1923 H 185.915 1.84615 -1.05029 0
M  V30 1924 H 188.178 0.85311 -0.41341 0
M  V30 1925 H 187.884 3.37784 -0.979531 0
M  V30 1926 H 187.758 3.69848 0.741077 0
M  V30 1927 H 190.145 2.75686 1.05268 0
M  V30 1928 H 190.226 2.4631 -0.690297 0
M  V30 1929 H 189.87 4.95742 -1.10465 0
M  V30 1930 H 189.8 5.22507 0.655253 0
M  V30 1931 H 192.291 3.7784 0.0670898 0
M  V30 1932 H 192.604 7.71255 -0.488437 0
M  V30 1933 H 190.949 6.93654 -0.432329 0
M  V30 1934 H 194.14 4.681 -0.00115036 0
M  V30 1935 H 194.313 6.47501 -0.254247 0
M  V30 1936 N 187.719 -0.156864 1.56817 0
M  V30 1937 C 188.651 -1.21883 1.94106 0
M  V30 1938 C 189.664 -1.3971 0.835754 0
M  V30 1939 O 190.853 -1.39457 1.11418 0
M  V30 1940 C 187.953 -2.58527 2.19127 0
M  V30 1941 C 187.126 -2.61809 3.50393 0
M  V30 1942 C 186.185 -3.7992 3.64071 0
M  V30 1943 O 185.211 -3.65249 4.36557 0
M  V30 1944 N 186.413 -4.96973 2.99997 0
M  V30 1945 H 189.178 -0.901974 2.85805 0
M  V30 1946 H 186.739 -0.346513 1.58148 0
M  V30 1947 H 188.731 -3.36034 2.25529 0
M  V30 1948 H 187.301 -2.82545 1.33742 0
M  V30 1949 H 186.521 -1.7029 3.5552 0
M  V30 1950 H 187.809 -2.61024 4.36742 0
M  V30 1951 H 187.207 -5.11794 2.41004 0
M  V30 1952 H 185.764 -5.7229 3.11974 0
M  V30 1953 N 189.197 -1.51736 -0.425897 0
M  V30 1954 C 190.129 -1.70083 -1.53638 0
M  V30 1955 C 191.142 -0.581349 -1.52066 0
M  V30 1956 O 192.331 -0.856017 -1.56635 0
M  V30 1957 C 189.431 -1.71078 -2.9255 0
M  V30 1958 C 188.604 -2.99795 -3.185 0
M  V30 1959 C 187.663 -2.92825 -4.37196 0
M  V30 1960 O 186.689 -3.66756 -4.35291 0
M  V30 1961 N 187.891 -2.0946 -5.41393 0
M  V30 1962 H 190.656 -2.65882 -1.383 0
M  V30 1963 H 188.217 -1.49765 -0.614988 0
M  V30 1964 H 190.209 -1.63969 -3.69995 0
M  V30 1965 H 188.779 -0.828242 -3.01428 0
M  V30 1966 H 187.999 -3.20684 -2.2925 0
M  V30 1967 H 189.287 -3.84977 -3.32671 0
M  V30 1968 H 188.685 -1.48792 -5.45781 0
M  V30 1969 H 187.242 -2.08221 -6.17647 0
M  V30 1970 N 190.675 0.682077 -1.42076 0
M  V30 1971 C 191.585 1.82535 -1.47371 0
M  V30 1972 C 192.601 1.7017 -0.363079 0
M  V30 1973 O 193.777 1.91848 -0.612875 0
M  V30 1974 C 190.842 3.18624 -1.36674 0
M  V30 1975 C 189.903 3.42999 -2.58167 0
M  V30 1976 C 189.136 4.72595 -2.4797 0
M  V30 1977 O 189.359 5.50006 -1.5116 0
M  V30 1978 O 188.293 4.98054 -3.37974 0
M  V30 1979 H 192.119 1.81023 -2.43853 0
M  V30 1980 H 189.704 0.836887 -1.2376 0
M  V30 1981 H 191.586 3.99847 -1.33043 0
M  V30 1982 H 190.261 3.20789 -0.433138 0
M  V30 1983 H 189.168 2.61653 -2.67373 0
M  V30 1984 H 190.501 3.45659 -3.50401 0
M  V30 1985 N 192.153 1.28127 0.917671 0
M  V30 1986 C 193.1 1.11717 2.0196 0
M  V30 1987 C 194.07 0.0153929 1.66093 0
M  V30 1988 O 195.255 0.179596 1.89953 0
M  V30 1989 C 192.395 0.780927 3.36148 0
M  V30 1990 C 191.508 1.96135 3.84909 0
M  V30 1991 C 190.643 1.56609 5.0759 0
M  V30 1992 C 189.682 2.71339 5.48673 0
M  V30 1993 N 188.819 2.32332 6.62545 0
M  V30 1994 H 193.659 2.06003 2.15329 0
M  V30 1995 H 191.196 1.02535 1.05475 0
M  V30 1996 H 193.154 0.56675 4.13333 0
M  V30 1997 H 191.784 -0.124998 3.22558 0
M  V30 1998 H 190.836 2.28777 3.03916 0
M  V30 1999 H 192.148 2.82165 4.1132 0
M  V30 2000 H 191.302 1.31374 5.92305 0
M  V30 2001 H 190.041 0.677014 4.82978 0
M  V30 2002 H 189.046 2.97276 4.62501 0
M  V30 2003 H 190.271 3.60882 5.75274 0
M  V30 2004 H 188.217 1.45889 6.39572 0
M  V30 2005 H 188.134 3.11899 6.88662 0
M  V30 2006 H 189.402 2.10371 7.50576 0
M  V30 2007 N 193.631 -1.12557 1.10312 0
M  V30 2008 C 194.877 -1.84515 0.855901 0
M  V30 2009 C 195.232 -1.82409 -0.611936 0
M  V30 2010 O 194.525 -1.25778 -1.44535 0
M  V30 2011 C 194.719 -3.31462 1.33669 0
M  V30 2012 C 194.548 -3.47879 2.84974 0
M  V30 2013 C 193.318 -3.61589 3.52961 0
M  V30 2014 C 195.516 -3.43152 3.83081 0
M  V30 2015 N 193.498 -3.66359 4.926 0
M  V30 2016 C 194.869 -3.54401 5.08724 0
M  V30 2017 C 196.924 -3.2661 3.75807 0
M  V30 2018 C 195.627 -3.50815 6.2795 0
M  V30 2019 C 197.653 -3.24335 4.94531 0
M  V30 2020 C 197.015 -3.36144 6.19021 0
M  V30 2021 H 193.114 -0.690967 0.366182 0
M  V30 2022 H 195.698 -1.34763 1.40524 0
M  V30 2023 H 193.869 -3.7976 0.814686 0
M  V30 2024 H 195.601 -3.91272 1.03385 0
M  V30 2025 H 192.356 -3.63652 3.03404 0
M  V30 2026 H 192.78 -3.72411 5.65366 0
M  V30 2027 H 197.422 -3.16375 2.80476 0
M  V30 2028 H 195.14 -3.5982 7.23571 0
M  V30 2029 H 198.726 -3.12719 4.9061 0
M  V30 2030 H 197.606 -3.34357 7.09348 0
M  V30 2031 N 195.109 -0.891671 -1.2995 0
M  V30 2032 C 196.072 -0.36828 -2.26222 0
M  V30 2033 C 197.072 0.493014 -1.53056 0
M  V30 2034 O 198.262 0.299213 -1.71611 0
M  V30 2035 C 195.394 0.47442 -3.37583 0
M  V30 2036 H 196.587 -1.21844 -2.74033 0
M  V30 2037 H 194.14 -0.669107 -1.41254 0
M  V30 2038 H 194.875 1.34489 -2.95099 0
M  V30 2039 H 194.66 -0.142615 -3.91841 0
M  V30 2040 H 196.15 0.83218 -4.09224 0
M  V30 2041 N 196.587 1.43421 -0.653314 0
M  V30 2042 C 197.534 2.30768 0.0382271 0
M  V30 2043 C 198.504 1.44755 0.814576 0
M  V30 2044 O 199.689 1.73624 0.791162 0
M  V30 2045 C 196.829 3.30336 0.998599 0
M  V30 2046 C 195.942 4.31448 0.218342 0
M  V30 2047 C 195.077 5.18098 1.17252 0
M  V30 2048 C 194.116 6.10902 0.382702 0
M  V30 2049 N 193.253 6.90176 1.28848 0
M  V30 2050 H 198.093 2.89357 -0.712511 0
M  V30 2051 H 195.63 1.42548 -0.363128 0
M  V30 2052 H 197.588 3.86572 1.56901 0
M  V30 2053 H 196.218 2.73397 1.71621 0
M  V30 2054 H 195.27 3.77506 -0.46836 0
M  V30 2055 H 196.582 4.97227 -0.395812 0
M  V30 2056 H 195.736 5.7896 1.81356 0
M  V30 2057 H 194.475 4.52444 1.82058 0
M  V30 2058 H 193.48 5.49128 -0.27169 0
M  V30 2059 H 194.705 6.78598 -0.260957 0
M  V30 2060 H 192.651 6.27171 1.92334 0
M  V30 2061 H 192.568 7.52478 0.728887 0
M  V30 2062 H 193.836 7.55543 1.91766 0
M  V30 2063 N 198.065 0.39524 1.52563 0
M  V30 2064 C 199.312 -0.185044 2.01653 0
M  V30 2065 C 199.64 -1.46317 1.28146 0
M  V30 2066 O 198.895 -1.9213 0.372074 0
M  V30 2067 C 199.194 -0.493444 3.53977 0
M  V30 2068 C 198.86 0.69384 4.4553 0
M  V30 2069 C 197.522 1.01954 4.70275 0
M  V30 2070 C 199.874 1.48785 4.99512 0
M  V30 2071 C 197.202 2.14069 5.46252 0
M  V30 2072 C 199.554 2.59965 5.76716 0
M  V30 2073 C 198.218 2.93037 5.99738 0
M  V30 2074 H 197.488 -0.0677123 0.7379 0
M  V30 2075 H 200.135 0.533807 1.8391 0
M  V30 2076 H 198.44 -1.29369 3.69825 0
M  V30 2077 H 200.137 -0.955163 3.89458 0
M  V30 2078 H 196.727 0.429987 4.26438 0
M  V30 2079 H 200.911 1.24946 4.80315 0
M  V30 2080 H 196.167 2.40056 5.62302 0
M  V30 2081 H 200.341 3.21887 6.17545 0
M  V30 2082 H 197.968 3.8003 6.58393 0
M  V30 2083 N 199.544 -1.57102 0.125237 0
M  V30 2084 C 200.955 -1.82384 -0.399142 0
M  V30 2085 C 201.306 -1.04276 -1.66195 0
M  V30 2086 O 200.431 -0.281269 -2.14564 0
M  V30 2087 C 201.026 -3.30821 -0.730932 0
M  V30 2088 C 199.585 -3.56762 -1.19992 0
M  V30 2089 C 198.732 -2.7649 -0.211792 0
M  V30 2090 H 201.683 -1.54786 0.350277 0
M  V30 2091 H 201.704 -3.4579 -1.58775 0
M  V30 2092 H 201.216 -3.87643 0.188345 0
M  V30 2093 H 199.317 -3.05305 -2.13588 0
M  V30 2094 H 199.43 -4.65317 -1.14093 0
M  V30 2095 H 197.794 -2.4489 -0.700085 0
M  V30 2096 H 198.577 -3.36073 0.700691 0
M  V30 2097 N 201.022 0.148545 -1.56898 0
M  V30 2098 C 201.952 1.18524 -2.01182 0
M  V30 2099 C 202.933 1.4489 -0.891123 0
M  V30 2100 O 204.118 1.55836 -1.15882 0
M  V30 2101 C 201.248 2.51879 -2.39112 0
M  V30 2102 C 200.202 2.40038 -3.54353 0
M  V30 2103 C 199.528 3.78089 -3.78091 0
M  V30 2104 C 200.828 1.88577 -4.87069 0
M  V30 2105 H 202.522 0.817029 -2.88036 0
M  V30 2106 H 200.068 0.391575 -1.38574 0
M  V30 2107 H 202.021 3.24627 -2.68692 0
M  V30 2108 H 200.745 2.90532 -1.49193 0
M  V30 2109 H 199.404 1.69742 -3.24936 0
M  V30 2110 H 199.052 4.14175 -2.85426 0
M  V30 2111 H 198.752 3.71028 -4.55645 0
M  V30 2112 H 200.276 4.52387 -4.10095 0
M  V30 2113 H 201.69 2.51117 -5.15377 0
M  V30 2114 H 200.087 1.9241 -5.68417 0
M  V30 2115 H 201.157 0.84136 -4.77545 0
M  V30 2116 N 202.5 1.5196 0.417844 0
M  V30 2117 C 203.43 1.77634 1.51554 0
M  V30 2118 C 204.411 0.626918 1.58126 0
M  V30 2119 O 205.596 0.871632 1.7354 0
M  V30 2120 C 202.726 1.91911 2.8946 0
M  V30 2121 C 201.68 3.07463 2.97743 0
M  V30 2122 C 201.006 3.06951 4.37819 0
M  V30 2123 C 202.306 4.47082 2.70027 0
M  V30 2124 H 204 2.6955 1.3032 0
M  V30 2125 H 201.546 1.29706 0.625492 0
M  V30 2126 H 203.499 2.08455 3.6623 0
M  V30 2127 H 202.223 0.966598 3.11969 0
M  V30 2128 H 200.882 2.90656 2.23416 0
M  V30 2129 H 200.53 2.09438 4.57323 0
M  V30 2130 H 200.23 3.84556 4.44286 0
M  V30 2131 H 201.754 3.25613 5.16535 0
M  V30 2132 H 203.168 4.6414 3.36522 0
M  V30 2133 H 201.565 5.2654 2.87881 0
M  V30 2134 H 202.635 4.55777 1.65514 0
M  V30 2135 N 203.978 -0.674533 1.42435 0
M  V30 2136 C 205.203 -1.46784 1.46524 0
M  V30 2137 C 205.628 -1.87938 0.078066 0
M  V30 2138 O 204.986 -1.56014 -0.92354 0
M  V30 2139 C 205.034 -2.69307 2.39805 0
M  V30 2140 O 204.138 -3.67587 1.86959 0
M  V30 2141 H 203.479 -0.440959 0.496439 0
M  V30 2142 H 206.009 -0.827326 1.87127 0
M  V30 2143 H 206.019 -3.17374 2.56393 0
M  V30 2144 H 204.694 -2.38692 3.40586 0
M  V30 2145 H 203.271 -3.2662 1.79927 0
M  V30 2146 N 205.456 -1.28612 -0.910864 0
M  V30 2147 C 206.419 -1.12803 -1.9952 0
M  V30 2148 C 207.419 -0.0668264 -1.60661 0
M  V30 2149 O 208.609 -0.312847 -1.71368 0
M  V30 2150 C 205.741 -0.72254 -3.33155 0
M  V30 2151 H 206.934 -2.09109 -2.14973 0
M  V30 2152 H 204.487 -1.11639 -1.09391 0
M  V30 2153 H 205.222 0.241152 -3.23402 0
M  V30 2154 H 205.007 -1.48916 -3.62721 0
M  V30 2155 H 206.497 -0.634666 -4.12749 0
M  V30 2156 N 206.934 1.1197 -1.10907 0
M  V30 2157 C 207.882 2.19927 -0.757303 0
M  V30 2158 C 208.876 1.67564 0.248747 0
M  V30 2159 O 210.082 1.79672 0.108605 0
M  V30 2160 H 206.457 0.716925 -0.226987 0
M  V30 2161 H 208.428 2.46847 -1.67658 0
M  V30 2162 C 207.177 3.47061 -0.210671 0
M  V30 2163 H 206.5 3.87703 -0.976049 0
M  V30 2164 H 207.94 4.24 -0.0026584 0
M  V30 2165 C 206.399 3.19864 1.05777 0
M  V30 2166 O 206.929 3.40049 2.13845 0
M  V30 2167 N 205.135 2.73636 0.978349 0
M  V30 2168 H 204.682 2.5741 0.0988246 0
M  V30 2169 H 204.64 2.55815 1.82773 0
M  V30 2170 N 208.412 0.89855 1.29475 0
M  V30 2171 C 209.661 0.519863 1.94885 0
M  V30 2172 C 209.974 -0.9383 1.71625 0
M  V30 2173 O 211.18 -1.42445 2.31131 0
M  V30 2174 C 209.636 0.878836 3.49005 0
M  V30 2175 C 209.244 2.35569 3.81066 0
M  V30 2176 C 210.988 0.570004 4.20656 0
M  V30 2177 C 208.895 2.65558 5.28425 0
M  V30 2178 H 207.825 0.190692 0.729488 0
M  V30 2179 H 210.476 1.09539 1.47219 0
M  V30 2180 H 208.858 0.232253 3.95318 0
M  V30 2181 H 210.032 3.04773 3.45616 0
M  V30 2182 H 208.347 2.63343 3.22552 0
M  V30 2183 H 210.944 0.770925 5.29113 0
M  V30 2184 H 211.287 -0.491404 4.1339 0
M  V30 2185 H 211.82 1.17438 3.8007 0
M  V30 2186 H 208.559 3.70493 5.40754 0
M  V30 2187 H 208.079 2.00977 5.65127 0
M  V30 2188 H 209.758 2.51765 5.96006 0
M  V30 2189 N 209.89 -1.43072 0.660911 0
M  V30 2190 C 211.12 -2.05769 0.185153 0
M  V30 2191 C 211.528 -1.49668 -1.15742 0
M  V30 2192 O 210.871 -0.625649 -1.72717 0
M  V30 2193 C 210.933 -3.59489 0.0278237 0
M  V30 2194 C 210.597 -4.38212 1.2969 0
M  V30 2195 C 211.594 -4.69772 2.22734 0
M  V30 2196 C 209.279 -4.7809 1.54063 0
M  V30 2197 C 211.273 -5.40129 3.38437 0
M  V30 2198 C 208.96 -5.4819 2.70058 0
M  V30 2199 C 209.958 -5.79132 3.62071 0
M  V30 2200 O 209.646 -6.47798 4.76039 0
M  V30 2201 H 209.378 -0.669873 0.0908086 0
M  V30 2202 H 211.932 -1.84436 0.90402 0
M  V30 2203 H 210.162 -3.79426 -0.746489 0
M  V30 2204 H 211.851 -4.03862 -0.406275 0
M  V30 2205 H 212.617 -4.39476 2.05149 0
M  V30 2206 H 208.496 -4.53408 0.833215 0
M  V30 2207 H 212.04 -5.64198 4.10277 0
M  V30 2208 H 207.937 -5.77902 2.87574 0
M  V30 2209 H 208.705 -6.66283 4.75404 0
M  V30 2210 N 211.368 -0.403325 -1.52352 0
M  V30 2211 C 212.3 0.4603 -2.2453 0
M  V30 2212 C 213.313 1.01505 -1.27282 0
M  V30 2213 O 214.502 0.914982 -1.53266 0
M  V30 2214 C 211.602 1.65208 -2.95905 0
M  V30 2215 C 210.775 1.22224 -4.19976 0
M  V30 2216 C 209.834 2.28028 -4.74226 0
M  V30 2217 O 208.86 1.88857 -5.36956 0
M  V30 2218 N 210.062 3.6012 -4.55295 0
M  V30 2219 H 212.827 -0.158156 -2.99282 0
M  V30 2220 H 210.388 -0.230402 -1.60252 0
M  V30 2221 H 212.38 2.35541 -3.29093 0
M  V30 2222 H 210.95 2.17658 -2.24374 0
M  V30 2223 H 210.17 0.34725 -3.92668 0
M  V30 2224 H 211.458 0.911924 -5.00561 0
M  V30 2225 H 210.856 3.94698 -4.05253 0
M  V30 2226 H 209.413 4.26447 -4.92936 0
M  V30 2227 N 212.846 1.57033 -0.133567 0
M  V30 2228 C 213.793 2.16074 0.811208 0
M  V30 2229 C 214.763 1.08979 1.2535 0
M  V30 2230 O 215.948 1.36958 1.32843 0
M  V30 2231 C 213.088 2.77595 2.05024 0
M  V30 2232 C 212.201 3.99042 1.65498 0
M  V30 2233 C 211.336 4.48603 2.84479 0
M  V30 2234 C 210.375 5.62547 2.41262 0
M  V30 2235 N 209.512 6.06787 3.53206 0
M  V30 2236 H 214.352 2.96477 0.300906 0
M  V30 2237 H 211.889 1.46462 0.136822 0
M  V30 2238 H 213.847 3.11402 2.77642 0
M  V30 2239 H 212.477 1.99859 2.53488 0
M  V30 2240 H 211.529 3.71302 0.826981 0
M  V30 2241 H 212.841 4.81629 1.29748 0
M  V30 2242 H 211.995 4.84395 3.65303 0
M  V30 2243 H 210.734 3.64995 3.23465 0
M  V30 2244 H 209.739 5.26345 1.58874 0
M  V30 2245 H 210.964 6.47931 2.03377 0
M  V30 2246 H 208.91 5.26117 3.91838 0
M  V30 2247 H 208.827 6.84266 3.21427 0
M  V30 2248 H 210.095 6.4722 4.34427 0
M  V30 2249 N 214.325 -0.140222 1.56975 0
M  V30 2250 C 215.55 -0.870414 1.88251 0
M  V30 2251 C 215.975 -1.73637 0.723312 0
M  V30 2252 O 215.333 -1.78329 -0.32689 0
M  V30 2253 C 215.381 -1.69737 3.18154 0
M  V30 2254 O 214.485 -2.80229 3.02565 0
M  V30 2255 H 213.826 -0.242025 0.61832 0
M  V30 2256 H 216.356 -0.128999 2.04193 0
M  V30 2257 H 216.366 -2.09099 3.50345 0
M  V30 2258 H 215.041 -1.06152 4.02125 0
M  V30 2259 H 213.618 -2.44224 2.81796 0
M  V30 2260 N 215.803 -1.52179 -0.40978 0
M  V30 2261 C 217.031 -1.70054 -1.17853 0
M  V30 2262 C 217.446 -0.409735 -1.843 0
M  V30 2263 O 216.803 0.614183 -1.71855 0
M  V30 2264 C 216.854 -2.83568 -2.24213 0
M  V30 2265 O 216.575 -4.0765 -1.60478 0
M  V30 2266 C 218.076 -3.12947 -3.13973 0
M  V30 2267 H 215.296 -0.569917 -0.354169 0
M  V30 2268 H 217.84 -1.98734 -0.482198 0
M  V30 2269 H 215.995 -2.57409 -2.89516 0
M  V30 2270 H 216.409 -4.70899 -2.30986 0
M  V30 2271 H 217.883 -3.95889 -3.84677 0
M  V30 2272 H 218.36 -2.26472 -3.76307 0
M  V30 2273 H 218.966 -3.40868 -2.5434 0
M  V30 2274 N 217.281 0.66697 -1.42791 0
M  V30 2275 C 218.529 1.42417 -1.43394 0
M  V30 2276 C 218.85 1.94925 -0.0542373 0
M  V30 2277 O 218.12 1.73564 0.908415 0
M  V30 2278 H 216.7 0.528515 -0.527902 0
M  V30 2279 H 219.362 0.787562 -1.78279 0
M  V30 2280 H 218.458 2.27333 -2.13837 0
M  V30 2281 N 218.759 1.29093 0.90403 0
M  V30 2282 C 219.669 1.15727 2.0407 0
M  V30 2283 C 220.685 0.0815308 1.73809 0
M  V30 2284 O 221.861 0.292749 1.99261 0
M  V30 2285 C 218.926 0.830424 3.36608 0
M  V30 2286 C 217.987 1.98955 3.80415 0
M  V30 2287 C 217.22 1.6782 5.06628 0
M  V30 2288 O 217.443 0.597105 5.67266 0
M  V30 2289 O 216.377 2.52486 5.46383 0
M  V30 2290 H 220.203 2.11171 2.18267 0
M  V30 2291 H 217.788 1.08504 1.027 0
M  V30 2292 H 219.67 0.662521 4.16159 0
M  V30 2293 H 218.345 -0.0942678 3.23563 0
M  V30 2294 H 217.252 2.21267 3.01648 0
M  V30 2295 H 218.585 2.89529 3.98037 0
M  V30 2296 N 220.237 -1.11381 1.11499 0
M  V30 2297 C 221.653 -1.35143 0.849031 0
M  V30 2298 C 221.853 -1.94515 -0.525938 0
M  V30 2299 O 220.909 -2.1785 -1.27662 0
M  V30 2300 C 222.222 -2.28249 1.95762 0
M  V30 2301 C 223.77 -2.41812 1.98736 0
M  V30 2302 C 224.245 -3.3824 3.088 0
M  V30 2303 N 225.736 -3.45803 3.08179 0
M  V30 2304 C 226.471 -4.20358 3.89982 0
M  V30 2305 N 225.967 -4.97884 4.8175 0
M  V30 2306 N 227.76 -4.15877 3.78157 0
M  V30 2307 H 219.911 -0.712062 2.00109 0
M  V30 2308 H 222.174 -0.376025 0.870235 0
M  V30 2309 H 221.88 -1.91817 2.94787 0
M  V30 2310 H 221.754 -3.28473 1.85433 0
M  V30 2311 H 224.141 -2.77518 1.00338 0
M  V30 2312 H 224.222 -1.41437 2.13141 0
M  V30 2313 H 223.866 -3.03261 4.07425 0
M  V30 2314 H 223.796 -4.38471 2.91635 0
M  V30 2315 H 226.287 -2.90506 2.41691 0
M  V30 2316 H 226.6 -5.52142 5.40702 0
M  V30 2317 H 224.945 -4.97043 4.85771 0
M  V30 2318 H 228.136 -3.544 3.05808 0
M  V30 2319 H 228.309 -4.73723 4.42143 0
M  V30 2320 N 221.715 -0.905404 -1.28997 0
M  V30 2321 C 222.645 -0.404212 -2.29975 0
M  V30 2322 C 223.626 0.523784 -1.61835 0
M  V30 2323 O 224.811 0.433298 -1.89304 0
M  V30 2324 C 221.941 0.364042 -3.45387 0
M  V30 2325 C 220.895 -0.474048 -4.25367 0
M  V30 2326 C 220.221 0.422045 -5.33032 0
M  V30 2327 C 221.521 -1.72696 -4.92923 0
M  V30 2328 H 223.215 -1.24807 -2.72146 0
M  V30 2329 H 220.761 -0.601585 -1.30832 0
M  V30 2330 H 222.714 0.725447 -4.15109 0
M  V30 2331 H 221.438 1.24174 -3.02074 0
M  V30 2332 H 220.097 -0.81786 -3.57361 0
M  V30 2333 H 219.745 1.29804 -4.85963 0
M  V30 2334 H 219.445 -0.135057 -5.87445 0
M  V30 2335 H 220.969 0.779517 -6.05604 0
M  V30 2336 H 222.383 -1.43495 -5.55051 0
M  V30 2337 H 220.78 -2.22582 -5.57295 0
M  V30 2338 H 221.85 -2.45964 -4.17887 0
M  V30 2339 N 223.193 1.4272 -0.668489 0
M  V30 2340 C 224.44 2.01624 -0.18814 0
M  V30 2341 C 224.768 1.5282 1.20317 0
M  V30 2342 O 224.023 0.718323 1.8204 0
M  V30 2343 C 224.322 3.57021 -0.164499 0
M  V30 2344 C 223.988 4.25232 -1.49962 0
M  V30 2345 C 222.65 4.4358 -1.8652 0
M  V30 2346 C 225.002 4.63727 -2.37921 0
M  V30 2347 C 222.33 4.97694 -3.10674 0
M  V30 2348 C 224.682 5.19218 -3.6138 0
M  V30 2349 C 223.346 5.3578 -3.98115 0
M  V30 2350 H 222.616 0.737795 -0.0688454 0
M  V30 2351 H 225.263 1.70991 -0.862225 0
M  V30 2352 H 223.568 3.87285 0.593079 0
M  V30 2353 H 225.265 4.00372 0.224271 0
M  V30 2354 H 221.855 4.11306 -1.20522 0
M  V30 2355 H 226.039 4.4923 -2.10964 0
M  V30 2356 H 221.295 5.08702 -3.39164 0
M  V30 2357 H 225.469 5.4799 -4.29743 0
M  V30 2358 H 223.096 5.77475 -4.94395 0
M  V30 2359 N 224.671 0.411399 1.52136 0
M  V30 2360 C 225.618 -0.412975 2.27075 0
M  V30 2361 C 226.588 -1.03912 1.29582 0
M  V30 2362 O 227.773 -1.06296 1.58448 0
M  V30 2363 C 224.913 -1.52247 3.09701 0
M  V30 2364 C 224.026 -0.917021 4.22155 0
M  V30 2365 C 223.161 -1.9994 4.92135 0
M  V30 2366 C 222.2 -1.37101 5.96548 0
M  V30 2367 N 221.337 -2.39364 6.60038 0
M  V30 2368 H 226.177 0.232499 2.97092 0
M  V30 2369 H 223.714 0.126496 1.46555 0
M  V30 2370 H 225.672 -2.17674 3.55913 0
M  V30 2371 H 224.302 -2.13794 2.41851 0
M  V30 2372 H 223.354 -0.151742 3.80097 0
M  V30 2373 H 224.666 -0.418006 4.97045 0
M  V30 2374 H 223.82 -2.73088 5.41763 0
M  V30 2375 H 222.559 -2.53208 4.16818 0
M  V30 2376 H 221.564 -0.624873 5.46237 0
M  V30 2377 H 222.789 -0.845998 6.7381 0
M  V30 2378 H 220.735 -2.91759 5.87548 0
M  V30 2379 H 220.652 -1.9428 7.3061 0
M  V30 2380 H 221.92 -3.12074 7.14304 0
M  V30 2381 N 226.149 -1.5696 0.141893 0
M  V30 2382 C 227.56 -1.82797 -0.379776 0
M  V30 2383 C 227.911 -1.06033 -1.6508 0
M  V30 2384 O 227.036 -0.304011 -2.14254 0
M  V30 2385 C 227.631 -3.31578 -0.695802 0
M  V30 2386 C 226.19 -3.58014 -1.16201 0
M  V30 2387 C 225.337 -2.76699 -0.182455 0
M  V30 2388 H 228.288 -1.54406 0.366675 0
M  V30 2389 H 228.309 -3.47454 -1.55099 0
M  V30 2390 H 227.821 -3.87421 0.229449 0
M  V30 2391 H 225.922 -3.07553 -2.10338 0
M  V30 2392 H 226.035 -4.66501 -1.09151 0
M  V30 2393 H 224.399 -2.45618 -0.674072 0
M  V30 2394 H 225.182 -3.35311 0.736297 0
M  V30 2395 N 227.627 0.131896 -1.57047 0
M  V30 2396 C 228.873 0.838268 -1.85323 0
M  V30 2397 C 229.228 1.78098 -0.727937 0
M  V30 2398 O 228.521 1.89645 0.27304 0
M  V30 2399 C 228.715 1.63703 -3.17704 0
M  V30 2400 C 228.544 0.773167 -4.43004 0
M  V30 2401 C 227.314 0.432956 -5.03442 0
M  V30 2402 C 229.512 0.0966216 -5.14209 0
M  V30 2403 N 227.494 -0.442924 -6.123 0
M  V30 2404 C 228.865 -0.638778 -6.16701 0
M  V30 2405 C 230.92 0.018861 -4.97896 0
M  V30 2406 C 229.623 -1.44462 -7.04644 0
M  V30 2407 C 231.649 -0.773762 -5.86316 0
M  V30 2408 C 231.011 -1.4974 -6.883 0
M  V30 2409 H 227.11 0.284086 -0.728573 0
M  V30 2410 H 229.694 0.102731 -1.94429 0
M  V30 2411 H 227.865 2.3437 -3.09718 0
M  V30 2412 H 229.597 2.28774 -3.33833 0
M  V30 2413 H 226.352 0.772237 -4.67262 0
M  V30 2414 H 226.776 -0.872332 -6.71356 0
M  V30 2415 H 231.418 0.56397 -4.19022 0
M  V30 2416 H 229.136 -2.00093 -7.82936 0
M  V30 2417 H 232.722 -0.83612 -5.75761 0
M  V30 2418 H 231.602 -2.10087 -7.55535 0
M  V30 2419 N 229.106 1.52395 0.401703 0
M  V30 2420 C 230.069 1.75636 1.47257 0
M  V30 2421 C 231.069 0.62628 1.48103 0
M  V30 2422 O 232.259 0.894227 1.49497 0
M  V30 2423 C 229.391 1.84553 2.86624 0
M  V30 2424 H 230.584 2.71241 1.27938 0
M  V30 2425 H 228.137 1.42923 0.632662 0
M  V30 2426 H 228.872 0.908882 3.11303 0
M  V30 2427 H 228.657 2.66715 2.87412 0
M  V30 2428 H 230.147 2.04251 3.64241 0
M  V30 2429 N 230.584 -0.659388 1.43143 0
M  V30 2430 C 231.514 -1.78422 1.50625 0
M  V30 2431 C 232.495 -1.66216 0.361443 0
M  V30 2432 O 233.68 -1.85404 0.577834 0
M  V30 2433 C 230.81 -3.16815 1.42287 0
M  V30 2434 C 229.764 -3.43777 2.54954 0
M  V30 2435 C 229.09 -4.81905 2.31671 0
M  V30 2436 C 230.39 -3.39134 3.97222 0
M  V30 2437 H 232.084 -1.72417 2.44771 0
M  V30 2438 H 229.63 -0.828084 1.17808 0
M  V30 2439 H 231.583 -3.95253 1.46127 0
M  V30 2440 H 230.307 -3.23534 0.446435 0
M  V30 2441 H 228.966 -2.67707 2.50457 0
M  V30 2442 H 228.614 -4.85294 1.32284 0
M  V30 2443 H 228.314 -5.00906 3.07192 0
M  V30 2444 H 229.838 -5.62609 2.37284 0
M  V30 2445 H 231.252 -4.07518 4.03239 0
M  V30 2446 H 229.649 -3.69671 4.72719 0
M  V30 2447 H 230.719 -2.37426 4.22797 0
M  V30 2448 N 232.062 -1.29571 -0.897171 0
M  V30 2449 C 233.309 -1.17689 -1.6479 0
M  V30 2450 C 233.637 0.27107 -1.92602 0
M  V30 2451 O 232.892 1.21193 -1.53658 0
M  V30 2452 C 233.191 -1.9382 -3.00281 0
M  V30 2453 C 232.857 -3.43522 -2.92068 0
M  V30 2454 C 231.519 -3.84348 -2.89535 0
M  V30 2455 C 233.871 -4.38906 -2.81089 0
M  V30 2456 C 231.199 -5.18869 -2.73846 0
M  V30 2457 C 233.551 -5.73521 -2.66939 0
M  V30 2458 C 232.215 -6.13601 -2.62774 0
M  V30 2459 H 231.485 -0.430654 -0.603008 0
M  V30 2460 H 234.132 -1.60536 -1.04404 0
M  V30 2461 H 232.437 -1.4357 -3.64547 0
M  V30 2462 H 234.134 -1.82028 -3.57305 0
M  V30 2463 H 230.724 -3.11072 -2.94842 0
M  V30 2464 H 234.908 -4.08315 -2.82121 0
M  V30 2465 H 230.164 -5.4903 -2.69027 0
M  V30 2466 H 234.338 -6.47078 -2.57416 0
M  V30 2467 H 231.965 -7.17786 -2.50375 0
M  V30 2468 N 233.54 1.10788 -1.12088 0
M  V30 2469 C 234.487 2.17025 -0.785407 0
M  V30 2470 C 235.457 1.64265 0.246191 0
M  V30 2471 O 236.642 1.90412 0.121584 0
M  V30 2472 C 233.782 3.44249 -0.242177 0
M  V30 2473 C 232.895 4.1098 -1.33115 0
M  V30 2474 C 232.03 5.25911 -0.747741 0
M  V30 2475 C 231.069 5.84538 -1.81609 0
M  V30 2476 N 230.206 6.90853 -1.25167 0
M  V30 2477 H 235.046 2.45066 -1.69548 0
M  V30 2478 H 232.583 1.20297 -0.846582 0
M  V30 2479 H 234.541 4.17101 0.0908026 0
M  V30 2480 H 233.171 3.16571 0.631072 0
M  V30 2481 H 232.223 3.36133 -1.78097 0
M  V30 2482 H 233.535 4.50601 -2.13917 0
M  V30 2483 H 232.689 6.056 -0.365216 0
M  V30 2484 H 231.428 4.87614 0.0915188 0
M  V30 2485 H 230.433 5.03522 -2.20785 0
M  V30 2486 H 231.658 6.249 -2.6585 0
M  V30 2487 H 229.604 6.54562 -0.434174 0
M  V30 2488 H 229.521 7.29166 -1.99633 0
M  V30 2489 H 230.789 7.7433 -0.896259 0
M  V30 2490 N 235.018 0.912232 1.28515 0
M  V30 2491 C 236.434 0.610159 1.47476 0
M  V30 2492 C 236.634 -0.844955 1.82928 0
M  V30 2493 O 235.69 -1.62416 1.93332 0
M  V30 2494 C 237.003 1.54675 2.57868 0
M  V30 2495 C 238.551 1.55331 2.71738 0
M  V30 2496 C 239.026 2.47649 3.85272 0
M  V30 2497 N 240.517 2.45767 3.92623 0
M  V30 2498 C 241.252 3.13896 4.79851 0
M  V30 2499 N 240.748 3.9135 5.71679 0
M  V30 2500 N 242.541 3.02991 4.73448 0
M  V30 2501 H 234.692 1.85318 1.03783 0
M  V30 2502 H 236.955 0.794777 0.516753 0
M  V30 2503 H 236.661 2.5841 2.38574 0
M  V30 2504 H 236.535 1.27671 3.54937 0
M  V30 2505 H 238.922 0.52335 2.90422 0
M  V30 2506 H 239.003 1.86378 1.75205 0
M  V30 2507 H 238.647 3.50745 3.67342 0
M  V30 2508 H 238.577 2.13904 4.81199 0
M  V30 2509 H 241.068 1.89503 3.26951 0
M  V30 2510 H 241.381 4.40359 6.35062 0
M  V30 2511 H 239.726 3.95455 5.71524 0
M  V30 2512 H 242.917 2.41987 4.007 0
M  V30 2513 H 243.09 3.5636 5.41213 0
M  V30 2514 N 236.496 -1.42363 0.676048 0
M  V30 2515 C 237.428 -2.29164 -0.0404605 0
M  V30 2516 C 238.441 -1.43747 -0.764245 0
M  V30 2517 O 239.63 -1.67453 -0.618195 0
M  V30 2518 C 236.73 -3.21196 -1.08103 0
M  V30 2519 C 235.903 -4.35273 -0.430812 0
M  V30 2520 C 234.962 -5.08017 -1.37133 0
M  V30 2521 O 233.988 -5.62494 -0.87116 0
M  V30 2522 N 235.19 -5.13647 -2.70456 0
M  V30 2523 H 237.955 -2.91298 0.704667 0
M  V30 2524 H 235.516 -1.53303 0.520559 0
M  V30 2525 H 237.508 -3.66728 -1.71152 0
M  V30 2526 H 236.078 -2.60505 -1.72788 0
M  V30 2527 H 235.298 -3.92372 0.379209 0
M  V30 2528 H 236.586 -5.08795 0.0221132 0
M  V30 2529 H 235.984 -4.708 -3.1363 0
M  V30 2530 H 234.541 -5.62821 -3.28749 0
M  V30 2531 N 237.974 -0.419461 -1.51915 0
M  V30 2532 C 239.251 0.211999 -1.94448 0
M  V30 2533 C 239.631 1.61703 -1.35703 0
M  V30 2534 O 238.979 2.22102 -0.536931 0
M  V30 2535 C 239.189 0.207872 -3.4838 0
M  V30 2536 C 240.537 0.422192 -4.22496 0
M  V30 2537 O 241.561 0.286778 -3.55044 0
M  V30 2538 O 240.42 0.690009 -5.42126 0
M  V30 2539 H 237.514 0.139586 -0.815135 0
M  V30 2540 H 240.06 -0.476151 -1.62883 0
M  V30 2541 H 238.832 -0.775102 -3.83546 0
M  V30 2542 H 238.455 0.939688 -3.86336 0
M  V30 2543 N 239.452 1.56882 -0.150215 0
M  V30 2544 C 240.382 2.19935 0.784284 0
M  V30 2545 C 241.363 1.14854 1.25469 0
M  V30 2546 O 242.548 1.43209 1.31168 0
M  V30 2547 C 239.678 2.82349 2.02229 0
M  V30 2548 C 238.632 3.93285 1.68853 0
M  V30 2549 C 237.958 4.42649 2.99944 0
M  V30 2550 C 239.258 5.13904 0.932714 0
M  V30 2551 H 240.952 2.9828 0.258781 0
M  V30 2552 H 238.498 1.43473 0.123029 0
M  V30 2553 H 240.451 3.25126 2.68088 0
M  V30 2554 H 239.175 2.0134 2.57157 0
M  V30 2555 H 237.834 3.5113 1.05371 0
M  V30 2556 H 237.482 3.58458 3.52869 0
M  V30 2557 H 237.182 5.17476 2.78374 0
M  V30 2558 H 238.706 4.88099 3.66868 0
M  V30 2559 H 240.12 5.53506 1.49345 0
M  V30 2560 H 238.517 5.94515 0.81684 0
M  V30 2561 H 239.587 4.84842 -0.0749568 0
M  V30 2562 N 240.93 -0.123565 1.57115 0
M  V30 2563 C 241.877 -1.15177 2.00007 0
M  V30 2564 C 242.847 -1.41403 0.871454 0
M  V30 2565 O 244.032 -1.53346 1.13533 0
M  V30 2566 C 241.172 -2.47436 2.40561 0
M  V30 2567 C 240.285 -2.28184 3.66819 0
M  V30 2568 C 239.42 -3.53641 3.96373 0
M  V30 2569 C 238.459 -3.29528 5.15827 0
M  V30 2570 N 237.596 -4.47175 5.41275 0
M  V30 2571 H 242.436 -0.779008 2.87638 0
M  V30 2572 H 239.973 -0.373166 1.42288 0
M  V30 2573 H 241.931 -3.24584 2.62109 0
M  V30 2574 H 240.561 -2.82614 1.55978 0
M  V30 2575 H 239.613 -1.41976 3.52912 0
M  V30 2576 H 240.925 -2.0634 4.5412 0
M  V30 2577 H 240.079 -4.39209 4.18545 0
M  V30 2578 H 238.818 -3.78512 3.07538 0
M  V30 2579 H 237.823 -2.42349 4.93505 0
M  V30 2580 H 239.048 -3.06031 6.06236 0
M  V30 2581 H 236.994 -4.72175 4.55397 0
M  V30 2582 H 236.911 -4.28419 6.22891 0
M  V30 2583 H 238.179 -5.3389 5.67963 0
M  V30 2584 N 242.408 -1.52605 -0.393616 0
M  V30 2585 C 243.657 -1.66649 -1.13627 0
M  V30 2586 C 243.97 -0.410364 -1.91247 0
M  V30 2587 O 245.176 -0.430854 -2.68059 0
M  V30 2588 C 243.632 -2.9449 -2.06891 0
M  V30 2589 C 243.24 -4.27266 -1.34714 0
M  V30 2590 C 244.984 -3.17899 -2.81319 0
M  V30 2591 C 242.891 -5.46217 -2.26717 0
M  V30 2592 H 241.821 -0.62084 -0.427871 0
M  V30 2593 H 244.472 -1.791 -0.399428 0
M  V30 2594 H 242.854 -2.75774 -2.84191 0
M  V30 2595 H 244.028 -4.56518 -0.626714 0
M  V30 2596 H 242.343 -4.10081 -0.722643 0
M  V30 2597 H 244.94 -4.03949 -3.50328 0
M  V30 2598 H 245.283 -2.32777 -3.45139 0
M  V30 2599 H 245.816 -3.37159 -2.11113 0
M  V30 2600 H 242.555 -6.33733 -1.67521 0
M  V30 2601 H 242.075 -5.21283 -2.96689 0
M  V30 2602 H 243.754 -5.7991 -2.86903 0
M  V30 2603 N 243.887 0.651787 -1.4349 0
M  V30 2604 C 244.85 1.74647 -1.48429 0
M  V30 2605 C 245.85 1.56513 -0.368817 0
M  V30 2606 O 247.04 1.62385 -0.630623 0
M  V30 2607 C 244.172 3.13533 -1.33827 0
M  V30 2608 H 245.365 1.71649 -2.4592 0
M  V30 2609 H 242.918 0.863573 -1.30277 0
M  V30 2610 H 243.653 3.22142 -0.37349 0
M  V30 2611 H 243.438 3.28101 -2.14691 0
M  V30 2612 H 244.928 3.93356 -1.40218 0
M  V30 2613 N 245.365 1.30045 0.890287 0
M  V30 2614 C 246.611 1.18737 1.64406 0
M  V30 2615 C 246.944 -0.258525 1.92472 0
M  V30 2616 O 246.219 -1.18562 1.54186 0
M  V30 2617 C 246.502 2.01087 2.98724 0
M  V30 2618 C 246.355 3.53867 2.77665 0
M  V30 2619 C 247.674 1.84457 3.9958 0
M  V30 2620 H 244.793 0.432698 0.596608 0
M  V30 2621 H 247.435 1.5962 1.0306 0
M  V30 2622 H 245.585 1.66349 3.51084 0
M  V30 2623 H 247.257 3.98637 2.32133 0
M  V30 2624 H 245.5 3.78318 2.12269 0
M  V30 2625 H 246.171 4.06772 3.7315 0
M  V30 2626 H 248.647 2.14817 3.56361 0
M  V30 2627 H 247.523 2.44411 4.91482 0
M  V30 2628 H 247.784 0.802276 4.3476 0
M  V30 2629 N 246.843 -1.10192 1.12674 0
M  V30 2630 C 248.092 -1.81573 0.8783 0
M  V30 2631 C 248.405 -1.86249 -0.597557 0
M  V30 2632 O 249.611 -2.5386 -0.962681 0
M  V30 2633 C 248.067 -3.26149 1.52167 0
M  V30 2634 C 247.675 -3.29763 3.03249 0
M  V30 2635 C 249.419 -4.0234 1.3536 0
M  V30 2636 C 247.326 -4.68815 3.60508 0
M  V30 2637 H 246.256 -0.680394 0.324931 0
M  V30 2638 H 248.907 -1.23902 1.35353 0
M  V30 2639 H 247.289 -3.83832 0.974104 0
M  V30 2640 H 248.463 -2.8189 3.6452 0
M  V30 2641 H 246.778 -2.67059 3.19481 0
M  V30 2642 H 249.375 -5.05058 1.75559 0
M  V30 2643 H 249.718 -4.15235 0.297554 0
M  V30 2644 H 250.251 -3.51079 1.87052 0
M  V30 2645 H 246.99 -4.61121 4.65884 0
M  V30 2646 H 246.51 -5.17045 3.04014 0
M  V30 2647 H 248.189 -5.37785 3.59717 0
M  V30 2648 N 248.321 -0.919034 -1.28029 0
M  V30 2649 C 249.569 -0.553838 -1.94363 0
M  V30 2650 C 249.89 0.906357 -1.72656 0
M  V30 2651 O 249.16 1.64143 -1.0693 0
M  V30 2652 H 247.74 -0.201834 -0.719216 0
M  V30 2653 H 250.402 -1.16954 -1.55909 0
M  V30 2654 H 249.498 -0.752758 -3.02886 0
M  V30 2655 N 249.799 1.42003 -0.683588 0
M  V30 2656 C 250.729 2.33487 -0.024866 0
M  V30 2657 C 251.71 1.51163 0.779975 0
M  V30 2658 O 252.895 1.79739 0.735362 0
M  V30 2659 C 250.025 3.3487 0.920836 0
M  V30 2660 C 248.979 4.27414 0.223958 0
M  V30 2661 C 248.305 5.19074 1.2832 0
M  V30 2662 C 249.605 5.14445 -0.90242 0
M  V30 2663 H 251.299 2.88819 -0.788921 0
M  V30 2664 H 248.845 1.38873 -0.38083 0
M  V30 2665 H 250.798 3.97787 1.39081 0
M  V30 2666 H 249.522 2.77861 1.71642 0
M  V30 2667 H 248.181 3.65904 -0.225864 0
M  V30 2668 H 247.829 4.58387 2.071 0
M  V30 2669 H 247.529 5.81822 0.821995 0
M  V30 2670 H 249.053 5.84867 1.75392 0
M  V30 2671 H 250.467 5.70998 -0.513272 0
M  V30 2672 H 248.864 5.86072 -1.28997 0
M  V30 2673 H 249.934 4.52322 -1.74737 0
M  V30 2674 N 251.277 0.427512 1.51691 0
M  V30 2675 C 252.505 -0.141191 2.06418 0
M  V30 2676 C 252.92 -1.37303 1.29589 0
M  V30 2677 O 252.277 -1.79059 0.352732 0
M  V30 2678 C 252.328 -0.473266 3.58389 0
M  V30 2679 O 252.049 0.709673 4.32314 0
M  V30 2680 C 253.55 -1.09371 4.29596 0
M  V30 2681 H 250.77 -0.0122747 0.670888 0
M  V30 2682 H 253.314 0.603764 1.95384 0
M  V30 2683 H 251.469 -1.16812 3.69369 0
M  V30 2684 H 251.883 0.42807 5.2275 0
M  V30 2685 H 253.357 -1.27613 5.37046 0
M  V30 2686 H 253.834 -2.072 3.87253 0
M  V30 2687 H 254.44 -0.43853 4.23033 0
M  V30 2688 N 252.755 -1.56801 0.158532 0
M  V30 2689 C 253.983 -2.00859 -0.496303 0
M  V30 2690 C 254.398 -1.03871 -1.57659 0
M  V30 2691 O 253.755 -0.0375165 -1.82461 0
M  V30 2692 C 253.806 -3.4479 -1.08638 0
M  V30 2693 O 253.527 -4.38072 -0.0492322 0
M  V30 2694 C 255.028 -4.04185 -1.8207 0
M  V30 2695 H 252.248 -0.65864 -0.128199 0
M  V30 2696 H 254.792 -2.02885 0.256506 0
M  V30 2697 H 252.947 -3.43579 -1.78975 0
M  V30 2698 H 253.361 -5.2227 -0.483102 0
M  V30 2699 H 254.835 -5.06857 -2.18633 0
M  V30 2700 H 255.312 -3.45549 -2.71095 0
M  V30 2701 H 255.918 -4.0906 -1.16405 0
M  V30 2702 N 254.233 0.115231 -1.57178 0
M  V30 2703 C 255.51 0.852873 -1.76027 0
M  V30 2704 C 255.89 1.97892 -0.73498 0
M  V30 2705 O 255.238 2.27232 0.24036 0
M  V30 2706 C 255.448 1.36608 -3.21153 0
M  V30 2707 C 256.796 1.81692 -3.83762 0
M  V30 2708 O 257.82 1.46278 -3.24779 0
M  V30 2709 O 256.679 2.47104 -4.87444 0
M  V30 2710 H 253.773 0.405296 -0.720877 0
M  V30 2711 H 256.319 0.0986785 -1.69413 0
M  V30 2712 H 255.091 0.558357 -3.87296 0
M  V30 2713 H 254.714 2.18287 -3.3232 0
M  V30 2714 N 255.711 1.52812 0.385517 0
M  V30 2715 C 256.988 1.5861 1.14465 0
M  V30 2716 C 257.368 0.381402 2.07626 0
M  V30 2717 O 256.716 -0.629999 2.19643 0
M  V30 2718 C 256.926 2.92664 1.90128 0
M  V30 2719 C 258.274 3.46526 2.45367 0
M  V30 2720 O 259.298 2.94562 2.0028 0
M  V30 2721 O 258.157 4.37323 3.27736 0
M  V30 2722 H 255.251 0.639855 0.523941 0
M  V30 2723 H 257.797 1.65149 0.390389 0
M  V30 2724 H 256.569 3.71788 1.22022 0
M  V30 2725 H 256.192 2.89527 2.72507 0
M  V30 2726 N 257.189 -0.644168 1.43834 0
M  V30 2727 C 258.417 -1.43147 1.49387 0
M  V30 2728 C 258.832 -1.88452 0.114583 0
M  V30 2729 O 258.189 -1.60047 -0.876989 0
M  V30 2730 C 258.24 -2.66046 2.44748 0
M  V30 2731 O 257.961 -2.22633 3.77314 0
M  V30 2732 C 259.462 -3.59311 2.59635 0
M  V30 2733 H 256.682 -0.439447 0.507077 0
M  V30 2734 H 259.226 -0.78895 1.88669 0
M  V30 2735 H 257.381 -3.26418 2.08638 0
M  V30 2736 H 257.795 -3.02216 4.28679 0
M  V30 2737 H 259.269 -4.42187 3.30416 0
M  V30 2738 H 259.746 -4.07259 1.64427 0
M  V30 2739 H 260.352 -3.04816 2.96593 0
M  V30 2740 N 258.668 -1.30515 -0.883378 0
M  V30 2741 C 259.631 -1.1701 -1.97082 0
M  V30 2742 C 260.631 -0.10089 -1.60483 0
M  V30 2743 O 261.821 -0.349127 -1.70666 0
M  V30 2744 C 258.953 -0.793045 -3.31547 0
M  V30 2745 H 260.146 -2.13622 -2.10489 0
M  V30 2746 H 257.699 -1.13935 -1.06998 0
M  V30 2747 H 258.434 0.172499 -3.23841 0
M  V30 2748 H 258.219 -1.56576 -3.5948 0
M  V30 2749 H 259.709 -0.722073 -4.1131 0
M  V30 2750 N 260.146 1.09593 -1.13257 0
M  V30 2751 C 261.093 2.1618 -0.808381 0
M  V30 2752 C 262.063 1.64517 0.228754 0
M  V30 2753 O 263.248 1.9053 0.101381 0
M  V30 2754 C 260.388 3.43973 -0.278675 0
M  V30 2755 C 259.501 4.09545 -1.37466 0
M  V30 2756 C 258.636 5.25088 -0.803479 0
M  V30 2757 C 257.675 5.82579 -1.87799 0
M  V30 2758 N 256.812 6.89486 -1.32488 0
M  V30 2759 H 261.652 2.43254 -1.72138 0
M  V30 2760 H 259.189 1.19392 -0.859294 0
M  V30 2761 H 261.147 4.17174 0.0465583 0
M  V30 2762 H 259.777 3.17223 0.597459 0
M  V30 2763 H 258.829 3.34226 -1.81652 0
M  V30 2764 H 260.141 4.48307 -2.18684 0
M  V30 2765 H 259.295 6.05178 -0.429427 0
M  V30 2766 H 258.034 4.87684 0.0397956 0
M  V30 2767 H 257.039 5.01152 -2.26113 0
M  V30 2768 H 258.264 6.22045 -2.72463 0
M  V30 2769 H 256.21 6.54064 -0.503575 0
M  V30 2770 H 256.127 7.27007 -2.07355 0
M  V30 2771 H 257.395 7.73336 -0.978336 0
M  V30 2772 N 261.624 0.925811 1.2754 0
M  V30 2773 C 262.873 0.561084 1.93739 0
M  V30 2774 C 263.186 -0.901685 1.73577 0
M  V30 2775 O 264.392 -1.37511 2.34101 0
M  V30 2776 C 262.848 0.952668 3.47062 0
M  V30 2777 C 262.456 2.43599 3.75983 0
M  V30 2778 C 264.2 0.659103 4.19352 0
M  V30 2779 C 262.107 2.76707 5.22673 0
M  V30 2780 H 261.037 0.206122 0.725279 0
M  V30 2781 H 263.688 1.12637 1.44863 0
M  V30 2782 H 262.07 0.316053 3.94737 0
M  V30 2783 H 263.244 3.12035 3.39073 0
M  V30 2784 H 261.559 2.70125 3.16893 0
M  V30 2785 H 264.156 0.882985 5.27359 0
M  V30 2786 H 264.499 -0.403607 4.14339 0
M  V30 2787 H 265.032 1.25473 3.77494 0
M  V30 2788 H 261.771 3.8188 5.32774 0
M  V30 2789 H 261.291 2.12919 5.60737 0
M  V30 2790 H 262.97 2.6435 5.90532 0
M  V30 2791 N 263.102 -1.41638 0.69111 0
M  V30 2792 C 264.35 -2.00902 0.219758 0
M  V30 2793 C 264.671 -1.54994 -1.18329 0
M  V30 2794 O 263.941 -0.778628 -1.79762 0
M  V30 2795 H 262.521 -0.74289 0.0782558 0
M  V30 2796 H 265.183 -1.73327 0.891271 0
M  V30 2797 H 264.279 -3.11224 0.233708 0
M  V30 2798 N 264.58 -0.43555 -1.51462 0
M  V30 2799 C 265.528 0.391205 -2.29287 0
M  V30 2800 C 266.522 1.02247 -1.35062 0
M  V30 2801 O 267.728 0.957646 -1.52411 0
M  V30 2802 H 264.103 0.144968 -0.737895 0
M  V30 2803 H 266.074 -0.286051 -2.97026 0
M  V30 2804 C 264.823 1.48096 -3.14583 0
M  V30 2805 H 264.146 1.00457 -3.86973 0
M  V30 2806 H 265.586 2.03273 -3.72097 0
M  V30 2807 C 264.045 2.46321 -2.29843 0
M  V30 2808 O 264.575 3.50815 -1.95682 0
M  V30 2809 N 262.781 2.17166 -1.931 0
M  V30 2810 H 262.328 1.32218 -2.21079 0
M  V30 2811 H 262.286 2.83127 -1.36698 0
M  V30 2812 N 266.058 1.56714 -0.166846 0
M  V30 2813 C 267.469 1.83378 0.350646 0
M  V30 2814 C 267.82 1.08646 1.63372 0
M  V30 2815 O 266.945 0.338058 2.13743 0
M  V30 2816 C 267.54 3.32643 0.642963 0
M  V30 2817 C 266.099 3.59818 1.10491 0
M  V30 2818 C 265.246 2.76954 0.138411 0
M  V30 2819 H 268.197 1.53803 -0.391193 0
M  V30 2820 H 268.218 3.49878 1.49551 0
M  V30 2821 H 267.73 3.87007 -0.291055 0
M  V30 2822 H 265.831 3.1086 2.05418 0
M  V30 2823 H 265.944 4.68178 1.01716 0
M  V30 2824 H 264.308 2.4666 0.634911 0
M  V30 2825 H 265.091 3.34097 -0.789549 0
M  V30 2826 N 267.536 -0.106894 1.57237 0
M  V30 2827 C 268.446 -1.14911 2.0453 0
M  V30 2828 C 269.462 -1.44592 0.96795 0
M  V30 2829 O 270.638 -1.55468 1.2803 0
M  V30 2830 C 267.703 -2.45272 2.45036 0
M  V30 2831 C 266.764 -2.22879 3.66911 0
M  V30 2832 C 265.997 -3.47024 4.05475 0
M  V30 2833 O 266.22 -4.54804 3.44252 0
M  V30 2834 O 265.154 -3.3731 4.98504 0
M  V30 2835 H 268.98 -0.777461 2.9358 0
M  V30 2836 H 266.565 -0.318563 1.45964 0
M  V30 2837 H 268.447 -3.22055 2.71769 0
M  V30 2838 H 267.122 -2.81886 1.59129 0
M  V30 2839 H 266.029 -1.43915 3.45311 0
M  V30 2840 H 267.362 -1.91163 4.53561 0
M  V30 2841 N 269.014 -1.53014 -0.377408 0
M  V30 2842 C 270.244 -1.72265 -1.14054 0
M  V30 2843 C 270.652 -0.44601 -1.83868 0
M  V30 2844 O 269.995 0.590095 -1.73964 0
M  V30 2845 C 270.057 -2.82492 -2.22348 0
M  V30 2846 C 269.721 -4.23233 -1.72402 0
M  V30 2847 C 270.718 -5.05992 -1.19448 0
M  V30 2848 C 268.403 -4.696 -1.78273 0
M  V30 2849 C 270.397 -6.33203 -0.730268 0
M  V30 2850 C 268.084 -5.96792 -1.31464 0
M  V30 2851 C 269.082 -6.78424 -0.789297 0
M  V30 2852 O 268.77 -8.0323 -0.328077 0
M  V30 2853 H 268.502 -0.579873 -0.347453 0
M  V30 2854 H 271.056 -2.00502 -0.445882 0
M  V30 2855 H 269.286 -2.49702 -2.95272 0
M  V30 2856 H 270.975 -2.90034 -2.83963 0
M  V30 2857 H 271.741 -4.71349 -1.14259 0
M  V30 2858 H 267.62 -4.06142 -2.18106 0
M  V30 2859 H 271.164 -6.96868 -0.319542 0
M  V30 2860 H 267.061 -6.30937 -1.36342 0
M  V30 2861 H 267.829 -8.1727 -0.448493 0
M  V30 2862 N 270.492 0.636531 -1.44174 0
M  V30 2863 C 271.739 1.39619 -1.46672 0
M  V30 2864 C 272.067 1.94257 -0.0972691 0
M  V30 2865 O 271.322 1.73768 0.900175 0
M  V30 2866 C 271.621 2.58309 -2.47005 0
M  V30 2867 C 271.287 2.21992 -3.92467 0
M  V30 2868 C 269.949 2.118 -4.32081 0
M  V30 2869 C 272.301 1.9321 -4.84065 0
M  V30 2870 C 269.629 1.71007 -5.61225 0
M  V30 2871 C 271.981 1.53911 -6.13591 0
M  V30 2872 C 270.645 1.42257 -6.52165 0
M  V30 2873 H 269.915 0.510902 -0.536712 0
M  V30 2874 H 272.562 0.722328 -1.77355 0
M  V30 2875 H 270.867 3.30903 -2.09786 0
M  V30 2876 H 272.564 3.16533 -2.46186 0
M  V30 2877 H 269.154 2.30841 -3.61124 0
M  V30 2878 H 273.338 1.99997 -4.54219 0
M  V30 2879 H 268.594 1.60583 -5.89935 0
M  V30 2880 H 272.768 1.30677 -6.8403 0
M  V30 2881 H 270.395 1.10419 -7.52138 0
M  V30 2882 N 271.97 1.30982 0.876444 0
M  V30 2883 C 273.198 1.23242 1.6619 0
M  V30 2884 C 273.613 -0.203345 1.87702 0
M  V30 2885 O 272.97 -1.13317 1.43057 0
M  V30 2886 C 273.021 1.96623 3.03351 0
M  V30 2887 O 272.742 3.34594 2.82804 0
M  V30 2888 C 274.243 1.95644 3.97792 0
M  V30 2889 H 271.463 0.426126 0.518322 0
M  V30 2890 H 274.007 1.7275 1.09442 0
M  V30 2891 H 272.162 1.50892 3.56806 0
M  V30 2892 H 272.576 3.71873 3.69879 0
M  V30 2893 H 274.05 2.51511 4.91372 0
M  V30 2894 H 274.527 0.937395 4.2908 0
M  V30 2895 H 275.133 2.41225 3.50272 0
M  V30 2896 N 273.449 -1.08991 1.13837 0
M  V30 2897 C 274.726 -1.77863 0.813876 0
M  V30 2898 C 275.106 -1.99375 -0.693746 0
M  V30 2899 O 274.454 -1.59875 -1.63255 0
M  V30 2900 C 274.664 -3.0986 1.60586 0
M  V30 2901 C 276.012 -3.84493 1.8014 0
M  V30 2902 O 277.036 -3.19624 1.57222 0
M  V30 2903 O 275.895 -5.00957 2.18413 0
M  V30 2904 H 272.989 -0.771589 0.297624 0
M  V30 2905 H 275.535 -1.15507 1.24323 0
M  V30 2906 H 274.307 -2.89715 2.63022 0
M  V30 2907 H 273.93 -3.79942 1.17173 0
M  V30 2908 N 274.927 -0.932562 -1.27047 0
M  V30 2909 C 276.176 -0.571351 -1.93439 0
M  V30 2910 C 276.489 0.892467 -1.74053 0
M  V30 2911 O 277.695 1.36267 -2.34826 0
M  V30 2912 C 276.151 -0.97106 -3.46552 0
M  V30 2913 C 275.759 -2.4559 -3.74686 0
M  V30 2914 C 277.503 -0.681333 -4.18997 0
M  V30 2915 C 275.41 -2.79475 -5.21198 0
M  V30 2916 H 274.34 -0.209966 -0.724176 0
M  V30 2917 H 276.991 -1.13403 -1.44263 0
M  V30 2918 H 275.373 -0.336983 -3.94564 0
M  V30 2919 H 276.547 -3.13829 -3.37414 0
M  V30 2920 H 274.862 -2.71802 -3.15456 0
M  V30 2921 H 277.459 -0.910939 -5.26883 0
M  V30 2922 H 277.802 0.381628 -4.14547 0
M  V30 2923 H 278.335 -1.27473 -3.76823 0
M  V30 2924 H 275.074 -3.847 -5.30741 0
M  V30 2925 H 274.594 -2.1589 -5.596 0
M  V30 2926 H 276.273 -2.67478 -5.89122 0
M  V30 2927 N 276.405 1.4127 -0.698611 0
M  V30 2928 C 277.315 2.34573 -0.0357891 0
M  V30 2929 C 278.331 1.56393 0.762701 0
M  V30 2930 O 279.507 1.8886 0.699564 0
M  V30 2931 C 276.572 3.35159 0.887089 0
M  V30 2932 C 275.633 4.29225 0.0804634 0
M  V30 2933 C 274.866 5.25006 0.959387 0
M  V30 2934 O 275.089 5.26314 2.19886 0
M  V30 2935 O 274.023 6.00519 0.407439 0
M  V30 2936 H 277.849 2.92838 -0.804957 0
M  V30 2937 H 275.434 1.42175 -0.458966 0
M  V30 2938 H 277.316 3.9689 1.41621 0
M  V30 2939 H 275.991 2.79333 1.6357 0
M  V30 2940 H 274.898 3.70833 -0.493328 0
M  V30 2941 H 276.231 4.88157 -0.629547 0
M  V30 2942 N 277.883 0.443576 1.51229 0
M  V30 2943 C 279.13 -0.120796 2.02139 0
M  V30 2944 C 279.458 -1.42166 1.32736 0
M  V30 2945 O 278.713 -1.90849 0.43301 0
M  V30 2946 C 279.012 -0.380579 3.55368 0
M  V30 2947 C 278.678 0.83523 4.43097 0
M  V30 2948 C 277.34 1.16864 4.66794 0
M  V30 2949 C 279.692 1.64601 4.94526 0
M  V30 2950 C 277.02 2.31339 5.39165 0
M  V30 2951 C 279.372 2.78181 5.68153 0
M  V30 2952 C 278.036 3.11969 5.90112 0
M  V30 2953 H 277.306 -0.0442023 0.73968 0
M  V30 2954 H 279.953 0.592046 1.82118 0
M  V30 2955 H 278.258 -1.17538 3.73754 0
M  V30 2956 H 279.955 -0.830777 3.923 0
M  V30 2957 H 276.545 0.565437 4.24854 0
M  V30 2958 H 280.729 1.40163 4.76097 0
M  V30 2959 H 275.985 2.57823 5.5438 0
M  V30 2960 H 280.159 3.41371 6.06992 0
M  V30 2961 H 277.786 4.00784 6.45969 0
M  V30 2962 N 279.361 -1.56624 0.175154 0
M  V30 2963 C 280.777 -1.58571 -0.180966 0
M  V30 2964 C 280.977 -1.19065 -1.6256 0
M  V30 2965 O 280.033 -0.904044 -2.35761 0
M  V30 2966 C 281.346 -3.00522 0.103326 0
M  V30 2967 C 282.894 -3.12972 0.0418426 0
M  V30 2968 C 283.369 -4.57022 0.299175 0
M  V30 2969 N 284.86 -4.62541 0.247086 0
M  V30 2970 C 285.595 -5.71857 0.420318 0
M  V30 2971 N 285.091 -6.89717 0.652816 0
M  V30 2972 N 286.884 -5.60972 0.355957 0
M  V30 2973 H 279.035 -1.80589 1.11809 0
M  V30 2974 H 281.298 -0.837178 0.444788 0
M  V30 2975 H 281.004 -3.33916 1.10422 0
M  V30 2976 H 280.878 -3.72344 -0.603299 0
M  V30 2977 H 283.265 -2.79403 -0.949636 0
M  V30 2978 H 283.346 -2.43578 0.781238 0
M  V30 2979 H 282.99 -4.913 1.28788 0
M  V30 2980 H 282.92 -5.24579 -0.460876 0
M  V30 2981 H 285.411 -3.77829 0.0731895 0
M  V30 2982 H 285.724 -7.68911 0.774347 0
M  V30 2983 H 284.069 -6.91572 0.689476 0
M  V30 2984 H 287.26 -4.67773 0.174882 0
M  V30 2985 H 287.433 -6.46111 0.494388 0
M  V30 2986 N 280.839 0.0985539 -1.57292 0
M  V30 2987 C 281.786 1.11981 -2.01814 0
M  V30 2988 C 282.756 1.39999 -0.89384 0
M  V30 2989 O 283.941 1.5152 -1.15958 0
M  V30 2990 C 281.081 2.43577 -2.44467 0
M  V30 2991 C 280.194 2.2232 -3.70402 0
M  V30 2992 C 279.329 3.4729 -4.01949 0
M  V30 2993 C 278.368 3.2128 -5.21005 0
M  V30 2994 N 277.505 4.38507 -5.48321 0
M  V30 2995 H 282.345 0.733149 -2.88841 0
M  V30 2996 H 279.882 0.350482 -1.42864 0
M  V30 2997 H 281.84 3.20373 -2.6724 0
M  V30 2998 H 280.47 2.80097 -1.60455 0
M  V30 2999 H 279.522 1.36343 -3.55126 0
M  V30 3000 H 280.834 1.99089 -4.57345 0
M  V30 3001 H 279.988 4.32495 -4.25479 0
M  V30 3002 H 278.727 3.73572 -3.13521 0
M  V30 3003 H 277.732 2.34468 -4.97298 0
M  V30 3004 H 278.957 2.96348 -6.11028 0
M  V30 3005 H 276.903 4.64871 -4.62851 0
M  V30 3006 H 276.82 4.18455 -6.29628 0
M  V30 3007 H 278.088 5.24787 -5.76385 0
M  V30 3008 N 282.317 1.53212 0.369288 0
M  V30 3009 C 283.728 1.60943 0.946276 0
M  V30 3010 C 284.079 0.47452 1.90375 0
M  V30 3011 O 283.204 -0.399597 2.12679 0
M  V30 3012 C 283.799 2.91715 1.72302 0
M  V30 3013 C 282.358 3.01792 2.24941 0
M  V30 3014 C 281.505 2.56211 1.06072 0
M  V30 3015 H 284.456 1.58007 0.148198 0
M  V30 3016 H 284.477 2.79309 2.58393 0
M  V30 3017 H 283.989 3.74295 1.0259 0
M  V30 3018 H 282.09 2.23791 2.97906 0
M  V30 3019 H 282.203 4.06803 2.53077 0
M  V30 3020 H 280.567 2.10998 1.4266 0
M  V30 3021 H 281.35 3.41206 0.378639 0
M  V30 3022 N 283.795 -0.628877 1.44509 0
M  V30 3023 C 284.758 -1.72263 1.51188 0
M  V30 3024 C 285.758 -1.55907 0.39367 0
M  V30 3025 O 286.948 -1.61361 0.656377 0
M  V30 3026 C 284.08 -3.11365 1.38798 0
M  V30 3027 H 285.273 -1.67714 2.4862 0
M  V30 3028 H 282.826 -0.842737 1.31634 0
M  V30 3029 H 283.561 -3.21507 0.424693 0
M  V30 3030 H 283.346 -3.24644 2.19884 0
M  V30 3031 H 284.836 -3.91075 1.46458 0
M  V30 3032 N 285.273 -1.31445 -0.869486 0
M  V30 3033 C 286.55 -1.11795 -1.60503 0
M  V30 3034 C 286.93 0.327168 -2.08549 0
M  V30 3035 O 286.278 1.32135 -1.8642 0
M  V30 3036 C 286.488 -2.13258 -2.76265 0
M  V30 3037 C 287.836 -2.45805 -3.46215 0
M  V30 3038 O 288.86 -2.11688 -2.86473 0
M  V30 3039 O 287.719 -3.04228 -4.5399 0
M  V30 3040 H 284.813 -0.430421 -0.706163 0
M  V30 3041 H 287.359 -1.42925 -0.914907 0
M  V30 3042 H 286.131 -3.10461 -2.3818 0
M  V30 3043 H 285.754 -1.83035 -3.52964 0
M  V30 3044 N 286.751 1.08385 -1.14413 0
M  V30 3045 C 287.661 2.18856 -0.844951 0
M  V30 3046 C 288.677 1.73121 0.174668 0
M  V30 3047 O 289.853 2.014 0.00312857 0
M  V30 3048 C 286.918 3.45155 -0.32696 0
M  V30 3049 C 285.979 4.05513 -1.40916 0
M  V30 3050 C 285.212 5.25784 -0.915793 0
M  V30 3051 O 285.435 5.69884 0.242651 0
M  V30 3052 O 284.369 5.77545 -1.69487 0
M  V30 3053 H 288.195 2.46919 -1.76818 0
M  V30 3054 H 285.78 1.17524 -0.922411 0
M  V30 3055 H 287.662 4.21377 -0.0440211 0
M  V30 3056 H 286.337 3.18668 0.568539 0
M  V30 3057 H 285.244 3.30879 -1.74556 0
M  V30 3058 H 286.577 4.3625 -2.27919 0
M  V30 3059 N 288.23 0.939286 1.26551 0
M  V30 3060 C 289.193 0.451987 2.24699 0
M  V30 3061 C 290.193 -0.435869 1.5478 0
M  V30 3062 O 291.383 -0.235314 1.72603 0
M  V30 3063 C 288.515 -0.348801 3.39111 0
M  V30 3064 H 289.708 1.3193 2.69322 0
M  V30 3065 H 287.261 0.721072 1.38673 0
M  V30 3066 H 287.996 -1.23444 2.99887 0
M  V30 3067 H 287.781 0.287945 3.91041 0
M  V30 3068 H 289.271 -0.679726 4.12031 0
M  V30 3069 N 289.708 -1.40897 0.706093 0
M  V30 3070 C 290.655 -2.30751 0.0474474 0
M  V30 3071 C 291.625 -1.47678 -0.76029 0
M  V30 3072 O 292.81 -1.76441 -0.726177 0
M  V30 3073 C 289.95 -3.33815 -0.875309 0
M  V30 3074 C 289.063 -4.31961 -0.0580623 0
M  V30 3075 C 288.198 -5.22093 -0.979425 0
M  V30 3076 C 287.237 -6.11902 -0.155706 0
M  V30 3077 N 286.374 -6.94482 -1.03144 0
M  V30 3078 H 291.214 -2.86513 0.819413 0
M  V30 3079 H 288.751 -1.41102 0.415783 0
M  V30 3080 H 290.709 -3.92129 -1.42446 0
M  V30 3081 H 289.339 -2.79579 -1.61356 0
M  V30 3082 H 288.391 -3.75507 0.608147 0
M  V30 3083 H 289.703 -4.95415 0.580082 0
M  V30 3084 H 288.857 -5.85292 -1.59744 0
M  V30 3085 H 287.596 -4.5889 -1.65141 0
M  V30 3086 H 286.601 -5.47742 0.475309 0
M  V30 3087 H 287.826 -6.77162 0.512635 0
M  V30 3088 H 285.772 -6.33877 -1.68924 0
M  V30 3089 H 285.689 -7.54665 -0.449108 0
M  V30 3090 H 286.957 -7.6214 -1.63593 0
M  V30 3091 N 291.186 -0.45159 -1.50991 0
M  V30 3092 C 292.116 0.342898 -2.30969 0
M  V30 3093 C 293.097 1.00815 -1.37005 0
M  V30 3094 O 294.282 1.00907 -1.65926 0
M  V30 3095 C 291.412 1.43637 -3.16205 0
M  V30 3096 C 290.366 0.893818 -4.18563 0
M  V30 3097 C 289.692 2.08411 -4.92411 0
M  V30 3098 C 290.992 -0.0815568 -5.22236 0
M  V30 3099 H 292.686 -0.324556 -2.97636 0
M  V30 3100 H 290.232 -0.157531 -1.43136 0
M  V30 3101 H 292.185 1.9995 -3.70942 0
M  V30 3102 H 290.909 2.13232 -2.47386 0
M  V30 3103 H 289.568 0.352798 -3.64898 0
M  V30 3104 H 289.216 2.76658 -4.20082 0
M  V30 3105 H 288.916 1.72741 -5.61636 0
M  V30 3106 H 290.44 2.65251 -5.49976 0
M  V30 3107 H 291.854 0.391742 -5.7196 0
M  V30 3108 H 290.251 -0.351551 -5.99069 0
M  V30 3109 H 291.321 -1.01374 -4.74185 0
M  V30 3110 N 292.664 1.56529 -0.183458 0
M  V30 3111 C 293.91 1.97537 0.459036 0
M  V30 3112 C 294.243 1.06989 1.62071 0
M  V30 3113 O 293.518 0.11948 1.94133 0
M  V30 3114 C 293.801 3.47874 0.930368 0
M  V30 3115 C 293.654 4.492 -0.232317 0
M  V30 3116 C 294.973 4.01612 1.79989 0
M  V30 3117 H 292.092 0.718204 0.165383 0
M  V30 3118 H 294.734 1.88042 -0.272038 0
M  V30 3119 H 292.884 3.56095 1.55333 0
M  V30 3120 H 294.556 4.53027 -0.86972 0
M  V30 3121 H 292.799 4.24657 -0.885928 0
M  V30 3122 H 293.47 5.51823 0.139796 0
M  V30 3123 H 295.946 3.96097 1.27461 0
M  V30 3124 H 294.822 5.07195 2.09867 0
M  V30 3125 H 295.083 3.46163 2.74998 0
M  V30 3126 N 294.142 -0.090211 1.57342 0
M  V30 3127 C 295.391 -0.791531 1.8552 0
M  V30 3128 C 295.704 -1.79659 0.773441 0
M  V30 3129 O 296.91 -2.54616 0.942497 0
M  V30 3130 C 295.366 -1.45856 3.2902 0
M  V30 3131 C 294.974 -0.493017 4.45279 0
M  V30 3132 C 296.718 -2.14332 3.66418 0
M  V30 3133 C 294.625 -1.16491 5.79814 0
M  V30 3134 H 293.555 -0.299356 0.692027 0
M  V30 3135 H 296.206 -0.0445343 1.83446 0
M  V30 3136 H 294.588 -2.25318 3.2565 0
M  V30 3137 H 295.762 0.270464 4.60006 0
M  V30 3138 H 294.077 0.0863061 4.16311 0
M  V30 3139 H 296.674 -2.65344 4.64216 0
M  V30 3140 H 297.017 -2.93447 2.95287 0
M  V30 3141 H 297.55 -1.41724 3.71698 0
M  V30 3142 H 294.289 -0.41447 6.54188 0
M  V30 3143 H 293.809 -1.8997 5.68921 0
M  V30 3144 H 295.488 -1.69001 6.24538 0
M  V30 3145 N 295.62 -1.53406 -0.361157 0
M  V30 3146 C 296.552 -1.76446 -1.46286 0
M  V30 3147 C 297.565 -0.645322 -1.49464 0
M  V30 3148 O 298.754 -0.921681 -1.52864 0
M  V30 3149 C 295.854 -1.83332 -2.85031 0
M  V30 3150 C 295.027 -3.13033 -3.05498 0
M  V30 3151 C 294.086 -3.11104 -4.24383 0
M  V30 3152 O 293.112 -3.84888 -4.19344 0
M  V30 3153 N 294.314 -2.32234 -5.32022 0
M  V30 3154 H 297.079 -2.71508 -1.26899 0
M  V30 3155 H 294.64 -1.52238 -0.550915 0
M  V30 3156 H 296.632 -1.79514 -3.62708 0
M  V30 3157 H 295.202 -0.955342 -2.97644 0
M  V30 3158 H 294.422 -3.30119 -2.15442 0
M  V30 3159 H 295.71 -3.9874 -3.16044 0
M  V30 3160 H 295.108 -1.71807 -5.38979 0
M  V30 3161 H 293.665 -2.3423 -6.08259 0
M  V30 3162 N 297.098 0.621204 -1.44841 0
M  V30 3163 C 298.008 1.7612 -1.5498 0
M  V30 3164 C 299.024 1.68477 -0.434927 0
M  V30 3165 O 300.2 1.89076 -0.693693 0
M  V30 3166 C 297.265 3.1254 -1.50065 0
M  V30 3167 C 296.326 3.31741 -2.72482 0
M  V30 3168 C 295.559 4.61653 -2.67792 0
M  V30 3169 O 295.782 5.431 -1.74352 0
M  V30 3170 O 294.716 4.83271 -3.58794 0
M  V30 3171 H 298.542 1.70518 -2.51311 0
M  V30 3172 H 296.127 0.783643 -1.27198 0
M  V30 3173 H 298.009 3.93844 -1.49882 0
M  V30 3174 H 296.684 3.18663 -0.568806 0
M  V30 3175 H 295.591 2.50077 -2.7823 0
M  V30 3176 H 296.924 3.30486 -3.64746 0
M  V30 3177 N 298.576 1.31904 0.862503 0
M  V30 3178 C 299.506 1.22782 1.98612 0
M  V30 3179 C 300.487 0.113362 1.69722 0
M  V30 3180 O 301.672 0.299218 1.91881 0
M  V30 3181 C 298.802 0.942058 3.34279 0
M  V30 3182 C 297.756 2.0169 3.77499 0
M  V30 3183 C 297.082 1.58369 5.10709 0
M  V30 3184 C 298.382 3.43096 3.93805 0
M  V30 3185 H 300.076 2.16788 2.06502 0
M  V30 3186 H 297.622 1.04366 0.992154 0
M  V30 3187 H 299.575 0.864818 4.1243 0
M  V30 3188 H 298.299 -0.0336603 3.26583 0
M  V30 3189 H 296.958 2.08416 3.01593 0
M  V30 3190 H 296.606 0.595628 4.99461 0
M  V30 3191 H 296.306 2.30279 5.40597 0
M  V30 3192 H 297.83 1.52067 5.91361 0
M  V30 3193 H 299.244 3.39003 4.62331 0
M  V30 3194 H 297.641 4.13288 4.35101 0
M  V30 3195 H 298.711 3.83334 2.96957 0
M  V30 3196 N 300.054 -1.07777 1.14986 0
M  V30 3197 C 300.986 -2.14769 0.800436 0
M  V30 3198 C 301.999 -1.61739 -0.185595 0
M  V30 3199 O 303.188 -1.78462 0.0370358 0
M  V30 3200 C 300.288 -3.38481 0.168533 0
M  V30 3201 C 299.461 -4.20876 1.1909 0
M  V30 3202 C 298.52 -5.22976 0.581575 0
M  V30 3203 O 297.546 -5.55388 1.24633 0
M  V30 3204 N 298.748 -5.76976 -0.638706 0
M  V30 3205 H 301.513 -2.45348 1.72118 0
M  V30 3206 H 299.074 -1.23645 1.04515 0
M  V30 3207 H 301.066 -4.03916 -0.251764 0
M  V30 3208 H 299.636 -3.05651 -0.655467 0
M  V30 3209 H 298.856 -3.51322 1.78791 0
M  V30 3210 H 300.144 -4.7274 1.88133 0
M  V30 3211 H 299.542 -5.52886 -1.19723 0
M  V30 3212 H 298.099 -6.44061 -1.00142 0
M  V30 3213 N 301.532 -0.945985 -1.26051 0
M  V30 3214 C 302.464 -0.416662 -2.25381 0
M  V30 3215 C 303.477 0.462712 -1.56086 0
M  V30 3216 O 304.666 0.272383 -1.7641 0
M  V30 3217 C 301.766 0.419812 -3.3629 0
M  V30 3218 C 300.939 -0.444531 -4.35135 0
M  V30 3219 C 299.998 0.332305 -5.2515 0
M  V30 3220 O 299.024 -0.266324 -5.68577 0
M  V30 3221 N 300.226 1.62763 -5.57215 0
M  V30 3222 H 302.991 -1.27059 -2.71433 0
M  V30 3223 H 300.552 -0.815392 -1.39868 0
M  V30 3224 H 302.544 0.947013 -3.93464 0
M  V30 3225 H 301.114 1.17456 -2.89694 0
M  V30 3226 H 300.334 -1.15291 -3.76964 0
M  V30 3227 H 301.622 -1.03478 -4.98166 0
M  V30 3228 H 301.02 2.13603 -5.23823 0
M  V30 3229 H 299.577 2.10097 -6.17011 0
M  V30 3230 N 303.011 1.40521 -0.713556 0
M  V30 3231 C 304.239 2.05237 -0.261775 0
M  V30 3232 C 304.654 1.53755 1.09567 0
M  V30 3233 O 304.011 0.693268 1.6882 0
M  V30 3234 C 304.062 3.60763 -0.230706 0
M  V30 3235 O 303.783 4.10345 -1.53455 0
M  V30 3236 C 305.284 4.42651 0.239874 0
M  V30 3237 H 302.504 0.660533 -0.118057 0
M  V30 3238 H 305.048 1.79967 -0.971192 0
M  V30 3239 H 303.203 3.8501 0.429661 0
M  V30 3240 H 303.617 5.04526 -1.43366 0
M  V30 3241 H 305.091 5.51599 0.210468 0
M  V30 3242 H 305.568 4.20082 1.28171 0
M  V30 3243 H 306.174 4.23507 -0.390142 0
M  V30 3244 N 304.489 0.459591 1.5075 0
M  V30 3245 C 305.399 -0.34613 2.32033 0
M  V30 3246 C 306.415 -1.00686 1.41909 0
M  V30 3247 O 307.591 -0.997361 1.7497 0
M  V30 3248 C 304.656 -1.42029 3.16273 0
M  V30 3249 C 303.717 -0.777362 4.22203 0
M  V30 3250 C 302.95 -1.80034 5.02418 0
M  V30 3251 O 303.173 -3.02544 4.83553 0
M  V30 3252 O 302.107 -1.37853 5.85901 0
M  V30 3253 H 305.933 0.318054 3.0203 0
M  V30 3254 H 303.518 0.221663 1.47746 0
M  V30 3255 H 305.4 -2.04275 3.68578 0
M  V30 3256 H 304.075 -2.06815 2.49016 0
M  V30 3257 H 302.982 -0.116256 3.73919 0
M  V30 3258 H 304.315 -0.172634 4.91897 0
M  V30 3259 N 305.967 -1.56429 0.191757 0
M  V30 3260 C 306.914 -2.18936 -0.730454 0
M  V30 3261 C 307.884 -1.13557 -1.21219 0
M  V30 3262 O 309.069 -1.41794 -1.27668 0
M  V30 3263 C 306.209 -2.85013 -1.9458 0
M  V30 3264 C 305.322 -4.04909 -1.50574 0
M  V30 3265 C 304.457 -4.58853 -2.67634 0
M  V30 3266 C 303.496 -5.71114 -2.20217 0
M  V30 3267 N 302.633 -6.19478 -3.30442 0
M  V30 3268 H 307.473 -2.97389 -0.190664 0
M  V30 3269 H 305.01 -1.46869 -0.0823694 0
M  V30 3270 H 306.968 -3.21492 -2.65893 0
M  V30 3271 H 305.598 -2.09129 -2.45896 0
M  V30 3272 H 304.65 -3.74115 -0.688605 0
M  V30 3273 H 305.962 -4.86113 -1.11784 0
M  V30 3274 H 305.116 -4.97619 -3.47074 0
M  V30 3275 H 303.855 -3.76749 -3.09696 0
M  V30 3276 H 302.86 -5.31879 -1.3923 0
M  V30 3277 H 304.085 -6.55033 -1.79189 0
M  V30 3278 H 302.031 -5.40297 -3.72041 0
M  V30 3279 H 301.948 -6.95725 -2.9581 0
M  V30 3280 H 303.216 -6.62898 -4.10106 0
M  V30 3281 N 307.445 0.0818655 -1.57387 0
M  V30 3282 C 308.856 0.634871 -1.75574 0
M  V30 3283 C 309.207 1.78435 -0.815809 0
M  V30 3284 O 308.332 2.164 0.0025366 0
M  V30 3285 C 308.927 1.15845 -3.18379 0
M  V30 3286 C 307.486 1.65741 -3.37945 0
M  V30 3287 C 306.633 0.572549 -2.71325 0
M  V30 3288 H 309.584 -0.144268 -1.58043 0
M  V30 3289 H 309.605 2.02751 -3.21982 0
M  V30 3290 H 309.117 0.321631 -3.86765 0
M  V30 3291 H 307.218 2.51781 -2.74658 0
M  V30 3292 H 307.331 1.74129 -4.46336 0
M  V30 3293 H 305.695 1.01518 -2.33594 0
M  V30 3294 H 306.478 -0.253918 -3.4236 0
M  V30 3295 N 308.923 1.53595 0.353017 0
M  V30 3296 C 310.2 1.61002 1.11075 0
M  V30 3297 C 310.58 0.425356 2.0677 0
M  V30 3298 O 309.928 -0.583267 2.2093 0
M  V30 3299 C 310.138 2.96631 1.83877 0
M  V30 3300 C 311.486 3.51653 2.37961 0
M  V30 3301 O 312.51 2.98743 1.93987 0
M  V30 3302 O 311.369 4.44177 3.18386 0
M  V30 3303 H 308.463 0.650825 0.510251 0
M  V30 3304 H 311.009 1.6594 0.35527 0
M  V30 3305 H 309.781 3.74293 1.14108 0
M  V30 3306 H 309.404 2.95242 2.66304 0
M  V30 3307 N 310.401 -0.613514 1.45168 0
M  V30 3308 C 311.65 -1.36874 1.4815 0
M  V30 3309 C 311.963 -1.952 0.124982 0
M  V30 3310 O 313.169 -2.71481 0.0324176 0
M  V30 3311 C 311.625 -2.47905 2.60904 0
M  V30 3312 C 311.233 -1.96016 4.02842 0
M  V30 3313 C 312.977 -3.24965 2.73126 0
M  V30 3314 C 310.884 -3.04494 5.06988 0
M  V30 3315 H 309.814 -0.514428 0.551253 0
M  V30 3316 H 312.465 -0.658182 1.7129 0
M  V30 3317 H 310.847 -3.21618 2.31037 0
M  V30 3318 H 312.021 -1.29051 4.4236 0
M  V30 3319 H 310.336 -1.31719 3.95018 0
M  V30 3320 H 312.933 -4.05865 3.48106 0
M  V30 3321 H 313.276 -3.75588 1.79553 0
M  V30 3322 H 313.809 -2.5835 3.0249 0
M  V30 3323 H 310.548 -2.58795 6.0225 0
M  V30 3324 H 310.068 -3.70044 4.72046 0
M  V30 3325 H 311.747 -3.68976 5.31475 0
M  V30 3326 N 311.879 -1.3236 -0.855495 0
M  V30 3327 C 313.128 -1.22226 -1.60448 0
M  V30 3328 C 313.441 0.214733 -1.94418 0
M  V30 3329 O 314.647 0.437917 -2.67945 0
M  V30 3330 C 313.103 -2.14063 -2.89318 0
M  V30 3331 C 312.711 -3.62839 -2.62777 0
M  V30 3332 C 314.455 -2.12764 -3.67331 0
M  V30 3333 C 312.362 -4.4664 -3.87643 0
M  V30 3334 H 311.292 -0.453904 -0.602069 0
M  V30 3335 H 313.943 -1.57314 -0.944698 0
M  V30 3336 H 312.325 -1.71889 -3.5675 0
M  V30 3337 H 313.499 -4.1335 -2.03662 0
M  V30 3338 H 311.814 -3.66261 -1.98096 0
M  V30 3339 H 314.411 -2.72611 -4.59987 0
M  V30 3340 H 314.754 -1.11841 -4.00995 0
M  V30 3341 H 315.287 -2.53214 -3.06802 0
M  V30 3342 H 312.026 -5.48373 -3.5912 0
M  V30 3343 H 311.546 -4.0088 -4.46156 0
M  V30 3344 H 313.225 -4.59597 -4.55389 0
M  V30 3345 N 313.357 1.07166 -1.15556 0
M  V30 3346 C 314.606 1.79181 -0.926132 0
M  V30 3347 C 314.919 1.87768 0.547967 0
M  V30 3348 O 316.125 2.56323 0.895036 0
M  V30 3349 C 314.581 3.22 -1.60761 0
M  V30 3350 C 314.189 3.21607 -3.11886 0
M  V30 3351 C 315.933 3.9861 -1.4598 0
M  V30 3352 C 313.84 4.59092 -3.72812 0
M  V30 3353 H 312.77 0.67154 -0.342856 0
M  V30 3354 H 315.421 1.2027 -1.3859 0
M  V30 3355 H 313.803 3.81115 -1.07553 0
M  V30 3356 H 314.977 2.72127 -3.71865 0
M  V30 3357 H 313.292 2.58495 -3.2645 0
M  V30 3358 H 315.889 5.00225 -1.88888 0
M  V30 3359 H 316.232 4.143 -0.407541 0
M  V30 3360 H 316.765 3.45996 -1.96295 0
M  V30 3361 H 313.504 4.48606 -4.77946 0
M  V30 3362 H 313.024 5.08803 -3.17616 0
M  V30 3363 H 314.703 5.28059 -3.73848 0
M  V30 3364 N 314.835 0.952656 1.25548 0
M  V30 3365 C 315.798 0.475794 2.24207 0
M  V30 3366 C 316.798 -0.419428 1.55234 0
M  V30 3367 O 317.988 -0.216994 1.72843 0
M  V30 3368 C 315.12 -0.312814 3.39462 0
M  V30 3369 H 316.313 1.34779 2.67908 0
M  V30 3370 H 313.866 0.735739 1.37901 0
M  V30 3371 H 314.601 -1.20257 3.01179 0
M  V30 3372 H 314.386 0.329404 3.90714 0
M  V30 3373 H 315.876 -0.635986 4.12729 0
M  V30 3374 N 316.313 -1.40141 0.720998 0
M  V30 3375 C 317.276 -2.29058 0.0805834 0
M  V30 3376 C 318.276 -1.45632 -0.681758 0
M  V30 3377 O 319.466 -1.6648 -0.512856 0
M  V30 3378 C 316.598 -3.28925 -0.895593 0
M  V30 3379 H 317.791 -2.87191 0.863793 0
M  V30 3380 H 315.344 -1.48553 0.485975 0
M  V30 3381 H 316.079 -2.75822 -1.70566 0
M  V30 3382 H 315.864 -3.90519 -0.351766 0
M  V30 3383 H 317.354 -3.95494 -1.34069 0
M  V30 3384 N 317.792 -0.46758 -1.50504 0
M  V30 3385 C 319.02 0.0864133 -2.06719 0
M  V30 3386 C 319.435 1.33819 -1.33184 0
M  V30 3387 O 318.792 1.78061 -0.400083 0
M  V30 3388 C 318.843 0.378079 -3.59517 0
M  V30 3389 O 318.564 -0.824044 -4.3028 0
M  V30 3390 C 320.065 0.979426 -4.32345 0
M  V30 3391 H 317.285 -0.00551697 -0.670977 0
M  V30 3392 H 319.829 -0.655354 -1.93715 0
M  V30 3393 H 317.984 1.06977 -3.72337 0
M  V30 3394 H 318.398 -0.566518 -5.21432 0
M  V30 3395 H 319.872 1.1333 -5.40241 0
M  V30 3396 H 320.349 1.9686 -3.9261 0
M  V30 3397 H 320.955 0.326216 -4.24047 0
M  V30 3398 N 319.27 1.56325 -0.20005 0
M  V30 3399 C 320.22 2.15939 0.731743 0
M  V30 3400 C 321.204 1.10154 1.17281 0
M  V30 3401 O 322.396 1.36203 1.13038 0
M  V30 3402 C 319.525 2.82614 1.94895 0
M  V30 3403 C 318.611 3.95596 1.52855 0
M  V30 3404 N 319.002 4.99118 0.819418 0
M  V30 3405 C 317.3 4.07288 1.81748 0
M  V30 3406 C 318.001 5.78513 0.608053 0
M  V30 3407 N 316.977 5.31117 1.15828 0
M  V30 3408 H 320.779 2.9334 0.181285 0
M  V30 3409 H 318.293 1.624 -0.000452172 0
M  V30 3410 H 320.29 3.23718 2.62702 0
M  V30 3411 H 318.95 2.06702 2.50408 0
M  V30 3412 H 319.961 5.15723 0.47436 0
M  V30 3413 H 316.638 3.42509 2.38734 0
M  V30 3414 H 318.028 6.71885 0.0451619 0
M  V30 3415 N 320.748 -0.0735177 1.57428 0
M  V30 3416 C 321.681 -1.11932 1.98863 0
M  V30 3417 C 322.659 -1.37666 0.865266 0
M  V30 3418 O 323.843 -1.51068 1.12742 0
M  V30 3419 C 320.97 -2.46403 2.32386 0
M  V30 3420 C 320.016 -2.36815 3.54713 0
M  V30 3421 S 320.849 -1.76392 5.05614 0
M  V30 3422 C 322.005 -3.12444 5.42337 0
M  V30 3423 H 322.238 -0.766212 2.87257 0
M  V30 3424 H 319.771 -0.281987 1.51803 0
M  V30 3425 H 321.729 -3.23755 2.52375 0
M  V30 3426 H 320.39 -2.78876 1.44524 0
M  V30 3427 H 319.583 -3.35977 3.7568 0
M  V30 3428 H 319.185 -1.67598 3.34345 0
M  V30 3429 H 321.477 -4.08753 5.40303 0
M  V30 3430 H 322.42 -2.96258 6.43146 0
M  V30 3431 H 322.828 -3.1297 4.69798 0
M  V30 3432 N 322.226 -1.5378 -0.344866 0
M  V30 3433 C 323.474 -1.70625 -1.08311 0
M  V30 3434 C 323.795 -0.471447 -1.89215 0
M  V30 3435 O 323.065 0.514616 -1.8902 0
M  V30 3436 H 321.645 -0.629058 -0.402859 0
M  V30 3437 H 324.307 -1.9103 -0.386459 0
M  V30 3438 H 323.403 -2.57656 -1.76124 0
M  V30 3439 N 323.704 0.605807 -1.45491 0
M  V30 3440 C 324.654 1.71074 -1.50724 0
M  V30 3441 C 325.638 1.5658 -0.37033 0
M  V30 3442 O 326.83 1.65887 -0.617299 0
M  V30 3443 C 323.959 3.0983 -1.47852 0
M  V30 3444 C 323.045 3.29704 -2.66751 0
M  V30 3445 N 323.436 3.19831 -3.91844 0
M  V30 3446 C 321.734 3.60579 -2.62486 0
M  V30 3447 C 322.435 3.41083 -4.71208 0
M  V30 3448 N 321.411 3.65157 -4.02693 0
M  V30 3449 H 325.213 1.61937 -2.45263 0
M  V30 3450 H 322.727 0.80912 -1.40808 0
M  V30 3451 H 324.724 3.89101 -1.49686 0
M  V30 3452 H 323.384 3.20115 -0.543714 0
M  V30 3453 H 324.395 2.98194 -4.23439 0
M  V30 3454 H 321.072 3.7769 -1.77922 0
M  V30 3455 H 322.462 3.38828 -5.80211 0
M  V30 3456 N 325.182 1.32811 0.848464 0
M  V30 3457 C 326.412 1.26556 1.63301 0
M  V30 3458 C 326.82 -0.1676 1.88456 0
M  V30 3459 O 326.163 -1.11713 1.45828 0
M  V30 3460 C 326.225 1.96202 3.01239 0
M  V30 3461 C 325.889 3.45528 2.99098 0
M  V30 3462 C 326.886 4.40903 2.75501 0
M  V30 3463 C 324.571 3.87558 3.19537 0
M  V30 3464 C 326.565 5.76282 2.72356 0
M  V30 3465 C 324.252 5.23044 3.16019 0
M  V30 3466 C 325.25 6.17217 2.92458 0
M  V30 3467 O 324.938 7.50223 2.88825 0
M  V30 3468 H 324.67 0.43771 0.515156 0
M  V30 3469 H 327.224 1.7559 1.0657 0
M  V30 3470 H 325.454 1.41746 3.59785 0
M  V30 3471 H 327.143 1.83573 3.62016 0
M  V30 3472 H 327.909 4.09756 2.5947 0
M  V30 3473 H 323.788 3.14674 3.369 0
M  V30 3474 H 327.332 6.4976 2.53886 0
M  V30 3475 H 323.229 5.53818 3.31596 0
M  V30 3476 H 323.997 7.59657 3.04735 0
M  V30 3477 N 326.66 -1.06551 1.16123 0
M  V30 3478 C 327.937 -1.76097 0.85142 0
M  V30 3479 C 328.317 -2.00802 -0.6513 0
M  V30 3480 O 327.665 -1.63302 -1.59827 0
M  V30 3481 C 327.875 -3.06384 1.67122 0
M  V30 3482 C 329.223 -3.80585 1.88255 0
M  V30 3483 O 330.247 -3.16218 1.63966 0
M  V30 3484 O 329.106 -4.96212 2.2899 0
M  V30 3485 H 326.2 -0.765102 0.313923 0
M  V30 3486 H 328.746 -1.12844 1.26745 0
M  V30 3487 H 327.518 -2.84071 2.69108 0
M  V30 3488 H 327.141 -3.77371 1.25206 0
M  V30 3489 N 328.138 -0.959301 -1.25041 0
M  V30 3490 C 329.086 -0.474437 -2.2771 0
M  V30 3491 C 330.08 0.457697 -1.631 0
M  V30 3492 O 331.286 0.333912 -1.76876 0
M  V30 3493 H 327.661 -0.134936 -0.739795 0
M  V30 3494 H 329.632 -1.35251 -2.65988 0
M  V30 3495 C 328.381 0.227884 -3.46952 0
M  V30 3496 H 327.704 -0.480248 -3.96905 0
M  V30 3497 H 329.144 0.531091 -4.20661 0
M  V30 3498 C 327.603 1.452 -3.04004 0
M  V30 3499 O 328.133 2.54949 -3.10426 0
M  V30 3500 N 326.339 1.31502 -2.59144 0
M  V30 3501 H 325.886 0.422065 -2.54119 0
M  V30 3502 H 325.844 2.13521 -2.30773 0
M  V30 3503 N 329.616 1.39756 -0.72842 0
M  V30 3504 C 330.864 2.00248 -0.272946 0
M  V30 3505 C 331.185 1.58077 1.14178 0
M  V30 3506 O 330.455 0.826014 1.77634 0
M  V30 3507 H 329.035 0.740554 -0.0979247 0
M  V30 3508 H 331.697 1.70903 -0.936912 0
M  V30 3509 H 330.793 3.10495 -0.316142 0
M  V30 3510 N 331.094 0.475555 1.50254 0
M  V30 3511 C 332.004 -0.321501 2.32387 0
M  V30 3512 C 333.02 -0.991755 1.42969 0
M  V30 3513 O 334.196 -0.978747 1.76018 0
M  V30 3514 C 331.261 -1.38667 3.17762 0
M  V30 3515 C 330.322 -0.732538 4.23004 0
M  V30 3516 C 329.555 -1.74695 5.04299 0
M  V30 3517 O 329.778 -2.97399 4.86734 0
M  V30 3518 O 328.712 -1.31631 5.8733 0
M  V30 3519 H 332.538 0.350071 3.01676 0
M  V30 3520 H 330.123 0.237321 1.47503 0
M  V30 3521 H 332.005 -2.00354 3.70724 0
M  V30 3522 H 330.68 -2.04163 2.51196 0
M  V30 3523 H 329.587 -0.0765902 3.74022 0
M  V30 3524 H 330.92 -0.120452 4.92053 0
M  V30 3525 N 332.573 -1.56217 0.208337 0
M  V30 3526 C 333.523 -2.16324 -0.720281 0
M  V30 3527 C 334.507 -1.10775 -1.16695 0
M  V30 3528 O 335.699 -1.36801 -1.12314 0
M  V30 3529 C 332.828 -2.83644 -1.93393 0
M  V30 3530 C 331.914 -3.96401 -1.50755 0
M  V30 3531 N 332.305 -4.99546 -0.792937 0
M  V30 3532 C 330.603 -4.08246 -1.79585 0
M  V30 3533 C 331.304 -5.78828 -0.577364 0
M  V30 3534 N 330.28 -5.31723 -1.1301 0
M  V30 3535 H 334.082 -2.93432 -0.165725 0
M  V30 3536 H 331.596 -1.62397 0.00906463 0
M  V30 3537 H 333.593 -3.25107 -2.60981 0
M  V30 3538 H 332.253 -2.08027 -2.49308 0
M  V30 3539 H 333.264 -5.15967 -0.447004 0
M  V30 3540 H 329.941 -3.4377 -2.36915 0
M  V30 3541 H 331.331 -6.71899 -0.00952956 0
M  V30 3542 N 334.051 0.0651679 -1.57465 0
M  V30 3543 C 335.299 0.761555 -1.87202 0
M  V30 3544 C 335.62 1.77778 -0.801243 0
M  V30 3545 O 334.89 1.95166 0.16937 0
M  V30 3546 H 333.47 0.284251 -0.690804 0
M  V30 3547 H 336.132 0.0396827 -1.9486 0
M  V30 3548 H 335.228 1.27365 -2.84929 0
M  V30 3549 N 335.529 1.53961 0.336706 0
M  V30 3550 C 336.754 1.75797 1.10046 0
M  V30 3551 C 337.179 0.498985 1.81361 0
M  V30 3552 O 336.537 -0.548769 1.72795 0
M  V30 3553 C 336.585 2.94257 2.08436 0
M  V30 3554 O 335.689 2.64883 3.16087 0
M  V30 3555 H 335.03 0.582936 0.317934 0
M  V30 3556 H 337.56 2.00945 0.38501 0
M  V30 3557 H 337.57 3.21237 2.51537 0
M  V30 3558 H 336.245 3.85564 1.55927 0
M  V30 3559 H 334.822 2.48812 2.77753 0
M  V30 3560 N 337.007 -0.598083 1.45811 0
M  V30 3561 C 337.955 -1.72932 1.55555 0
M  V30 3562 C 338.949 -1.63984 0.424921 0
M  V30 3563 O 340.155 -1.69663 0.601205 0
M  V30 3564 H 336.53 -0.571489 0.488779 0
M  V30 3565 H 338.501 -1.61842 2.50699 0
M  V30 3566 C 337.25 -3.11318 1.54843 0
M  V30 3567 H 336.573 -3.18867 2.41172 0
M  V30 3568 H 338.013 -3.90274 1.65717 0
M  V30 3569 C 336.472 -3.3578 0.274427 0
M  V30 3570 O 337.002 -3.9654 -0.641778 0
M  V30 3571 N 335.208 -2.90119 0.167139 0
M  V30 3572 H 334.755 -2.40855 0.913596 0
M  V30 3573 H 334.713 -3.0686 -0.684435 0
M  V30 3574 N 338.485 -1.33259 -0.841409 0
M  V30 3575 C 339.448 -1.23221 -1.9326 0
M  V30 3576 C 340.448 -0.151895 -1.60081 0
M  V30 3577 O 341.638 -0.403246 -1.69468 0
M  V30 3578 C 338.77 -0.898123 -3.28856 0
M  V30 3579 H 339.963 -2.2021 -2.03587 0
M  V30 3580 H 337.516 -1.17281 -1.03319 0
M  V30 3581 H 338.251 0.0693841 -3.24226 0
M  V30 3582 H 338.036 -1.67934 -3.54317 0
M  V30 3583 H 339.526 -0.852563 -4.08805 0
M  V30 3584 N 339.963 1.05934 -1.16686 0
M  V30 3585 C 341.374 1.60263 -0.957745 0
M  V30 3586 C 341.725 1.89789 0.49745 0
M  V30 3587 O 340.85 1.67401 1.37135 0
M  V30 3588 C 341.445 2.91172 -1.73218 0
M  V30 3589 C 340.004 3.42188 -1.56794 0
M  V30 3590 C 339.151 2.16028 -1.73859 0
M  V30 3591 H 342.102 0.888392 -1.31504 0
M  V30 3592 H 342.123 3.60744 -1.21014 0
M  V30 3593 H 341.635 2.6965 -2.79124 0
M  V30 3594 H 339.736 3.68762 -0.533437 0
M  V30 3595 H 339.849 4.17273 -2.35414 0
M  V30 3596 H 338.213 2.26426 -1.16633 0
M  V30 3597 H 338.996 1.96985 -2.81161 0
M  V30 3598 N 341.441 0.965919 1.2453 0
M  V30 3599 C 342.689 0.625593 1.92174 0
M  V30 3600 C 343.01 -0.841652 1.75901 0
M  V30 3601 O 342.28 -1.60061 1.12948 0
M  V30 3602 H 340.86 0.228388 0.71123 0
M  V30 3603 H 343.522 1.2266 1.51461 0
M  V30 3604 H 342.618 0.864653 2.99884 0
M  V30 3605 N 342.919 -1.39368 0.735821 0
M  V30 3606 C 344.196 -1.94465 0.210395 0
M  V30 3607 C 344.576 -1.67254 -1.28799 0
M  V30 3608 O 343.924 -1.00123 -2.05396 0
M  V30 3609 C 344.134 -3.4472 0.544897 0
M  V30 3610 C 345.482 -4.21708 0.494689 0
M  V30 3611 O 346.506 -3.52922 0.482136 0
M  V30 3612 O 345.365 -5.44299 0.489947 0
M  V30 3613 H 342.459 -0.826096 0.0386666 0
M  V30 3614 H 345.005 -1.48863 0.814735 0
M  V30 3615 H 343.777 -3.57963 1.58045 0
M  V30 3616 H 343.4 -3.97502 -0.08837 0
M  V30 3617 N 344.397 -0.483516 -1.5 0
M  V30 3618 C 345.643 0.0672592 -2.02688 0
M  V30 3619 C 345.976 1.38247 -1.36387 0
M  V30 3620 O 345.251 1.88131 -0.493675 0
M  V30 3621 C 345.534 0.238109 -3.59312 0
M  V30 3622 C 345.387 -1.099 -4.36168 0
M  V30 3623 C 346.706 0.986916 -4.28892 0
M  V30 3624 H 343.825 0.0229696 -0.736642 0
M  V30 3625 H 346.467 -0.631527 -1.79197 0
M  V30 3626 H 344.617 0.8333 -3.79458 0
M  V30 3627 H 346.289 -1.73172 -4.27562 0
M  V30 3628 H 344.532 -1.69261 -3.99416 0
M  V30 3629 H 345.203 -0.932954 -5.44059 0
M  V30 3630 H 347.679 0.482302 -4.13295 0
M  V30 3631 H 346.555 1.07527 -5.38265 0
M  V30 3632 H 346.816 2.0265 -3.92919 0
M  V30 3633 N 345.875 1.56104 -0.216619 0
M  V30 3634 C 346.785 2.23694 0.706982 0
M  V30 3635 C 347.801 1.24295 1.21765 0
M  V30 3636 O 348.977 1.57094 1.2603 0
M  V30 3637 C 346.042 2.8998 1.90033 0
M  V30 3638 C 345.103 4.04708 1.43213 0
M  V30 3639 C 344.336 4.67824 2.56859 0
M  V30 3640 O 344.559 4.29913 3.74874 0
M  V30 3641 O 343.493 5.56905 2.28343 0
M  V30 3642 H 347.319 3.03272 0.161235 0
M  V30 3643 H 344.904 1.49394 0.0136177 0
M  V30 3644 H 346.786 3.31837 2.59735 0
M  V30 3645 H 345.461 2.13365 2.43428 0
M  V30 3646 H 344.368 3.6743 0.70327 0
M  V30 3647 H 345.701 4.83051 0.944615 0
M  V30 3648 N 347.353 -0.0568162 1.57498 0
M  V30 3649 C 348.286 -1.09817 2.00039 0
M  V30 3650 C 349.264 -1.3674 0.879819 0
M  V30 3651 O 350.448 -1.49863 1.14338 0
M  V30 3652 C 347.575 -2.43924 2.34986 0
M  V30 3653 C 346.621 -2.33039 3.57204 0
M  V30 3654 S 347.454 -1.7102 5.07457 0
M  V30 3655 C 348.61 -3.06674 5.45621 0
M  V30 3656 H 348.843 -0.735701 2.88053 0
M  V30 3657 H 346.376 -0.265871 1.52094 0
M  V30 3658 H 348.334 -3.2106 2.55795 0
M  V30 3659 H 346.995 -2.77327 1.47474 0
M  V30 3660 H 346.188 -3.31973 3.79223 0
M  V30 3661 H 345.79 -1.64043 3.36104 0
M  V30 3662 H 348.082 -4.03 5.44608 0
M  V30 3663 H 349.025 -2.8942 6.46252 0
M  V30 3664 H 349.433 -3.07969 4.73091 0
M  V30 3665 N 348.832 -1.54138 -0.328536 0
M  V30 3666 C 349.795 -1.82462 -1.38709 0
M  V30 3667 C 350.795 -0.696229 -1.44946 0
M  V30 3668 O 351.985 -0.964535 -1.4506 0
M  V30 3669 C 349.117 -1.98018 -2.77492 0
M  V30 3670 H 350.31 -2.77037 -1.14851 0
M  V30 3671 H 347.863 -1.45779 -0.563751 0
M  V30 3672 H 348.598 -1.05637 -3.06613 0
M  V30 3673 H 348.383 -2.80124 -2.74359 0
M  V30 3674 H 349.873 -2.21396 -3.54081 0
M  V30 3675 N 350.31 0.590341 -1.46126 0
M  V30 3676 C 351.726 0.912917 -1.30912 0
M  V30 3677 C 351.926 1.99616 -0.274893 0
M  V30 3678 O 350.982 2.50397 0.325197 0
M  V30 3679 C 352.295 1.3375 -2.69317 0
M  V30 3680 C 353.843 1.45077 -2.77348 0
M  V30 3681 C 354.318 1.90904 -4.16317 0
M  V30 3682 N 355.809 1.9811 -4.18696 0
M  V30 3683 C 356.544 2.34828 -5.23109 0
M  V30 3684 N 356.04 2.70393 -6.37856 0
M  V30 3685 N 357.833 2.35317 -5.10473 0
M  V30 3686 H 349.984 -0.125358 -2.1203 0
M  V30 3687 H 352.247 0.00658481 -0.947977 0
M  V30 3688 H 351.953 0.615614 -3.4627 0
M  V30 3689 H 351.827 2.30058 -2.9892 0
M  V30 3690 H 354.214 2.16353 -2.00687 0
M  V30 3691 H 354.295 0.4704 -2.51438 0
M  V30 3692 H 353.939 1.20209 -4.9347 0
M  V30 3693 H 353.869 2.89886 -4.39629 0
M  V30 3694 H 356.36 1.73146 -3.359 0
M  V30 3695 H 356.673 2.97341 -7.13308 0
M  V30 3696 H 355.018 2.68048 -6.41229 0
M  V30 3697 H 358.209 2.0695 -4.19868 0
M  V30 3698 H 358.382 2.63605 -5.9196 0
M  V30 3699 N 351.788 1.33704 0.83433 0
M  V30 3700 C 352.751 1.24244 1.92603 0
M  V30 3701 C 353.751 0.160383 1.59998 0
M  V30 3702 O 354.941 0.412228 1.69252 0
M  V30 3703 C 352.073 0.91555 3.28376 0
M  V30 3704 H 353.266 2.21287 2.02416 0
M  V30 3705 H 350.819 1.17827 1.02696 0
M  V30 3706 H 351.554 -0.0521886 3.24258 0
M  V30 3707 H 351.339 1.69811 3.53422 0
M  V30 3708 H 352.829 0.874231 4.08347 0
M  V30 3709 N 353.266 -1.05314 1.17247 0
M  V30 3710 C 354.196 -2.1498 0.911362 0
M  V30 3711 C 355.177 -1.69471 -0.146169 0
M  V30 3712 O 356.362 -1.942 0.003812 0
M  V30 3713 C 353.492 -3.4472 0.422528 0
M  V30 3714 C 352.446 -4.03789 1.4191 0
M  V30 3715 C 351.772 -5.28858 0.788274 0
M  V30 3716 C 353.072 -4.41418 2.7919 0
M  V30 3717 H 354.766 -2.3708 1.82848 0
M  V30 3718 H 352.312 -1.13938 0.880569 0
M  V30 3719 H 354.265 -4.20787 0.227289 0
M  V30 3720 H 352.989 -3.22269 -0.530123 0
M  V30 3721 H 351.648 -3.2979 1.60106 0
M  V30 3722 H 351.296 -5.02709 -0.171173 0
M  V30 3723 H 350.996 -5.69338 1.45353 0
M  V30 3724 H 352.52 -6.07612 0.603282 0
M  V30 3725 H 353.934 -5.08524 2.64719 0
M  V30 3726 H 352.331 -4.92913 3.42282 0
M  V30 3727 H 353.401 -3.51819 3.33693 0
M  V30 3728 N 354.744 -0.972509 -1.24016 0
M  V30 3729 C 356.155 -0.67517 -1.74064 0
M  V30 3730 C 356.506 0.808939 -1.78747 0
M  V30 3731 O 355.631 1.63286 -1.42009 0
M  V30 3732 C 356.226 -1.21889 -3.16115 0
M  V30 3733 C 354.785 -0.971358 -3.6365 0
M  V30 3734 C 353.932 -1.35134 -2.42145 0
M  V30 3735 H 356.883 -1.14727 -1.09651 0
M  V30 3736 H 356.904 -0.587489 -3.75937 0
M  V30 3737 H 356.416 -2.29906 -3.12674 0
M  V30 3738 H 354.517 0.0930686 -3.72484 0
M  V30 3739 H 354.63 -1.62039 -4.50866 0
M  V30 3740 H 352.994 -0.769751 -2.4279 0
M  V30 3741 H 353.777 -2.4411 -2.41381 0
M  V30 3742 N 356.222 1.38976 -0.743202 0
M  V30 3743 C 357.185 2.28901 -0.117014 0
M  V30 3744 C 358.185 1.46698 0.658503 0
M  V30 3745 O 359.375 1.67274 0.486305 0
M  V30 3746 C 356.507 3.30309 0.84315 0
M  V30 3747 H 357.7 2.8578 -0.909373 0
M  V30 3748 H 355.253 1.47761 -0.509547 0
M  V30 3749 H 355.988 2.785 1.66157 0
M  V30 3750 H 355.773 3.91029 0.289594 0
M  V30 3751 H 357.263 3.97577 1.2776 0
M  V30 3752 N 357.7 0.491464 1.49741 0
M  V30 3753 C 358.948 -0.0563141 2.02022 0
M  V30 3754 C 359.269 -1.38363 1.37407 0
M  V30 3755 O 358.539 -1.88702 0.526166 0
M  V30 3756 H 357.119 -0.0238014 0.746621 0
M  V30 3757 H 359.781 0.646533 1.83864 0
M  V30 3758 H 358.877 -0.192967 3.11503 0
M  V30 3759 N 359.178 -1.55987 0.224894 0
M  V30 3760 C 360.403 -2.03232 -0.41369 0
M  V30 3761 C 360.828 -1.10359 -1.52323 0
M  V30 3762 O 360.186 -0.092395 -1.81064 0
M  V30 3763 C 360.234 -3.48682 -0.919405 0
M  V30 3764 O 359.338 -3.58947 -2.03054 0
M  V30 3765 H 358.679 -0.657428 -0.0931903 0
M  V30 3766 H 361.209 -2.01679 0.34451 0
M  V30 3767 H 361.219 -3.8907 -1.22835 0
M  V30 3768 H 359.894 -4.15761 -0.107339 0
M  V30 3769 H 358.471 -3.30448 -1.72796 0
M  V30 3770 N 360.656 0.0484629 -1.57525 0
M  V30 3771 C 361.586 1.0549 -2.08313 0
M  V30 3772 C 362.567 1.38929 -0.981463 0
M  V30 3773 O 363.752 1.48151 -1.25558 0
M  V30 3774 C 360.882 2.36162 -2.54646 0
M  V30 3775 C 359.836 2.17016 -3.68901 0
M  V30 3776 C 359.162 3.53278 -4.01371 0
M  V30 3777 C 360.462 1.57219 -4.98076 0
M  V30 3778 H 362.156 0.632195 -2.92649 0
M  V30 3779 H 359.702 0.302654 -1.40784 0
M  V30 3780 H 361.655 3.06882 -2.88793 0
M  V30 3781 H 360.379 2.80456 -1.67368 0
M  V30 3782 H 359.038 1.48733 -3.35073 0
M  V30 3783 H 358.686 3.95185 -3.11188 0
M  V30 3784 H 358.386 3.41299 -4.78318 0
M  V30 3785 H 359.91 4.25391 -4.38035 0
M  V30 3786 H 361.324 2.17832 -5.30304 0
M  V30 3787 H 359.721 1.55871 -5.79503 0
M  V30 3788 H 360.791 0.535956 -4.81929 0
M  V30 3789 N 362.134 1.5431 0.320358 0
M  V30 3790 C 363.097 1.83195 1.3774 0
M  V30 3791 C 364.097 0.703906 1.44575 0
M  V30 3792 O 365.287 0.972214 1.44546 0
M  V30 3793 C 362.419 1.99487 2.76438 0
M  V30 3794 H 363.612 2.77642 1.1338 0
M  V30 3795 H 361.165 1.46076 0.556012 0
M  V30 3796 H 361.9 1.07262 3.06048 0
M  V30 3797 H 361.685 2.81575 2.7287 0
M  V30 3798 H 363.175 2.23271 3.52902 0
M  V30 3799 N 363.613 -0.582584 1.46437 0
M  V30 3800 C 364.546 -1.70633 1.51524 0
M  V30 3801 C 365.524 -1.58349 0.369351 0
M  V30 3802 O 366.708 -1.79563 0.573516 0
M  V30 3803 C 363.835 -3.08687 1.39392 0
M  V30 3804 C 362.881 -3.3949 2.58164 0
M  V30 3805 S 363.714 -3.31548 4.20519 0
M  V30 3806 C 364.87 -4.72139 4.10896 0
M  V30 3807 H 365.103 -1.66058 2.46601 0
M  V30 3808 H 362.636 -0.761337 1.34324 0
M  V30 3809 H 364.594 -3.8833 1.33079 0
M  V30 3810 H 363.255 -3.10751 0.457436 0
M  V30 3811 H 362.448 -4.40071 2.45669 0
M  V30 3812 H 362.05 -2.67415 2.61468 0
M  V30 3813 H 364.342 -5.62527 3.77584 0
M  V30 3814 H 365.285 -4.89692 5.11476 0
M  V30 3815 H 365.693 -4.48995 3.42146 0
M  V30 3816 N 365.091 -1.34144 -0.827227 0
M  V30 3817 C 366.34 -1.25602 -1.5782 0
M  V30 3818 C 366.653 0.173445 -1.94829 0
M  V30 3819 O 367.859 0.380984 -2.68814 0
M  V30 3820 C 366.315 -2.20151 -2.84713 0
M  V30 3821 C 365.923 -3.68331 -2.55021 0
M  V30 3822 C 367.667 -2.20508 -3.62735 0
M  V30 3823 C 365.574 -4.54762 -3.78082 0
M  V30 3824 H 364.504 -0.466573 -0.592306 0
M  V30 3825 H 367.155 -1.59283 -0.911116 0
M  V30 3826 H 365.537 -1.79417 -3.53023 0
M  V30 3827 H 366.711 -4.17577 -1.94849 0
M  V30 3828 H 365.026 -3.7038 -1.90283 0
M  V30 3829 H 367.623 -2.82306 -4.54101 0
M  V30 3830 H 367.966 -1.20322 -3.98533 0
M  V30 3831 H 368.499 -2.59664 -3.01362 0
M  V30 3832 H 365.238 -5.55867 -3.47407 0
M  V30 3833 H 364.758 -4.10254 -4.37552 0
M  V30 3834 H 366.437 -4.69153 -4.45538 0
M  V30 3835 N 366.569 1.04691 -1.17803 0
M  V30 3836 C 367.815 1.78045 -0.970969 0
M  V30 3837 C 368.148 1.87686 0.498751 0
M  V30 3838 O 367.423 1.38035 1.37027 0
M  V30 3839 C 367.706 3.2166 -1.61884 0
M  V30 3840 C 367.559 3.20001 -3.161 0
M  V30 3841 C 368.878 4.1962 -1.3269 0
M  V30 3842 H 365.997 0.64633 -0.354155 0
M  V30 3843 H 368.639 1.22333 -1.45378 0
M  V30 3844 H 366.789 3.69232 -1.20831 0
M  V30 3845 H 368.461 2.80467 -3.66246 0
M  V30 3846 H 366.704 2.58203 -3.48588 0
M  V30 3847 H 367.375 4.21386 -3.56564 0
M  V30 3848 H 369.851 3.80567 -1.68249 0
M  V30 3849 H 368.727 5.18339 -1.80599 0
M  V30 3850 H 368.988 4.414 -0.248622 0
M  V30 3851 N 368.047 0.979072 1.23499 0
M  V30 3852 C 369.295 0.645941 1.91499 0
M  V30 3853 C 369.616 -0.822948 1.76784 0
M  V30 3854 O 368.886 -1.58854 1.14639 0
M  V30 3855 H 367.466 0.235919 0.708767 0
M  V30 3856 H 370.128 1.2426 1.50152 0
M  V30 3857 H 369.224 0.896411 2.9895 0
M  V30 3858 N 369.525 -1.3858 0.750561 0
M  V30 3859 C 370.773 -1.99789 0.30477 0
M  V30 3860 C 371.094 -1.59874 -1.11649 0
M  V30 3861 O 370.364 -0.85417 -1.76297 0
M  V30 3862 H 368.944 -0.738902 0.109694 0
M  V30 3863 H 371.606 -1.69391 0.963983 0
M  V30 3864 H 370.702 -3.09952 0.365499 0
M  V30 3865 N 371.003 -0.499398 -1.49478 0
M  V30 3866 C 371.953 0.299103 -2.2603 0
M  V30 3867 C 372.937 0.936934 -1.30807 0
M  V30 3868 O 374.129 0.844798 -1.55538 0
M  V30 3869 C 371.258 1.36391 -3.15044 0
M  V30 3870 C 370.344 0.732398 -4.17728 0
M  V30 3871 N 370.735 -0.164028 -5.05534 0
M  V30 3872 C 369.033 0.993162 -4.34801 0
M  V30 3873 C 369.734 -0.525345 -5.79323 0
M  V30 3874 N 368.71 0.106348 -5.43496 0
M  V30 3875 H 372.512 -0.391003 -2.91287 0
M  V30 3876 H 370.026 -0.31537 -1.59308 0
M  V30 3877 H 372.023 1.94939 -3.68516 0
M  V30 3878 H 370.683 2.05571 -2.51338 0
M  V30 3879 H 371.694 -0.534736 -5.15132 0
M  V30 3880 H 368.371 1.67783 -3.82302 0
M  V30 3881 H 369.761 -1.25862 -6.60006 0
M  V30 3882 N 372.481 1.55866 -0.233164 0
M  V30 3883 C 373.706 2.03449 0.402906 0
M  V30 3884 C 374.131 1.11166 1.51736 0
M  V30 3885 O 373.489 0.101996 1.81013 0
M  V30 3886 C 373.537 3.49165 0.9009 0
M  V30 3887 O 372.641 3.60019 2.01147 0
M  V30 3888 H 371.982 0.657913 0.0897025 0
M  V30 3889 H 374.512 2.01493 -0.355201 0
M  V30 3890 H 374.522 3.89716 1.2077 0
M  V30 3891 H 373.197 4.15813 0.0852889 0
M  V30 3892 H 371.774 3.3136 1.71042 0
M  V30 3893 N 373.959 -0.0401083 1.57549 0
M  V30 3894 C 374.891 -1.07149 2.02612 0
M  V30 3895 C 375.904 -1.33126 0.937085 0
M  V30 3896 O 377.093 -1.30808 1.21456 0
M  V30 3897 C 374.193 -2.41561 2.37701 0
M  V30 3898 C 373.366 -2.35096 3.68848 0
M  V30 3899 C 372.425 -3.51867 3.91249 0
M  V30 3900 O 371.451 -3.3186 4.62447 0
M  V30 3901 N 372.653 -4.73351 3.36035 0
M  V30 3902 H 375.418 -0.687485 2.91708 0
M  V30 3903 H 372.979 -0.228248 1.60283 0
M  V30 3904 H 374.971 -3.18379 2.49833 0
M  V30 3905 H 373.541 -2.71846 1.54332 0
M  V30 3906 H 372.761 -1.4345 3.67173 0
M  V30 3907 H 374.049 -2.27908 4.54901 0
M  V30 3908 H 373.447 -4.92507 2.78304 0
M  V30 3909 H 372.004 -5.47572 3.53565 0
M  V30 3910 N 375.437 -1.54477 -0.31217 0
M  V30 3911 C 376.714 -1.63891 -1.06767 0
M  V30 3912 C 377.094 -0.480028 -2.0557 0
M  V30 3913 O 376.442 0.524487 -2.22399 0
M  V30 3914 C 376.652 -3.01402 -1.75948 0
M  V30 3915 C 378 -3.57838 -2.28554 0
M  V30 3916 O 379.024 -3.03782 -1.85998 0
M  V30 3917 O 377.883 -4.52462 -3.06497 0
M  V30 3918 H 374.977 -0.664125 -0.492816 0
M  V30 3919 H 377.523 -1.66823 -0.311149 0
M  V30 3920 H 376.295 -3.77187 -1.04144 0
M  V30 3921 H 375.918 -3.02199 -2.58383 0
M  V30 3922 N 376.915 0.57481 -1.46744 0
M  V30 3923 C 378.326 1.15695 -1.46532 0
M  V30 3924 C 378.677 1.95068 -0.210425 0
M  V30 3925 O 377.802 2.05241 0.685944 0
M  V30 3926 C 378.397 2.1048 -2.65487 0
M  V30 3927 C 376.956 2.64002 -2.68291 0
M  V30 3928 C 376.103 1.40026 -2.39349 0
M  V30 3929 H 379.054 0.362325 -1.54509 0
M  V30 3930 H 379.075 2.94074 -2.41455 0
M  V30 3931 H 378.587 1.52683 -3.56805 0
M  V30 3932 H 376.688 3.25646 -1.81067 0
M  V30 3933 H 376.801 3.06197 -3.68483 0
M  V30 3934 H 375.165 1.70106 -1.89568 0
M  V30 3935 H 375.948 0.840485 -3.32852 0
M  V30 3936 N 378.394 1.34581 0.820102 0
M  V30 3937 C 379.64 1.27285 1.57881 0
M  V30 3938 C 379.973 -0.156137 1.93571 0
M  V30 3939 O 379.248 -1.10222 1.60254 0
M  V30 3940 C 379.531 2.16639 2.87645 0
M  V30 3941 C 379.384 3.68088 2.58517 0
M  V30 3942 C 380.703 2.05378 3.8924 0
M  V30 3943 H 377.822 0.463714 0.572833 0
M  V30 3944 H 380.464 1.64859 0.944539 0
M  V30 3945 H 378.614 1.84725 3.41773 0
M  V30 3946 H 380.286 4.10382 2.10676 0
M  V30 3947 H 378.529 3.89038 1.91917 0
M  V30 3948 H 379.2 4.2598 3.51063 0
M  V30 3949 H 381.676 2.33404 3.44473 0
M  V30 3950 H 380.552 2.7012 4.77835 0
M  V30 3951 H 380.813 1.0316 4.29896 0
M  V30 3952 N 379.872 -1.04064 1.18357 0
M  V30 3953 C 381.112 -1.78829 0.989921 0
M  V30 3954 C 381.476 -1.86106 -0.472095 0
M  V30 3955 O 382.677 -2.57076 -0.785187 0
M  V30 3956 C 380.948 -3.1823 1.6268 0
M  V30 3957 S 382.507 -4.09332 1.58091 0
M  V30 3958 H 379.325 -0.615754 0.355482 0
M  V30 3959 H 381.927 -1.24778 1.50501 0
M  V30 3960 H 380.631 -3.10543 2.68311 0
M  V30 3961 H 380.162 -3.77357 1.112 0
M  V30 3962 H 382.177 -4.92598 0.596817 0
M  V30 3963 N 381.35 -0.985608 -1.22978 0
M  V30 3964 C 382.283 -0.47487 -2.23204 0
M  V30 3965 C 383.261 0.460865 -1.55932 0
M  V30 3966 O 384.445 0.388105 -1.84461 0
M  V30 3967 C 381.572 0.312427 -3.37256 0
M  V30 3968 C 380.618 -0.568219 -4.22698 0
M  V30 3969 S 381.451 -2.01919 -4.95973 0
M  V30 3970 C 382.607 -1.24118 -6.1347 0
M  V30 3971 H 382.84 -1.32419 -2.66181 0
M  V30 3972 H 380.373 -0.792005 -1.32539 0
M  V30 3973 H 382.331 0.760645 -4.03391 0
M  V30 3974 H 380.992 1.13693 -2.92801 0
M  V30 3975 H 380.185 0.0371657 -5.03986 0
M  V30 3976 H 379.787 -0.952897 -3.61657 0
M  V30 3977 H 382.079 -0.505121 -6.75614 0
M  V30 3978 H 383.022 -2.02907 -6.78406 0
M  V30 3979 H 383.43 -0.757669 -5.59392 0
M  V30 3980 N 382.828 1.3818 -0.7579 0
M  V30 3981 C 383.791 2.28764 -0.141286 0
M  V30 3982 C 384.791 1.47388 0.642907 0
M  V30 3983 O 385.981 1.67781 0.468536 0
M  V30 3984 C 383.113 3.31184 0.808069 0
M  V30 3985 H 384.306 2.848 -0.939633 0
M  V30 3986 H 381.859 1.47212 -0.525191 0
M  V30 3987 H 382.594 2.80247 1.63193 0
M  V30 3988 H 382.379 3.91314 0.248104 0
M  V30 3989 H 383.869 3.98909 1.23536 0
M  V30 3990 N 384.306 0.507319 1.49211 0
M  V30 3991 C 385.269 -0.256763 2.27757 0
M  V30 3992 C 386.269 -0.888287 1.34038 0
M  V30 3993 O 387.459 -0.751841 1.5714 0
M  V30 3994 C 384.591 -1.36905 3.12202 0
M  V30 3995 H 385.784 0.432557 2.96764 0
M  V30 3996 H 383.337 0.262488 1.5408 0
M  V30 3997 H 384.072 -2.09233 2.47775 0
M  V30 3998 H 383.857 -0.921599 3.81115 0
M  V30 3999 H 385.347 -1.9071 3.7151 0
M  V30 4000 N 385.784 -1.5574 0.241426 0
M  V30 4001 C 386.694 -2.2479 -0.671305 0
M  V30 4002 C 387.71 -1.26217 -1.19772 0
M  V30 4003 O 388.886 -1.59079 -1.23514 0
M  V30 4004 C 385.951 -2.92966 -1.85396 0
M  V30 4005 C 385.012 -4.06935 -1.36756 0
M  V30 4006 C 384.245 -4.71851 -2.49384 0
M  V30 4007 O 384.468 -4.35823 -3.67987 0
M  V30 4008 O 383.402 -5.60467 -2.19454 0
M  V30 4009 H 387.228 -3.0349 -0.112966 0
M  V30 4010 H 384.813 -1.49397 0.0101513 0
M  V30 4011 H 386.695 -3.35927 -2.54423 0
M  V30 4012 H 385.37 -2.17211 -2.40002 0
M  V30 4013 H 384.277 -3.68503 -0.644726 0
M  V30 4014 H 385.61 -4.84492 -0.867647 0
M  V30 4015 N 387.262 0.0317525 -1.57568 0
M  V30 4016 C 388.21 1.05165 -2.07468 0
M  V30 4017 C 389.204 1.3761 -0.98792 0
M  V30 4018 O 390.41 1.36546 -1.17282 0
M  V30 4019 H 386.785 0.35666 -0.66204 0
M  V30 4020 H 388.756 0.604958 -2.92203 0
M  V30 4021 C 387.505 2.34488 -2.56731 0
M  V30 4022 H 386.828 2.10383 -3.39969 0
M  V30 4023 H 388.268 3.04203 -2.95358 0
M  V30 4024 C 386.727 3.03266 -1.46736 0
M  V30 4025 O 387.257 3.92988 -0.832069 0
M  V30 4026 N 385.463 2.6455 -1.20256 0
M  V30 4027 H 385.01 1.91674 -1.72102 0
M  V30 4028 H 384.968 3.10886 -0.468737 0
M  V30 4029 N 388.74 1.54641 0.303973 0
M  V30 4030 C 389.687 1.85386 1.37479 0
M  V30 4031 C 390.657 0.702528 1.50512 0
M  V30 4032 O 391.842 0.950867 1.65418 0
M  V30 4033 C 388.982 2.10413 2.73533 0
M  V30 4034 C 388.095 3.38049 2.68974 0
M  V30 4035 C 387.23 3.52934 3.97002 0
M  V30 4036 C 386.269 4.74373 3.86829 0
M  V30 4037 N 385.406 4.8608 5.06627 0
M  V30 4038 H 390.246 2.76732 1.1056 0
M  V30 4039 H 387.783 1.37034 0.534805 0
M  V30 4040 H 389.741 2.22919 3.52652 0
M  V30 4041 H 388.371 1.22338 2.98719 0
M  V30 4042 H 387.423 3.3418 1.81736 0
M  V30 4043 H 388.735 4.27288 2.57346 0
M  V30 4044 H 387.889 3.65088 4.84557 0
M  V30 4045 H 386.628 2.61824 4.1146 0
M  V30 4046 H 385.633 4.62255 2.97658 0
M  V30 4047 H 386.858 5.66888 3.73918 0
M  V30 4048 H 384.804 3.97891 5.21554 0
M  V30 4049 H 384.721 5.69315 4.9741 0
M  V30 4050 H 385.989 5.02587 5.95841 0
M  V30 4051 N 390.218 -0.567019 1.47046 0
M  V30 4052 C 391.165 -1.67489 1.58796 0
M  V30 4053 C 392.135 -1.60399 0.43144 0
M  V30 4054 O 393.32 -1.79378 0.650233 0
M  V30 4055 C 390.46 -3.05821 1.59899 0
M  V30 4056 C 389.573 -3.2342 2.86397 0
M  V30 4057 C 388.708 -4.52093 2.789 0
M  V30 4058 C 387.747 -4.6309 4.00267 0
M  V30 4059 N 386.884 -5.83106 3.91064 0
M  V30 4060 H 391.724 -1.56785 2.53422 0
M  V30 4061 H 389.261 -0.763896 1.2571 0
M  V30 4062 H 391.219 -3.8591 1.58522 0
M  V30 4063 H 389.849 -3.15384 0.687929 0
M  V30 4064 H 388.901 -2.3683 2.97684 0
M  V30 4065 H 390.213 -3.27412 3.76301 0
M  V30 4066 H 389.367 -5.4043 2.75718 0
M  V30 4067 H 388.106 -4.50565 1.86662 0
M  V30 4068 H 387.111 -3.73168 4.03765 0
M  V30 4069 H 388.336 -4.66386 4.93621 0
M  V30 4070 H 386.282 -5.82546 3.01623 0
M  V30 4071 H 386.199 -5.88434 4.74638 0
M  V30 4072 H 387.467 -6.73831 3.91882 0
M  V30 4073 N 391.696 -1.35014 -0.812953 0
M  V30 4074 C 392.628 -1.23262 -1.93233 0
M  V30 4075 C 393.641 -0.157371 -1.62038 0
M  V30 4076 O 394.83 -0.410096 -1.73725 0
M  V30 4077 C 391.93 -0.87392 -3.27438 0
M  V30 4078 C 391.103 -2.04622 -3.86586 0
M  V30 4079 C 390.162 -1.66432 -4.99186 0
M  V30 4080 O 389.188 -2.38222 -5.16951 0
M  V30 4081 N 390.39 -0.584248 -5.77552 0
M  V30 4082 H 393.155 -2.19699 -2.03844 0
M  V30 4083 H 390.716 -1.281 -0.99005 0
M  V30 4084 H 392.708 -0.600039 -4.00227 0
M  V30 4085 H 391.278 0.00057392 -3.126 0
M  V30 4086 H 390.498 -2.48427 -3.06068 0
M  V30 4087 H 391.786 -2.82999 -4.22835 0
M  V30 4088 H 391.184 0.0123526 -5.65699 0
M  V30 4089 H 389.741 -0.37013 -6.50748 0
M  V30 4090 N 393.175 1.03435 -1.18907 0
M  V30 4091 C 394.421 1.77005 -0.989798 0
M  V30 4092 C 394.754 1.88205 0.478816 0
M  V30 4093 O 394.029 1.39481 1.35556 0
M  V30 4094 C 394.312 3.19925 -1.65287 0
M  V30 4095 C 394.165 3.1663 -3.19477 0
M  V30 4096 C 395.484 4.18189 -1.37134 0
M  V30 4097 H 392.603 0.642538 -0.360991 0
M  V30 4098 H 395.245 1.20784 -1.46667 0
M  V30 4099 H 393.395 3.67929 -1.24741 0
M  V30 4100 H 395.067 2.76567 -3.692 0
M  V30 4101 H 393.31 2.54491 -3.51307 0
M  V30 4102 H 393.981 4.1758 -3.61013 0
M  V30 4103 H 396.457 3.78761 -1.72276 0
M  V30 4104 H 395.333 5.16394 -1.86087 0
M  V30 4105 H 395.594 4.41112 -0.295424 0
M  V30 4106 N 394.653 0.992116 1.22453 0
M  V30 4107 C 395.93 0.583508 1.86694 0
M  V30 4108 C 396.31 -0.9392 1.89056 0
M  V30 4109 O 395.658 -1.82081 1.38053 0
M  V30 4110 C 395.868 1.20304 3.2761 0
M  V30 4111 C 397.216 1.30308 4.0411 0
M  V30 4112 O 398.24 1.15737 3.36873 0
M  V30 4113 O 397.099 1.53615 5.24466 0
M  V30 4114 H 394.193 0.198129 0.802916 0
M  V30 4115 H 396.739 1.08794 1.30238 0
M  V30 4116 H 395.511 2.24461 3.2052 0
M  V30 4117 H 395.134 0.684144 3.9167 0
M  V30 4118 N 396.131 -1.37776 0.765217 0
M  V30 4119 C 397.361 -2.03828 0.337277 0
M  V30 4120 C 397.769 -1.57841 -1.04321 0
M  V30 4121 O 397.112 -0.752043 -1.67601 0
M  V30 4122 C 397.174 -3.58292 0.294407 0
M  V30 4123 C 396.838 -4.27384 1.61838 0
M  V30 4124 C 397.835 -4.51956 2.56967 0
M  V30 4125 C 395.52 -4.65345 1.89102 0
M  V30 4126 C 397.514 -5.13536 3.77571 0
M  V30 4127 C 395.201 -5.26647 3.09978 0
M  V30 4128 C 396.199 -5.50679 4.04032 0
M  V30 4129 O 395.887 -6.10702 5.2278 0
M  V30 4130 H 395.619 -0.661292 0.140248 0
M  V30 4131 H 398.173 -1.77222 1.03834 0
M  V30 4132 H 396.403 -3.83918 -0.462983 0
M  V30 4133 H 398.092 -4.05763 -0.105581 0
M  V30 4134 H 398.858 -4.23048 2.37183 0
M  V30 4135 H 394.737 -4.45978 1.16725 0
M  V30 4136 H 398.281 -5.3221 4.50997 0
M  V30 4137 H 394.178 -5.54979 3.29649 0
M  V30 4138 H 394.946 -6.29183 5.23517 0
M  V30 4139 N 397.609 -0.515225 -1.4894 0
M  V30 4140 C 398.855 0.0242508 -2.02785 0
M  V30 4141 C 399.188 1.35323 -1.39289 0
M  V30 4142 O 398.463 1.87041 -0.533469 0
M  V30 4143 C 398.746 0.16184 -3.59736 0
M  V30 4144 C 398.599 -1.19127 -4.33738 0
M  V30 4145 C 399.918 0.895719 -4.30888 0
M  V30 4146 H 397.037 0.00733914 -0.736963 0
M  V30 4147 H 399.679 -0.669395 -1.77818 0
M  V30 4148 H 397.829 0.752624 -3.8114 0
M  V30 4149 H 399.501 -1.82202 -4.23792 0
M  V30 4150 H 397.744 -1.77695 -3.95736 0
M  V30 4151 H 398.415 -1.04815 -5.41957 0
M  V30 4152 H 400.891 0.394528 -4.14225 0
M  V30 4153 H 399.767 0.960859 -5.40425 0
M  V30 4154 H 400.028 1.9427 -3.97129 0
M  V30 4155 N 399.087 1.5561 -0.249682 0
M  V30 4156 C 400.498 1.84979 0.252949 0
M  V30 4157 C 400.849 1.17153 1.57384 0
M  V30 4158 O 399.974 0.450884 2.11651 0
M  V30 4159 C 400.569 3.35584 0.465732 0
M  V30 4160 C 399.128 3.65169 0.912624 0
M  V30 4161 C 398.275 2.77299 -0.00859085 0
M  V30 4162 H 401.226 1.51513 -0.47217 0
M  V30 4163 H 401.247 3.57313 1.30795 0
M  V30 4164 H 400.759 3.8492 -0.49579 0
M  V30 4165 H 398.86 3.21312 1.88652 0
M  V30 4166 H 398.973 4.72912 0.767559 0
M  V30 4167 H 397.337 2.49678 0.50327 0
M  V30 4168 H 398.12 3.29442 -0.965537 0
M  V30 4169 N 400.565 -0.0233959 1.57583 0
M  V30 4170 C 401.813 -0.711654 1.89156 0
M  V30 4171 C 402.134 -1.75591 0.848096 0
M  V30 4172 O 401.404 -1.95547 -0.117566 0
M  V30 4173 H 399.984 -0.265835 0.698098 0
M  V30 4174 H 402.646 0.0119948 1.94896 0
M  V30 4175 H 401.742 -1.19766 2.88206 0
M  V30 4176 N 402.043 -1.548 -0.295768 0
M  V30 4177 C 403.271 -1.78327 -1.04914 0
M  V30 4178 C 403.686 -0.545316 -1.80753 0
M  V30 4179 O 403.043 0.485013 -1.75937 0
M  V30 4180 C 403.094 -2.99418 -2.02561 0
M  V30 4181 O 402.815 -4.18431 -1.29798 0
M  V30 4182 C 404.316 -3.35375 -2.89895 0
M  V30 4183 H 401.536 -0.594618 -0.310918 0
M  V30 4184 H 404.08 -2.01763 -0.333454 0
M  V30 4185 H 402.235 -2.78175 -2.69624 0
M  V30 4186 H 402.649 -4.86736 -1.95419 0
M  V30 4187 H 404.123 -4.23332 -3.54251 0
M  V30 4188 H 404.6 -2.53761 -3.58472 0
M  V30 4189 H 405.206 -3.58796 -2.28355 0
M  V30 4190 N 403.521 0.559213 -1.47345 0
M  V30 4191 C 404.932 1.14134 -1.47751 0
M  V30 4192 C 405.283 1.94834 -0.231103 0
M  V30 4193 O 404.408 2.05957 0.664137 0
M  V30 4194 C 405.003 2.07653 -2.67705 0
M  V30 4195 C 403.562 2.61141 -2.71076 0
M  V30 4196 C 402.709 1.3748 -2.40821 0
M  V30 4197 H 405.66 0.345917 -1.54884 0
M  V30 4198 H 405.681 2.91497 -2.44561 0
M  V30 4199 H 405.193 1.4889 -3.58404 0
M  V30 4200 H 403.294 3.23707 -1.84511 0
M  V30 4201 H 403.407 3.02272 -3.7171 0
M  V30 4202 H 401.771 1.68086 -1.91362 0
M  V30 4203 H 402.554 0.805135 -3.33725 0
M  V30 4204 N 404.999 1.35443 0.805782 0
M  V30 4205 C 406.239 1.30127 1.57627 0
M  V30 4206 C 406.603 -0.122567 1.91608 0
M  V30 4207 O 407.804 -0.300107 2.67119 0
M  V30 4208 C 406.075 2.18314 2.82973 0
M  V30 4209 S 407.634 2.30521 3.7337 0
M  V30 4210 H 404.452 0.462439 0.540066 0
M  V30 4211 H 407.054 1.70843 0.95042 0
M  V30 4212 H 405.758 3.20741 2.56034 0
M  V30 4213 H 405.289 1.78558 3.50543 0
M  V30 4214 H 407.304 1.49062 4.73281 0
M  V30 4215 N 406.477 -1.02803 1.19454 0
M  V30 4216 C 407.424 -2.11099 0.933046 0
M  V30 4217 C 408.394 -1.65571 -0.132447 0
M  V30 4218 O 409.579 -1.90797 0.00987576 0
M  V30 4219 C 406.719 -3.41763 0.478747 0
M  V30 4220 C 405.832 -4.00833 1.6111 0
M  V30 4221 C 404.967 -5.19511 1.10825 0
M  V30 4222 C 404.006 -5.70639 2.21445 0
M  V30 4223 N 403.143 -6.80589 1.72461 0
M  V30 4224 H 407.983 -2.32804 1.86028 0
M  V30 4225 H 405.52 -1.14179 0.927441 0
M  V30 4226 H 407.478 -4.16736 0.196745 0
M  V30 4227 H 406.108 -3.20166 -0.411493 0
M  V30 4228 H 405.16 -3.23066 2.00829 0
M  V30 4229 H 406.472 -4.34794 2.4445 0
M  V30 4230 H 405.626 -6.01645 0.781533 0
M  V30 4231 H 404.365 -4.87086 0.244606 0
M  V30 4232 H 403.37 -4.87116 2.54947 0
M  V30 4233 H 404.595 -6.05102 3.08267 0
M  V30 4234 H 402.541 -6.50016 0.884056 0
M  V30 4235 H 402.458 -7.13681 2.49389 0
M  V30 4236 H 403.726 -7.66317 1.42755 0
M  V30 4237 N 407.956 -0.998596 -1.21925 0
M  V30 4238 C 409.367 -0.711939 -1.72593 0
M  V30 4239 C 409.718 0.770842 -1.80423 0
M  V30 4240 O 408.843 1.60237 -1.4544 0
M  V30 4241 C 409.438 -1.28567 -3.13458 0
M  V30 4242 C 407.997 -1.04828 -3.61508 0
M  V30 4243 C 407.144 -1.4024 -2.39224 0
M  V30 4244 H 410.095 -1.17027 -1.07193 0
M  V30 4245 H 410.116 -0.667098 -3.74607 0
M  V30 4246 H 409.628 -2.36486 -3.07727 0
M  V30 4247 H 407.729 0.0140383 -3.72597 0
M  V30 4248 H 407.842 -1.71566 -4.47328 0
M  V30 4249 H 406.206 -0.821077 -2.41103 0
M  V30 4250 H 406.989 -2.49176 -2.36149 0
M  V30 4251 N 409.434 1.37368 -0.772513 0
M  V30 4252 C 410.711 1.93839 -0.26188 0
M  V30 4253 C 411.091 1.7061 1.24319 0
M  V30 4254 O 410.439 1.05534 2.02669 0
M  V30 4255 C 410.649 3.43154 -0.636102 0
M  V30 4256 C 411.997 4.20249 -0.606324 0
M  V30 4257 O 413.021 3.5152 -0.575538 0
M  V30 4258 O 411.88 5.42809 -0.634086 0
M  V30 4259 H 408.974 0.82478 -0.0605555 0
M  V30 4260 H 411.52 1.4665 -0.853917 0
M  V30 4261 H 410.292 3.53647 -1.6748 0
M  V30 4262 H 409.915 3.97596 -0.0170516 0
M  V30 4263 N 410.912 0.523116 1.48665 0
M  V30 4264 C 411.844 -0.280421 2.27478 0
M  V30 4265 C 412.857 -0.910694 1.34945 0
M  V30 4266 O 414.046 -0.790295 1.60052 0
M  V30 4267 C 411.146 -1.41171 3.08097 0
M  V30 4268 C 410.319 -0.884642 4.28361 0
M  V30 4269 C 409.378 -1.89622 4.90846 0
M  V30 4270 O 408.404 -1.4559 5.50265 0
M  V30 4271 N 409.606 -3.22801 4.82472 0
M  V30 4272 H 412.371 0.395481 2.97079 0
M  V30 4273 H 409.932 0.357018 1.57915 0
M  V30 4274 H 411.924 -2.08645 3.4677 0
M  V30 4275 H 410.494 -1.99139 2.40961 0
M  V30 4276 H 409.714 -0.0341177 3.94185 0
M  V30 4277 H 411.002 -0.511268 5.06225 0
M  V30 4278 H 410.4 -3.61246 4.35336 0
M  V30 4279 H 408.957 -3.85927 5.25265 0
M  V30 4280 N 412.39 -1.55475 0.257931 0
M  V30 4281 C 413.322 -2.19192 -0.669881 0
M  V30 4282 C 414.335 -1.17148 -1.1305 0
M  V30 4283 O 415.524 -1.43959 -1.05537 0
M  V30 4284 C 412.624 -2.79016 -1.92363 0
M  V30 4285 C 411.797 -4.06586 -1.61265 0
M  V30 4286 C 410.856 -4.50622 -2.7171 0
M  V30 4287 O 409.882 -5.16765 -2.38627 0
M  V30 4288 N 411.084 -4.19325 -4.01431 0
M  V30 4289 H 413.849 -2.99441 -0.124635 0
M  V30 4290 H 411.41 -1.6171 0.0783311 0
M  V30 4291 H 413.402 -3.05427 -2.65511 0
M  V30 4292 H 411.972 -2.0286 -2.37837 0
M  V30 4293 H 411.192 -3.87646 -0.715811 0
M  V30 4294 H 412.48 -4.89737 -1.37967 0
M  V30 4295 H 411.878 -3.66247 -4.31138 0
M  V30 4296 H 410.435 -4.50547 -4.7101 0
M  V30 4297 N 413.868 0.0150385 -1.57593 0
M  V30 4298 C 414.816 1.02958 -2.08572 0
M  V30 4299 C 415.81 1.36554 -1.00246 0
M  V30 4300 O 417.016 1.35295 -1.18724 0
M  V30 4301 H 413.391 0.349619 -0.665786 0
M  V30 4302 H 415.362 0.573932 -2.92829 0
M  V30 4303 C 414.111 2.31752 -2.59203 0
M  V30 4304 H 413.434 2.06765 -3.42182 0
M  V30 4305 H 414.874 3.01053 -2.98568 0
M  V30 4306 C 413.333 3.01692 -1.49945 0
M  V30 4307 O 413.863 3.92083 -0.873704 0
M  V30 4308 N 412.069 2.6326 -1.23056 0
M  V30 4309 H 411.616 1.89838 -1.74125 0
M  V30 4310 H 411.574 3.10372 -0.501685 0
M  V30 4311 N 415.346 1.54954 0.287554 0
M  V30 4312 C 416.594 1.74528 1.01904 0
M  V30 4313 C 416.915 0.541349 1.87335 0
M  V30 4314 O 416.185 -0.444108 1.908 0
M  V30 4315 H 414.765 0.643576 0.379235 0
M  V30 4316 H 417.427 1.92333 0.315294 0
M  V30 4317 H 416.523 2.64015 1.6644 0
M  V30 4318 N 416.824 -0.551391 1.4764 0
M  V30 4319 C 418.073 -1.30467 1.53822 0
M  V30 4320 C 418.386 -1.94495 0.207661 0
M  V30 4321 O 419.592 -2.71099 0.147533 0
M  V30 4322 C 418.048 -2.36616 2.71184 0
M  V30 4323 C 417.656 -1.78754 4.10793 0
M  V30 4324 C 419.4 -3.13088 2.86663 0
M  V30 4325 C 417.307 -2.82717 5.19447 0
M  V30 4326 H 416.237 -0.490584 0.572576 0
M  V30 4327 H 418.888 -0.58494 1.73927 0
M  V30 4328 H 417.27 -3.11529 2.4447 0
M  V30 4329 H 418.444 -1.10173 4.47435 0
M  V30 4330 H 416.759 -1.14846 4.00249 0
M  V30 4331 H 419.356 -3.90736 3.65007 0
M  V30 4332 H 419.699 -3.67635 1.95321 0
M  V30 4333 H 420.232 -2.45288 3.13175 0
M  V30 4334 H 416.971 -2.33018 6.12685 0
M  V30 4335 H 416.491 -3.4969 4.87316 0
M  V30 4336 H 418.17 -3.46102 5.46646 0
M  V30 4337 N 418.302 -1.35869 -0.798587 0
M  V30 4338 C 419.548 -1.30788 -1.55775 0
M  V30 4339 C 419.903 0.114558 -1.92059 0
M  V30 4340 O 419.196 1.06691 -1.59147 0
M  V30 4341 C 419.39 -2.1556 -2.85077 0
M  V30 4342 C 419.219 -3.65904 -2.61428 0
M  V30 4343 C 417.989 -4.35112 -2.56915 0
M  V30 4344 C 420.187 -4.59375 -2.31255 0
M  V30 4345 N 418.169 -5.71155 -2.25068 0
M  V30 4346 C 419.54 -5.83598 -2.09316 0
M  V30 4347 C 421.595 -4.48035 -2.17185 0
M  V30 4348 C 420.298 -6.97755 -1.74731 0
M  V30 4349 C 422.324 -5.62049 -1.83998 0
M  V30 4350 C 421.686 -6.85305 -1.629 0
M  V30 4351 H 417.785 -0.533855 -0.571422 0
M  V30 4352 H 420.369 -1.7083 -0.934079 0
M  V30 4353 H 418.54 -1.77776 -3.45326 0
M  V30 4354 H 420.272 -2.01938 -3.50718 0
M  V30 4355 H 417.027 -3.87812 -2.71843 0
M  V30 4356 H 417.451 -6.42978 -2.11916 0
M  V30 4357 H 422.093 -3.53338 -2.3219 0
M  V30 4358 H 419.811 -7.92411 -1.58464 0
M  V30 4359 H 423.397 -5.55232 -1.73808 0
M  V30 4360 H 422.277 -7.72034 -1.37596 0
M  V30 4361 N 419.78 1.02168 -1.19998 0
M  V30 4362 C 421.029 1.75091 -1.0013 0
M  V30 4363 C 421.342 1.89923 0.467835 0
M  V30 4364 O 422.548 2.59888 0.785515 0
M  V30 4365 C 421.004 3.14892 -1.74273 0
M  V30 4366 C 420.612 3.0809 -3.25245 0
M  V30 4367 C 422.356 3.9206 -1.62755 0
M  V30 4368 C 420.263 4.42867 -3.91948 0
M  V30 4369 H 419.193 0.656394 -0.37103 0
M  V30 4370 H 421.844 1.14284 -1.43567 0
M  V30 4371 H 420.226 3.7621 -1.2362 0
M  V30 4372 H 421.4 2.5611 -3.83072 0
M  V30 4373 H 419.715 2.44416 -3.3712 0
M  V30 4374 H 422.312 4.91764 -2.09934 0
M  V30 4375 H 422.655 4.12199 -0.582894 0
M  V30 4376 H 423.188 3.37359 -2.10793 0
M  V30 4377 H 419.927 4.27931 -4.96543 0
M  V30 4378 H 419.447 4.94874 -3.3891 0
M  V30 4379 H 421.126 5.11728 -3.95909 0
M  V30 4380 N 421.258 1.00505 1.21394 0
M  V30 4381 C 422.504 0.688793 1.90745 0
M  V30 4382 C 422.837 -0.778486 1.77914 0
M  V30 4383 O 422.112 -1.56433 1.15581 0
M  V30 4384 C 422.395 1.11063 3.42545 0
M  V30 4385 C 422.248 2.63737 3.64367 0
M  V30 4386 C 423.567 0.673059 4.34923 0
M  V30 4387 H 420.686 0.251702 0.692687 0
M  V30 4388 H 423.328 1.25074 1.43026 0
M  V30 4389 H 421.478 0.632508 3.83317 0
M  V30 4390 H 423.15 3.19313 3.32922 0
M  V30 4391 H 421.393 3.05248 3.08231 0
M  V30 4392 H 422.064 2.88305 4.70727 0
M  V30 4393 H 424.54 1.08392 4.01734 0
M  V30 4394 H 423.416 0.996383 5.39781 0
M  V30 4395 H 423.677 -0.425808 4.40045 0
M  V30 4396 N 422.737 -1.36956 0.779787 0
M  V30 4397 C 423.669 -2.28833 0.129639 0
M  V30 4398 C 424.682 -1.4902 -0.655511 0
M  V30 4399 O 425.871 -1.71578 -0.492279 0
M  V30 4400 C 422.971 -3.2833 -0.839792 0
M  V30 4401 C 422.144 -4.3727 -0.10675 0
M  V30 4402 C 421.203 -5.16789 -0.990717 0
M  V30 4403 O 420.229 -5.67406 -0.451516 0
M  V30 4404 N 421.431 -5.32294 -2.3161 0
M  V30 4405 H 424.196 -2.85268 0.918803 0
M  V30 4406 H 421.757 -1.49019 0.632841 0
M  V30 4407 H 423.749 -3.78413 -1.43477 0
M  V30 4408 H 422.319 -2.72605 -1.52988 0
M  V30 4409 H 421.539 -3.88478 0.669216 0
M  V30 4410 H 422.827 -5.07229 0.399464 0
M  V30 4411 H 422.225 -4.92768 -2.77843 0
M  V30 4412 H 420.782 -5.85656 -2.86095 0
M  V30 4413 N 424.215 -0.530993 -1.48385 0
M  V30 4414 C 425.178 0.220497 -2.28137 0
M  V30 4415 C 426.178 0.866851 -1.35434 0
M  V30 4416 O 427.368 0.726746 -1.58316 0
M  V30 4417 C 424.5 1.31921 -3.1434 0
M  V30 4418 H 425.693 -0.479714 -2.96038 0
M  V30 4419 H 423.246 -0.286968 -1.53643 0
M  V30 4420 H 423.981 2.05264 -2.51072 0
M  V30 4421 H 423.766 0.86085 -3.82533 0
M  V30 4422 H 425.256 1.84776 -3.74497 0
M  V30 4423 N 425.693 1.55336 -0.266172 0
M  V30 4424 C 426.643 2.18848 0.639497 0
M  V30 4425 C 427.627 1.1503 1.12503 0
M  V30 4426 O 428.819 1.40875 1.0716 0
M  V30 4427 C 425.948 2.90626 1.82733 0
M  V30 4428 C 425.034 4.01723 1.35939 0
M  V30 4429 N 425.425 5.02145 0.606988 0
M  V30 4430 C 423.723 4.1463 1.6431 0
M  V30 4431 C 424.424 5.80572 0.362138 0
M  V30 4432 N 423.4 5.35551 0.931971 0
M  V30 4433 H 427.202 2.93845 0.0567057 0
M  V30 4434 H 424.716 1.62252 -0.0693312 0
M  V30 4435 H 426.713 3.34569 2.48735 0
M  V30 4436 H 425.373 2.17137 2.41416 0
M  V30 4437 H 426.384 5.17271 0.255198 0
M  V30 4438 H 423.061 3.52326 2.23993 0
M  V30 4439 H 424.451 6.71472 -0.239848 0
M  V30 4440 N 427.171 -0.0066808 1.57599 0
M  V30 4441 C 428.081 -1.01671 2.11424 0
M  V30 4442 C 429.097 -1.38143 1.05795 0
M  V30 4443 O 430.273 -1.47011 1.37658 0
M  V30 4444 C 427.338 -2.29192 2.60139 0
M  V30 4445 C 426.399 -1.99094 3.80342 0
M  V30 4446 C 425.632 -3.20535 4.26724 0
M  V30 4447 O 425.855 -4.3199 3.72479 0
M  V30 4448 O 424.789 -3.04924 5.18946 0
M  V30 4449 H 428.615 -0.589181 2.9793 0
M  V30 4450 H 426.2 -0.225091 1.47695 0
M  V30 4451 H 428.082 -3.0412 2.917 0
M  V30 4452 H 426.757 -2.71195 1.76733 0
M  V30 4453 H 425.664 -1.21663 3.53764 0
M  V30 4454 H 426.997 -1.61931 4.648 0
M  V30 4455 N 428.649 -1.55105 -0.279332 0
M  V30 4456 C 429.895 -1.76597 -1.00921 0
M  V30 4457 C 430.25 -0.556831 -1.84166 0
M  V30 4458 O 429.543 0.450573 -1.86227 0
M  V30 4459 C 429.737 -3.0086 -1.92919 0
M  V30 4460 C 429.566 -4.33744 -1.18728 0
M  V30 4461 C 428.336 -4.9712 -0.905545 0
M  V30 4462 C 430.534 -5.11009 -0.580857 0
M  V30 4463 N 428.516 -6.13749 -0.136169 0
M  V30 4464 C 429.887 -6.19976 0.0546661 0
M  V30 4465 C 431.942 -4.95502 -0.488067 0
M  V30 4466 C 430.645 -7.15123 0.774028 0
M  V30 4467 C 432.671 -5.90999 0.217688 0
M  V30 4468 C 432.033 -6.9935 0.841975 0
M  V30 4469 H 428.132 -0.698553 -0.351493 0
M  V30 4470 H 430.716 -1.92595 -0.285531 0
M  V30 4471 H 428.887 -2.86249 -2.62519 0
M  V30 4472 H 430.619 -3.10784 -2.59221 0
M  V30 4473 H 427.374 -4.57903 -1.20921 0
M  V30 4474 H 427.798 -6.7659 0.235665 0
M  V30 4475 H 432.44 -4.11841 -0.956406 0
M  V30 4476 H 430.158 -7.9831 1.25407 0
M  V30 4477 H 433.744 -5.81078 0.289717 0
M  V30 4478 H 432.624 -7.71973 1.37939 0
M  V30 4479 N 430.127 0.543554 -1.4793 0
M  V30 4480 C 431.375 1.29752 -1.54948 0
M  V30 4481 C 431.696 1.93764 -0.219242 0
M  V30 4482 O 430.966 1.80639 0.75805 0
M  V30 4483 H 429.546 0.481874 -0.570795 0
M  V30 4484 H 432.208 0.633636 -1.84312 0
M  V30 4485 H 431.304 2.08392 -2.32334 0
M  V30 4486 N 431.605 1.3629 0.791371 0
M  V30 4487 C 432.552 1.30458 1.90393 0
M  V30 4488 C 433.522 0.173632 1.6519 0
M  V30 4489 O 434.707 0.35983 1.87376 0
M  V30 4490 C 431.847 1.09777 3.27174 0
M  V30 4491 C 430.96 2.31929 3.64462 0
M  V30 4492 C 430.095 2.04276 4.90352 0
M  V30 4493 C 429.134 3.224 5.20312 0
M  V30 4494 N 428.271 2.94424 6.37385 0
M  V30 4495 H 433.111 2.25589 1.94714 0
M  V30 4496 H 430.648 1.12122 0.952216 0
M  V30 4497 H 432.606 0.958133 4.06049 0
M  V30 4498 H 431.236 0.183014 3.22281 0
M  V30 4499 H 430.288 2.56703 2.80727 0
M  V30 4500 H 431.6 3.20085 3.82553 0
M  V30 4501 H 430.754 1.87231 5.77087 0
M  V30 4502 H 429.493 1.13428 4.74326 0
M  V30 4503 H 428.498 3.40005 4.32061 0
M  V30 4504 H 429.723 4.14071 5.38258 0
M  V30 4505 H 427.669 2.06185 6.22755 0
M  V30 4506 H 427.586 3.76118 6.55798 0
M  V30 4507 H 428.854 2.80953 7.27108 0
M  V30 4508 N 433.083 -1.0153 1.20538 0
M  V30 4509 C 434.313 -1.78487 1.04048 0
M  V30 4510 C 434.721 -1.84631 -0.413292 0
M  V30 4511 O 434.064 -1.29919 -1.29872 0
M  V30 4512 C 434.126 -3.24367 1.55003 0
M  V30 4513 C 433.79 -3.41827 3.0332 0
M  V30 4514 C 434.787 -3.30941 4.00966 0
M  V30 4515 C 432.472 -3.67602 3.42307 0
M  V30 4516 C 434.466 -3.45577 5.35589 0
M  V30 4517 C 432.153 -3.81881 4.77085 0
M  V30 4518 C 433.151 -3.70874 5.73534 0
M  V30 4519 O 432.839 -3.84714 7.05868 0
M  V30 4520 H 432.571 -0.568108 0.366373 0
M  V30 4521 H 435.125 -1.28677 1.60098 0
M  V30 4522 H 433.355 -3.75266 0.933397 0
M  V30 4523 H 435.044 -3.82963 1.34514 0
M  V30 4524 H 435.81 -3.10964 3.72191 0
M  V30 4525 H 431.689 -3.75256 2.67776 0
M  V30 4526 H 435.233 -3.36902 6.10854 0
M  V30 4527 H 431.13 -4.01359 5.0555 0
M  V30 4528 H 431.898 -4.01724 7.13134 0
M  V30 4529 N 434.561 -1.01147 -1.20859 0
M  V30 4530 C 435.807 -0.698899 -1.90377 0
M  V30 4531 C 436.14 0.76904 -1.78324 0
M  V30 4532 O 435.415 1.55817 -1.16409 0
M  V30 4533 C 435.698 -1.12878 -3.41951 0
M  V30 4534 C 435.551 -2.65665 -3.62963 0
M  V30 4535 C 436.87 -0.696114 -4.3456 0
M  V30 4536 H 433.989 -0.255372 -0.691342 0
M  V30 4537 H 436.631 -1.25831 -1.42361 0
M  V30 4538 H 434.781 -0.652827 -3.82976 0
M  V30 4539 H 436.453 -3.21074 -3.31224 0
M  V30 4540 H 434.696 -3.06878 -3.06608 0
M  V30 4541 H 435.367 -2.90797 -4.69192 0
M  V30 4542 H 437.843 -1.10521 -4.01154 0
M  V30 4543 H 436.719 -1.025 -5.39245 0
M  V30 4544 H 436.98 0.402465 -4.40264 0
M  V30 4545 N 436.039 1.36541 -0.78704 0
M  V30 4546 C 437.287 1.98911 -0.357633 0
M  V30 4547 C 437.608 1.62778 1.07371 0
M  V30 4548 O 436.878 0.900612 1.73971 0
M  V30 4549 H 435.458 0.735734 -0.129246 0
M  V30 4550 H 438.12 1.66776 -1.00855 0
M  V30 4551 H 437.216 3.08874 -0.447549 0
M  V30 4552 N 437.518 0.538854 1.48102 0
M  V30 4553 C 438.934 0.19732 1.58376 0
M  V30 4554 C 439.134 -1.29971 1.5398 0
M  V30 4555 O 438.19 -2.07861 1.43352 0
M  V30 4556 C 439.503 0.807716 2.89649 0
M  V30 4557 C 441.051 0.77726 3.03196 0
M  V30 4558 C 441.526 1.36639 4.37143 0
M  V30 4559 N 443.017 1.32875 4.43732 0
M  V30 4560 C 443.752 1.7544 5.45901 0
M  V30 4561 N 443.248 2.25776 6.54979 0
M  V30 4562 N 445.041 1.66623 5.36836 0
M  V30 4563 H 437.192 1.5117 1.49202 0
M  V30 4564 H 439.455 0.629327 0.708979 0
M  V30 4565 H 439.161 1.85909 2.98548 0
M  V30 4566 H 439.035 0.289975 3.76084 0
M  V30 4567 H 441.422 -0.265374 2.93904 0
M  V30 4568 H 441.503 1.33256 2.18349 0
M  V30 4569 H 441.147 2.408 4.47189 0
M  V30 4570 H 441.077 0.786689 5.20691 0
M  V30 4571 H 443.568 0.96037 3.65493 0
M  V30 4572 H 443.881 2.56226 7.29087 0
M  V30 4573 H 442.226 2.29775 6.55918 0
M  V30 4574 H 445.417 1.27089 4.50517 0
M  V30 4575 H 445.59 2.00115 6.16326 0
M  V30 4576 N 438.996 -1.55193 0.274407 0
M  V30 4577 C 439.959 -2.212 -0.600279 0
M  V30 4578 C 440.959 -1.18963 -1.08187 0
M  V30 4579 O 442.149 -1.43873 -0.982158 0
M  V30 4580 C 439.281 -2.87739 -1.82809 0
M  V30 4581 H 440.474 -2.9989 -0.0239682 0
M  V30 4582 H 438.027 -1.5628 0.0250192 0
M  V30 4583 H 438.762 -2.13058 -2.44493 0
M  V30 4584 H 438.547 -3.62658 -1.49069 0
M  V30 4585 H 440.037 -3.38171 -2.45011 0
M  V30 4586 N 440.474 -0.00167713 -1.576 0
M  V30 4587 C 441.751 0.719951 -1.81868 0
M  V30 4588 C 442.131 1.91895 -0.879747 0
M  V30 4589 O 441.479 2.28389 0.0711423 0
M  V30 4590 C 441.689 1.12409 -3.30402 0
M  V30 4591 C 443.037 1.52724 -3.96182 0
M  V30 4592 O 444.061 1.21784 -3.34734 0
M  V30 4593 O 442.92 2.10265 -5.04431 0
M  V30 4594 H 440.014 0.350707 -0.748955 0
M  V30 4595 H 442.56 -0.0272597 -1.69678 0
M  V30 4596 H 441.332 0.269532 -3.90371 0
M  V30 4597 H 440.955 1.93035 -3.47596 0
M  V30 4598 N 441.952 1.55251 0.271103 0
M  V30 4599 C 443.199 1.75946 1.00245 0
M  V30 4600 C 443.527 0.561611 1.86215 0
M  V30 4601 O 442.782 -0.455832 1.90317 0
M  V30 4602 C 443.081 3.01879 1.91321 0
M  V30 4603 C 442.747 4.34337 1.21086 0
M  V30 4604 C 441.409 4.70338 1.01666 0
M  V30 4605 C 443.761 5.16325 0.71119 0
M  V30 4606 C 441.089 5.8588 0.310099 0
M  V30 4607 C 443.441 6.32597 0.0182157 0
M  V30 4608 C 442.105 6.67236 -0.18768 0
M  V30 4609 H 441.375 0.643833 0.366824 0
M  V30 4610 H 444.022 1.89521 0.27458 0
M  V30 4611 H 442.327 2.83212 2.70736 0
M  V30 4612 H 444.024 3.15088 2.48033 0
M  V30 4613 H 440.614 4.06043 1.37213 0
M  V30 4614 H 444.798 4.88987 0.848844 0
M  V30 4615 H 440.054 6.1124 0.139873 0
M  V30 4616 H 444.228 6.9538 -0.376711 0
M  V30 4617 H 441.855 7.56618 -0.73715 0
M  V30 4618 N 443.43 -0.535701 1.48216 0
M  V30 4619 C 444.34 -1.66785 1.64985 0
M  V30 4620 C 445.356 -1.65654 0.532414 0
M  V30 4621 O 446.532 -1.8471 0.80275 0
M  V30 4622 C 443.597 -3.0326 1.68031 0
M  V30 4623 C 442.658 -3.1529 2.9136 0
M  V30 4624 C 441.891 -4.45255 2.94252 0
M  V30 4625 O 442.114 -5.32011 2.05719 0
M  V30 4626 O 441.048 -4.6153 3.86359 0
M  V30 4627 H 444.874 -1.55576 2.60825 0
M  V30 4628 H 442.459 -0.70815 1.31551 0
M  V30 4629 H 444.341 -3.84436 1.72589 0
M  V30 4630 H 443.016 -3.14805 0.753628 0
M  V30 4631 H 441.923 -2.3343 2.92337 0
M  V30 4632 H 443.256 -3.08658 3.83394 0
M  V30 4633 N 444.908 -1.36708 -0.784132 0
M  V30 4634 C 446.155 -1.31231 -1.54222 0
M  V30 4635 C 446.483 0.106864 -1.94206 0
M  V30 4636 O 445.738 1.07734 -1.63376 0
M  V30 4637 C 446.037 -2.18571 -2.82774 0
M  V30 4638 C 445.703 -3.67039 -2.61903 0
M  V30 4639 C 444.365 -4.07503 -2.55919 0
M  V30 4640 C 446.717 -4.61149 -2.4288 0
M  V30 4641 C 444.045 -5.40211 -2.28886 0
M  V30 4642 C 446.397 -5.94081 -2.17373 0
M  V30 4643 C 445.061 -6.33664 -2.09825 0
M  V30 4644 H 444.331 -0.48021 -0.56434 0
M  V30 4645 H 446.978 -1.68807 -0.904233 0
M  V30 4646 H 445.283 -1.73949 -3.51068 0
M  V30 4647 H 446.98 -2.11655 -3.40592 0
M  V30 4648 H 443.57 -3.34941 -2.67418 0
M  V30 4649 H 447.754 -4.30756 -2.46501 0
M  V30 4650 H 443.01 -5.69855 -2.21529 0
M  V30 4651 H 447.184 -6.66566 -2.01649 0
M  V30 4652 H 444.811 -7.36423 -1.88641 0
M  V30 4653 N 446.386 1.0089 -1.21074 0
M  V30 4654 C 447.802 1.2695 -0.967257 0
M  V30 4655 C 448.002 1.9846 0.348673 0
M  V30 4656 O 447.058 2.28459 1.0753 0
M  V30 4657 C 448.371 2.09697 -2.15517 0
M  V30 4658 C 449.919 2.22937 -2.197 0
M  V30 4659 C 450.394 3.09064 -3.37999 0
M  V30 4660 N 451.885 3.16653 -3.38061 0
M  V30 4661 C 452.62 3.8354 -4.26245 0
M  V30 4662 N 452.116 4.52488 -5.2462 0
M  V30 4663 N 453.909 3.80141 -4.14064 0
M  V30 4664 H 446.06 0.529005 -2.05707 0
M  V30 4665 H 448.323 0.296148 -0.900556 0
M  V30 4666 H 448.029 1.64497 -3.10859 0
M  V30 4667 H 447.903 3.10444 -2.14253 0
M  V30 4668 H 450.29 2.67357 -1.24916 0
M  V30 4669 H 450.371 1.21673 -2.2501 0
M  V30 4670 H 450.015 2.65347 -4.33074 0
M  V30 4671 H 449.945 4.10433 -3.29928 0
M  V30 4672 H 452.436 2.67566 -2.66865 0
M  V30 4673 H 452.749 5.01219 -5.88217 0
M  V30 4674 H 451.094 4.51288 -5.28549 0
M  V30 4675 H 454.285 3.25427 -3.36474 0
M  V30 4676 H 454.458 4.31992 -4.82998 0
M  V30 4677 N 447.864 1.01787 1.20321 0
M  V30 4678 C 448.812 0.58254 2.25187 0
M  V30 4679 C 449.806 -0.379359 1.65098 0
M  V30 4680 O 451.012 -0.249142 1.78267 0
M  V30 4681 H 447.387 0.170078 0.732514 0
M  V30 4682 H 449.358 1.47788 2.59232 0
M  V30 4683 C 448.107 -0.0620885 3.47645 0
M  V30 4684 H 447.43 0.669069 3.94162 0
M  V30 4685 H 448.87 -0.329784 4.22716 0
M  V30 4686 C 447.329 -1.3053 3.10586 0
M  V30 4687 O 447.859 -2.39848 3.22236 0
M  V30 4688 N 446.065 -1.18988 2.65123 0
M  V30 4689 H 445.612 -0.300341 2.55843 0
M  V30 4690 H 445.57 -2.02267 2.40698 0
M  V30 4691 N 449.342 -1.36122 0.79427 0
M  V30 4692 C 450.59 -1.98718 0.368177 0
M  V30 4693 C 450.911 -1.63345 -1.06506 0
M  V30 4694 O 450.181 -0.909825 -1.73491 0
M  V30 4695 H 448.761 -0.735038 0.133146 0
M  V30 4696 H 451.423 -1.66239 1.01739 0
M  V30 4697 H 450.519 -3.08633 0.463923 0
M  V30 4698 N 450.82 -0.546701 -1.47814 0
M  V30 4699 C 451.73 0.21026 -2.33656 0
M  V30 4700 C 452.746 0.922413 -1.47538 0
M  V30 4701 O 453.922 0.893652 -1.80488 0
M  V30 4702 C 450.987 1.23348 -3.24016 0
M  V30 4703 C 450.048 0.529883 -4.26017 0
M  V30 4704 C 449.281 1.50435 -5.12059 0
M  V30 4705 O 449.504 2.73837 -5.00369 0
M  V30 4706 O 448.438 1.03459 -5.92942 0
M  V30 4707 H 452.264 -0.493605 -2.99662 0
M  V30 4708 H 449.849 -0.307427 -1.46203 0
M  V30 4709 H 451.731 1.82438 -3.79861 0
M  V30 4710 H 450.406 1.91945 -2.60651 0
M  V30 4711 H 449.313 -0.101948 -3.73961 0
M  V30 4712 H 450.646 -0.11445 -4.92067 0
M  V30 4713 N 452.299 1.55045 -0.282633 0
M  V30 4714 C 453.232 2.18951 0.64311 0
M  V30 4715 C 454.21 1.15287 1.14664 0
M  V30 4716 O 455.394 1.43846 1.21822 0
M  V30 4717 C 452.521 2.81874 1.87789 0
M  V30 4718 C 451.567 3.98906 1.50919 0
M  V30 4719 S 452.4 5.3234 0.580884 0
M  V30 4720 C 453.556 5.98737 1.82387 0
M  V30 4721 H 453.789 2.97131 0.100138 0
M  V30 4722 H 451.322 1.54255 -0.0668514 0
M  V30 4723 H 453.28 3.18757 2.58658 0
M  V30 4724 H 451.941 2.03573 2.392 0
M  V30 4725 H 451.134 4.4165 2.42819 0
M  V30 4726 H 450.736 3.63485 0.88061 0
M  V30 4727 H 453.028 6.18427 2.76684 0
M  V30 4728 H 453.971 6.93318 1.4393 0
M  V30 4729 H 454.379 5.28177 1.99223 0
M  V30 4730 N 453.777 0.010035 1.57597 0
M  V30 4731 C 454.724 -0.978122 2.09049 0
M  V30 4732 C 455.694 -1.33509 0.988159 0
M  V30 4733 O 456.879 -1.43172 1.26121 0
M  V30 4734 C 454.019 -2.26158 2.60666 0
M  V30 4735 C 453.132 -1.96275 3.84838 0
M  V30 4736 C 452.267 -3.18776 4.24918 0
M  V30 4737 C 451.306 -2.84625 5.41899 0
M  V30 4738 N 450.443 -3.99693 5.77226 0
M  V30 4739 H 455.283 -0.532431 2.93205 0
M  V30 4740 H 452.82 -0.251234 1.44939 0
M  V30 4741 H 454.778 -3.01202 2.88675 0
M  V30 4742 H 453.408 -2.68378 1.79369 0
M  V30 4743 H 452.46 -1.11555 3.63675 0
M  V30 4744 H 453.772 -1.67111 4.69974 0
M  V30 4745 H 452.926 -4.02157 4.54262 0
M  V30 4746 H 451.665 -3.51087 3.38511 0
M  V30 4747 H 450.67 -1.99653 5.12268 0
M  V30 4748 H 451.895 -2.53551 6.29991 0
M  V30 4749 H 449.841 -4.31882 4.93776 0
M  V30 4750 H 449.758 -3.74087 6.56959 0
M  V30 4751 H 451.026 -4.83834 6.11167 0
M  V30 4752 N 455.255 -1.55392 -0.262866 0
M  V30 4753 C 456.188 -1.8391 -1.35101 0
M  V30 4754 C 457.166 -0.692901 -1.47097 0
M  V30 4755 O 458.35 -0.936979 -1.63563 0
M  V30 4756 C 455.477 -2.00969 -2.72634 0
M  V30 4757 C 454.523 -3.23559 -2.7787 0
M  V30 4758 S 455.356 -4.80647 -2.3609 0
M  V30 4759 C 456.512 -5.00692 -3.75578 0
M  V30 4760 H 456.745 -2.75918 -1.1071 0
M  V30 4761 H 454.278 -1.47294 -0.463029 0
M  V30 4762 H 456.236 -2.11482 -3.51832 0
M  V30 4763 H 454.897 -1.09832 -2.94272 0
M  V30 4764 H 454.09 -3.32413 -3.78837 0
M  V30 4765 H 453.692 -3.11689 -2.06702 0
M  V30 4766 H 455.984 -4.87055 -4.70939 0
M  V30 4767 H 456.927 -6.02717 -3.71669 0
M  V30 4768 H 457.335 -4.28619 -3.6735 0
M  V30 4769 N 456.733 0.527833 -1.48498 0
M  V30 4770 C 457.979 1.28545 -1.56857 0
M  V30 4771 C 458.312 1.92678 -0.242651 0
M  V30 4772 O 457.587 1.79394 0.751545 0
M  V30 4773 C 457.87 2.37314 -2.70839 0
M  V30 4774 C 457.723 1.77858 -4.13142 0
M  V30 4775 C 459.042 3.39068 -2.80573 0
M  V30 4776 H 456.161 0.466006 -0.570971 0
M  V30 4777 H 458.803 0.587784 -1.8068 0
M  V30 4778 H 456.953 2.96821 -2.50658 0
M  V30 4779 H 458.625 1.22385 -4.44769 0
M  V30 4780 H 456.868 1.08383 -4.20042 0
M  V30 4781 H 457.539 2.56624 -4.88721 0
M  V30 4782 H 460.015 2.89518 -2.98862 0
M  V30 4783 H 458.891 4.12566 -3.6205 0
M  V30 4784 H 459.152 3.9975 -1.88818 0
M  V30 4785 N 458.211 1.37122 0.776871 0
M  V30 4786 C 459.159 1.32549 1.91138 0
M  V30 4787 C 460.153 0.215119 1.68029 0
M  V30 4788 O 461.359 0.382852 1.75881 0
M  V30 4789 H 457.734 0.412952 0.62847 0
M  V30 4790 H 459.705 2.28332 1.92112 0
M  V30 4791 C 458.454 1.14422 3.28333 0
M  V30 4792 H 457.777 1.99115 3.46689 0
M  V30 4793 H 459.217 1.15272 4.0803 0
M  V30 4794 C 457.676 -0.150434 3.36564 0
M  V30 4795 O 458.206 -1.13584 3.85307 0
M  V30 4796 N 456.412 -0.19939 2.89915 0
M  V30 4797 H 455.959 0.603142 2.5044 0
M  V30 4798 H 455.917 -1.06526 2.95803 0
M  V30 4799 N 459.689 -1.00246 1.21608 0
M  V30 4800 C 460.919 -1.77373 1.05935 0
M  V30 4801 C 461.327 -1.85059 -0.393686 0
M  V30 4802 O 460.67 -1.31289 -1.28487 0
M  V30 4803 C 460.732 -3.22705 1.58435 0
M  V30 4804 C 460.396 -3.38591 3.06929 0
M  V30 4805 C 461.393 -3.2667 4.04454 0
M  V30 4806 C 459.078 -3.6395 3.46187 0
M  V30 4807 C 461.072 -3.39877 5.39224 0
M  V30 4808 C 458.759 -3.768 4.81108 0
M  V30 4809 C 459.757 -3.6477 5.77436 0
M  V30 4810 O 459.445 -3.77206 7.09909 0
M  V30 4811 H 459.177 -0.56419 0.372378 0
M  V30 4812 H 461.731 -1.26971 1.61454 0
M  V30 4813 H 459.961 -3.74255 0.973147 0
M  V30 4814 H 461.65 -3.81515 1.38568 0
M  V30 4815 H 462.416 -3.06999 3.75468 0
M  V30 4816 H 458.295 -3.72395 2.71741 0
M  V30 4817 H 461.839 -3.30404 6.14393 0
M  V30 4818 H 457.736 -3.95975 5.09779 0
M  V30 4819 H 458.504 -3.94138 7.17355 0
M  V30 4820 N 461.167 -1.02423 -1.1978 0
M  V30 4821 C 462.099 -0.559152 -2.22275 0
M  V30 4822 C 463.112 0.36251 -1.58713 0
M  V30 4823 O 464.301 0.159641 -1.77785 0
M  V30 4824 C 461.401 0.205094 -3.38279 0
M  V30 4825 C 460.574 -0.720361 -4.31427 0
M  V30 4826 C 459.633 -0.00234368 -5.262 0
M  V30 4827 O 458.659 -0.627378 -5.65732 0
M  V30 4828 N 459.861 1.26996 -5.66438 0
M  V30 4829 H 462.626 -1.44064 -2.62804 0
M  V30 4830 H 460.187 -0.902692 -1.34399 0
M  V30 4831 H 462.179 0.694868 -3.9869 0
M  V30 4832 H 460.749 0.987947 -2.96578 0
M  V30 4833 H 459.969 -1.39031 -3.68869 0
M  V30 4834 H 461.257 -1.3495 -4.90577 0
M  V30 4835 H 460.655 1.79858 -5.36347 0
M  V30 4836 H 459.212 1.70432 -6.29123 0
M  V30 4837 N 462.645 1.35699 -0.801477 0
M  V30 4838 C 463.575 2.32436 -0.222658 0
M  V30 4839 C 464.556 1.5723 0.649057 0
M  V30 4840 O 465.741 1.85324 0.580387 0
M  V30 4841 C 462.871 3.41469 0.633719 0
M  V30 4842 C 461.825 4.27774 -0.139083 0
M  V30 4843 C 461.151 5.28082 0.838666 0
M  V30 4844 C 462.451 5.04946 -1.33517 0
M  V30 4845 H 464.145 2.81094 -1.03086 0
M  V30 4846 H 461.691 1.35146 -0.497155 0
M  V30 4847 H 463.644 4.08143 1.04868 0
M  V30 4848 H 462.368 2.91408 1.47475 0
M  V30 4849 H 461.027 3.62673 -0.535156 0
M  V30 4850 H 460.675 4.7429 1.67506 0
M  V30 4851 H 460.375 5.86695 0.32594 0
M  V30 4852 H 461.899 5.97628 1.25194 0
M  V30 4853 H 463.313 5.64593 -0.995349 0
M  V30 4854 H 461.71 5.7303 -1.78202 0
M  V30 4855 H 462.78 4.35886 -2.12442 0
M  V30 4856 N 464.123 0.554532 1.47522 0
M  V30 4857 C 465.372 0.0273458 2.01681 0
M  V30 4858 C 465.685 -1.32962 1.43459 0
M  V30 4859 O 466.891 -1.94657 1.89265 0
M  V30 4860 C 465.347 -0.00159057 3.599 0
M  V30 4861 C 464.955 1.35197 4.27113 0
M  V30 4862 C 466.699 -0.476311 4.21819 0
M  V30 4863 C 464.606 1.28229 5.77331 0
M  V30 4864 H 463.536 0.00645269 0.753972 0
M  V30 4865 H 466.187 0.701985 1.69542 0
M  V30 4866 H 464.569 -0.741821 3.8899 0
M  V30 4867 H 465.743 2.1097 4.09668 0
M  V30 4868 H 464.058 1.76441 3.77171 0
M  V30 4869 H 466.655 -0.5468 5.31897 0
M  V30 4870 H 466.998 -1.4877 3.8881 0
M  V30 4871 H 467.531 0.20898 3.97251 0
M  V30 4872 H 464.27 2.26959 6.14955 0
M  V30 4873 H 463.79 0.566314 5.97121 0
M  V30 4874 H 465.469 0.983226 6.39485 0
M  V30 4875 N 465.601 -1.54893 0.290851 0
M  V30 4876 C 467.012 -1.85584 -0.203816 0
M  V30 4877 C 467.363 -1.21285 -1.54222 0
M  V30 4878 O 466.488 -0.506841 -2.10381 0
M  V30 4879 C 467.083 -3.367 -0.376595 0
M  V30 4880 C 465.642 -3.6746 -0.815485 0
M  V30 4881 C 464.789 -2.77178 0.0821087 0
M  V30 4882 H 467.74 -1.50208 0.512175 0
M  V30 4883 H 467.761 -3.60656 -1.21275 0
M  V30 4884 H 467.273 -3.8347 0.59767 0
M  V30 4885 H 465.374 -3.26201 -1.80066 0
M  V30 4886 H 465.487 -4.7478 -0.641905 0
M  V30 4887 H 463.851 -2.50925 -0.436895 0
M  V30 4888 H 464.634 -3.26767 1.05254 0
M  V30 4889 N 467.08 -0.0183926 -1.57589 0
M  V30 4890 C 468.326 0.663543 -1.91638 0
M  V30 4891 C 468.659 1.72392 -0.894134 0
M  V30 4892 O 467.934 1.94316 0.0846449 0
M  V30 4893 C 468.217 1.28984 -3.36207 0
M  V30 4894 C 468.07 0.239761 -4.49161 0
M  V30 4895 C 469.389 2.2109 -3.80536 0
M  V30 4896 H 466.508 0.239746 -0.696915 0
M  V30 4897 H 469.15 -0.073456 -1.89858 0
M  V30 4898 H 467.3 1.91799 -3.37854 0
M  V30 4899 H 468.972 -0.390119 -4.59647 0
M  V30 4900 H 467.215 -0.435972 -4.31604 0
M  V30 4901 H 467.886 0.717383 -5.47319 0
M  V30 4902 H 470.362 1.68273 -3.80557 0
M  V30 4903 H 469.238 2.61869 -4.82406 0
M  V30 4904 H 469.499 3.09764 -3.15434 0
M  V30 4905 N 468.558 1.5553 0.254621 0
M  V30 4906 C 469.506 1.9048 1.33492 0
M  V30 4907 C 470.5 0.78304 1.50216 0
M  V30 4908 O 471.706 0.967582 1.51782 0
M  V30 4909 H 468.081 0.604846 0.44684 0
M  V30 4910 H 470.052 2.80688 1.01275 0
M  V30 4911 C 468.801 2.20928 2.68489 0
M  V30 4912 H 468.124 3.06742 2.56417 0
M  V30 4913 H 469.564 2.49291 3.42972 0
M  V30 4914 C 468.023 1.023 3.20993 0
M  V30 4915 O 468.553 0.267027 4.00811 0
M  V30 4916 N 466.759 0.815714 2.78917 0
M  V30 4917 H 466.306 1.43217 2.14119 0
M  V30 4918 H 466.264 0.0236532 3.14391 0
M  V30 4919 N 470.036 -0.519951 1.48776 0
M  V30 4920 C 470.966 -1.63253 1.66945 0
M  V30 4921 C 471.947 -1.62014 0.518224 0
M  V30 4922 O 473.132 -1.79053 0.751919 0
M  V30 4923 C 470.262 -3.0181 1.71836 0
M  V30 4924 C 469.216 -3.17911 2.8656 0
M  V30 4925 C 468.542 -4.5763 2.76548 0
M  V30 4926 C 469.842 -2.99729 4.27738 0
M  V30 4927 H 471.536 -1.48302 2.6009 0
M  V30 4928 H 469.082 -0.712026 1.25165 0
M  V30 4929 H 471.035 -3.79525 1.83135 0
M  V30 4930 H 469.759 -3.17806 0.752775 0
M  V30 4931 H 468.418 -2.42616 2.74833 0
M  V30 4932 H 468.066 -4.70476 1.77937 0
M  V30 4933 H 467.766 -4.69346 3.53536 0
M  V30 4934 H 469.29 -5.37431 2.89828 0
M  V30 4935 H 470.704 -3.67228 4.40246 0
M  V30 4936 H 469.101 -3.22932 5.05801 0
M  V30 4937 H 470.171 -1.96047 4.43502 0
M  V30 4938 N 471.514 -1.37532 -0.769588 0
M  V30 4939 C 472.461 -1.3347 -1.88293 0
M  V30 4940 C 473.431 -0.199891 -1.64893 0
M  V30 4941 O 474.616 -0.389594 -1.8678 0
M  V30 4942 C 471.756 -1.14968 -3.25387 0
M  V30 4943 C 470.869 -2.37698 -3.60727 0
M  V30 4944 C 470.004 -2.12051 -4.8704 0
M  V30 4945 C 469.043 -3.30636 -5.15117 0
M  V30 4946 N 468.18 -3.04527 -6.3262 0
M  V30 4947 H 473.02 -2.28658 -1.911 0
M  V30 4948 H 470.557 -1.13622 -0.934257 0
M  V30 4949 H 472.515 -1.02261 -4.04473 0
M  V30 4950 H 471.145 -0.234263 -3.21949 0
M  V30 4951 H 470.197 -2.61137 -2.76608 0
M  V30 4952 H 471.509 -3.26131 -3.77413 0
M  V30 4953 H 470.663 -1.96388 -5.74035 0
M  V30 4954 H 469.402 -1.20959 -4.72462 0
M  V30 4955 H 468.407 -3.46836 -4.26597 0
M  V30 4956 H 469.632 -4.22582 -5.31603 0
M  V30 4957 H 467.578 -2.16067 -6.19396 0
M  V30 4958 H 467.495 -3.86503 -6.49732 0
M  V30 4959 H 468.763 -2.92485 -7.22546 0
M  V30 4960 N 472.992 0.995999 -1.22138 0
M  V30 4961 C 473.939 2.08551 -0.988687 0
M  V30 4962 C 474.909 1.65864 0.0885021 0
M  V30 4963 O 476.094 1.90704 -0.0604589 0
M  V30 4964 C 473.234 3.40374 -0.569191 0
M  V30 4965 C 472.347 3.96421 -1.71681 0
M  V30 4966 C 471.482 5.1639 -1.2456 0
M  V30 4967 C 470.521 5.64567 -2.36497 0
M  V30 4968 N 469.658 6.75777 -1.90445 0
M  V30 4969 H 474.498 2.2779 -1.92135 0
M  V30 4970 H 472.035 1.1168 -0.957388 0
M  V30 4971 H 473.993 4.16068 -0.307166 0
M  V30 4972 H 472.623 3.21145 0.326462 0
M  V30 4973 H 471.675 3.17628 -2.09324 0
M  V30 4974 H 472.987 4.2816 -2.55891 0
M  V30 4975 H 472.141 5.99362 -0.940774 0
M  V30 4976 H 470.88 4.86266 -0.373662 0
M  V30 4977 H 469.885 4.80185 -2.67772 0
M  V30 4978 H 471.11 5.96716 -3.24202 0
M  V30 4979 H 469.056 6.47443 -1.05609 0
M  V30 4980 H 468.973 7.06818 -2.68223 0
M  V30 4981 H 470.241 7.62262 -1.63022 0
M  V30 4982 N 474.47 1.03057 1.19235 0
M  V30 4983 C 475.417 0.612832 2.22515 0
M  V30 4984 C 476.387 -0.374224 1.61829 0
M  V30 4985 O 477.572 -0.270501 1.88873 0
M  V30 4986 C 474.712 -0.028475 3.45088 0
M  V30 4987 C 473.825 1.00483 4.20151 0
M  V30 4988 C 472.96 0.333102 5.30155 0
M  V30 4989 C 471.999 1.3522 5.96977 0
M  V30 4990 N 471.136 0.70616 6.9854 0
M  V30 4991 H 475.976 1.49812 2.57605 0
M  V30 4992 H 473.513 0.749658 1.26564 0
M  V30 4993 H 475.471 -0.417548 4.15105 0
M  V30 4994 H 474.101 -0.877334 3.10649 0
M  V30 4995 H 473.153 1.51194 3.49062 0
M  V30 4996 H 474.465 1.77929 4.65986 0
M  V30 4997 H 473.619 -0.110725 6.06599 0
M  V30 4998 H 472.358 -0.473547 4.85396 0
M  V30 4999 H 471.363 1.80627 5.19282 0
M  V30 5000 H 472.588 2.16037 6.4382 0
M  V30 5001 H 470.534 -0.0803667 6.55951 0
M  V30 5002 H 470.451 1.41848 7.42573 0
M  V30 5003 H 471.719 0.286391 7.78974 0
M  V30 5004 N 475.948 -1.35272 0.808662 0
M  V30 5005 C 477.194 -1.99003 0.390581 0
M  V30 5006 C 477.527 -1.63999 -1.0401 0
M  V30 5007 O 476.802 -0.904368 -1.72196 0
M  V30 5008 C 477.085 -3.55454 0.576566 0
M  V30 5009 C 476.938 -4.00249 2.05233 0
M  V30 5010 C 478.257 -4.401 0.00354277 0
M  V30 5011 H 475.376 -0.722917 0.143388 0
M  V30 5012 H 478.018 -1.6039 1.01858 0
M  V30 5013 H 476.168 -3.88477 0.0419766 0
M  V30 5014 H 477.84 -3.77626 2.64946 0
M  V30 5015 H 476.083 -3.51082 2.54801 0
M  V30 5016 H 476.754 -5.0911 2.13333 0
M  V30 5017 H 479.23 -4.13548 0.460117 0
M  V30 5018 H 478.106 -5.48656 0.163575 0
M  V30 5019 H 478.367 -4.28444 -1.09032 0
M  V30 5020 N 477.426 -0.562348 -1.47226 0
M  V30 5021 C 478.654 -0.0452275 -2.06851 0
M  V30 5022 C 479.069 1.25078 -1.41424 0
M  V30 5023 O 478.426 1.75156 -0.512513 0
M  V30 5024 C 478.477 0.148674 -3.61194 0
M  V30 5025 O 478.198 -1.09602 -4.24169 0
M  V30 5026 C 479.699 0.702488 -4.37699 0
M  V30 5027 H 476.919 -0.0481775 -0.669268 0
M  V30 5028 H 479.463 -0.777223 -1.89155 0
M  V30 5029 H 477.618 0.830817 -3.78386 0
M  V30 5030 H 478.032 -0.896982 -5.16773 0
M  V30 5031 H 479.506 0.78743 -5.46355 0
M  V30 5032 H 479.983 1.71493 -4.04335 0
M  V30 5033 H 480.589 0.0558772 -4.25263 0
M  V30 5034 N 478.904 1.54736 -0.299062 0
M  V30 5035 C 480.15 2.01114 0.304123 0
M  V30 5036 C 480.505 1.18376 1.51674 0
M  V30 5037 O 479.798 0.251635 1.8994 0
M  V30 5038 C 479.992 3.50199 0.713835 0
M  V30 5039 C 479.821 4.47366 -0.457531 0
M  V30 5040 C 478.591 4.9631 -0.948933 0
M  V30 5041 C 480.789 4.9755 -1.30186 0
M  V30 5042 N 478.771 5.77327 -2.08726 0
M  V30 5043 C 480.142 5.7625 -2.28771 0
M  V30 5044 C 482.197 4.79739 -1.33246 0
M  V30 5045 C 480.9 6.39036 -3.3019 0
M  V30 5046 C 482.926 5.43343 -2.33521 0
M  V30 5047 C 482.288 6.21874 -3.30836 0
M  V30 5048 H 478.387 0.778318 0.0757992 0
M  V30 5049 H 480.971 1.89925 -0.428536 0
M  V30 5050 H 479.142 3.61681 1.41567 0
M  V30 5051 H 480.874 3.83374 1.29639 0
M  V30 5052 H 477.629 4.7069 -0.52423 0
M  V30 5053 H 478.053 6.22521 -2.66077 0
M  V30 5054 H 482.695 4.18609 -0.59383 0
M  V30 5055 H 480.413 6.99302 -4.04973 0
M  V30 5056 H 483.999 5.31492 -2.3666 0
M  V30 5057 H 482.879 6.70217 -4.07159 0
M  V30 5058 N 480.382 0.0267497 1.57577 0
M  V30 5059 C 481.292 -0.971633 2.13533 0
M  V30 5060 C 482.308 -1.35868 1.08701 0
M  V30 5061 O 483.484 -1.44058 1.40746 0
M  V30 5062 C 480.549 -2.23622 2.64941 0
M  V30 5063 C 479.61 -1.90982 3.8448 0
M  V30 5064 C 478.843 -3.11411 4.33427 0
M  V30 5065 O 479.066 -4.23992 3.81558 0
M  V30 5066 O 478 -2.93848 5.25297 0
M  V30 5067 H 481.826 -0.525853 2.99113 0
M  V30 5068 H 479.411 -0.193712 1.48139 0
M  V30 5069 H 481.293 -2.97864 2.98086 0
M  V30 5070 H 479.968 -2.67386 1.82446 0
M  V30 5071 H 478.875 -1.14132 3.56265 0
M  V30 5072 H 480.208 -1.52036 4.6813 0
M  V30 5073 N 481.861 -1.55662 -0.24637 0
M  V30 5074 C 483.138 -1.68272 -0.997198 0
M  V30 5075 C 483.518 -0.566785 -2.03349 0
M  V30 5076 O 482.866 0.429688 -2.24424 0
M  V30 5077 C 483.076 -3.08594 -1.63006 0
M  V30 5078 C 484.424 -3.6721 -2.13171 0
M  V30 5079 O 485.448 -3.11397 -1.72946 0
M  V30 5080 O 484.307 -4.65054 -2.87031 0
M  V30 5081 H 481.401 -0.684429 -0.464205 0
M  V30 5082 H 483.947 -1.67993 -0.240114 0
M  V30 5083 H 482.719 -3.81264 -0.880527 0
M  V30 5084 H 482.342 -3.12886 -2.45333 0
M  V30 5085 N 483.339 0.512053 -1.4905 0
M  V30 5086 C 484.587 1.26436 -1.57665 0
M  V30 5087 C 484.908 1.93255 -0.260293 0
M  V30 5088 O 484.178 1.82206 0.719564 0
M  V30 5089 H 482.758 0.469658 -0.580888 0
M  V30 5090 H 485.42 0.594398 -1.85615 0
M  V30 5091 H 484.516 2.03417 -2.36702 0
M  V30 5092 N 484.817 1.37938 0.762283 0
M  V30 5093 C 485.764 1.34467 1.87583 0
M  V30 5094 C 486.734 0.208633 1.64785 0
M  V30 5095 O 487.919 0.399494 1.86571 0
M  V30 5096 C 485.059 1.16692 3.24772 0
M  V30 5097 C 484.172 2.39608 3.59461 0
M  V30 5098 C 483.307 2.14631 4.85908 0
M  V30 5099 C 482.346 3.33364 5.13357 0
M  V30 5100 N 481.483 3.07877 6.30996 0
M  V30 5101 H 486.323 2.29669 1.89885 0
M  V30 5102 H 483.86 1.14116 0.928219 0
M  V30 5103 H 485.818 1.04405 4.03925 0
M  V30 5104 H 484.448 0.251333 3.2182 0
M  V30 5105 H 483.5 2.626 2.75219 0
M  V30 5106 H 484.812 3.28128 3.75678 0
M  V30 5107 H 483.966 1.99429 5.72986 0
M  V30 5108 H 482.705 1.23463 4.71814 0
M  V30 5109 H 481.71 3.49094 4.24751 0
M  V30 5110 H 482.935 4.25395 5.29354 0
M  V30 5111 H 480.881 2.19348 6.18241 0
M  V30 5112 H 480.798 3.89944 6.47673 0
M  V30 5113 H 482.066 2.96313 7.20985 0
M  V30 5114 N 486.295 -0.989507 1.22664 0
M  V30 5115 C 487.52 -1.77031 1.08051 0
M  V30 5116 C 487.945 -1.84535 -0.364483 0
M  V30 5117 O 487.303 -1.3003 -1.2634 0
M  V30 5118 C 487.351 -3.18 1.70024 0
M  V30 5119 O 486.455 -4.01161 0.956216 0
M  V30 5120 H 485.796 -0.545008 0.379292 0
M  V30 5121 H 488.326 -1.24277 1.62531 0
M  V30 5122 H 488.336 -3.68616 1.74888 0
M  V30 5123 H 487.011 -3.11853 2.75174 0
M  V30 5124 H 485.588 -3.59687 0.98384 0
M  V30 5125 N 487.773 -1.03688 -1.18687 0
M  V30 5126 C 488.683 -0.634908 -2.25845 0
M  V30 5127 C 489.699 0.337065 -1.70704 0
M  V30 5128 O 490.875 0.192943 -2.00474 0
M  V30 5129 C 487.94 -0.000180054 -3.467 0
M  V30 5130 C 487.001 -1.02067 -4.1699 0
M  V30 5131 C 486.234 -0.41614 -5.32075 0
M  V30 5132 O 486.457 0.778712 -5.65059 0
M  V30 5133 O 485.391 -1.14296 -5.90948 0
M  V30 5134 H 489.217 -1.52757 -2.62486 0
M  V30 5135 H 486.802 -0.807533 -1.25695 0
M  V30 5136 H 488.684 0.353342 -4.19916 0
M  V30 5137 H 487.359 0.866367 -3.11891 0
M  V30 5138 H 486.266 -1.42592 -3.45859 0
M  V30 5139 H 487.599 -1.85786 -4.5579 0
M  V30 5140 N 489.251 1.34841 -0.815825 0
M  V30 5141 C 490.667 1.51543 -0.500697 0
M  V30 5142 C 490.867 1.76261 0.976444 0
M  V30 5143 O 489.923 1.8094 1.76117 0
M  V30 5144 C 491.236 2.68487 -1.35407 0
M  V30 5145 C 492.784 2.82368 -1.35046 0
M  V30 5146 C 493.259 4.02347 -2.18816 0
M  V30 5147 N 494.75 4.09542 -2.16402 0
M  V30 5148 C 495.485 5.01517 -2.77971 0
M  V30 5149 N 494.981 5.98763 -3.48503 0
M  V30 5150 N 496.774 4.94334 -2.67563 0
M  V30 5151 H 488.925 1.17055 -1.77234 0
M  V30 5152 H 491.188 0.573481 -0.754866 0
M  V30 5153 H 490.894 2.56829 -2.40274 0
M  V30 5154 H 490.768 3.63321 -1.01377 0
M  V30 5155 H 493.155 2.93471 -0.309604 0
M  V30 5156 H 493.236 1.88363 -1.73069 0
M  V30 5157 H 492.88 3.92004 -3.22948 0
M  V30 5158 H 492.81 4.95551 -1.78148 0
M  V30 5159 H 495.301 3.39932 -1.65091 0
M  V30 5160 H 495.614 6.6556 -3.92747 0
M  V30 5161 H 493.959 5.98909 -3.52609 0
M  V30 5162 H 497.15 4.1732 -2.12041 0
M  V30 5163 H 497.323 5.6582 -3.15834 0
M  V30 5164 N 490.729 0.570148 1.46925 0
M  V30 5165 C 491.975 0.0510284 2.02736 0
M  V30 5166 C 492.308 -1.3006 1.44215 0
M  V30 5167 O 491.583 -1.84932 0.602521 0
M  V30 5168 C 491.866 -0.028215 3.60089 0
M  V30 5169 C 491.719 1.35142 4.29018 0
M  V30 5170 C 493.038 -0.735181 4.33916 0
M  V30 5171 H 490.157 0.0200178 0.736728 0
M  V30 5172 H 492.799 0.73493 1.75211 0
M  V30 5173 H 490.949 -0.610648 3.83671 0
M  V30 5174 H 492.621 1.97806 4.16738 0
M  V30 5175 H 490.864 1.9226 3.88868 0
M  V30 5176 H 491.535 1.24857 5.37694 0
M  V30 5177 H 494.011 -0.240519 4.15404 0
M  V30 5178 H 492.887 -0.759622 5.43618 0
M  V30 5179 H 493.148 -1.79397 4.04066 0
M  V30 5180 N 492.207 -1.54576 0.307264 0
M  V30 5181 C 493.137 -2.26708 -0.55907 0
M  V30 5182 C 494.118 -1.26893 -1.1328 0
M  V30 5183 O 495.303 -1.55677 -1.16097 0
M  V30 5184 C 492.433 -3.01259 -1.72801 0
M  V30 5185 C 491.387 -4.08275 -1.28435 0
M  V30 5186 C 490.713 -4.70575 -2.53895 0
M  V30 5187 C 492.013 -5.2068 -0.411038 0
M  V30 5188 H 493.707 -2.9937 0.042576 0
M  V30 5189 H 491.253 -1.43983 0.0219173 0
M  V30 5190 H 493.206 -3.50444 -2.34023 0
M  V30 5191 H 491.93 -2.26187 -2.356 0
M  V30 5192 H 490.589 -3.59949 -0.695161 0
M  V30 5193 H 490.237 -3.92136 -3.15021 0
M  V30 5194 H 489.937 -5.42854 -2.24908 0
M  V30 5195 H 491.461 -5.22527 -3.15908 0
M  V30 5196 H 492.875 -5.65721 -0.929097 0
M  V30 5197 H 491.272 -5.99716 -0.214664 0
M  V30 5198 H 492.342 -4.81629 0.562287 0
M  V30 5199 N 493.685 -0.035106 -1.57561 0
M  V30 5200 C 494.915 0.651312 -1.96065 0
M  V30 5201 C 495.323 1.6585 -0.910514 0
M  V30 5202 O 494.666 1.83336 0.11552 0
M  V30 5203 C 494.728 1.40897 -3.30739 0
M  V30 5204 C 494.392 0.559436 -4.53563 0
M  V30 5205 C 495.389 -0.16778 -5.19629 0
M  V30 5206 C 493.074 0.495079 -4.99854 0
M  V30 5207 C 495.068 -0.947963 -6.30311 0
M  V30 5208 C 492.755 -0.288804 -6.10417 0
M  V30 5209 C 493.753 -1.00903 -6.75505 0
M  V30 5210 O 493.441 -1.78005 -7.83945 0
M  V30 5211 H 493.173 0.184036 -0.650467 0
M  V30 5212 H 495.727 -0.0929677 -2.05189 0
M  V30 5213 H 493.957 2.19852 -3.18123 0
M  V30 5214 H 495.646 1.98407 -3.54104 0
M  V30 5215 H 496.412 -0.12743 -4.84833 0
M  V30 5216 H 492.291 1.04524 -4.48994 0
M  V30 5217 H 495.835 -1.51064 -6.81047 0
M  V30 5218 H 491.732 -0.33085 -6.44652 0
M  V30 5219 H 492.5 -1.70046 -8.00641 0
M  V30 5220 N 495.163 1.55791 0.238111 0
M  V30 5221 C 496.391 1.82098 0.982233 0
M  V30 5222 C 496.806 0.612025 1.78605 0
M  V30 5223 O 496.163 -0.419381 1.77616 0
M  V30 5224 C 496.214 3.0673 1.91309 0
M  V30 5225 O 495.935 4.2296 1.14179 0
M  V30 5226 C 497.436 3.45903 2.77248 0
M  V30 5227 H 494.656 0.605748 0.288635 0
M  V30 5228 H 497.2 2.02862 0.258341 0
M  V30 5229 H 495.355 2.87991 2.59114 0
M  V30 5230 H 495.769 4.93653 1.7722 0
M  V30 5231 H 497.243 4.36189 3.38295 0
M  V30 5232 H 497.72 2.66891 3.48806 0
M  V30 5233 H 498.326 3.67024 2.14881 0
M  V30 5234 N 496.642 -0.504142 1.49319 0
M  V30 5235 C 498.053 -1.08572 1.51885 0
M  V30 5236 C 498.404 -1.93842 0.303255 0
M  V30 5237 O 497.529 -2.0828 -0.58724 0
M  V30 5238 C 498.124 -1.97574 2.75227 0
M  V30 5239 C 496.683 -2.509 2.80581 0
M  V30 5240 C 495.83 -1.28447 2.45757 0
M  V30 5241 H 498.781 -0.288194 1.56061 0
M  V30 5242 H 498.802 -2.82219 2.55211 0
M  V30 5243 H 498.314 -1.35486 3.63683 0
M  V30 5244 H 496.415 -3.16636 1.96398 0
M  V30 5245 H 496.528 -2.88268 3.82673 0
M  V30 5246 H 494.892 -1.60868 1.97468 0
M  V30 5247 H 495.675 -0.68072 3.36483 0
M  V30 5248 N 498.12 -1.38341 -0.754957 0
M  V30 5249 C 499.03 -1.3769 -1.89944 0
M  V30 5250 C 500.046 -0.274194 -1.71826 0
M  V30 5251 O 501.222 -0.512391 -1.94773 0
M  V30 5252 C 498.287 -1.19938 -3.25293 0
M  V30 5253 C 497.348 -2.40001 -3.55946 0
M  V30 5254 C 496.581 -2.23087 -4.84838 0
M  V30 5255 O 496.804 -1.22386 -5.57116 0
M  V30 5256 O 495.738 -3.11646 -5.14937 0
M  V30 5257 H 499.564 -2.3412 -1.93446 0
M  V30 5258 H 497.149 -1.19246 -0.900044 0
M  V30 5259 H 499.031 -1.12093 -4.06218 0
M  V30 5260 H 497.706 -0.265919 -3.22606 0
M  V30 5261 H 496.613 -2.53421 -2.75188 0
M  V30 5262 H 497.946 -3.31973 -3.63394 0
M  V30 5263 N 499.598 0.982988 -1.23187 0
M  V30 5264 C 500.847 1.71817 -1.05649 0
M  V30 5265 C 501.16 1.91315 0.407176 0
M  V30 5266 O 502.366 2.62256 0.702436 0
M  V30 5267 C 500.822 3.09188 -1.84203 0
M  V30 5268 C 500.43 2.97586 -3.34882 0
M  V30 5269 C 502.174 3.86684 -1.75146 0
M  V30 5270 C 500.081 4.30173 -4.05839 0
M  V30 5271 H 499.011 0.644258 -0.391724 0
M  V30 5272 H 501.662 1.09659 -1.4713 0
M  V30 5273 H 500.044 3.72087 -1.35527 0
M  V30 5274 H 501.218 2.43793 -3.91026 0
M  V30 5275 H 499.533 2.33567 -3.44725 0
M  V30 5276 H 502.13 4.84836 -2.25473 0
M  V30 5277 H 502.473 4.10136 -0.713737 0
M  V30 5278 H 503.006 3.30482 -2.21419 0
M  V30 5279 H 499.745 4.11918 -5.09906 0
M  V30 5280 H 499.265 4.83841 -3.54482 0
M  V30 5281 H 500.944 4.98873 -4.11989 0
M  V30 5282 N 501.076 1.04316 1.18135 0
M  V30 5283 C 502.039 0.640794 2.2006 0
M  V30 5284 C 503.039 -0.303124 1.57917 0
M  V30 5285 O 504.229 -0.0881855 1.73977 0
M  V30 5286 C 501.361 -0.060148 3.40847 0
M  V30 5287 H 502.554 1.54281 2.57172 0
M  V30 5288 H 500.107 0.836004 1.32063 0
M  V30 5289 H 500.842 -0.975845 3.0927 0
M  V30 5290 H 500.627 0.618319 3.87194 0
M  V30 5291 H 502.117 -0.328082 4.16309 0
M  V30 5292 N 502.554 -1.34406 0.822964 0
M  V30 5293 C 503.464 -2.33298 0.246838 0
M  V30 5294 C 504.48 -1.62625 -0.618797 0
M  V30 5295 O 505.656 -1.94391 -0.526685 0
M  V30 5296 C 502.721 -3.41785 -0.581731 0
M  V30 5297 C 501.782 -4.28206 0.306309 0
M  V30 5298 C 501.015 -5.31512 -0.48281 0
M  V30 5299 O 501.238 -5.43973 -1.71607 0
M  V30 5300 O 500.172 -6.01749 0.134884 0
M  V30 5301 H 503.998 -2.84401 1.06534 0
M  V30 5302 H 501.583 -1.37466 0.585108 0
M  V30 5303 H 503.465 -4.08028 -1.05313 0
M  V30 5304 H 502.14 -2.92925 -1.37756 0
M  V30 5305 H 501.047 -3.64885 0.825199 0
M  V30 5306 H 502.38 -4.80507 1.06649 0
M  V30 5307 N 504.032 -0.577932 -1.46621 0
M  V30 5308 C 504.98 0.170882 -2.31971 0
M  V30 5309 C 505.974 0.889086 -1.44193 0
M  V30 5310 O 507.18 0.808017 -1.60845 0
M  V30 5311 H 503.555 0.0739763 -0.748353 0
M  V30 5312 H 505.526 -0.567856 -2.92947 0
M  V30 5313 C 504.275 1.17438 -3.27267 0
M  V30 5314 H 503.598 0.63116 -3.94787 0
M  V30 5315 H 505.038 1.66882 -3.89778 0
M  V30 5316 C 503.497 2.23292 -2.52274 0
M  V30 5317 O 504.027 3.30567 -2.28229 0
M  V30 5318 N 502.233 1.97772 -2.12919 0
M  V30 5319 H 501.78 1.10545 -2.32675 0
M  V30 5320 H 501.738 2.68809 -1.63062 0
M  V30 5321 N 505.51 1.54411 -0.315457 0
M  V30 5322 C 506.442 2.21527 0.588067 0
M  V30 5323 C 507.455 1.21263 1.08624 0
M  V30 5324 O 508.644 1.47777 1.00121 0
M  V30 5325 C 505.744 2.85963 1.81875 0
M  V30 5326 C 504.917 4.12291 1.46063 0
M  V30 5327 C 503.976 4.60396 2.54799 0
M  V30 5328 O 503.002 5.25265 2.19283 0
M  V30 5329 N 504.204 4.33935 3.85591 0
M  V30 5330 H 506.969 2.99697 0.013414 0
M  V30 5331 H 504.53 1.61308 -0.138295 0
M  V30 5332 H 506.522 3.15071 2.53993 0
M  V30 5333 H 505.092 2.11548 2.30144 0
M  V30 5334 H 504.312 3.90036 0.571445 0
M  V30 5335 H 505.6 4.9452 1.19695 0
M  V30 5336 H 504.998 3.81996 4.17248 0
M  V30 5337 H 503.555 4.67718 4.53964 0
M  V30 5338 N 506.988 0.0434614 1.5754 0
M  V30 5339 C 507.92 -0.962586 2.08007 0
M  V30 5340 C 508.933 -1.27972 1.00634 0
M  V30 5341 O 510.122 -1.24186 1.28219 0
M  V30 5342 C 507.222 -2.28621 2.50171 0
M  V30 5343 C 506.395 -2.15214 3.80791 0
M  V30 5344 C 505.454 -3.30633 4.09351 0
M  V30 5345 O 504.48 -3.0688 4.79388 0
M  V30 5346 N 505.682 -4.54873 3.60654 0
M  V30 5347 H 508.447 -0.531891 2.94942 0
M  V30 5348 H 506.008 -0.142965 1.61268 0
M  V30 5349 H 508 -3.04689 2.66359 0
M  V30 5350 H 506.57 -2.63283 1.68525 0
M  V30 5351 H 505.79 -1.23785 3.74261 0
M  V30 5352 H 507.078 -2.03475 4.66343 0
M  V30 5353 H 506.476 -4.77063 3.04019 0
M  V30 5354 H 505.033 -5.2806 3.82094 0
M  V30 5355 N 508.466 -1.55915 -0.229846 0
M  V30 5356 C 509.399 -1.86734 -1.3117 0
M  V30 5357 C 510.377 -0.723947 -1.45595 0
M  V30 5358 O 511.561 -0.971462 -1.61539 0
M  V30 5359 C 508.688 -2.06707 -2.68309 0
M  V30 5360 C 507.734 -3.2938 -2.70944 0
M  V30 5361 S 508.567 -4.85547 -2.25842 0
M  V30 5362 C 509.723 -5.08546 -3.64873 0
M  V30 5363 H 509.956 -2.78204 -1.04832 0
M  V30 5364 H 507.489 -1.48243 -0.431681 0
M  V30 5365 H 509.447 -2.18898 -3.47267 0
M  V30 5366 H 508.108 -1.16049 -2.91876 0
M  V30 5367 H 507.301 -3.40374 -3.71701 0
M  V30 5368 H 506.903 -3.16004 -2.00044 0
M  V30 5369 H 509.195 -4.96935 -4.60502 0
M  V30 5370 H 510.138 -6.10465 -3.58801 0
M  V30 5371 H 510.546 -4.36314 -3.58176 0
M  V30 5372 N 509.944 0.496216 -1.49584 0
M  V30 5373 C 511.193 1.24668 -1.58558 0
M  V30 5374 C 511.506 1.9359 -0.279703 0
M  V30 5375 O 512.712 2.70365 -0.248048 0
M  V30 5376 C 511.168 2.26388 -2.79779 0
M  V30 5377 C 510.776 1.63384 -4.17145 0
M  V30 5378 C 512.52 3.02233 -2.98086 0
M  V30 5379 C 510.427 2.63243 -5.29582 0
M  V30 5380 H 509.357 0.468995 -0.590389 0
M  V30 5381 H 512.008 0.519985 -1.75978 0
M  V30 5382 H 510.39 3.02241 -2.55863 0
M  V30 5383 H 511.564 0.93491 -4.51216 0
M  V30 5384 H 509.879 0.999121 -4.04236 0
M  V30 5385 H 512.476 3.76919 -3.79257 0
M  V30 5386 H 512.819 3.60132 -2.08831 0
M  V30 5387 H 513.352 2.33495 -3.22063 0
M  V30 5388 H 510.091 2.10119 -6.20911 0
M  V30 5389 H 509.611 3.31363 -4.99959 0
M  V30 5390 H 511.29 3.25575 -5.59115 0
M  V30 5391 N 511.423 1.38739 0.74761 0
M  V30 5392 C 512.648 1.38702 1.54197 0
M  V30 5393 C 513.073 -0.019664 1.8809 0
M  V30 5394 O 512.431 -1.00333 1.51006 0
M  V30 5395 C 512.479 2.25492 2.814 0
M  V30 5396 O 511.583 1.67613 3.76802 0
M  V30 5397 H 510.924 0.472863 0.466151 0
M  V30 5398 H 513.454 1.82577 0.923413 0
M  V30 5399 H 513.464 2.39561 3.30264 0
M  V30 5400 H 512.139 3.27727 2.56062 0
M  V30 5401 H 510.716 1.62718 3.35526 0
M  V30 5402 N 512.901 -0.976442 1.23707 0
M  V30 5403 C 513.831 -2.08749 1.04624 0
M  V30 5404 C 514.812 -1.70057 -0.0380956 0
M  V30 5405 O 515.997 -1.93782 0.127308 0
M  V30 5406 C 513.127 -3.41335 0.640902 0
M  V30 5407 C 512.081 -3.93947 1.67302 0
M  V30 5408 C 511.407 -5.22774 1.12301 0
M  V30 5409 C 512.707 -4.22769 3.06697 0
M  V30 5410 H 514.401 -2.24972 1.97555 0
M  V30 5411 H 511.947 -1.08108 0.951247 0
M  V30 5412 H 513.9 -4.18489 0.494434 0
M  V30 5413 H 512.624 -3.24988 -0.324099 0
M  V30 5414 H 511.283 -3.18941 1.80755 0
M  V30 5415 H 510.931 -5.0278 0.148877 0
M  V30 5416 H 510.631 -5.58942 1.81267 0
M  V30 5417 H 512.155 -6.02546 0.988479 0
M  V30 5418 H 513.569 -4.90659 2.96524 0
M  V30 5419 H 511.966 -4.70147 3.72937 0
M  V30 5420 H 513.036 -3.29885 3.55392 0
M  V30 5421 N 514.379 -1.04941 -1.1758 0
M  V30 5422 C 515.309 -0.669172 -2.23706 0
M  V30 5423 C 516.29 0.331835 -1.66832 0
M  V30 5424 O 517.475 0.209988 -1.93061 0
M  V30 5425 C 514.605 -0.0404889 -3.47276 0
M  V30 5426 C 513.559 -0.965983 -4.16957 0
M  V30 5427 C 512.885 -0.201312 -5.34321 0
M  V30 5428 C 514.185 -2.28902 -4.69469 0
M  V30 5429 H 515.879 -1.55639 -2.55767 0
M  V30 5430 H 513.425 -0.749793 -1.22939 0
M  V30 5431 H 515.378 0.237298 -4.20731 0
M  V30 5432 H 514.102 0.881658 -3.14475 0
M  V30 5433 H 512.761 -1.22829 -3.45411 0
M  V30 5434 H 512.409 0.723519 -4.97769 0
M  V30 5435 H 512.109 -0.817968 -5.81879 0
M  V30 5436 H 513.633 0.0692499 -6.10561 0
M  V30 5437 H 515.047 -2.07132 -5.34574 0
M  V30 5438 H 513.444 -2.85942 -5.27596 0
M  V30 5439 H 514.514 -2.92937 -3.86414 0
M  V30 5440 N 515.857 1.33968 -0.830081 0
M  V30 5441 C 517.082 2.02813 -0.433796 0
M  V30 5442 C 517.507 1.62076 0.954614 0
M  V30 5443 O 516.865 0.808955 1.62252 0
M  V30 5444 C 516.913 3.56348 -0.552115 0
M  V30 5445 O 516.017 4.10202 0.425191 0
M  V30 5446 H 515.358 0.639817 -0.177567 0
M  V30 5447 H 517.888 1.7106 -1.12248 0
M  V30 5448 H 517.898 4.05722 -0.430513 0
M  V30 5449 H 516.573 3.85344 -1.56471 0
M  V30 5450 H 515.15 3.71979 0.261878 0
M  V30 5451 N 517.335 0.585699 1.46312 0
M  V30 5452 C 518.746 0.159938 1.86014 0
M  V30 5453 C 519.097 -1.27775 1.48889 0
M  V30 5454 O 518.222 -1.96559 0.90519 0
M  V30 5455 C 518.817 0.283485 3.37612 0
M  V30 5456 C 517.376 -0.0874256 3.76298 0
M  V30 5457 C 516.523 0.618055 2.70325 0
M  V30 5458 H 519.474 0.793737 1.37425 0
M  V30 5459 H 519.495 -0.490348 3.77327 0
M  V30 5460 H 519.007 1.32995 3.64601 0
M  V30 5461 H 517.108 -1.13391 3.54927 0
M  V30 5462 H 517.221 0.290975 4.78216 0
M  V30 5463 H 515.585 0.057993 2.54634 0
M  V30 5464 H 516.368 1.66623 3.00153 0
M  V30 5465 N 518.813 -1.54241 0.323641 0
M  V30 5466 C 520.06 -2.0057 -0.27891 0
M  V30 5467 C 520.388 -1.21181 -1.52136 0
M  V30 5468 O 519.643 -0.282043 -1.93657 0
M  V30 5469 C 519.942 -3.5129 -0.658031 0
M  V30 5470 C 519.608 -4.48281 0.485252 0
M  V30 5471 C 518.27 -4.74519 0.799055 0
M  V30 5472 C 520.622 -5.05909 1.25322 0
M  V30 5473 C 517.95 -5.55643 1.88354 0
M  V30 5474 C 520.302 -5.88215 2.32779 0
M  V30 5475 C 518.966 -6.12755 2.64741 0
M  V30 5476 H 518.236 -0.733938 -0.10206 0
M  V30 5477 H 520.883 -1.862 0.447435 0
M  V30 5478 H 519.188 -3.63388 -1.4648 0
M  V30 5479 H 520.885 -3.84578 -1.1358 0
M  V30 5480 H 517.475 -4.27979 0.230593 0
M  V30 5481 H 521.659 -4.8562 1.02404 0
M  V30 5482 H 516.915 -5.72888 2.13564 0
M  V30 5483 H 521.089 -6.31888 2.92729 0
M  V30 5484 H 518.716 -6.75404 3.48904 0
M  V30 5485 N 520.291 -0.0518155 -1.57515 0
M  V30 5486 C 521.223 0.951542 -2.08515 0
M  V30 5487 C 522.236 1.27436 -1.01311 0
M  V30 5488 O 523.425 1.23504 -1.28876 0
M  V30 5489 C 520.525 2.27291 -2.5138 0
M  V30 5490 C 519.698 2.13191 -3.81927 0
M  V30 5491 C 518.757 3.28458 -4.11098 0
M  V30 5492 O 517.783 3.04334 -4.81009 0
M  V30 5493 N 518.985 4.52954 -3.63061 0
M  V30 5494 H 521.75 0.516242 -2.9522 0
M  V30 5495 H 519.311 0.13441 -1.61341 0
M  V30 5496 H 521.303 3.03272 -2.67971 0
M  V30 5497 H 519.873 2.62386 -1.69919 0
M  V30 5498 H 519.093 1.21798 -3.74912 0
M  V30 5499 H 520.381 2.00999 -4.67415 0
M  V30 5500 H 519.779 4.75444 -3.06545 0
M  V30 5501 H 518.336 5.26026 -3.84889 0
M  V30 5502 N 521.769 1.56035 0.221574 0
M  V30 5503 C 522.717 1.93269 1.29421 0
M  V30 5504 C 523.711 0.814727 1.48521 0
M  V30 5505 O 524.917 0.999559 1.49696 0
M  V30 5506 H 521.292 0.614188 0.43391 0
M  V30 5507 H 523.263 2.82773 0.952987 0
M  V30 5508 C 522.012 2.26573 2.63742 0
M  V30 5509 H 521.335 3.12112 2.49853 0
M  V30 5510 H 522.775 2.5651 3.37607 0
M  V30 5511 C 521.234 1.09086 3.1875 0
M  V30 5512 O 521.764 0.351985 4.00155 0
M  V30 5513 N 519.97 0.874693 2.77124 0
M  V30 5514 H 519.517 1.47726 2.11033 0
M  V30 5515 H 519.475 0.0903349 3.1427 0
M  V30 5516 N 523.247 -0.488276 1.49845 0
M  V30 5517 C 524.194 -1.58836 1.67451 0
M  V30 5518 C 525.164 -1.57886 0.515857 0
M  V30 5519 O 526.349 -1.75679 0.744403 0
M  V30 5520 C 523.489 -2.96915 1.75885 0
M  V30 5521 C 522.602 -3.07784 3.03138 0
M  V30 5522 C 521.737 -4.36673 3.02473 0
M  V30 5523 C 520.776 -4.41222 4.24252 0
M  V30 5524 N 519.913 -5.61557 4.21424 0
M  V30 5525 H 524.753 -1.43131 2.61376 0
M  V30 5526 H 522.29 -0.696186 1.29583 0
M  V30 5527 H 524.248 -3.76965 1.78755 0
M  V30 5528 H 522.878 -3.11295 0.85414 0
M  V30 5529 H 521.93 -2.20717 3.09819 0
M  V30 5530 H 523.242 -3.07005 3.93128 0
M  V30 5531 H 522.396 -5.25055 3.03977 0
M  V30 5532 H 521.135 -4.40037 2.10283 0
M  V30 5533 H 520.14 -3.5124 4.22978 0
M  V30 5534 H 521.365 -4.39564 5.17649 0
M  V30 5535 H 519.311 -5.65738 3.32078 0
M  V30 5536 H 519.228 -5.62447 5.05163 0
M  V30 5537 H 520.496 -6.52111 4.2705 0
M  V30 5538 N 524.725 -1.39134 -0.740242 0
M  V30 5539 C 525.973 -1.35803 -1.49673 0
M  V30 5540 C 526.294 0.0470897 -1.94943 0
M  V30 5541 O 525.564 0.997347 -1.68611 0
M  V30 5542 H 524.144 -0.499736 -0.555224 0
M  V30 5543 H 526.806 -1.73947 -0.879107 0
M  V30 5544 H 525.902 -2.0174 -2.38133 0
M  V30 5545 N 526.204 0.969867 -1.24223 0
M  V30 5546 C 527.151 2.06407 -1.0327 0
M  V30 5547 C 528.121 1.66014 0.0533 0
M  V30 5548 O 529.306 1.90533 -0.100896 0
M  V30 5549 C 526.446 3.3909 -0.641262 0
M  V30 5550 C 525.559 3.9269 -1.80051 0
M  V30 5551 C 524.694 5.13631 -1.35486 0
M  V30 5552 C 523.733 5.59423 -2.48419 0
M  V30 5553 N 522.87 6.71586 -2.04737 0
M  V30 5554 H 527.71 2.23663 -1.96923 0
M  V30 5555 H 525.247 1.09624 -0.980862 0
M  V30 5556 H 527.205 4.15323 -0.395351 0
M  V30 5557 H 525.835 3.21765 0.258269 0
M  V30 5558 H 524.887 3.13116 -2.16014 0
M  V30 5559 H 526.199 4.22636 -2.64916 0
M  V30 5560 H 525.353 5.97231 -1.0677 0
M  V30 5561 H 524.092 4.85364 -0.476722 0
M  V30 5562 H 523.097 4.74398 -2.77897 0
M  V30 5563 H 524.322 5.89705 -3.36786 0
M  V30 5564 H 522.268 6.45058 -1.19318 0
M  V30 5565 H 522.185 7.0097 -2.83156 0
M  V30 5566 H 523.453 7.58633 -1.79154 0
M  V30 5567 N 527.682 1.05563 1.17022 0
M  V30 5568 C 528.645 0.664098 2.19368 0
M  V30 5569 C 529.645 -0.286358 1.5823 0
M  V30 5570 O 530.835 -0.069728 1.7406 0
M  V30 5571 C 527.967 -0.0239932 3.40892 0
M  V30 5572 H 529.16 1.57 2.55521 0
M  V30 5573 H 526.713 0.849964 1.31169 0
M  V30 5574 H 527.448 -0.942988 3.10287 0
M  V30 5575 H 527.233 0.659351 3.86516 0
M  V30 5576 H 528.723 -0.283909 4.16634 0
M  V30 5577 N 529.16 -1.33526 0.837174 0
M  V30 5578 C 530.092 -2.28077 0.226579 0
M  V30 5579 C 531.105 -1.51666 -0.591717 0
M  V30 5580 O 532.294 -1.73511 -0.419064 0
M  V30 5581 C 529.394 -3.31597 -0.69978 0
M  V30 5582 C 528.567 -4.37329 0.0788067 0
M  V30 5583 C 527.626 -5.20526 -0.770637 0
M  V30 5584 O 526.652 -5.68811 -0.210453 0
M  V30 5585 N 527.854 -5.41639 -2.08825 0
M  V30 5586 H 530.619 -2.81115 1.03897 0
M  V30 5587 H 528.18 -1.46201 0.695476 0
M  V30 5588 H 530.172 -3.84158 -1.27298 0
M  V30 5589 H 528.742 -2.78848 -1.41288 0
M  V30 5590 H 527.962 -3.8529 0.833381 0
M  V30 5591 H 529.25 -5.05079 0.614238 0
M  V30 5592 H 528.648 -5.04108 -2.56693 0
M  V30 5593 H 527.205 -5.97263 -2.60998 0
M  V30 5594 N 530.638 -0.59345 -1.46 0
M  V30 5595 C 531.568 0.121192 -2.33185 0
M  V30 5596 C 532.549 0.872977 -1.4599 0
M  V30 5597 O 533.734 0.846321 -1.74789 0
M  V30 5598 C 530.864 1.12844 -3.28456 0
M  V30 5599 C 529.818 0.4908 -4.25177 0
M  V30 5600 C 529.144 1.60529 -5.10034 0
M  V30 5601 C 530.444 -0.578949 -5.19081 0
M  V30 5602 H 532.138 -0.606767 -2.93187 0
M  V30 5603 H 529.684 -0.293242 -1.40983 0
M  V30 5604 H 531.637 1.63684 -3.88311 0
M  V30 5605 H 530.361 1.88681 -2.66584 0
M  V30 5606 H 529.02 0.00339328 -3.666 0
M  V30 5607 H 528.668 2.35359 -4.44539 0
M  V30 5608 H 528.368 1.18422 -5.75543 0
M  V30 5609 H 529.892 2.11623 -5.72755 0
M  V30 5610 H 531.306 -0.155199 -5.7309 0
M  V30 5611 H 529.703 -0.920947 -5.92991 0
M  V30 5612 H 530.773 -1.46109 -4.62364 0
M  V30 5613 N 532.116 1.54067 -0.331816 0
M  V30 5614 C 533.026 2.28322 0.539104 0
M  V30 5615 C 534.042 1.32985 1.1221 0
M  V30 5616 O 535.218 1.6601 1.1403 0
M  V30 5617 C 532.283 3.03277 1.68 0
M  V30 5618 C 531.344 4.14216 1.12798 0
M  V30 5619 C 530.577 4.85588 2.2145 0
M  V30 5620 O 530.8 4.56536 3.41952 0
M  V30 5621 O 529.734 5.72309 1.86404 0
M  V30 5622 H 533.56 3.03632 -0.0641692 0
M  V30 5623 H 531.145 1.49083 -0.0972365 0
M  V30 5624 H 533.027 3.50189 2.34405 0
M  V30 5625 H 531.702 2.30834 2.2693 0
M  V30 5626 H 530.609 3.71635 0.428782 0
M  V30 5627 H 531.942 4.88727 0.583698 0
M  V30 5628 N 533.594 0.0601682 1.57485 0
M  V30 5629 C 534.84 -0.612501 1.93329 0
M  V30 5630 C 535.173 -1.6996 0.939526 0
M  V30 5631 O 534.448 -1.94472 -0.0330957 0
M  V30 5632 C 534.731 -1.20025 3.39508 0
M  V30 5633 C 534.584 -0.12059 4.49638 0
M  V30 5634 C 535.903 -2.10923 3.86264 0
M  V30 5635 H 533.022 -0.221185 0.703027 0
M  V30 5636 H 535.664 0.123768 1.89596 0
M  V30 5637 H 533.814 -1.82774 3.42821 0
M  V30 5638 H 535.486 0.51185 4.58452 0
M  V30 5639 H 533.729 0.550251 4.30296 0
M  V30 5640 H 534.4 -0.572019 5.49028 0
M  V30 5641 H 536.876 -1.58124 3.84884 0
M  V30 5642 H 535.752 -2.48987 4.8918 0
M  V30 5643 H 536.013 -3.01292 3.23536 0
M  V30 5644 N 535.072 -1.5615 -0.213296 0
M  V30 5645 C 536.019 -1.93086 -1.26437 0
M  V30 5646 C 536.989 -0.789086 -1.4616 0
M  V30 5647 O 538.174 -1.04569 -1.59593 0
M  V30 5648 C 535.314 -2.26003 -2.608 0
M  V30 5649 C 534.427 -3.53156 -2.48807 0
M  V30 5650 C 533.562 -3.7548 -3.7575 0
M  V30 5651 C 532.601 -4.96119 -3.58514 0
M  V30 5652 N 531.738 -5.14791 -4.77425 0
M  V30 5653 H 536.578 -2.82707 -0.942376 0
M  V30 5654 H 534.115 -1.39919 -0.454001 0
M  V30 5655 H 536.073 -2.431 -3.39055 0
M  V30 5656 H 534.703 -1.39546 -2.91079 0
M  V30 5657 H 533.755 -3.44207 -1.61944 0
M  V30 5658 H 535.067 -4.41565 -2.31996 0
M  V30 5659 H 534.221 -3.92718 -4.62447 0
M  V30 5660 H 532.96 -2.85368 -3.95495 0
M  V30 5661 H 531.965 -4.78823 -2.70201 0
M  V30 5662 H 533.19 -5.87724 -3.40231 0
M  V30 5663 H 531.136 -4.27623 -4.97468 0
M  V30 5664 H 531.053 -5.97347 -4.63371 0
M  V30 5665 H 532.321 -5.36471 -5.65525 0
M  V30 5666 N 536.55 0.480323 -1.50102 0
M  V30 5667 C 537.799 1.22979 -1.59872 0
M  V30 5668 C 538.112 1.93282 -0.30022 0
M  V30 5669 O 539.318 2.70086 -0.276709 0
M  V30 5670 C 537.774 2.23408 -2.82164 0
M  V30 5671 C 537.382 1.5895 -4.18854 0
M  V30 5672 C 539.126 2.99055 -3.01275 0
M  V30 5673 C 537.033 2.57611 -5.32344 0
M  V30 5674 H 535.963 0.462707 -0.59533 0
M  V30 5675 H 538.614 0.501291 -1.7652 0
M  V30 5676 H 536.996 2.99511 -2.59055 0
M  V30 5677 H 538.17 0.887 -4.52182 0
M  V30 5678 H 536.485 0.956191 -4.05273 0
M  V30 5679 H 539.082 3.72876 -3.83233 0
M  V30 5680 H 539.425 3.57897 -2.12639 0
M  V30 5681 H 539.958 2.30066 -3.24522 0
M  V30 5682 H 536.697 2.03521 -6.23105 0
M  V30 5683 H 536.217 3.26041 -5.03445 0
M  V30 5684 H 537.896 3.19627 -5.62537 0
M  V30 5685 N 538.028 1.39524 0.732853 0
M  V30 5686 C 539.276 1.36594 1.48951 0
M  V30 5687 C 539.597 -0.0367507 1.94965 0
M  V30 5688 O 538.867 -0.988391 1.69138 0
M  V30 5689 H 537.447 0.502673 0.552566 0
M  V30 5690 H 540.109 1.74411 0.869869 0
M  V30 5691 H 539.205 2.03 2.3706 0
M  V30 5692 N 539.506 -0.963266 1.24736 0
M  V30 5693 C 540.416 -2.09246 1.06082 0
M  V30 5694 C 541.432 -1.74 0.000363101 0
M  V30 5695 O 542.608 -2.0041 0.199479 0
M  V30 5696 C 539.673 -3.40115 0.672498 0
M  V30 5697 C 538.734 -3.89282 1.80993 0
M  V30 5698 C 537.967 -5.13905 1.44004 0
M  V30 5699 O 538.19 -5.69434 0.331835 0
M  V30 5700 O 537.124 -5.57566 2.26723 0
M  V30 5701 H 540.95 -2.27881 2.00759 0
M  V30 5702 H 538.535 -1.07649 1.03595 0
M  V30 5703 H 540.417 -4.18797 0.467668 0
M  V30 5704 H 539.092 -3.22771 -0.245102 0
M  V30 5705 H 537.999 -3.11642 2.06955 0
M  V30 5706 H 539.332 -4.1111 2.70646 0
M  V30 5707 N 540.985 -1.06182 -1.16461 0
M  V30 5708 C 542.213 -0.798583 -1.90867 0
M  V30 5709 C 542.628 0.646921 -1.77371 0
M  V30 5710 O 541.985 1.44279 -1.11758 0
M  V30 5711 C 542.036 -1.18258 -3.4161 0
M  V30 5712 O 541.757 -2.57135 -3.54701 0
M  V30 5713 C 543.258 -0.946917 -4.33069 0
M  V30 5714 H 540.478 -0.289603 -0.605286 0
M  V30 5715 H 543.022 -1.41515 -1.47627 0
M  V30 5716 H 541.177 -0.610562 -3.82558 0
M  V30 5717 H 541.591 -2.72477 -4.4817 0
M  V30 5718 H 543.065 -1.26523 -5.37304 0
M  V30 5719 H 543.542 0.117406 -4.39043 0
M  V30 5720 H 544.148 -1.50326 -3.97847 0
M  V30 5721 N 542.463 1.3308 -0.844243 0
M  V30 5722 C 543.411 2.31028 -0.269954 0
M  V30 5723 C 544.405 1.58381 0.600997 0
M  V30 5724 O 545.611 1.73203 0.48996 0
M  V30 5725 H 541.986 0.748866 -0.0685782 0
M  V30 5726 H 543.957 2.76967 -1.11049 0
M  V30 5727 C 542.706 3.43549 0.535676 0
M  V30 5728 H 542.029 3.99604 -0.125202 0
M  V30 5729 H 543.469 4.14267 0.903262 0
M  V30 5730 C 541.928 2.8988 1.71672 0
M  V30 5731 O 542.458 2.86511 2.81557 0
M  V30 5732 N 540.664 2.46416 1.54037 0
M  V30 5733 H 540.211 2.49356 0.64649 0
M  V30 5734 H 540.169 2.1086 2.33207 0
M  V30 5735 N 543.941 0.601185 1.45683 0
M  V30 5736 C 545.189 0.0936957 2.01883 0
M  V30 5737 C 545.51 -1.2779 1.47291 0
M  V30 5738 O 544.78 -1.84279 0.664691 0
M  V30 5739 H 543.36 0.0316466 0.746329 0
M  V30 5740 H 546.022 0.781137 1.78562 0
M  V30 5741 H 545.118 0.0386297 3.12076 0
M  V30 5742 N 545.419 -1.53889 0.339982 0
M  V30 5743 C 546.835 -1.59595 -0.0120752 0
M  V30 5744 C 547.035 -1.35605 -1.49042 0
M  V30 5745 O 546.091 -1.14856 -2.24865 0
M  V30 5746 C 547.404 -2.9774 0.420898 0
M  V30 5747 C 548.952 -3.1077 0.37294 0
M  V30 5748 C 549.427 -4.51286 0.781327 0
M  V30 5749 N 550.918 -4.57325 0.735374 0
M  V30 5750 C 551.653 -5.64194 1.02336 0
M  V30 5751 N 551.149 -6.7893 1.37933 0
M  V30 5752 N 552.942 -5.54051 0.947838 0
M  V30 5753 H 545.093 -1.67738 1.30299 0
M  V30 5754 H 547.356 -0.785385 0.530918 0
M  V30 5755 H 547.062 -3.20349 1.45152 0
M  V30 5756 H 546.936 -3.76639 -0.205721 0
M  V30 5757 H 549.323 -2.87886 -0.648505 0
M  V30 5758 H 549.404 -2.33939 1.03472 0
M  V30 5759 H 549.048 -4.74905 1.80077 0
M  V30 5760 H 548.978 -5.26511 0.0970679 0
M  V30 5761 H 551.469 -3.74931 0.472773 0
M  V30 5762 H 551.782 -7.56392 1.58402 0
M  V30 5763 H 550.127 -6.80386 1.41774 0
M  V30 5764 H 553.318 -4.63293 0.669115 0
M  V30 5765 H 553.491 -6.37246 1.17563 0
M  V30 5766 N 546.897 -0.0685191 -1.57451 0
M  V30 5767 C 547.827 0.89747 -2.15564 0
M  V30 5768 C 548.808 1.31266 -1.08181 0
M  V30 5769 O 549.993 1.38429 -1.36202 0
M  V30 5770 C 547.123 2.16623 -2.71463 0
M  V30 5771 C 546.077 1.89054 -3.83982 0
M  V30 5772 C 545.403 3.22532 -4.26471 0
M  V30 5773 C 546.703 1.1984 -5.08366 0
M  V30 5774 H 548.397 0.413373 -2.96533 0
M  V30 5775 H 545.943 0.197391 -1.42641 0
M  V30 5776 H 547.896 2.84614 -3.10761 0
M  V30 5777 H 546.62 2.67269 -1.8771 0
M  V30 5778 H 545.279 1.23469 -3.45183 0
M  V30 5779 H 544.927 3.71013 -3.39644 0
M  V30 5780 H 544.627 3.04879 -5.02317 0
M  V30 5781 H 546.151 3.91727 -4.68383 0
M  V30 5782 H 547.565 1.77896 -5.45001 0
M  V30 5783 H 545.962 1.12456 -5.89469 0
M  V30 5784 H 547.032 0.176996 -4.84577 0
M  V30 5785 N 548.375 1.56261 0.205012 0
M  V30 5786 C 549.285 1.96944 1.27476 0
M  V30 5787 C 550.301 0.875636 1.50362 0
M  V30 5788 O 551.477 1.18058 1.6317 0
M  V30 5789 C 548.542 2.29219 2.60115 0
M  V30 5790 C 547.603 3.52255 2.45387 0
M  V30 5791 C 546.836 3.8298 3.71701 0
M  V30 5792 O 547.059 3.15138 4.75441 0
M  V30 5793 O 545.993 4.76435 3.67823 0
M  V30 5794 H 549.819 2.88144 0.959527 0
M  V30 5795 H 547.404 1.43686 0.409217 0
M  V30 5796 H 549.286 2.51098 3.3842 0
M  V30 5797 H 547.961 1.4119 2.91285 0
M  V30 5798 H 546.868 3.35635 1.65227 0
M  V30 5799 H 548.201 4.40719 2.19152 0
M  V30 5800 N 549.853 -0.472356 1.50355 0
M  V30 5801 C 551.101 -1.22211 1.60962 0
M  V30 5802 C 551.422 -1.92497 0.311439 0
M  V30 5803 O 550.692 -1.8405 -0.671002 0
M  V30 5804 H 549.272 -0.454092 0.593135 0
M  V30 5805 H 551.934 -0.544977 1.87126 0
M  V30 5806 H 551.03 -1.9707 2.42012 0
M  V30 5807 N 551.331 -1.39911 -0.725443 0
M  V30 5808 C 552.608 -1.28158 -1.47766 0
M  V30 5809 C 552.988 0.104545 -2.10841 0
M  V30 5810 O 552.336 1.11657 -1.99361 0
M  V30 5811 C 552.546 -2.41306 -2.52135 0
M  V30 5812 C 553.894 -2.81076 -3.18247 0
M  V30 5813 O 554.918 -2.40827 -2.62452 0
M  V30 5814 O 553.777 -3.50581 -4.19231 0
M  V30 5815 H 550.871 -0.502761 -0.656628 0
M  V30 5816 H 553.417 -1.51808 -0.758456 0
M  V30 5817 H 552.189 -3.33932 -2.03974 0
M  V30 5818 H 551.812 -2.19374 -3.31603 0
M  V30 5819 N 552.809 0.956637 -1.25245 0
M  V30 5820 C 554.225 1.22733 -1.02023 0
M  V30 5821 C 554.425 1.99761 0.264186 0
M  V30 5822 O 553.481 2.32814 0.977436 0
M  V30 5823 C 554.794 2.00367 -2.24217 0
M  V30 5824 C 556.342 2.13418 -2.28958 0
M  V30 5825 C 556.817 2.9445 -3.50803 0
M  V30 5826 N 558.308 3.02029 -3.51187 0
M  V30 5827 C 559.043 3.65116 -4.42129 0
M  V30 5828 N 558.539 4.2983 -5.43339 0
M  V30 5829 N 560.332 3.62237 -4.29815 0
M  V30 5830 H 552.483 0.441282 -2.07765 0
M  V30 5831 H 554.746 0.257686 -0.912306 0
M  V30 5832 H 554.452 1.51165 -3.17556 0
M  V30 5833 H 554.326 3.01077 -2.27228 0
M  V30 5834 H 556.713 2.61819 -1.36143 0
M  V30 5835 H 556.794 1.1202 -2.29968 0
M  V30 5836 H 556.438 2.46741 -4.43939 0
M  V30 5837 H 556.368 3.9607 -3.47039 0
M  V30 5838 H 558.859 2.56007 -2.77973 0
M  V30 5839 H 559.172 4.75819 -6.08947 0
M  V30 5840 H 557.517 4.28465 -5.47214 0
M  V30 5841 H 560.708 3.10863 -3.49974 0
M  V30 5842 H 560.881 4.11117 -5.00886 0
M  V30 5843 N 554.287 1.06798 1.15896 0
M  V30 5844 C 555.564 0.701057 1.82605 0
M  V30 5845 C 555.944 -0.817066 1.94646 0
M  V30 5846 O 555.292 -1.72933 1.49353 0
M  V30 5847 C 555.502 1.40895 3.19296 0
M  V30 5848 C 556.85 1.55744 3.95005 0
M  V30 5849 O 557.874 1.36927 3.28831 0
M  V30 5850 O 556.733 1.86658 5.13635 0
M  V30 5851 H 553.827 0.248791 0.78869 0
M  V30 5852 H 556.373 1.16857 1.23055 0
M  V30 5853 H 555.145 2.4439 3.05596 0
M  V30 5854 H 554.768 0.931847 3.86526 0
M  V30 5855 N 555.766 -1.3263 0.851289 0
M  V30 5856 C 556.713 -2.28952 0.291469 0
M  V30 5857 C 557.683 -1.54897 -0.599676 0
M  V30 5858 O 558.868 -1.83137 -0.535305 0
M  V30 5859 C 556.008 -3.41206 -0.516992 0
M  V30 5860 C 555.121 -4.30148 0.399566 0
M  V30 5861 C 554.256 -5.29527 -0.4212 0
M  V30 5862 C 553.295 -6.10112 0.492969 0
M  V30 5863 N 552.432 -7.01499 -0.290414 0
M  V30 5864 H 557.272 -2.76228 1.11813 0
M  V30 5865 H 554.809 -1.35907 0.562826 0
M  V30 5866 H 556.767 -4.05005 -1.00132 0
M  V30 5867 H 555.397 -2.9509 -1.30851 0
M  V30 5868 H 554.449 -3.66959 1.00227 0
M  V30 5869 H 555.761 -4.8649 1.1013 0
M  V30 5870 H 554.915 -5.98914 -0.968832 0
M  V30 5871 H 553.654 -4.73794 -1.15632 0
M  V30 5872 H 552.659 -5.39632 1.05251 0
M  V30 5873 H 553.884 -6.6793 1.22664 0
M  V30 5874 H 551.83 -6.48199 -1.00868 0
M  V30 5875 H 551.747 -7.55178 0.352354 0
M  V30 5876 H 553.015 -7.75176 -0.819882 0
M  V30 5877 N 557.244 -0.608902 -1.45362 0
M  V30 5878 C 558.49 -0.104762 -2.02529 0
M  V30 5879 C 558.823 1.26191 -1.47613 0
M  V30 5880 O 558.098 1.8327 -0.65134 0
M  V30 5881 C 558.381 -0.0672661 -3.60037 0
M  V30 5882 C 558.234 -1.4647 -4.25284 0
M  V30 5883 C 559.553 0.619877 -4.35713 0
M  V30 5884 H 556.672 -0.0395438 -0.735938 0
M  V30 5885 H 559.314 -0.781126 -1.73201 0
M  V30 5886 H 557.464 0.50871 -3.85155 0
M  V30 5887 H 559.136 -2.08785 -4.11347 0
M  V30 5888 H 557.379 -2.02502 -3.83634 0
M  V30 5889 H 558.05 -1.39069 -5.34195 0
M  V30 5890 H 560.526 0.130297 -4.15896 0
M  V30 5891 H 559.402 0.615224 -5.45441 0
M  V30 5892 H 559.663 1.68621 -4.0868 0
M  V30 5893 N 558.722 1.53707 -0.348139 0
M  V30 5894 C 560.138 1.596 0.00361134 0
M  V30 5895 C 560.338 1.36394 1.4832 0
M  V30 5896 O 559.394 1.16046 2.24253 0
M  V30 5897 C 560.707 2.97512 -0.436682 0
M  V30 5898 C 562.255 3.10568 -0.389416 0
M  V30 5899 C 562.73 4.50866 -0.805249 0
M  V30 5900 N 564.221 4.56929 -0.759616 0
M  V30 5901 C 564.956 5.63643 -1.05327 0
M  V30 5902 N 564.452 6.78189 -1.41531 0
M  V30 5903 N 566.245 5.5354 -0.977207 0
M  V30 5904 H 558.396 1.67044 -1.31187 0
M  V30 5905 H 560.659 0.782559 -0.535075 0
M  V30 5906 H 560.365 3.19575 -1.46849 0
M  V30 5907 H 560.239 3.76742 0.185744 0
M  V30 5908 H 562.626 2.88226 0.633228 0
M  V30 5909 H 562.707 2.33387 -1.04711 0
M  V30 5910 H 562.351 4.73943 -1.82593 0
M  V30 5911 H 562.281 5.26452 -0.124989 0
M  V30 5912 H 564.772 3.74675 -0.49265 0
M  V30 5913 H 565.085 7.55541 -1.62411 0
M  V30 5914 H 563.43 6.79624 -1.45381 0
M  V30 5915 H 566.621 4.62932 -0.693675 0
M  V30 5916 H 566.794 6.36614 -1.2094 0
M  V30 5917 N 560.2 0.0768682 1.57412 0
M  V30 5918 C 561.447 -0.591085 1.93681 0
M  V30 5919 C 561.775 -1.69311 0.957286 0
M  V30 5920 O 561.03 -1.95682 -0.0262428 0
M  V30 5921 C 561.329 -1.20268 3.36557 0
M  V30 5922 C 560.995 -0.226286 4.50332 0
M  V30 5923 C 559.657 0.0423142 4.81181 0
M  V30 5924 C 562.009 0.441415 5.19327 0
M  V30 5925 C 559.337 0.985616 5.78362 0
M  V30 5926 C 561.689 1.37307 6.17519 0
M  V30 5927 C 560.353 1.65009 6.46783 0
M  V30 5928 H 559.623 -0.216293 0.70873 0
M  V30 5929 H 562.27 0.148824 1.90921 0
M  V30 5930 H 560.575 -2.01844 3.35807 0
M  V30 5931 H 562.272 -1.72688 3.61911 0
M  V30 5932 H 558.862 -0.445821 4.26275 0
M  V30 5933 H 563.046 0.247023 4.95685 0
M  V30 5934 H 558.302 1.20743 5.99359 0
M  V30 5935 H 562.476 1.89637 6.70083 0
M  V30 5936 H 560.103 2.38263 7.21897 0
M  V30 5937 N 561.678 -1.56367 -0.196722 0
M  V30 5938 C 562.924 -1.80796 -0.918725 0
M  V30 5939 C 563.257 -0.650645 -1.82976 0
M  V30 5940 O 562.532 0.348889 -1.91345 0
M  V30 5941 C 562.815 -3.15472 -1.73636 0
M  V30 5942 C 562.668 -4.41693 -0.85015 0
M  V30 5943 C 563.987 -3.46824 -2.70927 0
M  V30 5944 H 561.106 -0.657702 -0.332561 0
M  V30 5945 H 563.748 -1.89086 -0.186186 0
M  V30 5946 H 561.898 -3.08536 -2.36088 0
M  V30 5947 H 563.57 -4.60673 -0.240459 0
M  V30 5948 H 561.813 -4.33517 -0.156785 0
M  V30 5949 H 562.484 -5.32419 -1.45719 0
M  V30 5950 H 564.96 -3.54049 -2.18607 0
M  V30 5951 H 563.836 -4.4218 -3.25219 0
M  V30 5952 H 564.097 -2.70236 -3.49893 0
M  V30 5953 N 563.156 0.464375 -1.50603 0
M  V30 5954 C 564.088 1.57916 -1.66118 0
M  V30 5955 C 565.101 1.53497 -0.54246 0
M  V30 5956 O 566.29 1.58763 -0.815877 0
M  V30 5957 C 563.39 2.96809 -1.63577 0
M  V30 5958 C 562.563 3.26026 -2.91592 0
M  V30 5959 C 561.622 4.44506 -2.81604 0
M  V30 5960 O 560.648 4.44484 -3.55559 0
M  V30 5961 N 561.85 5.46549 -1.95614 0
M  V30 5962 H 564.615 1.45022 -2.62276 0
M  V30 5963 H 562.176 0.652903 -1.48151 0
M  V30 5964 H 564.168 3.74048 -1.54499 0
M  V30 5965 H 562.738 3.03438 -0.751262 0
M  V30 5966 H 561.958 2.37337 -3.14746 0
M  V30 5967 H 563.246 3.42361 -3.76386 0
M  V30 5968 H 562.644 5.49391 -1.34854 0
M  V30 5969 H 561.201 6.22746 -1.92435 0
M  V30 5970 N 564.634 1.40294 0.718013 0
M  V30 5971 C 565.862 1.4175 1.50714 0
M  V30 5972 C 566.277 0.0165366 1.88793 0
M  V30 5973 O 565.634 -0.958942 1.55276 0
M  V30 5974 C 565.685 2.30598 2.784 0
M  V30 5975 O 565.406 3.6524 2.41932 0
M  V30 5976 C 566.907 2.4062 3.72313 0
M  V30 5977 H 564.127 0.483565 0.465194 0
M  V30 5978 H 566.671 1.84316 0.885889 0
M  V30 5979 H 564.826 1.91401 3.36815 0
M  V30 5980 H 565.24 4.12402 3.24076 0
M  V30 5981 H 566.714 3.07001 4.58753 0
M  V30 5982 H 567.191 1.4305 4.15251 0
M  V30 5983 H 567.797 2.80359 3.19811 0
M  V30 5984 N 566.112 -0.949982 1.2575 0
M  V30 5985 C 567.06 -2.06869 1.06339 0
M  V30 5986 C 568.054 -1.69399 -0.00708901 0
M  V30 5987 O 569.26 -1.79383 0.148897 0
M  V30 5988 H 565.635 -0.677197 0.326969 0
M  V30 5989 H 567.606 -2.20396 2.01167 0
M  V30 5990 C 566.355 -3.40503 0.703769 0
M  V30 5991 H 565.678 -3.69807 1.51931 0
M  V30 5992 H 567.118 -4.19623 0.607677 0
M  V30 5993 C 565.577 -3.31685 -0.5905 0
M  V30 5994 O 566.107 -3.67085 -1.63131 0
M  V30 5995 N 564.313 -2.84797 -0.577859 0
M  V30 5996 H 563.86 -2.56186 0.26951 0
M  V30 5997 H 563.818 -2.79279 -1.44398 0
M  V30 5998 N 567.59 -1.07411 -1.15328 0
M  V30 5999 C 568.523 -0.63913 -2.19067 0
M  V30 6000 C 569.501 0.343929 -1.58921 0
M  V30 6001 O 570.685 0.250207 -1.86832 0
M  V30 6002 C 567.812 0.0613977 -3.38644 0
M  V30 6003 C 566.858 -0.880201 -4.17318 0
M  V30 6004 S 567.691 -2.38152 -4.79629 0
M  V30 6005 C 568.847 -1.69281 -6.02573 0
M  V30 6006 H 569.08 -1.51799 -2.55626 0
M  V30 6007 H 566.613 -0.888138 -1.26299 0
M  V30 6008 H 568.571 0.459323 -4.07922 0
M  V30 6009 H 567.232 0.916605 -3.00428 0
M  V30 6010 H 566.425 -0.336781 -5.02874 0
M  V30 6011 H 566.027 -1.21854 -3.53592 0
M  V30 6012 H 568.319 -1.00488 -6.70006 0
M  V30 6013 H 569.262 -2.52671 -6.61485 0
M  V30 6014 H 569.67 -1.17053 -5.52231 0
M  V30 6015 N 569.068 1.32177 -0.85831 0
M  V30 6016 C 570.316 1.96735 -0.462568 0
M  V30 6017 C 570.637 1.6824 0.985911 0
M  V30 6018 O 569.907 0.991564 1.68952 0
M  V30 6019 H 568.487 0.727849 -0.168064 0
M  V30 6020 H 571.149 1.61195 -1.09554 0
M  V30 6021 H 570.245 3.06068 -0.610647 0
M  V30 6022 N 570.547 0.616602 1.45037 0
M  V30 6023 C 571.963 0.280994 1.57107 0
M  V30 6024 C 572.163 -1.21627 1.60653 0
M  V30 6025 O 571.219 -1.9997 1.54169 0
M  V30 6026 C 572.532 0.960116 2.8496 0
M  V30 6027 C 574.08 0.936884 2.98649 0
M  V30 6028 C 574.555 1.59619 4.29285 0
M  V30 6029 N 576.046 1.5621 4.36065 0
M  V30 6030 C 576.781 2.04131 5.35834 0
M  V30 6031 N 576.277 2.60177 6.4209 0
M  V30 6032 N 578.07 1.94845 5.27249 0
M  V30 6033 H 570.221 1.58867 1.40979 0
M  V30 6034 H 572.484 0.666024 0.674623 0
M  V30 6035 H 572.19 2.01473 2.88273 0
M  V30 6036 H 572.064 0.488921 3.74018 0
M  V30 6037 H 574.451 -0.109209 2.94898 0
M  V30 6038 H 574.532 1.44643 2.10979 0
M  V30 6039 H 574.176 2.64166 4.33796 0
M  V30 6040 H 574.106 1.06159 5.15789 0
M  V30 6041 H 576.597 1.15276 3.59889 0
M  V30 6042 H 576.91 2.94513 7.1448 0
M  V30 6043 H 575.255 2.64221 6.42816 0
M  V30 6044 H 578.446 1.50792 4.43147 0
M  V30 6045 H 578.619 2.32504 6.04852 0
M  V30 6046 N 572.025 -1.5352 0.356285 0
M  V30 6047 C 572.955 -2.28372 -0.486661 0
M  V30 6048 C 573.936 -1.30432 -1.09185 0
M  V30 6049 O 575.121 -1.59291 -1.11085 0
M  V30 6050 C 572.251 -3.06604 -1.63129 0
M  V30 6051 C 571.205 -4.12154 -1.15381 0
M  V30 6052 C 570.531 -4.78415 -2.38796 0
M  V30 6053 C 571.831 -5.21724 -0.245179 0
M  V30 6054 H 573.525 -2.99083 0.137797 0
M  V30 6055 H 571.071 -1.43841 0.0677134 0
M  V30 6056 H 573.024 -3.57712 -2.22755 0
M  V30 6057 H 571.748 -2.33568 -2.28284 0
M  V30 6058 H 570.407 -3.61978 -0.580294 0
M  V30 6059 H 570.055 -4.01959 -3.02387 0
M  V30 6060 H 569.755 -5.49734 -2.07524 0
M  V30 6061 H 571.279 -5.32313 -2.99125 0
M  V30 6062 H 572.693 -5.68391 -0.748646 0
M  V30 6063 H 571.09 -6.00095 -0.0237608 0
M  V30 6064 H 572.16 -4.79596 0.715229 0
M  V30 6065 N 573.503 -0.0852151 -1.57369 0
M  V30 6066 C 574.752 0.580443 -1.93168 0
M  V30 6067 C 575.065 1.6995 -0.968319 0
M  V30 6068 O 576.271 2.42564 -1.21963 0
M  V30 6069 C 574.727 1.08386 -3.43192 0
M  V30 6070 C 574.335 -0.00491388 -4.48 0
M  V30 6071 C 576.079 1.72281 -3.87968 0
M  V30 6072 C 573.986 0.513299 -5.89168 0
M  V30 6073 H 572.916 0.22059 -0.72101 0
M  V30 6074 H 575.567 -0.159621 -1.82804 0
M  V30 6075 H 573.949 1.8773 -3.48674 0
M  V30 6076 H 575.123 -0.780032 -4.5415 0
M  V30 6077 H 573.438 -0.548453 -4.12772 0
M  V30 6078 H 576.035 2.12108 -4.9083 0
M  V30 6079 H 576.378 2.58811 -3.26071 0
M  V30 6080 H 576.911 0.995359 -3.85146 0
M  V30 6081 H 573.65 -0.315153 -6.54742 0
M  V30 6082 H 573.17 1.25564 -5.8651 0
M  V30 6083 H 574.849 0.985433 -6.39451 0
M  V30 6084 N 574.981 1.5647 0.188427 0
M  V30 6085 C 575.911 1.98101 1.23606 0
M  V30 6086 C 576.892 0.853961 1.47111 0
M  V30 6087 O 578.077 1.11879 1.58735 0
M  V30 6088 C 575.207 2.32624 2.57882 0
M  V30 6089 C 574.161 3.48129 2.48978 0
M  V30 6090 C 573.487 3.68347 3.87588 0
M  V30 6091 C 574.787 4.82112 2.00911 0
M  V30 6092 H 576.481 2.85864 0.890068 0
M  V30 6093 H 574.027 1.37532 0.426714 0
M  V30 6094 H 575.98 2.60343 3.3136 0
M  V30 6095 H 574.704 1.41751 2.94235 0
M  V30 6096 H 573.363 3.20511 1.77956 0
M  V30 6097 H 573.011 2.74793 4.21305 0
M  V30 6098 H 572.711 4.46055 3.82503 0
M  V30 6099 H 574.235 3.98449 4.62678 0
M  V30 6100 H 575.649 5.08819 2.64151 0
M  V30 6101 H 574.046 5.63337 2.06814 0
M  V30 6102 H 575.116 4.75249 0.96262 0
M  V30 6103 N 576.459 -0.456382 1.50847 0
M  V30 6104 C 577.422 -1.53493 1.70213 0
M  V30 6105 C 578.422 -1.50264 0.572481 0
M  V30 6106 O 579.612 -1.52623 0.839751 0
M  V30 6107 C 576.744 -2.93091 1.741 0
M  V30 6108 H 577.937 -1.37633 2.66453 0
M  V30 6109 H 575.49 -0.683776 1.4055 0
M  V30 6110 H 576.225 -3.14378 0.796063 0
M  V30 6111 H 576.01 -2.9684 2.5618 0
M  V30 6112 H 577.5 -3.71368 1.90987 0
M  V30 6113 N 577.937 -1.40673 -0.710563 0
M  V30 6114 C 578.9 -1.4108 -1.80635 0
M  V30 6115 C 579.9 -0.303783 -1.57904 0
M  V30 6116 O 581.09 -0.562937 -1.64853 0
M  V30 6117 C 578.222 -1.20748 -3.18799 0
M  V30 6118 H 579.415 -2.38612 -1.81671 0
M  V30 6119 H 576.968 -1.26595 -0.916704 0
M  V30 6120 H 577.703 -0.239964 -3.23411 0
M  V30 6121 H 577.488 -2.00941 -3.36698 0
M  V30 6122 H 578.978 -1.23833 -3.98817 0
M  V30 6123 N 579.415 0.9433 -1.26252 0
M  V30 6124 C 580.347 2.04542 -1.03417 0
M  V30 6125 C 581.36 1.62799 0.0046911 0
M  V30 6126 O 582.549 1.76944 -0.235146 0
M  V30 6127 C 579.649 3.34511 -0.543671 0
M  V30 6128 C 578.822 4.05033 -1.65128 0
M  V30 6129 C 577.881 5.13273 -1.1592 0
M  V30 6130 O 576.907 5.38095 -1.85586 0
M  V30 6131 N 578.109 5.805 -0.00649279 0
M  V30 6132 H 580.874 2.24699 -1.98319 0
M  V30 6133 H 578.435 1.11264 -1.1761 0
M  V30 6134 H 580.427 4.04212 -0.198703 0
M  V30 6135 H 578.997 3.11042 0.311711 0
M  V30 6136 H 578.217 3.29275 -2.16729 0
M  V30 6137 H 579.505 4.48903 -2.39508 0
M  V30 6138 H 578.903 5.62767 0.575347 0
M  V30 6139 H 577.46 6.51201 0.279416 0
M  V30 6140 N 580.893 1.08022 1.14757 0
M  V30 6141 C 581.826 0.650738 2.18725 0
M  V30 6142 C 582.804 -0.335496 1.59101 0
M  V30 6143 O 583.988 -0.240295 1.86962 0
M  V30 6144 C 581.115 -0.0434377 3.38672 0
M  V30 6145 C 580.161 0.90232 4.16846 0
M  V30 6146 S 580.994 2.40693 4.78359 0
M  V30 6147 C 582.15 1.72475 6.01667 0
M  V30 6148 H 582.383 1.53152 2.54817 0
M  V30 6149 H 579.916 0.894823 1.25826 0
M  V30 6150 H 581.874 -0.437684 4.0816 0
M  V30 6151 H 580.535 -0.900659 3.0091 0
M  V30 6152 H 579.728 0.363445 5.02688 0
M  V30 6153 H 579.33 1.23728 3.52941 0
M  V30 6154 H 581.622 1.0404 6.69464 0
M  V30 6155 H 582.565 2.56175 6.60136 0
M  V30 6156 H 582.973 1.19979 5.51602 0
M  V30 6157 N 582.371 -1.3172 0.865308 0
M  V30 6158 C 583.648 -1.91574 0.394789 0
M  V30 6159 C 584.028 -1.78769 -1.12271 0
M  V30 6160 O 583.376 -1.19245 -1.94918 0
M  V30 6161 C 583.586 -3.37957 0.870982 0
M  V30 6162 C 584.934 -4.15073 0.894384 0
M  V30 6163 O 585.958 -3.4672 0.816325 0
M  V30 6164 O 584.817 -5.37151 1.00651 0
M  V30 6165 H 581.911 -0.818649 0.117229 0
M  V30 6166 H 584.457 -1.4042 0.952913 0
M  V30 6167 H 583.229 -3.41269 1.91444 0
M  V30 6168 H 582.852 -3.96534 0.290907 0
M  V30 6169 N 583.85 -0.624285 -1.44708 0
M  V30 6170 C 585.266 -0.289322 -1.56956 0
M  V30 6171 C 585.466 1.20773 -1.61295 0
M  V30 6172 O 584.522 1.9915 -1.55227 0
M  V30 6173 C 585.835 -0.975215 -2.84447 0
M  V30 6174 C 587.383 -0.952709 -2.98148 0
M  V30 6175 C 587.858 -1.61893 -4.28433 0
M  V30 6176 N 589.349 -1.5852 -4.35231 0
M  V30 6177 C 590.084 -2.06969 -5.34744 0
M  V30 6178 N 589.58 -2.63579 -6.40701 0
M  V30 6179 N 591.373 -1.97638 -5.26209 0
M  V30 6180 H 583.524 -1.59612 -1.40135 0
M  V30 6181 H 585.787 -0.669592 -0.671081 0
M  V30 6182 H 585.493 -2.02999 -2.87201 0
M  V30 6183 H 585.367 -0.508749 -3.73753 0
M  V30 6184 H 587.754 0.093568 -2.94952 0
M  V30 6185 H 587.835 -1.4576 -2.10209 0
M  V30 6186 H 587.479 -2.66463 -4.32389 0
M  V30 6187 H 587.409 -1.08893 -5.15218 0
M  V30 6188 H 589.899 -1.17183 -3.59272 0
M  V30 6189 H 590.213 -2.98298 -7.12908 0
M  V30 6190 H 588.558 -2.67626 -6.41406 0
M  V30 6191 H 591.749 -1.5314 -4.42341 0
M  V30 6192 H 591.922 -2.35708 -6.03611 0
M  V30 6193 N 585.328 1.53329 -0.364422 0
M  V30 6194 C 586.556 2.05657 0.226424 0
M  V30 6195 C 586.971 1.23801 1.42544 0
M  V30 6196 O 586.328 0.27839 1.80364 0
M  V30 6197 C 586.379 3.56125 0.621056 0
M  V30 6198 O 586.1 4.34879 -0.530304 0
M  V30 6199 C 587.601 4.24706 1.27041 0
M  V30 6200 H 584.821 0.669806 0.0400056 0
M  V30 6201 H 587.365 1.97714 -0.522456 0
M  V30 6202 H 585.52 3.64223 1.31985 0
M  V30 6203 H 585.934 5.24073 -0.211546 0
M  V30 6204 H 587.408 5.3131 1.49711 0
M  V30 6205 H 587.885 3.78354 2.23036 0
M  V30 6206 H 588.491 4.20858 0.613079 0
M  V30 6207 N 586.806 0.0935595 1.57322 0
M  V30 6208 C 588.054 -0.569383 1.93913 0
M  V30 6209 C 588.375 -1.68817 0.976009 0
M  V30 6210 O 587.645 -1.9588 0.0278099 0
M  V30 6211 H 586.225 -0.21332 0.715894 0
M  V30 6212 H 588.887 0.156531 1.9427 0
M  V30 6213 H 587.983 -0.980577 2.96296 0
M  V30 6214 N 588.284 -1.56567 -0.180126 0
M  V30 6215 C 589.247 -1.94852 -1.20686 0
M  V30 6216 C 590.247 -0.831212 -1.3765 0
M  V30 6217 O 591.437 -1.09841 -1.35206 0
M  V30 6218 C 588.569 -2.23565 -2.57355 0
M  V30 6219 H 589.762 -2.86722 -0.879225 0
M  V30 6220 H 587.315 -1.50489 -0.422237 0
M  V30 6221 H 588.05 -1.34381 -2.95148 0
M  V30 6222 H 587.835 -3.04999 -2.46411 0
M  V30 6223 H 589.325 -2.54137 -3.31367 0
M  V30 6224 N 589.762 0.448376 -1.51087 0
M  V30 6225 C 591.039 1.20926 -1.53741 0
M  V30 6226 C 591.419 2.09025 -0.295222 0
M  V30 6227 O 590.767 2.16851 0.720283 0
M  V30 6228 C 590.977 2.02067 -2.84552 0
M  V30 6229 C 592.325 2.59486 -3.36084 0
M  V30 6230 O 593.349 2.12289 -2.86028 0
M  V30 6231 O 592.208 3.45539 -4.23397 0
M  V30 6232 H 589.302 0.549951 -0.617643 0
M  V30 6233 H 591.848 0.458344 -1.63393 0
M  V30 6234 H 590.62 1.37291 -3.66425 0
M  V30 6235 H 590.243 2.84246 -2.78011 0
M  V30 6236 N 591.24 1.41047 0.703093 0
M  V30 6237 C 592.487 1.4 1.46309 0
M  V30 6238 C 592.815 0.00654574 1.94499 0
M  V30 6239 O 592.07 -0.980255 1.6938 0
M  V30 6240 C 592.369 2.34686 2.6955 0
M  V30 6241 C 592.035 3.81684 2.40058 0
M  V30 6242 C 590.697 4.21731 2.31725 0
M  V30 6243 C 593.049 4.74525 2.15581 0
M  V30 6244 C 590.377 5.52637 1.97001 0
M  V30 6245 C 592.729 6.05744 1.82366 0
M  V30 6246 C 591.393 6.44819 1.72524 0
M  V30 6247 H 590.663 0.512295 0.535382 0
M  V30 6248 H 593.31 1.73792 0.804275 0
M  V30 6249 H 591.615 1.94122 3.40329 0
M  V30 6250 H 593.312 2.31152 3.27673 0
M  V30 6251 H 589.902 3.49963 2.47435 0
M  V30 6252 H 594.086 4.44395 2.20968 0
M  V30 6253 H 589.342 5.81802 1.87928 0
M  V30 6254 H 593.516 6.77189 1.62444 0
M  V30 6255 H 591.143 7.46168 1.45385 0
M  V30 6256 N 592.718 -0.936591 1.26751 0
M  V30 6257 C 593.681 -2.01752 1.08761 0
M  V30 6258 C 594.681 -1.60763 0.0344435 0
M  V30 6259 O 595.871 -1.71963 0.278258 0
M  V30 6260 C 593.003 -3.34543 0.655271 0
M  V30 6261 H 594.196 -2.19143 2.04735 0
M  V30 6262 H 591.749 -1.11618 1.09413 0
M  V30 6263 H 592.484 -3.22851 -0.30626 0
M  V30 6264 H 592.269 -3.65647 1.41578 0
M  V30 6265 H 593.759 -4.13944 0.551378 0
M  V30 6266 N 594.196 -1.08629 -1.14182 0
M  V30 6267 C 595.442 -0.818556 -1.85546 0
M  V30 6268 C 595.775 0.654076 -1.82854 0
M  V30 6269 O 595.05 1.48099 -1.26083 0
M  V30 6270 C 595.333 -1.34397 -3.3408 0
M  V30 6271 C 595.186 -2.8821 -3.45333 0
M  V30 6272 C 596.505 -0.971069 -4.29253 0
M  V30 6273 H 593.624 -0.298821 -0.673702 0
M  V30 6274 H 596.266 -1.34629 -1.34071 0
M  V30 6275 H 594.416 -0.895064 -3.78049 0
M  V30 6276 H 596.088 -3.41488 -3.10134 0
M  V30 6277 H 594.331 -3.25756 -2.86471 0
M  V30 6278 H 595.002 -3.20047 -4.49749 0
M  V30 6279 H 597.478 -1.35809 -3.93313 0
M  V30 6280 H 596.354 -1.36586 -5.31635 0
M  V30 6281 H 596.615 0.121659 -4.41933 0
M  V30 6282 N 595.674 1.31259 -0.872281 0
M  V30 6283 C 596.607 2.26544 -0.274394 0
M  V30 6284 C 597.585 1.51213 0.597776 0
M  V30 6285 O 598.769 1.80277 0.550687 0
M  V30 6286 C 595.896 3.33139 0.611256 0
M  V30 6287 C 594.942 4.26077 -0.189876 0
M  V30 6288 S 595.775 5.11971 -1.56989 0
M  V30 6289 C 596.931 6.2208 -0.690427 0
M  V30 6290 H 597.164 2.76908 -1.0821 0
M  V30 6291 H 594.697 1.3906 -0.670939 0
M  V30 6292 H 596.655 3.95024 1.11654 0
M  V30 6293 H 595.316 2.81525 1.39294 0
M  V30 6294 H 594.509 5.01657 0.485433 0
M  V30 6295 H 594.111 3.68701 -0.627339 0
M  V30 6296 H 596.403 6.77429 0.098001 0
M  V30 6297 H 597.346 6.93768 -1.41742 0
M  V30 6298 H 597.754 5.63915 -0.256953 0
M  V30 6299 N 597.152 0.631951 1.44375 0
M  V30 6300 C 598.377 0.142146 2.06912 0
M  V30 6301 C 598.802 -1.17456 1.4692 0
M  V30 6302 O 598.16 -1.72074 0.570975 0
M  V30 6303 C 598.208 0.0417952 3.60576 0
M  V30 6304 O 597.312 -1.00194 4.00044 0
M  V30 6305 H 596.653 0.0851491 0.658518 0
M  V30 6306 H 599.183 0.868863 1.85235 0
M  V30 6307 H 599.193 -0.148517 4.0773 0
M  V30 6308 H 597.868 1.0031 4.03622 0
M  V30 6309 H 596.445 -0.786131 3.64519 0
M  V30 6310 N 598.631 -1.53133 0.372548 0
M  V30 6311 C 599.879 -2.00958 -0.214534 0
M  V30 6312 C 600.2 -1.26135 -1.48711 0
M  V30 6313 O 599.47 -0.376597 -1.92246 0
M  V30 6314 H 598.05 -0.742456 -0.0822664 0
M  V30 6315 H 600.712 -1.88367 0.500385 0
M  V30 6316 H 599.808 -3.09031 -0.436605 0
M  V30 6317 N 600.109 -0.101901 -1.5727 0
M  V30 6318 C 601.357 0.559091 -1.94213 0
M  V30 6319 C 601.678 1.68297 -0.984948 0
M  V30 6320 O 600.948 1.95863 -0.0381975 0
M  V30 6321 H 599.528 0.20952 -0.717015 0
M  V30 6322 H 602.19 -0.166831 -1.94185 0
M  V30 6323 H 601.286 0.96485 -2.96811 0
M  V30 6324 N 601.587 1.56661 0.17182 0
M  V30 6325 C 602.835 1.81606 0.886774 0
M  V30 6326 C 603.156 0.678818 1.82803 0
M  V30 6327 O 602.426 -0.301354 1.93568 0
M  V30 6328 H 601.006 0.669934 0.330451 0
M  V30 6329 H 603.668 1.94142 0.171757 0
M  V30 6330 H 602.764 2.75634 1.46398 0
M  V30 6331 N 603.065 -0.440357 1.51323 0
M  V30 6332 C 604.314 -1.18697 1.63076 0
M  V30 6333 C 604.627 -1.92418 0.35136 0
M  V30 6334 O 605.833 -2.69258 0.348221 0
M  V30 6335 C 604.289 -2.15849 2.87988 0
M  V30 6336 C 603.897 -1.47789 4.22921 0
M  V30 6337 C 605.641 -2.90962 3.09098 0
M  V30 6338 C 603.548 -2.43407 5.38987 0
M  V30 6339 H 602.478 -0.44676 0.607389 0
M  V30 6340 H 605.129 -0.454313 1.77787 0
M  V30 6341 H 603.511 -2.92537 2.66905 0
M  V30 6342 H 604.685 -0.7668 4.54375 0
M  V30 6343 H 603 -0.848404 4.07665 0
M  V30 6344 H 605.597 -3.62584 3.92985 0
M  V30 6345 H 605.94 -3.52133 2.22053 0
M  V30 6346 H 606.473 -2.21381 3.30507 0
M  V30 6347 H 603.212 -1.86929 6.28282 0
M  V30 6348 H 602.732 -3.12579 5.11913 0
M  V30 6349 H 604.411 -3.046 5.70813 0
M  V30 6350 N 604.543 -1.41418 -0.695603 0
M  V30 6351 C 605.959 -1.23887 -1.00619 0
M  V30 6352 C 606.159 -0.128206 -2.01092 0
M  V30 6353 O 605.215 0.507408 -2.47349 0
M  V30 6354 C 606.528 -2.58816 -1.53083 0
M  V30 6355 C 608.076 -2.65998 -1.64967 0
M  V30 6356 C 608.551 -4.01244 -2.20833 0
M  V30 6357 N 610.042 -4.0309 -2.28194 0
M  V30 6358 C 610.777 -5.04539 -2.72448 0
M  V30 6359 N 610.273 -6.16378 -3.16306 0
M  V30 6360 N 612.066 -4.91901 -2.72011 0
M  V30 6361 H 604.217 -2.12379 -0.0300061 0
M  V30 6362 H 606.48 -0.944958 -0.0758797 0
M  V30 6363 H 606.186 -3.40842 -0.867147 0
M  V30 6364 H 606.06 -2.81299 -2.51298 0
M  V30 6365 H 608.447 -1.84331 -2.30448 0
M  V30 6366 H 608.528 -2.47325 -0.652982 0
M  V30 6367 H 608.172 -4.83359 -1.55968 0
M  V30 6368 H 608.102 -4.17257 -3.21254 0
M  V30 6369 H 610.593 -3.22341 -1.97242 0
M  V30 6370 H 610.906 -6.89658 -3.487 0
M  V30 6371 H 609.251 -6.19914 -3.14215 0
M  V30 6372 H 612.442 -4.03613 -2.37095 0
M  V30 6373 H 612.615 -5.71102 -3.06181 0
M  V30 6374 N 606.021 0.929856 -1.27246 0
M  V30 6375 C 607.298 1.65544 -1.04186 0
M  V30 6376 C 607.678 2.06796 0.424097 0
M  V30 6377 O 607.026 1.80053 1.40688 0
M  V30 6378 C 607.236 2.85912 -2.00138 0
M  V30 6379 C 608.584 3.57305 -2.29387 0
M  V30 6380 O 609.608 2.96036 -1.98094 0
M  V30 6381 O 608.467 4.67688 -2.82719 0
M  V30 6382 H 605.561 0.725473 -0.397011 0
M  V30 6383 H 608.107 0.980583 -1.38501 0
M  V30 6384 H 606.879 2.52403 -2.99013 0
M  V30 6385 H 606.502 3.61118 -1.66371 0
M  V30 6386 N 607.499 1.09233 1.13605 0
M  V30 6387 C 608.724 0.849067 1.89224 0
M  V30 6388 C 609.149 -0.593875 1.78479 0
M  V30 6389 O 608.507 -1.41703 1.13092 0
M  V30 6390 C 608.555 1.28642 3.36873 0
M  V30 6391 O 607.659 0.44363 4.10007 0
M  V30 6392 H 607 0.30767 0.588417 0
M  V30 6393 H 609.53 1.45595 1.43748 0
M  V30 6394 H 609.54 1.27096 3.87699 0
M  V30 6395 H 608.215 2.33729 3.44011 0
M  V30 6396 H 606.792 0.523241 3.69211 0
M  V30 6397 N 608.977 -1.30795 0.87923 0
M  V30 6398 C 610.226 -1.95636 0.490875 0
M  V30 6399 C 610.539 -1.70214 -0.963674 0
M  V30 6400 O 611.745 -2.28991 -1.45861 0
M  V30 6401 C 610.201 -3.50271 0.826929 0
M  V30 6402 C 609.809 -3.84521 2.29886 0
M  V30 6403 C 611.553 -4.21456 0.507494 0
M  V30 6404 C 609.46 -5.32309 2.57685 0
M  V30 6405 H 608.39 -0.732238 0.179841 0
M  V30 6406 H 611.041 -1.48829 1.07341 0
M  V30 6407 H 609.423 -3.9562 0.173542 0
M  V30 6408 H 610.597 -3.50102 2.99609 0
M  V30 6409 H 608.912 -3.26425 2.58526 0
M  V30 6410 H 611.509 -5.30199 0.692293 0
M  V30 6411 H 611.852 -4.12614 -0.552718 0
M  V30 6412 H 612.385 -3.81772 1.11782 0
M  V30 6413 H 609.124 -5.46195 3.62424 0
M  V30 6414 H 608.644 -5.68048 1.92566 0
M  V30 6415 H 610.323 -5.99678 2.42889 0
M  V30 6416 N 610.455 -0.639598 -1.44038 0
M  V30 6417 C 611.365 0.0612377 -2.3452 0
M  V30 6418 C 612.381 0.826717 -1.53106 0
M  V30 6419 O 613.557 0.777059 -1.85806 0
M  V30 6420 C 610.622 1.02492 -3.31204 0
M  V30 6421 C 609.683 0.25788 -4.28525 0
M  V30 6422 C 608.916 1.17566 -5.2059 0
M  V30 6423 O 609.139 2.41461 -5.16771 0
M  V30 6424 O 608.073 0.655407 -5.98321 0
M  V30 6425 H 611.899 -0.68318 -2.95916 0
M  V30 6426 H 609.484 -0.399784 -1.43952 0
M  V30 6427 H 611.366 1.57911 -3.90694 0
M  V30 6428 H 610.041 1.7498 -2.7233 0
M  V30 6429 H 608.948 -0.339566 -3.72556 0
M  V30 6430 H 610.281 -0.427154 -4.90343 0
M  V30 6431 N 611.933 1.52934 -0.380664 0
M  V30 6432 C 612.896 2.24809 0.446473 0
M  V30 6433 C 613.896 1.26133 0.997347 0
M  V30 6434 O 615.086 1.50297 0.880714 0
M  V30 6435 C 612.218 2.99649 1.62553 0
M  V30 6436 H 613.411 2.99343 -0.182677 0
M  V30 6437 H 610.964 1.55736 -0.132618 0
M  V30 6438 H 611.699 2.29395 2.29235 0
M  V30 6439 H 611.484 3.72066 1.23732 0
M  V30 6440 H 612.974 3.54246 2.21133 0
M  V30 6441 N 613.412 0.11024 1.57214 0
M  V30 6442 C 614.66 -0.548783 1.94506 0
M  V30 6443 C 614.981 -1.67772 0.99386 0
M  V30 6444 O 614.251 -1.9584 0.0485841 0
M  V30 6445 H 612.831 -0.205715 0.718116 0
M  V30 6446 H 615.493 0.177127 1.94093 0
M  V30 6447 H 614.589 -0.949096 2.97319 0
M  V30 6448 N 614.89 -1.56749 -0.16351 0
M  V30 6449 C 616.167 -1.73321 -0.906599 0
M  V30 6450 C 616.547 -0.673779 -2.00059 0
M  V30 6451 O 615.895 0.310121 -2.26386 0
M  V30 6452 C 616.105 -3.168 -1.46419 0
M  V30 6453 C 617.453 -3.77993 -1.93407 0
M  V30 6454 O 618.477 -3.20127 -1.56196 0
M  V30 6455 O 617.336 -4.79615 -2.61976 0
M  V30 6456 H 614.43 -0.708073 -0.427272 0
M  V30 6457 H 616.976 -1.69029 -0.150727 0
M  V30 6458 H 615.748 -3.85396 -0.677189 0
M  V30 6459 H 615.371 -3.2545 -2.28403 0
M  V30 6460 N 616.368 0.432326 -1.51554 0
M  V30 6461 C 617.617 1.17831 -1.63703 0
M  V30 6462 C 617.93 1.92229 -0.36156 0
M  V30 6463 O 619.136 2.69069 -0.362495 0
M  V30 6464 C 617.592 2.14318 -2.89129 0
M  V30 6465 C 617.2 1.45544 -4.23699 0
M  V30 6466 C 618.944 2.89319 -3.10636 0
M  V30 6467 C 616.851 2.40545 -5.4027 0
M  V30 6468 H 615.781 0.443533 -0.60975 0
M  V30 6469 H 618.432 0.444878 -1.78026 0
M  V30 6470 H 616.814 2.91117 -2.68452 0
M  V30 6471 H 617.988 0.742693 -4.54775 0
M  V30 6472 H 616.303 0.826772 -4.0811 0
M  V30 6473 H 618.9 3.60495 -3.94902 0
M  V30 6474 H 619.243 3.50951 -2.23918 0
M  V30 6475 H 619.776 2.19625 -3.31677 0
M  V30 6476 H 616.515 1.83594 -6.29264 0
M  V30 6477 H 616.035 3.09859 -5.13563 0
M  V30 6478 H 617.714 3.01569 -5.72421 0
M  V30 6479 N 617.846 1.41785 0.688094 0
M  V30 6480 C 619.071 1.45117 1.48175 0
M  V30 6481 C 619.496 0.060129 1.88004 0
M  V30 6482 O 618.854 -0.938385 1.55126 0
M  V30 6483 C 618.902 2.37224 2.71583 0
M  V30 6484 O 618.006 1.83443 3.69354 0
M  V30 6485 H 617.347 0.492208 0.445676 0
M  V30 6486 H 619.877 1.86329 0.845145 0
M  V30 6487 H 619.887 2.53353 3.19806 0
M  V30 6488 H 618.562 3.38293 2.41931 0
M  V30 6489 H 617.139 1.76802 3.28322 0
M  V30 6490 N 619.324 -0.923095 1.27737 0
M  V30 6491 C 620.554 -1.70277 1.17001 0
M  V30 6492 C 620.962 -1.87188 -0.275199 0
M  V30 6493 O 620.305 -1.39195 -1.19877 0
M  V30 6494 C 620.367 -3.11976 1.78637 0
M  V30 6495 C 620.031 -3.18386 3.27841 0
M  V30 6496 C 621.028 -3.00287 4.2441 0
M  V30 6497 C 618.713 -3.41198 3.68632 0
M  V30 6498 C 620.707 -3.04896 5.59747 0
M  V30 6499 C 618.394 -3.4544 5.04097 0
M  V30 6500 C 619.392 -3.27309 5.99465 0
M  V30 6501 O 619.08 -3.31295 7.32461 0
M  V30 6502 H 618.812 -0.539366 0.407505 0
M  V30 6503 H 621.366 -1.16446 1.69202 0
M  V30 6504 H 619.596 -3.67308 1.20919 0
M  V30 6505 H 621.285 -3.7193 1.6255 0
M  V30 6506 H 622.051 -2.825 3.94232 0
M  V30 6507 H 617.93 -3.54359 2.94873 0
M  V30 6508 H 621.474 -2.90662 6.34162 0
M  V30 6509 H 617.371 -3.62753 5.33929 0
M  V30 6510 H 618.139 -3.47719 7.40968 0
M  V30 6511 N 620.802 -1.09834 -1.13024 0
M  V30 6512 C 621.749 -0.741522 -2.18564 0
M  V30 6513 C 622.719 0.279236 -1.63736 0
M  V30 6514 O 623.904 0.159923 -1.90129 0
M  V30 6515 C 621.044 -0.17277 -3.44667 0
M  V30 6516 C 620.157 -1.24808 -4.13578 0
M  V30 6517 C 619.292 -0.641631 -5.27311 0
M  V30 6518 C 618.331 -1.69795 -5.88078 0
M  V30 6519 N 617.468 -1.11223 -6.93234 0
M  V30 6520 H 622.308 -1.64576 -2.48432 0
M  V30 6521 H 619.845 -0.822174 -1.21978 0
M  V30 6522 H 621.803 0.17482 -4.16834 0
M  V30 6523 H 620.433 0.694725 -3.15235 0
M  V30 6524 H 619.485 -1.71288 -3.39653 0
M  V30 6525 H 620.797 -2.04795 -4.54819 0
M  V30 6526 H 619.951 -0.243128 -6.06213 0
M  V30 6527 H 618.69 0.189742 -4.87331 0
M  V30 6528 H 617.695 -2.10595 -5.07868 0
M  V30 6529 H 618.92 -2.53206 -6.3013 0
M  V30 6530 H 616.866 -0.302208 -6.55304 0
M  V30 6531 H 616.783 -1.84901 -7.3304 0
M  V30 6532 H 618.051 -0.740068 -7.75979 0
M  V30 6533 N 622.28 1.30327 -0.886154 0
M  V30 6534 C 623.228 2.30052 -0.343317 0
M  V30 6535 C 624.222 1.60212 0.550305 0
M  V30 6536 O 625.428 1.74674 0.434609 0
M  V30 6537 H 621.803 0.746306 -0.0923681 0
M  V30 6538 H 623.774 2.73294 -1.19804 0
M  V30 6539 C 622.523 3.45079 0.426107 0
M  V30 6540 H 621.846 3.99003 -0.25227 0
M  V30 6541 H 623.286 4.16931 0.771009 0
M  V30 6542 C 621.745 2.95195 1.62363 0
M  V30 6543 O 622.275 2.95323 2.723 0
M  V30 6544 N 620.481 2.51192 1.4612 0
M  V30 6545 H 620.028 2.51286 0.566832 0
M  V30 6546 H 619.986 2.18173 2.2638 0
M  V30 6547 N 623.758 0.647228 1.43697 0
M  V30 6548 C 625.004 0.158422 2.0218 0
M  V30 6549 C 625.337 -1.22233 1.50907 0
M  V30 6550 O 624.612 -1.81478 0.699702 0
M  V30 6551 C 624.895 0.1627 3.59732 0
M  V30 6552 C 624.748 1.57694 4.21251 0
M  V30 6553 C 626.067 -0.504138 4.37203 0
M  V30 6554 H 623.186 0.059042 0.734631 0
M  V30 6555 H 625.828 0.826772 1.71069 0
M  V30 6556 H 623.978 -0.406414 3.86368 0
M  V30 6557 H 625.65 2.19618 4.05667 0
M  V30 6558 H 623.893 2.12603 3.7813 0
M  V30 6559 H 624.564 1.53183 5.3032 0
M  V30 6560 H 627.04 -0.0199841 4.16095 0
M  V30 6561 H 625.916 -0.470394 5.46881 0
M  V30 6562 H 626.177 -1.57726 4.13007 0
M  V30 6563 N 625.236 -1.5273 0.388769 0
M  V30 6564 C 626.166 -2.29353 -0.438111 0
M  V30 6565 C 627.147 -1.32719 -1.06394 0
M  V30 6566 O 628.332 -1.61612 -1.07681 0
M  V30 6567 C 625.462 -3.09995 -1.56589 0
M  V30 6568 C 624.416 -4.14509 -1.06613 0
M  V30 6569 C 623.742 -4.83372 -2.28594 0
M  V30 6570 C 625.042 -5.22127 -0.134459 0
M  V30 6571 H 626.736 -2.98723 0.201206 0
M  V30 6572 H 624.282 -1.43665 0.0982089 0
M  V30 6573 H 626.235 -3.62357 -2.15118 0
M  V30 6574 H 624.959 -2.38357 -2.23279 0
M  V30 6575 H 623.618 -3.63128 -0.503383 0
M  V30 6576 H 623.266 -4.08283 -2.93792 0
M  V30 6577 H 622.966 -5.54012 -1.95817 0
M  V30 6578 H 624.49 -5.38538 -2.87766 0
M  V30 6579 H 625.904 -5.69851 -0.627914 0
M  V30 6580 H 624.301 -6.00011 0.103534 0
M  V30 6581 H 625.371 -4.77971 0.816798 0
M  V30 6582 N 626.714 -0.118576 -1.57153 0
M  V30 6583 C 627.661 0.831789 -2.1529 0
M  V30 6584 C 628.631 1.26385 -1.07778 0
M  V30 6585 O 629.816 1.34144 -1.35684 0
M  V30 6586 C 626.956 2.07664 -2.75626 0
M  V30 6587 C 626.069 1.69298 -3.97444 0
M  V30 6588 C 625.204 2.88747 -4.45868 0
M  V30 6589 C 624.243 2.46619 -5.60219 0
M  V30 6590 N 623.38 3.5898 -6.03389 0
M  V30 6591 H 628.22 0.329183 -2.96176 0
M  V30 6592 H 625.757 0.150792 -1.46325 0
M  V30 6593 H 627.715 2.80601 -3.08738 0
M  V30 6594 H 626.345 2.55384 -1.97431 0
M  V30 6595 H 625.397 0.862374 -3.70496 0
M  V30 6596 H 626.709 1.34338 -4.80369 0
M  V30 6597 H 625.863 3.69909 -4.80887 0
M  V30 6598 H 624.602 3.26933 -3.61892 0
M  V30 6599 H 623.607 1.63889 -5.24805 0
M  V30 6600 H 624.832 2.0955 -6.45961 0
M  V30 6601 H 622.778 3.9684 -5.22354 0
M  V30 6602 H 622.695 3.27942 -6.81168 0
M  V30 6603 H 623.963 4.40583 -6.43045 0
M  V30 6604 N 628.193 1.56834 0.155195 0
M  V30 6605 C 629.439 1.83169 0.870467 0
M  V30 6606 C 629.772 0.698929 1.81187 0
M  V30 6607 O 629.047 -0.298035 1.92203 0
M  V30 6608 C 629.33 3.19965 1.65211 0
M  V30 6609 C 629.183 4.43792 0.732744 0
M  V30 6610 C 630.502 3.53885 2.61636 0
M  V30 6611 H 627.621 0.666288 0.315006 0
M  V30 6612 H 630.263 1.89513 0.135988 0
M  V30 6613 H 628.413 3.14687 2.27825 0
M  V30 6614 H 630.085 4.61148 0.118236 0
M  V30 6615 H 628.328 4.3378 0.0417906 0
M  V30 6616 H 628.999 5.36095 1.31552 0
M  V30 6617 H 631.475 3.5972 2.09143 0
M  V30 6618 H 630.351 4.50648 3.13381 0
M  V30 6619 H 630.612 2.79418 3.42605 0
M  V30 6620 N 629.671 -0.424282 1.51781 0
M  V30 6621 C 630.603 -1.53457 1.70246 0
M  V30 6622 C 631.616 -1.52004 0.582967 0
M  V30 6623 O 632.805 -1.56544 0.857683 0
M  V30 6624 C 629.905 -2.92368 1.71389 0
M  V30 6625 C 629.078 -3.1818 3.00133 0
M  V30 6626 C 628.137 -4.36884 2.9329 0
M  V30 6627 O 627.163 -4.34901 3.67219 0
M  V30 6628 N 628.365 -5.4117 2.10036 0
M  V30 6629 H 631.13 -1.38017 2.66029 0
M  V30 6630 H 628.691 -0.613394 1.4983 0
M  V30 6631 H 630.683 -3.6982 1.64362 0
M  V30 6632 H 629.253 -3.0134 0.831449 0
M  V30 6633 H 628.473 -2.28908 3.20928 0
M  V30 6634 H 629.761 -3.32261 3.85331 0
M  V30 6635 H 629.159 -5.45623 1.49373 0
M  V30 6636 H 627.716 -6.17425 2.08878 0
M  V30 6637 N 631.149 -1.42148 -0.680565 0
M  V30 6638 C 632.56 -1.3768 -1.26099 0
M  V30 6639 C 632.911 -0.0672348 -1.96085 0
M  V30 6640 O 632.036 0.834172 -1.99676 0
M  V30 6641 C 632.631 -2.49387 -2.29328 0
M  V30 6642 C 631.19 -2.4827 -2.82911 0
M  V30 6643 C 630.337 -2.2847 -1.57152 0
M  V30 6644 H 633.288 -1.51446 -0.474326 0
M  V30 6645 H 633.309 -2.19307 -3.10941 0
M  V30 6646 H 632.821 -3.44686 -1.78363 0
M  V30 6647 H 630.922 -1.56773 -3.38013 0
M  V30 6648 H 631.035 -3.45109 -3.3232 0
M  V30 6649 H 629.399 -1.76623 -1.83511 0
M  V30 6650 H 630.182 -3.25816 -1.0816 0
M  V30 6651 N 632.627 0.916307 -1.28225 0
M  V30 6652 C 633.874 1.66518 -1.1523 0
M  V30 6653 C 634.202 1.92178 0.299632 0
M  V30 6654 O 633.457 1.51842 1.2346 0
M  V30 6655 C 633.756 3.03125 -1.8934 0
M  V30 6656 C 633.422 2.97135 -3.39148 0
M  V30 6657 C 632.084 2.95208 -3.80007 0
M  V30 6658 C 634.436 2.87574 -4.34685 0
M  V30 6659 C 631.764 2.81518 -5.14747 0
M  V30 6660 C 634.116 2.75424 -5.69495 0
M  V30 6661 C 632.78 2.71854 -6.09632 0
M  V30 6662 H 632.05 0.609334 -0.421655 0
M  V30 6663 H 634.697 1.06776 -1.58969 0
M  V30 6664 H 633.002 3.66639 -1.38143 0
M  V30 6665 H 634.699 3.59968 -1.76704 0
M  V30 6666 H 631.289 2.99428 -3.06661 0
M  V30 6667 H 635.473 2.88152 -4.04082 0
M  V30 6668 H 630.729 2.77148 -5.44976 0
M  V30 6669 H 634.903 2.66993 -6.43185 0
M  V30 6670 H 632.53 2.61003 -7.1399 0
M  V30 6671 N 634.105 1.10431 1.1244 0
M  V30 6672 C 635.353 0.845045 1.83585 0
M  V30 6673 C 635.674 -0.631168 1.84503 0
M  V30 6674 O 634.944 -1.45825 1.30813 0
M  V30 6675 H 633.524 0.309628 0.679809 0
M  V30 6676 H 636.186 1.39458 1.36153 0
M  V30 6677 H 635.282 1.20786 2.8778 0
M  V30 6678 N 635.583 -1.29855 0.893053 0
M  V30 6679 C 636.531 -2.29867 0.355512 0
M  V30 6680 C 637.525 -1.60502 -0.541801 0
M  V30 6681 O 638.731 -1.74902 -0.425339 0
M  V30 6682 H 635.106 -0.745805 0.0963247 0
M  V30 6683 H 637.077 -2.72655 1.21252 0
M  V30 6684 C 635.826 -3.453 -0.407801 0
M  V30 6685 H 635.149 -3.98864 0.273426 0
M  V30 6686 H 636.589 -4.17334 -0.748887 0
M  V30 6687 C 635.048 -2.96051 -1.60795 0
M  V30 6688 O 635.578 -2.96763 -2.7073 0
M  V30 6689 N 633.784 -2.51963 -1.44786 0
M  V30 6690 H 633.331 -2.51583 -0.553498 0
M  V30 6691 H 633.289 -2.1937 -2.2522 0
M  V30 6692 N 637.061 -0.65484 -1.43351 0
M  V30 6693 C 638.307 -0.169142 -2.02093 0
M  V30 6694 C 638.64 1.21431 -1.51553 0
M  V30 6695 O 637.915 1.81105 -0.709317 0
M  V30 6696 C 638.198 -0.181775 -3.59641 0
M  V30 6697 C 638.051 -1.59926 -4.20409 0
M  V30 6698 C 639.37 0.480945 -4.37464 0
M  V30 6699 H 636.489 -0.0629371 -0.734308 0
M  V30 6700 H 639.131 -0.835833 -1.70628 0
M  V30 6701 H 637.281 0.385918 -3.86578 0
M  V30 6702 H 638.953 -2.21766 -4.04497 0
M  V30 6703 H 637.196 -2.14605 -3.76998 0
M  V30 6704 H 637.867 -1.55994 -5.295 0
M  V30 6705 H 640.343 -0.00208273 -4.161 0
M  V30 6706 H 639.219 0.441384 -5.47122 0
M  V30 6707 H 639.48 1.55533 -4.13838 0
M  V30 6708 N 638.539 1.52521 -0.396863 0
M  V30 6709 C 639.785 2.01971 0.183169 0
M  V30 6710 C 640.118 1.2825 1.45827 0
M  V30 6711 O 639.393 0.385179 1.90648 0
M  V30 6712 C 639.676 3.5736 0.443391 0
M  V30 6713 C 639.529 4.41743 -0.84753 0
M  V30 6714 C 640.848 4.22539 1.2308 0
M  V30 6715 H 637.967 0.734119 0.0650976 0
M  V30 6716 H 640.609 1.82519 -0.527918 0
M  V30 6717 H 638.759 3.74066 1.04914 0
M  V30 6718 H 640.431 4.36773 -1.48414 0
M  V30 6719 H 638.674 4.0845 -1.4612 0
M  V30 6720 H 639.345 5.48507 -0.620003 0
M  V30 6721 H 641.821 4.09857 0.718084 0
M  V30 6722 H 640.697 5.31227 1.38162 0
M  V30 6723 H 640.958 3.80675 2.24808 0
M  V30 6724 N 640.017 0.126909 1.57088 0
M  V30 6725 C 641.263 -0.529952 1.95753 0
M  V30 6726 C 641.596 -1.65823 1.01077 0
M  V30 6727 O 640.871 -1.94437 0.0494162 0
M  V30 6728 C 641.154 -1.05517 3.44294 0
M  V30 6729 C 641.007 0.0702253 4.49745 0
M  V30 6730 C 642.326 -1.9435 3.94862 0
M  V30 6731 H 639.445 -0.191168 0.711775 0
M  V30 6732 H 642.087 0.204071 1.88901 0
M  V30 6733 H 640.237 -1.68069 3.50264 0
M  V30 6734 H 641.909 0.705834 4.55868 0
M  V30 6735 H 640.152 0.732259 4.27575 0
M  V30 6736 H 640.823 -0.338642 5.5096 0
M  V30 6737 H 643.299 -1.41658 3.91244 0
M  V30 6738 H 642.175 -2.28015 4.993 0
M  V30 6739 H 642.436 -2.87299 3.36024 0
M  V30 6740 N 641.495 -1.56914 -0.146875 0
M  V30 6741 C 642.725 -1.87243 -0.873126 0
M  V30 6742 C 643.133 -0.713127 -1.75246 0
M  V30 6743 O 642.476 0.326228 -1.8078 0
M  V30 6744 C 642.538 -3.12279 -1.78107 0
M  V30 6745 C 642.202 -4.44082 -1.07889 0
M  V30 6746 C 643.199 -5.18096 -0.432734 0
M  V30 6747 C 640.884 -4.90807 -1.06836 0
M  V30 6748 C 642.878 -6.37039 0.214569 0
M  V30 6749 C 640.565 -6.09674 -0.417243 0
M  V30 6750 C 641.563 -6.82636 0.223093 0
M  V30 6751 O 641.251 -7.99245 0.863884 0
M  V30 6752 H 640.983 -0.624896 -0.257839 0
M  V30 6753 H 643.537 -2.04892 -0.14434 0
M  V30 6754 H 641.767 -2.90639 -2.5508 0
M  V30 6755 H 643.456 -3.28854 -2.37929 0
M  V30 6756 H 644.222 -4.83066 -0.432677 0
M  V30 6757 H 640.101 -4.3394 -1.55618 0
M  V30 6758 H 643.645 -6.93927 0.714965 0
M  V30 6759 H 639.542 -6.44165 -0.414967 0
M  V30 6760 H 640.31 -8.14912 0.765564 0
M  V30 6761 N 642.974 0.416227 -1.52004 0
M  V30 6762 C 643.937 1.48926 -1.74223 0
M  V30 6763 C 644.937 1.48693 -0.612119 0
M  V30 6764 O 646.127 1.50343 -0.879921 0
M  V30 6765 C 643.259 2.88372 -1.81809 0
M  V30 6766 H 644.452 1.3052 -2.70008 0
M  V30 6767 H 642.005 0.646271 -1.42313 0
M  V30 6768 H 642.74 3.12157 -0.879135 0
M  V30 6769 H 642.525 2.89944 -2.6396 0
M  V30 6770 H 644.015 3.66173 -2.00766 0
M  V30 6771 N 644.452 1.42507 0.673017 0
M  V30 6772 C 645.729 1.33554 1.42908 0
M  V30 6773 C 646.109 -0.0262211 2.11084 0
M  V30 6774 O 645.457 -1.04181 2.03368 0
M  V30 6775 C 645.667 2.50498 2.43006 0
M  V30 6776 C 647.015 2.92694 3.07596 0
M  V30 6777 O 648.039 2.50401 2.53333 0
M  V30 6778 O 646.898 3.65899 4.05931 0
M  V30 6779 H 643.992 0.526785 0.637516 0
M  V30 6780 H 646.538 1.54518 0.701591 0
M  V30 6781 H 645.31 3.41272 1.9144 0
M  V30 6782 H 644.933 2.3153 3.23233 0
M  V30 6783 N 645.93 -0.909495 1.28709 0
M  V30 6784 C 646.863 -2.01388 1.07323 0
M  V30 6785 C 647.841 -1.62596 -0.0119757 0
M  V30 6786 O 649.025 -1.88003 0.136796 0
M  V30 6787 C 646.152 -3.32755 0.631797 0
M  V30 6788 C 645.198 -3.90532 1.71428 0
M  V30 6789 S 646.031 -4.20853 3.31124 0
M  V30 6790 C 647.187 -5.55276 2.88825 0
M  V30 6791 H 647.42 -2.19219 2.00824 0
M  V30 6792 H 644.953 -1.05489 1.12745 0
M  V30 6793 H 646.911 -4.08702 0.38381 0
M  V30 6794 H 645.572 -3.12818 -0.283451 0
M  V30 6795 H 644.765 -4.85385 1.35712 0
M  V30 6796 H 644.367 -3.21237 1.91528 0
M  V30 6797 H 646.659 -6.35341 2.3526 0
M  V30 6798 H 647.602 -5.95907 3.82492 0
M  V30 6799 H 648.01 -5.16666 2.27412 0
M  V30 6800 N 647.408 -1.11026 -1.11852 0
M  V30 6801 C 648.636 -0.878818 -1.87308 0
M  V30 6802 C 649.051 0.57111 -1.79955 0
M  V30 6803 O 648.408 1.39409 -1.17777 0
M  V30 6804 C 648.459 -1.3264 -3.36287 0
M  V30 6805 O 648.18 -2.71948 -3.43476 0
M  V30 6806 C 649.681 -1.12974 -4.28663 0
M  V30 6807 H 646.901 -0.315015 -0.592458 0
M  V30 6808 H 649.445 -1.47649 -1.41492 0
M  V30 6809 H 647.6 -0.772269 -3.79625 0
M  V30 6810 H 648.014 -2.91241 -4.3621 0
M  V30 6811 H 649.488 -1.49198 -5.31454 0
M  V30 6812 H 649.965 -0.0689127 -4.39146 0
M  V30 6813 H 650.571 -1.67064 -3.91113 0
M  V30 6814 N 648.886 1.2938 -0.899927 0
M  V30 6815 C 650.134 1.95164 -0.524924 0
M  V30 6816 C 650.455 1.71292 0.931888 0
M  V30 6817 O 649.725 1.04481 1.65712 0
M  V30 6818 H 648.305 0.722133 -0.191135 0
M  V30 6819 H 650.967 1.57628 -1.14627 0
M  V30 6820 H 650.063 3.0397 -0.707711 0
M  V30 6821 N 650.364 0.662433 1.43002 0
M  V30 6822 C 651.311 -0.0235324 2.30788 0
M  V30 6823 C 652.281 -0.805342 1.4527 0
M  V30 6824 O 653.466 -0.78009 1.74124 0
M  V30 6825 C 650.606 -0.977545 3.30965 0
M  V30 6826 C 649.719 -0.190865 4.31578 0
M  V30 6827 C 648.854 -1.13951 5.18834 0
M  V30 6828 C 647.893 -0.343796 6.11134 0
M  V30 6829 N 647.03 -1.2445 6.90982 0
M  V30 6830 H 651.87 0.730921 2.88897 0
M  V30 6831 H 649.407 0.372197 1.42313 0
M  V30 6832 H 651.365 -1.54437 3.87563 0
M  V30 6833 H 649.995 -1.69877 2.74484 0
M  V30 6834 H 649.047 0.492388 3.772 0
M  V30 6835 H 650.359 0.427464 4.96965 0
M  V30 6836 H 649.513 -1.77666 5.80103 0
M  V30 6837 H 648.252 -1.79174 4.53595 0
M  V30 6838 H 647.257 0.30665 5.48944 0
M  V30 6839 H 648.482 0.304161 6.78419 0
M  V30 6840 H 646.428 -1.88336 6.28383 0
M  V30 6841 H 646.345 -0.680959 7.52927 0
M  V30 6842 H 647.613 -1.86952 7.56749 0
M  V30 6843 N 651.842 -1.52309 0.404946 0
M  V30 6844 C 652.752 -2.30634 -0.429555 0
M  V30 6845 C 653.768 -1.38187 -1.05737 0
M  V30 6846 O 654.944 -1.71261 -1.05979 0
M  V30 6847 C 652.009 -3.10947 -1.53339 0
M  V30 6848 C 651.07 -4.19126 -0.929065 0
M  V30 6849 C 650.303 -4.95601 -1.9803 0
M  V30 6850 O 650.526 -4.72331 -3.1978 0
M  V30 6851 O 649.46 -5.80551 -1.58886 0
M  V30 6852 H 653.286 -3.0298 0.208963 0
M  V30 6853 H 650.871 -1.4845 0.168255 0
M  V30 6854 H 652.753 -3.60974 -2.1743 0
M  V30 6855 H 651.428 -2.41399 -2.15658 0
M  V30 6856 H 650.335 -3.73257 -0.250982 0
M  V30 6857 H 651.668 -4.90955 -0.349855 0
M  V30 6858 N 653.32 -0.135238 -1.57019 0
M  V30 6859 C 654.566 0.519563 -1.96032 0
M  V30 6860 C 654.899 1.65284 -1.01955 0
M  V30 6861 O 654.174 1.94408 -0.059727 0
M  V30 6862 C 654.457 1.0369 -3.44848 0
M  V30 6863 C 654.31 -0.0940754 -4.49702 0
M  V30 6864 C 655.629 1.92254 -3.95887 0
M  V30 6865 H 652.748 0.18739 -0.712779 0
M  V30 6866 H 655.39 -0.214086 -1.8879 0
M  V30 6867 H 653.54 1.66209 -3.5115 0
M  V30 6868 H 655.212 -0.73 -4.55487 0
M  V30 6869 H 653.455 -0.754924 -4.27181 0
M  V30 6870 H 654.126 0.309419 -5.51132 0
M  V30 6871 H 656.602 1.39581 -3.9199 0
M  V30 6872 H 655.478 2.25364 -5.00502 0
M  V30 6873 H 655.739 2.85513 -3.37543 0
M  V30 6874 N 654.798 1.5699 0.138552 0
M  V30 6875 C 656.047 1.82998 0.848205 0
M  V30 6876 C 656.36 0.717829 1.81952 0
M  V30 6877 O 657.566 0.863756 2.57394 0
M  V30 6878 C 656.022 3.24379 1.55904 0
M  V30 6879 C 655.63 4.43552 0.62971 0
M  V30 6880 C 657.374 3.59654 2.25498 0
M  V30 6881 C 655.281 5.75957 1.34266 0
M  V30 6882 H 654.211 0.682495 0.320495 0
M  V30 6883 H 656.862 1.83222 0.100924 0
M  V30 6884 H 655.244 3.18567 2.35226 0
M  V30 6885 H 656.418 4.6062 -0.128882 0
M  V30 6886 H 654.733 4.16379 0.0417526 0
M  V30 6887 H 657.33 4.55837 2.79493 0
M  V30 6888 H 657.673 2.86124 3.02388 0
M  V30 6889 H 658.206 3.67164 1.53087 0
M  V30 6890 H 654.945 6.52604 0.615441 0
M  V30 6891 H 654.465 5.62811 2.07375 0
M  V30 6892 H 656.144 6.19046 1.88126 0
M  V30 6893 N 656.276 -0.40816 1.52223 0
M  V30 6894 C 657.553 -1.16807 1.56893 0
M  V30 6895 C 657.933 -2.08169 0.350537 0
M  V30 6896 O 657.281 -2.18684 -0.662536 0
M  V30 6897 C 657.491 -1.94451 2.8981 0
M  V30 6898 C 658.839 -2.50484 3.42845 0
M  V30 6899 O 659.863 -2.0463 2.91556 0
M  V30 6900 O 658.722 -3.34192 4.3241 0
M  V30 6901 H 655.816 -0.533382 0.632007 0
M  V30 6902 H 658.362 -0.414862 1.64551 0
M  V30 6903 H 657.134 -1.27527 3.69936 0
M  V30 6904 H 656.757 -2.76775 2.85449 0
M  V30 6905 N 657.755 -1.42862 -0.66545 0
M  V30 6906 C 658.985 -1.47032 -1.45138 0
M  V30 6907 C 659.393 -0.0829977 -1.89018 0
M  V30 6908 O 658.736 0.914551 -1.59316 0
M  V30 6909 C 658.798 -2.34302 -2.72659 0
M  V30 6910 C 658.462 -3.82034 -2.50796 0
M  V30 6911 C 659.459 -4.73453 -2.14799 0
M  V30 6912 C 657.144 -4.26397 -2.655 0
M  V30 6913 C 659.138 -6.07228 -1.93785 0
M  V30 6914 C 656.825 -5.6023 -2.44103 0
M  V30 6915 C 657.823 -6.50462 -2.08299 0
M  V30 6916 O 657.511 -7.8182 -1.87116 0
M  V30 6917 H 657.243 -0.501969 -0.452772 0
M  V30 6918 H 659.797 -1.88137 -0.82423 0
M  V30 6919 H 658.027 -1.88063 -3.37889 0
M  V30 6920 H 659.716 -2.29818 -3.34572 0
M  V30 6921 H 660.482 -4.4046 -2.03026 0
M  V30 6922 H 656.361 -3.56448 -2.92345 0
M  V30 6923 H 659.905 -6.7762 -1.65763 0
M  V30 6924 H 655.802 -5.92793 -2.55475 0
M  V30 6925 H 656.57 -7.93274 -2.01639 0
M  V30 6926 N 659.233 0.902656 -1.29189 0
M  V30 6927 C 660.163 2.02294 -1.16616 0
M  V30 6928 C 661.144 1.6999 -0.0611175 0
M  V30 6929 O 662.329 1.9271 -0.240072 0
M  V30 6930 C 659.459 3.37018 -0.83882 0
M  V30 6931 C 658.413 3.83522 -1.89986 0
M  V30 6932 C 657.739 5.15337 -1.42589 0
M  V30 6933 C 659.039 4.04169 -3.30824 0
M  V30 6934 H 660.733 2.13071 -2.10336 0
M  V30 6935 H 658.279 1.02378 -1.01266 0
M  V30 6936 H 660.232 4.14895 -0.737584 0
M  V30 6937 H 658.956 3.26325 0.134071 0
M  V30 6938 H 657.615 3.07859 -1.99043 0
M  V30 6939 H 657.263 5.01056 -0.441759 0
M  V30 6940 H 656.963 5.47423 -2.13547 0
M  V30 6941 H 658.487 5.95758 -1.3381 0
M  V30 6942 H 659.901 4.72537 -3.24626 0
M  V30 6943 H 658.298 4.47604 -3.99713 0
M  V30 6944 H 659.368 3.08604 -3.74021 0
M  V30 6945 N 660.711 1.11618 1.11262 0
M  V30 6946 C 661.939 0.888739 1.8684 0
M  V30 6947 C 662.354 -0.561558 1.80255 0
M  V30 6948 O 661.711 -1.38782 1.18515 0
M  V30 6949 C 661.762 1.34422 3.35579 0
M  V30 6950 O 661.483 2.73766 3.42029 0
M  V30 6951 C 662.984 1.15246 4.28058 0
M  V30 6952 H 660.204 0.318152 0.590779 0
M  V30 6953 H 662.748 1.48398 1.40707 0
M  V30 6954 H 660.903 0.79239 3.7921 0
M  V30 6955 H 661.317 2.9355 4.34659 0
M  V30 6956 H 662.791 1.52015 5.30656 0
M  V30 6957 H 663.268 0.0922007 4.39103 0
M  V30 6958 H 663.874 1.69136 3.90222 0
M  V30 6959 N 662.189 -1.289 0.906776 0
M  V30 6960 C 663.152 -2.25777 0.394656 0
M  V30 6961 C 664.152 -1.53621 -0.475119 0
M  V30 6962 O 665.342 -1.71949 -0.279165 0
M  V30 6963 C 662.474 -3.38113 -0.43499 0
M  V30 6964 H 663.667 -2.72592 1.25033 0
M  V30 6965 H 661.22 -1.40463 0.685547 0
M  V30 6966 H 661.955 -2.96648 -1.31036 0
M  V30 6967 H 661.74 -3.91647 0.188334 0
M  V30 6968 H 663.23 -4.10168 -0.784365 0
M  V30 6969 N 663.667 -0.670007 -1.42649 0
M  V30 6970 C 664.913 -0.190568 -2.01903 0
M  V30 6971 C 665.246 1.19817 -1.52832 0
M  V30 6972 O 664.521 1.80342 -0.728485 0
M  V30 6973 C 664.804 -0.21991 -3.59428 0
M  V30 6974 C 664.657 -1.64376 -4.18689 0
M  V30 6975 C 665.976 0.434519 -4.3795 0
M  V30 6976 H 663.095 -0.0707219 -0.733599 0
M  V30 6977 H 665.737 -0.853883 -1.69732 0
M  V30 6978 H 663.887 0.344894 -3.86966 0
M  V30 6979 H 665.559 -2.26044 -4.02122 0
M  V30 6980 H 663.802 -2.18591 -3.747 0
M  V30 6981 H 664.473 -1.61601 -5.27815 0
M  V30 6982 H 666.949 -0.0462156 -4.16074 0
M  V30 6983 H 665.825 0.38333 -5.4756 0
M  V30 6984 H 666.086 1.51135 -4.15464 0
M  V30 6985 N 665.145 1.52092 -0.413018 0
M  V30 6986 C 666.108 2.25706 0.398687 0
M  V30 6987 C 667.108 1.28221 0.970368 0
M  V30 6988 O 668.298 1.52131 0.848635 0
M  V30 6989 C 665.43 3.03029 1.5616 0
M  V30 6990 H 666.623 2.98888 -0.246131 0
M  V30 6991 H 664.176 1.5542 -0.165622 0
M  V30 6992 H 664.911 2.34205 2.24317 0
M  V30 6993 H 664.696 3.74606 1.15812 0
M  V30 6994 H 666.186 3.58857 2.13569 0
M  V30 6995 N 666.623 0.143563 1.56945 0
M  V30 6996 C 667.555 -0.828353 2.13708 0
M  V30 6997 C 668.568 -1.21313 1.08568 0
M  V30 6998 O 669.757 -1.1578 1.35857 0
M  V30 6999 C 666.857 -2.12248 2.64204 0
M  V30 7000 C 666.03 -1.90561 3.93707 0
M  V30 7001 C 665.089 -3.03931 4.29549 0
M  V30 7002 O 664.115 -2.75772 4.97934 0
M  V30 7003 N 665.317 -4.31016 3.88852 0
M  V30 7004 H 668.082 -0.343242 2.97728 0
M  V30 7005 H 665.643 -0.0401152 1.6185 0
M  V30 7006 H 667.635 -2.87132 2.85197 0
M  V30 7007 H 666.205 -2.52033 1.84928 0
M  V30 7008 H 665.425 -0.997327 3.81375 0
M  V30 7009 H 666.713 -1.73405 4.78339 0
M  V30 7010 H 666.111 -4.56762 3.33743 0
M  V30 7011 H 664.668 -5.02691 4.14903 0
M  V30 7012 N 668.101 -1.57061 -0.130224 0
M  V30 7013 C 669.034 -1.94698 -1.19029 0
M  V30 7014 C 670.012 -0.815074 -1.40696 0
M  V30 7015 O 671.196 -1.07223 -1.55034 0
M  V30 7016 C 668.323 -2.23352 -2.5462 0
M  V30 7017 C 667.369 -3.45945 -2.49448 0
M  V30 7018 S 668.202 -4.98927 -1.94505 0
M  V30 7019 C 669.358 -5.30721 -3.31792 0
M  V30 7020 H 669.591 -2.84308 -0.869272 0
M  V30 7021 H 667.124 -1.50688 -0.336531 0
M  V30 7022 H 669.082 -2.40539 -3.32643 0
M  V30 7023 H 667.743 -1.34376 -2.83905 0
M  V30 7024 H 666.936 -3.63324 -3.49302 0
M  V30 7025 H 666.538 -3.28086 -1.79543 0
M  V30 7026 H 668.83 -5.25215 -4.27966 0
M  V30 7027 H 669.773 -6.32048 -3.19251 0
M  V30 7028 H 670.181 -4.5821 -3.29703 0
M  V30 7029 N 669.579 0.400081 -1.52437 0
M  V30 7030 C 670.526 1.48803 -1.76426 0
M  V30 7031 C 671.496 1.5461 -0.607032 0
M  V30 7032 O 672.681 1.71041 -0.845563 0
M  V30 7033 C 669.821 2.86156 -1.92896 0
M  V30 7034 C 668.934 2.89587 -3.20567 0
M  V30 7035 C 668.069 4.18296 -3.27417 0
M  V30 7036 C 667.108 4.15736 -4.49255 0
M  V30 7037 N 666.245 5.36032 -4.53447 0
M  V30 7038 H 671.085 1.27649 -2.69276 0
M  V30 7039 H 668.622 0.619451 -1.33421 0
M  V30 7040 H 670.58 3.65901 -2.00429 0
M  V30 7041 H 669.21 3.05785 -1.03418 0
M  V30 7042 H 668.262 2.02278 -3.22161 0
M  V30 7043 H 669.574 2.83562 -4.10358 0
M  V30 7044 H 668.728 5.06439 -3.34072 0
M  V30 7045 H 667.467 4.27028 -2.35581 0
M  V30 7046 H 666.472 3.25982 -4.42737 0
M  V30 7047 H 667.697 4.08636 -5.42396 0
M  V30 7048 H 665.643 5.45415 -3.64498 0
M  V30 7049 H 665.56 5.32038 -5.37096 0
M  V30 7050 H 666.828 6.26104 -4.64343 0
M  V30 7051 N 671.057 1.43213 0.657864 0
M  V30 7052 C 672.468 1.39669 1.23893 0
M  V30 7053 C 672.819 0.0984217 1.95953 0
M  V30 7054 O 671.944 -0.8023 2.00978 0
M  V30 7055 C 672.539 2.53004 2.25332 0
M  V30 7056 C 671.098 2.5274 2.78926 0
M  V30 7057 C 670.245 2.30941 1.53497 0
M  V30 7058 H 673.196 1.52181 0.450172 0
M  V30 7059 H 673.217 2.24226 3.07413 0
M  V30 7060 H 672.729 3.4748 1.72856 0
M  V30 7061 H 670.83 1.6213 3.35477 0
M  V30 7062 H 670.943 3.50352 3.26787 0
M  V30 7063 H 669.307 1.7952 1.80678 0
M  V30 7064 H 670.09 3.27496 1.02963 0
M  V30 7065 N 672.536 -0.895792 1.29666 0
M  V30 7066 C 673.813 -1.62723 1.08538 0
M  V30 7067 C 674.193 -2.07848 -0.369119 0
M  V30 7068 O 673.541 -1.8372 -1.35864 0
M  V30 7069 C 673.751 -2.80505 2.07648 0
M  V30 7070 C 675.099 -3.51098 2.3878 0
M  V30 7071 O 676.123 -2.90679 2.05874 0
M  V30 7072 O 674.982 -4.60028 2.9502 0
M  V30 7073 H 672.076 -0.714692 0.416106 0
M  V30 7074 H 674.622 -0.943517 1.41053 0
M  V30 7075 H 673.394 -2.44386 3.05599 0
M  V30 7076 H 673.017 -3.5658 1.75887 0
M  V30 7077 N 674.014 -1.12206 -1.10668 0
M  V30 7078 C 675.239 -0.898938 -1.86906 0
M  V30 7079 C 675.664 0.546346 -1.79991 0
M  V30 7080 O 675.022 1.38655 -1.1681 0
M  V30 7081 C 675.07 -1.37529 -3.33344 0
M  V30 7082 O 674.174 -0.55218 -4.08687 0
M  V30 7083 H 673.515 -0.323163 -0.580053 0
M  V30 7084 H 676.045 -1.49355 -1.39837 0
M  V30 7085 H 676.055 -1.3733 -3.84193 0
M  V30 7086 H 674.73 -2.42767 -3.37693 0
M  V30 7087 H 673.307 -0.620947 -3.67694 0
M  V30 7088 N 675.492 1.28418 -0.913599 0
M  V30 7089 C 676.74 1.94596 -0.545594 0
M  V30 7090 C 677.061 1.7227 0.913668 0
M  V30 7091 O 676.331 1.06233 1.64595 0
M  V30 7092 H 674.911 0.720065 -0.198783 0
M  V30 7093 H 677.573 1.56404 -1.16292 0
M  V30 7094 H 676.669 3.03202 -0.739911 0
M  V30 7095 N 676.97 0.677563 1.42291 0
M  V30 7096 C 677.933 0.0101085 2.29198 0
M  V30 7097 C 678.933 -0.726219 1.43467 0
M  V30 7098 O 680.123 -0.563807 1.64824 0
M  V30 7099 C 677.255 -0.996316 3.26016 0
M  V30 7100 H 678.448 0.775071 2.89711 0
M  V30 7101 H 676.001 0.440065 1.49977 0
M  V30 7102 H 676.736 -1.78967 2.70446 0
M  V30 7103 H 676.521 -0.471687 3.89253 0
M  V30 7104 H 678.011 -1.46167 3.91184 0
M  V30 7105 N 678.448 -1.51871 0.421078 0
M  V30 7106 C 679.678 -2.06057 -0.149723 0
M  V30 7107 C 680.086 -1.29002 -1.38402 0
M  V30 7108 O 679.429 -0.338385 -1.80556 0
M  V30 7109 C 679.491 -3.55216 -0.553339 0
M  V30 7110 C 679.155 -4.53408 0.571879 0
M  V30 7111 C 680.152 -4.99586 1.4391 0
M  V30 7112 C 677.837 -4.967 0.747979 0
M  V30 7113 C 679.831 -5.87711 2.46727 0
M  V30 7114 C 677.518 -5.84619 1.77944 0
M  V30 7115 C 678.516 -6.30021 2.63748 0
M  V30 7116 O 678.204 -7.16197 3.65126 0
M  V30 7117 H 677.936 -0.675744 -0.0186102 0
M  V30 7118 H 680.49 -1.96618 0.594166 0
M  V30 7119 H 678.72 -3.62381 -1.34969 0
M  V30 7120 H 680.409 -3.91992 -1.05342 0
M  V30 7121 H 681.175 -4.66846 1.31451 0
M  V30 7122 H 677.054 -4.60913 0.0897357 0
M  V30 7123 H 680.598 -6.2307 3.13734 0
M  V30 7124 H 676.495 -6.16771 1.90429 0
M  V30 7125 H 677.263 -7.34337 3.61512 0
M  V30 7126 N 679.926 -0.151884 -1.56866 0
M  V30 7127 C 681.337 0.368128 -1.83035 0
M  V30 7128 C 681.688 1.64402 -1.07082 0
M  V30 7129 O 680.813 2.14056 -0.317647 0
M  V30 7130 C 681.408 0.674676 -3.32014 0
M  V30 7131 C 679.967 1.13919 -3.58747 0
M  V30 7132 C 679.114 0.164833 -2.7681 0
M  V30 7133 H 682.065 -0.376499 -1.54169 0
M  V30 7134 H 682.086 1.52883 -3.48435 0
M  V30 7135 H 681.598 -0.254113 -3.87267 0
M  V30 7136 H 679.699 2.08375 -3.08886 0
M  V30 7137 H 679.812 1.06179 -4.67186 0
M  V30 7138 H 678.176 0.658419 -2.46043 0
M  V30 7139 H 678.959 -0.757633 -3.34836 0
M  V30 7140 N 681.404 1.57128 0.121893 0
M  V30 7141 C 682.336 1.96773 1.17529 0
M  V30 7142 C 683.349 0.866668 1.37814 0
M  V30 7143 O 684.538 1.14497 1.3694 0
M  V30 7144 C 681.638 2.24832 2.53582 0
M  V30 7145 C 680.811 3.56138 2.53939 0
M  V30 7146 C 679.87 3.72443 3.71716 0
M  V30 7147 O 678.896 4.44584 3.55434 0
M  V30 7148 N 680.098 3.10993 4.90167 0
M  V30 7149 H 682.863 2.87743 0.838086 0
M  V30 7150 H 680.424 1.58881 0.311199 0
M  V30 7151 H 682.416 2.32958 3.30927 0
M  V30 7152 H 680.986 1.40002 2.79496 0
M  V30 7153 H 680.206 3.59226 1.62329 0
M  V30 7154 H 681.494 4.42448 2.51231 0
M  V30 7155 H 680.892 2.52345 5.06299 0
M  V30 7156 H 679.449 3.24644 5.65198 0
M  V30 7157 N 682.882 -0.391992 1.52647 0
M  V30 7158 C 684.129 -1.13732 1.67545 0
M  V30 7159 C 684.457 -1.90045 0.413881 0
M  V30 7160 O 683.712 -1.86157 -0.603646 0
M  V30 7161 C 684.011 -2.14401 2.85949 0
M  V30 7162 C 683.677 -1.54767 4.23507 0
M  V30 7163 C 682.339 -1.38229 4.60919 0
M  V30 7164 C 684.691 -1.11382 5.0916 0
M  V30 7165 C 682.019 -0.7685 5.81645 0
M  V30 7166 C 684.371 -0.514143 6.30507 0
M  V30 7167 C 683.035 -0.33604 6.66654 0
M  V30 7168 H 682.305 -0.416174 0.613091 0
M  V30 7169 H 684.952 -0.422327 1.86785 0
M  V30 7170 H 683.257 -2.92108 2.61114 0
M  V30 7171 H 684.954 -2.71974 2.94671 0
M  V30 7172 H 681.544 -1.68626 3.94035 0
M  V30 7173 H 685.728 -1.22962 4.80826 0
M  V30 7174 H 680.984 -0.618681 6.08262 0
M  V30 7175 H 685.158 -0.169657 6.96193 0
M  V30 7176 H 682.785 0.14166 7.60068 0
M  V30 7177 N 684.36 -1.4356 -0.65026 0
M  V30 7178 C 685.323 -1.48615 -1.74489 0
M  V30 7179 C 686.323 -0.370483 -1.56474 0
M  V30 7180 O 687.513 -0.632351 -1.62317 0
M  V30 7181 C 684.645 -1.34161 -3.13391 0
M  V30 7182 H 685.838 -2.46103 -1.71387 0
M  V30 7183 H 683.391 -1.30369 -0.862186 0
M  V30 7184 H 684.126 -0.376918 -3.22102 0
M  V30 7185 H 683.911 -2.1504 -3.27872 0
M  V30 7186 H 685.401 -1.40637 -3.93206 0
M  V30 7187 N 685.838 0.888903 -1.30139 0
M  V30 7188 C 686.786 2.0156 -1.16088 0
M  V30 7189 C 687.78 1.69239 -0.0737413 0
M  V30 7190 O 688.986 1.78468 -0.234313 0
M  V30 7191 H 685.361 0.660825 -0.358907 0
M  V30 7192 H 687.332 2.10547 -2.11453 0
M  V30 7193 C 686.081 3.36758 -0.865426 0
M  V30 7194 H 685.404 3.62137 -1.69402 0
M  V30 7195 H 686.844 4.16246 -0.807192 0
M  V30 7196 C 685.303 3.34124 0.431577 0
M  V30 7197 O 685.833 3.7445 1.45431 0
M  V30 7198 N 684.039 2.87229 0.441321 0
M  V30 7199 H 683.586 2.54609 -0.391433 0
M  V30 7200 H 683.544 2.8585 1.30909 0
M  V30 7201 N 687.317 1.12792 1.10072 0
M  V30 7202 C 688.563 0.886857 1.82381 0
M  V30 7203 C 688.896 -0.58576 1.85155 0
M  V30 7204 O 688.171 -1.43317 1.31493 0
M  V30 7205 C 688.454 1.46703 3.28862 0
M  V30 7206 C 688.307 3.00829 3.34398 0
M  V30 7207 C 689.626 1.12971 4.25353 0
M  V30 7208 H 686.745 0.32362 0.662148 0
M  V30 7209 H 689.387 1.39513 1.28982 0
M  V30 7210 H 687.537 1.03476 3.74466 0
M  V30 7211 H 689.209 3.52764 2.97247 0
M  V30 7212 H 687.452 3.36164 2.74183 0
M  V30 7213 H 688.123 3.36519 4.3756 0
M  V30 7214 H 690.599 1.50313 3.88001 0
M  V30 7215 H 689.475 1.56223 5.26199 0
M  V30 7216 H 689.736 0.0424452 4.4208 0
M  V30 7217 N 688.795 -1.27931 0.920396 0
M  V30 7218 C 690.02 -1.99343 0.572478 0
M  V30 7219 C 690.445 -1.68267 -0.840696 0
M  V30 7220 O 689.803 -0.918805 -1.56294 0
M  V30 7221 C 689.851 -3.51698 0.796284 0
M  V30 7222 O 688.955 -4.12157 -0.141602 0
M  V30 7223 H 688.296 -0.626065 0.221221 0
M  V30 7224 H 690.826 -1.62921 1.23765 0
M  V30 7225 H 690.836 -4.01793 0.708984 0
M  V30 7226 H 689.511 -3.73649 1.82644 0
M  V30 7227 H 688.088 -3.729 -0.005007 0
M  V30 7228 N 690.273 -0.685099 -1.4193 0
M  V30 7229 C 691.52 -0.211658 -2.01391 0
M  V30 7230 C 691.848 1.18526 -1.54214 0
M  V30 7231 O 691.103 1.81189 -0.739519 0
M  V30 7232 C 691.402 -0.206154 -3.56805 0
M  V30 7233 C 691.068 -1.54915 -4.23453 0
M  V30 7234 C 689.73 -1.91684 -4.41373 0
M  V30 7235 C 692.082 -2.43317 -4.60919 0
M  V30 7236 C 689.41 -3.16461 -4.94034 0
M  V30 7237 C 691.762 -3.67415 -5.14965 0
M  V30 7238 C 690.426 -4.04341 -5.31098 0
M  V30 7239 H 689.696 -0.0774511 -0.736941 0
M  V30 7240 H 692.343 -0.882121 -1.69973 0
M  V30 7241 H 690.648 0.547841 -3.87951 0
M  V30 7242 H 692.345 0.17753 -4.00607 0
M  V30 7243 H 688.935 -1.25314 -4.09871 0
M  V30 7244 H 693.119 -2.16192 -4.46738 0
M  V30 7245 H 688.375 -3.45078 -5.04709 0
M  V30 7246 H 692.549 -4.3611 -5.42938 0
M  V30 7247 H 690.176 -5.01101 -5.71666 0
M  V30 7248 N 691.751 1.51645 -0.429126 0
M  V30 7249 C 692.997 2.02314 0.140286 0
M  V30 7250 C 693.33 1.31314 1.43074 0
M  V30 7251 O 692.605 0.425531 1.89788 0
M  V30 7252 C 692.888 3.5822 0.36749 0
M  V30 7253 C 692.741 4.39846 -0.941039 0
M  V30 7254 C 694.06 4.25055 1.14089 0
M  V30 7255 H 691.179 0.735335 0.0495112 0
M  V30 7256 H 693.821 1.81358 -0.566514 0
M  V30 7257 H 691.971 3.76207 0.969556 0
M  V30 7258 H 693.643 4.33527 -1.57646 0
M  V30 7259 H 691.886 4.05259 -1.54751 0
M  V30 7260 H 692.557 5.47069 -0.73621 0
M  V30 7261 H 695.033 4.11288 0.630986 0
M  V30 7262 H 693.909 5.34038 1.26863 0
M  V30 7263 H 694.17 3.85358 2.16683 0
M  V30 7264 N 693.229 0.160201 1.56784 0
M  V30 7265 C 694.192 -0.760405 2.16219 0
M  V30 7266 C 695.192 -1.16595 1.10735 0
M  V30 7267 O 696.382 -1.08472 1.36306 0
M  V30 7268 C 693.514 -2.03358 2.73603 0
M  V30 7269 H 694.707 -0.243173 2.98912 0
M  V30 7270 H 692.26 -0.0893139 1.56045 0
M  V30 7271 H 692.995 -2.59416 1.94612 0
M  V30 7272 H 692.78 -1.75186 3.50788 0
M  V30 7273 H 694.27 -2.69081 3.19351 0
M  V30 7274 N 694.707 -1.5719 -0.113559 0
M  V30 7275 C 695.654 -2.00736 -1.13901 0
M  V30 7276 C 696.624 -0.88044 -1.40846 0
M  V30 7277 O 697.809 -1.14507 -1.5262 0
M  V30 7278 C 694.949 -2.42132 -2.45899 0
M  V30 7279 C 694.062 -3.68264 -2.25844 0
M  V30 7280 C 693.197 -3.98617 -3.5111 0
M  V30 7281 C 692.236 -5.17915 -3.26236 0
M  V30 7282 N 691.373 -5.44111 -4.4372 0
M  V30 7283 H 696.213 -2.88128 -0.760677 0
M  V30 7284 H 693.75 -1.42523 -0.364099 0
M  V30 7285 H 695.708 -2.6417 -3.22908 0
M  V30 7286 H 694.338 -1.57775 -2.81615 0
M  V30 7287 H 693.39 -3.53809 -1.39726 0
M  V30 7288 H 694.702 -4.55425 -2.03444 0
M  V30 7289 H 693.856 -4.21333 -4.36536 0
M  V30 7290 H 692.595 -3.09942 -3.76546 0
M  V30 7291 H 691.6 -4.95038 -2.39202 0
M  V30 7292 H 692.825 -6.08172 -3.02165 0
M  V30 7293 H 690.771 -4.58394 -4.69266 0
M  V30 7294 H 690.688 -6.25606 -4.24444 0
M  V30 7295 H 691.956 -5.71351 -5.30263 0
M  V30 7296 N 696.185 0.383891 -1.52853 0
M  V30 7297 C 697.462 1.14296 -1.58732 0
M  V30 7298 C 697.842 2.07585 -0.383611 0
M  V30 7299 O 697.19 2.1971 0.627661 0
M  V30 7300 C 697.4 1.89816 -2.92867 0
M  V30 7301 C 698.748 2.44998 -3.46787 0
M  V30 7302 O 699.772 1.99966 -2.94774 0
M  V30 7303 O 698.631 3.2727 -4.37672 0
M  V30 7304 H 695.725 0.52326 -0.640413 0
M  V30 7305 H 698.271 0.388631 -1.6519 0
M  V30 7306 H 697.043 1.21626 -3.71918 0
M  V30 7307 H 696.666 2.72199 -2.89816 0
M  V30 7308 N 697.663 1.43903 0.642637 0
M  V30 7309 C 698.911 1.45791 1.39962 0
M  V30 7310 C 699.232 0.0873144 1.94804 0
M  V30 7311 O 698.502 -0.878825 1.75081 0
M  V30 7312 H 697.082 0.536797 0.519479 0
M  V30 7313 H 699.744 1.7959 0.757189 0
M  V30 7314 H 698.84 2.17665 2.2367 0
M  V30 7315 N 699.141 -0.881989 1.30609 0
M  V30 7316 C 700.088 -1.98803 1.17244 0
M  V30 7317 C 701.058 -1.65987 0.0611905 0
M  V30 7318 O 702.243 -1.89385 0.231911 0
M  V30 7319 C 699.383 -3.33867 0.87333 0
M  V30 7320 C 698.496 -3.79354 2.06675 0
M  V30 7321 C 697.631 -5.03078 1.70547 0
M  V30 7322 C 696.67 -5.40981 2.86366 0
M  V30 7323 N 695.807 -6.55886 2.50514 0
M  V30 7324 H 700.647 -2.09566 2.11863 0
M  V30 7325 H 698.184 -1.02607 1.05405 0
M  V30 7326 H 700.142 -4.11612 0.680519 0
M  V30 7327 H 698.772 -3.2278 -0.0359983 0
M  V30 7328 H 697.824 -2.97492 2.37071 0
M  V30 7329 H 699.136 -4.03382 2.93401 0
M  V30 7330 H 698.29 -5.88457 1.47658 0
M  V30 7331 H 697.029 -4.80927 0.809947 0
M  V30 7332 H 696.034 -4.54127 3.09917 0
M  V30 7333 H 697.259 -5.65104 3.76609 0
M  V30 7334 H 695.205 -6.35306 1.63471 0
M  V30 7335 H 695.122 -6.79799 3.30771 0
M  V30 7336 H 696.39 -7.44489 2.30989 0
M  V30 7337 N 700.619 -1.13374 -1.09472 0
M  V30 7338 C 701.549 -0.833268 -2.18126 0
M  V30 7339 C 702.53 0.207169 -1.68834 0
M  V30 7340 O 703.715 0.0662012 -1.94087 0
M  V30 7341 C 700.845 -0.297979 -3.46019 0
M  V30 7342 C 699.799 -1.27261 -4.08642 0
M  V30 7343 C 699.125 -0.597104 -5.31356 0
M  V30 7344 C 700.425 -2.63095 -4.51197 0
M  V30 7345 H 702.119 -1.74182 -2.43518 0
M  V30 7346 H 699.665 -0.838921 -1.17039 0
M  V30 7347 H 701.618 -0.0754444 -4.21332 0
M  V30 7348 H 700.342 0.645959 -3.20148 0
M  V30 7349 H 699.001 -1.48113 -3.35348 0
M  V30 7350 H 698.649 0.352293 -5.01765 0
M  V30 7351 H 698.349 -1.24734 -5.74208 0
M  V30 7352 H 699.873 -0.38384 -6.09392 0
M  V30 7353 H 701.287 -2.46214 -5.17737 0
M  V30 7354 H 699.684 -3.2429 -5.04932 0
M  V30 7355 H 700.754 -3.20793 -3.6362 0
M  V30 7356 N 702.098 1.27442 -0.927168 0
M  V30 7357 C 703.046 2.28844 -0.416333 0
M  V30 7358 C 704.04 1.61882 0.499057 0
M  V30 7359 O 705.246 1.75969 0.378817 0
M  V30 7360 H 701.621 0.742989 -0.116065 0
M  V30 7361 H 703.592 2.69344 -1.28438 0
M  V30 7362 C 702.341 3.4626 0.316107 0
M  V30 7363 H 701.664 3.97999 -0.379082 0
M  V30 7364 H 703.104 4.19173 0.637975 0
M  V30 7365 C 701.563 3.00211 1.5289 0
M  V30 7366 O 702.093 3.03837 2.62766 0
M  V30 7367 N 700.299 2.55713 1.38054 0
M  V30 7368 H 699.846 2.52962 0.4866 0
M  V30 7369 H 699.804 2.25264 2.19325 0
M  V30 7370 N 703.576 0.692616 1.41565 0
M  V30 7371 C 704.853 0.150496 1.9502 0
M  V30 7372 C 705.233 -1.33881 1.63215 0
M  V30 7373 O 704.581 -2.08378 0.937598 0
M  V30 7374 C 704.791 0.438636 3.46233 0
M  V30 7375 C 706.139 0.364777 4.2303 0
M  V30 7376 O 707.163 0.373383 3.54238 0
M  V30 7377 O 706.022 0.32234 5.45549 0
M  V30 7378 H 703.116 0.0132454 0.826894 0
M  V30 7379 H 705.662 0.768574 1.51298 0
M  V30 7380 H 704.434 1.46962 3.62654 0
M  V30 7381 H 704.057 -0.210562 3.97042 0
M  V30 7382 N 705.054 -1.51416 0.437162 0
M  V30 7383 C 705.984 -2.30631 -0.364922 0
M  V30 7384 C 706.965 -1.36037 -1.02118 0
M  V30 7385 O 708.15 -1.64956 -1.02485 0
M  V30 7386 C 705.28 -3.1482 -1.46648 0
M  V30 7387 C 704.234 -4.17691 -0.933717 0
M  V30 7388 C 703.56 -4.904 -2.13101 0
M  V30 7389 C 704.86 -5.2229 0.0317201 0
M  V30 7390 H 706.554 -2.97932 0.29614 0
M  V30 7391 H 704.1 -1.4328 0.143865 0
M  V30 7392 H 706.053 -3.69017 -2.03481 0
M  V30 7393 H 704.777 -2.4534 -2.15583 0
M  V30 7394 H 703.436 -3.64545 -0.387602 0
M  V30 7395 H 703.084 -4.17423 -2.80654 0
M  V30 7396 H 702.784 -5.59962 -1.78092 0
M  V30 7397 H 704.308 -5.4742 -2.70487 0
M  V30 7398 H 705.722 -5.7156 -0.446302 0
M  V30 7399 H 704.119 -5.99378 0.29437 0
M  V30 7400 H 705.189 -4.75131 0.968447 0
M  V30 7401 N 706.532 -0.168513 -1.56696 0
M  V30 7402 C 707.479 0.762875 -2.17828 0
M  V30 7403 C 708.449 1.22892 -1.11745 0
M  V30 7404 O 709.634 1.29759 -1.39883 0
M  V30 7405 C 706.774 1.9879 -2.82093 0
M  V30 7406 C 705.887 1.56568 -4.02629 0
M  V30 7407 C 705.022 2.74416 -4.54829 0
M  V30 7408 C 704.061 2.28671 -5.67782 0
M  V30 7409 N 703.198 3.39602 -6.14504 0
M  V30 7410 H 708.038 0.23479 -2.97074 0
M  V30 7411 H 705.575 0.104163 -1.46731 0
M  V30 7412 H 707.533 2.70636 -3.17509 0
M  V30 7413 H 706.163 2.48973 -2.05456 0
M  V30 7414 H 705.215 0.744067 -3.73052 0
M  V30 7415 H 706.527 1.18988 -4.844 0
M  V30 7416 H 705.681 3.54423 -4.92412 0
M  V30 7417 H 704.42 3.15254 -3.7211 0
M  V30 7418 H 703.425 1.4711 -5.29753 0
M  V30 7419 H 704.65 1.88894 -6.52301 0
M  V30 7420 H 702.596 3.80021 -5.34715 0
M  V30 7421 H 702.513 3.06105 -6.91257 0
M  V30 7422 H 703.781 4.19902 -6.56737 0
M  V30 7423 N 708.01 1.57248 0.105221 0
M  V30 7424 C 709.259 1.84756 0.809198 0
M  V30 7425 C 709.572 0.756262 1.80389 0
M  V30 7426 O 710.778 0.918158 2.55504 0
M  V30 7427 C 709.234 3.27613 1.48989 0
M  V30 7428 C 708.842 4.44788 0.535484 0
M  V30 7429 C 710.586 3.64356 2.17819 0
M  V30 7430 C 708.493 5.78676 1.22019 0
M  V30 7431 H 707.423 0.689139 0.305946 0
M  V30 7432 H 710.074 1.83395 0.0620371 0
M  V30 7433 H 708.456 3.23485 2.28415 0
M  V30 7434 H 709.63 4.60243 -0.226557 0
M  V30 7435 H 707.945 4.16374 -0.0465769 0
M  V30 7436 H 710.542 4.61663 2.69761 0
M  V30 7437 H 710.885 2.92474 2.96251 0
M  V30 7438 H 711.418 3.70328 1.45264 0
M  V30 7439 H 708.157 6.53763 0.476875 0
M  V30 7440 H 707.677 5.67083 1.9539 0
M  V30 7441 H 709.356 6.22897 1.74952 0
M  V30 7442 N 709.488 -0.375779 1.53054 0
M  V30 7443 C 710.435 -1.45978 1.78771 0
M  V30 7444 C 711.405 -1.53625 0.631552 0
M  V30 7445 O 712.59 -1.69674 0.872667 0
M  V30 7446 C 709.73 -2.8305 1.97425 0
M  V30 7447 C 708.843 -2.84451 3.25134 0
M  V30 7448 C 707.978 -4.13034 3.34031 0
M  V30 7449 C 707.017 -4.08536 4.55812 0
M  V30 7450 N 706.154 -5.2875 4.61918 0
M  V30 7451 H 710.994 -1.23349 2.71273 0
M  V30 7452 H 708.531 -0.598147 1.3439 0
M  V30 7453 H 710.489 -3.62666 2.06225 0
M  V30 7454 H 709.119 -3.04101 1.0827 0
M  V30 7455 H 708.171 -1.97127 3.25338 0
M  V30 7456 H 709.483 -2.76998 4.14818 0
M  V30 7457 H 708.637 -5.0106 3.42087 0
M  V30 7458 H 707.376 -4.23226 2.42345 0
M  V30 7459 H 706.381 -3.18897 4.47867 0
M  V30 7460 H 707.606 -3.99955 5.48828 0
M  V30 7461 H 705.552 -5.39547 3.73129 0
M  V30 7462 H 705.469 -5.23426 5.45492 0
M  V30 7463 H 706.737 -6.18637 4.74245 0
M  V30 7464 N 710.966 -1.44241 -0.634997 0
M  V30 7465 C 712.214 -1.46531 -1.39187 0
M  V30 7466 C 712.535 -0.0976441 -1.94755 0
M  V30 7467 O 711.805 0.869528 -1.75545 0
M  V30 7468 H 710.385 -0.539544 -0.516625 0
M  V30 7469 H 713.047 -1.79989 -0.747655 0
M  V30 7470 H 712.143 -2.18848 -2.22513 0
M  V30 7471 N 712.444 0.87505 -1.31075 0
M  V30 7472 C 713.354 2.01441 -1.20244 0
M  V30 7473 C 714.37 1.73584 -0.120227 0
M  V30 7474 O 715.546 1.98559 -0.337063 0
M  V30 7475 C 712.611 3.34675 -0.905199 0
M  V30 7476 C 711.672 3.75889 -2.0738 0
M  V30 7477 C 710.905 5.02764 -1.79064 0
M  V30 7478 O 711.128 5.65795 -0.723318 0
M  V30 7479 O 710.062 5.40623 -2.64594 0
M  V30 7480 H 713.888 2.13509 -2.1598 0
M  V30 7481 H 711.473 1.00257 -1.10765 0
M  V30 7482 H 713.355 4.1458 -0.755057 0
M  V30 7483 H 712.03 3.23692 0.0221695 0
M  V30 7484 H 710.937 2.96645 -2.27931 0
M  V30 7485 H 712.27 3.91489 -2.98324 0
M  V30 7486 N 713.922 1.13953 1.08869 0
M  V30 7487 C 715.333 0.916649 1.62648 0
M  V30 7488 C 715.684 -0.545589 1.88462 0
M  V30 7489 O 714.809 -1.41351 1.63856 0
M  V30 7490 C 715.404 1.65751 2.95486 0
M  V30 7491 C 713.963 1.48034 3.46068 0
M  V30 7492 C 713.11 1.68305 2.20383 0
M  V30 7493 H 716.061 1.292 0.921572 0
M  V30 7494 H 716.082 1.11794 3.63707 0
M  V30 7495 H 715.594 2.72171 2.76667 0
M  V30 7496 H 713.695 0.439416 3.7 0
M  V30 7497 H 713.808 2.24719 4.23129 0
M  V30 7498 H 712.172 1.10833 2.29321 0
M  V30 7499 H 712.955 2.76057 2.04077 0
M  V30 7500 N 715.4 -1.26948 0.933913 0
M  V30 7501 C 716.646 -1.94374 0.57848 0
M  V30 7502 C 716.979 -1.73166 -0.879048 0
M  V30 7503 O 716.254 -1.06438 -1.62792 0
M  V30 7504 C 716.537 -3.4834 0.912739 0
M  V30 7505 C 716.39 -3.78866 2.42448 0
M  V30 7506 C 717.709 -4.38062 0.423003 0
M  V30 7507 H 714.828 -0.705959 0.211639 0
M  V30 7508 H 717.47 -1.49951 1.16682 0
M  V30 7509 H 715.62 -3.86309 0.412058 0
M  V30 7510 H 717.292 -3.50654 2.99733 0
M  V30 7511 H 715.535 -3.25198 2.87104 0
M  V30 7512 H 716.206 -4.86458 2.60887 0
M  V30 7513 H 718.682 -4.0728 0.852191 0
M  V30 7514 H 717.558 -5.44599 0.685776 0
M  V30 7515 H 717.819 -4.36886 -0.676994 0
M  V30 7516 N 716.879 -0.700114 -1.41195 0
M  V30 7517 C 718.156 -0.160836 -1.94938 0
M  V30 7518 C 718.536 1.33014 -1.63922 0
M  V30 7519 O 717.884 2.07878 -0.948636 0
M  V30 7520 C 718.094 -0.456991 -3.45995 0
M  V30 7521 C 719.442 -0.387207 -4.22831 0
M  V30 7522 O 720.466 -0.392164 -3.54035 0
M  V30 7523 O 719.325 -0.351267 -5.4537 0
M  V30 7524 H 716.419 -0.0176304 -0.826812 0
M  V30 7525 H 718.965 -0.776586 -1.50888 0
M  V30 7526 H 717.737 -1.48884 -3.61869 0
M  V30 7527 H 717.36 0.189503 -3.97148 0
M  V30 7528 N 718.357 1.51182 -0.445186 0
M  V30 7529 C 719.768 1.86693 0.0160999 0
M  V30 7530 C 720.119 1.36183 1.4124 0
M  V30 7531 O 719.244 0.715895 2.04215 0
M  V30 7532 C 719.839 3.38781 0.0359918 0
M  V30 7533 C 718.398 3.73799 0.441715 0
M  V30 7534 C 717.545 2.74947 -0.360511 0
M  V30 7535 H 720.496 1.44294 -0.660674 0
M  V30 7536 H 720.517 3.71026 0.843813 0
M  V30 7537 H 720.029 3.75513 -0.980378 0
M  V30 7538 H 718.13 3.42659 1.4634 0
M  V30 7539 H 718.243 4.78829 0.16106 0
M  V30 7540 H 716.607 2.54047 0.182269 0
M  V30 7541 H 717.39 3.14521 -1.3759 0
M  V30 7542 N 719.835 0.176821 1.56605 0
M  V30 7543 C 720.798 -0.737429 2.17013 0
M  V30 7544 C 721.798 -1.15414 1.11965 0
M  V30 7545 O 722.988 -1.0702 1.37449 0
M  V30 7546 C 720.12 -2.00445 2.75744 0
M  V30 7547 H 721.313 -0.211455 2.99154 0
M  V30 7548 H 718.866 -0.0727582 1.56131 0
M  V30 7549 H 719.601 -2.57338 1.97352 0
M  V30 7550 H 719.386 -1.71456 3.52626 0
M  V30 7551 H 720.876 -2.65679 3.22187 0
M  V30 7552 N 721.313 -1.57302 -0.09688 0
M  V30 7553 C 722.26 -2.01933 -1.11766 0
M  V30 7554 C 723.23 -0.895329 -1.39904 0
M  V30 7555 O 724.415 -1.16119 -1.51397 0
M  V30 7556 C 721.555 -2.44726 -2.43317 0
M  V30 7557 C 720.668 -3.70639 -2.21925 0
M  V30 7558 C 719.803 -4.02318 -3.46862 0
M  V30 7559 C 718.842 -5.21346 -3.20725 0
M  V30 7560 N 717.979 -5.48787 -4.37924 0
M  V30 7561 H 722.819 -2.88919 -0.730075 0
M  V30 7562 H 720.356 -1.42901 -0.348962 0
M  V30 7563 H 722.314 -2.6758 -3.20088 0
M  V30 7564 H 720.944 -1.60753 -2.79926 0
M  V30 7565 H 719.996 -3.55271 -1.35965 0
M  V30 7566 H 721.308 -4.57557 -1.98603 0
M  V30 7567 H 720.462 -4.25939 -4.32042 0
M  V30 7568 H 719.201 -3.13918 -3.73238 0
M  V30 7569 H 718.206 -4.97547 -2.33938 0
M  V30 7570 H 719.431 -6.11343 -2.95697 0
M  V30 7571 H 717.377 -4.63346 -4.64378 0
M  V30 7572 H 717.294 -6.30073 -4.17785 0
M  V30 7573 H 718.562 -5.76943 -5.24173 0
M  V30 7574 N 722.791 0.367657 -1.53252 0
M  V30 7575 C 724.019 1.13119 -1.73239 0
M  V30 7576 C 724.434 1.831 -0.460404 0
M  V30 7577 O 723.791 1.73483 0.566557 0
M  V30 7578 C 723.842 2.16308 -2.89643 0
M  V30 7579 O 723.563 1.49175 -4.1192 0
M  V30 7580 C 725.064 3.05224 -3.21486 0
M  V30 7581 H 722.284 0.338318 -0.579467 0
M  V30 7582 H 724.828 0.42721 -1.99988 0
M  V30 7583 H 722.983 2.82307 -2.65295 0
M  V30 7584 H 723.397 2.17912 -4.7709 0
M  V30 7585 H 724.871 3.73613 -4.06346 0
M  V30 7586 H 725.348 3.69919 -2.36763 0
M  V30 7587 H 725.954 2.44843 -3.47753 0
M  V30 7588 N 724.269 1.44576 0.627338 0
M  V30 7589 C 725.499 1.50829 1.41189 0
M  V30 7590 C 725.907 0.133083 1.88731 0
M  V30 7591 O 725.25 -0.87199 1.61685 0
M  V30 7592 C 725.312 2.41449 2.66351 0
M  V30 7593 C 724.976 3.88549 2.40579 0
M  V30 7594 C 725.973 4.78981 2.0217 0
M  V30 7595 C 723.658 4.33287 2.54102 0
M  V30 7596 C 725.652 6.12153 1.77618 0
M  V30 7597 C 723.339 5.66505 2.29163 0
M  V30 7598 C 724.337 6.55756 1.9098 0
M  V30 7599 O 724.025 7.86506 1.66321 0
M  V30 7600 H 723.757 0.513797 0.439304 0
M  V30 7601 H 726.311 1.90256 0.774059 0
M  V30 7602 H 724.541 1.96955 3.32784 0
M  V30 7603 H 726.23 2.38608 3.28361 0
M  V30 7604 H 726.996 4.45689 1.91277 0
M  V30 7605 H 722.875 3.64074 2.82792 0
M  V30 7606 H 726.419 6.81776 1.47739 0
M  V30 7607 H 722.316 5.99358 2.39668 0
M  V30 7608 H 723.084 7.98341 1.80536 0
M  V30 7609 N 725.747 -0.868086 1.31537 0
M  V30 7610 C 727.163 -1.15414 1.10235 0
M  V30 7611 C 727.363 -2.01106 -0.125947 0
M  V30 7612 O 726.419 -2.38994 -0.814734 0
M  V30 7613 C 727.732 -1.84445 2.37488 0
M  V30 7614 C 729.28 -1.97139 2.43116 0
M  V30 7615 C 729.755 -2.69585 3.70254 0
M  V30 7616 N 731.246 -2.77119 3.71159 0
M  V30 7617 C 731.981 -3.33791 4.6623 0
M  V30 7618 N 731.477 -3.9138 5.71659 0
M  V30 7619 N 733.27 -3.31767 4.53747 0
M  V30 7620 H 725.421 -0.297109 2.10312 0
M  V30 7621 H 727.684 -0.194227 0.92789 0
M  V30 7622 H 727.39 -1.2893 3.27215 0
M  V30 7623 H 727.264 -2.84709 2.47428 0
M  V30 7624 H 729.651 -2.51818 1.53856 0
M  V30 7625 H 729.732 -0.95912 2.37138 0
M  V30 7626 H 729.376 -2.15572 4.59881 0
M  V30 7627 H 729.306 -3.71223 3.73499 0
M  V30 7628 H 731.797 -2.3625 2.94948 0
M  V30 7629 H 732.11 -4.3274 6.40278 0
M  V30 7630 H 730.455 -3.8975 5.7543 0
M  V30 7631 H 733.646 -2.86016 3.70557 0
M  V30 7632 H 733.819 -3.75636 5.28017 0
M  V30 7633 N 727.225 -1.14528 -1.08264 0
M  V30 7634 C 728.158 -0.777154 -2.14559 0
M  V30 7635 C 729.136 0.242165 -1.60787 0
M  V30 7636 O 730.32 0.130882 -1.88045 0
M  V30 7637 C 727.447 -0.154092 -3.38349 0
M  V30 7638 C 726.493 -1.14382 -4.10876 0
M  V30 7639 S 727.326 -2.68173 -4.63512 0
M  V30 7640 C 728.482 -2.0726 -5.90588 0
M  V30 7641 H 728.715 -1.67748 -2.45454 0
M  V30 7642 H 726.248 -0.966661 -1.20395 0
M  V30 7643 H 728.206 0.19897 -4.10018 0
M  V30 7644 H 726.867 0.723688 -3.05649 0
M  V30 7645 H 726.06 -0.655908 -4.99714 0
M  V30 7646 H 725.662 -1.44095 -3.45127 0
M  V30 7647 H 727.954 -1.42895 -6.62259 0
M  V30 7648 H 728.897 -2.94227 -6.44078 0
M  V30 7649 H 729.305 -1.51935 -5.43669 0
M  V30 7650 N 728.703 1.26451 -0.940633 0
M  V30 7651 C 729.666 2.24651 -0.454378 0
M  V30 7652 C 730.666 1.54826 0.434222 0
M  V30 7653 O 731.856 1.72628 0.233477 0
M  V30 7654 C 728.988 3.39148 0.345192 0
M  V30 7655 H 730.181 2.69182 -1.32217 0
M  V30 7656 H 727.734 1.38596 -0.722547 0
M  V30 7657 H 728.469 3.00018 1.23125 0
M  V30 7658 H 728.254 3.9101 -0.292107 0
M  V30 7659 H 729.744 4.12103 0.675341 0
M  V30 7660 N 730.181 0.707592 1.40822 0
M  V30 7661 C 731.409 0.253073 2.05346 0
M  V30 7662 C 731.824 -1.10218 1.53289 0
M  V30 7663 O 731.181 -1.69112 0.686105 0
M  V30 7664 C 731.232 0.215411 3.60858 0
M  V30 7665 O 730.953 1.51714 4.10992 0
M  V30 7666 C 732.454 -0.258636 4.42545 0
M  V30 7667 H 729.674 0.115256 0.661027 0
M  V30 7668 H 732.218 0.963555 1.80377 0
M  V30 7669 H 730.373 -0.445978 3.84824 0
M  V30 7670 H 730.787 1.41226 5.05129 0
M  V30 7671 H 732.261 -0.233849 5.51504 0
M  V30 7672 H 732.738 -1.2995 4.19535 0
M  V30 7673 H 733.344 0.372186 4.23668 0
M  V30 7674 N 731.66 -1.50943 0.453197 0
M  V30 7675 C 732.59 -2.31005 -0.34044 0
M  V30 7676 C 733.571 -1.37112 -1.00669 0
M  V30 7677 O 734.756 -1.66033 -1.0073 0
M  V30 7678 C 731.886 -3.16358 -1.433 0
M  V30 7679 C 730.84 -4.18658 -0.889363 0
M  V30 7680 C 730.166 -4.92633 -2.07887 0
M  V30 7681 C 731.466 -5.22227 0.0871142 0
M  V30 7682 H 733.16 -2.97601 0.327723 0
M  V30 7683 H 730.706 -1.43119 0.159054 0
M  V30 7684 H 732.659 -3.71155 -1.99555 0
M  V30 7685 H 731.383 -2.47613 -2.12968 0
M  V30 7686 H 730.042 -3.64936 -0.348915 0
M  V30 7687 H 729.69 -4.20376 -2.76211 0
M  V30 7688 H 729.39 -5.61819 -1.72143 0
M  V30 7689 H 730.914 -5.50258 -2.64666 0
M  V30 7690 H 732.328 -5.72001 -0.385656 0
M  V30 7691 H 730.725 -5.99032 0.357926 0
M  V30 7692 H 731.795 -4.74077 1.01879 0
M  V30 7693 N 733.138 -0.185124 -1.56509 0
M  V30 7694 C 734.086 0.756505 -2.19954 0
M  V30 7695 C 735.08 1.22725 -1.16769 0
M  V30 7696 O 736.286 1.1913 -1.34937 0
M  V30 7697 H 732.661 0.262279 -0.704779 0
M  V30 7698 H 734.632 0.197587 -2.97745 0
M  V30 7699 C 733.381 1.96975 -2.86524 0
M  V30 7700 H 732.704 1.61658 -3.65659 0
M  V30 7701 H 734.144 2.60719 -3.34367 0
M  V30 7702 C 732.603 2.80219 -1.87027 0
M  V30 7703 O 733.133 3.77821 -1.36433 0
M  V30 7704 N 731.339 2.4551 -1.55477 0
M  V30 7705 H 730.886 1.66199 -1.96813 0
M  V30 7706 H 730.844 3.01493 -0.891597 0
M  V30 7707 N 734.616 1.57351 0.0885366 0
M  V30 7708 C 735.863 1.86419 0.790824 0
M  V30 7709 C 736.191 0.774561 1.78412 0
M  V30 7710 O 735.446 -0.23119 1.9433 0
M  V30 7711 C 735.745 3.22098 1.5488 0
M  V30 7712 C 735.411 4.4548 0.697025 0
M  V30 7713 C 734.073 4.78975 0.462237 0
M  V30 7714 C 736.425 5.21094 0.105315 0
M  V30 7715 C 733.753 5.85507 -0.374016 0
M  V30 7716 C 736.105 6.28509 -0.718298 0
M  V30 7717 C 734.769 6.60515 -0.963116 0
M  V30 7718 H 734.039 0.682157 0.289383 0
M  V30 7719 H 736.686 1.91429 0.0520961 0
M  V30 7720 H 734.991 3.12803 2.35927 0
M  V30 7721 H 736.688 3.41819 2.09669 0
M  V30 7722 H 733.278 4.19255 0.890137 0
M  V30 7723 H 737.462 4.95544 0.273856 0
M  V30 7724 H 732.718 6.08713 -0.572606 0
M  V30 7725 H 736.892 6.86268 -1.18362 0
M  V30 7726 H 734.519 7.42893 -1.6129 0
M  V30 7727 N 736.094 -0.359525 1.53444 0
M  V30 7728 C 737.042 -1.46104 1.80987 0
M  V30 7729 C 738.036 -1.55181 0.679351 0
M  V30 7730 O 739.242 -1.57995 0.862405 0
M  V30 7731 H 735.617 -0.486835 0.573145 0
M  V30 7732 H 737.588 -1.2008 2.73173 0
M  V30 7733 C 736.337 -2.82855 2.02208 0
M  V30 7734 H 735.66 -2.76631 2.88644 0
M  V30 7735 H 737.1 -3.59091 2.25455 0
M  V30 7736 C 735.559 -3.27192 0.802931 0
M  V30 7737 O 736.089 -4.017 -0.00544286 0
M  V30 7738 N 734.295 -2.83807 0.624657 0
M  V30 7739 H 733.842 -2.23339 1.28364 0
M  V30 7740 H 733.8 -3.13828 -0.189641 0
M  V30 7741 N 737.572 -1.44907 -0.619662 0
M  V30 7742 C 738.535 -1.52282 -1.71297 0
M  V30 7743 C 739.535 -0.40359 -1.55653 0
M  V30 7744 O 740.725 -0.666638 -1.6094 0
M  V30 7745 C 737.857 -1.40778 -3.10474 0
M  V30 7746 H 739.05 -2.49683 -1.66128 0
M  V30 7747 H 736.603 -1.32168 -0.834339 0
M  V30 7748 H 737.338 -0.445156 -3.2123 0
M  V30 7749 H 737.123 -2.21947 -3.23237 0
M  V30 7750 H 738.613 -1.48946 -3.90135 0
M  V30 7751 N 739.05 0.861098 -1.31996 0
M  V30 7752 C 740.278 1.6474 -1.25173 0
M  V30 7753 C 740.693 1.87926 0.181425 0
M  V30 7754 O 740.05 1.4437 1.1164 0
M  V30 7755 C 740.101 3.01036 -2.0015 0
M  V30 7756 O 739.822 2.7888 -3.37872 0
M  V30 7757 C 741.323 3.95481 -2.00273 0
M  V30 7758 H 738.543 0.513314 -0.432146 0
M  V30 7759 H 741.087 1.07419 -1.74016 0
M  V30 7760 H 739.242 3.55021 -1.55046 0
M  V30 7761 H 739.656 3.65514 -3.76165 0
M  V30 7762 H 741.13 4.88403 -2.57229 0
M  V30 7763 H 741.607 4.27957 -0.987407 0
M  V30 7764 H 742.213 3.47433 -2.45296 0
M  V30 7765 N 740.528 1.15101 1.07655 0
M  V30 7766 C 741.776 0.922149 1.79836 0
M  V30 7767 C 742.097 -0.552346 1.87014 0
M  V30 7768 O 741.367 -1.40145 1.3688 0
M  V30 7769 H 739.947 0.338182 0.666064 0
M  V30 7770 H 742.609 1.45107 1.30115 0
M  V30 7771 H 741.705 1.32883 2.82398 0
M  V30 7772 N 742.006 -1.2595 0.947325 0
M  V30 7773 C 743.254 -1.93081 0.596996 0
M  V30 7774 C 743.575 -1.74632 -0.867672 0
M  V30 7775 O 742.845 -1.1056 -1.6172 0
M  V30 7776 H 741.425 -0.714542 0.217805 0
M  V30 7777 H 744.087 -1.53265 1.20398 0
M  V30 7778 H 743.183 -3.01134 0.82004 0
M  V30 7779 N 743.484 -0.715051 -1.40445 0
M  V30 7780 C 744.761 -0.181503 -1.94756 0
M  V30 7781 C 745.141 1.31268 -1.65324 0
M  V30 7782 O 744.489 2.0686 -0.970631 0
M  V30 7783 C 744.699 -0.493663 -3.45491 0
M  V30 7784 C 746.047 -0.432032 -4.22396 0
M  V30 7785 O 747.071 -0.429692 -3.53599 0
M  V30 7786 O 745.93 -0.409091 -5.44967 0
M  V30 7787 H 743.024 -0.0263989 -0.826579 0
M  V30 7788 H 745.57 -0.792546 -1.50056 0
M  V30 7789 H 744.342 -1.52713 -3.6027 0
M  V30 7790 H 743.965 0.14737 -3.97327 0
M  V30 7791 N 744.962 1.50701 -0.461195 0
M  V30 7792 C 746.21 2.01867 0.0970051 0
M  V30 7793 C 746.531 1.34591 1.41104 0
M  V30 7794 O 745.801 0.488041 1.89723 0
M  V30 7795 H 744.381 0.74599 0.0388392 0
M  V30 7796 H 747.043 1.85129 -0.609357 0
M  V30 7797 H 746.139 3.11051 0.255688 0
M  V30 7798 N 746.441 0.193421 1.56409 0
M  V30 7799 C 747.671 -0.450783 2.01622 0
M  V30 7800 C 748.079 -1.5585 1.07273 0
M  V30 7801 O 747.422 -1.83569 0.0694875 0
M  V30 7802 C 747.484 -1.06913 3.43235 0
M  V30 7803 C 747.148 -0.100352 4.5689 0
M  V30 7804 C 748.145 0.689633 5.15306 0
M  V30 7805 C 745.83 0.0102436 5.02299 0
M  V30 7806 C 747.824 1.5772 6.17579 0
M  V30 7807 C 745.511 0.901368 6.04416 0
M  V30 7808 C 746.509 1.68341 6.61929 0
M  V30 7809 O 746.197 2.5596 7.62063 0
M  V30 7810 H 745.929 -0.117671 0.66568 0
M  V30 7811 H 748.483 0.2989 2.03214 0
M  V30 7812 H 746.713 -1.86736 3.38624 0
M  V30 7813 H 748.402 -1.61781 3.72266 0
M  V30 7814 H 749.168 0.614485 4.81092 0
M  V30 7815 H 745.047 -0.58829 4.57231 0
M  V30 7816 H 748.591 2.18805 6.62397 0
M  V30 7817 H 744.488 0.977637 6.38054 0
M  V30 7818 H 745.256 2.49721 7.79475 0
M  V30 7819 N 747.919 -1.57396 -0.0801906 0
M  V30 7820 C 749.33 -1.75642 -0.633002 0
M  V30 7821 C 749.681 -0.817708 -1.78348 0
M  V30 7822 O 748.806 0.000233743 -2.164 0
M  V30 7823 C 749.401 -3.18502 -1.15507 0
M  V30 7824 C 747.96 -3.38121 -1.65381 0
M  V30 7825 C 747.107 -2.71386 -0.569661 0
M  V30 7826 H 750.058 -1.58027 0.145949 0
M  V30 7827 H 750.079 -3.22198 -2.02408 0
M  V30 7828 H 749.591 -3.86799 -0.317515 0
M  V30 7829 H 747.692 -2.74926 -2.51488 0
M  V30 7830 H 747.805 -4.46521 -1.73654 0
M  V30 7831 H 746.169 -2.33702 -1.0127 0
M  V30 7832 H 746.952 -3.42332 0.257561 0
M  V30 7833 N 749.397 0.351382 -1.53633 0
M  V30 7834 C 750.813 0.693987 -1.43722 0
M  V30 7835 C 751.013 1.9274 -0.587669 0
M  V30 7836 O 750.069 2.52387 -0.0756082 0
M  V30 7837 C 751.382 0.893937 -2.87105 0
M  V30 7838 C 752.93 0.993051 -2.96829 0
M  V30 7839 C 753.405 1.22537 -4.41303 0
M  V30 7840 N 754.896 1.29275 -4.44795 0
M  V30 7841 C 755.631 1.48988 -5.53706 0
M  V30 7842 N 755.127 1.65924 -6.72637 0
M  V30 7843 N 756.92 1.51472 -5.41306 0
M  V30 7844 H 749.071 -0.459688 -2.07366 0
M  V30 7845 H 751.334 -0.143684 -0.937048 0
M  V30 7846 H 751.04 0.0592517 -3.5165 0
M  V30 7847 H 750.914 1.79795 -3.31592 0
M  V30 7848 H 753.301 1.81827 -2.32429 0
M  V30 7849 H 753.382 0.0661119 -2.55715 0
M  V30 7850 H 753.026 0.405117 -5.06282 0
M  V30 7851 H 752.956 2.16575 -4.80003 0
M  V30 7852 H 755.447 1.17743 -3.59089 0
M  V30 7853 H 755.76 1.80578 -7.51406 0
M  V30 7854 H 754.105 1.63075 -6.75597 0
M  V30 7855 H 757.296 1.37818 -4.47352 0
M  V30 7856 H 757.469 1.66493 -6.26246 0
M  V30 7857 N 750.875 1.45233 0.611969 0
M  V30 7858 C 751.805 1.5641 1.73373 0
M  V30 7859 C 752.786 0.415896 1.64937 0
M  V30 7860 O 753.971 0.638478 1.83404 0
M  V30 7861 C 751.101 1.52627 3.11965 0
M  V30 7862 C 750.055 2.66119 3.35208 0
M  V30 7863 C 749.381 2.4739 4.74028 0
M  V30 7864 C 750.681 4.08157 3.25891 0
M  V30 7865 H 752.375 2.50307 1.64277 0
M  V30 7866 H 749.921 1.20467 0.788904 0
M  V30 7867 H 751.874 1.59043 3.90235 0
M  V30 7868 H 750.598 0.552564 3.21892 0
M  V30 7869 H 749.257 2.59123 2.59327 0
M  V30 7870 H 748.905 1.48168 4.80682 0
M  V30 7871 H 748.605 3.23494 4.90536 0
M  V30 7872 H 750.129 2.55653 5.54503 0
M  V30 7873 H 751.543 4.1642 3.9404 0
M  V30 7874 H 749.94 4.84617 3.5393 0
M  V30 7875 H 751.01 4.30374 2.23397 0
M  V30 7876 N 752.353 -0.854086 1.3245 0
M  V30 7877 C 753.63 -1.59188 1.1366 0
M  V30 7878 C 754.01 -2.08917 -0.302807 0
M  V30 7879 O 753.358 -1.8795 -1.29951 0
M  V30 7880 C 753.568 -2.73757 2.16467 0
M  V30 7881 C 754.916 -3.43323 2.49829 0
M  V30 7882 O 755.94 -2.83983 2.15017 0
M  V30 7883 O 754.799 -4.50409 3.09506 0
M  V30 7884 H 751.893 -0.701092 0.438633 0
M  V30 7885 H 754.439 -0.898165 1.43983 0
M  V30 7886 H 753.211 -2.3454 3.1322 0
M  V30 7887 H 752.834 -3.50804 1.87142 0
M  V30 7888 N 753.831 -1.1567 -1.07043 0
M  V30 7889 C 754.779 -0.852204 -2.16426 0
M  V30 7890 C 755.773 0.175661 -1.68487 0
M  V30 7891 O 756.979 0.0303874 -1.79974 0
M  V30 7892 H 753.354 -0.257942 -0.706378 0
M  V30 7893 H 755.325 -1.78231 -2.39324 0
M  V30 7894 C 754.074 -0.361362 -3.45817 0
M  V30 7895 H 753.397 -1.14369 -3.83092 0
M  V30 7896 H 754.837 -0.186997 -4.23587 0
M  V30 7897 C 753.296 0.917703 -3.2416 0
M  V30 7898 O 753.826 1.98858 -3.49025 0
M  V30 7899 N 752.032 0.858456 -2.77631 0
M  V30 7900 H 751.579 -0.0131821 -2.57597 0
M  V30 7901 H 751.537 1.71478 -2.6352 0
M  V30 7902 N 755.309 1.25446 -0.953992 0
M  V30 7903 C 756.256 2.25912 -0.472485 0
M  V30 7904 C 757.226 1.59173 0.47469 0
M  V30 7905 O 758.411 1.86812 0.388082 0
M  V30 7906 C 755.551 3.44235 0.244218 0
M  V30 7907 C 754.664 4.25613 -0.740121 0
M  V30 7908 C 753.799 5.312 -0.000922267 0
M  V30 7909 C 752.838 6.04265 -0.976236 0
M  V30 7910 N 751.975 7.01589 -0.267952 0
M  V30 7911 H 756.815 2.66469 -1.3341 0
M  V30 7912 H 754.352 1.31005 -0.669045 0
M  V30 7913 H 756.31 4.11682 0.676314 0
M  V30 7914 H 754.94 3.04554 1.06988 0
M  V30 7915 H 753.992 3.57834 -1.2907 0
M  V30 7916 H 755.304 4.762 -1.48441 0
M  V30 7917 H 754.458 6.04719 0.48984 0
M  V30 7918 H 753.197 4.81484 0.776159 0
M  V30 7919 H 752.202 5.29561 -1.478 0
M  V30 7920 H 753.427 6.5607 -1.75354 0
M  V30 7921 H 751.373 6.54164 0.490403 0
M  V30 7922 H 751.29 7.4999 -0.951344 0
M  V30 7923 H 752.558 7.7924 0.201294 0
M  V30 7924 N 756.787 0.722489 1.40064 0
M  V30 7925 C 758.198 0.336507 1.83642 0
M  V30 7926 C 758.549 -1.13002 1.6039 0
M  V30 7927 O 757.674 -1.87036 1.08842 0
M  V30 7928 C 758.269 0.603985 3.33373 0
M  V30 7929 C 756.828 0.271637 3.75419 0
M  V30 7930 C 755.975 0.872898 2.63203 0
M  V30 7931 H 758.926 0.921108 1.29233 0
M  V30 7932 H 758.947 -0.128471 3.80283 0
M  V30 7933 H 758.459 1.67141 3.50265 0
M  V30 7934 H 756.56 -0.790455 3.64119 0
M  V30 7935 H 756.673 0.745457 4.73265 0
M  V30 7936 H 755.037 0.300431 2.52922 0
M  V30 7937 H 755.82 1.94473 2.82905 0
M  V30 7938 N 758.265 -1.50454 0.469181 0
M  V30 7939 C 759.513 -2.01916 -0.0862982 0
M  V30 7940 C 759.834 -1.35337 -1.40388 0
M  V30 7941 O 759.104 -0.498096 -1.89462 0
M  V30 7942 H 757.684 -0.746185 -0.0348825 0
M  V30 7943 H 760.346 -1.84804 0.619167 0
M  V30 7944 H 759.442 -3.11182 -0.239189 0
M  V30 7945 N 759.743 -0.201713 -1.56304 0
M  V30 7946 C 760.973 0.440084 -2.01858 0
M  V30 7947 C 761.381 1.55279 -1.08098 0
M  V30 7948 O 760.724 1.83529 -0.0792216 0
M  V30 7949 C 760.786 1.05091 -3.43797 0
M  V30 7950 C 760.45 0.0761208 -4.56937 0
M  V30 7951 C 761.447 -0.716951 -5.14933 0
M  V30 7952 C 759.132 -0.0368815 -5.02286 0
M  V30 7953 C 761.126 -1.60993 -6.16733 0
M  V30 7954 C 758.813 -0.933409 -6.03929 0
M  V30 7955 C 759.811 -1.71849 -6.61027 0
M  V30 7956 O 759.499 -2.59998 -7.60695 0
M  V30 7957 H 759.231 0.114139 -0.666294 0
M  V30 7958 H 761.785 -0.309672 -2.03052 0
M  V30 7959 H 760.015 1.84938 -3.3961 0
M  V30 7960 H 761.704 1.59804 -3.73118 0
M  V30 7961 H 762.47 -0.63999 -4.80759 0
M  V30 7962 H 758.349 0.564034 -4.57537 0
M  V30 7963 H 761.893 -2.22315 -6.61227 0
M  V30 7964 H 757.79 -1.01146 -6.37526 0
M  V30 7965 H 758.558 -2.53851 -7.7814 0
M  V30 7966 N 761.222 1.57436 0.0718424 0
M  V30 7967 C 762.468 1.87525 0.772149 0
M  V30 7968 C 762.801 0.79399 1.77227 0
M  V30 7969 O 762.076 -0.195733 1.93513 0
M  V30 7970 C 762.359 3.28272 1.48018 0
M  V30 7971 C 762.212 4.47052 0.49647 0
M  V30 7972 C 763.531 3.67256 2.42509 0
M  V30 7973 H 760.65 0.682049 0.279245 0
M  V30 7974 H 763.292 1.89967 0.03534 0
M  V30 7975 H 761.442 3.26321 2.10824 0
M  V30 7976 H 763.114 4.61127 -0.126375 0
M  V30 7977 H 761.357 4.33392 -0.188205 0
M  V30 7978 H 762.028 5.42315 1.02949 0
M  V30 7979 H 764.504 3.70301 1.89781 0
M  V30 7980 H 763.38 4.66626 2.89053 0
M  V30 7981 H 763.641 2.97186 3.27312 0
M  V30 7982 N 762.7 -0.34323 1.53817 0
M  V30 7983 C 763.648 -1.44176 1.82527 0
M  V30 7984 C 764.642 -1.54452 0.695772 0
M  V30 7985 O 765.848 -1.57072 0.879114 0
M  V30 7986 H 762.223 -0.480729 0.578277 0
M  V30 7987 H 764.194 -1.17176 2.74431 0
M  V30 7988 C 762.943 -2.80695 2.05197 0
M  V30 7989 H 762.266 -2.73554 2.91561 0
M  V30 7990 H 763.706 -3.56679 2.29251 0
M  V30 7991 C 762.165 -3.26322 0.837589 0
M  V30 7992 O 762.695 -4.01683 0.0371631 0
M  V30 7993 N 760.901 -2.83128 0.654724 0
M  V30 7994 H 760.448 -2.21965 1.30725 0
M  V30 7995 H 760.406 -3.14011 -0.156345 0
M  V30 7996 N 764.178 -1.45556 -0.604258 0
M  V30 7997 C 765.406 -1.53278 -1.38973 0
M  V30 7998 C 765.821 -0.166509 -1.88064 0
M  V30 7999 O 765.178 0.832519 -1.62405 0
M  V30 8000 C 765.229 -2.51992 -2.59195 0
M  V30 8001 O 764.95 -3.8331 -2.12143 0
M  V30 8002 C 766.451 -2.69445 -3.52015 0
M  V30 8003 H 763.671 -0.519003 -0.425297 0
M  V30 8004 H 766.215 -1.90773 -0.736621 0
M  V30 8005 H 764.37 -2.17561 -3.2054 0
M  V30 8006 H 764.784 -4.3685 -2.90279 0
M  V30 8007 H 766.258 -3.42485 -4.32907 0
M  V30 8008 H 766.735 -1.75596 -4.0257 0
M  V30 8009 H 767.341 -3.04886 -2.9652 0
M  V30 8010 N 765.656 0.84705 -1.32902 0
M  V30 8011 C 766.904 1.5986 -1.2365 0
M  V30 8012 C 767.225 1.93974 0.199789 0
M  V30 8013 O 766.495 1.60273 1.12648 0
M  V30 8014 H 765.075 0.592696 -0.454665 0
M  V30 8015 H 767.737 1.01278 -1.66519 0
M  V30 8016 H 766.833 2.53218 -1.82448 0
M  V30 8017 N 767.134 1.16236 1.06428 0
M  V30 8018 C 768.381 0.943034 1.79201 0
M  V30 8019 C 768.709 -0.529243 1.87161 0
M  V30 8020 O 767.964 -1.40874 1.35842 0
M  V30 8021 C 768.263 1.51396 3.2375 0
M  V30 8022 C 767.929 3.00833 3.35873 0
M  V30 8023 C 766.591 3.41626 3.38888 0
M  V30 8024 C 768.943 3.96825 3.37904 0
M  V30 8025 C 766.271 4.77033 3.4155 0
M  V30 8026 C 768.623 5.32116 3.42104 0
M  V30 8027 C 767.287 5.72392 3.43401 0
M  V30 8028 H 766.557 0.34508 0.655744 0
M  V30 8029 H 769.204 1.44929 1.25171 0
M  V30 8030 H 767.509 0.929114 3.80624 0
M  V30 8031 H 769.206 1.31996 3.78653 0
M  V30 8032 H 765.796 2.68306 3.3423 0
M  V30 8033 H 769.98 3.66376 3.34787 0
M  V30 8034 H 765.236 5.07569 3.40858 0
M  V30 8035 H 769.41 6.06286 3.42623 0
M  V30 8036 H 767.037 6.77296 3.45216 0
M  V30 8037 N 768.612 -1.24939 0.960631 0
M  V30 8038 C 769.861 -1.92118 0.614298 0
M  V30 8039 C 770.174 -1.75998 -0.853474 0
M  V30 8040 O 771.38 -2.37804 -1.31003 0
M  V30 8041 C 769.836 -3.44303 1.04801 0
M  V30 8042 C 769.444 -3.69123 2.53875 0
M  V30 8043 C 771.188 -4.17375 0.774497 0
M  V30 8044 C 769.095 -5.14843 2.91016 0
M  V30 8045 H 768.025 -0.719319 0.226045 0
M  V30 8046 H 770.676 -1.41701 1.16589 0
M  V30 8047 H 769.058 -3.93715 0.42479 0
M  V30 8048 H 770.232 -3.30339 3.21267 0
M  V30 8049 H 768.547 -3.09323 2.78762 0
M  V30 8050 H 771.144 -5.24723 1.02808 0
M  V30 8051 H 771.487 -4.15294 -0.289192 0
M  V30 8052 H 772.02 -3.7389 1.35835 0
M  V30 8053 H 768.759 -5.2204 3.96427 0
M  V30 8054 H 768.279 -5.54652 2.28302 0
M  V30 8055 H 769.958 -5.83017 2.80535 0
M  V30 8056 N 770.09 -0.729906 -1.39679 0
M  V30 8057 C 771.367 -0.202149 -1.94553 0
M  V30 8058 C 771.747 1.29507 -1.66707 0
M  V30 8059 O 771.095 2.05819 -0.992517 0
M  V30 8060 C 771.305 -0.530279 -3.44948 0
M  V30 8061 C 772.653 -0.476808 -4.21914 0
M  V30 8062 O 773.677 -0.467171 -3.53123 0
M  V30 8063 O 772.536 -0.466869 -5.44502 0
M  V30 8064 H 769.63 -0.0351644 -0.826252 0
M  V30 8065 H 772.176 -0.808417 -1.49207 0
M  V30 8066 H 770.948 -1.56526 -3.5863 0
M  V30 8067 H 770.571 0.10522 -3.97461 0
M  V30 8068 N 771.568 1.50203 -0.477153 0
M  V30 8069 C 772.531 2.27194 0.302599 0
M  V30 8070 C 773.531 1.32221 0.915112 0
M  V30 8071 O 774.721 1.55593 0.783348 0
M  V30 8072 C 771.853 3.0938 1.43167 0
M  V30 8073 H 773.046 2.97575 -0.372678 0
M  V30 8074 H 770.599 1.54578 -0.231392 0
M  V30 8075 H 771.334 2.43509 2.14182 0
M  V30 8076 H 771.119 3.79181 0.998197 0
M  V30 8077 H 772.609 3.67592 1.98157 0
M  V30 8078 N 773.046 0.209999 1.56195 0
M  V30 8079 C 773.956 -0.716459 2.23392 0
M  V30 8080 C 774.972 -1.22291 1.23778 0
M  V30 8081 O 776.148 -1.26694 1.56558 0
M  V30 8082 C 773.213 -1.91261 2.89172 0
M  V30 8083 C 772.274 -1.44927 4.04097 0
M  V30 8084 C 771.507 -2.5884 4.66731 0
M  V30 8085 O 771.73 -3.76693 4.2832 0
M  V30 8086 O 770.664 -2.30701 5.55932 0
M  V30 8087 H 774.49 -0.174089 3.03201 0
M  V30 8088 H 772.075 -0.0199505 1.49387 0
M  V30 8089 H 773.957 -2.6114 3.30733 0
M  V30 8090 H 772.632 -2.4433 2.12331 0
M  V30 8091 H 771.539 -0.718839 3.67129 0
M  V30 8092 H 772.872 -0.965084 4.82646 0
M  V30 8093 N 774.524 -1.57472 -0.0634922 0
M  V30 8094 C 775.77 -1.87932 -0.762194 0
M  V30 8095 C 776.103 -0.803377 -1.76804 0
M  V30 8096 O 775.378 0.185468 -1.93614 0
M  V30 8097 C 775.661 -3.29053 -1.46275 0
M  V30 8098 C 775.514 -4.47309 -0.472755 0
M  V30 8099 C 776.833 -3.68537 -2.40558 0
M  V30 8100 H 773.952 -0.683521 -0.275624 0
M  V30 8101 H 776.594 -1.89983 -0.0252651 0
M  V30 8102 H 774.744 -3.27435 -2.0909 0
M  V30 8103 H 776.416 -4.61053 0.150828 0
M  V30 8104 H 774.659 -4.33286 0.211187 0
M  V30 8105 H 775.33 -5.42853 -1.00072 0
M  V30 8106 H 777.806 -3.71302 -1.87814 0
M  V30 8107 H 776.682 -4.68152 -2.86574 0
M  V30 8108 H 776.943 -2.98917 -3.25731 0
M  V30 8109 N 776.003 0.335068 -1.53997 0
M  V30 8110 C 776.933 1.41727 -1.85568 0
M  V30 8111 C 777.914 1.54505 -0.7115 0
M  V30 8112 O 779.099 1.68573 -0.964191 0
M  V30 8113 C 776.229 2.7866 -2.07282 0
M  V30 8114 C 775.183 2.80682 -3.23112 0
M  V30 8115 C 774.509 4.20581 -3.30175 0
M  V30 8116 C 775.809 2.45458 -4.61029 0
M  V30 8117 H 777.503 1.15555 -2.76202 0
M  V30 8118 H 775.049 0.554445 -1.32898 0
M  V30 8119 H 777.002 3.54423 -2.27952 0
M  V30 8120 H 775.726 3.06286 -1.13387 0
M  V30 8121 H 774.385 2.07373 -3.02311 0
M  V30 8122 H 774.033 4.4533 -2.33859 0
M  V30 8123 H 773.733 4.22843 -4.08016 0
M  V30 8124 H 775.257 4.98174 -3.53066 0
M  V30 8125 H 776.671 3.10934 -4.81656 0
M  V30 8126 H 775.068 2.5899 -5.41336 0
M  V30 8127 H 776.138 1.40628 -4.6406 0
M  V30 8128 N 777.481 1.45874 0.596531 0
M  V30 8129 C 778.428 1.55389 1.70655 0
M  V30 8130 C 779.398 0.399036 1.61236 0
M  V30 8131 O 780.583 0.61396 1.80652 0
M  V30 8132 C 777.723 1.53705 3.0898 0
M  V30 8133 C 776.836 2.79823 3.29125 0
M  V30 8134 C 775.971 2.69735 4.5762 0
M  V30 8135 C 775.01 3.90856 4.71061 0
M  V30 8136 N 774.147 3.79237 5.90867 0
M  V30 8137 H 778.987 2.50211 1.61859 0
M  V30 8138 H 776.524 1.24146 0.789069 0
M  V30 8139 H 778.482 1.50715 3.89026 0
M  V30 8140 H 777.112 0.624247 3.16706 0
M  V30 8141 H 776.164 2.92852 2.42779 0
M  V30 8142 H 777.476 3.69628 3.34927 0
M  V30 8143 H 776.63 2.64773 5.45875 0
M  V30 8144 H 775.369 1.77547 4.54234 0
M  V30 8145 H 774.374 3.96164 3.81227 0
M  V30 8146 H 775.599 4.84124 4.76236 0
M  V30 8147 H 773.545 2.89825 5.88504 0
M  V30 8148 H 773.462 4.62686 5.97877 0
M  V30 8149 H 774.73 3.78227 6.8159 0
M  V30 8150 N 778.959 -0.83999 1.33349 0
M  V30 8151 C 779.922 -1.93128 1.23426 0
M  V30 8152 C 780.922 -1.60065 0.153599 0
M  V30 8153 O 782.112 -1.69425 0.405049 0
M  V30 8154 C 779.244 -3.28761 0.901622 0
M  V30 8155 H 780.437 -2.03352 2.20427 0
M  V30 8156 H 777.99 -1.03194 1.17391 0
M  V30 8157 H 778.725 -3.24233 -0.0659337 0
M  V30 8158 H 778.51 -3.54138 1.68311 0
M  V30 8159 H 780 -4.08714 0.856913 0
M  V30 8160 N 780.437 -1.16799 -1.0581 0
M  V30 8161 C 781.667 -0.975454 -1.82122 0
M  V30 8162 C 782.075 0.479584 -1.83021 0
M  V30 8163 O 781.418 1.34471 -1.25153 0
M  V30 8164 C 781.48 -1.43209 -3.29744 0
M  V30 8165 C 781.144 -2.908 -3.5254 0
M  V30 8166 C 782.141 -3.88775 -3.45181 0
M  V30 8167 C 779.826 -3.28832 -3.79703 0
M  V30 8168 C 781.82 -5.22782 -3.64661 0
M  V30 8169 C 779.507 -4.63007 -3.98832 0
M  V30 8170 C 780.505 -5.59791 -3.91309 0
M  V30 8171 O 780.193 -6.9154 -4.09911 0
M  V30 8172 H 779.925 -0.345655 -0.580947 0
M  V30 8173 H 782.479 -1.55355 -1.34365 0
M  V30 8174 H 780.709 -0.797504 -3.78387 0
M  V30 8175 H 782.398 -1.2062 -3.87564 0
M  V30 8176 H 783.164 -3.60738 -3.2418 0
M  V30 8177 H 779.043 -2.54073 -3.84666 0
M  V30 8178 H 782.587 -5.98312 -3.58705 0
M  V30 8179 H 778.484 -4.90752 -4.19324 0
M  V30 8180 H 779.252 -6.98188 -4.27172 0
M  V30 8181 N 781.915 1.24427 -0.967243 0
M  V30 8182 C 783.164 1.91789 -0.624478 0
M  V30 8183 C 783.477 1.76448 0.844129 0
M  V30 8184 O 784.683 2.38495 1.2974 0
M  V30 8185 C 783.139 3.43743 -1.06626 0
M  V30 8186 C 782.747 3.67771 -2.55829 0
M  V30 8187 C 784.491 4.16958 -0.79662 0
M  V30 8188 C 782.398 5.13293 -2.93742 0
M  V30 8189 H 781.328 0.71811 -0.229856 0
M  V30 8190 H 783.979 1.41081 -1.17339 0
M  V30 8191 H 782.361 3.93484 -0.445663 0
M  V30 8192 H 783.535 3.28631 -3.23015 0
M  V30 8193 H 781.85 3.07841 -2.80398 0
M  V30 8194 H 784.447 5.24171 -1.05589 0
M  V30 8195 H 784.79 4.15442 0.267163 0
M  V30 8196 H 785.323 3.73164 -1.37816 0
M  V30 8197 H 782.062 5.19931 -3.9919 0
M  V30 8198 H 781.582 5.53433 -2.3124 0
M  V30 8199 H 783.261 5.81521 -2.83623 0
M  V30 8200 N 783.393 0.737304 1.3929 0
M  V30 8201 C 784.325 0.0592106 2.29124 0
M  V30 8202 C 785.338 -0.701026 1.46934 0
M  V30 8203 O 786.527 -0.544808 1.69983 0
M  V30 8204 C 783.627 -0.940358 3.25592 0
M  V30 8205 C 782.8 -0.241163 4.36735 0
M  V30 8206 C 781.859 -1.14916 5.13498 0
M  V30 8207 O 780.885 -0.625783 5.6575 0
M  V30 8208 N 782.087 -2.47869 5.2492 0
M  V30 8209 H 784.852 0.830647 2.87959 0
M  V30 8210 H 782.413 0.586718 1.50895 0
M  V30 8211 H 784.405 -1.55046 3.73822 0
M  V30 8212 H 782.975 -1.61299 2.67771 0
M  V30 8213 H 782.195 0.549441 3.90352 0
M  V30 8214 H 783.483 0.243299 5.08218 0
M  V30 8215 H 782.881 -2.92864 4.83991 0
M  V30 8216 H 781.438 -3.03969 5.76581 0
M  V30 8217 N 784.871 -1.49948 0.485112 0
M  V30 8218 C 785.818 -2.28819 -0.301729 0
M  V30 8219 C 786.788 -1.34496 -0.974683 0
M  V30 8220 O 787.973 -1.63444 -0.984418 0
M  V30 8221 C 785.113 -3.16758 -1.36961 0
M  V30 8222 C 784.226 -4.26125 -0.710027 0
M  V30 8223 C 783.361 -5.01302 -1.75699 0
M  V30 8224 C 782.4 -6.02525 -1.07841 0
M  V30 8225 N 781.537 -6.70927 -2.06886 0
M  V30 8226 H 786.377 -2.95604 0.377127 0
M  V30 8227 H 783.914 -1.45764 0.197826 0
M  V30 8228 H 785.872 -3.66106 -2.00056 0
M  V30 8229 H 784.502 -2.51991 -2.01744 0
M  V30 8230 H 783.554 -3.80385 0.0338278 0
M  V30 8231 H 784.866 -4.98493 -0.175079 0
M  V30 8232 H 784.02 -5.54438 -2.46339 0
M  V30 8233 H 782.759 -4.28672 -2.32577 0
M  V30 8234 H 781.764 -5.48635 -0.357706 0
M  V30 8235 H 782.989 -6.77134 -0.516345 0
M  V30 8236 H 780.935 -6.01079 -2.62755 0
M  V30 8237 H 780.852 -7.39216 -1.58414 0
M  V30 8238 H 782.12 -7.28675 -2.76863 0
M  V30 8239 N 786.349 -0.21828 -1.56081 0
M  V30 8240 C 787.574 0.422302 -2.03055 0
M  V30 8241 C 787.999 1.5279 -1.09713 0
M  V30 8242 O 787.357 1.81102 -0.0847187 0
M  V30 8243 C 787.405 0.934177 -3.48289 0
M  V30 8244 O 786.509 2.04574 -3.58083 0
M  V30 8245 H 785.85 0.0959764 -0.657027 0
M  V30 8246 H 788.38 -0.335958 -2.01823 0
M  V30 8247 H 788.39 1.24484 -3.88546 0
M  V30 8248 H 787.065 0.124963 -4.15712 0
M  V30 8249 H 785.642 1.74196 -3.29712 0
M  V30 8250 N 787.827 1.57504 0.0551401 0
M  V30 8251 C 789.052 1.92682 0.767352 0
M  V30 8252 C 789.477 0.81614 1.69472 0
M  V30 8253 O 788.835 -0.229989 1.79835 0
M  V30 8254 C 788.883 3.26866 1.52286 0
M  V30 8255 O 787.987 3.17274 2.63459 0
M  V30 8256 H 787.328 0.630502 0.208238 0
M  V30 8257 H 789.858 2.04592 0.0184026 0
M  V30 8258 H 789.868 3.61138 1.8985 0
M  V30 8259 H 788.543 4.07276 0.842541 0
M  V30 8260 H 787.12 2.94589 2.2863 0
M  V30 8261 N 789.305 -0.326896 1.54172 0
M  V30 8262 C 790.716 -0.901533 1.63491 0
M  V30 8263 C 791.067 -1.88994 0.52684 0
M  V30 8264 O 790.192 -2.137 -0.340794 0
M  V30 8265 C 790.787 -1.64192 2.96355 0
M  V30 8266 C 789.346 -2.16533 3.07881 0
M  V30 8267 C 788.493 -0.98966 2.59039 0
M  V30 8268 H 791.444 -0.104568 1.58355 0
M  V30 8269 H 791.465 -2.50592 2.86328 0
M  V30 8270 H 790.977 -0.922291 3.76982 0
M  V30 8271 H 789.078 -2.91622 2.31922 0
M  V30 8272 H 789.191 -2.41762 4.13628 0
M  V30 8273 H 787.555 -1.36787 2.14852 0
M  V30 8274 H 788.338 -0.284401 3.4212 0
M  V30 8275 N 790.784 -1.46188 -0.588786 0
M  V30 8276 C 791.714 -1.59148 -1.70863 0
M  V30 8277 C 792.695 -0.442083 -1.64255 0
M  V30 8278 O 793.88 -0.667575 -1.82365 0
M  V30 8279 C 791.01 -1.5757 -3.09498 0
M  V30 8280 C 789.964 -2.71418 -3.30932 0
M  V30 8281 C 789.29 -2.549 -4.70032 0
M  V30 8282 C 790.59 -4.1329 -3.19356 0
M  V30 8283 H 792.284 -2.52889 -1.60274 0
M  V30 8284 H 789.83 -1.21707 -0.769638 0
M  V30 8285 H 791.783 -1.65231 -3.87655 0
M  V30 8286 H 790.507 -0.603705 -3.20972 0
M  V30 8287 H 789.166 -2.63216 -2.55172 0
M  V30 8288 H 788.814 -1.55797 -4.78264 0
M  V30 8289 H 788.514 -3.31257 -4.85327 0
M  V30 8290 H 790.038 -2.64443 -5.50366 0
M  V30 8291 H 791.452 -4.22636 -3.87365 0
M  V30 8292 H 789.849 -4.90187 -3.46175 0
M  V30 8293 H 790.919 -4.33874 -2.16522 0
M  V30 8294 N 792.262 0.832906 -1.33792 0
M  V30 8295 C 793.539 1.57359 -1.16178 0
M  V30 8296 C 793.919 2.09372 0.269532 0
M  V30 8297 O 793.267 1.89993 1.26944 0
M  V30 8298 C 793.477 2.70279 -2.20795 0
M  V30 8299 C 794.825 3.39305 -2.55259 0
M  V30 8300 O 795.849 2.80526 -2.19508 0
M  V30 8301 O 794.708 4.45428 -3.16632 0
M  V30 8302 H 791.802 0.694025 -0.449731 0
M  V30 8303 H 794.348 0.875144 -1.45394 0
M  V30 8304 H 793.12 2.29527 -3.16911 0
M  V30 8305 H 792.743 3.47782 -1.927 0
M  V30 8306 N 793.74 1.17359 1.05189 0
M  V30 8307 C 794.986 0.963413 1.78455 0
M  V30 8308 C 795.319 -0.506703 1.87473 0
M  V30 8309 O 794.594 -1.37611 1.37453 0
M  V30 8310 C 794.877 1.60519 3.22344 0
M  V30 8311 C 794.73 3.14741 3.21338 0
M  V30 8312 C 796.049 1.3091 4.20179 0
M  V30 8313 H 793.168 0.351412 0.647826 0
M  V30 8314 H 795.81 1.44858 1.22948 0
M  V30 8315 H 793.96 1.19265 3.69741 0
M  V30 8316 H 795.632 3.65053 2.82017 0
M  V30 8317 H 793.875 3.4749 2.59679 0
M  V30 8318 H 794.546 3.54775 4.22894 0
M  V30 8319 H 797.022 1.66635 3.81277 0
M  V30 8320 H 795.898 1.784 5.191 0
M  V30 8321 H 796.159 0.229908 4.41502 0
M  V30 8322 N 795.218 -1.23913 0.973828 0
M  V30 8323 C 796.443 -1.96735 0.656511 0
M  V30 8324 C 796.868 -1.71682 -0.768571 0
M  V30 8325 O 796.226 -0.984267 -1.52256 0
M  V30 8326 C 796.274 -3.48004 0.944735 0
M  V30 8327 O 795.378 -4.12387 0.0333357 0
M  V30 8328 H 794.719 -0.616119 0.247575 0
M  V30 8329 H 797.249 -1.57525 1.30564 0
M  V30 8330 H 797.259 -3.98424 0.87876 0
M  V30 8331 H 795.934 -3.65567 1.98328 0
M  V30 8332 H 794.511 -3.72585 0.153157 0
M  V30 8333 N 796.696 -0.74468 -1.38897 0
M  V30 8334 C 797.942 -0.297324 -2.00609 0
M  V30 8335 C 798.275 1.11547 -1.58968 0
M  V30 8336 O 797.55 1.76227 -0.823057 0
M  V30 8337 C 797.833 -0.410125 -3.57757 0
M  V30 8338 C 797.686 -1.86338 -4.09387 0
M  V30 8339 C 799.005 0.20176 -4.39637 0
M  V30 8340 H 796.124 -0.109509 -0.728819 0
M  V30 8341 H 798.766 -0.942653 -1.64967 0
M  V30 8342 H 796.916 0.139287 -3.8825 0
M  V30 8343 H 798.588 -2.47042 -3.89574 0
M  V30 8344 H 796.831 -2.38146 -3.62586 0
M  V30 8345 H 797.502 -1.89352 -5.18507 0
M  V30 8346 H 799.978 -0.266703 -4.15244 0
M  V30 8347 H 798.854 0.0925415 -5.48822 0
M  V30 8348 H 799.115 1.289 -4.22891 0
M  V30 8349 N 798.174 1.49689 -0.493057 0
M  V30 8350 C 799.404 2.06536 0.0512397 0
M  V30 8351 C 799.812 1.35459 1.32089 0
M  V30 8352 O 799.155 0.424145 1.78736 0
M  V30 8353 C 799.217 3.57452 0.383231 0
M  V30 8354 C 798.881 4.50163 -0.787555 0
M  V30 8355 C 799.878 4.92151 -1.67582 0
M  V30 8356 C 797.563 4.92565 -0.984109 0
M  V30 8357 C 799.557 5.7527 -2.74487 0
M  V30 8358 C 797.244 5.75463 -2.05634 0
M  V30 8359 C 798.242 6.16719 -2.93507 0
M  V30 8360 O 797.93 6.97961 -3.98881 0
M  V30 8361 H 797.662 0.675862 -0.0136516 0
M  V30 8362 H 800.216 1.9356 -0.687298 0
M  V30 8363 H 798.446 3.68408 1.17526 0
M  V30 8364 H 800.135 3.96572 0.8652 0
M  V30 8365 H 800.901 4.60043 -1.53575 0
M  V30 8366 H 796.78 4.5996 -0.309541 0
M  V30 8367 H 800.324 6.07392 -3.43104 0
M  V30 8368 H 796.221 6.06983 -2.19639 0
M  V30 8369 H 796.989 7.16253 -3.96137 0
M  V30 8370 N 799.652 0.226554 1.55963 0
M  V30 8371 C 800.562 -0.692725 2.24139 0
M  V30 8372 C 801.578 -1.20971 1.25068 0
M  V30 8373 O 802.754 -1.25027 1.57893 0
M  V30 8374 C 799.819 -1.88183 2.91184 0
M  V30 8375 C 798.88 -1.40633 4.05612 0
M  V30 8376 C 798.113 -2.53875 4.6945 0
M  V30 8377 O 798.336 -3.72129 4.32292 0
M  V30 8378 O 797.27 -2.24792 5.58348 0
M  V30 8379 H 801.096 -0.141921 3.03368 0
M  V30 8380 H 798.681 -0.0041049 1.49399 0
M  V30 8381 H 800.563 -2.57617 3.33484 0
M  V30 8382 H 799.238 -2.42064 2.14911 0
M  V30 8383 H 798.145 -0.67986 3.67871 0
M  V30 8384 H 799.478 -0.913838 4.83642 0
M  V30 8385 N 801.13 -1.57531 -0.0467866 0
M  V30 8386 C 802.541 -1.76945 -0.595603 0
M  V30 8387 C 802.892 -0.855354 -1.76573 0
M  V30 8388 O 802.017 -0.045668 -2.16352 0
M  V30 8389 C 802.612 -3.20881 -1.08725 0
M  V30 8390 C 801.171 -3.41553 -1.58172 0
M  V30 8391 C 800.318 -2.72533 -0.511968 0
M  V30 8392 H 803.269 -1.57682 0.179436 0
M  V30 8393 H 803.29 -3.26419 -1.95528 0
M  V30 8394 H 802.802 -3.87385 -0.235398 0
M  V30 8395 H 800.903 -2.80199 -2.456 0
M  V30 8396 H 801.016 -4.50104 -1.64143 0
M  V30 8397 H 799.38 -2.35797 -0.962899 0
M  V30 8398 H 800.163 -3.41709 0.330117 0
M  V30 8399 N 802.608 0.318715 -1.54344 0
M  V30 8400 C 803.555 1.39242 -1.84066 0
M  V30 8401 C 804.525 1.51175 -0.688134 0
M  V30 8402 O 805.71 1.66318 -0.935039 0
M  V30 8403 C 802.85 2.75528 -2.07794 0
M  V30 8404 C 801.963 2.72187 -3.35467 0
M  V30 8405 C 801.098 4.00352 -3.4913 0
M  V30 8406 C 800.137 3.91338 -4.7066 0
M  V30 8407 N 799.274 5.11242 -4.81224 0
M  V30 8408 H 804.114 1.13196 -2.75664 0
M  V30 8409 H 801.651 0.547857 -1.36517 0
M  V30 8410 H 803.609 3.54763 -2.19543 0
M  V30 8411 H 802.239 2.99873 -1.19482 0
M  V30 8412 H 801.291 1.84917 -3.3243 0
M  V30 8413 H 802.603 2.61411 -4.24812 0
M  V30 8414 H 801.757 4.88019 -3.60448 0
M  V30 8415 H 800.496 4.1394 -2.57886 0
M  V30 8416 H 799.501 3.02055 -4.59394 0
M  V30 8417 H 800.726 3.7931 -5.63294 0
M  V30 8418 H 798.672 5.25327 -3.92897 0
M  V30 8419 H 798.589 5.0282 -5.64543 0
M  V30 8420 H 799.857 6.0061 -4.96879 0
M  V30 8421 N 804.086 1.46499 0.581025 0
M  V30 8422 C 805.334 1.51596 1.33653 0
M  V30 8423 C 805.655 0.169859 1.94259 0
M  V30 8424 O 804.925 -0.803776 1.78651 0
M  V30 8425 H 803.505 0.558346 0.496244 0
M  V30 8426 H 806.167 1.8264 0.680338 0
M  V30 8427 H 805.263 2.26956 2.14237 0
M  V30 8428 N 805.565 -0.825799 1.34232 0
M  V30 8429 C 806.475 -1.9684 1.27638 0
M  V30 8430 C 807.491 -1.73018 0.184569 0
M  V30 8431 O 808.667 -1.97172 0.410525 0
M  V30 8432 C 805.732 -3.31084 1.02879 0
M  V30 8433 C 804.793 -3.67933 2.21188 0
M  V30 8434 C 804.026 -4.95772 1.976 0
M  V30 8435 O 804.249 -5.62721 0.93281 0
M  V30 8436 O 803.183 -5.30431 2.84477 0
M  V30 8437 H 807.009 -2.05346 2.23756 0
M  V30 8438 H 804.594 -0.960772 1.1441 0
M  V30 8439 H 806.476 -4.11492 0.908406 0
M  V30 8440 H 805.151 -3.23552 0.0979821 0
M  V30 8441 H 804.058 -2.87981 2.38784 0
M  V30 8442 H 805.391 -3.80147 3.12648 0
M  V30 8443 N 807.043 -1.17915 -1.04565 0
M  V30 8444 C 808.289 -0.972863 -1.77942 0
M  V30 8445 C 808.622 0.496753 -1.87739 0
M  V30 8446 O 807.897 1.3688 -1.38181 0
M  V30 8447 C 808.18 -1.62227 -3.21488 0
M  V30 8448 C 808.033 -3.16441 -3.19664 0
M  V30 8449 C 809.352 -1.33137 -4.19479 0
M  V30 8450 H 806.471 -0.354843 -0.645953 0
M  V30 8451 H 809.113 -1.45508 -1.22178 0
M  V30 8452 H 807.263 -1.21224 -3.69103 0
M  V30 8453 H 808.935 -3.66544 -2.80077 0
M  V30 8454 H 807.178 -3.48863 -2.57832 0
M  V30 8455 H 807.849 -3.57012 -4.21006 0
M  V30 8456 H 810.325 -1.68654 -3.80388 0
M  V30 8457 H 809.201 -1.81151 -5.18146 0
M  V30 8458 H 809.462 -0.253319 -4.41374 0
M  V30 8459 N 808.521 1.23394 -0.980386 0
M  V30 8460 C 809.746 1.96384 -0.666935 0
M  V30 8461 C 810.171 1.72087 0.759456 0
M  V30 8462 O 809.529 0.992328 1.51732 0
M  V30 8463 C 809.577 3.47499 -0.963177 0
M  V30 8464 O 808.681 4.12363 -0.0552051 0
M  V30 8465 H 808.022 0.614797 -0.250839 0
M  V30 8466 H 810.552 1.56831 -1.31398 0
M  V30 8467 H 810.562 3.97953 -0.899877 0
M  V30 8468 H 809.237 3.6451 -2.00264 0
M  V30 8469 H 807.814 3.72499 -0.172914 0
M  V30 8470 N 809.999 0.752036 1.385 0
M  V30 8471 C 811.245 0.316909 2.00916 0
M  V30 8472 C 811.6 -1.08884 1.58625 0
M  V30 8473 O 810.893 -1.73494 0.813047 0
M  V30 8474 C 811.087 0.376155 3.55415 0
M  V30 8475 C 810.916 1.78612 4.12708 0
M  V30 8476 C 809.686 2.4023 4.44542 0
M  V30 8477 C 811.884 2.74253 4.35075 0
M  V30 8478 N 809.866 3.73204 4.87434 0
M  V30 8479 C 811.237 3.9199 4.80358 0
M  V30 8480 C 813.292 2.71795 4.17171 0
M  V30 8481 C 811.995 5.07627 5.09615 0
M  V30 8482 C 814.021 3.86589 4.47552 0
M  V30 8483 C 813.383 5.03064 4.93058 0
M  V30 8484 H 809.482 0.16259 0.764911 0
M  V30 8485 H 812.066 0.981657 1.68142 0
M  V30 8486 H 810.237 -0.258317 3.8754 0
M  V30 8487 H 811.969 -0.0791421 4.04623 0
M  V30 8488 H 808.724 1.92009 4.32931 0
M  V30 8489 H 809.148 4.41519 5.13215 0
M  V30 8490 H 813.79 1.82929 3.81178 0
M  V30 8491 H 811.508 5.97109 5.44506 0
M  V30 8492 H 815.094 3.86005 4.35306 0
M  V30 8493 H 813.974 5.90417 5.16118 0
M  V30 8494 N 811.477 -1.49425 0.500989 0
M  V30 8495 C 812.409 -2.27037 -0.314159 0
M  V30 8496 C 813.422 -1.33578 -0.930626 0
M  V30 8497 O 814.611 -1.58861 -0.813968 0
M  V30 8498 C 811.711 -3.05968 -1.45729 0
M  V30 8499 C 810.884 -4.27 -0.948135 0
M  V30 8500 C 809.943 -4.87977 -1.96888 0
M  V30 8501 O 808.969 -5.48044 -1.53743 0
M  V30 8502 N 810.171 -4.77627 -3.29928 0
M  V30 8503 H 812.936 -2.97634 0.351336 0
M  V30 8504 H 810.497 -1.58427 0.333536 0
M  V30 8505 H 812.489 -3.43634 -2.1377 0
M  V30 8506 H 811.059 -2.37978 -2.02695 0
M  V30 8507 H 810.279 -3.94091 -0.0926311 0
M  V30 8508 H 811.567 -5.0541 -0.586362 0
M  V30 8509 H 810.965 -4.29926 -3.67669 0
M  V30 8510 H 809.522 -5.19478 -3.93682 0
M  V30 8511 O 812.994 -0.376506 -1.5705 0
M  V30 8512 H 813.685 0.171595 -1.92938 0
M  V30 END ATOM
M  V30 BEGIN BOND
M  V30 END BOND
M  V30 END CTAB
M  END
$$$$
