drugbank_target|Q8V397 Genome polyprotein (DB05105)
 OpenBabel12092120313D

  0  0  0     0  0            999 V3000
M  V30 BEGIN CTAB
M  V30 COUNTS 33722 34141 0 0 0
M  V30 BEGIN ATOM
M  V30 1 H -0.908 1.98254 -0.117106 0
M  V30 2 N 0 1.576 0 0
M  V30 3 C 0.933 2.03868 1.02534 0
M  V30 4 C 1.911 0.928543 1.3348 0
M  V30 5 O 3.095 1.19667 1.45644 0
M  V30 6 C 0.222 2.43627 2.35294 0
M  V30 7 C -0.732 3.65373 2.2001 0
M  V30 8 S 0.101 5.13292 1.52614 0
M  V30 9 C 1.257 5.56322 2.86805 0
M  V30 10 H 1.49 2.90518 0.631377 0
M  V30 11 H -0.977 1.52953 0.210867 0
M  V30 12 H 0.981 2.67203 3.11629 0
M  V30 13 H -0.358 1.57376 2.7183 0
M  V30 14 H -1.165 3.90944 3.18086 0
M  V30 15 H -1.563 3.418 1.51819 0
M  V30 16 H 0.729 5.58782 3.83104 0
M  V30 17 H 1.672 6.56266 2.65933 0
M  V30 18 H 2.08 4.83886 2.90714 0
M  V30 19 N 1.4781 -0.272755 1.55222 0
M  V30 20 C 2.7261 -1.00234 1.75492 0
M  V30 21 C 3.0471 -1.8681 0.5592 0
M  V30 22 O 2.3171 -1.91215 -0.425882 0
M  V30 23 H 0.8971 -0.373076 0.647166 0
M  V30 24 H 3.5591 -0.296926 1.92625 0
M  V30 25 H 2.6551 -1.63913 2.65592 0
M  V30 26 N 2.9562 -1.48159 -0.537278 0
M  V30 27 C 3.9192 -1.61665 -1.62472 0
M  V30 28 C 4.9192 -0.490395 -1.5314 0
M  V30 29 O 6.1092 -0.755998 -1.5694 0
M  V30 30 C 3.2412 -1.57997 -3.02076 0
M  V30 31 H 4.4342 -2.58621 -1.51839 0
M  V30 32 H 1.9872 -1.36647 -0.758771 0
M  V30 33 H 2.7222 -0.624913 -3.18222 0
M  V30 34 H 2.5072 -2.39755 -3.10258 0
M  V30 35 H 3.9972 -1.70627 -3.81151 0
M  V30 36 N 4.4343 0.785586 -1.36625 0
M  V30 37 C 5.3663 1.90711 -1.2713 0
M  V30 38 C 6.3793 1.61688 -0.189986 0
M  V30 39 O 7.5683 1.72864 -0.445014 0
M  V30 40 C 4.6683 3.25611 -0.939713 0
M  V30 41 C 3.8413 3.82385 -2.12369 0
M  V30 42 C 2.9003 4.95732 -1.76456 0
M  V30 43 O 1.9263 5.12047 -2.48589 0
M  V30 44 N 3.1283 5.76258 -0.700492 0
M  V30 45 H 5.8933 1.99376 -2.23762 0
M  V30 46 H 3.4543 0.964041 -1.30069 0
M  V30 47 H 5.4463 3.98937 -0.680554 0
M  V30 48 H 4.0163 3.12538 -0.0624074 0
M  V30 49 H 3.2363 3.01001 -2.54543 0
M  V30 50 H 4.5243 4.17047 -2.9146 0
M  V30 51 H 3.9223 5.65609 -0.101624 0
M  V30 52 H 2.4793 6.4987 -0.501165 0
M  V30 53 N 5.9124 1.20967 1.01018 0
M  V30 54 C 7.1584 1.02526 1.74975 0
M  V30 55 C 7.4914 -0.4408 1.89131 0
M  V30 56 O 6.7664 -1.32718 1.42184 0
M  V30 57 C 7.0494 1.71699 3.1653 0
M  V30 58 C 6.9024 3.25791 3.10129 0
M  V30 59 C 8.2214 1.45531 4.15342 0
M  V30 60 H 5.3404 0.373863 0.635134 0
M  V30 61 H 7.9824 1.49071 1.17805 0
M  V30 62 H 6.1324 1.32128 3.65341 0
M  V30 63 H 7.8044 3.74697 2.69072 0
M  V30 64 H 6.0474 3.56363 2.47362 0
M  V30 65 H 6.7184 3.69353 4.10222 0
M  V30 66 H 9.1944 1.79872 3.75213 0
M  V30 67 H 8.0704 1.96453 5.1254 0
M  V30 68 H 8.3314 0.384237 4.40427 0
M  V30 69 N 7.3905 -1.2043 1.01659 0
M  V30 70 C 8.6155 -1.94318 0.724942 0
M  V30 71 C 9.0405 -1.74266 -0.708034 0
M  V30 72 O 8.3985 -1.03694 -1.48719 0
M  V30 73 C 8.4465 -3.44486 1.06591 0
M  V30 74 O 7.5505 -4.12017 0.177599 0
M  V30 75 H 6.8915 -0.60708 0.26898 0
M  V30 76 H 9.4215 -1.52861 1.35995 0
M  V30 77 H 9.4315 -3.95106 1.01762 0
M  V30 78 H 8.1065 -3.58404 2.10997 0
M  V30 79 H 6.6835 -3.71821 0.283421 0
M  V30 80 N 8.8686 -0.792821 -1.36206 0
M  V30 81 C 10.0966 -0.378825 -2.03402 0
M  V30 82 C 10.5116 1.00586 -1.59774 0
M  V30 83 O 9.8686 1.64574 -0.788764 0
M  V30 84 C 9.9196 -0.43683 -3.58851 0
M  V30 85 O 9.6406 -1.76691 -4.00889 0
M  V30 86 C 11.1416 -0.0138943 -4.43298 0
M  V30 87 H 8.3616 -0.155673 -0.652692 0
M  V30 88 H 10.9056 -1.07261 -1.74113 0
M  V30 89 H 9.0606 0.208575 -3.86838 0
M  V30 90 H 9.4746 -1.72011 -4.95492 0
M  V30 91 H 10.9486 -0.105615 -5.51899 0
M  V30 92 H 11.4256 1.03915 -4.2673 0
M  V30 93 H 12.0316 -0.63192 -4.20579 0
M  V30 94 N 10.3467 1.47872 -0.545128 0
M  V30 95 C 11.2787 2.27869 0.246621 0
M  V30 96 C 12.2917 1.36282 0.890561 0
M  V30 97 O 13.4807 1.61207 0.766449 0
M  V30 98 C 10.5807 3.10159 1.36582 0
M  V30 99 C 9.7537 4.29627 0.820954 0
M  V30 100 C 8.8127 4.93607 1.82314 0
M  V30 101 O 7.8387 5.52366 1.37406 0
M  V30 102 N 9.0407 4.87211 3.15603 0
M  V30 103 H 11.8057 2.96459 -0.439539 0
M  V30 104 H 9.3667 1.57367 -0.380421 0
M  V30 105 H 11.3587 3.49829 2.03474 0
M  V30 106 H 9.9287 2.43891 1.9554 0
M  V30 107 H 9.1487 3.94192 -0.0244032 0
M  V30 108 H 10.4367 5.06928 0.436063 0
M  V30 109 H 9.8347 4.40651 3.54744 0
M  V30 110 H 8.3917 5.30937 3.78087 0
M  V30 111 N 11.8248 0.280983 1.55075 0
M  V30 112 C 12.7718 -0.603937 2.22758 0
M  V30 113 C 13.7418 -1.1452 1.20309 0
M  V30 114 O 14.9268 -1.19343 1.48869 0
M  V30 115 C 12.0668 -1.77947 2.95684 0
M  V30 116 C 11.1798 -1.2715 4.12864 0
M  V30 117 C 10.3148 -2.4093 4.7342 0
M  V30 118 C 9.3538 -1.87165 5.82783 0
M  V30 119 N 8.4908 -2.94441 6.37377 0
M  V30 120 H 13.3308 -0.020124 2.97993 0
M  V30 121 H 10.8678 0.00183425 1.471 0
M  V30 122 H 12.8258 -2.47055 3.36184 0
M  V30 123 H 11.4558 -2.33522 2.22861 0
M  V30 124 H 10.5078 -0.473331 3.77444 0
M  V30 125 H 11.8198 -0.837751 4.91715 0
M  V30 126 H 10.9738 -3.18021 5.1667 0
M  V30 127 H 9.7128 -2.87623 3.93859 0
M  V30 128 H 8.7178 -1.08556 5.38976 0
M  V30 129 H 9.9428 -1.41401 6.64216 0
M  V30 130 H 7.8888 -3.40505 5.60707 0
M  V30 131 H 7.8058 -2.55501 7.11516 0
M  V30 132 H 9.0738 -3.71489 6.85285 0
M  V30 133 N 13.3029 -1.57598 0.00835791 0
M  V30 134 C 14.5279 -1.95617 -0.689103 0
M  V30 135 C 14.9529 -0.883753 -1.66046 0
M  V30 136 O 14.3109 0.157352 -1.80616 0
M  V30 137 C 14.3589 -3.32736 -1.38994 0
M  V30 138 O 13.4629 -3.27631 -2.50463 0
M  V30 139 H 12.8039 -0.638379 -0.182668 0
M  V30 140 H 15.3339 -2.045 0.064036 0
M  V30 141 H 15.3439 -3.68494 -1.75147 0
M  V30 142 H 14.0189 -4.1034 -0.677778 0
M  V30 143 H 12.5959 -3.03561 -2.16576 0
M  V30 144 N 14.781 0.264519 -1.55364 0
M  V30 145 C 16.029 0.993021 -1.76021 0
M  V30 146 C 16.35 1.86511 -0.569099 0
M  V30 147 O 15.62 1.91438 0.415735 0
M  V30 148 H 14.2 0.369639 -0.649135 0
M  V30 149 H 16.862 0.286707 -1.9278 0
M  V30 150 H 15.958 1.62502 -2.66457 0
M  V30 151 N 16.2591 1.48442 0.529413 0
M  V30 152 C 17.4841 1.60406 1.31471 0
M  V30 153 C 17.9091 0.264738 1.86228 0
M  V30 154 O 17.2671 -0.763668 1.64432 0
M  V30 155 C 17.3151 2.65419 2.44101 0
M  V30 156 O 16.4191 2.22618 3.47153 0
M  V30 157 H 15.7601 0.537863 0.389357 0
M  V30 158 H 18.2901 1.94432 0.636965 0
M  V30 159 H 18.3001 2.86709 2.90279 0
M  V30 160 H 16.9751 3.62652 2.03608 0
M  V30 161 H 15.5521 2.11543 3.0709 0
M  V30 162 N 17.7372 -0.778329 1.37039 0
M  V30 163 C 18.6872 -1.88142 1.28789 0
M  V30 164 C 19.6712 -1.59923 0.177063 0
M  V30 165 O 20.8632 -1.72165 0.410873 0
M  V30 166 C 17.9922 -3.25518 1.09055 0
M  V30 167 C 17.0782 -3.5971 2.24654 0
M  V30 168 N 17.4692 -3.65131 3.50018 0
M  V30 169 C 15.7672 -3.89837 2.16663 0
M  V30 170 C 16.4682 -3.95882 4.26207 0
M  V30 171 N 15.4442 -4.11441 3.55271 0
M  V30 172 H 19.2462 -1.90575 2.23737 0
M  V30 173 H 16.7602 -0.974435 1.29917 0
M  V30 174 H 18.7572 -4.04423 1.0123 0
M  V30 175 H 17.4172 -3.24353 0.15018 0
M  V30 176 H 18.4282 -3.475 3.84011 0
M  V30 177 H 15.1052 -3.96533 1.30645 0
M  V30 178 H 16.4952 -4.06907 5.34674 0
M  V30 179 N 19.2153 -1.21501 -1.00376 0
M  V30 180 C 20.1253 -0.991447 -2.12621 0
M  V30 181 C 21.1413 0.0568446 -1.73907 0
M  V30 182 O 22.3173 -0.13348 -2.00957 0
M  V30 183 C 19.3823 -0.560312 -3.42142 0
M  V30 184 C 18.4433 -1.68096 -3.95022 0
M  V30 185 C 17.6763 -1.2703 -5.18362 0
M  V30 186 O 17.8993 -0.144438 -5.70217 0
M  V30 187 O 16.8333 -2.08269 -5.64719 0
M  V30 188 H 20.6593 -1.93158 -2.34358 0
M  V30 189 H 18.2443 -0.999999 -1.10997 0
M  V30 190 H 20.1263 -0.329724 -4.20108 0
M  V30 191 H 18.8013 0.351089 -3.2179 0
M  V30 192 H 17.7083 -1.96597 -3.18278 0
M  V30 193 H 19.0413 -2.56983 -4.19786 0
M  V30 194 N 20.6934 1.19889 -1.02296 0
M  V30 195 C 21.9214 1.9339 -0.735399 0
M  V30 196 C 22.3364 1.75148 0.704887 0
M  V30 197 O 21.6934 1.06954 1.47875 0
M  V30 198 C 21.7444 3.45313 -1.06962 0
M  V30 199 O 21.4654 3.62964 -2.45334 0
M  V30 200 C 22.9664 4.35948 -0.804021 0
M  V30 201 H 20.1864 0.61448 -0.269546 0
M  V30 202 H 22.7304 1.522 -1.36585 0
M  V30 203 H 20.8854 3.84359 -0.484455 0
M  V30 204 H 21.2994 4.56886 -2.57595 0
M  V30 205 H 22.7734 5.41174 -1.0879 0
M  V30 206 H 23.2504 4.3842 0.261691 0
M  V30 207 H 23.8564 4.02574 -1.37164 0
M  V30 208 N 22.1715 0.800033 1.35784 0
M  V30 209 C 23.4195 0.376597 1.9856 0
M  V30 210 C 23.7405 -1.05812 1.63795 0
M  V30 211 O 23.0105 -1.73103 0.917171 0
M  V30 212 H 21.5905 0.136261 0.734467 0
M  V30 213 H 24.2525 1.02442 1.65806 0
M  V30 214 H 23.3485 0.477002 3.08433 0
M  V30 215 N 23.6496 -1.47581 0.552962 0
M  V30 216 C 24.8776 -2.06875 0.0320556 0
M  V30 217 C 25.2926 -1.40625 -1.25976 0
M  V30 218 O 24.6496 -0.501349 -1.75479 0
M  V30 219 C 24.7006 -3.61092 -0.17167 0
M  V30 220 O 24.4216 -4.24858 1.06899 0
M  V30 221 C 25.9226 -4.37242 -0.730344 0
M  V30 222 H 23.1426 -0.669561 0.043915 0
M  V30 223 H 25.6866 -1.89646 0.765163 0
M  V30 224 H 23.8416 -3.7785 -0.854894 0
M  V30 225 H 24.2556 -5.17334 0.864059 0
M  V30 226 H 25.7296 -5.45842 -0.822203 0
M  V30 227 H 26.2066 -4.03235 -1.74064 0
M  V30 228 H 26.8126 -4.25219 -0.0829543 0
M  V30 229 N 25.1277 -0.289203 -1.54924 0
M  V30 230 C 26.3577 0.325989 -2.04012 0
M  V30 231 C 26.7657 1.48961 -1.1665 0
M  V30 232 O 26.1087 1.82794 -0.1822 0
M  V30 233 C 26.1707 0.856112 -3.49158 0
M  V30 234 C 25.8347 -0.180697 -4.56643 0
M  V30 235 C 26.8317 -1.0051 -5.10092 0
M  V30 236 C 24.5167 -0.318998 -5.01286 0
M  V30 237 C 26.5107 -1.95385 -6.06715 0
M  V30 238 C 24.1977 -1.27121 -5.97732 0
M  V30 239 C 25.1957 -2.08713 -6.50329 0
M  V30 240 O 24.8837 -3.02322 -7.44887 0
M  V30 241 H 24.6157 0.0765276 -0.671654 0
M  V30 242 H 27.1697 -0.423254 -2.00992 0
M  V30 243 H 25.3997 1.65567 -3.49463 0
M  V30 244 H 27.0887 1.38591 -3.81507 0
M  V30 245 H 27.8547 -0.90906 -4.76404 0
M  V30 246 H 23.7337 0.306108 -4.59983 0
M  V30 247 H 27.2777 -2.59111 -6.47694 0
M  V30 248 H 23.1747 -1.36801 -6.30837 0
M  V30 249 H 23.9427 -2.97165 -7.6265 0
M  V30 250 N 26.6058 1.57591 -0.0167156 0
M  V30 251 C 27.5688 2.08393 0.954204 0
M  V30 252 C 28.5688 0.996531 1.26198 0
M  V30 253 O 29.7588 1.25858 1.20438 0
M  V30 254 C 26.8908 2.5394 2.27436 0
M  V30 255 H 28.0838 2.95455 0.514451 0
M  V30 256 H 25.6368 1.54582 0.231089 0
M  V30 257 H 26.3718 1.70171 2.76066 0
M  V30 258 H 26.1568 3.33371 2.06412 0
M  V30 259 H 27.6468 2.93512 2.97053 0
M  V30 260 N 28.0839 -0.256276 1.55502 0
M  V30 261 C 29.3119 -1.00342 1.8094 0
M  V30 262 C 29.7269 -1.79307 0.59114 0
M  V30 263 O 29.0839 -1.77114 -0.440081 0
M  V30 264 C 29.1349 -1.94875 3.04476 0
M  V30 265 O 28.8559 -1.19107 4.21598 0
M  V30 266 C 30.3569 -2.81266 3.42644 0
M  V30 267 H 27.5769 -0.295685 0.602338 0
M  V30 268 H 30.1209 -0.281998 2.02546 0
M  V30 269 H 28.2759 -2.62457 2.84947 0
M  V30 270 H 28.6899 -1.82969 4.91551 0
M  V30 271 H 30.1639 -3.43362 4.32211 0
M  V30 272 H 30.6409 -3.51897 2.62802 0
M  V30 273 H 31.2469 -2.1915 3.64491 0
M  V30 274 N 29.562 -1.4872 -0.521534 0
M  V30 275 C 30.81 -1.56857 -1.27437 0
M  V30 276 C 31.131 -0.247982 -1.93417 0
M  V30 277 O 30.401 0.731151 -1.81744 0
M  V30 278 H 28.981 -0.577885 -0.473347 0
M  V30 279 H 31.643 -1.85233 -0.606205 0
M  V30 280 H 30.739 -2.35402 -2.0492 0
M  V30 281 N 31.0401 0.771051 -1.3745 0
M  V30 282 C 32.2881 1.52661 -1.32435 0
M  V30 283 C 32.6091 1.9479 0.0905024 0
M  V30 284 O 31.8791 1.66348 1.03466 0
M  V30 285 H 30.4591 0.566218 -0.487244 0
M  V30 286 H 33.1211 0.917636 -1.71946 0
M  V30 287 H 32.2171 2.42568 -1.96385 0
M  V30 288 N 32.5182 1.22032 0.997298 0
M  V30 289 C 33.7432 1.06921 1.77715 0
M  V30 290 C 34.1682 -0.376226 1.84299 0
M  V30 291 O 33.5262 -1.27165 1.29223 0
M  V30 292 C 33.5742 1.67996 3.19076 0
M  V30 293 O 32.6782 0.930653 4.01762 0
M  V30 294 H 32.0192 0.375814 0.547412 0
M  V30 295 H 34.5492 1.61737 1.25309 0
M  V30 296 H 34.5592 1.72538 3.69723 0
M  V30 297 H 33.2342 2.73182 3.13599 0
M  V30 298 H 31.8112 0.960917 3.60307 0
M  V30 299 N 33.9963 -1.19345 1.0293 0
M  V30 300 C 35.2243 -1.92997 0.745644 0
M  V30 301 C 35.6393 -1.75519 -0.695589 0
M  V30 302 O 34.9963 -1.07737 -1.47306 0
M  V30 303 C 35.0473 -3.44741 1.08792 0
M  V30 304 O 34.7683 -3.61658 2.47256 0
M  V30 305 C 36.2693 -4.35515 0.827129 0
M  V30 306 H 33.4893 -0.613042 0.272801 0
M  V30 307 H 36.0333 -1.51473 1.3739 0
M  V30 308 H 34.1883 -3.84097 0.504832 0
M  V30 309 H 34.6023 -4.55514 2.60015 0
M  V30 310 H 36.0763 -5.40589 1.11658 0
M  V30 311 H 36.5533 -4.38552 -0.238436 0
M  V30 312 H 37.1593 -4.01841 1.39297 0
M  V30 313 N 35.4744 -0.807222 -1.35358 0
M  V30 314 C 36.7234 -0.384376 -1.98004 0
M  V30 315 C 37.0364 1.0543 -1.64754 0
M  V30 316 O 38.2424 1.58029 -2.20769 0
M  V30 317 C 36.6984 -0.636326 -3.5423 0
M  V30 318 C 36.3064 -2.08759 -3.96388 0
M  V30 319 C 38.0504 -0.278869 -4.23583 0
M  V30 320 C 35.9574 -2.28525 -5.45463 0
M  V30 321 H 34.8874 -0.139986 -0.740891 0
M  V30 322 H 37.5384 -0.991369 -1.54415 0
M  V30 323 H 35.9204 0.0406256 -3.95979 0
M  V30 324 H 37.0944 -2.8024 -3.6579 0
M  V30 325 H 35.4094 -2.40497 -3.39926 0
M  V30 326 H 38.0064 -0.404599 -5.33167 0
M  V30 327 H 38.3494 0.775012 -4.09022 0
M  V30 328 H 38.8824 -0.909764 -3.87257 0
M  V30 329 H 35.6214 -3.32361 -5.64992 0
M  V30 330 H 35.1414 -1.61569 -5.77629 0
M  V30 331 H 36.8204 -2.10109 -6.11934 0
M  V30 332 N 36.9525 1.47285 -0.560781 0
M  V30 333 C 37.9005 2.31756 0.197942 0
M  V30 334 C 38.8945 1.43146 0.905854 0
M  V30 335 O 40.1005 1.59891 0.826733 0
M  V30 336 H 36.4755 0.747438 0.0827049 0
M  V30 337 H 38.4465 2.9359 -0.533629 0
M  V30 338 C 37.1955 3.25874 1.21249 0
M  V30 339 H 36.5185 3.94023 0.67719 0
M  V30 340 H 37.9585 3.87803 1.71419 0
M  V30 341 C 36.4175 2.49651 2.26221 0
M  V30 342 O 36.9475 2.24355 3.33208 0
M  V30 343 N 35.1535 2.10597 2.00243 0
M  V30 344 H 34.7005 2.31369 1.13252 0
M  V30 345 H 34.6585 1.59913 2.70694 0
M  V30 346 N 38.4306 0.297415 1.54768 0
M  V30 347 C 39.6606 -0.315165 2.04182 0
M  V30 348 C 40.0686 -1.4834 1.17439 0
M  V30 349 O 39.4116 -1.82695 0.191891 0
M  V30 350 C 39.4736 -0.837583 3.49607 0
M  V30 351 C 39.1376 0.204912 4.5654 0
M  V30 352 C 40.1346 1.03214 5.09552 0
M  V30 353 C 37.8196 0.345578 5.0111 0
M  V30 354 C 39.8136 1.986 6.05671 0
M  V30 355 C 37.5006 1.30289 5.97049 0
M  V30 356 C 38.4986 2.12159 6.49213 0
M  V30 357 O 38.1866 3.06268 7.43273 0
M  V30 358 H 37.9186 -0.0729646 0.672051 0
M  V30 359 H 40.4726 0.433907 2.00765 0
M  V30 360 H 38.7026 -1.63712 3.50336 0
M  V30 361 H 40.3916 -1.36566 3.82236 0
M  V30 362 H 41.1576 0.934312 4.75916 0
M  V30 363 H 37.0366 -0.28171 4.60138 0
M  V30 364 H 40.5806 2.62542 6.46311 0
M  V30 365 H 36.4776 1.40145 6.30103 0
M  V30 366 H 37.2456 3.01205 7.61064 0
M  V30 367 N 39.9087 -1.5758 0.0250728 0
M  V30 368 C 41.1367 -1.9593 -0.664747 0
M  V30 369 C 41.5517 -0.901352 -1.65895 0
M  V30 370 O 40.9087 0.117255 -1.82123 0
M  V30 371 C 40.9597 -3.34342 -1.37468 0
M  V30 372 O 40.6807 -4.36079 -0.420324 0
M  V30 373 C 42.1817 -3.873 -2.1567 0
M  V30 374 H 39.4017 -0.645405 -0.183557 0
M  V30 375 H 41.9457 -2.04329 0.0836372 0
M  V30 376 H 40.1007 -3.27175 -2.0745 0
M  V30 377 H 40.5147 -5.16297 -0.923991 0
M  V30 378 H 41.9887 -4.86504 -2.60803 0
M  V30 379 H 42.4657 -3.21331 -2.99405 0
M  V30 380 H 43.0717 -3.97723 -1.50654 0
M  V30 381 N 41.3868 0.248026 -1.55636 0
M  V30 382 C 42.3348 1.32683 -1.91045 0
M  V30 383 C 43.3288 1.49883 -0.789401 0
M  V30 384 O 44.5348 1.51371 -0.974007 0
M  V30 385 H 40.9098 0.444272 -0.606734 0
M  V30 386 H 42.8808 1.00085 -2.81115 0
M  V30 387 C 41.6298 2.6755 -2.22064 0
M  V30 388 H 40.9528 2.55114 -3.07826 0
M  V30 389 H 42.3928 3.41912 -2.50743 0
M  V30 390 C 40.8518 3.20556 -1.0366 0
M  V30 391 O 41.3818 4.00695 -0.284016 0
M  V30 392 N 39.5878 2.78568 -0.82753 0
M  V30 393 H 39.1348 2.1351 -1.44123 0
M  V30 394 H 39.0928 3.14378 -0.0369803 0
M  V30 395 N 42.8649 1.48995 0.513639 0
M  V30 396 C 44.1139 1.57093 1.2651 0
M  V30 397 C 44.4269 0.257091 1.93903 0
M  V30 398 O 45.6329 0.216478 2.70636 0
M  V30 399 C 44.0889 2.77118 2.29638 0
M  V30 400 C 43.6969 4.15209 1.68241 0
M  V30 401 C 45.4409 2.94538 3.05692 0
M  V30 402 C 43.3479 5.26474 2.69406 0
M  V30 403 H 42.2779 0.584876 0.475854 0
M  V30 404 H 44.9289 1.7536 0.540487 0
M  V30 405 H 43.3109 2.52319 3.05207 0
M  V30 406 H 44.4849 4.50094 0.987505 0
M  V30 407 H 42.7999 4.03042 1.04623 0
M  V30 408 H 45.3969 3.74832 3.8132 0
M  V30 409 H 45.7399 2.04614 3.62545 0
M  V30 410 H 46.2729 3.19316 2.37238 0
M  V30 411 H 43.0119 6.18417 2.17351 0
M  V30 412 H 42.5319 4.96058 3.37175 0
M  V30 413 H 44.2109 5.55277 3.32078 0
M  V30 414 N 44.343 -0.763751 1.37857 0
M  V30 415 C 45.291 -1.89864 1.34367 0
M  V30 416 C 46.285 -1.67816 0.231143 0
M  V30 417 O 47.491 -1.75508 0.399617 0
M  V30 418 H 43.866 -0.624501 0.41893 0
M  V30 419 H 45.837 -1.89925 2.30155 0
M  V30 420 C 44.586 -3.27227 1.1755 0
M  V30 421 H 43.909 -3.44773 2.02414 0
M  V30 422 H 45.349 -4.06911 1.1916 0
M  V30 423 C 43.808 -3.36692 -0.118311 0
M  V30 424 O 44.338 -3.86374 -1.09902 0
M  V30 425 N 42.544 -2.90092 -0.171717 0
M  V30 426 H 42.091 -2.49853 0.627012 0
M  V30 427 H 42.049 -2.96806 -1.03699 0
M  V30 428 N 45.8211 -1.22559 -0.990812 0
M  V30 429 C 47.0511 -1.07623 -1.76355 0
M  V30 430 C 47.4591 0.37601 -1.85426 0
M  V30 431 O 46.8021 1.27228 -1.32509 0
M  V30 432 C 46.8641 -1.61507 -3.21179 0
M  V30 433 C 46.5281 -3.10146 -3.35646 0
M  V30 434 C 47.5251 -4.07553 -3.22796 0
M  V30 435 C 45.2101 -3.49644 -3.60631 0
M  V30 436 C 47.2041 -5.42442 -3.34716 0
M  V30 437 C 44.8911 -4.84682 -3.72192 0
M  V30 438 C 45.8891 -5.8089 -3.59243 0
M  V30 439 O 45.5771 -7.13476 -3.70415 0
M  V30 440 H 45.3091 -0.377745 -0.560611 0
M  V30 441 H 47.8631 -1.62658 -1.25425 0
M  V30 442 H 46.0931 -1.00881 -3.73309 0
M  V30 443 H 47.7821 -1.42202 -3.80175 0
M  V30 444 H 48.5481 -3.78381 -3.03403 0
M  V30 445 H 44.4271 -2.75282 -3.69785 0
M  V30 446 H 47.9711 -6.17518 -3.24526 0
M  V30 447 H 43.8681 -5.13534 -3.91092 0
M  V30 448 H 44.6361 -7.21083 -3.87275 0
M  V30 449 N 47.2992 1.18797 -1.03562 0
M  V30 450 C 48.5292 1.92319 -0.754773 0
M  V30 451 C 48.9372 1.7612 0.691248 0
M  V30 452 O 48.2802 1.08491 1.48241 0
M  V30 453 C 48.3422 3.44284 -1.03484 0
M  V30 454 C 48.0062 3.84258 -2.47376 0
M  V30 455 C 49.0032 3.88459 -3.45537 0
M  V30 456 C 46.6882 4.15701 -2.81954 0
M  V30 457 C 48.6822 4.23545 -4.76328 0
M  V30 458 C 46.3692 4.50458 -4.12954 0
M  V30 459 C 47.3672 4.54356 -5.09951 0
M  V30 460 O 47.0552 4.88305 -6.38603 0
M  V30 461 H 46.7872 0.617527 -0.275021 0
M  V30 462 H 49.3412 1.51683 -1.38497 0
M  V30 463 H 47.5712 3.85135 -0.347513 0
M  V30 464 H 49.2602 3.99049 -0.7426 0
M  V30 465 H 50.0262 3.6431 -3.20162 0
M  V30 466 H 45.9052 4.11847 -2.0713 0
M  V30 467 H 49.4492 4.26502 -5.52035 0
M  V30 468 H 45.3462 4.74067 -4.38099 0
M  V30 469 H 46.1142 5.06227 -6.43177 0
M  V30 470 N 48.7773 0.814389 1.34928 0
M  V30 471 C 49.7243 0.22822 2.29669 0
M  V30 472 C 50.6943 -0.642164 1.53184 0
M  V30 473 O 51.8793 -0.585605 1.81591 0
M  V30 474 C 49.0193 -0.61089 3.3965 0
M  V30 475 C 48.1323 0.280792 4.31086 0
M  V30 476 C 47.2673 -0.567067 5.28165 0
M  V30 477 C 46.3063 0.324531 6.11239 0
M  V30 478 N 45.4433 -0.483756 7.00431 0
M  V30 479 H 50.2833 1.04153 2.79206 0
M  V30 480 H 47.8203 0.525133 1.37407 0
M  V30 481 H 49.7783 -1.11263 4.0209 0
M  V30 482 H 48.4083 -1.38939 2.91369 0
M  V30 483 H 47.4603 0.900688 3.69583 0
M  V30 484 H 48.7723 0.966723 4.89342 0
M  V30 485 H 47.9263 -1.13363 5.96015 0
M  V30 486 H 46.6653 -1.28654 4.70425 0
M  V30 487 H 45.6703 0.903298 5.42329 0
M  V30 488 H 46.8953 1.04198 6.71059 0
M  V30 489 H 44.8413 -1.18706 6.45171 0
M  V30 490 H 44.7583 0.143965 7.55863 0
M  V30 491 H 46.0263 -1.03334 7.7262 0
M  V30 492 N 50.2554 -1.46986 0.568584 0
M  V30 493 C 51.5324 -1.95592 -0.0174074 0
M  V30 494 C 51.9124 -1.51124 -1.47393 0
M  V30 495 O 51.2604 -0.755329 -2.15655 0
M  V30 496 C 51.4704 -3.48719 0.139913 0
M  V30 497 C 52.8184 -4.246 0.000426376 0
M  V30 498 O 53.8424 -3.56135 0.0680316 0
M  V30 499 O 52.7014 -5.46302 -0.146988 0
M  V30 500 H 49.7954 -0.82498 -0.0577599 0
M  V30 501 H 52.3414 -1.57335 0.635909 0
M  V30 502 H 51.1134 -3.73927 1.15301 0
M  V30 503 H 50.7364 -3.93771 -0.550491 0
M  V30 504 N 51.7335 -0.305618 -1.54608 0
M  V30 505 C 52.9585 0.307562 -2.05107 0
M  V30 506 C 53.3835 1.46385 -1.18123 0
M  V30 507 O 52.7415 1.8034 -0.186324 0
M  V30 508 C 52.7895 0.73704 -3.52987 0
M  V30 509 O 51.8935 1.84134 -3.6901 0
M  V30 510 H 51.2345 0.0589143 -0.661381 0
M  V30 511 H 53.7645 -0.448807 -1.99617 0
M  V30 512 H 53.7745 1.02459 -3.94925 0
M  V30 513 H 52.4495 -0.108773 -4.15758 0
M  V30 514 H 51.0265 1.55398 -3.38978 0
M  V30 515 N 53.2116 1.57565 -0.0334293 0
M  V30 516 C 54.4416 1.95996 0.653398 0
M  V30 517 C 54.8496 0.908749 1.65947 0
M  V30 518 O 54.1926 -0.117471 1.83324 0
M  V30 519 C 54.2546 3.30589 1.41249 0
M  V30 520 C 53.9186 4.53503 0.564263 0
M  V30 521 C 54.9156 5.19647 -0.16225 0
M  V30 522 C 52.6006 4.99801 0.500398 0
M  V30 523 C 54.5946 6.30412 -0.941255 0
M  V30 524 C 52.2816 6.10448 -0.282308 0
M  V30 525 C 53.2796 6.75612 -1.00184 0
M  V30 526 O 52.9676 7.84134 -1.77171 0
M  V30 527 H 52.6996 0.65027 0.184728 0
M  V30 528 H 55.2536 2.05199 -0.0907841 0
M  V30 529 H 53.4836 3.17888 2.20191 0
M  V30 530 H 55.1726 3.53892 1.98784 0
M  V30 531 H 55.9386 4.84846 -0.12227 0
M  V30 532 H 51.8176 4.48883 1.05002 0
M  V30 533 H 55.3616 6.81208 -1.50339 0
M  V30 534 H 51.2586 6.44686 -0.323989 0
M  V30 535 H 52.0266 8.00822 -1.69194 0
M  V30 536 N 54.6897 -0.239769 1.55765 0
M  V30 537 C 55.6527 -1.28038 1.90103 0
M  V30 538 C 56.6527 -1.40723 0.778055 0
M  V30 539 O 57.8427 -1.39301 1.04599 0
M  V30 540 C 54.9747 -2.65702 2.13577 0
M  V30 541 H 56.1677 -0.988048 2.83157 0
M  V30 542 H 53.7207 -0.479382 1.48767 0
M  V30 543 H 54.4557 -3.00063 1.23015 0
M  V30 544 H 54.2407 -2.57875 2.95369 0
M  V30 545 H 55.7307 -3.40828 2.41301 0
M  V30 546 N 56.1678 -1.49265 -0.50573 0
M  V30 547 C 57.1308 -1.65075 -1.59006 0
M  V30 548 C 58.1308 -0.522768 -1.52065 0
M  V30 549 O 59.3208 -0.789117 -1.55302 0
M  V30 550 C 56.4528 -1.64369 -2.98656 0
M  V30 551 H 57.6458 -2.61784 -1.46319 0
M  V30 552 H 55.1988 -1.38226 -0.729616 0
M  V30 553 H 55.9338 -0.692272 -3.16825 0
M  V30 554 H 55.7188 -2.46282 -3.05103 0
M  V30 555 H 57.2088 -1.78674 -3.77446 0
M  V30 556 N 57.6459 0.756429 -1.3826 0
M  V30 557 C 58.8709 1.55077 -1.37717 0
M  V30 558 C 59.2959 1.88073 0.03164 0
M  V30 559 O 58.6539 1.50364 1.01293 0
M  V30 560 C 58.7019 2.8283 -2.23695 0
M  V30 561 O 57.8059 3.77862 -1.6521 0
M  V30 562 H 57.1469 0.469152 -0.469885 0
M  V30 563 H 59.6769 0.935019 -1.81985 0
M  V30 564 H 59.6869 3.31783 -2.37453 0
M  V30 565 H 58.3619 2.58144 -3.2609 0
M  V30 566 H 56.9389 3.36555 -1.60578 0
M  V30 567 N 59.124 1.23083 0.984299 0
M  V30 568 C 60.087 1.00979 2.05757 0
M  V30 569 C 61.087 -0.0269573 1.60777 0
M  V30 570 O 62.277 0.212403 1.729 0
M  V30 571 C 59.409 0.527072 3.36801 0
M  V30 572 H 60.602 1.9622 2.26799 0
M  V30 573 H 58.155 1.05072 1.15714 0
M  V30 574 H 58.89 -0.429294 3.21446 0
M  V30 575 H 58.675 1.27515 3.70786 0
M  V30 576 H 60.165 0.392942 4.15747 0
M  V30 577 N 60.6021 -1.18246 1.0419 0
M  V30 578 C 61.8271 -1.92736 0.765996 0
M  V30 579 C 62.2521 -1.75728 -0.67091 0
M  V30 580 O 61.6101 -1.06825 -1.46486 0
M  V30 581 C 61.6581 -3.42148 1.13875 0
M  V30 582 O 60.7621 -4.11548 0.264954 0
M  V30 583 H 60.1031 -0.601238 0.281797 0
M  V30 584 H 62.6331 -1.49942 1.39207 0
M  V30 585 H 62.6431 -3.92858 1.1012 0
M  V30 586 H 61.3181 -3.53848 2.18551 0
M  V30 587 H 59.8951 -3.71137 0.362226 0
M  V30 588 N 62.0802 -0.821533 -1.34494 0
M  V30 589 C 63.4962 -0.507117 -1.51329 0
M  V30 590 C 63.6962 0.968964 -1.76673 0
M  V30 591 O 62.7522 1.75348 -1.81685 0
M  V30 592 C 64.0652 -1.36544 -2.67911 0
M  V30 593 C 65.6132 -1.36242 -2.81793 0
M  V30 594 C 66.0882 -2.2052 -4.01416 0
M  V30 595 N 67.5792 -2.18136 -4.08621 0
M  V30 596 C 68.3142 -2.80095 -5.00334 0
M  V30 597 N 67.8102 -3.51039 -5.9728 0
M  V30 598 N 69.6032 -2.69656 -4.93196 0
M  V30 599 H 61.7542 -1.77729 -1.16302 0
M  V30 600 H 64.0172 -0.757291 -0.570276 0
M  V30 601 H 63.7232 -2.41361 -2.55808 0
M  V30 602 H 63.5972 -1.02917 -3.62888 0
M  V30 603 H 65.9842 -0.322041 -2.93338 0
M  V30 604 H 66.0652 -1.73866 -1.87628 0
M  V30 605 H 65.7092 -3.24607 -3.90631 0
M  V30 606 H 65.6392 -1.80247 -4.94791 0
M  V30 607 H 68.1302 -1.6653 -3.39229 0
M  V30 608 H 68.4432 -3.95565 -6.63889 0
M  V30 609 H 66.7882 -3.55145 -5.97409 0
M  V30 610 H 69.9792 -2.13808 -4.16418 0
M  V30 611 H 70.1522 -3.1823 -5.64476 0
M  V30 612 N 63.5583 1.46682 -0.576371 0
M  V30 613 C 64.4903 2.28341 0.198231 0
M  V30 614 C 65.5033 1.38141 0.861453 0
M  V30 615 O 66.6923 1.62797 0.732082 0
M  V30 616 C 63.7923 3.12986 1.29972 0
M  V30 617 C 62.9653 4.31271 0.729639 0
M  V30 618 C 62.0243 4.97363 1.71803 0
M  V30 619 O 61.0503 5.55156 1.25658 0
M  V30 620 N 62.2523 4.93796 3.05198 0
M  V30 621 H 65.0173 2.9546 -0.502324 0
M  V30 622 H 62.5783 1.56525 -0.413715 0
M  V30 623 H 64.5703 3.54066 1.96008 0
M  V30 624 H 63.1403 2.47984 1.90323 0
M  V30 625 H 62.3603 3.94052 -0.108012 0
M  V30 626 H 63.6483 5.07739 0.328438 0
M  V30 627 H 63.0463 4.48077 3.45317 0
M  V30 628 H 61.6033 5.38837 3.6674 0
M  V30 629 N 65.0364 0.313813 1.54444 0
M  V30 630 C 66.3134 -0.345447 1.92525 0
M  V30 631 C 66.6934 -1.70667 1.24242 0
M  V30 632 O 66.0414 -2.25273 0.382654 0
M  V30 633 C 66.2514 -0.44737 3.46121 0
M  V30 634 C 67.5994 -0.712238 4.18584 0
M  V30 635 O 68.6234 -0.530678 3.52225 0
M  V30 636 O 67.4824 -1.06183 5.36085 0
M  V30 637 H 64.5764 -0.195407 0.803583 0
M  V30 638 H 67.1224 0.362813 1.65776 0
M  V30 639 H 65.8944 0.509043 3.87975 0
M  V30 640 H 65.5174 -1.20359 3.78945 0
M  V30 641 N 66.5145 -1.57545 0.0417849 0
M  V30 642 C 67.7615 -1.92317 -0.634082 0
M  V30 643 C 68.0895 -0.919334 -1.71402 0
M  V30 644 O 67.3445 0.0698253 -1.95575 0
M  V30 645 C 67.6435 -3.33794 -1.27735 0
M  V30 646 C 67.3095 -4.49716 -0.326543 0
M  V30 647 C 65.9715 -4.81156 -0.0648814 0
M  V30 648 C 68.3235 -5.20182 0.325623 0
M  V30 649 C 65.6515 -5.80414 0.856539 0
M  V30 650 C 68.0035 -6.20424 1.23518 0
M  V30 651 C 66.6675 -6.50298 1.5056 0
M  V30 652 H 65.9375 -0.703736 -0.232027 0
M  V30 653 H 68.5845 -1.91205 0.106259 0
M  V30 654 H 66.8895 -3.31228 -2.09274 0
M  V30 655 H 68.5865 -3.57975 -1.80707 0
M  V30 656 H 65.1765 -4.25176 -0.540665 0
M  V30 657 H 69.3605 -4.96112 0.136546 0
M  V30 658 H 64.6165 -6.019 1.07363 0
M  V30 659 H 68.7905 -6.74141 1.74664 0
M  V30 660 H 66.4175 -7.27025 2.22123 0
M  V30 661 N 67.9926 0.231505 -1.5589 0
M  V30 662 C 69.2176 0.978689 -1.82856 0
M  V30 663 C 69.6426 1.77559 -0.620846 0
M  V30 664 O 69.0006 1.76119 0.430305 0
M  V30 665 C 69.0486 1.87997 -3.07716 0
M  V30 666 O 68.1526 2.97393 -2.85712 0
M  V30 667 H 67.4936 0.277663 -0.603158 0
M  V30 668 H 70.0236 0.24783 -2.03093 0
M  V30 669 H 70.0336 2.2917 -3.37558 0
M  V30 670 H 68.7086 1.29417 -3.95252 0
M  V30 671 H 67.2856 2.60238 -2.67078 0
M  V30 672 N 69.4707 1.49531 0.497807 0
M  V30 673 C 70.4027 1.62559 1.61578 0
M  V30 674 C 71.4157 0.508134 1.54667 0
M  V30 675 O 72.6047 0.780309 1.60541 0
M  V30 676 C 69.7047 1.56925 3.00379 0
M  V30 677 C 68.8777 2.84257 3.3244 0
M  V30 678 C 67.9367 2.71632 4.50669 0
M  V30 679 O 66.9627 3.4557 4.52294 0
M  V30 680 N 68.1647 1.83391 5.5077 0
M  V30 681 H 70.9297 2.58981 1.50828 0
M  V30 682 H 68.4907 1.4666 0.685743 0
M  V30 683 H 70.4827 1.46129 3.77397 0
M  V30 684 H 69.0527 0.683483 3.05037 0
M  V30 685 H 68.2727 3.09381 2.44289 0
M  V30 686 H 69.5607 3.68666 3.5066 0
M  V30 687 H 68.9587 1.22583 5.52259 0
M  V30 688 H 67.5157 1.78515 6.26878 0
M  V30 689 N 70.9488 -0.749086 1.3866 0
M  V30 690 C 72.2258 -1.4992 1.25632 0
M  V30 691 C 72.6058 -2.10633 -0.140317 0
M  V30 692 O 71.9538 -1.97437 -1.15025 0
M  V30 693 C 72.1638 -2.56195 2.36992 0
M  V30 694 C 73.5118 -3.22972 2.75634 0
M  V30 695 O 74.5358 -2.66502 2.36337 0
M  V30 696 O 73.3948 -4.25122 3.43415 0
M  V30 697 H 70.4888 -0.665067 0.491544 0
M  V30 698 H 73.0348 -0.784113 1.50498 0
M  V30 699 H 71.8068 -2.09612 3.30422 0
M  V30 700 H 71.4298 -3.35279 2.13714 0
M  V30 701 N 72.4269 -1.23603 -0.977757 0
M  V30 702 C 73.8379 -1.06424 -1.53398 0
M  V30 703 C 74.1889 0.367578 -1.92726 0
M  V30 704 O 73.3139 1.25465 -1.76316 0
M  V30 705 C 73.9089 -1.92568 -2.78753 0
M  V30 706 C 72.4679 -1.79642 -3.30765 0
M  V30 707 C 71.6149 -1.88111 -2.03739 0
M  V30 708 H 74.5659 -1.37227 -0.797152 0
M  V30 709 H 74.5869 -1.45203 -3.51705 0
M  V30 710 H 74.0989 -2.96771 -2.50098 0
M  V30 711 H 72.1999 -0.782325 -3.64294 0
M  V30 712 H 72.3129 -2.63174 -4.00345 0
M  V30 713 H 70.6769 -1.31723 -2.17994 0
M  V30 714 H 71.4599 -2.93875 -1.77461 0
M  V30 715 N 73.905 1.17692 -1.04816 0
M  V30 716 C 75.13 1.92327 -0.776207 0
M  V30 717 C 75.555 1.76082 0.661581 0
M  V30 718 O 74.913 1.076 1.45917 0
M  V30 719 C 74.961 3.41539 -1.15687 0
M  V30 720 O 74.065 4.11402 -0.286775 0
M  V30 721 H 73.406 0.599735 -0.284981 0
M  V30 722 H 75.936 1.49201 -1.4 0
M  V30 723 H 75.946 3.92269 -1.12202 0
M  V30 724 H 74.621 3.52684 -2.20425 0
M  V30 725 H 73.198 3.70939 -0.381903 0
M  V30 726 N 75.3831 0.828654 1.34056 0
M  V30 727 C 76.3301 0.252567 2.29414 0
M  V30 728 C 77.3001 -0.62588 1.53857 0
M  V30 729 O 78.4851 -0.566312 1.82202 0
M  V30 730 C 75.6251 -0.574831 3.40279 0
M  V30 731 C 74.7381 0.326499 4.30764 0
M  V30 732 C 73.8731 -0.511016 5.28736 0
M  V30 733 C 72.9121 0.389342 6.1086 0
M  V30 734 N 72.0491 -0.409439 7.00905 0
M  V30 735 H 76.8891 1.07108 2.78086 0
M  V30 736 H 74.4261 0.539677 1.36843 0
M  V30 737 H 76.3841 -1.06992 4.03248 0
M  V30 738 H 75.0141 -1.35841 2.92826 0
M  V30 739 H 74.0661 0.939837 3.68607 0
M  V30 740 H 75.3781 1.01857 4.88289 0
M  V30 741 H 74.5321 -1.07035 5.97184 0
M  V30 742 H 73.2711 -1.23657 4.71763 0
M  V30 743 H 72.2761 0.960769 5.4134 0
M  V30 744 H 73.5011 1.1131 6.69916 0
M  V30 745 H 71.4471 -1.11856 6.46393 0
M  V30 746 H 71.3641 0.224126 7.55668 0
M  V30 747 H 72.6321 -0.951336 7.73673 0
M  V30 748 N 76.8612 -1.46375 0.584142 0
M  V30 749 C 78.1082 -2.02378 0.0702675 0
M  V30 750 C 78.4362 -1.45545 -1.29023 0
M  V30 751 O 77.6912 -0.610967 -1.85918 0
M  V30 752 C 77.9902 -3.57373 -0.0439342 0
M  V30 753 C 77.6562 -4.33252 1.24915 0
M  V30 754 C 76.3182 -4.53701 1.60341 0
M  V30 755 C 78.6702 -4.7681 2.1048 0
M  V30 756 C 75.9982 -5.1496 2.81128 0
M  V30 757 C 78.3502 -5.39404 3.30494 0
M  V30 758 C 77.0142 -5.5808 3.66201 0
M  V30 759 H 76.2842 -0.740554 0.0257127 0
M  V30 760 H 78.9312 -1.75727 0.761065 0
M  V30 761 H 77.2362 -3.83169 -0.817869 0
M  V30 762 H 78.9332 -3.98384 -0.457318 0
M  V30 763 H 75.5232 -4.17633 0.963364 0
M  V30 764 H 79.7072 -4.60766 1.84414 0
M  V30 765 H 74.9632 -5.27611 3.08928 0
M  V30 766 H 79.1372 -5.72114 3.97063 0
M  V30 767 H 76.7642 -6.05318 4.59885 0
M  V30 768 N 78.3393 -0.321999 -1.54275 0
M  V30 769 C 79.5673 0.283052 -2.04955 0
M  V30 770 C 79.9823 1.45904 -1.19823 0
M  V30 771 O 79.3393 1.81063 -0.228545 0
M  V30 772 C 79.3903 0.719028 -3.54277 0
M  V30 773 O 79.1113 -0.410175 -4.36176 0
M  V30 774 C 80.6123 1.38705 -4.21041 0
M  V30 775 H 77.8323 0.0584616 -0.668448 0
M  V30 776 H 80.3763 -0.467734 -1.99079 0
M  V30 777 H 78.5313 1.41979 -3.60445 0
M  V30 778 H 78.9453 -0.0669416 -5.24457 0
M  V30 779 H 80.4193 1.64306 -5.2698 0
M  V30 780 H 80.8963 2.33385 -3.72059 0
M  V30 781 H 81.5023 0.728906 -4.19007 0
M  V30 782 N 79.8174 1.5752 -0.0501392 0
M  V30 783 C 80.7644 2.1147 0.924603 0
M  V30 784 C 81.7344 1.02182 1.30951 0
M  V30 785 O 82.9194 1.29723 1.39916 0
M  V30 786 C 80.0594 2.66337 2.19451 0
M  V30 787 C 79.1724 3.89708 1.86418 0
M  V30 788 C 78.3074 4.32893 3.07859 0
M  V30 789 C 77.3464 5.48967 2.70742 0
M  V30 790 N 76.4834 5.87211 3.84874 0
M  V30 791 H 81.3234 2.94465 0.457639 0
M  V30 792 H 78.8604 1.45531 0.214266 0
M  V30 793 H 80.8184 2.96247 2.93758 0
M  V30 794 H 79.4484 1.86141 2.63726 0
M  V30 795 H 78.5004 3.66396 1.02264 0
M  V30 796 H 79.8124 4.74074 1.55096 0
M  V30 797 H 78.9664 4.6435 3.90466 0
M  V30 798 H 77.7054 3.47336 3.42358 0
M  V30 799 H 76.7104 5.17183 1.86551 0
M  V30 800 H 77.9354 6.3624 2.37436 0
M  V30 801 H 75.8814 5.04607 4.19175 0
M  V30 802 H 75.7984 6.66266 3.57247 0
M  V30 803 H 77.0664 6.23282 4.68123 0
M  V30 804 N 81.2955 -0.223234 1.56011 0
M  V30 805 C 82.7065 -0.790368 1.69145 0
M  V30 806 C 83.0575 -1.85055 0.651845 0
M  V30 807 O 82.1825 -2.15498 -0.197359 0
M  V30 808 C 82.7775 -1.4404 3.06656 0
M  V30 809 C 81.3365 -1.95494 3.2165 0
M  V30 810 C 80.4835 -0.814506 2.65068 0
M  V30 811 H 83.4345 0.00139011 1.587 0
M  V30 812 H 83.4555 -2.30916 3.0242 0
M  V30 813 H 82.9675 -0.668543 3.82298 0
M  V30 814 H 81.0685 -2.75487 2.50874 0
M  V30 815 H 81.1815 -2.13607 4.28846 0
M  V30 816 H 79.5455 -1.22137 2.23505 0
M  V30 817 H 80.3285 -0.0553515 3.43255 0
M  V30 818 N 82.7736 -1.49793 -0.48987 0
M  V30 819 C 84.0196 -1.60078 -1.24511 0
M  V30 820 C 84.3526 -0.291608 -1.91998 0
M  V30 821 O 83.6276 0.705647 -1.81248 0
M  V30 822 C 83.9106 -2.76791 -2.30345 0
M  V30 823 C 83.7636 -4.17535 -1.67286 0
M  V30 824 C 85.0826 -2.89111 -3.31817 0
M  V30 825 H 82.2016 -0.582645 -0.451324 0
M  V30 826 H 84.8436 -1.82117 -0.541612 0
M  V30 827 H 82.9936 -2.5813 -2.90346 0
M  V30 828 H 84.6656 -4.4774 -1.11026 0
M  V30 829 H 82.9086 -4.22665 -0.976577 0
M  V30 830 H 83.5796 -4.95094 -2.44103 0
M  V30 831 H 86.0556 -3.06133 -2.81819 0
M  V30 832 H 84.9316 -3.72433 -4.03219 0
M  V30 833 H 85.1926 -1.9893 -3.94815 0
M  V30 834 N 84.2517 0.741722 -1.39055 0
M  V30 835 C 85.4977 1.50336 -1.36113 0
M  V30 836 C 85.8307 1.94148 0.0450796 0
M  V30 837 O 85.1057 1.66301 1.00868 0
M  V30 838 C 85.3887 2.74773 -2.32749 0
M  V30 839 C 85.2417 2.37023 -3.82283 0
M  V30 840 C 86.5607 3.76846 -2.27322 0
M  V30 841 H 83.6797 0.545351 -0.495743 0
M  V30 842 H 86.3217 0.848624 -1.69995 0
M  V30 843 H 84.4717 3.30639 -2.03986 0
M  V30 844 H 86.1437 1.8684 -4.21768 0
M  V30 845 H 84.3867 1.69334 -3.99385 0
M  V30 846 H 85.0577 3.26104 -4.45376 0
M  V30 847 H 87.5337 3.30548 -2.5274 0
M  V30 848 H 86.4097 4.6159 -2.97028 0
M  V30 849 H 86.6707 4.23286 -1.27599 0
M  V30 850 N 85.7298 1.2412 0.971189 0
M  V30 851 C 87.0068 0.986867 1.6888 0
M  V30 852 C 87.3868 -0.491857 2.0529 0
M  V30 853 O 86.7348 -1.46531 1.75331 0
M  V30 854 C 86.9448 1.9063 2.92338 0
M  V30 855 C 88.2928 2.17515 3.64654 0
M  V30 856 O 89.3168 1.88254 3.02388 0
M  V30 857 O 88.1758 2.6719 4.7673 0
M  V30 858 H 85.2698 0.372944 0.738134 0
M  V30 859 H 87.8158 1.35203 1.02559 0
M  V30 860 H 86.5878 2.90552 2.62097 0
M  V30 861 H 86.2108 1.54408 3.66393 0
M  V30 862 N 87.2079 -1.17134 1.05439 0
M  V30 863 C 88.1709 -2.19439 0.661764 0
M  V30 864 C 89.1709 -1.58199 -0.288042 0
M  V30 865 O 90.3609 -1.74053 -0.0715803 0
M  V30 866 C 87.4929 -3.40889 -0.0276209 0
M  V30 867 H 88.6859 -2.55688 1.56728 0
M  V30 868 H 86.2389 -1.31259 0.848567 0
M  V30 869 H 86.9739 -3.10187 -0.94629 0
M  V30 870 H 86.7589 -3.86586 0.655238 0
M  V30 871 H 88.2489 -4.16603 -0.288342 0
M  V30 872 N 88.686 -0.835752 -1.33615 0
M  V30 873 C 89.616 -0.281739 -2.31794 0
M  V30 874 C 90.597 0.608833 -1.58831 0
M  V30 875 O 91.782 0.533035 -1.86741 0
M  V30 876 C 88.912 0.546612 -3.42971 0
M  V30 877 C 87.866 -0.247904 -4.27281 0
M  V30 878 C 87.192 0.704001 -5.30045 0
M  V30 879 C 88.492 -1.46324 -5.01385 0
M  V30 880 H 90.186 -1.10206 -2.78379 0
M  V30 881 H 87.732 -0.531388 -1.33837 0
M  V30 882 H 89.685 0.944467 -4.1068 0
M  V30 883 H 88.409 1.40011 -2.95067 0
M  V30 884 H 87.068 -0.627281 -3.61194 0
M  V30 885 H 86.716 1.55381 -4.78399 0
M  V30 886 H 86.416 0.176524 -5.87335 0
M  V30 887 H 87.94 1.09944 -6.0062 0
M  V30 888 H 89.354 -1.13871 -5.61877 0
M  V30 889 H 87.751 -1.92728 -5.6831 0
M  V30 890 H 88.821 -2.23467 -4.30338 0
M  V30 891 N 90.1641 1.46063 -0.591896 0
M  V30 892 C 91.3921 2.06717 -0.0868936 0
M  V30 893 C 91.8071 1.43916 1.22203 0
M  V30 894 O 91.1641 0.547698 1.74088 0
M  V30 895 C 91.2151 3.6142 0.0758725 0
M  V30 896 O 90.9361 4.21874 -1.18126 0
M  V30 897 C 92.4371 4.39025 0.61416 0
M  V30 898 H 89.6571 0.668162 -0.0616518 0
M  V30 899 H 92.2011 1.8755 -0.815175 0
M  V30 900 H 90.3561 3.79983 0.754413 0
M  V30 901 H 90.7701 5.14861 -1.00092 0
M  V30 902 H 92.2441 5.4783 0.677193 0
M  V30 903 H 92.7211 4.07708 1.63312 0
M  V30 904 H 93.3271 4.2529 -0.0298142 0
M  V30 905 N 91.6422 0.330177 1.54103 0
M  V30 906 C 92.5522 -0.541534 2.28264 0
M  V30 907 C 93.5682 -1.12351 1.32866 0
M  V30 908 O 94.7442 -1.14206 1.65888 0
M  V30 909 C 91.8092 -1.68322 3.03098 0
M  V30 910 C 90.8702 -1.13238 4.14096 0
M  V30 911 C 90.1032 -2.21966 4.85352 0
M  V30 912 O 90.3262 -3.42437 4.56172 0
M  V30 913 O 89.2602 -1.87013 5.7211 0
M  V30 914 H 93.0862 0.060938 3.03639 0
M  V30 915 H 90.6712 0.09565 1.49093 0
M  V30 916 H 92.5532 -2.34777 3.49939 0
M  V30 917 H 91.2282 -2.27176 2.30593 0
M  V30 918 H 90.1352 -0.432736 3.71589 0
M  V30 919 H 91.4682 -0.588898 4.88664 0
M  V30 920 N 93.1203 -1.57491 0.0584922 0
M  V30 921 C 94.0833 -2.1085 -0.898617 0
M  V30 922 C 95.0833 -1.02964 -1.23511 0
M  V30 923 O 96.2733 -1.29007 -1.17059 0
M  V30 924 C 93.4053 -2.59881 -2.20623 0
M  V30 925 H 94.5983 -2.96715 -0.435936 0
M  V30 926 H 92.1513 -1.55141 -0.190023 0
M  V30 927 H 92.8863 -1.77431 -2.71457 0
M  V30 928 H 92.6713 -3.38727 -1.97501 0
M  V30 929 H 94.1613 -3.01285 -2.89166 0
M  V30 930 N 94.5984 0.214957 -1.56127 0
M  V30 931 C 95.5614 1.24997 -1.92116 0
M  V30 932 C 96.5614 1.39467 -0.800344 0
M  V30 933 O 97.7514 1.37619 -1.06802 0
M  V30 934 C 94.8834 2.62271 -2.17777 0
M  V30 935 H 96.0764 0.942875 -2.84693 0
M  V30 936 H 93.6294 0.455654 -1.49511 0
M  V30 937 H 94.3644 2.98068 -1.27773 0
M  V30 938 H 94.1494 2.53143 -2.99434 0
M  V30 939 H 95.6394 3.36946 -2.46693 0
M  V30 940 N 96.0765 1.50051 0.48192 0
M  V30 941 C 97.3225 1.60736 1.2366 0
M  V30 942 C 97.6555 0.301786 1.91841 0
M  V30 943 O 96.9305 -0.696025 1.8162 0
M  V30 944 C 97.2135 2.78009 2.28874 0
M  V30 945 C 97.0665 4.18416 1.65069 0
M  V30 946 C 98.3855 2.90867 3.30279 0
M  V30 947 H 95.5045 0.585031 0.448228 0
M  V30 948 H 98.1465 1.82402 0.531946 0
M  V30 949 H 96.2965 2.59667 2.88973 0
M  V30 950 H 97.9685 4.48322 1.0865 0
M  V30 951 H 96.2115 4.23177 0.954148 0
M  V30 952 H 96.8825 4.96381 2.41474 0
M  V30 953 H 99.3585 3.07623 2.80191 0
M  V30 954 H 98.2345 3.74566 4.01238 0
M  V30 955 H 98.4955 2.01021 3.93755 0
M  V30 956 N 97.5546 -0.734337 1.39446 0
M  V30 957 C 98.9656 -1.31264 1.32766 0
M  V30 958 C 99.3166 -1.96198 -0.00767497 0
M  V30 959 O 98.4416 -1.96346 -0.909796 0
M  V30 960 C 99.0366 -2.38682 2.4045 0
M  V30 961 C 97.5956 -2.92184 2.37288 0
M  V30 962 C 96.7426 -1.6576 2.22304 0
M  V30 963 H 99.6936 -0.531799 1.49525 0
M  V30 964 H 99.7146 -3.19087 2.07276 0
M  V30 965 H 99.2266 -1.91392 3.37625 0
M  V30 966 H 97.3276 -3.43752 1.43754 0
M  V30 967 H 97.4406 -3.45253 3.3217 0
M  V30 968 H 95.8046 -1.9012 1.69489 0
M  V30 969 H 96.5876 -1.20521 3.21449 0
M  V30 970 N 99.0327 -1.24633 -0.964593 0
M  V30 971 C 99.9627 -1.06611 -2.07741 0
M  V30 972 C 100.944 0.0218666 -1.70086 0
M  V30 973 O 102.129 -0.145793 -1.93652 0
M  V30 974 C 99.2587 -0.673444 -3.40708 0
M  V30 975 C 98.2127 -1.71054 -3.92332 0
M  V30 976 C 97.5387 -1.17285 -5.21678 0
M  V30 977 C 98.8387 -3.10718 -4.19824 0
M  V30 978 H 100.533 -1.99693 -2.23076 0
M  V30 979 H 98.0787 -0.96152 -1.07195 0
M  V30 980 H 100.032 -0.534345 -4.17998 0
M  V30 981 H 98.7557 0.293073 -3.25282 0
M  V30 982 H 97.4147 -1.83791 -3.17201 0
M  V30 983 H 97.0627 -0.196847 -5.02615 0
M  V30 984 H 96.7627 -1.86592 -5.57187 0
M  V30 985 H 98.2867 -1.04593 -6.01575 0
M  V30 986 H 99.7007 -3.01192 -4.87808 0
M  V30 987 H 98.0977 -3.77406 -4.66567 0
M  V30 988 H 99.1677 -3.58524 -3.26479 0
M  V30 989 N 100.511 1.16574 -1.06058 0
M  V30 990 C 101.458 2.20883 -0.669263 0
M  V30 991 C 102.428 1.62729 0.332918 0
M  V30 992 O 103.613 1.895 0.222346 0
M  V30 993 C 100.753 3.45049 -0.0593572 0
M  V30 994 C 99.8658 4.17458 -1.11143 0
M  V30 995 C 99.0008 5.29135 -0.467916 0
M  V30 996 C 98.0398 5.93343 -1.50369 0
M  V30 997 N 97.1768 6.96516 -0.883706 0
M  V30 998 H 102.017 2.53709 -1.5632 0
M  V30 999 H 99.5538 1.24616 -0.781625 0
M  V30 1000 H 101.512 4.16033 0.311771 0
M  V30 1001 H 100.142 3.12781 0.797992 0
M  V30 1002 H 99.1938 3.45101 -1.60029 0
M  V30 1003 H 100.506 4.61307 -1.89731 0
M  V30 1004 H 99.6598 6.06684 -0.0436871 0
M  V30 1005 H 98.3988 4.86443 0.349864 0
M  V30 1006 H 97.4038 5.14517 -1.93784 0
M  V30 1007 H 98.6288 6.38114 -2.32352 0
M  V30 1008 H 96.5748 6.55943 -0.086595 0
M  V30 1009 H 96.4918 7.38723 -1.607 0
M  V30 1010 H 97.7598 7.77993 -0.484543 0
M  V30 1011 N 101.989 0.842826 1.3317 0
M  V30 1012 C 103.214 0.453129 2.02389 0
M  V30 1013 C 103.639 -0.939105 1.6298 0
M  V30 1014 O 102.997 -1.61472 0.8244 0
M  V30 1015 C 103.045 0.586094 3.55805 0
M  V30 1016 O 102.149 -0.386029 4.10589 0
M  V30 1017 H 101.49 0.183664 0.638094 0
M  V30 1018 H 104.02 1.13875 1.69981 0
M  V30 1019 H 104.03 0.469209 4.05293 0
M  V30 1020 H 102.705 1.6014 3.83833 0
M  V30 1021 H 101.282 -0.226371 3.72212 0
M  V30 1022 N 103.467 -1.45747 0.599634 0
M  V30 1023 C 104.878 -1.85853 0.177681 0
M  V30 1024 C 105.229 -1.50102 -1.26348 0
M  V30 1025 O 104.354 -0.923905 -1.95686 0
M  V30 1026 C 104.949 -3.37326 0.315688 0
M  V30 1027 C 103.508 -3.76365 -0.0515144 0
M  V30 1028 C 102.655 -2.69722 0.643822 0
M  V30 1029 H 105.606 -1.36661 0.806814 0
M  V30 1030 H 105.627 -3.77778 -0.454321 0
M  V30 1031 H 105.139 -3.63315 1.36468 0
M  V30 1032 H 103.24 -3.55993 -1.09999 0
M  V30 1033 H 103.353 -4.77916 0.336594 0
M  V30 1034 H 101.717 -2.54567 0.0822881 0
M  V30 1035 H 102.5 -2.98549 1.6948 0
M  V30 1036 N 104.945 -0.338344 -1.53925 0
M  V30 1037 C 106.17 0.263987 -2.05713 0
M  V30 1038 C 106.595 1.43847 -1.21201 0
M  V30 1039 O 105.953 1.79904 -0.224535 0
M  V30 1040 C 106.001 0.662 -3.54471 0
M  V30 1041 O 105.105 1.76265 -3.72833 0
M  V30 1042 H 104.446 0.0448722 -0.662482 0
M  V30 1043 H 106.976 -0.491048 -1.9862 0
M  V30 1044 H 106.986 0.940594 -3.9701 0
M  V30 1045 H 105.661 -0.196937 -4.15433 0
M  V30 1046 H 104.238 1.48173 -3.42198 0
M  V30 1047 N 106.423 1.57458 -0.0668435 0
M  V30 1048 C 107.386 2.11323 0.887422 0
M  V30 1049 C 108.386 1.03618 1.22964 0
M  V30 1050 O 109.576 1.29626 1.16373 0
M  V30 1051 C 106.708 2.61048 2.19242 0
M  V30 1052 H 107.901 2.96942 0.420194 0
M  V30 1053 H 105.454 1.55239 0.181793 0
M  V30 1054 H 106.189 1.78868 2.70512 0
M  V30 1055 H 105.974 3.39769 1.95702 0
M  V30 1056 H 107.464 3.02814 2.87565 0
M  V30 1057 N 107.901 -0.206675 1.56239 0
M  V30 1058 C 108.811 -1.27686 1.96808 0
M  V30 1059 C 109.827 -1.50455 0.874035 0
M  V30 1060 O 111.003 -1.63295 1.17884 0
M  V30 1061 C 108.068 -2.60358 2.28942 0
M  V30 1062 C 107.129 -2.45762 3.51994 0
M  V30 1063 C 106.362 -3.72108 3.82585 0
M  V30 1064 O 106.585 -4.75776 3.14631 0
M  V30 1065 O 105.519 -3.6833 4.76043 0
M  V30 1066 H 109.345 -0.962593 2.88041 0
M  V30 1067 H 106.93 -0.410746 1.43643 0
M  V30 1068 H 108.812 -3.38687 2.50737 0
M  V30 1069 H 107.487 -2.91435 1.4088 0
M  V30 1070 H 106.394 -1.65584 3.35459 0
M  V30 1071 H 107.727 -2.19621 4.40486 0
M  V30 1072 N 109.379 -1.50304 -0.473955 0
M  V30 1073 C 110.342 -1.6841 -1.55469 0
M  V30 1074 C 111.342 -0.554905 -1.50922 0
M  V30 1075 O 112.532 -0.821882 -1.53593 0
M  V30 1076 C 109.664 -1.70667 -2.95102 0
M  V30 1077 H 110.857 -2.64828 -1.40733 0
M  V30 1078 H 108.41 -1.39742 -0.700132 0
M  V30 1079 H 109.145 -0.75932 -3.15285 0
M  V30 1080 H 108.93 -2.52698 -2.9981 0
M  V30 1081 H 110.42 -1.8664 -3.73571 0
M  V30 1082 N 110.857 0.726932 -1.39834 0
M  V30 1083 C 112.097 1.4992 -1.38936 0
M  V30 1084 C 112.461 1.91996 0.0126883 0
M  V30 1085 O 113.662 2.68399 0.146715 0
M  V30 1086 C 111.933 2.70013 -2.34153 0
M  V30 1087 S 113.492 3.59563 -2.51515 0
M  V30 1088 H 110.31 0.51271 -0.492595 0
M  V30 1089 H 112.912 0.85107 -1.76003 0
M  V30 1090 H 111.616 2.37254 -3.34871 0
M  V30 1091 H 111.147 3.39748 -1.98331 0
M  V30 1092 H 113.162 4.63973 -1.75909 0
M  V30 1093 N 112.336 1.25143 0.95797 0
M  V30 1094 C 113.584 1.09476 1.69881 0
M  V30 1095 C 113.905 -0.365502 1.91544 0
M  V30 1096 O 113.175 -1.25985 1.50015 0
M  V30 1097 H 111.755 0.402128 0.629525 0
M  V30 1098 H 114.417 1.57214 1.15194 0
M  V30 1099 H 113.513 1.60046 2.6794 0
M  V30 1100 N 113.814 -1.1601 1.06675 0
M  V30 1101 C 115.044 -1.90251 0.805497 0
M  V30 1102 C 115.452 -1.77891 -0.64431 0
M  V30 1103 O 114.795 -1.12383 -1.45313 0
M  V30 1104 C 114.857 -3.41419 1.12576 0
M  V30 1105 C 114.521 -3.77564 2.57477 0
M  V30 1106 C 115.518 -3.79161 3.55715 0
M  V30 1107 C 113.203 -4.08079 2.92877 0
M  V30 1108 C 115.197 -4.10767 4.8739 0
M  V30 1109 C 112.884 -4.39351 4.24751 0
M  V30 1110 C 113.882 -4.40675 5.21818 0
M  V30 1111 O 113.57 -4.71202 6.51325 0
M  V30 1112 H 113.302 -0.610018 0.291297 0
M  V30 1113 H 115.856 -1.47958 1.4247 0
M  V30 1114 H 114.086 -3.84079 0.449503 0
M  V30 1115 H 115.775 -3.9694 0.84814 0
M  V30 1116 H 116.541 -3.55693 3.29708 0
M  V30 1117 H 112.42 -4.06211 2.17976 0
M  V30 1118 H 115.964 -4.11715 5.63148 0
M  V30 1119 H 111.861 -4.62285 4.50514 0
M  V30 1120 H 112.629 -4.88996 6.56373 0
M  V30 1121 N 115.292 -0.849877 -1.32721 0
M  V30 1122 C 116.517 -0.463856 -2.02146 0
M  V30 1123 C 116.942 0.930449 -1.63476 0
M  V30 1124 O 116.3 1.61033 -0.832952 0
M  V30 1125 C 116.348 -0.604955 -3.55489 0
M  V30 1126 O 115.452 0.36425 -4.10788 0
M  V30 1127 H 114.793 -0.187046 -0.637111 0
M  V30 1128 H 117.323 -1.14775 -1.69375 0
M  V30 1129 H 117.333 -0.490696 -4.05038 0
M  V30 1130 H 116.008 -1.62174 -3.82978 0
M  V30 1131 H 114.585 0.206628 -3.72327 0
M  V30 1132 N 116.77 1.45427 -0.607355 0
M  V30 1133 C 118.047 1.9557 -0.0344566 0
M  V30 1134 C 118.427 1.54979 1.43334 0
M  V30 1135 O 117.775 0.812241 2.13576 0
M  V30 1136 C 117.985 3.48226 -0.232321 0
M  V30 1137 C 119.333 4.2445 -0.113001 0
M  V30 1138 O 120.357 3.55829 -0.162431 0
M  V30 1139 O 119.216 5.465 0.00209442 0
M  V30 1140 H 116.31 0.826222 0.0358667 0
M  V30 1141 H 118.856 1.55594 -0.6774 0
M  V30 1142 H 117.628 3.70739 -1.25174 0
M  V30 1143 H 117.251 3.95092 0.445896 0
M  V30 1144 N 118.248 0.346503 1.53744 0
M  V30 1145 C 119.664 -0.00530975 1.59599 0
M  V30 1146 C 119.864 -1.48465 1.36236 0
M  V30 1147 O 118.92 -2.24376 1.15808 0
M  V30 1148 C 120.233 0.433516 2.97559 0
M  V30 1149 C 121.781 0.386111 3.10609 0
M  V30 1150 C 122.256 0.800451 4.50951 0
M  V30 1151 N 123.747 0.754753 4.5701 0
M  V30 1152 C 124.482 1.04727 5.63755 0
M  V30 1153 N 123.978 1.4081 6.7834 0
M  V30 1154 N 125.771 0.971316 5.53644 0
M  V30 1155 H 117.922 1.31009 1.67184 0
M  V30 1156 H 120.185 0.534242 0.783128 0
M  V30 1157 H 119.891 1.46509 3.19731 0
M  V30 1158 H 119.765 -0.189753 3.76722 0
M  V30 1159 H 122.152 -0.636295 2.88158 0
M  V30 1160 H 122.233 1.04462 2.33498 0
M  V30 1161 H 121.877 1.82088 4.74137 0
M  V30 1162 H 121.807 0.119386 5.26465 0
M  V30 1163 H 124.298 0.488662 3.74727 0
M  V30 1164 H 124.611 1.61607 7.55714 0
M  V30 1165 H 122.956 1.44657 6.79779 0
M  V30 1166 H 126.147 0.688748 4.63005 0
M  V30 1167 H 126.32 1.20263 6.36742 0
M  V30 1168 N 119.726 -1.57421 0.075193 0
M  V30 1169 C 120.972 -1.93905 -0.594025 0
M  V30 1170 C 121.305 -0.955701 -1.69056 0
M  V30 1171 O 120.58 0.0145373 -1.94495 0
M  V30 1172 C 120.863 -3.40638 -1.1678 0
M  V30 1173 C 120.716 -4.49733 -0.0776792 0
M  V30 1174 C 122.035 -3.88259 -2.07228 0
M  V30 1175 H 119.154 -0.705105 -0.214466 0
M  V30 1176 H 121.796 -1.8947 0.141854 0
M  V30 1177 H 119.946 -3.44549 -1.79494 0
M  V30 1178 H 121.618 -4.57942 0.555573 0
M  V30 1179 H 119.861 -4.29751 0.591286 0
M  V30 1180 H 120.532 -5.49549 -0.519603 0
M  V30 1181 H 123.008 -3.86376 -1.54445 0
M  V30 1182 H 121.884 -4.91533 -2.44308 0
M  V30 1183 H 122.145 -3.26396 -2.98191 0
M  V30 1184 N 121.204 0.198386 -1.56346 0
M  V30 1185 C 122.134 1.24865 -1.9731 0
M  V30 1186 C 123.115 1.47651 -0.844576 0
M  V30 1187 O 124.3 1.59444 -1.10866 0
M  V30 1188 C 121.43 2.59358 -2.30977 0
M  V30 1189 C 120.384 2.5119 -3.46537 0
M  V30 1190 C 119.71 3.89926 -3.65871 0
M  V30 1191 C 121.01 2.03977 -4.80823 0
M  V30 1192 H 122.704 0.908252 -2.85291 0
M  V30 1193 H 120.25 0.435462 -1.37258 0
M  V30 1194 H 122.203 3.33011 -2.58228 0
M  V30 1195 H 120.927 2.95132 -1.39874 0
M  V30 1196 H 119.586 1.79993 -3.19371 0
M  V30 1197 H 119.234 4.23046 -2.72105 0
M  V30 1198 H 118.934 3.85336 -4.4361 0
M  V30 1199 H 120.458 4.65205 -3.95495 0
M  V30 1200 H 121.872 2.67386 -5.07127 0
M  V30 1201 H 120.269 2.10397 -5.62008 0
M  V30 1202 H 121.339 0.992861 -4.74626 0
M  V30 1203 N 122.682 1.50554 0.465978 0
M  V30 1204 C 123.614 1.65949 1.58093 0
M  V30 1205 C 124.627 0.540827 1.53554 0
M  V30 1206 O 125.816 0.814187 1.5885 0
M  V30 1207 C 122.916 1.63261 2.96983 0
M  V30 1208 C 122.089 2.91245 3.26336 0
M  V30 1209 C 121.148 2.8113 4.44806 0
M  V30 1210 O 120.174 3.55086 4.44862 0
M  V30 1211 N 121.376 1.95032 5.46756 0
M  V30 1212 H 124.141 2.62122 1.45301 0
M  V30 1213 H 121.702 1.48082 0.65448 0
M  V30 1214 H 123.694 1.54101 3.74212 0
M  V30 1215 H 122.264 0.748032 3.03518 0
M  V30 1216 H 121.484 3.14493 2.37672 0
M  V30 1217 H 122.772 3.76022 3.42761 0
M  V30 1218 H 122.17 1.3427 5.49534 0
M  V30 1219 H 120.727 1.91772 6.2295 0
M  V30 1220 N 124.16 -0.719506 1.40217 0
M  V30 1221 C 125.09 -1.8465 1.42922 0
M  V30 1222 C 126.071 -1.67599 0.29062 0
M  V30 1223 O 127.256 -1.87688 0.498677 0
M  V30 1224 C 124.386 -3.22565 1.28722 0
M  V30 1225 C 123.34 -3.54281 2.40144 0
M  V30 1226 C 122.666 -4.91298 2.11023 0
M  V30 1227 C 123.966 -3.55676 3.82481 0
M  V30 1228 H 125.66 -1.82644 2.37237 0
M  V30 1229 H 123.206 -0.877305 1.1419 0
M  V30 1230 H 125.159 -4.01095 1.29232 0
M  V30 1231 H 123.883 -3.25137 0.308811 0
M  V30 1232 H 122.542 -2.78088 2.38877 0
M  V30 1233 H 122.19 -4.90468 1.11582 0
M  V30 1234 H 121.89 -5.13485 2.8567 0
M  V30 1235 H 123.414 -5.72166 2.13209 0
M  V30 1236 H 124.828 -4.24254 3.85592 0
M  V30 1237 H 123.225 -3.89388 4.56614 0
M  V30 1238 H 124.295 -2.55144 4.12346 0
M  V30 1239 N 125.638 -1.25649 -0.95132 0
M  V30 1240 C 126.866 -1.13343 -1.73092 0
M  V30 1241 C 127.281 0.312434 -1.86197 0
M  V30 1242 O 126.638 1.21465 -1.36207 0
M  V30 1243 C 126.689 -1.78602 -3.14299 0
M  V30 1244 O 126.41 -3.17537 -3.01831 0
M  V30 1245 C 127.911 -1.72119 -4.08522 0
M  V30 1246 H 125.131 -0.395181 -0.542285 0
M  V30 1247 H 127.675 -1.66076 -1.19328 0
M  V30 1248 H 125.83 -1.29832 -3.64996 0
M  V30 1249 H 126.244 -3.49676 -3.90931 0
M  V30 1250 H 127.718 -2.22435 -5.052 0
M  V30 1251 H 128.195 -0.685635 -4.33815 0
M  V30 1252 H 128.801 -2.20393 -3.63741 0
M  V30 1253 N 127.117 1.15442 -1.07289 0
M  V30 1254 C 128.047 2.22312 -0.714107 0
M  V30 1255 C 129.028 1.67467 0.298155 0
M  V30 1256 O 130.213 1.93445 0.171048 0
M  V30 1257 C 127.343 3.47124 -0.110448 0
M  V30 1258 C 126.297 4.14926 -1.04979 0
M  V30 1259 C 125.623 5.33807 -0.308924 0
M  V30 1260 C 126.923 4.64762 -2.38314 0
M  V30 1261 H 128.617 2.5258 -1.6076 0
M  V30 1262 H 126.163 1.21404 -0.77441 0
M  V30 1263 H 128.116 4.21124 0.152482 0
M  V30 1264 H 126.84 3.16187 0.81812 0
M  V30 1265 H 125.499 3.42866 -1.29764 0
M  V30 1266 H 125.147 4.99126 0.623084 0
M  V30 1267 H 124.847 5.80113 -0.935036 0
M  V30 1268 H 126.371 6.10576 -0.0537771 0
M  V30 1269 H 127.785 5.30292 -2.1786 0
M  V30 1270 H 126.182 5.21728 -2.96514 0
M  V30 1271 H 127.252 3.80434 -3.00663 0
M  V30 1272 N 128.595 0.856903 1.32268 0
M  V30 1273 C 129.843 0.460474 1.96784 0
M  V30 1274 C 130.164 -0.987701 1.68135 0
M  V30 1275 O 129.434 -1.69058 0.989765 0
M  V30 1276 H 128.014 0.167289 0.728027 0
M  V30 1277 H 130.676 1.09383 1.61312 0
M  V30 1278 H 129.772 0.60739 3.06133 0
M  V30 1279 N 130.073 -1.45103 0.615059 0
M  V30 1280 C 131.021 -2.32331 -0.111791 0
M  V30 1281 C 132.015 -1.46409 -0.852102 0
M  V30 1282 O 133.221 -1.62849 -0.766821 0
M  V30 1283 H 129.596 -0.749993 -0.0549072 0
M  V30 1284 H 131.567 -2.91407 0.642225 0
M  V30 1285 C 130.316 -3.3015 -1.09071 0
M  V30 1286 H 129.639 -3.96265 -0.530485 0
M  V30 1287 H 131.079 -3.93898 -1.56908 0
M  V30 1288 C 129.538 -2.57875 -2.168 0
M  V30 1289 O 130.068 -2.36567 -3.24652 0
M  V30 1290 N 128.274 -2.17884 -1.92289 0
M  V30 1291 H 127.821 -2.35413 -1.04587 0
M  V30 1292 H 127.779 -1.6985 -2.64572 0
M  V30 1293 N 131.551 -0.354651 -1.53558 0
M  V30 1294 C 132.776 0.242153 -2.05981 0
M  V30 1295 C 133.201 1.42553 -1.2272 0
M  V30 1296 O 132.559 1.79656 -0.243604 0
M  V30 1297 C 132.607 0.624367 -3.55154 0
M  V30 1298 O 131.711 1.72301 -3.74681 0
M  V30 1299 H 131.052 0.0378432 -0.662921 0
M  V30 1300 H 133.582 -0.512087 -1.98088 0
M  V30 1301 H 133.592 0.898433 -3.97985 0
M  V30 1302 H 132.267 -0.240989 -4.15201 0
M  V30 1303 H 130.844 1.44535 -3.4375 0
M  V30 1304 N 133.029 1.57378 -0.0835403 0
M  V30 1305 C 134.257 1.98263 0.59157 0
M  V30 1306 C 134.672 0.962302 1.62435 0
M  V30 1307 O 134.029 -0.049581 1.82433 0
M  V30 1308 C 134.08 3.39214 1.24965 0
M  V30 1309 O 133.801 4.37339 0.258186 0
M  V30 1310 C 135.302 3.95038 2.01147 0
M  V30 1311 H 132.522 0.651773 0.159477 0
M  V30 1312 H 135.066 2.03878 -0.159415 0
M  V30 1313 H 133.221 3.34649 1.95164 0
M  V30 1314 H 133.635 5.19371 0.731734 0
M  V30 1315 H 135.109 4.95848 2.42567 0
M  V30 1316 H 135.586 3.32222 2.87272 0
M  V30 1317 H 136.192 4.0304 1.35789 0
M  V30 1318 N 134.507 -0.190092 1.56449 0
M  V30 1319 C 135.756 -0.907912 1.80111 0
M  V30 1320 C 136.069 -1.84214 0.657619 0
M  V30 1321 O 137.275 -2.60094 0.778663 0
M  V30 1322 C 135.731 -1.66485 3.19078 0
M  V30 1323 C 135.339 -0.7752 4.41242 0
M  V30 1324 C 137.083 -2.37201 3.52045 0
M  V30 1325 C 134.99 -1.53129 5.71231 0
M  V30 1326 H 133.92 -0.34276 0.671589 0
M  V30 1327 H 136.571 -0.161109 1.82791 0
M  V30 1328 H 134.953 -2.45572 3.10661 0
M  V30 1329 H 136.127 -0.0226298 4.60794 0
M  V30 1330 H 134.442 -0.178627 4.16017 0
M  V30 1331 H 137.039 -2.94329 4.46402 0
M  V30 1332 H 137.382 -3.11632 2.76028 0
M  V30 1333 H 137.915 -1.65075 3.61932 0
M  V30 1334 H 134.654 -0.82967 6.50228 0
M  V30 1335 H 134.174 -2.25767 5.55688 0
M  V30 1336 H 135.853 -2.08377 6.12526 0
M  V30 1337 N 135.985 -1.50799 -0.457987 0
M  V30 1338 C 137.213 -1.66218 -1.23203 0
M  V30 1339 C 137.628 -0.350894 -1.85511 0
M  V30 1340 O 136.985 0.668546 -1.69814 0
M  V30 1341 C 137.036 -2.76291 -2.33121 0
M  V30 1342 O 136.757 -4.02338 -1.73366 0
M  V30 1343 C 138.258 -3.028 -3.2377 0
M  V30 1344 H 135.478 -0.558361 -0.372121 0
M  V30 1345 H 138.022 -1.97099 -0.545179 0
M  V30 1346 H 136.177 -2.48068 -2.97558 0
M  V30 1347 H 136.591 -4.63312 -2.4585 0
M  V30 1348 H 138.065 -3.8345 -3.97077 0
M  V30 1349 H 138.542 -2.14385 -3.83322 0
M  V30 1350 H 139.148 -3.32604 -2.65056 0
M  V30 1351 N 137.463 0.71206 -1.40597 0
M  V30 1352 C 138.691 1.50111 -1.42388 0
M  V30 1353 C 139.106 1.88784 -0.0245395 0
M  V30 1354 O 138.463 1.55681 0.952351 0
M  V30 1355 C 138.514 2.7742 -2.31776 0
M  V30 1356 O 138.235 2.40382 -3.66262 0
M  V30 1357 C 139.736 3.7129 -2.42196 0
M  V30 1358 H 136.956 0.46314 -0.485533 0
M  V30 1359 H 139.5 0.878068 -1.8469 0
M  V30 1360 H 137.655 3.36001 -1.92827 0
M  V30 1361 H 138.069 3.22324 -4.13772 0
M  V30 1362 H 139.543 4.57448 -3.08943 0
M  V30 1363 H 140.02 4.14641 -1.44809 0
M  V30 1364 H 140.626 3.18619 -2.81712 0
M  V30 1365 N 138.941 1.26152 0.944643 0
M  V30 1366 C 139.873 1.03199 2.04652 0
M  V30 1367 C 140.886 -0.00642356 1.62799 0
M  V30 1368 O 142.075 0.233263 1.76969 0
M  V30 1369 C 139.175 0.540111 3.34568 0
M  V30 1370 C 138.348 1.64697 4.05208 0
M  V30 1371 C 137.407 1.15374 5.13396 0
M  V30 1372 O 136.433 1.85013 5.38293 0
M  V30 1373 N 137.635 0.00031529 5.805 0
M  V30 1374 H 140.4 1.9808 2.2491 0
M  V30 1375 H 137.961 1.17491 1.11389 0
M  V30 1376 H 139.953 0.194401 4.04233 0
M  V30 1377 H 138.523 -0.315021 3.11009 0
M  V30 1378 H 137.743 2.16379 3.29506 0
M  V30 1379 H 139.031 2.3903 4.49157 0
M  V30 1380 H 138.429 -0.581336 5.62705 0
M  V30 1381 H 136.986 -0.286346 6.51171 0
M  V30 1382 N 140.419 -1.14872 1.07899 0
M  V30 1383 C 141.329 -2.2341 0.715915 0
M  V30 1384 C 142.345 -1.71808 -0.275306 0
M  V30 1385 O 143.521 -2.01039 -0.120545 0
M  V30 1386 C 140.586 -3.46474 0.125168 0
M  V30 1387 C 139.647 -4.13039 1.17034 0
M  V30 1388 C 138.88 -5.30229 0.607688 0
M  V30 1389 O 139.103 -5.675 -0.574497 0
M  V30 1390 O 138.037 -5.86444 1.35526 0
M  V30 1391 H 141.863 -2.56808 1.62121 0
M  V30 1392 H 139.448 -1.22702 0.852322 0
M  V30 1393 H 141.33 -4.20917 -0.201729 0
M  V30 1394 H 140.005 -3.14811 -0.753364 0
M  V30 1395 H 138.912 -3.40493 1.54968 0
M  V30 1396 H 140.245 -4.48796 2.02097 0
M  V30 1397 N 141.898 -0.863906 -1.31812 0
M  V30 1398 C 142.861 -0.320212 -2.26952 0
M  V30 1399 C 143.861 0.525369 -1.51975 0
M  V30 1400 O 145.051 0.335547 -1.70938 0
M  V30 1401 C 142.183 0.545919 -3.365 0
M  V30 1402 H 143.376 -1.16004 -2.76556 0
M  V30 1403 H 140.929 -0.638995 -1.42641 0
M  V30 1404 H 141.664 1.40718 -2.92179 0
M  V30 1405 H 141.449 -0.0594674 -3.92055 0
M  V30 1406 H 142.939 0.918796 -4.07367 0
M  V30 1407 N 143.376 1.44774 -0.622745 0
M  V30 1408 C 144.339 2.29069 0.0774015 0
M  V30 1409 C 145.339 1.4059 0.780461 0
M  V30 1410 O 146.529 1.62551 0.626322 0
M  V30 1411 C 143.661 3.21974 1.12006 0
M  V30 1412 H 144.854 2.92459 -0.663901 0
M  V30 1413 H 142.407 1.51548 -0.382486 0
M  V30 1414 H 143.142 2.63417 1.89162 0
M  V30 1415 H 142.927 3.87168 0.619951 0
M  V30 1416 H 144.417 3.85318 1.60995 0
M  V30 1417 N 144.854 0.36279 1.53368 0
M  V30 1418 C 145.802 -0.500155 2.27159 0
M  V30 1419 C 146.796 -1.08575 1.3003 0
M  V30 1420 O 148.002 -1.02927 1.47668 0
M  V30 1421 H 144.377 -0.180009 0.730138 0
M  V30 1422 H 146.348 0.14401 2.98052 0
M  V30 1423 C 145.097 -1.62937 3.07159 0
M  V30 1424 H 144.42 -1.18806 3.8174 0
M  V30 1425 H 145.86 -2.20795 3.61975 0
M  V30 1426 C 144.319 -2.57007 2.17829 0
M  V30 1427 O 144.849 -3.59752 1.78721 0
M  V30 1428 N 143.055 -2.26131 1.82518 0
M  V30 1429 H 142.602 -1.42616 2.14519 0
M  V30 1430 H 142.56 -2.89327 1.23034 0
M  V30 1431 N 146.332 -1.57332 0.0918853 0
M  V30 1432 C 147.581 -1.93412 -0.572249 0
M  V30 1433 C 147.894 -0.975515 -1.69538 0
M  V30 1434 O 149.1 -1.22991 -2.42045 0
M  V30 1435 C 147.556 -3.43648 -1.0693 0
M  V30 1436 C 147.164 -4.47994 0.0239049 0
M  V30 1437 C 148.908 -3.88695 -1.70635 0
M  V30 1438 C 146.815 -5.89381 -0.488319 0
M  V30 1439 H 145.745 -0.721939 -0.217532 0
M  V30 1440 H 148.396 -1.82735 0.167369 0
M  V30 1441 H 146.778 -3.49466 -1.8625 0
M  V30 1442 H 147.952 -4.53815 0.799277 0
M  V30 1443 H 146.267 -4.12536 0.565946 0
M  V30 1444 H 148.864 -4.91725 -2.10025 0
M  V30 1445 H 149.207 -3.27166 -2.57426 0
M  V30 1446 H 149.74 -3.85564 -0.979023 0
M  V30 1447 H 146.479 -6.54602 0.342906 0
M  V30 1448 H 145.999 -5.87037 -1.23077 0
M  V30 1449 H 147.678 -6.39863 -0.958317 0
M  V30 1450 N 147.81 0.181792 -1.56548 0
M  V30 1451 C 149.056 0.901431 -1.81665 0
M  V30 1452 C 149.389 1.82347 -0.668075 0
M  V30 1453 O 148.664 1.91669 0.330615 0
M  V30 1454 C 148.947 1.70618 -3.17115 0
M  V30 1455 C 148.8 0.807964 -4.42484 0
M  V30 1456 C 150.119 2.67605 -3.49393 0
M  V30 1457 H 147.238 0.32627 -0.660846 0
M  V30 1458 H 149.88 0.168134 -1.89255 0
M  V30 1459 H 148.03 2.33133 -3.10775 0
M  V30 1460 H 149.702 0.19649 -4.60881 0
M  V30 1461 H 147.945 0.115411 -4.33646 0
M  V30 1462 H 148.616 1.40632 -5.33785 0
M  V30 1463 H 151.092 2.15218 -3.56118 0
M  V30 1464 H 149.968 3.20985 -4.45264 0
M  V30 1465 H 150.229 3.47298 -2.73563 0
M  V30 1466 N 149.288 1.51039 0.449983 0
M  V30 1467 C 150.534 1.63322 1.20223 0
M  V30 1468 C 150.867 0.34241 1.91158 0
M  V30 1469 O 150.142 -0.657344 1.83055 0
M  V30 1470 C 150.425 2.82801 2.22925 0
M  V30 1471 C 150.278 4.21823 1.56157 0
M  V30 1472 C 151.597 2.97807 3.24035 0
M  V30 1473 H 148.716 0.594407 0.435718 0
M  V30 1474 H 151.358 1.83489 0.493136 0
M  V30 1475 H 149.508 2.65738 2.834 0
M  V30 1476 H 151.18 4.50526 0.991162 0
M  V30 1477 H 149.423 4.25105 0.864172 0
M  V30 1478 H 150.094 5.01391 2.30891 0
M  V30 1479 H 152.57 3.13497 2.73603 0
M  V30 1480 H 151.446 3.82992 3.93202 0
M  V30 1481 H 151.707 2.09328 3.89402 0
M  V30 1482 N 150.766 -0.704594 1.40972 0
M  V30 1483 C 152.014 -1.46169 1.39568 0
M  V30 1484 C 152.335 -1.95 0.00253745 0
M  V30 1485 O 151.605 -1.71095 -0.954114 0
M  V30 1486 H 150.185 -0.542326 0.513704 0
M  V30 1487 H 152.847 -0.834553 1.76128 0
M  V30 1488 H 151.943 -2.32922 2.07735 0
M  V30 1489 N 152.244 -1.26651 -0.937939 0
M  V30 1490 C 153.474 -1.15006 -1.71631 0
M  V30 1491 C 153.882 0.297026 -1.86854 0
M  V30 1492 O 153.225 1.21493 -1.37786 0
M  V30 1493 C 153.287 -1.74984 -3.14039 0
M  V30 1494 C 152.951 -3.24103 -3.2219 0
M  V30 1495 C 153.948 -4.20877 -3.05219 0
M  V30 1496 C 151.633 -3.64625 -3.45476 0
M  V30 1497 C 153.627 -5.56151 -3.11408 0
M  V30 1498 C 151.314 -5.00032 -3.513 0
M  V30 1499 C 152.312 -5.95604 -3.34282 0
M  V30 1500 O 152 -7.28545 -3.3982 0
M  V30 1501 H 151.732 -0.401183 -0.544085 0
M  V30 1502 H 154.286 -1.67832 -1.18413 0
M  V30 1503 H 152.516 -1.16624 -3.68695 0
M  V30 1504 H 154.205 -1.58199 -3.73802 0
M  V30 1505 H 154.971 -3.90908 -2.87081 0
M  V30 1506 H 150.85 -2.90718 -3.57777 0
M  V30 1507 H 154.394 -6.30727 -2.98043 0
M  V30 1508 H 150.291 -5.29659 -3.68959 0
M  V30 1509 H 151.059 -7.3686 -3.56343 0
M  V30 1510 N 153.722 1.14298 -1.08507 0
M  V30 1511 C 154.97 1.84993 -0.813763 0
M  V30 1512 C 155.291 1.83405 0.662393 0
M  V30 1513 O 154.561 1.28319 1.48024 0
M  V30 1514 H 153.141 0.684966 -0.298045 0
M  V30 1515 H 155.803 1.385 -1.37126 0
M  V30 1516 H 154.899 2.89788 -1.15884 0
M  V30 1517 N 155.201 0.870884 1.31352 0
M  V30 1518 C 156.148 0.325425 2.28494 0
M  V30 1519 C 157.118 -0.576615 1.5577 0
M  V30 1520 O 158.303 -0.508059 1.83911 0
M  V30 1521 C 155.443 -0.466283 3.41935 0
M  V30 1522 C 154.556 0.463378 4.29508 0
M  V30 1523 C 153.691 -0.342544 5.30094 0
M  V30 1524 C 152.73 0.583486 6.09313 0
M  V30 1525 N 151.867 -0.186244 7.01853 0
M  V30 1526 H 156.707 1.15901 2.74538 0
M  V30 1527 H 154.244 0.58294 1.35056 0
M  V30 1528 H 156.202 -0.941085 4.06447 0
M  V30 1529 H 154.832 -1.26456 2.97 0
M  V30 1530 H 153.884 1.05663 3.65431 0
M  V30 1531 H 155.196 1.1734 4.84802 0
M  V30 1532 H 154.35 -0.879816 6.00287 0
M  V30 1533 H 153.089 -1.08585 4.75458 0
M  V30 1534 H 152.094 1.13251 5.3801 0
M  V30 1535 H 153.319 1.32566 6.66035 0
M  V30 1536 H 151.265 -0.912348 6.49625 0
M  V30 1537 H 151.182 0.464422 7.54572 0
M  V30 1538 H 152.45 -0.704716 7.76308 0
M  V30 1539 N 156.679 -1.44442 0.630414 0
M  V30 1540 C 157.925 -2.02894 0.143332 0
M  V30 1541 C 158.28 -1.48697 -1.22094 0
M  V30 1542 O 157.573 -0.661171 -1.79831 0
M  V30 1543 C 157.767 -3.57332 0.0697835 0
M  V30 1544 C 157.596 -4.26512 1.42539 0
M  V30 1545 C 156.366 -4.63516 2.01198 0
M  V30 1546 C 158.564 -4.57004 2.35907 0
M  V30 1547 N 156.546 -5.17661 3.30001 0
M  V30 1548 C 157.917 -5.12223 3.49324 0
M  V30 1549 C 159.972 -4.38955 2.34995 0
M  V30 1550 C 158.675 -5.51295 4.62024 0
M  V30 1551 C 160.701 -4.79075 3.46758 0
M  V30 1552 C 160.063 -5.34407 4.58899 0
M  V30 1553 H 156.162 -0.776041 0.0963523 0
M  V30 1554 H 158.746 -1.75945 0.833752 0
M  V30 1555 H 156.917 -3.83894 -0.589915 0
M  V30 1556 H 158.649 -4.02451 -0.42606 0
M  V30 1557 H 155.404 -4.47811 1.54151 0
M  V30 1558 H 155.828 -5.4921 3.95851 0
M  V30 1559 H 160.47 -3.95469 1.49545 0
M  V30 1560 H 158.188 -5.93736 5.48182 0
M  V30 1561 H 161.774 -4.66824 3.47227 0
M  V30 1562 H 160.654 -5.64878 5.4395 0
M  V30 1563 N 158.157 -0.370918 -1.53173 0
M  V30 1564 C 159.568 0.107139 -1.86392 0
M  V30 1565 C 159.919 1.47714 -1.29132 0
M  V30 1566 O 159.044 2.07464 -0.615439 0
M  V30 1567 C 159.639 0.201187 -3.38202 0
M  V30 1568 C 158.198 0.623507 -3.712 0
M  V30 1569 C 157.345 -0.225978 -2.76378 0
M  V30 1570 H 160.296 -0.58951 -1.47345 0
M  V30 1571 H 160.317 1.02377 -3.66468 0
M  V30 1572 H 159.829 -0.796058 -3.79848 0
M  V30 1573 H 157.93 1.62879 -3.35114 0
M  V30 1574 H 158.043 0.394414 -4.77474 0
M  V30 1575 H 156.407 0.305962 -2.52856 0
M  V30 1576 H 157.19 -1.22086 -3.20858 0
M  V30 1577 N 159.635 1.57281 -0.100228 0
M  V30 1578 C 160.545 2.17833 0.870965 0
M  V30 1579 C 161.561 1.14921 1.30649 0
M  V30 1580 O 162.737 1.47313 1.37335 0
M  V30 1581 C 159.802 2.75085 2.1102 0
M  V30 1582 C 158.863 3.9297 1.72838 0
M  V30 1583 C 158.096 4.47482 2.90854 0
M  V30 1584 O 158.319 4.00922 4.05731 0
M  V30 1585 O 157.253 5.38433 2.69023 0
M  V30 1586 H 161.079 3.0124 0.38575 0
M  V30 1587 H 158.664 1.48881 0.124397 0
M  V30 1588 H 160.546 3.11656 2.83634 0
M  V30 1589 H 159.221 1.94721 2.58584 0
M  V30 1590 H 158.128 3.61201 0.973883 0
M  V30 1591 H 159.461 4.74713 1.30033 0
M  V30 1592 N 161.113 -0.173488 1.56642 0
M  V30 1593 C 162.063 -1.21941 1.92651 0
M  V30 1594 C 163.047 -1.39912 0.794577 0
M  V30 1595 O 164.239 -1.41919 1.05773 0
M  V30 1596 C 161.368 -2.55935 2.28806 0
M  V30 1597 C 160.454 -2.41667 3.48508 0
M  V30 1598 N 160.845 -1.9711 4.65813 0
M  V30 1599 C 159.143 -2.72499 3.53072 0
M  V30 1600 C 159.844 -1.95253 5.47952 0
M  V30 1601 N 158.82 -2.37575 4.88937 0
M  V30 1602 H 162.622 -0.866581 2.80834 0
M  V30 1603 H 160.136 -0.381776 1.57849 0
M  V30 1604 H 162.133 -3.31511 2.52797 0
M  V30 1605 H 160.793 -2.92022 1.41961 0
M  V30 1606 H 161.804 -1.67481 4.90072 0
M  V30 1607 H 158.481 -3.12639 2.767 0
M  V30 1608 H 159.871 -1.6252 6.51948 0
M  V30 1609 N 162.591 -1.51276 -0.441967 0
M  V30 1610 C 163.521 -1.752 -1.54361 0
M  V30 1611 C 164.502 -0.601682 -1.59103 0
M  V30 1612 O 165.687 -0.843913 -1.74905 0
M  V30 1613 C 162.817 -1.87282 -2.92477 0
M  V30 1614 C 161.771 -3.02687 -3.02596 0
M  V30 1615 C 161.097 -2.99947 -4.42647 0
M  V30 1616 C 162.397 -4.4273 -2.77106 0
M  V30 1617 H 164.091 -2.67442 -1.34592 0
M  V30 1618 H 161.637 -1.28694 -0.646048 0
M  V30 1619 H 163.59 -2.02602 -3.695 0
M  V30 1620 H 162.314 -0.916844 -3.13467 0
M  V30 1621 H 160.973 -2.87065 -2.28012 0
M  V30 1622 H 160.621 -2.02136 -4.60597 0
M  V30 1623 H 160.321 -3.77439 -4.50348 0
M  V30 1624 H 161.845 -3.17354 -5.2165 0
M  V30 1625 H 163.259 -4.58727 -3.43864 0
M  V30 1626 H 161.656 -5.21893 -2.96222 0
M  V30 1627 H 162.726 -4.53087 -1.72744 0
M  V30 1628 N 164.069 0.697108 -1.41344 0
M  V30 1629 C 165.016 1.81106 -1.43071 0
M  V30 1630 C 165.986 1.63632 -0.285275 0
M  V30 1631 O 167.171 1.84504 -0.486091 0
M  V30 1632 C 164.311 3.18975 -1.31715 0
M  V30 1633 C 163.424 3.47892 -2.56115 0
M  V30 1634 C 162.559 4.75367 -2.37064 0
M  V30 1635 C 161.598 4.97247 -3.56948 0
M  V30 1636 N 160.735 6.15947 -3.36977 0
M  V30 1637 H 165.575 1.78965 -2.38276 0
M  V30 1638 H 163.112 0.873975 -1.18322 0
M  V30 1639 H 165.07 3.98615 -1.23133 0
M  V30 1640 H 163.7 3.20297 -0.401183 0
M  V30 1641 H 162.752 2.62669 -2.75153 0
M  V30 1642 H 164.064 3.59962 -3.45295 0
M  V30 1643 H 163.218 5.63059 -2.25941 0
M  V30 1644 H 161.957 4.65541 -1.45338 0
M  V30 1645 H 160.962 4.08004 -3.68527 0
M  V30 1646 H 162.187 5.08934 -4.49626 0
M  V30 1647 H 160.133 6.07336 -2.47949 0
M  V30 1648 H 160.05 6.28777 -4.19732 0
M  V30 1649 H 161.318 7.06377 -3.29623 0
M  V30 1650 N 165.547 1.27147 0.931209 0
M  V30 1651 C 166.958 1.12044 1.49342 0
M  V30 1652 C 167.309 -0.295795 1.93957 0
M  V30 1653 O 166.434 -1.18835 1.80852 0
M  V30 1654 C 167.029 2.02781 2.71414 0
M  V30 1655 C 165.588 1.91794 3.2387 0
M  V30 1656 C 164.735 1.95543 1.96617 0
M  V30 1657 H 167.686 1.40091 0.745672 0
M  V30 1658 H 167.707 1.58156 3.46074 0
M  V30 1659 H 167.219 3.05848 2.38911 0
M  V30 1660 H 165.32 0.916992 3.6114 0
M  V30 1661 H 165.433 2.77852 3.90302 0
M  V30 1662 H 163.797 1.39722 2.12955 0
M  V30 1663 H 164.58 3.00259 1.66432 0
M  V30 1664 N 167.025 -1.13721 1.09112 0
M  V30 1665 C 168.274 -1.84275 0.82009 0
M  V30 1666 C 168.587 -1.84253 -0.656509 0
M  V30 1667 O 169.793 -2.50668 -1.04296 0
M  V30 1668 C 168.249 -3.30825 1.41714 0
M  V30 1669 C 167.857 -3.39244 2.92605 0
M  V30 1670 C 169.601 -4.06443 1.22492 0
M  V30 1671 C 167.508 -4.80047 3.45411 0
M  V30 1672 H 166.438 -0.690387 0.30312 0
M  V30 1673 H 169.089 -1.28146 1.31343 0
M  V30 1674 H 167.471 -3.86737 0.851498 0
M  V30 1675 H 168.645 -2.93344 3.55367 0
M  V30 1676 H 166.96 -2.77088 3.10823 0
M  V30 1677 H 169.557 -5.10387 1.59402 0
M  V30 1678 H 169.9 -4.15972 0.165299 0
M  V30 1679 H 170.433 -3.56852 1.75788 0
M  V30 1680 H 167.172 -4.75709 4.50978 0
M  V30 1681 H 166.692 -5.26455 2.87411 0
M  V30 1682 H 168.371 -5.48957 3.42425 0
M  V30 1683 N 168.503 -0.877838 -1.30888 0
M  V30 1684 C 169.78 -0.413052 -1.91189 0
M  V30 1685 C 170.16 1.1056 -1.79832 0
M  V30 1686 O 169.508 1.93771 -1.21099 0
M  V30 1687 C 169.718 -0.903191 -3.3711 0
M  V30 1688 C 171.066 -0.93395 -4.14201 0
M  V30 1689 O 172.09 -0.849373 -3.45925 0
M  V30 1690 O 170.949 -1.05772 -5.36167 0
M  V30 1691 H 168.043 -0.125035 -0.817493 0
M  V30 1692 H 170.589 -0.966269 -1.39504 0
M  V30 1693 H 169.361 -1.94692 -3.39427 0
M  V30 1694 H 168.984 -0.328732 -3.96239 0
M  V30 1695 N 169.982 1.44106 -0.638065 0
M  V30 1696 C 170.945 2.29138 0.0531013 0
M  V30 1697 C 171.945 1.41409 0.765506 0
M  V30 1698 O 173.135 1.63206 0.609046 0
M  V30 1699 C 170.267 3.23144 1.08584 0
M  V30 1700 H 171.46 2.91739 -0.694883 0
M  V30 1701 H 169.013 1.51134 -0.398538 0
M  V30 1702 H 169.748 2.65408 1.86357 0
M  V30 1703 H 169.533 3.87804 0.578852 0
M  V30 1704 H 171.023 3.87004 1.56899 0
M  V30 1705 N 171.46 0.379036 1.52974 0
M  V30 1706 C 172.408 -0.476033 2.27677 0
M  V30 1707 C 173.402 -1.0719 1.31174 0
M  V30 1708 O 174.608 -1.01355 1.48752 0
M  V30 1709 H 170.983 -0.172255 0.732006 0
M  V30 1710 H 172.954 0.175615 2.97883 0
M  V30 1711 C 171.703 -1.5967 3.0887 0
M  V30 1712 H 171.026 -1.1475 3.82978 0
M  V30 1713 H 172.466 -2.16943 3.64296 0
M  V30 1714 C 170.925 -2.54682 2.20542 0
M  V30 1715 O 171.455 -3.57836 1.82527 0
M  V30 1716 N 169.661 -2.24183 1.84907 0
M  V30 1717 H 169.208 -1.40333 2.1602 0
M  V30 1718 H 169.166 -2.88006 1.26096 0
M  V30 1719 N 172.938 -1.57226 0.108567 0
M  V30 1720 C 174.163 -1.99604 -0.563303 0
M  V30 1721 C 174.588 -0.987563 -1.6009 0
M  V30 1722 O 173.946 0.0421687 -1.81251 0
M  V30 1723 C 173.994 -3.40902 -1.17552 0
M  V30 1724 O 173.098 -3.42896 -2.2912 0
M  V30 1725 H 172.439 -0.648704 -0.1417 0
M  V30 1726 H 174.969 -2.03679 0.193961 0
M  V30 1727 H 174.979 -3.78886 -1.51357 0
M  V30 1728 H 173.654 -4.1382 -0.415445 0
M  V30 1729 H 172.231 -3.1672 -1.96832 0
M  V30 1730 N 174.416 0.165178 -1.56732 0
M  V30 1731 C 175.665 0.879143 -1.81532 0
M  V30 1732 C 175.978 1.83144 -0.686842 0
M  V30 1733 O 177.184 2.58823 -0.819944 0
M  V30 1734 C 175.64 1.61388 -3.21686 0
M  V30 1735 C 175.248 0.704904 -4.4242 0
M  V30 1736 C 176.992 2.3157 -3.55774 0
M  V30 1737 C 174.899 1.44022 -5.73595 0
M  V30 1738 H 173.829 0.332033 -0.676957 0
M  V30 1739 H 176.48 0.132008 -1.83025 0
M  V30 1740 H 174.862 2.40599 -3.14529 0
M  V30 1741 H 176.036 -0.0506815 -4.60772 0
M  V30 1742 H 174.351 0.112419 -4.16248 0
M  V30 1743 H 176.948 2.8719 -4.51028 0
M  V30 1744 H 177.291 3.07201 -2.8095 0
M  V30 1745 H 177.824 1.59297 -3.64513 0
M  V30 1746 H 174.563 0.72612 -6.51466 0
M  V30 1747 H 174.083 2.16898 -5.5921 0
M  V30 1748 H 175.762 1.98606 -6.15764 0
M  V30 1749 N 175.894 1.51508 0.433938 0
M  V30 1750 C 177.171 1.54888 1.19453 0
M  V30 1751 C 177.551 0.315154 2.08734 0
M  V30 1752 O 176.899 -0.699558 2.17528 0
M  V30 1753 C 177.109 2.86467 1.99342 0
M  V30 1754 C 178.457 3.38545 2.56267 0
M  V30 1755 O 179.481 2.88041 2.0955 0
M  V30 1756 O 178.34 4.26675 3.41483 0
M  V30 1757 H 175.434 0.622863 0.544032 0
M  V30 1758 H 177.98 1.63823 0.442732 0
M  V30 1759 H 176.752 3.67718 1.33788 0
M  V30 1760 H 176.375 2.8071 2.8158 0
M  V30 1761 N 177.372 -0.689602 1.41712 0
M  V30 1762 C 178.335 -1.78521 1.43746 0
M  V30 1763 C 179.335 -1.57436 0.327191 0
M  V30 1764 O 180.525 -1.64 0.587348 0
M  V30 1765 C 177.657 -3.16971 1.25467 0
M  V30 1766 H 178.85 -1.78108 2.41283 0
M  V30 1767 H 176.403 -0.89781 1.27942 0
M  V30 1768 H 177.138 -3.23019 0.287948 0
M  V30 1769 H 176.923 -3.33678 2.05917 0
M  V30 1770 H 178.413 -3.96935 1.2974 0
M  V30 1771 N 178.85 -1.27639 -0.924453 0
M  V30 1772 C 180.261 -1.12834 -1.48746 0
M  V30 1773 C 180.612 0.285505 -1.94112 0
M  V30 1774 O 179.737 1.17874 -1.81479 0
M  V30 1775 C 180.332 -2.04217 -2.70334 0
M  V30 1776 C 178.891 -1.93509 -3.22848 0
M  V30 1777 C 178.038 -1.96583 -1.95577 0
M  V30 1778 H 180.989 -1.40484 -0.738233 0
M  V30 1779 H 181.01 -1.59989 -3.4523 0
M  V30 1780 H 180.522 -3.07111 -2.37285 0
M  V30 1781 H 178.623 -0.936131 -3.60649 0
M  V30 1782 H 178.736 -2.79917 -3.88823 0
M  V30 1783 H 177.1 -1.4085 -2.12211 0
M  V30 1784 H 177.883 -3.01137 -1.64837 0
M  V30 1785 N 180.328 1.1314 -1.09713 0
M  V30 1786 C 181.556 1.88321 -0.856898 0
M  V30 1787 C 181.971 1.79276 0.592073 0
M  V30 1788 O 181.328 1.16142 1.40774 0
M  V30 1789 C 181.379 3.37812 -1.28706 0
M  V30 1790 O 181.1 3.46627 -2.67921 0
M  V30 1791 C 182.601 4.29952 -1.07964 0
M  V30 1792 H 179.821 0.596094 -0.308079 0
M  V30 1793 H 182.365 1.43205 -1.45988 0
M  V30 1794 H 180.52 3.805 -0.727912 0
M  V30 1795 H 180.934 4.39579 -2.8613 0
M  V30 1796 H 182.408 5.33159 -1.42986 0
M  V30 1797 H 182.885 4.39196 -0.0176577 0
M  V30 1798 H 183.491 3.93036 -1.62489 0
M  V30 1799 N 181.806 0.884767 1.30421 0
M  V30 1800 C 182.753 0.349642 2.28136 0
M  V30 1801 C 183.723 -0.560061 1.56373 0
M  V30 1802 O 184.908 -0.488524 1.8444 0
M  V30 1803 C 182.048 -0.42999 3.42411 0
M  V30 1804 C 181.161 0.508907 4.28992 0
M  V30 1805 C 180.296 -0.286301 5.30428 0
M  V30 1806 C 179.335 0.648079 6.08659 0
M  V30 1807 N 178.472 -0.111792 7.02011 0
M  V30 1808 H 183.312 1.18807 2.73293 0
M  V30 1809 H 180.849 0.597231 1.3443 0
M  V30 1810 H 182.807 -0.897923 4.07423 0
M  V30 1811 H 181.437 -1.23299 2.98324 0
M  V30 1812 H 180.489 1.09533 3.64289 0
M  V30 1813 H 181.801 1.22475 4.8353 0
M  V30 1814 H 180.955 -0.816098 6.01186 0
M  V30 1815 H 179.694 -1.03536 4.76583 0
M  V30 1816 H 178.699 1.18951 5.36778 0
M  V30 1817 H 179.924 1.39623 6.64592 0
M  V30 1818 H 177.87 -0.843395 6.50556 0
M  V30 1819 H 177.787 0.544429 7.54037 0
M  V30 1820 H 179.055 -0.622339 7.77012 0
M  V30 1821 N 183.284 -1.43765 0.645699 0
M  V30 1822 C 184.695 -1.85193 0.236719 0
M  V30 1823 C 185.046 -1.54045 -1.21509 0
M  V30 1824 O 184.171 -0.985694 -1.92647 0
M  V30 1825 C 184.766 -3.36151 0.422845 0
M  V30 1826 C 183.325 -3.76338 0.0682492 0
M  V30 1827 C 182.472 -2.67538 0.729306 0
M  V30 1828 H 185.423 -1.34025 0.849883 0
M  V30 1829 H 185.444 -3.79032 -0.333904 0
M  V30 1830 H 184.956 -3.5879 1.47958 0
M  V30 1831 H 183.057 -3.59312 -0.986179 0
M  V30 1832 H 183.17 -4.76603 0.488469 0
M  V30 1833 H 181.534 -2.54176 0.163235 0
M  V30 1834 H 182.317 -2.93006 1.78892 0
M  V30 1835 N 184.763 -0.387143 -1.52771 0
M  V30 1836 C 186.04 0.253197 -1.93954 0
M  V30 1837 C 186.42 1.64545 -1.32243 0
M  V30 1838 O 185.768 2.23191 -0.489699 0
M  V30 1839 C 185.978 0.281722 -3.47861 0
M  V30 1840 C 187.326 0.511715 -4.21505 0
M  V30 1841 O 188.35 0.362023 -3.54356 0
M  V30 1842 O 187.209 0.804847 -5.40541 0
M  V30 1843 H 184.303 0.156845 -0.811991 0
M  V30 1844 H 186.849 -0.441494 -1.63856 0
M  V30 1845 H 185.621 -0.693571 -3.85104 0
M  V30 1846 H 185.244 1.02142 -3.84256 0
M  V30 1847 N 186.241 1.57166 -0.116904 0
M  V30 1848 C 187.487 1.95412 0.542405 0
M  V30 1849 C 187.82 1.00019 1.66463 0
M  V30 1850 O 187.095 0.0370346 1.94465 0
M  V30 1851 C 187.378 3.43615 1.07708 0
M  V30 1852 C 187.231 4.49781 -0.0415868 0
M  V30 1853 C 188.55 3.93616 1.96861 0
M  V30 1854 H 185.669 0.710543 0.195696 0
M  V30 1855 H 188.311 1.89027 -0.192038 0
M  V30 1856 H 186.461 3.49187 1.70296 0
M  V30 1857 H 188.133 4.56308 -0.676793 0
M  V30 1858 H 186.376 4.28033 -0.705019 0
M  V30 1859 H 187.047 5.50733 0.373717 0
M  V30 1860 H 189.523 3.90335 1.44146 0
M  V30 1861 H 188.399 4.97838 2.3119 0
M  V30 1862 H 188.66 3.34188 2.89432 0
M  V30 1863 N 187.719 -0.156864 1.56817 0
M  V30 1864 C 188.682 -1.17781 1.96622 0
M  V30 1865 C 189.682 -1.36401 0.851555 0
M  V30 1866 O 190.872 -1.33561 1.11836 0
M  V30 1867 C 188.004 -2.54008 2.27361 0
M  V30 1868 H 189.197 -0.836564 2.87996 0
M  V30 1869 H 186.75 -0.39985 1.51099 0
M  V30 1870 H 187.485 -2.9312 1.38748 0
M  V30 1871 H 187.27 -2.41856 3.08623 0
M  V30 1872 H 188.76 -3.27558 2.59029 0
M  V30 1873 N 189.197 -1.51736 -0.425897 0
M  V30 1874 C 190.443 -1.65214 -1.1761 0
M  V30 1875 C 190.776 -0.372778 -1.90589 0
M  V30 1876 O 190.051 0.628139 -1.84078 0
M  V30 1877 C 190.334 -2.86312 -2.18398 0
M  V30 1878 C 190.187 -4.24254 -1.49426 0
M  V30 1879 C 191.506 -3.02925 -3.19256 0
M  V30 1880 H 188.625 -0.601263 -0.426206 0
M  V30 1881 H 191.267 -1.8425 -0.463882 0
M  V30 1882 H 189.417 -2.70213 -2.79137 0
M  V30 1883 H 191.089 -4.52046 -0.919362 0
M  V30 1884 H 189.332 -4.26426 -0.796432 0
M  V30 1885 H 190.003 -5.05001 -2.22885 0
M  V30 1886 H 192.479 -3.1781 -2.68581 0
M  V30 1887 H 191.355 -3.89199 -3.8706 0
M  V30 1888 H 191.616 -2.15497 -3.86023 0
M  V30 1889 N 190.675 0.682077 -1.42076 0
M  V30 1890 C 191.623 1.81707 -1.45208 0
M  V30 1891 C 192.617 1.66183 -0.328591 0
M  V30 1892 O 193.823 1.7288 -0.501264 0
M  V30 1893 H 190.198 0.599014 -0.454628 0
M  V30 1894 H 192.169 1.76183 -2.40836 0
M  V30 1895 C 190.918 3.19816 -1.36428 0
M  V30 1896 H 190.241 3.32385 -2.22171 0
M  V30 1897 H 191.681 3.99272 -1.42681 0
M  V30 1898 C 190.14 3.36809 -0.078191 0
M  V30 1899 O 190.67 3.92124 0.87188 0
M  V30 1900 N 188.876 2.906 0.00229266 0
M  V30 1901 H 188.423 2.45772 -0.771616 0
M  V30 1902 H 188.381 3.02347 0.862179 0
M  V30 1903 N 192.153 1.28127 0.917671 0
M  V30 1904 C 193.569 1.05749 1.19538 0
M  V30 1905 C 193.769 -0.202633 2.00479 0
M  V30 1906 O 192.825 -0.905382 2.3571 0
M  V30 1907 C 194.138 2.30273 1.93378 0
M  V30 1908 C 195.686 2.35412 2.06277 0
M  V30 1909 C 196.161 3.59692 2.83524 0
M  V30 1910 N 197.652 3.60309 2.91087 0
M  V30 1911 C 198.387 4.53147 3.51348 0
M  V30 1912 N 197.883 5.563 4.12919 0
M  V30 1913 N 199.676 4.40751 3.48849 0
M  V30 1914 H 191.827 2.09024 0.377184 0
M  V30 1915 H 194.09 0.919798 0.22951 0
M  V30 1916 H 193.796 3.22055 1.41328 0
M  V30 1917 H 193.67 2.36378 2.93947 0
M  V30 1918 H 196.057 1.4413 2.57508 0
M  V30 1919 H 196.138 2.33304 1.04895 0
M  V30 1920 H 195.782 4.51316 2.32973 0
M  V30 1921 H 195.712 3.59054 3.85211 0
M  V30 1922 H 198.203 2.85714 2.47338 0
M  V30 1923 H 198.516 6.2329 4.56869 0
M  V30 1924 H 196.861 5.60131 4.11435 0
M  V30 1925 H 200.052 3.59367 2.99955 0
M  V30 1926 H 200.225 5.13291 3.9552 0
M  V30 1927 N 193.631 -1.12557 1.10312 0
M  V30 1928 C 194.878 -1.84038 0.844759 0
M  V30 1929 C 195.206 -1.84026 -0.629668 0
M  V30 1930 O 194.461 -1.28026 -1.48013 0
M  V30 1931 C 194.76 -3.31462 1.33669 0
M  V30 1932 C 194.426 -3.51647 2.82232 0
M  V30 1933 C 193.088 -3.56864 3.22802 0
M  V30 1934 C 195.44 -3.58867 3.77974 0
M  V30 1935 C 192.768 -3.66844 4.57867 0
M  V30 1936 C 195.12 -3.70375 5.1284 0
M  V30 1937 C 193.784 -3.73848 5.52986 0
M  V30 1938 H 193.054 -0.673444 0.309119 0
M  V30 1939 H 195.701 -1.32824 1.37949 0
M  V30 1940 H 194.006 -3.85091 0.721949 0
M  V30 1941 H 195.703 -3.85236 1.11329 0
M  V30 1942 H 192.293 -3.48249 2.49842 0
M  V30 1943 H 196.477 -3.54107 3.47738 0
M  V30 1944 H 191.733 -3.67804 4.88396 0
M  V30 1945 H 195.907 -3.74904 5.86873 0
M  V30 1946 H 193.534 -3.81333 6.57639 0
M  V30 1947 N 195.109 -0.891671 -1.2995 0
M  V30 1948 C 196.339 -0.527893 -1.99742 0
M  V30 1949 C 196.747 0.88979 -1.66971 0
M  V30 1950 O 196.09 1.59766 -0.906667 0
M  V30 1951 C 196.152 -0.630804 -3.53922 0
M  V30 1952 C 195.816 -2.01401 -4.10228 0
M  V30 1953 C 196.813 -2.98422 -4.25724 0
M  V30 1954 C 194.498 -2.32121 -4.45449 0
M  V30 1955 C 196.492 -4.24293 -4.75662 0
M  V30 1956 C 194.179 -3.58237 -4.95086 0
M  V30 1957 C 195.177 -4.54137 -5.10146 0
M  V30 1958 O 194.865 -5.78014 -5.58708 0
M  V30 1959 H 194.597 -0.201953 -0.645129 0
M  V30 1960 H 197.151 -1.20076 -1.66646 0
M  V30 1961 H 195.381 0.0990616 -3.86573 0
M  V30 1962 H 197.07 -0.277338 -4.04951 0
M  V30 1963 H 197.836 -2.76001 -3.98809 0
M  V30 1964 H 193.715 -1.5824 -4.32991 0
M  V30 1965 H 197.259 -4.99153 -4.87332 0
M  V30 1966 H 193.156 -3.80491 -5.21437 0
M  V30 1967 H 193.924 -5.8049 -5.77039 0
M  V30 1968 N 196.587 1.43421 -0.653314 0
M  V30 1969 C 197.815 2.06163 -0.174491 0
M  V30 1970 C 198.23 1.48969 1.1599 0
M  V30 1971 O 197.587 0.621042 1.71608 0
M  V30 1972 C 197.638 3.61417 -0.0774865 0
M  V30 1973 O 197.359 4.16485 -1.35912 0
M  V30 1974 C 198.86 4.41235 0.427402 0
M  V30 1975 H 196.08 0.664946 -0.0899353 0
M  V30 1976 H 198.624 1.83924 -0.893988 0
M  V30 1977 H 196.779 3.82841 0.59257 0
M  V30 1978 H 197.193 5.10153 -1.21839 0
M  V30 1979 H 198.667 5.5021 0.44423 0
M  V30 1980 H 199.144 4.14268 1.45873 0
M  V30 1981 H 199.75 4.2478 -0.210167 0
M  V30 1982 N 198.065 0.39524 1.52563 0
M  V30 1983 C 198.995 -0.428384 2.29537 0
M  V30 1984 C 199.976 -1.05831 1.33169 0
M  V30 1985 O 201.161 -1.06995 1.62067 0
M  V30 1986 C 198.291 -1.55274 3.10656 0
M  V30 1987 C 197.245 -1.04855 4.14957 0
M  V30 1988 C 196.571 -2.26543 4.84337 0
M  V30 1989 C 197.871 -0.112324 5.22179 0
M  V30 1990 H 199.565 0.213867 2.98635 0
M  V30 1991 H 197.111 0.104298 1.43622 0
M  V30 1992 H 199.064 -2.1358 3.63265 0
M  V30 1993 H 197.788 -2.22266 2.39302 0
M  V30 1994 H 196.447 -0.487985 3.63338 0
M  V30 1995 H 196.095 -2.92059 4.09525 0
M  V30 1996 H 195.795 -1.93466 5.54837 0
M  V30 1997 H 197.319 -2.85481 5.39753 0
M  V30 1998 H 198.733 -0.603752 5.70112 0
M  V30 1999 H 197.13 0.128968 5.99961 0
M  V30 2000 H 198.2 0.837052 4.77621 0
M  V30 2001 N 199.544 -1.57102 0.125237 0
M  V30 2002 C 200.491 -2.15641 -0.822655 0
M  V30 2003 C 201.461 -1.08313 -1.25927 0
M  V30 2004 O 202.646 -1.36251 -1.33567 0
M  V30 2005 C 199.786 -2.76504 -2.06494 0
M  V30 2006 C 198.899 -3.98158 -1.67612 0
M  V30 2007 C 198.034 -4.47088 -2.86854 0
M  V30 2008 C 197.073 -5.6126 -2.44242 0
M  V30 2009 N 196.21 -6.04905 -3.56419 0
M  V30 2010 H 201.05 -2.96313 -0.316625 0
M  V30 2011 H 198.587 -1.46388 -0.144588 0
M  V30 2012 H 200.545 -3.09925 -2.79289 0
M  V30 2013 H 199.175 -1.98512 -2.54545 0
M  V30 2014 H 198.227 -3.70858 -0.846661 0
M  V30 2015 H 199.539 -4.80934 -1.32301 0
M  V30 2016 H 198.693 -4.82451 -3.67867 0
M  V30 2017 H 197.432 -3.63275 -3.25396 0
M  V30 2018 H 196.437 -5.25495 -1.61663 0
M  V30 2019 H 197.662 -6.46843 -2.0681 0
M  V30 2020 H 195.608 -5.24032 -3.94623 0
M  V30 2021 H 195.525 -6.82552 -3.25051 0
M  V30 2022 H 196.793 -6.44907 -4.37853 0
M  V30 2023 N 201.022 0.148545 -1.56898 0
M  V30 2024 C 201.985 1.16736 -1.97244 0
M  V30 2025 C 202.985 1.35947 -0.858777 0
M  V30 2026 O 204.175 1.32966 -1.12542 0
M  V30 2027 C 201.307 2.52798 -2.28705 0
M  V30 2028 H 202.5 0.821279 -2.88435 0
M  V30 2029 H 200.053 0.391831 -1.51309 0
M  V30 2030 H 200.788 2.92381 -1.403 0
M  V30 2031 H 200.573 2.40216 -3.09901 0
M  V30 2032 H 202.063 3.26179 -2.60762 0
M  V30 2033 N 202.5 1.5196 0.417844 0
M  V30 2034 C 203.447 1.74678 1.50852 0
M  V30 2035 C 204.417 0.588947 1.55308 0
M  V30 2036 O 205.602 0.825544 1.72016 0
M  V30 2037 C 202.742 1.89544 2.88387 0
M  V30 2038 C 201.855 3.17166 2.93309 0
M  V30 2039 C 200.99 3.22513 4.22088 0
M  V30 2040 C 200.029 4.44372 4.20951 0
M  V30 2041 N 199.166 4.47161 5.41287 0
M  V30 2042 H 204.006 2.67768 1.30783 0
M  V30 2043 H 201.543 1.32689 0.63498 0
M  V30 2044 H 203.501 1.96146 3.68216 0
M  V30 2045 H 202.131 0.998424 3.06971 0
M  V30 2046 H 201.183 3.19778 2.06024 0
M  V30 2047 H 202.495 4.07021 2.88332 0
M  V30 2048 H 201.649 3.28139 5.10303 0
M  V30 2049 H 200.388 2.30581 4.29748 0
M  V30 2050 H 199.393 4.38902 3.31127 0
M  V30 2051 H 200.618 5.3759 4.14938 0
M  V30 2052 H 198.564 3.58108 5.49632 0
M  V30 2053 H 198.481 5.3085 5.3827 0
M  V30 2054 H 199.749 4.57005 6.3148 0
M  V30 2055 N 203.978 -0.674533 1.42435 0
M  V30 2056 C 204.925 -1.78807 1.45934 0
M  V30 2057 C 205.895 -1.63157 0.311271 0
M  V30 2058 O 207.08 -1.83707 0.515383 0
M  V30 2059 C 204.22 -3.16839 1.36773 0
M  V30 2060 C 203.333 -3.43774 2.61617 0
M  V30 2061 C 202.468 -4.71536 2.44597 0
M  V30 2062 C 201.507 -4.91505 3.64814 0
M  V30 2063 N 200.644 -6.10508 3.46734 0
M  V30 2064 H 205.484 -1.75151 2.41093 0
M  V30 2065 H 203.021 -0.85504 1.19697 0
M  V30 2066 H 204.979 -3.96606 1.29459 0
M  V30 2067 H 203.609 -3.19619 0.452089 0
M  V30 2068 H 202.661 -2.58259 2.79297 0
M  V30 2069 H 203.973 -3.54423 3.50978 0
M  V30 2070 H 203.127 -5.59393 2.3487 0
M  V30 2071 H 201.866 -4.6317 1.52726 0
M  V30 2072 H 200.871 -4.0209 3.74972 0
M  V30 2073 H 202.096 -5.01716 4.57665 0
M  V30 2074 H 200.042 -6.03315 2.5758 0
M  V30 2075 H 199.959 -6.2202 4.29682 0
M  V30 2076 H 201.227 -7.01044 3.40819 0
M  V30 2077 N 205.456 -1.28612 -0.910864 0
M  V30 2078 C 206.702 -1.17116 -1.66299 0
M  V30 2079 C 207.057 0.276917 -1.90397 0
M  V30 2080 O 206.35 1.19795 -1.49532 0
M  V30 2081 C 206.544 -1.90624 -3.0232 0
M  V30 2082 C 206.373 -3.42431 -2.91498 0
M  V30 2083 C 205.143 -4.11773 -2.92867 0
M  V30 2084 C 207.341 -4.38124 -2.69355 0
M  V30 2085 N 205.323 -5.50025 -2.72664 0
M  V30 2086 C 206.694 -5.63759 -2.58023 0
M  V30 2087 C 208.749 -4.28016 -2.54375 0
M  V30 2088 C 207.452 -6.80436 -2.33238 0
M  V30 2089 C 209.478 -5.44433 -2.30969 0
M  V30 2090 C 208.84 -6.69034 -2.20394 0
M  V30 2091 H 204.939 -0.483506 -0.61461 0
M  V30 2092 H 207.523 -1.62299 -1.0755 0
M  V30 2093 H 205.694 -1.4787 -3.5915 0
M  V30 2094 H 207.426 -1.71488 -3.66571 0
M  V30 2095 H 204.181 -3.63378 -3.03732 0
M  V30 2096 H 204.605 -6.22705 -2.65646 0
M  V30 2097 H 209.247 -3.32388 -2.613 0
M  V30 2098 H 206.965 -7.7613 -2.25051 0
M  V30 2099 H 210.551 -5.38504 -2.20238 0
M  V30 2100 H 209.431 -7.57595 -2.02531 0
M  V30 2101 N 206.934 1.1197 -1.10907 0
M  V30 2102 C 207.844 2.21433 -0.774896 0
M  V30 2103 C 208.86 1.72478 0.229657 0
M  V30 2104 O 210.036 2.01288 0.0672008 0
M  V30 2105 C 207.101 3.4602 -0.216986 0
M  V30 2106 C 206.162 4.09791 -1.27944 0
M  V30 2107 C 205.395 5.28431 -0.748055 0
M  V30 2108 O 205.618 5.68823 0.423833 0
M  V30 2109 O 204.552 5.82644 -1.51027 0
M  V30 2110 H 208.378 2.5242 -1.68873 0
M  V30 2111 H 205.963 1.20399 -0.884555 0
M  V30 2112 H 207.845 4.21304 0.090059 0
M  V30 2113 H 206.52 3.16698 0.669633 0
M  V30 2114 H 205.427 3.36265 -1.63941 0
M  V30 2115 H 206.76 4.4328 -2.13925 0
M  V30 2116 N 208.412 0.89855 1.29475 0
M  V30 2117 C 209.359 0.373819 2.27753 0
M  V30 2118 C 210.329 -0.543444 1.56958 0
M  V30 2119 O 211.514 -0.468934 1.84948 0
M  V30 2120 C 208.654 -0.393648 3.42848 0
M  V30 2121 C 207.767 0.554379 4.28428 0
M  V30 2122 C 206.902 -0.230026 5.30702 0
M  V30 2123 C 205.941 0.712599 6.07938 0
M  V30 2124 N 205.078 -0.0373283 7.0209 0
M  V30 2125 H 209.918 1.21699 2.72017 0
M  V30 2126 H 207.455 0.611456 1.33789 0
M  V30 2127 H 209.413 -0.85466 4.08352 0
M  V30 2128 H 208.043 -1.20128 2.99615 0
M  V30 2129 H 207.095 1.13391 3.63107 0
M  V30 2130 H 208.407 1.27597 4.82204 0
M  V30 2131 H 207.561 -0.752288 6.02018 0
M  V30 2132 H 206.3 -0.984758 4.77654 0
M  V30 2133 H 205.305 1.24637 5.35486 0
M  V30 2134 H 206.53 1.46664 6.63074 0
M  V30 2135 H 204.476 -0.774348 6.51414 0
M  V30 2136 H 204.393 0.624374 7.53417 0
M  V30 2137 H 205.661 -0.539891 7.77628 0
M  V30 2138 N 209.89 -1.43072 0.660911 0
M  V30 2139 C 210.853 -2.29194 -0.0166406 0
M  V30 2140 C 211.853 -1.42609 -0.742912 0
M  V30 2141 O 213.043 -1.64155 -0.583004 0
M  V30 2142 C 210.175 -3.24831 -1.0343 0
M  V30 2143 H 211.368 -2.90596 0.741208 0
M  V30 2144 H 208.921 -1.5048 0.422532 0
M  V30 2145 H 209.656 -2.68339 -1.82111 0
M  V30 2146 H 209.441 -3.88676 -0.517082 0
M  V30 2147 H 210.931 -3.89451 -1.50723 0
M  V30 2148 N 211.368 -0.403325 -1.52352 0
M  V30 2149 C 212.593 0.176499 -2.06648 0
M  V30 2150 C 213.018 1.38577 -1.27193 0
M  V30 2151 O 212.376 1.7879 -0.300637 0
M  V30 2152 C 212.424 0.511061 -3.5696 0
M  V30 2153 O 211.528 1.60294 -3.79973 0
M  V30 2154 H 210.869 0.0167337 -0.663789 0
M  V30 2155 H 213.399 -0.574848 -1.96359 0
M  V30 2156 H 213.409 0.771362 -4.00642 0
M  V30 2157 H 212.084 -0.37296 -4.14224 0
M  V30 2158 H 210.661 1.33526 -3.48174 0
M  V30 2159 N 212.846 1.57033 -0.133567 0
M  V30 2160 C 213.793 2.16074 0.811208 0
M  V30 2161 C 214.763 1.08979 1.2535 0
M  V30 2162 O 215.948 1.36958 1.32843 0
M  V30 2163 C 213.088 2.77595 2.05024 0
M  V30 2164 C 212.201 3.99042 1.65498 0
M  V30 2165 C 211.336 4.48603 2.84479 0
M  V30 2166 C 210.375 5.62547 2.41262 0
M  V30 2167 N 209.512 6.06787 3.53206 0
M  V30 2168 H 214.352 2.96477 0.300906 0
M  V30 2169 H 211.889 1.46462 0.136822 0
M  V30 2170 H 213.847 3.11402 2.77642 0
M  V30 2171 H 212.477 1.99859 2.53488 0
M  V30 2172 H 211.529 3.71302 0.826981 0
M  V30 2173 H 212.841 4.81629 1.29748 0
M  V30 2174 H 211.995 4.84395 3.65303 0
M  V30 2175 H 210.734 3.64995 3.23465 0
M  V30 2176 H 209.739 5.26345 1.58874 0
M  V30 2177 H 210.964 6.47931 2.03377 0
M  V30 2178 H 208.91 5.26117 3.91838 0
M  V30 2179 H 208.827 6.84266 3.21427 0
M  V30 2180 H 210.095 6.4722 4.34427 0
M  V30 2181 N 214.325 -0.140222 1.56975 0
M  V30 2182 C 215.573 -0.850005 1.83356 0
M  V30 2183 C 215.894 -1.81399 0.71551 0
M  V30 2184 O 215.164 -1.94136 -0.262294 0
M  V30 2185 H 213.744 -0.316886 0.676456 0
M  V30 2186 H 216.406 -0.132608 1.94448 0
M  V30 2187 H 215.502 -1.40814 2.78528 0
M  V30 2188 N 215.803 -1.52179 -0.40978 0
M  V30 2189 C 217.049 -1.67408 -1.15525 0
M  V30 2190 C 217.404 -0.398746 -1.88223 0
M  V30 2191 O 216.697 0.60678 -1.81738 0
M  V30 2192 C 216.891 -2.83428 -2.17723 0
M  V30 2193 C 216.72 -4.22121 -1.55061 0
M  V30 2194 C 215.49 -4.87657 -1.3236 0
M  V30 2195 C 217.688 -5.04248 -1.01185 0
M  V30 2196 N 215.67 -6.10387 -0.655834 0
M  V30 2197 C 217.041 -6.18209 -0.470963 0
M  V30 2198 C 219.096 -4.89583 -0.906252 0
M  V30 2199 C 217.799 -7.1911 0.165172 0
M  V30 2200 C 219.825 -5.90718 -0.28397 0
M  V30 2201 C 219.187 -7.03969 0.246243 0
M  V30 2202 H 215.286 -0.666251 -0.409431 0
M  V30 2203 H 217.87 -1.89482 -0.447729 0
M  V30 2204 H 216.041 -2.6297 -2.85834 0
M  V30 2205 H 217.773 -2.87697 -2.84627 0
M  V30 2206 H 214.528 -4.46007 -1.59294 0
M  V30 2207 H 214.952 -6.76153 -0.338596 0
M  V30 2208 H 219.594 -4.02253 -1.302 0
M  V30 2209 H 217.312 -8.06066 0.572986 0
M  V30 2210 H 220.898 -5.81443 -0.203792 0
M  V30 2211 H 219.778 -7.80886 0.720173 0
M  V30 2212 N 217.281 0.66697 -1.42791 0
M  V30 2213 C 218.214 1.79177 -1.41318 0
M  V30 2214 C 219.192 1.60234 -0.276401 0
M  V30 2215 O 220.376 1.82602 -0.46785 0
M  V30 2216 C 217.503 3.16289 -1.21157 0
M  V30 2217 C 216.549 3.53964 -2.37932 0
M  V30 2218 S 217.382 3.55501 -4.00474 0
M  V30 2219 C 218.538 4.95292 -3.8267 0
M  V30 2220 H 218.771 1.80153 -2.365 0
M  V30 2221 H 216.304 0.838357 -1.29657 0
M  V30 2222 H 218.262 3.95428 -1.10212 0
M  V30 2223 H 216.923 3.1289 -0.275481 0
M  V30 2224 H 216.116 4.53646 -2.19594 0
M  V30 2225 H 215.718 2.82204 -2.45432 0
M  V30 2226 H 218.01 5.83584 -3.44145 0
M  V30 2227 H 218.953 5.18679 -4.82055 0
M  V30 2228 H 219.361 4.68179 -3.15386 0
M  V30 2229 N 218.759 1.29093 0.90403 0
M  V30 2230 C 220.005 1.17996 1.65676 0
M  V30 2231 C 220.36 -0.266816 1.90541 0
M  V30 2232 O 219.653 -1.19 1.50165 0
M  V30 2233 C 219.847 1.92224 3.01305 0
M  V30 2234 C 219.676 3.43972 2.89678 0
M  V30 2235 C 218.446 4.1332 2.90679 0
M  V30 2236 C 220.644 4.39546 2.67028 0
M  V30 2237 N 218.626 5.51463 2.69743 0
M  V30 2238 C 219.997 5.65119 2.5503 0
M  V30 2239 C 222.052 4.29359 2.52101 0
M  V30 2240 C 220.755 6.81663 2.29626 0
M  V30 2241 C 222.781 5.4565 2.28079 0
M  V30 2242 C 222.143 6.70193 2.16843 0
M  V30 2243 H 218.242 0.486759 0.612037 0
M  V30 2244 H 220.826 1.62868 1.06688 0
M  V30 2245 H 218.997 1.49773 3.58361 0
M  V30 2246 H 220.729 1.73429 3.65656 0
M  V30 2247 H 217.484 3.64984 3.01801 0
M  V30 2248 H 217.908 6.24105 2.6234 0
M  V30 2249 H 222.55 3.33769 2.59534 0
M  V30 2250 H 220.268 7.77313 2.20932 0
M  V30 2251 H 223.854 5.39664 2.1738 0
M  V30 2252 H 222.734 7.58659 1.98511 0
M  V30 2253 N 220.237 -1.11381 1.11499 0
M  V30 2254 C 221.184 -2.17439 0.773887 0
M  V30 2255 C 222.154 -1.64132 -0.254899 0
M  V30 2256 O 223.339 -1.90345 -0.13168 0
M  V30 2257 C 220.479 -3.44373 0.223917 0
M  V30 2258 C 219.592 -4.1168 1.30934 0
M  V30 2259 C 218.727 -5.263 0.71984 0
M  V30 2260 C 217.766 -5.85493 1.78507 0
M  V30 2261 N 216.903 -6.91507 1.21502 0
M  V30 2262 H 221.743 -2.45962 1.68246 0
M  V30 2263 H 219.28 -1.20744 0.840191 0
M  V30 2264 H 221.238 -4.17047 -0.112921 0
M  V30 2265 H 219.868 -3.16232 -0.647851 0
M  V30 2266 H 218.92 -3.37073 1.76312 0
M  V30 2267 H 220.232 -4.51729 2.11524 0
M  V30 2268 H 219.386 -6.05785 0.333094 0
M  V30 2269 H 218.125 -4.87559 -0.117377 0
M  V30 2270 H 217.13 -5.04686 2.18111 0
M  V30 2271 H 218.355 -6.26301 2.62533 0
M  V30 2272 H 216.301 -6.54783 0.399455 0
M  V30 2273 H 216.218 -7.30214 1.95763 0
M  V30 2274 H 217.486 -7.74795 0.855181 0
M  V30 2275 N 221.715 -0.905404 -1.28997 0
M  V30 2276 C 222.645 -0.404212 -2.29975 0
M  V30 2277 C 223.626 0.523784 -1.61835 0
M  V30 2278 O 224.811 0.433298 -1.89304 0
M  V30 2279 C 221.941 0.364042 -3.45387 0
M  V30 2280 C 220.895 -0.474048 -4.25367 0
M  V30 2281 C 220.221 0.422045 -5.33032 0
M  V30 2282 C 221.521 -1.72696 -4.92923 0
M  V30 2283 H 223.215 -1.24807 -2.72146 0
M  V30 2284 H 220.761 -0.601585 -1.30832 0
M  V30 2285 H 222.714 0.725447 -4.15109 0
M  V30 2286 H 221.438 1.24174 -3.02074 0
M  V30 2287 H 220.097 -0.81786 -3.57361 0
M  V30 2288 H 219.745 1.29804 -4.85963 0
M  V30 2289 H 219.445 -0.135057 -5.87445 0
M  V30 2290 H 220.969 0.779517 -6.05604 0
M  V30 2291 H 222.383 -1.43495 -5.55051 0
M  V30 2292 H 220.78 -2.22582 -5.57295 0
M  V30 2293 H 221.85 -2.45964 -4.17887 0
M  V30 2294 N 223.193 1.4272 -0.668489 0
M  V30 2295 C 224.604 1.84793 -0.266151 0
M  V30 2296 C 224.955 1.55959 1.19043 0
M  V30 2297 O 224.08 1.01622 1.91055 0
M  V30 2298 C 224.675 3.35436 -0.476271 0
M  V30 2299 C 223.234 3.76182 -0.128113 0
M  V30 2300 C 222.381 2.66344 -0.771777 0
M  V30 2301 H 225.332 1.32656 -0.871098 0
M  V30 2302 H 225.353 3.79515 0.273561 0
M  V30 2303 H 224.865 3.5639 -1.53647 0
M  V30 2304 H 222.966 3.60836 0.928891 0
M  V30 2305 H 223.079 4.75766 -0.564231 0
M  V30 2306 H 221.443 2.53885 -0.203652 0
M  V30 2307 H 222.226 2.90123 -1.83531 0
M  V30 2308 N 224.671 0.411399 1.52136 0
M  V30 2309 C 225.948 -0.222308 1.94333 0
M  V30 2310 C 226.328 -1.6242 1.34844 0
M  V30 2311 O 225.676 -2.22384 0.525145 0
M  V30 2312 C 225.886 -0.226345 3.48265 0
M  V30 2313 C 227.234 -0.444592 4.22266 0
M  V30 2314 O 228.258 -0.305602 3.54887 0
M  V30 2315 O 227.117 -0.718749 5.41753 0
M  V30 2316 H 224.211 -0.143907 0.814383 0
M  V30 2317 H 226.757 0.467506 1.63133 0
M  V30 2318 H 225.529 0.75475 3.83952 0
M  V30 2319 H 225.152 -0.960163 3.85832 0
M  V30 2320 N 226.149 -1.5696 0.141893 0
M  V30 2321 C 227.389 -1.9785 -0.513304 0
M  V30 2322 C 227.753 -1.02467 -1.62371 0
M  V30 2323 O 228.954 -1.32382 -2.33941 0
M  V30 2324 C 227.225 -3.42797 -1.01118 0
M  V30 2325 S 228.784 -4.05709 -1.67169 0
M  V30 2326 H 225.602 -0.691318 -0.166135 0
M  V30 2327 H 228.204 -1.94114 0.232398 0
M  V30 2328 H 226.908 -4.0995 -0.192179 0
M  V30 2329 H 226.439 -3.50235 -1.79162 0
M  V30 2330 H 228.454 -3.98342 -2.95868 0
M  V30 2331 N 227.627 0.131896 -1.57047 0
M  V30 2332 C 228.557 1.16384 -2.02428 0
M  V30 2333 C 229.538 1.43936 -0.90644 0
M  V30 2334 O 230.723 1.54599 -1.17528 0
M  V30 2335 C 227.853 2.49328 -2.4177 0
M  V30 2336 C 226.807 2.36266 -3.56879 0
M  V30 2337 C 226.133 3.74057 -3.8208 0
M  V30 2338 C 227.433 1.834 -4.89042 0
M  V30 2339 H 229.127 0.786433 -2.88887 0
M  V30 2340 H 226.673 0.376855 -1.38981 0
M  V30 2341 H 228.626 3.21759 -2.7212 0
M  V30 2342 H 227.35 2.88934 -1.52266 0
M  V30 2343 H 226.009 1.66286 -3.26718 0
M  V30 2344 H 225.657 4.11125 -2.89803 0
M  V30 2345 H 225.357 3.66174 -4.59554 0
M  V30 2346 H 226.881 4.48012 -4.1487 0
M  V30 2347 H 228.295 2.45636 -5.18011 0
M  V30 2348 H 226.692 1.8637 -5.70426 0
M  V30 2349 H 227.762 0.790662 -4.7841 0
M  V30 2350 N 229.106 1.52395 0.401703 0
M  V30 2351 C 230.054 1.7689 1.51039 0
M  V30 2352 C 231.048 0.636298 1.56996 0
M  V30 2353 O 232.254 0.818507 1.60314 0
M  V30 2354 H 228.629 0.559502 0.502456 0
M  V30 2355 H 230.6 2.69757 1.27568 0
M  V30 2356 C 229.349 1.94331 2.88324 0
M  V30 2357 H 228.672 2.80905 2.84486 0
M  V30 2358 H 230.112 2.15466 3.65172 0
M  V30 2359 C 228.571 0.712396 3.29282 0
M  V30 2360 O 229.101 -0.116218 4.01532 0
M  V30 2361 N 227.307 0.546154 2.85422 0
M  V30 2362 H 226.854 1.22156 2.26794 0
M  V30 2363 H 226.812 -0.276113 3.13185 0
M  V30 2364 N 230.584 -0.659388 1.43143 0
M  V30 2365 C 231.861 -1.41627 1.34912 0
M  V30 2366 C 232.241 -2.11099 -0.00607785 0
M  V30 2367 O 231.589 -2.04353 -1.02236 0
M  V30 2368 C 231.799 -2.40604 2.52805 0
M  V30 2369 C 233.147 -3.04789 2.95616 0
M  V30 2370 O 234.171 -2.50932 2.52807 0
M  V30 2371 O 233.03 -4.02421 3.69756 0
M  V30 2372 H 230.124 -0.63246 0.532844 0
M  V30 2373 H 232.67 -0.686814 1.5518 0
M  V30 2374 H 231.442 -1.88174 3.43083 0
M  V30 2375 H 231.065 -3.21009 2.34604 0
M  V30 2376 N 232.062 -1.29571 -0.897171 0
M  V30 2377 C 233.29 -1.20583 -1.68129 0
M  V30 2378 C 233.705 0.233181 -1.87354 0
M  V30 2379 O 233.062 1.15579 -1.41236 0
M  V30 2380 C 233.113 -1.91772 -3.06441 0
M  V30 2381 O 232.834 -3.30053 -2.88091 0
M  V30 2382 C 234.335 -1.89291 -4.00854 0
M  V30 2383 H 231.555 -0.417826 -0.525036 0
M  V30 2384 H 234.099 -1.70987 -1.12177 0
M  V30 2385 H 232.254 -1.45196 -3.59161 0
M  V30 2386 H 232.668 -3.65942 -3.75748 0
M  V30 2387 H 234.142 -2.43662 -4.95311 0
M  V30 2388 H 234.619 -0.869014 -4.30517 0
M  V30 2389 H 235.225 -2.35622 -3.54066 0
M  V30 2390 N 233.54 1.10788 -1.12088 0
M  V30 2391 C 234.788 1.8231 -0.872205 0
M  V30 2392 C 235.109 1.85419 0.603709 0
M  V30 2393 O 234.379 1.32963 1.43867 0
M  V30 2394 H 232.959 0.675137 -0.319686 0
M  V30 2395 H 235.621 1.34068 -1.41463 0
M  V30 2396 H 234.717 2.85955 -1.25045 0
M  V30 2397 N 235.018 0.912232 1.28515 0
M  V30 2398 C 236.267 0.540504 1.94323 0
M  V30 2399 C 236.58 -0.920044 1.72611 0
M  V30 2400 O 237.786 -1.39986 2.32629 0
M  V30 2401 C 236.242 0.915803 3.48053 0
M  V30 2402 C 235.85 2.39598 3.78546 0
M  V30 2403 C 237.594 0.614588 4.20027 0
M  V30 2404 C 235.501 2.71148 5.25578 0
M  V30 2405 H 234.431 0.198418 0.727424 0
M  V30 2406 H 237.082 1.11094 1.46049 0
M  V30 2407 H 235.464 0.274168 3.9505 0
M  V30 2408 H 236.638 3.08422 3.42364 0
M  V30 2409 H 234.953 2.66749 3.1974 0
M  V30 2410 H 237.55 0.827002 5.28266 0
M  V30 2411 H 237.893 -0.447531 4.13887 0
M  V30 2412 H 238.426 1.21462 3.78803 0
M  V30 2413 H 235.165 3.76207 5.36794 0
M  V30 2414 H 234.685 2.0696 5.62963 0
M  V30 2415 H 236.364 2.58072 5.93302 0
M  V30 2416 N 236.496 -1.42363 0.676048 0
M  V30 2417 C 237.743 -2.01522 0.19883 0
M  V30 2418 C 238.071 -1.53456 -1.19505 0
M  V30 2419 O 237.326 -0.727967 -1.81657 0
M  V30 2420 C 237.625 -3.56929 0.183431 0
M  V30 2421 C 237.291 -4.24431 1.52215 0
M  V30 2422 C 235.953 -4.42585 1.8887 0
M  V30 2423 C 238.305 -4.62459 2.40377 0
M  V30 2424 C 235.633 -4.96039 3.13309 0
M  V30 2425 C 237.985 -5.17294 3.64129 0
M  V30 2426 C 236.649 -5.33661 4.00951 0
M  V30 2427 H 235.919 -0.737419 0.0727571 0
M  V30 2428 H 238.566 -1.70531 0.871281 0
M  V30 2429 H 236.871 -3.87594 -0.572532 0
M  V30 2430 H 238.568 -4.00486 -0.203035 0
M  V30 2431 H 235.158 -4.10661 1.22701 0
M  V30 2432 H 239.342 -4.48105 2.13343 0
M  V30 2433 H 234.598 -5.06896 3.41857 0
M  V30 2434 H 238.772 -5.45704 4.32644 0
M  V30 2435 H 236.399 -5.74845 4.9745 0
M  V30 2436 N 237.974 -0.419461 -1.51915 0
M  V30 2437 C 239.222 0.152637 -2.01523 0
M  V30 2438 C 239.543 1.44762 -1.30649 0
M  V30 2439 O 238.813 1.90997 -0.435535 0
M  V30 2440 H 237.393 0.0593966 -0.744635 0
M  V30 2441 H 240.055 -0.558073 -1.86739 0
M  V30 2442 H 239.151 0.341369 -3.10227 0
M  V30 2443 N 239.452 1.56882 -0.150215 0
M  V30 2444 C 240.384 2.14057 0.819286 0
M  V30 2445 C 241.397 1.09082 1.20851 0
M  V30 2446 O 242.586 1.36347 1.15203 0
M  V30 2447 C 239.686 2.65102 2.11127 0
M  V30 2448 C 238.859 3.94511 1.88891 0
M  V30 2449 C 237.918 4.30834 3.02107 0
M  V30 2450 O 236.944 4.99099 2.73659 0
M  V30 2451 N 238.146 3.90676 4.29363 0
M  V30 2452 H 240.911 2.97871 0.330618 0
M  V30 2453 H 238.472 1.61866 0.0332538 0
M  V30 2454 H 240.464 2.86411 2.85921 0
M  V30 2455 H 239.034 1.85994 2.51247 0
M  V30 2456 H 238.254 3.81795 0.981152 0
M  V30 2457 H 239.542 4.7907 1.71376 0
M  V30 2458 H 238.94 3.35677 4.55343 0
M  V30 2459 H 237.497 4.1703 5.00928 0
M  V30 2460 N 240.93 -0.123565 1.57115 0
M  V30 2461 C 241.878 -1.17082 2.00984 0
M  V30 2462 C 242.872 -1.43136 0.906009 0
M  V30 2463 O 244.078 -1.43152 1.09121 0
M  V30 2464 H 240.453 -0.394653 0.64012 0
M  V30 2465 H 242.424 -0.774292 2.88179 0
M  V30 2466 C 241.173 -2.49057 2.42623 0
M  V30 2467 H 240.496 -2.29846 3.27125 0
M  V30 2468 H 241.936 -3.20906 2.7712 0
M  V30 2469 C 240.395 -3.11305 1.28805 0
M  V30 2470 O 240.925 -3.97171 0.60153 0
M  V30 2471 N 239.131 -2.71111 1.04628 0
M  V30 2472 H 238.678 -2.01382 1.60634 0
M  V30 2473 H 238.636 -3.1309 0.286685 0
M  V30 2474 N 242.408 -1.52605 -0.393616 0
M  V30 2475 C 243.648 -1.6911 -1.1481 0
M  V30 2476 C 244.012 -0.41969 -1.87357 0
M  V30 2477 O 245.213 -0.461034 -2.64817 0
M  V30 2478 C 243.484 -2.88909 -2.10395 0
M  V30 2479 S 245.043 -3.25977 -2.93742 0
M  V30 2480 H 241.861 -0.595337 -0.38871 0
M  V30 2481 H 244.463 -1.90641 -0.433178 0
M  V30 2482 H 243.167 -3.79672 -1.55812 0
M  V30 2483 H 242.698 -2.69698 -2.86403 0
M  V30 2484 H 244.713 -2.75806 -4.12487 0
M  V30 2485 N 243.887 0.651787 -1.4349 0
M  V30 2486 C 245.133 1.4121 -1.46395 0
M  V30 2487 C 245.488 1.92202 -0.087366 0
M  V30 2488 O 244.781 1.69452 0.894231 0
M  V30 2489 C 244.975 2.60914 -2.44251 0
M  V30 2490 C 244.804 2.21639 -3.91288 0
M  V30 2491 C 243.574 2.09897 -4.59643 0
M  V30 2492 C 245.772 1.81835 -4.81083 0
M  V30 2493 N 243.754 1.63967 -5.91598 0
M  V30 2494 C 245.125 1.46998 -6.02322 0
M  V30 2495 C 247.18 1.69031 -4.6833 0
M  V30 2496 C 245.883 1.00638 -7.12225 0
M  V30 2497 C 247.909 1.24077 -5.78238 0
M  V30 2498 C 247.271 0.901772 -6.98604 0
M  V30 2499 H 243.37 0.512322 -0.590805 0
M  V30 2500 H 245.954 0.74989 -1.7968 0
M  V30 2501 H 244.125 3.24792 -2.1299 0
M  V30 2502 H 245.857 3.27622 -2.37584 0
M  V30 2503 H 242.612 2.297 -4.14168 0
M  V30 2504 H 243.036 1.43359 -6.61647 0
M  V30 2505 H 247.678 1.93878 -3.75727 0
M  V30 2506 H 245.396 0.745399 -8.04655 0
M  V30 2507 H 248.982 1.14657 -5.7039 0
M  V30 2508 H 247.862 0.559226 -7.82203 0
M  V30 2509 N 245.365 1.30045 0.890287 0
M  V30 2510 C 246.595 1.21296 1.67245 0
M  V30 2511 C 247.003 -0.227471 1.87828 0
M  V30 2512 O 246.346 -1.16296 1.422 0
M  V30 2513 C 246.408 1.86519 3.07329 0
M  V30 2514 C 246.072 3.35837 3.09939 0
M  V30 2515 C 247.069 4.31915 2.89389 0
M  V30 2516 C 244.754 3.77196 3.31706 0
M  V30 2517 C 246.748 5.67325 2.90552 0
M  V30 2518 C 244.435 5.12725 3.32499 0
M  V30 2519 C 245.433 6.076 3.11947 0
M  V30 2520 O 245.121 7.40655 3.12547 0
M  V30 2521 H 244.853 0.4211 0.528821 0
M  V30 2522 H 247.407 1.72111 1.12103 0
M  V30 2523 H 245.637 1.30228 3.64112 0
M  V30 2524 H 247.326 1.71963 3.67673 0
M  V30 2525 H 248.092 4.01294 2.72375 0
M  V30 2526 H 243.971 3.03796 3.4674 0
M  V30 2527 H 247.515 6.41354 2.74429 0
M  V30 2528 H 243.412 5.42988 3.49047 0
M  V30 2529 H 244.18 7.49577 3.28749 0
M  V30 2530 N 246.843 -1.10192 1.12674 0
M  V30 2531 C 247.793 -2.14754 0.765801 0
M  V30 2532 C 248.777 -1.59154 -0.236409 0
M  V30 2533 O 249.969 -1.76951 -0.0415261 0
M  V30 2534 C 247.098 -3.42563 0.224827 0
M  V30 2535 C 246.184 -4.05091 1.25548 0
M  V30 2536 N 246.575 -4.42287 2.4539 0
M  V30 2537 C 244.873 -4.32186 1.10142 0
M  V30 2538 C 245.574 -4.91441 3.11224 0
M  V30 2539 N 244.55 -4.88405 2.38666 0
M  V30 2540 H 248.352 -2.41309 1.67772 0
M  V30 2541 H 245.866 -1.27339 1.00789 0
M  V30 2542 H 247.863 -4.16868 -0.0519578 0
M  V30 2543 H 246.523 -3.17467 -0.681515 0
M  V30 2544 H 247.534 -4.33902 2.82754 0
M  V30 2545 H 244.211 -4.16735 0.252587 0
M  V30 2546 H 245.601 -5.29749 4.13298 0
M  V30 2547 N 248.321 -0.919034 -1.28029 0
M  V30 2548 C 249.568 -0.554934 -1.94748 0
M  V30 2549 C 249.896 0.90231 -1.72304 0
M  V30 2550 O 249.151 1.65767 -1.04018 0
M  V30 2551 C 249.45 -0.816855 -3.4794 0
M  V30 2552 C 249.116 -2.25448 -3.90492 0
M  V30 2553 C 247.778 -2.64752 -4.01821 0
M  V30 2554 C 250.13 -3.18977 -4.12193 0
M  V30 2555 C 247.458 -3.96727 -4.32232 0
M  V30 2556 C 249.81 -4.50523 -4.44086 0
M  V30 2557 C 248.474 -4.89673 -4.53626 0
M  V30 2558 H 247.744 -0.203065 -0.712633 0
M  V30 2559 H 250.391 -1.16136 -1.52265 0
M  V30 2560 H 248.696 -0.127677 -3.91592 0
M  V30 2561 H 250.393 -0.514238 -3.97689 0
M  V30 2562 H 246.983 -1.93952 -3.82205 0
M  V30 2563 H 251.167 -2.89817 -4.02889 0
M  V30 2564 H 246.423 -4.26754 -4.37825 0
M  V30 2565 H 250.597 -5.23005 -4.59825 0
M  V30 2566 H 248.224 -5.91969 -4.76946 0
M  V30 2567 N 249.799 1.42003 -0.683588 0
M  V30 2568 C 250.729 2.33487 -0.024866 0
M  V30 2569 C 251.71 1.51163 0.779975 0
M  V30 2570 O 252.895 1.79739 0.735362 0
M  V30 2571 C 250.025 3.3487 0.920836 0
M  V30 2572 C 248.979 4.27414 0.223958 0
M  V30 2573 C 248.305 5.19074 1.2832 0
M  V30 2574 C 249.605 5.14445 -0.90242 0
M  V30 2575 H 251.299 2.88819 -0.788921 0
M  V30 2576 H 248.845 1.38873 -0.38083 0
M  V30 2577 H 250.798 3.97787 1.39081 0
M  V30 2578 H 249.522 2.77861 1.71642 0
M  V30 2579 H 248.181 3.65904 -0.225864 0
M  V30 2580 H 247.829 4.58387 2.071 0
M  V30 2581 H 247.529 5.81822 0.821995 0
M  V30 2582 H 249.053 5.84867 1.75392 0
M  V30 2583 H 250.467 5.70998 -0.513272 0
M  V30 2584 H 248.864 5.86072 -1.28997 0
M  V30 2585 H 249.934 4.52322 -1.74737 0
M  V30 2586 N 251.277 0.427512 1.51691 0
M  V30 2587 C 252.507 -0.140986 2.06118 0
M  V30 2588 C 252.915 -1.37854 1.29588 0
M  V30 2589 O 252.258 -1.80411 0.346036 0
M  V30 2590 C 252.32 -0.538276 3.55447 0
M  V30 2591 C 251.984 0.591095 4.53161 0
M  V30 2592 C 252.981 1.46027 4.98971 0
M  V30 2593 C 250.666 0.769028 4.96378 0
M  V30 2594 C 252.66 2.49216 5.8666 0
M  V30 2595 C 250.347 1.80421 5.83859 0
M  V30 2596 C 251.345 2.66417 6.28897 0
M  V30 2597 O 251.033 3.68159 7.14643 0
M  V30 2598 H 250.765 -0.0157455 0.675817 0
M  V30 2599 H 253.319 0.602495 1.96365 0
M  V30 2600 H 251.549 -1.33432 3.6295 0
M  V30 2601 H 253.238 -1.0368 3.92435 0
M  V30 2602 H 254.004 1.33429 4.66285 0
M  V30 2603 H 249.883 0.109273 4.6087 0
M  V30 2604 H 253.427 3.16372 6.21735 0
M  V30 2605 H 249.324 1.93042 6.15959 0
M  V30 2606 H 250.092 3.64622 7.32798 0
M  V30 2607 N 252.755 -1.56801 0.158532 0
M  V30 2608 C 254.171 -1.5837 -0.197774 0
M  V30 2609 C 254.371 -1.17334 -1.63814 0
M  V30 2610 O 253.427 -0.878988 -2.36707 0
M  V30 2611 C 254.74 -3.00615 0.0714459 0
M  V30 2612 C 256.288 -3.12999 0.00864533 0
M  V30 2613 C 256.763 -4.57313 0.250685 0
M  V30 2614 N 258.254 -4.62777 0.198014 0
M  V30 2615 C 258.989 -5.72271 0.359642 0
M  V30 2616 N 258.485 -6.90371 0.579625 0
M  V30 2617 N 260.278 -5.61318 0.296438 0
M  V30 2618 H 252.429 -1.81765 1.09887 0
M  V30 2619 H 254.692 -0.841849 0.435884 0
M  V30 2620 H 254.398 -3.35068 1.06874 0
M  V30 2621 H 254.272 -3.71683 -0.642757 0
M  V30 2622 H 256.659 -2.7838 -0.979217 0
M  V30 2623 H 256.74 -2.44393 0.755359 0
M  V30 2624 H 256.384 -4.92639 1.2357 0
M  V30 2625 H 256.314 -5.24061 -0.516489 0
M  V30 2626 H 258.805 -3.77885 0.0331115 0
M  V30 2627 H 259.118 -7.69689 0.69275 0
M  V30 2628 H 257.463 -6.92264 0.616087 0
M  V30 2629 H 260.654 -4.67932 0.125258 0
M  V30 2630 H 260.827 -6.46599 0.425831 0
M  V30 2631 N 254.233 0.115231 -1.57178 0
M  V30 2632 C 255.481 0.820727 -1.84685 0
M  V30 2633 C 255.802 1.80237 -0.744279 0
M  V30 2634 O 255.072 1.94529 0.231375 0
M  V30 2635 H 253.652 0.306084 -0.681411 0
M  V30 2636 H 256.314 0.101656 -1.94635 0
M  V30 2637 H 255.41 1.36366 -2.80733 0
M  V30 2638 N 255.711 1.52812 0.385517 0
M  V30 2639 C 256.959 1.67694 1.12797 0
M  V30 2640 C 257.28 0.421115 1.90399 0
M  V30 2641 O 256.55 -0.564551 1.87589 0
M  V30 2642 H 255.13 0.618155 0.419396 0
M  V30 2643 H 257.792 1.89938 0.436972 0
M  V30 2644 H 256.888 2.52896 1.82894 0
M  V30 2645 N 257.189 -0.644168 1.43834 0
M  V30 2646 C 258.435 -1.40431 1.47141 0
M  V30 2647 C 258.79 -1.92153 0.0975577 0
M  V30 2648 O 258.083 -1.69924 -0.885232 0
M  V30 2649 C 258.277 -2.59615 2.45631 0
M  V30 2650 C 258.106 -2.1956 3.92458 0
M  V30 2651 C 256.876 -2.07456 4.60749 0
M  V30 2652 C 259.074 -1.79281 4.8204 0
M  V30 2653 N 257.056 -1.60827 5.92459 0
M  V30 2654 C 258.427 -1.43801 6.03093 0
M  V30 2655 C 260.482 -1.66545 4.6922 0
M  V30 2656 C 259.185 -0.968599 7.12749 0
M  V30 2657 C 261.211 -1.21008 5.78888 0
M  V30 2658 C 260.573 -0.864711 6.99072 0
M  V30 2659 H 256.672 -0.509182 0.593513 0
M  V30 2660 H 259.256 -0.740351 1.80075 0
M  V30 2661 H 257.427 -3.23658 2.1471 0
M  V30 2662 H 259.159 -3.26357 2.39318 0
M  V30 2663 H 255.914 -2.275 4.1538 0
M  V30 2664 H 256.338 -1.39848 6.62398 0
M  V30 2665 H 260.98 -1.91883 3.7675 0
M  V30 2666 H 258.698 -0.702715 8.05039 0
M  V30 2667 H 262.284 -1.11631 5.7099 0
M  V30 2668 H 261.164 -0.517736 7.82489 0
M  V30 2669 N 258.668 -1.30515 -0.883378 0
M  V30 2670 C 259.631 -1.1701 -1.97082 0
M  V30 2671 C 260.631 -0.10089 -1.60483 0
M  V30 2672 O 261.821 -0.349127 -1.70666 0
M  V30 2673 C 258.953 -0.793045 -3.31547 0
M  V30 2674 H 260.146 -2.13622 -2.10489 0
M  V30 2675 H 257.699 -1.13935 -1.06998 0
M  V30 2676 H 258.434 0.172499 -3.23841 0
M  V30 2677 H 258.219 -1.56576 -3.5948 0
M  V30 2678 H 259.709 -0.722073 -4.1131 0
M  V30 2679 N 260.146 1.09593 -1.13257 0
M  V30 2680 C 261.395 1.81105 -0.887917 0
M  V30 2681 C 261.708 1.86563 0.587672 0
M  V30 2682 O 262.914 2.54367 0.949204 0
M  V30 2683 C 261.37 3.25338 -1.53895 0
M  V30 2684 C 260.978 3.28151 -3.04994 0
M  V30 2685 C 262.722 4.01617 -1.37492 0
M  V30 2686 C 260.629 4.66897 -3.6299 0
M  V30 2687 H 259.559 0.678661 -0.328534 0
M  V30 2688 H 262.21 1.23183 -1.36008 0
M  V30 2689 H 260.592 3.8331 -0.994446 0
M  V30 2690 H 261.766 2.79953 -3.66009 0
M  V30 2691 H 260.081 2.65361 -3.20893 0
M  V30 2692 H 262.678 5.04119 -1.78235 0
M  V30 2693 H 263.021 4.15072 -0.31957 0
M  V30 2694 H 263.554 3.50082 -1.88912 0
M  V30 2695 H 260.293 4.58643 -4.68323 0
M  V30 2696 H 259.813 5.15426 -3.06752 0
M  V30 2697 H 261.492 5.3587 -3.62563 0
M  V30 2698 N 261.624 0.925811 1.2754 0
M  V30 2699 C 262.574 0.394488 2.24561 0
M  V30 2700 C 263.558 -0.500183 1.52928 0
M  V30 2701 O 264.75 -0.337936 1.73744 0
M  V30 2702 C 261.879 -0.353328 3.41477 0
M  V30 2703 C 260.965 0.557752 4.20416 0
M  V30 2704 N 261.356 1.67674 4.77199 0
M  V30 2705 C 259.654 0.360404 4.44541 0
M  V30 2706 C 260.355 2.24324 5.36706 0
M  V30 2707 N 259.331 1.53305 5.21535 0
M  V30 2708 H 263.133 1.2489 2.66045 0
M  V30 2709 H 260.647 0.779864 1.4245 0
M  V30 2710 H 262.644 -0.7509 4.10082 0
M  V30 2711 H 261.304 -1.20469 3.01525 0
M  V30 2712 H 262.315 2.05915 4.75204 0
M  V30 2713 H 258.992 -0.450454 4.15063 0
M  V30 2714 H 260.382 3.18521 5.91603 0
M  V30 2715 N 263.102 -1.41638 0.69111 0
M  V30 2716 C 264.348 -2.01598 0.220519 0
M  V30 2717 C 264.681 -1.54594 -1.17535 0
M  V30 2718 O 263.956 -0.755177 -1.79241 0
M  V30 2719 C 264.239 -3.59062 0.273243 0
M  V30 2720 C 264.092 -4.16203 1.70573 0
M  V30 2721 C 265.411 -4.38546 -0.369457 0
M  V30 2722 H 262.53 -0.732468 0.0816045 0
M  V30 2723 H 265.172 -1.68445 0.878986 0
M  V30 2724 H 263.322 -3.87435 -0.287411 0
M  V30 2725 H 264.994 -3.98722 2.31989 0
M  V30 2726 H 263.237 -3.71414 2.2413 0
M  V30 2727 H 263.908 -5.25358 1.69419 0
M  V30 2728 H 266.384 -4.1596 0.107977 0
M  V30 2729 H 265.26 -5.48069 -0.302002 0
M  V30 2730 H 265.521 -4.17662 -1.44951 0
M  V30 2731 N 264.58 -0.43555 -1.51462 0
M  V30 2732 C 265.512 0.41257 -2.25456 0
M  V30 2733 C 266.525 0.987822 -1.29406 0
M  V30 2734 O 267.714 0.882266 -1.55172 0
M  V30 2735 C 264.814 1.58894 -2.99342 0
M  V30 2736 C 263.987 1.13288 -4.22474 0
M  V30 2737 C 263.046 2.17917 -4.78956 0
M  V30 2738 O 262.072 1.77425 -5.40841 0
M  V30 2739 N 263.274 3.50382 -4.62832 0
M  V30 2740 H 266.039 -0.221603 -2.9888 0
M  V30 2741 H 263.6 -0.264342 -1.59727 0
M  V30 2742 H 265.592 2.28508 -3.34015 0
M  V30 2743 H 264.162 2.12849 -2.28941 0
M  V30 2744 H 263.382 0.263881 -3.93316 0
M  V30 2745 H 264.67 0.805542 -5.02383 0
M  V30 2746 H 264.068 3.86013 -4.13534 0
M  V30 2747 H 262.625 4.15895 -5.01871 0
M  V30 2748 N 266.058 1.56714 -0.166846 0
M  V30 2749 C 267.298 1.98641 0.481763 0
M  V30 2750 C 267.662 1.05038 1.6072 0
M  V30 2751 O 268.863 1.36087 2.31805 0
M  V30 2752 C 267.134 3.44362 0.956517 0
M  V30 2753 S 268.693 4.08317 1.60694 0
M  V30 2754 H 265.511 0.693873 0.155116 0
M  V30 2755 H 268.113 1.93719 -0.263251 0
M  V30 2756 H 266.817 4.10204 0.126936 0
M  V30 2757 H 266.348 3.53041 1.73568 0
M  V30 2758 H 268.363 4.02999 2.89494 0
M  V30 2759 N 267.536 -0.106894 1.57237 0
M  V30 2760 C 268.484 -1.14944 2.02215 0
M  V30 2761 C 269.478 -1.42167 0.92114 0
M  V30 2762 O 270.684 -1.41987 1.10634 0
M  V30 2763 H 267.059 -0.387841 0.64427 0
M  V30 2764 H 269.03 -0.743683 2.88984 0
M  V30 2765 C 267.779 -2.4647 2.4525 0
M  V30 2766 H 267.102 -2.26363 3.29545 0
M  V30 2767 H 268.542 -3.17948 2.80508 0
M  V30 2768 C 267.001 -3.09921 1.321 0
M  V30 2769 O 267.531 -3.9651 0.643622 0
M  V30 2770 N 265.737 -2.69986 1.07497 0
M  V30 2771 H 265.284 -1.99667 1.62761 0
M  V30 2772 H 265.242 -3.12769 0.319876 0
M  V30 2773 N 269.014 -1.53014 -0.377408 0
M  V30 2774 C 269.977 -1.77957 -1.44444 0
M  V30 2775 C 270.977 -0.649763 -1.47087 0
M  V30 2776 O 272.167 -0.917897 -1.48055 0
M  V30 2777 C 269.299 -1.89089 -2.83651 0
M  V30 2778 H 270.492 -2.73243 -1.23606 0
M  V30 2779 H 268.045 -1.43912 -0.609844 0
M  V30 2780 H 268.78 -0.958293 -3.09818 0
M  V30 2781 H 268.565 -2.71254 -2.83132 0
M  V30 2782 H 270.055 -2.1002 -3.60945 0
M  V30 2783 N 270.492 0.636531 -1.44174 0
M  V30 2784 C 271.717 1.42847 -1.50364 0
M  V30 2785 C 272.142 1.87665 -0.127867 0
M  V30 2786 O 271.5 1.58408 0.88185 0
M  V30 2787 C 271.548 2.62854 -2.4686 0
M  V30 2788 O 270.652 3.62501 -1.9664 0
M  V30 2789 H 269.993 0.427642 -0.507955 0
M  V30 2790 H 272.523 0.777422 -1.89255 0
M  V30 2791 H 272.533 3.10465 -2.64718 0
M  V30 2792 H 271.208 2.29578 -3.46795 0
M  V30 2793 H 269.785 3.21735 -1.88523 0
M  V30 2794 N 271.97 1.30982 0.876444 0
M  V30 2795 C 272.917 1.18085 1.98304 0
M  V30 2796 C 273.887 0.0682263 1.6596 0
M  V30 2797 O 275.072 0.239937 1.89285 0
M  V30 2798 C 272.212 0.887475 3.33493 0
M  V30 2799 C 271.325 2.08281 3.78475 0
M  V30 2800 C 270.46 1.72678 5.0235 0
M  V30 2801 C 269.499 2.88657 5.39762 0
M  V30 2802 N 268.636 2.53292 6.54819 0
M  V30 2803 H 273.476 2.1275 2.08666 0
M  V30 2804 H 271.013 1.05839 1.02159 0
M  V30 2805 H 272.971 0.697961 4.1132 0
M  V30 2806 H 271.601 -0.022315 3.22792 0
M  V30 2807 H 270.653 2.3833 2.96484 0
M  V30 2808 H 271.965 2.95108 4.02135 0
M  V30 2809 H 271.119 1.50151 5.87826 0
M  V30 2810 H 269.858 0.830327 4.8058 0
M  V30 2811 H 268.863 3.1184 4.52809 0
M  V30 2812 H 270.088 3.79002 5.63502 0
M  V30 2813 H 268.034 1.66163 6.34607 0
M  V30 2814 H 267.951 3.3365 6.7839 0
M  V30 2815 H 269.219 2.34143 7.43503 0
M  V30 2816 N 273.449 -1.08991 1.13837 0
M  V30 2817 C 274.696 -1.81258 0.902882 0
M  V30 2818 C 275.024 -1.85936 -0.570803 0
M  V30 2819 O 274.279 -1.3267 -1.43865 0
M  V30 2820 C 274.578 -3.27042 1.44147 0
M  V30 2821 C 274.244 -3.4249 2.93276 0
M  V30 2822 C 272.906 -3.46414 3.33992 0
M  V30 2823 C 275.258 -3.4666 3.892 0
M  V30 2824 C 272.586 -3.52091 4.69307 0
M  V30 2825 C 274.938 -3.53872 5.24364 0
M  V30 2826 C 273.602 -3.56066 5.646 0
M  V30 2827 H 272.872 -0.663268 0.330388 0
M  V30 2828 H 275.519 -1.28368 1.42105 0
M  V30 2829 H 273.824 -3.82599 0.844097 0
M  V30 2830 H 275.521 -3.81499 1.23528 0
M  V30 2831 H 272.111 -3.40124 2.60794 0
M  V30 2832 H 276.295 -3.42865 3.58828 0
M  V30 2833 H 271.551 -3.52079 4.9985 0
M  V30 2834 H 275.725 -3.56043 5.98503 0
M  V30 2835 H 273.352 -3.60218 6.69438 0
M  V30 2836 N 274.927 -0.932562 -1.27047 0
M  V30 2837 C 275.877 -0.406392 -2.24349 0
M  V30 2838 C 276.861 0.492066 -1.53191 0
M  V30 2839 O 278.053 0.328717 -1.73921 0
M  V30 2840 C 275.182 0.335214 -3.41659 0
M  V30 2841 C 274.268 -0.58004 -4.20115 0
M  V30 2842 N 274.659 -1.70203 -4.76303 0
M  V30 2843 C 272.957 -0.383974 -4.44344 0
M  V30 2844 C 273.658 -2.27167 -5.35509 0
M  V30 2845 N 272.634 -1.56068 -5.20715 0
M  V30 2846 H 276.436 -1.26299 -2.65378 0
M  V30 2847 H 273.95 -0.787408 -1.42034 0
M  V30 2848 H 275.947 0.729142 -4.10474 0
M  V30 2849 H 274.607 1.18868 -3.0216 0
M  V30 2850 H 275.618 -2.08433 -4.74106 0
M  V30 2851 H 272.295 0.428436 -4.15296 0
M  V30 2852 H 273.685 -3.21654 -5.89905 0
M  V30 2853 N 276.405 1.4127 -0.698611 0
M  V30 2854 C 277.337 2.292 0.00399731 0
M  V30 2855 C 278.35 1.44944 0.741279 0
M  V30 2856 O 279.539 1.68416 0.591477 0
M  V30 2857 C 276.639 3.22875 1.02979 0
M  V30 2858 C 275.812 4.35904 0.36151 0
M  V30 2859 C 274.871 5.10134 1.29033 0
M  V30 2860 O 273.897 5.63809 0.781562 0
M  V30 2861 N 275.099 5.17885 2.6225 0
M  V30 2862 H 277.864 2.9014 -0.750921 0
M  V30 2863 H 275.425 1.52455 -0.544882 0
M  V30 2864 H 277.417 3.69404 1.65296 0
M  V30 2865 H 275.987 2.63221 1.68622 0
M  V30 2866 H 275.207 3.91719 -0.441584 0
M  V30 2867 H 276.495 5.08696 -0.103055 0
M  V30 2868 H 275.893 4.7573 3.061 0
M  V30 2869 H 274.45 5.6798 3.19754 0
M  V30 2870 N 277.883 0.443576 1.51229 0
M  V30 2871 C 279.131 -0.120557 2.0174 0
M  V30 2872 C 279.452 -1.42665 1.32935 0
M  V30 2873 O 278.722 -1.9028 0.465866 0
M  V30 2874 H 277.302 -0.0475426 0.745486 0
M  V30 2875 H 279.964 0.587711 1.85828 0
M  V30 2876 H 279.06 -0.291972 3.10731 0
M  V30 2877 N 279.361 -1.56624 0.175154 0
M  V30 2878 C 280.589 -2.01374 -0.474971 0
M  V30 2879 C 281.004 -1.05537 -1.56548 0
M  V30 2880 O 280.361 -0.0568668 -1.82411 0
M  V30 2881 C 280.412 -3.45923 -1.04975 0
M  V30 2882 O 280.133 -4.381 -0.00276605 0
M  V30 2883 C 281.634 -4.06093 -1.77773 0
M  V30 2884 H 278.854 -0.659962 -0.121206 0
M  V30 2885 H 281.398 -2.02601 0.27801 0
M  V30 2886 H 279.553 -3.45458 -1.75321 0
M  V30 2887 H 279.967 -5.22753 -0.427681 0
M  V30 2888 H 281.441 -5.09147 -2.13245 0
M  V30 2889 H 281.918 -3.48405 -2.67414 0
M  V30 2890 H 282.524 -4.10272 -1.12059 0
M  V30 2891 N 280.839 0.0985539 -1.57292 0
M  V30 2892 C 281.769 1.12064 -2.04851 0
M  V30 2893 C 282.75 1.41981 -0.936767 0
M  V30 2894 O 283.935 1.52071 -1.20781 0
M  V30 2895 C 281.065 2.44144 -2.47004 0
M  V30 2896 C 280.019 2.28643 -3.6181 0
M  V30 2897 C 279.345 3.65869 -3.89929 0
M  V30 2898 C 280.645 1.72986 -4.92822 0
M  V30 2899 H 282.339 0.724979 -2.9049 0
M  V30 2900 H 279.885 0.34729 -1.39749 0
M  V30 2901 H 281.838 3.15914 -2.78884 0
M  V30 2902 H 280.562 2.85639 -1.5836 0
M  V30 2903 H 279.221 1.59318 -3.30172 0
M  V30 2904 H 278.869 4.04885 -2.98458 0
M  V30 2905 H 278.569 3.56344 -4.67218 0
M  V30 2906 H 280.093 4.39112 -4.2428 0
M  V30 2907 H 281.507 2.34593 -5.23105 0
M  V30 2908 H 279.904 1.74229 -5.74251 0
M  V30 2909 H 280.974 0.689007 -4.7998 0
M  V30 2910 N 282.317 1.53212 0.369288 0
M  V30 2911 C 283.247 1.82365 1.45826 0
M  V30 2912 C 284.228 0.676907 1.56051 0
M  V30 2913 O 285.413 0.926401 1.70679 0
M  V30 2914 C 282.543 2.01023 2.83208 0
M  V30 2915 C 281.497 3.1678 2.8781 0
M  V30 2916 C 280.823 3.20724 4.27832 0
M  V30 2917 C 282.123 4.55447 2.55667 0
M  V30 2918 H 283.817 2.73559 1.21678 0
M  V30 2919 H 281.363 1.3163 0.583911 0
M  V30 2920 H 283.316 2.20001 3.59413 0
M  V30 2921 H 282.04 1.06536 3.08736 0
M  V30 2922 H 280.699 2.97616 2.14056 0
M  V30 2923 H 280.347 2.23882 4.50429 0
M  V30 2924 H 280.047 3.98496 4.31827 0
M  V30 2925 H 281.571 3.41881 5.05915 0
M  V30 2926 H 282.985 4.74611 3.21586 0
M  V30 2927 H 281.382 5.35432 2.70984 0
M  V30 2928 H 282.452 4.60812 1.5093 0
M  V30 2929 N 283.795 -0.628877 1.44509 0
M  V30 2930 C 285.041 -1.39045 1.47629 0
M  V30 2931 C 285.374 -1.93892 0.109343 0
M  V30 2932 O 284.649 -1.7379 -0.87334 0
M  V30 2933 C 284.932 -2.55408 2.53848 0
M  V30 2934 C 284.785 -2.05896 3.99909 0
M  V30 2935 C 286.104 -3.5759 2.56549 0
M  V30 2936 H 283.223 -0.504232 0.537512 0
M  V30 2937 H 285.865 -0.710854 1.76201 0
M  V30 2938 H 284.015 -3.13384 2.29615 0
M  V30 2939 H 285.687 -1.52734 4.35282 0
M  V30 2940 H 283.93 -1.37061 4.11578 0
M  V30 2941 H 284.601 -2.89681 4.69882 0
M  V30 2942 H 287.077 -3.09419 2.78207 0
M  V30 2943 H 285.953 -4.36527 3.32769 0
M  V30 2944 H 286.214 -4.11808 1.60832 0
M  V30 2945 N 285.273 -1.31445 -0.869486 0
M  V30 2946 C 286.52 -1.21158 -1.62256 0
M  V30 2947 C 286.848 0.230155 -1.93133 0
M  V30 2948 O 286.103 1.17906 -1.56194 0
M  V30 2949 C 286.402 -2.00145 -2.96102 0
M  V30 2950 C 286.068 -3.4964 -2.84715 0
M  V30 2951 C 284.73 -3.90403 -2.81317 0
M  V30 2952 C 287.082 -4.44769 -2.71716 0
M  V30 2953 C 284.41 -5.24561 -2.62778 0
M  V30 2954 C 286.762 -5.79054 -2.54714 0
M  V30 2955 C 285.426 -6.19037 -2.49699 0
M  V30 2956 H 284.696 -0.443348 -0.593737 0
M  V30 2957 H 287.343 -1.62715 -1.00976 0
M  V30 2958 H 285.648 -1.5127 -3.6142 0
M  V30 2959 H 287.345 -1.89566 -3.53363 0
M  V30 2960 H 283.935 -3.17256 -2.88178 0
M  V30 2961 H 288.119 -4.14208 -2.73397 0
M  V30 2962 H 283.375 -5.54613 -2.57321 0
M  V30 2963 H 287.549 -6.52393 -2.43632 0
M  V30 2964 H 285.176 -7.22935 -2.35093 0
M  V30 2965 N 286.751 1.08385 -1.14413 0
M  V30 2966 C 287.681 2.17321 -0.854044 0
M  V30 2967 C 288.662 1.69024 0.191049 0
M  V30 2968 O 289.847 1.94141 0.0476779 0
M  V30 2969 C 286.977 3.45719 -0.330983 0
M  V30 2970 C 285.931 4.07409 -1.31155 0
M  V30 2971 C 285.257 5.30762 -0.64778 0
M  V30 2972 C 286.557 4.48665 -2.67388 0
M  V30 2973 H 288.251 2.41845 -1.76498 0
M  V30 2974 H 285.797 1.16233 -0.850051 0
M  V30 2975 H 287.75 4.21241 -0.115645 0
M  V30 2976 H 286.474 3.2075 0.615381 0
M  V30 2977 H 285.133 3.33919 -1.51306 0
M  V30 2978 H 284.781 5.02078 0.304398 0
M  V30 2979 H 284.481 5.72992 -1.30207 0
M  V30 2980 H 286.005 6.08998 -0.441972 0
M  V30 2981 H 287.419 5.15364 -2.51143 0
M  V30 2982 H 285.816 5.01814 -3.29093 0
M  V30 2983 H 286.886 3.60543 -3.24248 0
M  V30 2984 N 288.23 0.939286 1.26551 0
M  V30 2985 C 289.193 0.451987 2.24699 0
M  V30 2986 C 290.193 -0.435869 1.5478 0
M  V30 2987 O 291.383 -0.235314 1.72603 0
M  V30 2988 C 288.515 -0.348801 3.39111 0
M  V30 2989 H 289.708 1.3193 2.69322 0
M  V30 2990 H 287.261 0.721072 1.38673 0
M  V30 2991 H 287.996 -1.23444 2.99887 0
M  V30 2992 H 287.781 0.287945 3.91041 0
M  V30 2993 H 289.271 -0.679726 4.12031 0
M  V30 2994 N 289.708 -1.40897 0.706093 0
M  V30 2995 C 291.119 -1.84023 0.315052 0
M  V30 2996 C 291.47 -1.5906 -1.14866 0
M  V30 2997 O 290.595 -1.06651 -1.88293 0
M  V30 2998 C 291.19 -3.34055 0.565038 0
M  V30 2999 C 289.749 -3.7571 0.227806 0
M  V30 3000 C 288.896 -2.64204 0.842122 0
M  V30 3001 H 291.847 -1.303 0.905963 0
M  V30 3002 H 291.868 -3.80107 -0.172843 0
M  V30 3003 H 291.38 -3.52192 1.63042 0
M  V30 3004 H 289.481 -3.63172 -0.832895 0
M  V30 3005 H 289.594 -4.74103 0.690174 0
M  V30 3006 H 287.958 -2.53255 0.270893 0
M  V30 3007 H 288.741 -2.85155 1.91158 0
M  V30 3008 N 291.186 -0.45159 -1.50991 0
M  V30 3009 C 292.463 0.170707 -1.94854 0
M  V30 3010 C 292.843 1.58788 -1.39103 0
M  V30 3011 O 292.191 2.20913 -0.583921 0
M  V30 3012 C 292.401 0.133929 -3.48743 0
M  V30 3013 C 293.749 0.33248 -4.23296 0
M  V30 3014 O 294.773 0.211403 -3.55572 0
M  V30 3015 O 293.632 0.57486 -5.43468 0
M  V30 3016 H 290.726 0.122264 -0.817912 0
M  V30 3017 H 293.272 -0.510594 -1.61836 0
M  V30 3018 H 292.044 -0.856283 -3.81816 0
M  V30 3019 H 291.667 0.857529 -3.88242 0
M  V30 3020 N 292.664 1.56529 -0.183458 0
M  V30 3021 C 293.911 1.97244 0.458357 0
M  V30 3022 C 294.239 1.06992 1.62428 0
M  V30 3023 O 293.494 0.106542 1.9541 0
M  V30 3024 C 293.793 3.43939 0.971637 0
M  V30 3025 C 293.459 4.5083 -0.0796784 0
M  V30 3026 C 292.121 4.79786 -0.368584 0
M  V30 3027 C 294.473 5.15138 -0.792638 0
M  V30 3028 C 291.801 5.70345 -1.37563 0
M  V30 3029 C 294.153 6.06784 -1.78875 0
M  V30 3030 C 292.817 6.34102 -2.08497 0
M  V30 3031 H 292.087 0.721768 0.167725 0
M  V30 3032 H 294.734 1.89472 -0.277976 0
M  V30 3033 H 293.039 3.48724 1.78602 0
M  V30 3034 H 294.736 3.72791 1.47744 0
M  V30 3035 H 291.326 4.28317 0.155668 0
M  V30 3036 H 295.51 4.92868 -0.582659 0
M  V30 3037 H 290.766 5.89789 -1.61118 0
M  V30 3038 H 294.94 6.55677 -2.3465 0
M  V30 3039 H 292.567 7.04074 -2.86678 0
M  V30 3040 N 294.142 -0.090211 1.57342 0
M  V30 3041 C 295.37 -0.806224 1.90546 0
M  V30 3042 C 295.785 -1.72041 0.777644 0
M  V30 3043 O 295.142 -1.80778 -0.250103 0
M  V30 3044 C 295.193 -1.61546 3.23396 0
M  V30 3045 O 294.914 -0.738043 4.31839 0
M  V30 3046 C 296.415 -2.4341 3.70495 0
M  V30 3047 H 293.635 -0.230256 0.630257 0
M  V30 3048 H 296.179 -0.0659843 2.04394 0
M  V30 3049 H 294.334 -2.30816 3.11131 0
M  V30 3050 H 294.748 -1.29901 5.08159 0
M  V30 3051 H 296.222 -2.95676 4.66133 0
M  V30 3052 H 296.699 -3.22098 2.98579 0
M  V30 3053 H 297.305 -1.79331 3.85643 0
M  V30 3054 N 295.62 -1.53406 -0.361157 0
M  V30 3055 C 297.036 -1.43277 -0.703124 0
M  V30 3056 C 297.236 -0.575384 -1.9311 0
M  V30 3057 O 296.292 -0.0595362 -2.5243 0
M  V30 3058 C 297.605 -2.8653 -0.9122 0
M  V30 3059 C 299.153 -2.96191 -1.01193 0
M  V30 3060 C 299.628 -4.40514 -1.25345 0
M  V30 3061 N 301.119 -4.43962 -1.32105 0
M  V30 3062 C 301.854 -5.52746 -1.5251 0
M  V30 3063 N 301.35 -6.71567 -1.70203 0
M  V30 3064 N 303.143 -5.40331 -1.54916 0
M  V30 3065 H 295.294 -2.07654 0.446475 0
M  V30 3066 H 297.557 -0.937944 0.137715 0
M  V30 3067 H 297.263 -3.51605 -0.0816414 0
M  V30 3068 H 297.137 -3.30441 -1.81903 0
M  V30 3069 H 299.524 -2.31266 -1.83303 0
M  V30 3070 H 299.605 -2.55667 -0.0823929 0
M  V30 3071 H 299.249 -5.06014 -0.437346 0
M  V30 3072 H 299.179 -4.78614 -2.19627 0
M  V30 3073 H 301.67 -3.58332 -1.20028 0
M  V30 3074 H 301.983 -7.50241 -1.85359 0
M  V30 3075 H 300.328 -6.74545 -1.67373 0
M  V30 3076 H 303.519 -4.46465 -1.40663 0
M  V30 3077 H 303.692 -6.25173 -1.70477 0
M  V30 3078 N 297.098 0.621204 -1.44841 0
M  V30 3079 C 298.346 1.37783 -1.47852 0
M  V30 3080 C 298.667 1.94653 -0.116224 0
M  V30 3081 O 297.937 1.76367 0.852737 0
M  V30 3082 H 296.517 0.511453 -0.544449 0
M  V30 3083 H 299.179 0.730446 -1.80694 0
M  V30 3084 H 298.275 2.20414 -2.20961 0
M  V30 3085 N 298.576 1.31904 0.862503 0
M  V30 3086 C 299.539 1.20131 1.95195 0
M  V30 3087 C 300.539 0.126409 1.60302 0
M  V30 3088 O 301.729 0.376234 1.70089 0
M  V30 3089 C 298.861 0.845691 3.30244 0
M  V30 3090 H 300.054 2.16943 2.07064 0
M  V30 3091 H 297.607 1.15622 1.05172 0
M  V30 3092 H 298.342 -0.120957 3.24074 0
M  V30 3093 H 298.127 1.62276 3.56944 0
M  V30 3094 H 299.617 0.787418 4.10109 0
M  V30 3095 N 300.054 -1.07777 1.14986 0
M  V30 3096 C 301.465 -1.61766 0.932127 0
M  V30 3097 C 301.816 -1.88974 -0.527581 0
M  V30 3098 O 300.941 -1.65198 -1.39781 0
M  V30 3099 C 301.536 -2.93891 1.68563 0
M  V30 3100 C 300.095 -3.44639 1.5133 0
M  V30 3101 C 299.242 -2.18767 1.704 0
M  V30 3102 H 302.193 -0.909201 1.30074 0
M  V30 3103 H 302.214 -3.62623 1.15259 0
M  V30 3104 H 301.726 -2.74057 2.74799 0
M  V30 3105 H 299.827 -3.69564 0.474702 0
M  V30 3106 H 299.94 -4.20966 2.28746 0
M  V30 3107 H 298.304 -2.28253 1.13016 0
M  V30 3108 H 299.087 -2.01433 2.77992 0
M  V30 3109 N 301.532 -0.945985 -1.26051 0
M  V30 3110 C 302.778 -0.597002 -1.93814 0
M  V30 3111 C 303.111 0.862484 -1.73997 0
M  V30 3112 O 302.386 1.61769 -1.07986 0
M  V30 3113 C 302.669 -0.945937 -3.47454 0
M  V30 3114 C 302.522 -2.46052 -3.76535 0
M  V30 3115 C 303.841 -0.464785 -4.37639 0
M  V30 3116 H 300.96 -0.218366 -0.703907 0
M  V30 3117 H 303.602 -1.18107 -1.48831 0
M  V30 3118 H 301.752 -0.448902 -3.85898 0
M  V30 3119 H 303.424 -3.03065 -3.47778 0
M  V30 3120 H 301.667 -2.90194 -3.22444 0
M  V30 3121 H 302.338 -2.65517 -4.83947 0
M  V30 3122 H 304.814 -0.891016 -4.06448 0
M  V30 3123 H 303.69 -0.737712 -5.4392 0
M  V30 3124 H 303.951 0.635274 -4.37512 0
M  V30 3125 N 303.011 1.40521 -0.713556 0
M  V30 3126 C 304.239 2.05237 -0.261775 0
M  V30 3127 C 304.654 1.53755 1.09567 0
M  V30 3128 O 304.011 0.693268 1.6882 0
M  V30 3129 C 304.062 3.60763 -0.230706 0
M  V30 3130 O 303.783 4.10345 -1.53455 0
M  V30 3131 C 305.284 4.42651 0.239874 0
M  V30 3132 H 302.504 0.660533 -0.118057 0
M  V30 3133 H 305.048 1.79967 -0.971192 0
M  V30 3134 H 303.203 3.8501 0.429661 0
M  V30 3135 H 303.617 5.04526 -1.43366 0
M  V30 3136 H 305.091 5.51599 0.210468 0
M  V30 3137 H 305.568 4.20082 1.28171 0
M  V30 3138 H 306.174 4.23507 -0.390142 0
M  V30 3139 N 304.489 0.459591 1.5075 0
M  V30 3140 C 305.737 -0.0991532 2.01857 0
M  V30 3141 C 306.058 -1.41247 1.34441 0
M  V30 3142 O 305.328 -1.89775 0.486022 0
M  V30 3143 H 303.908 -0.039633 0.745948 0
M  V30 3144 H 306.57 0.607387 1.85194 0
M  V30 3145 H 305.666 -0.258998 3.11023 0
M  V30 3146 N 305.967 -1.56429 0.191757 0
M  V30 3147 C 307.192 -2.02309 -0.456706 0
M  V30 3148 C 307.617 -1.07103 -1.5463 0
M  V30 3149 O 306.975 -0.0539677 -1.8122 0
M  V30 3150 C 307.023 -3.46654 -0.993159 0
M  V30 3151 O 306.127 -3.54559 -2.10622 0
M  V30 3152 H 305.468 -0.655303 -0.107114 0
M  V30 3153 H 307.998 -2.02364 0.301653 0
M  V30 3154 H 308.008 -3.86377 -1.31061 0
M  V30 3155 H 306.683 -4.1544 -0.195504 0
M  V30 3156 H 305.26 -3.26708 -1.79767 0
M  V30 3157 N 307.445 0.0818655 -1.57387 0
M  V30 3158 C 308.693 0.781368 -1.86384 0
M  V30 3159 C 309.014 1.78618 -0.782342 0
M  V30 3160 O 308.284 1.94976 0.190061 0
M  V30 3161 H 306.864 0.291562 -0.687751 0
M  V30 3162 H 309.526 0.060348 -1.94807 0
M  V30 3163 H 308.622 1.3038 -2.83562 0
M  V30 3164 N 308.923 1.53595 0.353017 0
M  V30 3165 C 310.151 1.74311 1.1146 0
M  V30 3166 C 310.566 0.477854 1.82653 0
M  V30 3167 O 309.923 -0.549977 1.74016 0
M  V30 3168 C 309.974 2.91694 2.13534 0
M  V30 3169 O 309.695 4.13325 1.45238 0
M  V30 3170 C 311.196 3.24384 3.02142 0
M  V30 3171 H 308.416 0.582669 0.332773 0
M  V30 3172 H 310.96 2.00386 0.408107 0
M  V30 3173 H 309.115 2.67977 2.79763 0
M  V30 3174 H 309.529 4.79148 2.13349 0
M  V30 3175 H 311.003 4.09893 3.69718 0
M  V30 3176 H 311.48 2.40282 3.67643 0
M  V30 3177 H 312.086 3.50073 2.41514 0
M  V30 3178 N 310.401 -0.613514 1.45168 0
M  V30 3179 C 311.629 -1.39946 1.5239 0
M  V30 3180 C 312.044 -1.88167 0.154531 0
M  V30 3181 O 311.401 -1.61872 -0.842843 0
M  V30 3182 C 311.452 -2.60795 2.50337 0
M  V30 3183 O 311.173 -2.1458 3.81952 0
M  V30 3184 C 312.674 -3.53723 2.67198 0
M  V30 3185 H 309.894 -0.428593 0.516284 0
M  V30 3186 H 312.438 -0.748753 1.903 0
M  V30 3187 H 310.593 -3.21919 2.15515 0
M  V30 3188 H 311.007 -2.93055 4.34993 0
M  V30 3189 H 312.481 -4.35079 3.39721 0
M  V30 3190 H 312.958 -4.0368 1.73029 0
M  V30 3191 H 313.564 -2.98456 3.02992 0
M  V30 3192 N 311.879 -1.3236 -0.855495 0
M  V30 3193 C 313.29 -1.2056 -1.42556 0
M  V30 3194 C 313.641 0.182209 -1.95352 0
M  V30 3195 O 312.766 1.08088 -1.87472 0
M  V30 3196 C 313.361 -2.1826 -2.59129 0
M  V30 3197 C 311.92 -2.10351 -3.12137 0
M  V30 3198 C 311.067 -2.06674 -1.84882 0
M  V30 3199 H 314.018 -1.442 -0.662727 0
M  V30 3200 H 314.039 -1.78064 -3.36264 0
M  V30 3201 H 313.551 -3.19257 -2.20673 0
M  V30 3202 H 311.652 -1.12599 -3.55179 0
M  V30 3203 H 311.765 -3.00135 -3.73438 0
M  V30 3204 H 310.129 -1.51901 -2.04446 0
M  V30 3205 H 310.912 -3.09451 -1.48643 0
M  V30 3206 N 313.357 1.07166 -1.15556 0
M  V30 3207 C 314.305 2.16517 -0.8499 0
M  V30 3208 C 315.299 1.68468 0.177454 0
M  V30 3209 O 316.505 1.79971 0.0323026 0
M  V30 3210 H 312.88 0.706652 -0.25719 0
M  V30 3211 H 314.851 2.39514 -1.77976 0
M  V30 3212 C 313.6 3.45855 -0.357682 0
M  V30 3213 H 312.923 3.83214 -1.13961 0
M  V30 3214 H 314.363 4.23607 -0.182489 0
M  V30 3215 C 312.822 3.24062 0.921152 0
M  V30 3216 O 313.352 3.48813 1.9923 0
M  V30 3217 N 311.558 2.77539 0.86141 0
M  V30 3218 H 311.105 2.57598 -0.0104408 0
M  V30 3219 H 311.063 2.63337 1.71758 0
M  V30 3220 N 314.835 0.952656 1.25548 0
M  V30 3221 C 316.081 0.607272 1.93494 0
M  V30 3222 C 316.414 -0.853245 1.74452 0
M  V30 3223 O 315.689 -1.61194 1.08843 0
M  V30 3224 C 315.972 0.96435 3.46947 0
M  V30 3225 C 315.825 2.48045 3.75225 0
M  V30 3226 C 317.144 0.487987 4.37386 0
M  V30 3227 H 314.263 0.222096 0.702739 0
M  V30 3228 H 316.905 1.18895 1.48203 0
M  V30 3229 H 315.055 0.469361 3.85654 0
M  V30 3230 H 316.727 3.04905 3.46166 0
M  V30 3231 H 314.97 2.919 3.209 0
M  V30 3232 H 315.641 2.6808 4.82532 0
M  V30 3233 H 318.117 0.912558 4.0597 0
M  V30 3234 H 316.993 0.766547 5.43521 0
M  V30 3235 H 317.254 -0.612063 4.37843 0
M  V30 3236 N 316.313 -1.40141 0.720998 0
M  V30 3237 C 317.538 -2.05618 0.271258 0
M  V30 3238 C 317.963 -1.53978 -1.08039 0
M  V30 3239 O 317.321 -0.677463 -1.68167 0
M  V30 3240 C 317.369 -3.59609 0.267197 0
M  V30 3241 O 316.473 -4.05526 -0.749814 0
M  V30 3242 H 315.814 -0.651904 0.126162 0
M  V30 3243 H 318.344 -1.79439 0.982997 0
M  V30 3244 H 318.354 -4.0786 0.106744 0
M  V30 3245 H 317.029 -3.96559 1.25354 0
M  V30 3246 H 315.606 -3.68722 -0.556644 0
M  V30 3247 N 317.792 -0.46758 -1.50504 0
M  V30 3248 C 319.022 0.086288 -2.0642 0
M  V30 3249 C 319.43 1.34369 -1.33197 0
M  V30 3250 O 318.773 1.79431 -0.393747 0
M  V30 3251 C 318.835 0.443846 -3.5675 0
M  V30 3252 C 318.499 -0.711035 -4.51435 0
M  V30 3253 C 319.496 -1.59205 -4.94924 0
M  V30 3254 C 317.181 -0.900363 -4.94165 0
M  V30 3255 C 319.175 -2.64683 -5.79846 0
M  V30 3256 C 316.862 -1.95837 -5.7887 0
M  V30 3257 C 317.86 -2.82997 -6.21612 0
M  V30 3258 O 317.548 -3.86977 -7.0463 0
M  V30 3259 H 317.28 -0.00217814 -0.675996 0
M  V30 3260 H 319.834 -0.654346 -1.94698 0
M  V30 3261 H 318.064 1.23762 -3.6636 0
M  V30 3262 H 319.753 0.932386 -3.95046 0
M  V30 3263 H 320.519 -1.45745 -4.62583 0
M  V30 3264 H 316.398 -0.231427 -4.60419 0
M  V30 3265 H 319.942 -3.32745 -6.13128 0
M  V30 3266 H 315.839 -2.09305 -6.10624 0
M  V30 3267 H 316.607 -3.83923 -7.22873 0
M  V30 3268 N 319.27 1.56325 -0.20005 0
M  V30 3269 C 320.495 2.02548 0.44597 0
M  V30 3270 C 320.92 1.07922 1.5406 0
M  V30 3271 O 320.278 0.0635775 1.81188 0
M  V30 3272 C 320.326 3.47175 0.974761 0
M  V30 3273 O 319.43 3.55671 2.08739 0
M  V30 3274 H 318.771 0.655862 0.103638 0
M  V30 3275 H 321.301 2.02201 -0.312381 0
M  V30 3276 H 321.311 3.87067 1.2901 0
M  V30 3277 H 319.986 4.15538 0.17347 0
M  V30 3278 H 318.563 3.27657 1.78032 0
M  V30 3279 N 320.748 -0.0735177 1.57428 0
M  V30 3280 C 321.698 -1.09442 2.00016 0
M  V30 3281 C 322.682 -1.34575 0.881947 0
M  V30 3282 O 323.874 -1.34905 1.14585 0
M  V30 3283 C 321.003 -2.40865 2.4462 0
M  V30 3284 C 320.089 -2.19014 3.63172 0
M  V30 3285 N 320.48 -1.67087 4.77405 0
M  V30 3286 C 318.778 -2.49494 3.69688 0
M  V30 3287 C 319.479 -1.6001 5.5926 0
M  V30 3288 N 318.455 -2.05999 5.03056 0
M  V30 3289 H 322.257 -0.686227 2.85776 0
M  V30 3290 H 319.771 -0.280617 1.59957 0
M  V30 3291 H 321.768 -3.14763 2.73368 0
M  V30 3292 H 320.428 -2.82403 1.60246 0
M  V30 3293 H 321.439 -1.35975 4.99731 0
M  V30 3294 H 318.116 -2.94409 2.96023 0
M  V30 3295 H 319.506 -1.2073 6.60964 0
M  V30 3296 N 322.226 -1.5378 -0.344866 0
M  V30 3297 C 323.189 -1.80981 -1.40637 0
M  V30 3298 C 324.189 -0.680816 -1.45676 0
M  V30 3299 O 325.379 -0.949095 -1.46075 0
M  V30 3300 C 322.511 -1.95063 -2.79577 0
M  V30 3301 H 323.704 -2.75803 -1.17783 0
M  V30 3302 H 321.257 -1.45173 -0.579181 0
M  V30 3303 H 321.992 -1.02379 -3.07716 0
M  V30 3304 H 321.777 -2.77198 -2.77315 0
M  V30 3305 H 323.267 -2.17629 -3.56409 0
M  V30 3306 N 323.704 0.605807 -1.45491 0
M  V30 3307 C 324.637 1.73022 -1.48791 0
M  V30 3308 C 325.615 1.58917 -0.344112 0
M  V30 3309 O 326.799 1.80453 -0.544876 0
M  V30 3310 C 323.926 3.10865 -1.34463 0
M  V30 3311 C 322.972 3.43554 -2.5273 0
M  V30 3312 S 323.805 3.38196 -4.15191 0
M  V30 3313 C 324.961 4.78616 -4.03333 0
M  V30 3314 H 325.194 1.69961 -2.43928 0
M  V30 3315 H 322.727 0.782611 -1.33096 0
M  V30 3316 H 324.685 3.90398 -1.26884 0
M  V30 3317 H 323.346 3.1144 -0.40794 0
M  V30 3318 H 322.539 4.43924 -2.38637 0
M  V30 3319 H 322.141 2.71541 -2.5718 0
M  V30 3320 H 324.433 5.68463 -3.68587 0
M  V30 3321 H 325.376 4.97767 -5.03621 0
M  V30 3322 H 325.784 4.54381 -3.34959 0
M  V30 3323 N 325.182 1.32811 0.848464 0
M  V30 3324 C 326.593 1.21315 1.41914 0
M  V30 3325 C 326.944 -0.171847 1.95446 0
M  V30 3326 O 326.069 -1.07093 1.88043 0
M  V30 3327 C 326.664 2.19631 2.57968 0
M  V30 3328 C 325.223 2.12003 3.11017 0
M  V30 3329 C 324.37 2.07651 1.83783 0
M  V30 3330 H 327.321 1.44549 0.655071 0
M  V30 3331 H 327.342 1.79845 3.35315 0
M  V30 3332 H 326.854 3.20423 2.18976 0
M  V30 3333 H 324.955 1.14481 3.54577 0
M  V30 3334 H 325.068 3.02111 3.71841 0
M  V30 3335 H 323.432 1.52983 2.03638 0
M  V30 3336 H 324.215 3.10235 1.47 0
M  V30 3337 N 326.66 -1.06551 1.16123 0
M  V30 3338 C 327.908 -1.78947 0.939267 0
M  V30 3339 C 328.229 -1.87532 -0.534476 0
M  V30 3340 O 327.499 -1.38211 -1.38833 0
M  V30 3341 H 326.079 -0.662807 0.344523 0
M  V30 3342 H 328.741 -1.28725 1.46342 0
M  V30 3343 H 327.837 -2.81117 1.35572 0
M  V30 3344 N 328.138 -0.959301 -1.25041 0
M  V30 3345 C 329.048 -0.489994 -2.29426 0
M  V30 3346 C 330.064 0.444944 -1.68215 0
M  V30 3347 O 331.24 0.320046 -1.98841 0
M  V30 3348 C 328.305 0.220309 -3.45999 0
M  V30 3349 C 327.366 -0.753418 -4.22637 0
M  V30 3350 C 326.599 -0.076918 -5.33645 0
M  V30 3351 O 326.822 1.13649 -5.58963 0
M  V30 3352 O 325.756 -0.764824 -5.97021 0
M  V30 3353 H 329.582 -1.35755 -2.71669 0
M  V30 3354 H 327.167 -0.725961 -1.30576 0
M  V30 3355 H 329.049 0.619677 -4.16819 0
M  V30 3356 H 327.724 1.06296 -3.0575 0
M  V30 3357 H 326.631 -1.20308 -3.54227 0
M  V30 3358 H 327.964 -1.56423 -4.66683 0
M  V30 3359 N 329.616 1.39756 -0.72842 0
M  V30 3360 C 330.893 1.94574 -0.200079 0
M  V30 3361 C 331.273 1.66569 1.29684 0
M  V30 3362 O 330.621 0.990326 2.05924 0
M  V30 3363 C 330.831 3.45004 -0.526608 0
M  V30 3364 C 332.179 4.21965 -0.472318 0
M  V30 3365 O 333.203 3.53173 -0.463413 0
M  V30 3366 O 332.062 5.44552 -0.461075 0
M  V30 3367 H 329.156 0.826289 -0.0342851 0
M  V30 3368 H 331.702 1.49293 -0.806829 0
M  V30 3369 H 330.474 3.58796 -1.56144 0
M  V30 3370 H 330.097 3.97449 0.109449 0
M  V30 3371 N 331.094 0.475555 1.50254 0
M  V30 3372 C 332.342 -0.077738 2.0195 0
M  V30 3373 C 332.663 -1.39813 1.35931 0
M  V30 3374 O 331.933 -1.89249 0.506123 0
M  V30 3375 H 330.513 -0.031719 0.746326 0
M  V30 3376 H 333.175 0.626995 1.84539 0
M  V30 3377 H 332.271 -0.225995 3.11281 0
M  V30 3378 N 332.573 -1.56217 0.208337 0
M  V30 3379 C 333.798 -2.02782 -0.435222 0
M  V30 3380 C 334.223 -1.08738 -1.53485 0
M  V30 3381 O 333.581 -0.0731855 -1.81152 0
M  V30 3382 C 333.629 -3.47687 -0.956335 0
M  V30 3383 O 332.733 -3.56773 -2.06849 0
M  V30 3384 H 332.074 -0.656403 -0.100158 0
M  V30 3385 H 334.604 -2.02033 0.3231 0
M  V30 3386 H 334.614 -3.87745 -1.26955 0
M  V30 3387 H 333.289 -4.15624 -0.15143 0
M  V30 3388 H 331.866 -3.28597 -1.76292 0
M  V30 3389 N 334.051 0.0651679 -1.57465 0
M  V30 3390 C 334.961 1.09448 -2.07505 0
M  V30 3391 C 335.977 1.41974 -1.00595 0
M  V30 3392 O 337.153 1.52018 -1.32107 0
M  V30 3393 C 334.218 2.38689 -2.51453 0
M  V30 3394 C 333.279 2.13073 -3.72691 0
M  V30 3395 C 332.512 3.36152 -4.14533 0
M  V30 3396 O 332.735 4.45517 -3.56189 0
M  V30 3397 O 331.669 3.23974 -5.07272 0
M  V30 3398 H 335.495 0.69935 -2.95538 0
M  V30 3399 H 333.08 0.279752 -1.46757 0
M  V30 3400 H 334.962 3.14736 -2.80212 0
M  V30 3401 H 333.637 2.77568 -1.66546 0
M  V30 3402 H 332.544 1.34709 -3.49005 0
M  V30 3403 H 333.877 1.79071 -4.5847 0
M  V30 3404 N 335.529 1.53961 0.336706 0
M  V30 3405 C 336.776 1.71536 1.07618 0
M  V30 3406 C 337.104 0.482125 1.8843 0
M  V30 3407 O 336.359 -0.536142 1.88213 0
M  V30 3408 C 336.658 2.93493 2.03953 0
M  V30 3409 C 336.324 4.28811 1.39399 0
M  V30 3410 C 334.986 4.65602 1.21523 0
M  V30 3411 C 337.338 5.12844 0.929541 0
M  V30 3412 C 334.666 5.84037 0.558312 0
M  V30 3413 C 337.018 6.31951 0.286505 0
M  V30 3414 C 335.682 6.67432 0.0954869 0
M  V30 3415 H 334.952 0.627696 0.393801 0
M  V30 3416 H 337.599 1.88186 0.354715 0
M  V30 3417 H 335.904 2.71475 2.82504 0
M  V30 3418 H 337.601 3.04285 2.61174 0
M  V30 3419 H 334.191 3.99858 1.54311 0
M  V30 3420 H 338.375 4.84947 1.05548 0
M  V30 3421 H 333.631 6.10097 0.398995 0
M  V30 3422 H 337.805 6.96352 -0.0814376 0
M  V30 3423 H 335.432 7.59063 -0.415579 0
M  V30 3424 N 337.007 -0.598083 1.45811 0
M  V30 3425 C 338.256 -1.35295 1.49594 0
M  V30 3426 C 338.569 -1.95057 0.145679 0
M  V30 3427 O 339.775 -2.71431 0.0612099 0
M  V30 3428 C 338.231 -2.45124 2.63519 0
M  V30 3429 C 337.839 -1.91732 4.04899 0
M  V30 3430 C 339.583 -3.2205 2.76558 0
M  V30 3431 C 337.49 -2.991 5.1019 0
M  V30 3432 H 336.42 -0.508552 0.556679 0
M  V30 3433 H 339.071 -0.639977 1.71978 0
M  V30 3434 H 337.453 -3.19149 2.34435 0
M  V30 3435 H 338.627 -1.24352 4.43704 0
M  V30 3436 H 336.942 -1.27522 3.96393 0
M  V30 3437 H 339.539 -4.0215 3.52391 0
M  V30 3438 H 339.882 -3.73663 1.83526 0
M  V30 3439 H 340.415 -2.55127 3.05213 0
M  V30 3440 H 337.154 -2.52393 6.04961 0
M  V30 3441 H 336.674 -3.65017 4.75944 0
M  V30 3442 H 338.353 -3.63318 5.35359 0
M  V30 3443 N 338.485 -1.33259 -0.841409 0
M  V30 3444 C 339.762 -1.15174 -1.58096 0
M  V30 3445 C 340.142 0.282858 -2.09196 0
M  V30 3446 O 339.49 1.28151 -1.89181 0
M  V30 3447 C 339.7 -2.1907 -2.71679 0
M  V30 3448 C 341.048 -2.53093 -3.40924 0
M  V30 3449 O 342.072 -2.17717 -2.81918 0
M  V30 3450 O 340.931 -3.1379 -4.47435 0
M  V30 3451 H 338.025 -0.445303 -0.696875 0
M  V30 3452 H 340.571 -1.44833 -0.884385 0
M  V30 3453 H 339.343 -3.15443 -2.31541 0
M  V30 3454 H 338.966 -1.90481 -3.49002 0
M  V30 3455 N 339.963 1.05934 -1.16686 0
M  V30 3456 C 341.374 1.60263 -0.957745 0
M  V30 3457 C 341.725 1.89789 0.49745 0
M  V30 3458 O 340.85 1.67401 1.37135 0
M  V30 3459 C 341.445 2.91172 -1.73218 0
M  V30 3460 C 340.004 3.42188 -1.56794 0
M  V30 3461 C 339.151 2.16028 -1.73859 0
M  V30 3462 H 342.102 0.888392 -1.31504 0
M  V30 3463 H 342.123 3.60744 -1.21014 0
M  V30 3464 H 341.635 2.6965 -2.79124 0
M  V30 3465 H 339.736 3.68762 -0.533437 0
M  V30 3466 H 339.849 4.17273 -2.35414 0
M  V30 3467 H 338.213 2.26426 -1.16633 0
M  V30 3468 H 338.996 1.96985 -2.81161 0
M  V30 3469 N 341.441 0.965919 1.2453 0
M  V30 3470 C 342.371 0.513476 2.27784 0
M  V30 3471 C 343.352 -0.445974 1.6415 0
M  V30 3472 O 344.537 -0.342485 1.91156 0
M  V30 3473 C 341.667 -0.198839 3.4673 0
M  V30 3474 C 340.621 0.676456 4.2262 0
M  V30 3475 C 339.947 -0.167248 5.34438 0
M  V30 3476 C 341.247 1.96017 4.84123 0
M  V30 3477 H 342.941 1.3765 2.65881 0
M  V30 3478 H 340.487 0.663321 1.27813 0
M  V30 3479 H 342.44 -0.526567 4.18097 0
M  V30 3480 H 341.164 -1.0962 3.07654 0
M  V30 3481 H 339.823 0.98743 3.53052 0
M  V30 3482 H 339.471 -1.0647 4.91603 0
M  V30 3483 H 339.171 0.415181 5.86131 0
M  V30 3484 H 340.695 -0.489688 6.08633 0
M  V30 3485 H 342.109 1.69814 5.47573 0
M  V30 3486 H 340.506 2.48918 5.4604 0
M  V30 3487 H 341.576 2.65622 4.05676 0
M  V30 3488 N 342.919 -1.39368 0.735821 0
M  V30 3489 C 344.166 -2.00497 0.284123 0
M  V30 3490 C 344.494 -1.58387 -1.12889 0
M  V30 3491 O 343.749 -0.804359 -1.78406 0
M  V30 3492 C 344.048 -3.5583 0.334651 0
M  V30 3493 C 343.714 -4.17593 1.7008 0
M  V30 3494 C 342.376 -4.34176 2.07472 0
M  V30 3495 C 344.728 -4.51848 2.59775 0
M  V30 3496 C 342.056 -4.82304 3.34065 0
M  V30 3497 C 344.408 -5.01384 3.85741 0
M  V30 3498 C 343.072 -5.16175 4.23225 0
M  V30 3499 H 342.342 -0.73367 0.103968 0
M  V30 3500 H 344.989 -1.66683 0.942825 0
M  V30 3501 H 343.294 -3.89674 -0.407625 0
M  V30 3502 H 344.991 -4.00986 -0.0329927 0
M  V30 3503 H 341.581 -4.05087 1.40008 0
M  V30 3504 H 345.765 -4.38653 2.32157 0
M  V30 3505 H 341.021 -4.91941 3.63049 0
M  V30 3506 H 345.195 -5.26863 4.55399 0
M  V30 3507 H 342.822 -5.5323 5.21384 0
M  V30 3508 N 344.397 -0.483516 -1.5 0
M  V30 3509 C 345.327 0.293829 -2.31644 0
M  V30 3510 C 346.308 0.978864 -1.39112 0
M  V30 3511 O 347.493 0.973644 -1.68029 0
M  V30 3512 C 344.623 1.36897 -3.19181 0
M  V30 3513 C 343.577 0.804833 -4.20365 0
M  V30 3514 C 342.903 1.9792 -4.96721 0
M  V30 3515 C 344.203 -0.192313 -5.21946 0
M  V30 3516 H 345.897 -0.387616 -2.9688 0
M  V30 3517 H 343.443 -0.187856 -1.42769 0
M  V30 3518 H 345.396 1.92037 -3.751 0
M  V30 3519 H 344.12 2.07936 -2.51853 0
M  V30 3520 H 342.779 0.275319 -3.65565 0
M  V30 3521 H 342.427 2.67686 -4.25856 0
M  V30 3522 H 342.127 1.60789 -5.65173 0
M  V30 3523 H 343.651 2.53526 -5.55479 0
M  V30 3524 H 345.065 0.270333 -5.72662 0
M  V30 3525 H 343.462 -0.478543 -5.98189 0
M  V30 3526 H 344.532 -1.11409 -4.71928 0
M  V30 3527 N 345.875 1.56104 -0.216619 0
M  V30 3528 C 347.152 1.89988 0.465165 0
M  V30 3529 C 347.532 1.13326 1.78102 0
M  V30 3530 O 346.88 0.241033 2.27225 0
M  V30 3531 C 347.09 3.42646 0.662939 0
M  V30 3532 C 348.438 4.13311 0.972602 0
M  V30 3533 O 349.462 3.48217 0.749901 0
M  V30 3534 O 348.321 5.28396 1.39499 0
M  V30 3535 H 345.415 0.78979 0.245276 0
M  V30 3536 H 347.961 1.67721 -0.258436 0
M  V30 3537 H 346.733 3.90399 -0.26543 0
M  V30 3538 H 346.356 3.70677 1.43821 0
M  V30 3539 N 347.353 -0.0568162 1.57498 0
M  V30 3540 C 348.301 -1.08452 2.05769 0
M  V30 3541 C 349.295 -1.39164 0.965903 0
M  V30 3542 O 350.501 -1.38395 1.15095 0
M  V30 3543 H 346.876 -0.367148 0.656282 0
M  V30 3544 H 348.847 -0.651368 2.91204 0
M  V30 3545 C 347.596 -2.38543 2.52968 0
M  V30 3546 H 346.919 -2.15765 3.36579 0
M  V30 3547 H 348.359 -3.08863 2.90481 0
M  V30 3548 C 346.818 -3.05562 1.41893 0
M  V30 3549 O 347.348 -3.94262 0.769442 0
M  V30 3550 N 345.554 -2.6643 1.16032 0
M  V30 3551 H 345.101 -1.94387 1.6903 0
M  V30 3552 H 345.059 -3.11593 0.419219 0
M  V30 3553 N 348.832 -1.54138 -0.328536 0
M  V30 3554 C 350.08 -1.71765 -1.06496 0
M  V30 3555 C 350.401 -0.49149 -1.88704 0
M  V30 3556 O 349.671 0.494539 -1.89555 0
M  V30 3557 H 348.251 -0.633295 -0.396164 0
M  V30 3558 H 350.913 -1.91429 -0.366176 0
M  V30 3559 H 350.009 -2.5951 -1.73381 0
M  V30 3560 N 350.31 0.590341 -1.46126 0
M  V30 3561 C 351.538 1.37504 -1.54597 0
M  V30 3562 C 351.953 1.87897 -0.184447 0
M  V30 3563 O 351.31 1.63192 0.816984 0
M  V30 3564 C 351.361 2.56779 -2.54454 0
M  V30 3565 O 351.082 2.08476 -3.85317 0
M  V30 3566 C 352.583 3.49427 -2.72792 0
M  V30 3567 H 349.803 0.420325 -0.523037 0
M  V30 3568 H 352.347 0.718383 -1.91467 0
M  V30 3569 H 350.502 3.1845 -2.20609 0
M  V30 3570 H 350.916 2.86097 -4.396 0
M  V30 3571 H 352.39 4.29619 -3.466 0
M  V30 3572 H 352.867 4.00876 -1.79429 0
M  V30 3573 H 353.473 2.93598 -3.07702 0
M  V30 3574 N 351.788 1.33704 0.83433 0
M  V30 3575 C 352.721 1.18675 1.94914 0
M  V30 3576 C 353.699 0.0811145 1.62398 0
M  V30 3577 O 354.883 0.244186 1.86912 0
M  V30 3578 C 352.01 0.821231 3.28593 0
M  V30 3579 C 351.056 1.93501 3.80079 0
M  V30 3580 S 351.889 3.54671 4.01209 0
M  V30 3581 C 353.045 3.20136 5.37833 0
M  V30 3582 H 353.278 2.13043 2.07364 0
M  V30 3583 H 350.811 1.18598 0.988624 0
M  V30 3584 H 352.769 0.617123 4.05835 0
M  V30 3585 H 351.43 -0.103927 3.13928 0
M  V30 3586 H 350.623 1.63273 4.76821 0
M  V30 3587 H 350.225 2.09601 3.09747 0
M  V30 3588 H 352.517 2.71242 6.20833 0
M  V30 3589 H 353.46 4.15975 5.73036 0
M  V30 3590 H 353.868 2.56613 5.02802 0
M  V30 3591 N 353.266 -1.05314 1.17247 0
M  V30 3592 C 354.196 -2.1498 0.911362 0
M  V30 3593 C 355.177 -1.69471 -0.146169 0
M  V30 3594 O 356.362 -1.942 0.003812 0
M  V30 3595 C 353.492 -3.4472 0.422528 0
M  V30 3596 C 352.446 -4.03789 1.4191 0
M  V30 3597 C 351.772 -5.28858 0.788274 0
M  V30 3598 C 353.072 -4.41418 2.7919 0
M  V30 3599 H 354.766 -2.3708 1.82848 0
M  V30 3600 H 352.312 -1.13938 0.880569 0
M  V30 3601 H 354.265 -4.20787 0.227289 0
M  V30 3602 H 352.989 -3.22269 -0.530123 0
M  V30 3603 H 351.648 -3.2979 1.60106 0
M  V30 3604 H 351.296 -5.02709 -0.171173 0
M  V30 3605 H 350.996 -5.69338 1.45353 0
M  V30 3606 H 352.52 -6.07612 0.603282 0
M  V30 3607 H 353.934 -5.08524 2.64719 0
M  V30 3608 H 352.331 -4.92913 3.42282 0
M  V30 3609 H 353.401 -3.51819 3.33693 0
M  V30 3610 N 354.744 -0.972509 -1.24016 0
M  V30 3611 C 355.676 -0.464375 -2.24446 0
M  V30 3612 C 356.689 0.4295 -1.57032 0
M  V30 3613 O 357.878 0.234902 -1.76948 0
M  V30 3614 C 354.978 0.348385 -3.37105 0
M  V30 3615 C 354.151 -0.53673 -4.34094 0
M  V30 3616 C 353.21 0.220838 -5.25736 0
M  V30 3617 O 352.236 -0.386867 -5.67884 0
M  V30 3618 N 353.438 1.50907 -5.60542 0
M  V30 3619 H 356.203 -1.32788 -2.68677 0
M  V30 3620 H 353.764 -0.844877 -1.38107 0
M  V30 3621 H 355.756 0.863341 -3.95384 0
M  V30 3622 H 354.326 1.11285 -2.92121 0
M  V30 3623 H 353.546 -1.23261 -3.74433 0
M  V30 3624 H 354.834 -1.14022 -4.95859 0
M  V30 3625 H 354.232 2.02444 -5.28236 0
M  V30 3626 H 352.789 1.96962 -6.21329 0
M  V30 3627 N 356.222 1.38976 -0.743202 0
M  V30 3628 C 357.154 2.29096 -0.0689228 0
M  V30 3629 C 358.167 1.47229 0.694791 0
M  V30 3630 O 359.356 1.70212 0.537597 0
M  V30 3631 C 356.456 3.25988 0.926548 0
M  V30 3632 C 355.629 4.36833 0.222647 0
M  V30 3633 C 354.688 5.13981 1.12739 0
M  V30 3634 O 353.714 5.6601 0.601795 0
M  V30 3635 N 354.916 5.25966 2.45641 0
M  V30 3636 H 357.681 2.87604 -0.842846 0
M  V30 3637 H 355.242 1.50645 -0.593109 0
M  V30 3638 H 357.234 3.74476 1.5346 0
M  V30 3639 H 355.804 2.68453 1.60162 0
M  V30 3640 H 355.024 3.90116 -0.565983 0
M  V30 3641 H 356.312 5.0811 -0.264841 0
M  V30 3642 H 355.71 4.85228 2.9081 0
M  V30 3643 H 354.267 5.77865 3.01522 0
M  V30 3644 N 357.7 0.491464 1.49741 0
M  V30 3645 C 358.663 -0.280906 2.27472 0
M  V30 3646 C 359.663 -0.902454 1.33088 0
M  V30 3647 O 360.853 -0.768465 1.56334 0
M  V30 3648 C 357.985 -1.40209 3.10732 0
M  V30 3649 H 359.178 0.401056 2.97206 0
M  V30 3650 H 356.731 0.246131 1.5435 0
M  V30 3651 H 357.466 -2.11849 2.45541 0
M  V30 3652 H 357.251 -0.961969 3.80117 0
M  V30 3653 H 358.741 -1.9464 3.69466 0
M  V30 3654 N 359.178 -1.55987 0.224894 0
M  V30 3655 C 360.406 -2.02784 -0.410665 0
M  V30 3656 C 360.821 -1.10464 -1.53112 0
M  V30 3657 O 360.178 -0.114871 -1.82138 0
M  V30 3658 C 360.229 -3.49087 -0.939165 0
M  V30 3659 O 359.95 -4.37887 0.136614 0
M  V30 3660 C 361.451 -4.11543 -1.64763 0
M  V30 3661 H 358.671 -0.663484 -0.100148 0
M  V30 3662 H 361.215 -2.01614 0.342326 0
M  V30 3663 H 359.37 -3.50861 -1.64242 0
M  V30 3664 H 359.784 -5.23849 -0.261155 0
M  V30 3665 H 361.258 -5.15673 -1.96939 0
M  V30 3666 H 361.735 -3.56736 -2.56195 0
M  V30 3667 H 362.341 -4.13629 -0.989503 0
M  V30 3668 N 360.656 0.0484629 -1.57525 0
M  V30 3669 C 361.902 0.744226 -1.88651 0
M  V30 3670 C 362.235 1.76029 -0.820212 0
M  V30 3671 O 361.51 1.93782 0.166985 0
M  V30 3672 C 361.793 1.43128 -3.30434 0
M  V30 3673 C 361.646 0.43005 -4.47739 0
M  V30 3674 C 362.965 2.37031 -3.70816 0
M  V30 3675 H 360.084 0.269089 -0.68612 0
M  V30 3676 H 362.726 0.00713532 -1.89999 0
M  V30 3677 H 360.876 2.05956 -3.29415 0
M  V30 3678 H 362.548 -0.194816 -4.60888 0
M  V30 3679 H 360.791 -0.252522 -4.33064 0
M  V30 3680 H 361.462 0.948874 -5.43783 0
M  V30 3681 H 363.938 1.84263 -3.73077 0
M  V30 3682 H 362.814 2.82094 -4.70865 0
M  V30 3683 H 363.075 3.22864 -3.02012 0
M  V30 3684 N 362.134 1.5431 0.320358 0
M  V30 3685 C 363.381 1.72668 1.05792 0
M  V30 3686 C 363.709 0.502084 1.87908 0
M  V30 3687 O 362.964 -0.516149 1.88771 0
M  V30 3688 C 363.263 2.95639 2.00828 0
M  V30 3689 C 362.929 4.30265 1.34843 0
M  V30 3690 C 361.591 4.66865 1.16578 0
M  V30 3691 C 363.943 5.13801 0.875095 0
M  V30 3692 C 361.271 5.84597 0.496336 0
M  V30 3693 C 363.623 6.32219 0.219463 0
M  V30 3694 C 362.287 6.67495 0.0246915 0
M  V30 3695 H 361.557 0.631837 0.387121 0
M  V30 3696 H 364.204 1.88552 0.334735 0
M  V30 3697 H 362.509 2.74456 2.79609 0
M  V30 3698 H 364.206 3.07038 2.57932 0
M  V30 3699 H 360.796 4.01472 1.50061 0
M  V30 3700 H 364.98 4.86039 1.00398 0
M  V30 3701 H 360.236 6.10486 0.334264 0
M  V30 3702 H 364.41 6.96227 -0.155291 0
M  V30 3703 H 362.037 7.5858 -0.496065 0
M  V30 3704 N 363.613 -0.582584 1.46437 0
M  V30 3705 C 365.024 -1.1647 1.45916 0
M  V30 3706 C 365.375 -1.95177 0.200077 0
M  V30 3707 O 364.5 -2.04874 -0.696819 0
M  V30 3708 C 365.095 -2.11885 2.64367 0
M  V30 3709 C 363.654 -2.65421 2.66887 0
M  V30 3710 C 362.801 -1.41294 2.38603 0
M  V30 3711 H 365.752 -0.370514 1.54314 0
M  V30 3712 H 365.773 -2.9535 2.39892 0
M  V30 3713 H 365.285 -1.54573 3.5599 0
M  V30 3714 H 363.386 -3.26602 1.79338 0
M  V30 3715 H 363.499 -3.08147 3.66854 0
M  V30 3716 H 361.863 -1.71109 1.88663 0
M  V30 3717 H 362.646 -0.858125 3.32402 0
M  V30 3718 N 365.091 -1.34144 -0.827227 0
M  V30 3719 C 366.041 -1.21923 -1.92663 0
M  V30 3720 C 367.025 -0.119294 -1.60457 0
M  V30 3721 O 368.217 -0.348539 -1.73534 0
M  V30 3722 C 365.346 -0.972492 -3.29238 0
M  V30 3723 C 364.432 -2.1154 -3.67576 0
M  V30 3724 N 364.823 -3.36627 -3.77512 0
M  V30 3725 C 363.121 -2.02468 -3.97395 0
M  V30 3726 C 363.822 -4.11658 -4.1099 0
M  V30 3727 N 362.798 -3.40207 -4.23981 0
M  V30 3728 H 366.6 -2.16721 -1.98517 0
M  V30 3729 H 364.114 -1.2632 -1.02064 0
M  V30 3730 H 366.111 -0.865847 -4.0781 0
M  V30 3731 H 364.771 -0.0331509 -3.24683 0
M  V30 3732 H 365.782 -3.71234 -3.61118 0
M  V30 3733 H 362.459 -1.16265 -4.00985 0
M  V30 3734 H 363.849 -5.19657 -4.25918 0
M  V30 3735 N 366.569 1.04691 -1.17803 0
M  V30 3736 C 367.501 2.12571 -0.857097 0
M  V30 3737 C 368.514 1.62174 0.142647 0
M  V30 3738 O 369.703 1.78301 -0.0843387 0
M  V30 3739 C 366.803 3.37915 -0.258216 0
M  V30 3740 C 365.976 4.1757 -1.30207 0
M  V30 3741 C 365.035 5.2125 -0.720029 0
M  V30 3742 O 364.061 5.51888 -1.39314 0
M  V30 3743 N 365.263 5.78466 0.485507 0
M  V30 3744 H 368.028 2.40698 -1.78562 0
M  V30 3745 H 365.589 1.20831 -1.07757 0
M  V30 3746 H 367.581 4.04442 0.144584 0
M  V30 3747 H 366.151 3.07281 0.574199 0
M  V30 3748 H 365.371 3.46458 -1.88043 0
M  V30 3749 H 366.659 4.67586 -2.00601 0
M  V30 3750 H 366.057 5.55866 1.05022 0
M  V30 3751 H 364.614 6.4649 0.830307 0
M  V30 3752 N 368.047 0.979072 1.23499 0
M  V30 3753 C 369.293 0.6578 1.9247 0
M  V30 3754 C 369.648 -0.799746 1.74991 0
M  V30 3755 O 368.941 -1.56922 1.09937 0
M  V30 3756 C 369.135 0.981932 3.43646 0
M  V30 3757 C 368.964 2.46944 3.75831 0
M  V30 3758 C 367.734 3.13119 3.96591 0
M  V30 3759 C 369.932 3.45006 3.81412 0
M  V30 3760 N 367.914 4.51489 4.15969 0
M  V30 3761 C 369.285 4.68778 4.05768 0
M  V30 3762 C 371.34 3.39505 3.64198 0
M  V30 3763 C 370.043 5.87723 4.14697 0
M  V30 3764 C 372.069 4.57814 3.7438 0
M  V30 3765 C 371.431 5.80381 3.99171 0
M  V30 3766 H 367.53 0.291746 0.72554 0
M  V30 3767 H 370.114 1.25626 1.48749 0
M  V30 3768 H 368.285 0.412179 3.86207 0
M  V30 3769 H 370.017 0.618068 3.99953 0
M  V30 3770 H 366.772 2.63619 3.93449 0
M  V30 3771 H 367.196 5.23221 4.29615 0
M  V30 3772 H 371.838 2.45773 3.44029 0
M  V30 3773 H 369.556 6.81874 4.33675 0
M  V30 3774 H 373.142 4.55132 3.62417 0
M  V30 3775 H 372.022 6.70398 4.06861 0
M  V30 3776 N 369.525 -1.3858 0.750561 0
M  V30 3777 C 370.774 -1.99424 0.302172 0
M  V30 3778 C 371.087 -1.60254 -1.12152 0
M  V30 3779 O 372.293 -2.14046 -1.67023 0
M  V30 3780 C 370.749 -3.56558 0.489307 0
M  V30 3781 C 370.357 -4.04682 1.92189 0
M  V30 3782 C 372.101 -4.24374 0.103478 0
M  V30 3783 C 370.008 -5.54446 2.05775 0
M  V30 3784 H 368.938 -0.746046 0.10923 0
M  V30 3785 H 371.589 -1.58383 0.92667 0
M  V30 3786 H 369.971 -3.95472 -0.204329 0
M  V30 3787 H 371.145 -3.77065 2.64875 0
M  V30 3788 H 369.46 -3.4958 2.26236 0
M  V30 3789 H 372.057 -5.34384 0.183787 0
M  V30 3790 H 372.4 -4.05468 -0.943481 0
M  V30 3791 H 372.933 -3.90688 0.748854 0
M  V30 3792 H 369.672 -5.78252 3.08714 0
M  V30 3793 H 369.192 -5.83816 1.37546 0
M  V30 3794 H 370.871 -6.20099 1.84626 0
M  V30 3795 N 371.003 -0.499398 -1.49478 0
M  V30 3796 C 371.951 0.293604 -2.3074 0
M  V30 3797 C 372.945 0.96427 -1.39277 0
M  V30 3798 O 374.151 0.892141 -1.56336 0
M  V30 3799 H 370.526 0.113541 -0.743379 0
M  V30 3800 H 372.497 -0.411772 -2.95545 0
M  V30 3801 C 371.246 1.3462 -3.20582 0
M  V30 3802 H 370.569 0.83954 -3.90886 0
M  V30 3803 H 372.009 1.87308 -3.80384 0
M  V30 3804 C 370.468 2.36351 -2.40083 0
M  V30 3805 O 370.998 3.422 -2.10385 0
M  V30 3806 N 369.204 2.0878 -2.02137 0
M  V30 3807 H 368.751 1.22723 -2.26488 0
M  V30 3808 H 368.709 2.77075 -1.48583 0
M  V30 3809 N 372.481 1.55866 -0.233164 0
M  V30 3810 C 373.411 2.23783 0.666599 0
M  V30 3811 C 374.392 1.21343 1.19205 0
M  V30 3812 O 375.577 1.4996 1.23392 0
M  V30 3813 C 372.707 2.92671 1.86978 0
M  V30 3814 C 371.661 4.01682 1.47768 0
M  V30 3815 C 370.987 4.57926 2.76058 0
M  V30 3816 C 372.287 5.18126 0.658993 0
M  V30 3817 H 373.981 2.99232 0.100306 0
M  V30 3818 H 371.527 1.43924 0.046804 0
M  V30 3819 H 373.48 3.3888 2.50476 0
M  V30 3820 H 372.204 2.14688 2.46123 0
M  V30 3821 H 370.863 3.56222 0.866106 0
M  V30 3822 H 370.511 3.76659 3.33372 0
M  V30 3823 H 370.211 5.31505 2.50552 0
M  V30 3824 H 371.735 5.06859 3.40479 0
M  V30 3825 H 373.149 5.60644 1.19795 0
M  V30 3826 H 371.546 5.98009 0.500552 0
M  V30 3827 H 372.616 4.83763 -0.331856 0
M  V30 3828 N 373.959 -0.0401083 1.57549 0
M  V30 3829 C 375.375 -0.395556 1.54621 0
M  V30 3830 C 375.575 -1.77281 0.957799 0
M  V30 3831 O 374.631 -2.45888 0.574031 0
M  V30 3832 C 375.944 -0.307535 2.99123 0
M  V30 3833 C 377.492 -0.385425 3.10618 0
M  V30 3834 C 377.967 -0.326973 4.56831 0
M  V30 3835 N 379.458 -0.386102 4.61588 0
M  V30 3836 C 380.193 -0.363591 5.72246 0
M  V30 3837 N 379.689 -0.29402 6.92176 0
M  V30 3838 N 381.482 -0.412503 5.60584 0
M  V30 3839 H 373.633 0.861325 1.94152 0
M  V30 3840 H 375.896 0.326445 0.890021 0
M  V30 3841 H 375.602 0.638461 3.45856 0
M  V30 3842 H 375.476 -1.10552 3.60636 0
M  V30 3843 H 377.863 -1.32185 2.63839 0
M  V30 3844 H 377.944 0.44171 2.51957 0
M  V30 3845 H 377.588 0.605738 5.04275 0
M  V30 3846 H 377.518 -1.17207 5.13391 0
M  V30 3847 H 380.009 -0.442832 3.75296 0
M  V30 3848 H 380.322 -0.28164 7.72287 0
M  V30 3849 H 378.667 -0.260232 6.94513 0
M  V30 3850 H 381.858 -0.464769 4.65787 0
M  V30 3851 H 382.031 -0.391492 6.46816 0
M  V30 3852 N 375.437 -1.54477 -0.31217 0
M  V30 3853 C 376.665 -1.77205 -1.068 0
M  V30 3854 C 377.08 -0.526114 -1.81321 0
M  V30 3855 O 376.437 0.503647 -1.75413 0
M  V30 3856 C 376.488 -2.97253 -2.05725 0
M  V30 3857 O 376.209 -4.1703 -1.34228 0
M  V30 3858 C 377.71 -3.32281 -2.93435 0
M  V30 3859 H 374.93 -0.591287 -0.317208 0
M  V30 3860 H 377.474 -2.01398 -0.354834 0
M  V30 3861 H 375.629 -2.753 -2.72559 0
M  V30 3862 H 376.043 -4.84636 -2.00571 0
M  V30 3863 H 377.517 -4.19551 -3.58721 0
M  V30 3864 H 377.994 -2.49945 -3.61143 0
M  V30 3865 H 378.6 -3.56353 -2.32147 0
M  V30 3866 N 376.915 0.57481 -1.46744 0
M  V30 3867 C 377.863 1.70435 -1.58286 0
M  V30 3868 C 378.857 1.63287 -0.450956 0
M  V30 3869 O 380.063 1.68685 -0.628121 0
M  V30 3870 H 376.438 0.56364 -0.497809 0
M  V30 3871 H 378.409 1.57833 -2.53242 0
M  V30 3872 C 377.158 3.08815 -1.59776 0
M  V30 3873 H 376.481 3.1499 -2.46214 0
M  V30 3874 H 377.921 3.87588 -1.71905 0
M  V30 3875 C 376.38 3.35301 -0.327812 0
M  V30 3876 O 376.91 3.97511 0.57861 0
M  V30 3877 N 375.116 2.89816 -0.213274 0
M  V30 3878 H 374.663 2.39371 -0.951798 0
M  V30 3879 H 374.621 3.0791 0.63553 0
M  V30 3880 N 378.394 1.34581 0.820102 0
M  V30 3881 C 379.342 1.26401 1.95258 0
M  V30 3882 C 380.336 0.161553 1.68628 0
M  V30 3883 O 381.542 0.326703 1.7701 0
M  V30 3884 H 377.917 0.392749 0.64129 0
M  V30 3885 H 379.888 2.22105 1.99279 0
M  V30 3886 C 378.637 1.03919 3.31807 0
M  V30 3887 H 377.96 1.87984 3.52848 0
M  V30 3888 H 379.4 1.02232 4.11491 0
M  V30 3889 C 377.859 -0.257433 3.35915 0
M  V30 3890 O 378.389 -1.25784 3.81499 0
M  V30 3891 N 376.595 -0.291524 2.89134 0
M  V30 3892 H 376.142 0.523161 2.52232 0
M  V30 3893 H 376.1 -1.15883 2.92264 0
M  V30 3894 N 379.872 -1.04064 1.18357 0
M  V30 3895 C 381.097 -1.81454 1.00445 0
M  V30 3896 C 381.522 -1.82823 -0.442423 0
M  V30 3897 O 380.88 -1.24555 -1.31741 0
M  V30 3898 C 380.928 -3.24925 1.56384 0
M  V30 3899 O 380.032 -4.04856 0.785209 0
M  V30 3900 H 379.373 -0.560604 0.355835 0
M  V30 3901 H 381.903 -1.31059 1.57114 0
M  V30 3902 H 381.913 -3.75702 1.59097 0
M  V30 3903 H 380.588 -3.23244 2.61699 0
M  V30 3904 H 379.165 -3.63537 0.830399 0
M  V30 3905 N 381.35 -0.985608 -1.22978 0
M  V30 3906 C 382.313 -0.535071 -2.22867 0
M  V30 3907 C 383.313 0.378123 -1.56291 0
M  V30 3908 O 384.503 0.171092 -1.73358 0
M  V30 3909 C 381.635 0.222702 -3.40172 0
M  V30 3910 H 382.828 -1.41835 -2.6424 0
M  V30 3911 H 380.381 -0.772042 -1.35901 0
M  V30 3912 H 381.116 1.12229 -3.04262 0
M  V30 3913 H 380.901 -0.43288 -3.89703 0
M  V30 3914 H 382.391 0.526335 -4.1427 0
M  V30 3915 N 382.828 1.3818 -0.7579 0
M  V30 3916 C 384.056 2.04301 -0.326937 0
M  V30 3917 C 384.471 1.57163 1.0462 0
M  V30 3918 O 383.828 0.746626 1.66529 0
M  V30 3919 C 383.879 3.59846 -0.345363 0
M  V30 3920 O 383.6 4.05256 -1.66432 0
M  V30 3921 C 385.101 4.4319 0.098927 0
M  V30 3922 H 382.321 0.656443 -0.139012 0
M  V30 3923 H 384.865 1.76786 -1.02796 0
M  V30 3924 H 383.02 3.86182 0.306955 0
M  V30 3925 H 383.434 4.99709 -1.59345 0
M  V30 3926 H 384.908 5.51989 0.0348745 0
M  V30 3927 H 385.385 4.23947 1.14741 0
M  V30 3928 H 385.991 4.22051 -0.52468 0
M  V30 3929 N 384.306 0.507319 1.49211 0
M  V30 3930 C 385.555 -0.0368315 2.01666 0
M  V30 3931 C 385.868 -1.37459 1.39156 0
M  V30 3932 O 387.074 -2.00579 1.82976 0
M  V30 3933 C 385.53 -0.116089 3.59713 0
M  V30 3934 C 385.138 1.2154 4.31198 0
M  V30 3935 C 386.882 -0.610268 4.2009 0
M  V30 3936 C 384.789 1.09796 5.81119 0
M  V30 3937 H 383.719 -0.0175376 0.753796 0
M  V30 3938 H 386.37 0.647691 1.71689 0
M  V30 3939 H 384.752 -0.8652 3.86433 0
M  V30 3940 H 385.926 1.9783 4.16173 0
M  V30 3941 H 384.241 1.64352 3.82593 0
M  V30 3942 H 386.838 -0.715742 5.29888 0
M  V30 3943 H 387.181 -1.61064 3.8388 0
M  V30 3944 H 387.714 0.0824916 3.97714 0
M  V30 3945 H 384.453 2.0728 6.21864 0
M  V30 3946 H 383.973 0.376058 5.9862 0
M  V30 3947 H 385.652 0.779281 6.4229 0
M  V30 3948 N 385.784 -1.5574 0.241426 0
M  V30 3949 C 387.033 -1.97986 -0.385295 0
M  V30 3950 C 387.346 -1.13267 -1.59468 0
M  V30 3951 O 388.552 -1.45501 -2.2922 0
M  V30 3952 C 387.008 -3.52275 -0.736884 0
M  V30 3953 C 386.616 -4.45726 0.450796 0
M  V30 3954 C 388.36 -4.03189 -1.3281 0
M  V30 3955 C 386.267 -5.91352 0.0756662 0
M  V30 3956 H 385.197 -0.739386 -0.147731 0
M  V30 3957 H 387.848 -1.80308 0.340779 0
M  V30 3958 H 386.23 -3.65628 -1.52094 0
M  V30 3959 H 387.404 -4.44131 1.22819 0
M  V30 3960 H 385.719 -4.05264 0.956573 0
M  V30 3961 H 388.316 -5.09505 -1.62201 0
M  V30 3962 H 388.659 -3.50212 -2.25071 0
M  V30 3963 H 389.192 -3.93141 -0.607069 0
M  V30 3964 H 385.931 -6.48354 0.965272 0
M  V30 3965 H 385.451 -5.96095 -0.665635 0
M  V30 3966 H 387.13 -6.46084 -0.344075 0
M  V30 3967 N 387.262 0.0317525 -1.57568 0
M  V30 3968 C 388.508 0.724175 -1.8943 0
M  V30 3969 C 388.841 1.75149 -0.838836 0
M  V30 3970 O 388.116 1.93948 0.146422 0
M  V30 3971 C 388.399 1.39615 -3.31933 0
M  V30 3972 C 388.252 0.382537 -4.4817 0
M  V30 3973 C 389.571 2.33084 -3.73309 0
M  V30 3974 H 386.69 0.261797 -0.688935 0
M  V30 3975 H 389.332 -0.013017 -1.89996 0
M  V30 3976 H 387.482 2.02451 -3.31581 0
M  V30 3977 H 389.154 -0.243689 -4.60656 0
M  V30 3978 H 387.397 -0.29844 -4.32772 0
M  V30 3979 H 388.068 0.891145 -5.44759 0
M  V30 3980 H 390.544 1.80295 -3.7501 0
M  V30 3981 H 389.42 2.77084 -4.73831 0
M  V30 3982 H 389.681 3.19643 -3.05419 0
M  V30 3983 N 388.74 1.54641 0.303973 0
M  V30 3984 C 390.151 1.64811 0.877163 0
M  V30 3985 C 390.502 0.554838 1.88191 0
M  V30 3986 O 389.627 -0.309033 2.14182 0
M  V30 3987 C 390.222 2.9876 1.59775 0
M  V30 3988 C 388.781 3.11061 2.11938 0
M  V30 3989 C 387.928 2.60479 0.951097 0
M  V30 3990 H 390.879 1.58493 0.0810486 0
M  V30 3991 H 390.9 2.90017 2.46314 0
M  V30 3992 H 390.412 3.7831 0.866226 0
M  V30 3993 H 388.513 2.36225 2.88146 0
M  V30 3994 H 388.626 4.17171 2.35595 0
M  V30 3995 H 386.99 2.16859 1.33583 0
M  V30 3996 H 387.773 3.42504 0.233581 0
M  V30 3997 N 390.218 -0.567019 1.47046 0
M  V30 3998 C 391.448 -1.34831 1.56538 0
M  V30 3999 C 391.856 -1.8802 0.21101 0
M  V30 4000 O 391.199 -1.65152 -0.804387 0
M  V30 4001 C 391.261 -2.56139 2.52256 0
M  V30 4002 C 390.925 -2.24307 3.98165 0
M  V30 4003 C 391.922 -1.82192 4.86931 0
M  V30 4004 C 389.607 -2.35968 4.43423 0
M  V30 4005 C 391.601 -1.52153 6.18973 0
M  V30 4006 C 389.288 -2.05542 5.75496 0
M  V30 4007 C 390.286 -1.63701 6.63092 0
M  V30 4008 O 389.974 -1.33657 7.92711 0
M  V30 4009 H 389.706 -0.417683 0.531523 0
M  V30 4010 H 392.26 -0.694726 1.93294 0
M  V30 4011 H 390.49 -3.24356 2.10548 0
M  V30 4012 H 392.179 -3.18214 2.51982 0
M  V30 4013 H 392.945 -1.72684 4.53217 0
M  V30 4014 H 388.824 -2.67495 3.75456 0
M  V30 4015 H 392.368 -1.19421 6.87302 0
M  V30 4016 H 388.265 -2.14679 6.08755 0
M  V30 4017 H 389.033 -1.4737 8.05124 0
M  V30 4018 N 391.696 -1.35014 -0.812953 0
M  V30 4019 C 392.945 -1.27269 -1.56479 0
M  V30 4020 C 393.258 0.152771 -1.95002 0
M  V30 4021 O 394.464 0.352451 -2.69203 0
M  V30 4022 C 392.92 -2.23159 -2.82362 0
M  V30 4023 C 392.528 -3.71016 -2.511 0
M  V30 4024 C 394.272 -2.24342 -3.60376 0
M  V30 4025 C 392.179 -4.58746 -3.73237 0
M  V30 4026 H 391.109 -0.472829 -0.587324 0
M  V30 4027 H 393.76 -1.6024 -0.894171 0
M  V30 4028 H 392.142 -1.83151 -3.51101 0
M  V30 4029 H 393.316 -4.1962 -1.90409 0
M  V30 4030 H 391.631 -3.72378 -1.86343 0
M  V30 4031 H 394.228 -2.87107 -4.51081 0
M  V30 4032 H 394.571 -1.24542 -3.97234 0
M  V30 4033 H 395.104 -2.62846 -2.98591 0
M  V30 4034 H 391.843 -5.59521 -3.41492 0
M  V30 4035 H 391.363 -4.14871 -4.33176 0
M  V30 4036 H 393.042 -4.73852 -4.40537 0
M  V30 4037 N 393.175 1.03435 -1.18907 0
M  V30 4038 C 394.123 2.13703 -0.918353 0
M  V30 4039 C 395.117 1.68947 0.123767 0
M  V30 4040 O 396.323 1.79983 -0.0249701 0
M  V30 4041 H 392.698 0.698112 -0.279542 0
M  V30 4042 H 394.669 2.33731 -1.85506 0
M  V30 4043 C 393.418 3.44542 -0.467532 0
M  V30 4044 H 392.741 3.79394 -1.26095 0
M  V30 4045 H 394.181 4.22812 -0.317164 0
M  V30 4046 C 392.64 3.26829 0.817588 0
M  V30 4047 O 393.17 3.54975 1.88031 0
M  V30 4048 N 391.376 2.80139 0.772677 0
M  V30 4049 H 390.923 2.57434 -0.0923883 0
M  V30 4050 H 390.881 2.68668 1.63294 0
M  V30 4051 N 394.653 0.992116 1.22453 0
M  V30 4052 C 395.601 0.534644 2.26372 0
M  V30 4053 C 396.595 -0.414293 1.64256 0
M  V30 4054 O 397.801 -0.286899 1.77699 0
M  V30 4055 H 394.176 0.154502 0.735957 0
M  V30 4056 H 396.147 1.42256 2.62309 0
M  V30 4057 C 394.896 -0.135815 3.47435 0
M  V30 4058 H 394.219 0.585311 3.95492 0
M  V30 4059 H 395.659 -0.419374 4.21921 0
M  V30 4060 C 394.118 -1.37089 3.07747 0
M  V30 4061 O 394.648 -2.46629 3.17076 0
M  V30 4062 N 392.854 -1.24585 2.62539 0
M  V30 4063 H 392.401 -0.354542 2.55149 0
M  V30 4064 H 392.359 -2.07327 2.36353 0
M  V30 4065 N 396.131 -1.37776 0.765217 0
M  V30 4066 C 397.38 -1.99092 0.323307 0
M  V30 4067 C 397.693 -1.61434 -1.10446 0
M  V30 4068 O 398.899 -2.15805 -1.64743 0
M  V30 4069 C 397.355 -3.56019 0.527098 0
M  V30 4070 C 396.963 -4.0262 1.96471 0
M  V30 4071 C 398.707 -4.2424 0.148483 0
M  V30 4072 C 396.614 -5.52233 2.11644 0
M  V30 4073 H 395.544 -0.744846 0.117137 0
M  V30 4074 H 398.195 -1.57391 0.943417 0
M  V30 4075 H 396.577 -3.95667 -0.162372 0
M  V30 4076 H 397.751 -3.74234 2.68859 0
M  V30 4077 H 396.066 -3.47161 2.29931 0
M  V30 4078 H 398.663 -5.34159 0.240456 0
M  V30 4079 H 399.006 -4.06446 -0.900422 0
M  V30 4080 H 399.539 -3.89872 0.79025 0
M  V30 4081 H 396.278 -5.74945 3.1483 0
M  V30 4082 H 395.798 -5.82324 1.4373 0
M  V30 4083 H 397.477 -6.18106 1.91193 0
M  V30 4084 N 397.609 -0.515225 -1.4894 0
M  V30 4085 C 399.02 -0.0710067 -1.86565 0
M  V30 4086 C 399.371 1.34733 -1.42623 0
M  V30 4087 O 398.496 2.00653 -0.810379 0
M  V30 4088 C 399.091 -0.122083 -3.3858 0
M  V30 4089 C 397.65 0.266863 -3.75453 0
M  V30 4090 C 396.797 -0.488376 -2.72966 0
M  V30 4091 H 399.748 -0.727266 -1.41055 0
M  V30 4092 H 399.769 0.669818 -3.74558 0
M  V30 4093 H 399.281 -1.15448 -3.70531 0
M  V30 4094 H 397.382 1.30196 -3.49113 0
M  V30 4095 H 397.495 -0.0624811 -4.79059 0
M  V30 4096 H 395.859 0.0635622 -2.54621 0
M  V30 4097 H 396.642 -1.52113 -3.07761 0
M  V30 4098 N 399.087 1.5561 -0.249682 0
M  V30 4099 C 400.05 2.20217 0.635394 0
M  V30 4100 C 401.05 1.17227 1.10066 0
M  V30 4101 O 402.24 1.42292 1.00492 0
M  V30 4102 C 399.372 2.84794 1.87363 0
M  V30 4103 H 400.565 2.99814 0.0716752 0
M  V30 4104 H 398.118 1.563 -0.000153234 0
M  V30 4105 H 398.853 2.09142 2.47851 0
M  V30 4106 H 398.638 3.60241 1.5482 0
M  V30 4107 H 400.128 3.3423 2.5036 0
M  V30 4108 N 400.565 -0.0233959 1.57583 0
M  V30 4109 C 401.842 -0.748794 1.807 0
M  V30 4110 C 402.222 -1.9327 0.849106 0
M  V30 4111 O 401.57 -2.28247 -0.107468 0
M  V30 4112 C 401.78 -1.17651 3.28571 0
M  V30 4113 C 403.128 -1.59008 3.93702 0
M  V30 4114 O 404.152 -1.27094 3.32755 0
M  V30 4115 O 403.011 -2.18264 5.01022 0
M  V30 4116 H 400.105 -0.362578 0.743281 0
M  V30 4117 H 402.651 0.000261958 1.697 0
M  V30 4118 H 401.423 -0.331603 3.89892 0
M  V30 4119 H 401.046 -1.98541 3.44481 0
M  V30 4120 N 402.043 -1.548 -0.295768 0
M  V30 4121 C 403.268 -1.78653 -1.05346 0
M  V30 4122 C 403.693 -0.546894 -1.79974 0
M  V30 4123 O 403.051 0.502763 -1.7419 0
M  V30 4124 C 403.099 -2.99679 -2.00561 0
M  V30 4125 O 402.203 -2.7317 -3.08953 0
M  V30 4126 H 401.544 -0.59116 -0.302367 0
M  V30 4127 H 404.074 -2.01895 -0.331598 0
M  V30 4128 H 404.084 -3.27793 -2.42932 0
M  V30 4129 H 402.759 -3.89562 -1.4565 0
M  V30 4130 H 401.336 -2.56089 -2.71059 0
M  V30 4131 N 403.521 0.559213 -1.47345 0
M  V30 4132 C 404.932 1.14134 -1.47751 0
M  V30 4133 C 405.283 1.94834 -0.231103 0
M  V30 4134 O 404.408 2.05957 0.664137 0
M  V30 4135 C 405.003 2.07653 -2.67705 0
M  V30 4136 C 403.562 2.61141 -2.71076 0
M  V30 4137 C 402.709 1.3748 -2.40821 0
M  V30 4138 H 405.66 0.345917 -1.54884 0
M  V30 4139 H 405.681 2.91497 -2.44561 0
M  V30 4140 H 405.193 1.4889 -3.58404 0
M  V30 4141 H 403.294 3.23707 -1.84511 0
M  V30 4142 H 403.407 3.02272 -3.7171 0
M  V30 4143 H 401.771 1.68086 -1.91362 0
M  V30 4144 H 402.554 0.805135 -3.33725 0
M  V30 4145 N 404.999 1.35443 0.805782 0
M  V30 4146 C 406.245 1.28952 1.56522 0
M  V30 4147 C 406.578 -0.135597 1.93726 0
M  V30 4148 O 405.853 -1.08516 1.61414 0
M  V30 4149 C 406.136 2.19678 2.85331 0
M  V30 4150 C 405.989 3.7081 2.54598 0
M  V30 4151 C 407.308 2.09495 3.8704 0
M  V30 4152 H 404.427 0.469764 0.567883 0
M  V30 4153 H 407.069 1.65851 0.927001 0
M  V30 4154 H 405.219 1.8834 3.39795 0
M  V30 4155 H 406.891 4.12593 2.06312 0
M  V30 4156 H 405.134 3.91051 1.8778 0
M  V30 4157 H 405.805 4.29679 3.46525 0
M  V30 4158 H 408.281 2.37045 3.41978 0
M  V30 4159 H 407.157 2.75173 4.74943 0
M  V30 4160 H 407.418 1.07714 4.28777 0
M  V30 4161 N 406.477 -1.02803 1.19454 0
M  V30 4162 C 407.893 -1.28473 0.946937 0
M  V30 4163 C 408.093 -1.97881 -0.380202 0
M  V30 4164 O 407.149 -2.26719 -1.11151 0
M  V30 4165 C 408.462 -2.13099 2.12154 0
M  V30 4166 C 410.01 -2.26404 2.16126 0
M  V30 4167 C 410.485 -3.14402 3.33039 0
M  V30 4168 N 411.976 -3.21991 3.32981 0
M  V30 4169 C 412.711 -3.90272 4.20089 0
M  V30 4170 N 412.207 -4.60777 5.17355 0
M  V30 4171 N 414 -3.8668 4.07964 0
M  V30 4172 H 406.151 -0.561665 2.04839 0
M  V30 4173 H 408.414 -0.310438 0.89573 0
M  V30 4174 H 408.12 -1.69422 3.08203 0
M  V30 4175 H 407.994 -3.13813 2.09287 0
M  V30 4176 H 410.381 -2.69311 1.20647 0
M  V30 4177 H 410.462 -1.25237 2.23045 0
M  V30 4178 H 410.106 -2.72204 4.28798 0
M  V30 4179 H 410.036 -4.1563 3.23356 0
M  V30 4180 H 412.527 -2.71778 2.62574 0
M  V30 4181 H 412.84 -5.10513 5.80169 0
M  V30 4182 H 411.185 -4.5964 5.21302 0
M  V30 4183 H 414.376 -3.30739 3.31254 0
M  V30 4184 H 414.549 -4.39621 4.76064 0
M  V30 4185 N 407.956 -0.998596 -1.21925 0
M  V30 4186 C 408.906 -0.524743 -2.21879 0
M  V30 4187 C 409.89 0.41017 -1.55584 0
M  V30 4188 O 411.082 0.236063 -1.75419 0
M  V30 4189 C 408.211 0.153636 -3.42956 0
M  V30 4190 C 407.297 -0.801918 -4.16449 0
M  V30 4191 N 407.688 -1.95211 -4.66611 0
M  V30 4192 C 405.986 -0.618972 -4.41684 0
M  V30 4193 C 406.687 -2.55234 -5.22715 0
M  V30 4194 N 405.663 -1.83451 -5.1171 0
M  V30 4195 H 409.465 -1.40189 -2.58311 0
M  V30 4196 H 406.979 -0.86159 -1.3766 0
M  V30 4197 H 408.976 0.510534 -4.13762 0
M  V30 4198 H 407.636 1.02684 -3.08036 0
M  V30 4199 H 408.647 -2.33271 -4.62391 0
M  V30 4200 H 405.324 0.207694 -4.16983 0
M  V30 4201 H 406.714 -3.52471 -5.72026 0
M  V30 4202 N 409.434 1.37368 -0.772513 0
M  V30 4203 C 410.382 2.32134 -0.147111 0
M  V30 4204 C 411.376 1.54972 0.684106 0
M  V30 4205 O 412.582 1.70363 0.581083 0
M  V30 4206 H 408.957 0.751449 -0.028786 0
M  V30 4207 H 410.928 2.82464 -0.962112 0
M  V30 4208 C 409.677 3.40226 0.71703 0
M  V30 4209 H 409 3.99706 0.0867951 0
M  V30 4210 H 410.44 4.08897 1.12159 0
M  V30 4211 C 408.899 2.80372 1.86797 0
M  V30 4212 O 409.429 2.71183 2.96349 0
M  V30 4213 N 407.635 2.37904 1.66883 0
M  V30 4214 H 407.182 2.45578 0.777759 0
M  V30 4215 H 407.14 1.98202 2.44056 0
M  V30 4216 N 410.912 0.523116 1.48665 0
M  V30 4217 C 411.86 -0.256859 2.31177 0
M  V30 4218 C 412.854 -0.94199 1.40794 0
M  V30 4219 O 414.06 -0.867157 1.57735 0
M  V30 4220 H 410.435 -0.1017 0.745091 0
M  V30 4221 H 412.406 0.458739 2.94853 0
M  V30 4222 C 411.155 -1.29503 3.22683 0
M  V30 4223 H 410.478 -0.777248 3.92172 0
M  V30 4224 H 411.918 -1.81233 3.83315 0
M  V30 4225 C 410.377 -2.32501 2.43813 0
M  V30 4226 O 410.907 -3.3881 2.15803 0
M  V30 4227 N 409.113 -2.05538 2.05432 0
M  V30 4228 H 408.66 -1.19104 2.28412 0
M  V30 4229 H 408.618 -2.74676 1.52973 0
M  V30 4230 N 412.39 -1.55475 0.257931 0
M  V30 4231 C 413.636 -2.00237 -0.357338 0
M  V30 4232 C 413.991 -1.14313 -1.54759 0
M  V30 4233 O 413.284 -0.201187 -1.90541 0
M  V30 4234 C 413.478 -3.48183 -0.806433 0
M  V30 4235 C 413.307 -4.48422 0.338758 0
M  V30 4236 C 412.077 -4.98651 0.817011 0
M  V30 4237 C 414.275 -5.00827 1.16949 0
M  V30 4238 N 412.257 -5.82658 1.93346 0
M  V30 4239 C 413.628 -5.82113 2.13413 0
M  V30 4240 C 415.683 -4.83104 1.2048 0
M  V30 4241 C 414.386 -6.47566 3.13131 0
M  V30 4242 C 416.412 -5.49343 2.19034 0
M  V30 4243 C 415.774 -6.30427 3.14232 0
M  V30 4244 H 411.873 -0.776034 -0.0964083 0
M  V30 4245 H 414.457 -1.90995 0.37803 0
M  V30 4246 H 412.628 -3.57801 -1.51107 0
M  V30 4247 H 414.36 -3.79802 -1.39758 0
M  V30 4248 H 411.115 -4.71914 0.39925 0
M  V30 4249 H 411.539 -6.29356 2.49478 0
M  V30 4250 H 416.181 -4.20036 0.482634 0
M  V30 4251 H 413.899 -7.09793 3.8629 0
M  V30 4252 H 417.485 -5.37579 2.22485 0
M  V30 4253 H 416.365 -6.80777 3.89246 0
M  V30 4254 N 413.868 0.0150385 -1.57593 0
M  V30 4255 C 415.096 0.714395 -1.94175 0
M  V30 4256 C 415.511 1.68135 -0.858841 0
M  V30 4257 O 414.868 1.81766 0.163567 0
M  V30 4258 C 414.919 1.45933 -3.30735 0
M  V30 4259 O 414.64 0.531167 -4.34868 0
M  V30 4260 C 416.141 2.25456 -3.81686 0
M  V30 4261 H 413.361 0.199923 -0.640525 0
M  V30 4262 H 415.905 -0.0316096 -2.04476 0
M  V30 4263 H 414.06 2.15709 -3.21789 0
M  V30 4264 H 414.474 1.05509 -5.13778 0
M  V30 4265 H 415.948 2.731 -4.79709 0
M  V30 4266 H 416.425 3.07485 -3.13607 0
M  V30 4267 H 417.031 1.60727 -3.9376 0
M  V30 4268 N 415.346 1.54954 0.287554 0
M  V30 4269 C 416.276 1.89839 1.35954 0
M  V30 4270 C 417.257 0.758675 1.52244 0
M  V30 4271 O 418.442 1.01557 1.65529 0
M  V30 4272 C 415.572 2.15753 2.72154 0
M  V30 4273 C 414.526 3.3159 2.70614 0
M  V30 4274 C 413.852 3.42952 4.10229 0
M  V30 4275 C 415.152 4.68359 2.31165 0
M  V30 4276 H 416.846 2.79625 1.07007 0
M  V30 4277 H 414.392 1.3454 0.513316 0
M  V30 4278 H 416.345 2.38743 3.47246 0
M  V30 4279 H 415.069 1.22752 3.02654 0
M  V30 4280 H 413.728 3.08545 1.97979 0
M  V30 4281 H 413.376 2.47443 4.37928 0
M  V30 4282 H 413.076 4.20826 4.10097 0
M  V30 4283 H 414.6 3.68218 4.87081 0
M  V30 4284 H 416.014 4.9099 2.95976 0
M  V30 4285 H 414.411 5.49044 2.42221 0
M  V30 4286 H 415.481 4.68165 1.26291 0
M  V30 4287 N 416.824 -0.551391 1.4764 0
M  V30 4288 C 418.064 -1.31901 1.56145 0
M  V30 4289 C 418.428 -1.90724 0.221013 0
M  V30 4290 O 419.629 -2.6819 0.180945 0
M  V30 4291 C 417.9 -2.39517 2.65267 0
M  V30 4292 S 419.459 -3.26289 2.93395 0
M  V30 4293 H 416.277 -0.448965 0.551318 0
M  V30 4294 H 418.879 -0.630599 1.85051 0
M  V30 4295 H 417.583 -1.94747 3.6125 0
M  V30 4296 H 417.114 -3.13092 2.38195 0
M  V30 4297 H 419.129 -4.39122 2.31055 0
M  V30 4298 N 418.302 -1.35869 -0.798587 0
M  V30 4299 C 419.548 -1.2978 -1.55836 0
M  V30 4300 C 419.881 0.125322 -1.93795 0
M  V30 4301 O 419.156 1.07658 -1.61987 0
M  V30 4302 C 419.439 -2.21188 -2.84162 0
M  V30 4303 C 419.292 -3.72155 -2.52628 0
M  V30 4304 C 420.611 -2.11545 -3.85923 0
M  V30 4305 H 417.73 -0.472769 -0.565383 0
M  V30 4306 H 420.372 -1.66341 -0.918192 0
M  V30 4307 H 418.522 -1.90139 -3.38791 0
M  V30 4308 H 420.194 -4.13682 -2.04121 0
M  V30 4309 H 418.437 -3.92042 -1.85704 0
M  V30 4310 H 419.108 -4.31511 -3.44242 0
M  V30 4311 H 421.584 -2.38855 -3.40716 0
M  V30 4312 H 420.46 -2.77688 -4.73477 0
M  V30 4313 H 420.721 -1.09987 -4.282 0
M  V30 4314 N 419.78 1.02168 -1.19998 0
M  V30 4315 C 421.029 1.75091 -1.0013 0
M  V30 4316 C 421.342 1.89923 0.467835 0
M  V30 4317 O 422.548 2.59888 0.785515 0
M  V30 4318 C 421.004 3.14892 -1.74273 0
M  V30 4319 C 420.612 3.0809 -3.25245 0
M  V30 4320 C 422.356 3.9206 -1.62755 0
M  V30 4321 C 420.263 4.42867 -3.91948 0
M  V30 4322 H 419.193 0.656394 -0.37103 0
M  V30 4323 H 421.844 1.14284 -1.43567 0
M  V30 4324 H 420.226 3.7621 -1.2362 0
M  V30 4325 H 421.4 2.5611 -3.83072 0
M  V30 4326 H 419.715 2.44416 -3.3712 0
M  V30 4327 H 422.312 4.91764 -2.09934 0
M  V30 4328 H 422.655 4.12199 -0.582894 0
M  V30 4329 H 423.188 3.37359 -2.10793 0
M  V30 4330 H 419.927 4.27931 -4.96543 0
M  V30 4331 H 419.447 4.94874 -3.3891 0
M  V30 4332 H 421.126 5.11728 -3.95909 0
M  V30 4333 N 421.258 1.00505 1.21394 0
M  V30 4334 C 422.669 0.721082 1.72213 0
M  V30 4335 C 423.02 -0.761263 1.80829 0
M  V30 4336 O 422.145 -1.59464 1.46288 0
M  V30 4337 C 422.74 1.30228 3.12772 0
M  V30 4338 C 421.299 1.06743 3.60947 0
M  V30 4339 C 420.446 1.41507 2.38477 0
M  V30 4340 H 423.397 1.17594 1.06571 0
M  V30 4341 H 423.418 0.686955 3.74247 0
M  V30 4342 H 422.93 2.38115 3.06468 0
M  V30 4343 H 421.031 0.00572162 3.726 0
M  V30 4344 H 421.144 1.73936 4.46411 0
M  V30 4345 H 419.508 0.833852 2.40664 0
M  V30 4346 H 420.291 2.50424 2.34824 0
M  V30 4347 N 422.737 -1.36956 0.779787 0
M  V30 4348 C 423.983 -1.99787 0.348281 0
M  V30 4349 C 424.316 -1.61756 -1.07465 0
M  V30 4350 O 423.591 -0.867639 -1.74075 0
M  V30 4351 C 423.874 -3.56597 0.50104 0
M  V30 4352 C 423.727 -4.04513 1.96697 0
M  V30 4353 C 425.046 -4.40008 -0.0898097 0
M  V30 4354 H 422.165 -0.725796 0.128022 0
M  V30 4355 H 424.807 -1.62514 0.984331 0
M  V30 4356 H 422.957 -3.88479 -0.0404347 0
M  V30 4357 H 424.629 -3.83161 2.56876 0
M  V30 4358 H 422.872 -3.56408 2.47297 0
M  V30 4359 H 423.543 -5.1352 2.02486 0
M  V30 4360 H 426.019 -4.14431 0.372293 0
M  V30 4361 H 424.895 -5.4888 0.0471605 0
M  V30 4362 H 425.156 -4.26035 -1.18096 0
M  V30 4363 N 424.215 -0.530993 -1.48385 0
M  V30 4364 C 425.461 0.00274135 -2.028 0
M  V30 4365 C 425.794 1.33838 -1.40716 0
M  V30 4366 O 425.069 1.86465 -0.553277 0
M  V30 4367 C 425.352 0.123676 -3.59888 0
M  V30 4368 C 425.205 -1.2372 -4.3245 0
M  V30 4369 C 426.524 0.849967 -4.31814 0
M  V30 4370 H 423.643 -0.000477758 -0.737 0
M  V30 4371 H 426.285 -0.688217 -1.77098 0
M  V30 4372 H 424.435 0.712157 -3.81917 0
M  V30 4373 H 426.107 -1.86687 -4.21836 0
M  V30 4374 H 424.35 -1.81882 -3.93829 0
M  V30 4375 H 425.021 -1.10557 -5.40815 0
M  V30 4376 H 427.497 0.350572 -4.14621 0
M  V30 4377 H 426.373 0.903486 -5.41413 0
M  V30 4378 H 426.634 1.90047 -3.99167 0
M  V30 4379 N 425.693 1.55336 -0.266172 0
M  V30 4380 C 427.104 1.85236 0.233315 0
M  V30 4381 C 427.455 1.18816 1.56132 0
M  V30 4382 O 426.58 0.473307 2.11161 0
M  V30 4383 C 427.175 3.36059 0.430113 0
M  V30 4384 C 425.734 3.66116 0.873842 0
M  V30 4385 C 424.881 2.77274 -0.0380016 0
M  V30 4386 H 427.832 1.51004 -0.488214 0
M  V30 4387 H 427.853 3.58681 1.26998 0
M  V30 4388 H 427.365 3.84373 -0.536588 0
M  V30 4389 H 425.466 3.23295 1.85233 0
M  V30 4390 H 425.579 4.73699 0.717358 0
M  V30 4391 H 423.943 2.50198 0.476759 0
M  V30 4392 H 424.726 3.284 -1.00042 0
M  V30 4393 N 427.171 -0.0066808 1.57599 0
M  V30 4394 C 428.101 -0.999296 2.11036 0
M  V30 4395 C 429.082 -1.36278 1.01795 0
M  V30 4396 O 430.267 -1.4477 1.29442 0
M  V30 4397 C 427.397 -2.29328 2.60818 0
M  V30 4398 C 426.351 -2.07159 3.74525 0
M  V30 4399 C 425.677 -3.42512 4.10596 0
M  V30 4400 C 426.977 -1.43959 5.02069 0
M  V30 4401 H 428.671 -0.554382 2.94223 0
M  V30 4402 H 426.217 -0.265221 1.41536 0
M  V30 4403 H 428.17 -2.99117 2.96828 0
M  V30 4404 H 426.894 -2.7592 1.74745 0
M  V30 4405 H 425.553 -1.39797 3.38899 0
M  V30 4406 H 425.201 -3.86795 3.21556 0
M  V30 4407 H 424.901 -3.28498 4.87199 0
M  V30 4408 H 426.425 -4.13628 4.4916 0
M  V30 4409 H 427.839 -2.03696 5.35893 0
M  V30 4410 H 426.236 -1.40452 5.83432 0
M  V30 4411 H 427.306 -0.407992 4.83181 0
M  V30 4412 N 428.649 -1.55105 -0.279332 0
M  V30 4413 C 429.926 -1.66119 -1.03267 0
M  V30 4414 C 430.306 -0.523525 -2.04505 0
M  V30 4415 O 429.654 0.477194 -2.23462 0
M  V30 4416 C 429.864 -3.05067 -1.69515 0
M  V30 4417 C 431.212 -3.62606 -2.20912 0
M  V30 4418 O 432.236 -3.07659 -1.79512 0
M  V30 4419 O 431.095 -4.58861 -2.96831 0
M  V30 4420 H 428.189 -0.674429 -0.478618 0
M  V30 4421 H 430.735 -1.67446 -0.275694 0
M  V30 4422 H 429.507 -3.79311 -0.9612 0
M  V30 4423 H 429.13 -3.07611 -2.51915 0
M  V30 4424 N 430.127 0.543554 -1.4793 0
M  V30 4425 C 431.357 1.32324 -1.58663 0
M  V30 4426 C 431.765 1.8766 -0.240896 0
M  V30 4427 O 431.108 1.66411 0.778011 0
M  V30 4428 C 431.17 2.52094 -2.56299 0
M  V30 4429 C 430.834 2.17944 -4.01683 0
M  V30 4430 C 431.831 1.74422 -4.89768 0
M  V30 4431 C 429.516 2.28884 -4.47121 0
M  V30 4432 C 431.51 1.42287 -6.21316 0
M  V30 4433 C 429.197 1.96361 -5.78693 0
M  V30 4434 C 430.195 1.53132 -6.65612 0
M  V30 4435 O 429.883 1.21029 -7.94737 0
M  V30 4436 H 429.615 0.409174 -0.538101 0
M  V30 4437 H 432.169 0.663887 -1.94375 0
M  V30 4438 H 430.399 3.20965 -2.15681 0
M  V30 4439 H 432.088 3.14165 -2.57012 0
M  V30 4440 H 432.854 1.65452 -4.55907 0
M  V30 4441 H 428.733 2.61488 -3.79664 0
M  V30 4442 H 432.277 1.08472 -6.89115 0
M  V30 4443 H 428.174 2.04967 -6.12094 0
M  V30 4444 H 428.942 1.34543 -8.07366 0
M  V30 4445 N 431.605 1.3629 0.791371 0
M  V30 4446 C 432.83 1.33726 1.58531 0
M  V30 4447 C 433.255 -0.0794933 1.87932 0
M  V30 4448 O 432.613 -1.05087 1.47738 0
M  V30 4449 C 432.661 2.16425 2.88431 0
M  V30 4450 O 431.765 1.5554 3.81944 0
M  V30 4451 H 431.106 0.457793 0.480959 0
M  V30 4452 H 433.636 1.79547 0.981031 0
M  V30 4453 H 433.646 2.28933 3.37718 0
M  V30 4454 H 432.321 3.19415 2.66359 0
M  V30 4455 H 430.898 1.51961 3.40532 0
M  V30 4456 N 433.083 -1.0153 1.20538 0
M  V30 4457 C 433.993 -2.13557 0.971113 0
M  V30 4458 C 435.009 -1.73845 -0.0734366 0
M  V30 4459 O 436.185 -2.01075 0.114299 0
M  V30 4460 C 433.25 -3.42661 0.527639 0
M  V30 4461 C 432.311 -3.96608 1.64319 0
M  V30 4462 C 431.544 -5.1955 1.22078 0
M  V30 4463 O 431.767 -5.70329 0.0900198 0
M  V30 4464 O 430.701 -5.66681 2.02871 0
M  V30 4465 H 434.527 -2.3619 1.90913 0
M  V30 4466 H 432.112 -1.11946 0.989362 0
M  V30 4467 H 433.994 -4.20404 0.289621 0
M  V30 4468 H 432.669 -3.21441 -0.381779 0
M  V30 4469 H 431.576 -3.20139 1.93551 0
M  V30 4470 H 432.909 -4.22219 2.52966 0
M  V30 4471 N 434.561 -1.01147 -1.20859 0
M  V30 4472 C 435.809 -0.696486 -1.89719 0
M  V30 4473 C 436.13 0.775788 -1.78904 0
M  V30 4474 O 435.4 1.55759 -1.18811 0
M  V30 4475 H 433.98 -0.254628 -0.702263 0
M  V30 4476 H 436.642 -1.28197 -1.46804 0
M  V30 4477 H 435.738 -0.975357 -2.96468 0
M  V30 4478 N 436.039 1.36541 -0.78704 0
M  V30 4479 C 437.002 2.28413 -0.189778 0
M  V30 4480 C 438.002 1.48719 0.611499 0
M  V30 4481 O 439.192 1.68737 0.432842 0
M  V30 4482 C 436.324 3.32824 0.737638 0
M  V30 4483 H 437.517 2.82743 -0.999831 0
M  V30 4484 H 435.07 1.46065 -0.556298 0
M  V30 4485 H 435.805 2.83646 1.57212 0
M  V30 4486 H 435.59 3.91752 0.165044 0
M  V30 4487 H 437.08 4.0144 1.15047 0
M  V30 4488 N 437.518 0.538854 1.48102 0
M  V30 4489 C 438.746 0.0123136 2.06896 0
M  V30 4490 C 439.161 -1.27312 1.39417 0
M  V30 4491 O 438.518 -1.75949 0.484582 0
M  V30 4492 C 438.569 -0.206118 3.60912 0
M  V30 4493 O 438.29 1.0284 4.25859 0
M  V30 4494 C 439.791 -0.772033 4.36526 0
M  V30 4495 H 437.011 0.0375239 0.66995 0
M  V30 4496 H 439.555 0.747032 1.90367 0
M  V30 4497 H 437.71 -0.89091 3.77017 0
M  V30 4498 H 438.124 0.814654 5.18135 0
M  V30 4499 H 439.598 -0.874251 5.45033 0
M  V30 4500 H 440.075 -1.77904 4.01555 0
M  V30 4501 H 440.681 -0.123526 4.25121 0
M  V30 4502 N 438.996 -1.55193 0.274407 0
M  V30 4503 C 440.224 -2.03987 -0.345943 0
M  V30 4504 C 440.639 -1.15279 -1.4952 0
M  V30 4505 O 439.996 -0.172759 -1.8168 0
M  V30 4506 C 440.047 -3.51898 -0.827631 0
M  V30 4507 O 439.768 -4.37231 0.275855 0
M  V30 4508 C 441.269 -4.16577 -1.51587 0
M  V30 4509 H 438.489 -0.666335 -0.0789892 0
M  V30 4510 H 441.033 -2.00423 0.406294 0
M  V30 4511 H 439.188 -3.55909 -1.52996 0
M  V30 4512 H 439.602 -5.24415 -0.0943638 0
M  V30 4513 H 441.076 -5.21678 -1.80433 0
M  V30 4514 H 441.553 -3.64707 -2.44716 0
M  V30 4515 H 442.159 -4.16568 -0.857409 0
M  V30 4516 N 440.474 -0.00167713 -1.576 0
M  V30 4517 C 441.72 0.683832 -1.90923 0
M  V30 4518 C 442.053 1.7333 -0.875799 0
M  V30 4519 O 441.328 1.94215 0.10525 0
M  V30 4520 C 441.611 1.32543 -3.3482 0
M  V30 4521 C 441.464 0.287387 -4.48881 0
M  V30 4522 C 442.783 2.25114 -3.78169 0
M  V30 4523 H 439.902 0.247125 -0.694333 0
M  V30 4524 H 442.544 -0.0533149 -1.89925 0
M  V30 4525 H 440.694 1.95372 -3.35801 0
M  V30 4526 H 442.366 -0.341346 -4.60035 0
M  V30 4527 H 440.609 -0.39017 -4.32042 0
M  V30 4528 H 441.28 0.775393 -5.46527 0
M  V30 4529 H 443.756 1.723 -3.7875 0
M  V30 4530 H 442.632 2.66971 -4.79602 0
M  V30 4531 H 442.893 3.13092 -3.12131 0
M  V30 4532 N 441.952 1.55251 0.271103 0
M  V30 4533 C 443.198 1.76207 1.00394 0
M  V30 4534 C 443.531 0.562604 1.85872 0
M  V30 4535 O 442.806 -0.439785 1.89463 0
M  V30 4536 C 443.089 3.06828 1.8849 0
M  V30 4537 C 442.942 4.37134 1.05992 0
M  V30 4538 C 444.261 3.33503 2.87165 0
M  V30 4539 H 441.38 0.641086 0.363562 0
M  V30 4540 H 444.022 1.87982 0.276189 0
M  V30 4541 H 442.172 2.96921 2.5054 0
M  V30 4542 H 443.844 4.59001 0.459978 0
M  V30 4543 H 442.087 4.32275 0.363443 0
M  V30 4544 H 442.758 5.2486 1.70955 0
M  V30 4545 H 445.234 3.43215 2.3525 0
M  V30 4546 H 444.11 4.2616 3.45946 0
M  V30 4547 H 444.371 2.53235 3.62387 0
M  V30 4548 N 443.43 -0.535701 1.48216 0
M  V30 4549 C 444.841 -1.11769 1.49548 0
M  V30 4550 C 445.192 -1.94442 0.26207 0
M  V30 4551 O 444.317 -2.06987 -0.631287 0
M  V30 4552 C 444.912 -2.03367 2.70975 0
M  V30 4553 C 443.471 -2.56795 2.75196 0
M  V30 4554 C 442.618 -1.33631 2.42977 0
M  V30 4555 H 445.569 -0.321232 1.55415 0
M  V30 4556 H 445.59 -2.87569 2.49167 0
M  V30 4557 H 445.102 -1.43169 3.60727 0
M  V30 4558 H 443.203 -3.20731 1.89638 0
M  V30 4559 H 443.316 -2.9632 3.76472 0
M  V30 4560 H 441.68 -1.6502 1.94012 0
M  V30 4561 H 442.463 -0.75194 3.34964 0
M  V30 4562 N 444.908 -1.36708 -0.784132 0
M  V30 4563 C 446.157 -1.30559 -1.53744 0
M  V30 4564 C 446.47 0.111374 -1.95283 0
M  V30 4565 O 447.676 0.29527 -2.6989 0
M  V30 4566 C 446.132 -2.29098 -2.77565 0
M  V30 4567 C 445.74 -3.76258 -2.43174 0
M  V30 4568 C 447.484 -2.31936 -3.55536 0
M  V30 4569 C 445.391 -4.6656 -3.63422 0
M  V30 4570 H 444.321 -0.48518 -0.577162 0
M  V30 4571 H 446.972 -1.62101 -0.859981 0
M  V30 4572 H 445.354 -1.90557 -3.47137 0
M  V30 4573 H 446.528 -4.23565 -1.81465 0
M  V30 4574 H 444.843 -3.76246 -1.78403 0
M  V30 4575 H 447.44 -2.9661 -4.44889 0
M  V30 4576 H 447.783 -1.3294 -3.94503 0
M  V30 4577 H 448.316 -2.6912 -2.92949 0
M  V30 4578 H 445.055 -5.66638 -3.29547 0
M  V30 4579 H 444.575 -4.23966 -4.24279 0
M  V30 4580 H 446.254 -4.8309 -4.30387 0
M  V30 4581 N 446.386 1.0089 -1.21074 0
M  V30 4582 C 447.614 1.78191 -1.05145 0
M  V30 4583 C 448.029 1.84537 0.398952 0
M  V30 4584 O 447.386 1.30393 1.27687 0
M  V30 4585 C 447.437 3.22288 -1.63746 0
M  V30 4586 O 447.158 3.16315 -3.03111 0
M  V30 4587 C 448.659 4.16106 -1.52875 0
M  V30 4588 H 445.879 0.560129 -0.369454 0
M  V30 4589 H 448.423 1.26945 -1.60328 0
M  V30 4590 H 446.578 3.70655 -1.12664 0
M  V30 4591 H 446.992 4.06817 -3.31059 0
M  V30 4592 H 448.466 5.15026 -1.98626 0
M  V30 4593 H 448.943 4.36541 -0.482521 0
M  V30 4594 H 449.549 3.73625 -2.03185 0
M  V30 4595 N 447.864 1.01787 1.20321 0
M  V30 4596 C 449.11 0.708985 1.90003 0
M  V30 4597 C 449.443 -0.759572 1.78729 0
M  V30 4598 O 448.718 -1.55198 1.17234 0
M  V30 4599 C 449.001 1.1469 3.41348 0
M  V30 4600 C 448.854 2.67586 3.61549 0
M  V30 4601 C 450.173 0.71915 4.34185 0
M  V30 4602 H 447.292 0.259034 0.689978 0
M  V30 4603 H 449.934 1.26584 1.41692 0
M  V30 4604 H 448.084 0.673128 3.82624 0
M  V30 4605 H 449.756 3.22826 3.29517 0
M  V30 4606 H 447.999 3.085 3.04976 0
M  V30 4607 H 448.67 2.93281 4.67643 0
M  V30 4608 H 451.146 1.12647 4.00562 0
M  V30 4609 H 450.022 1.05358 5.38694 0
M  V30 4610 H 450.283 -0.379111 4.40472 0
M  V30 4611 N 449.342 -1.36122 0.79427 0
M  V30 4612 C 450.57 -2.03362 0.380989 0
M  V30 4613 C 450.985 -1.59881 -1.00416 0
M  V30 4614 O 450.342 -0.790515 -1.6449 0
M  V30 4615 C 450.393 -3.58804 0.440649 0
M  V30 4616 O 450.114 -4.007 1.77118 0
M  V30 4617 C 451.615 -4.43296 0.0186117 0
M  V30 4618 H 448.835 -0.652526 0.156367 0
M  V30 4619 H 451.379 -1.73998 1.07447 0
M  V30 4620 H 449.534 -3.8686 -0.204458 0
M  V30 4621 H 449.948 -4.95309 1.72538 0
M  V30 4622 H 451.422 -5.51887 0.111488 0
M  V30 4623 H 451.899 -4.2684 -1.03461 0
M  V30 4624 H 452.505 -4.20512 0.636395 0
M  V30 4625 N 450.82 -0.546701 -1.47814 0
M  V30 4626 C 451.75 0.195317 -2.32682 0
M  V30 4627 C 452.731 0.918981 -1.43139 0
M  V30 4628 O 453.916 0.901501 -1.72008 0
M  V30 4629 C 451.046 1.23237 -3.247 0
M  V30 4630 C 450 0.625818 -4.234 0
M  V30 4631 C 449.326 1.76674 -5.04669 0
M  V30 4632 C 450.626 -0.413515 -5.2066 0
M  V30 4633 H 452.32 -0.513184 -2.94969 0
M  V30 4634 H 449.866 -0.248241 -1.41844 0
M  V30 4635 H 451.819 1.75955 -3.82907 0
M  V30 4636 H 450.543 1.97067 -2.60446 0
M  V30 4637 H 449.202 0.120023 -3.66403 0
M  V30 4638 H 448.85 2.49383 -4.36826 0
M  V30 4639 H 448.55 1.36673 -5.71484 0
M  V30 4640 H 450.074 2.29738 -5.65732 0
M  V30 4641 H 451.488 0.0272042 -5.73294 0
M  V30 4642 H 449.885 -0.731825 -5.95621 0
M  V30 4643 H 450.955 -1.31325 -4.66778 0
M  V30 4644 N 452.299 1.55045 -0.282633 0
M  V30 4645 C 453.262 2.21515 0.588539 0
M  V30 4646 C 454.262 1.19535 1.07554 0
M  V30 4647 O 455.452 1.44391 0.974514 0
M  V30 4648 C 452.584 2.88704 1.8128 0
M  V30 4649 H 453.777 2.99899 0.00806397 0
M  V30 4650 H 451.33 1.56265 -0.0333067 0
M  V30 4651 H 452.065 2.14352 2.43359 0
M  V30 4652 H 451.85 3.63443 1.47144 0
M  V30 4653 H 453.34 3.39465 2.43214 0
M  V30 4654 N 453.777 0.010035 1.57597 0
M  V30 4655 C 455.188 -0.531426 1.78977 0
M  V30 4656 C 455.539 -1.73375 0.918454 0
M  V30 4657 O 454.664 -2.16047 0.123635 0
M  V30 4658 C 455.259 -0.97086 3.24592 0
M  V30 4659 C 453.818 -1.45756 3.47033 0
M  V30 4660 C 452.965 -0.413384 2.74201 0
M  V30 4661 H 455.916 0.236166 1.56933 0
M  V30 4662 H 455.937 -1.83633 3.33255 0
M  V30 4663 H 455.449 -0.0955893 3.87982 0
M  V30 4664 H 453.55 -2.35339 2.88871 0
M  V30 4665 H 453.663 -1.4781 4.55729 0
M  V30 4666 H 452.027 -0.877266 2.39115 0
M  V30 4667 H 452.81 0.453092 3.40297 0
M  V30 4668 N 455.255 -1.55392 -0.262866 0
M  V30 4669 C 456.188 -1.8391 -1.35101 0
M  V30 4670 C 457.166 -0.692901 -1.47097 0
M  V30 4671 O 458.35 -0.936979 -1.63563 0
M  V30 4672 C 455.477 -2.00969 -2.72634 0
M  V30 4673 C 454.523 -3.23559 -2.7787 0
M  V30 4674 S 455.356 -4.80647 -2.3609 0
M  V30 4675 C 456.512 -5.00692 -3.75578 0
M  V30 4676 H 456.745 -2.75918 -1.1071 0
M  V30 4677 H 454.278 -1.47294 -0.463029 0
M  V30 4678 H 456.236 -2.11482 -3.51832 0
M  V30 4679 H 454.897 -1.09832 -2.94272 0
M  V30 4680 H 454.09 -3.32413 -3.78837 0
M  V30 4681 H 453.692 -3.11689 -2.06702 0
M  V30 4682 H 455.984 -4.87055 -4.70939 0
M  V30 4683 H 456.927 -6.02717 -3.71669 0
M  V30 4684 H 457.335 -4.28619 -3.6735 0
M  V30 4685 N 456.733 0.527833 -1.48498 0
M  V30 4686 C 457.973 1.29401 -1.58224 0
M  V30 4687 C 458.337 1.90348 -0.251327 0
M  V30 4688 O 459.538 2.67868 -0.223588 0
M  V30 4689 C 457.809 2.35266 -2.69044 0
M  V30 4690 S 459.368 3.2158 -2.98549 0
M  V30 4691 H 456.186 0.440138 -0.558391 0
M  V30 4692 H 458.788 0.601079 -1.8603 0
M  V30 4693 H 457.492 1.88975 -3.64303 0
M  V30 4694 H 457.023 3.09263 -2.43146 0
M  V30 4695 H 459.038 4.35391 -2.38011 0
M  V30 4696 N 458.211 1.37122 0.776871 0
M  V30 4697 C 459.451 1.33441 1.54831 0
M  V30 4698 C 459.815 -0.0818963 1.91825 0
M  V30 4699 O 461.016 -0.24338 2.67696 0
M  V30 4700 C 459.287 2.24267 2.78279 0
M  V30 4701 S 460.846 2.38389 3.68397 0
M  V30 4702 H 457.664 0.473791 0.530135 0
M  V30 4703 H 460.266 1.7282 0.913968 0
M  V30 4704 H 458.97 3.261 2.49173 0
M  V30 4705 H 458.501 1.85953 3.46677 0
M  V30 4706 H 460.516 1.59068 4.70013 0
M  V30 4707 N 459.689 -1.00246 1.21608 0
M  V30 4708 C 460.599 -2.12515 0.993709 0
M  V30 4709 C 461.615 -1.73913 -0.0549939 0
M  V30 4710 O 462.791 -2.00943 0.135619 0
M  V30 4711 C 459.856 -3.42083 0.563953 0
M  V30 4712 C 458.917 -3.94843 1.68516 0
M  V30 4713 C 458.15 -5.18226 1.27582 0
M  V30 4714 O 458.373 -5.70201 0.150506 0
M  V30 4715 O 457.307 -5.64497 2.0887 0
M  V30 4716 H 461.133 -2.34152 1.93407 0
M  V30 4717 H 458.718 -1.10891 1.00118 0
M  V30 4718 H 460.6 -4.20073 0.334194 0
M  V30 4719 H 459.275 -3.21828 -0.347665 0
M  V30 4720 H 458.182 -3.18068 1.96935 0
M  V30 4721 H 459.515 -4.19512 2.5743 0
M  V30 4722 N 461.167 -1.02423 -1.1978 0
M  V30 4723 C 462.414 -0.717988 -1.89344 0
M  V30 4724 C 462.742 0.753036 -1.79331 0
M  V30 4725 O 461.997 1.56355 -1.17692 0
M  V30 4726 C 462.296 -1.1088 -3.39765 0
M  V30 4727 C 461.962 -2.57731 -3.6998 0
M  V30 4728 C 460.624 -2.97854 -3.77937 0
M  V30 4729 C 462.976 -3.52763 -3.83677 0
M  V30 4730 C 460.304 -4.31931 -3.97054 0
M  V30 4731 C 462.656 -4.86538 -4.04306 0
M  V30 4732 C 461.32 -5.26356 -4.10494 0
M  V30 4733 H 460.59 -0.26273 -0.692859 0
M  V30 4734 H 463.237 -1.28623 -1.41875 0
M  V30 4735 H 461.542 -0.459094 -3.89101 0
M  V30 4736 H 463.239 -0.849432 -3.919 0
M  V30 4737 H 459.829 -2.25646 -3.64393 0
M  V30 4738 H 464.013 -3.2292 -3.76877 0
M  V30 4739 H 459.269 -4.62324 -4.00083 0
M  V30 4740 H 463.443 -5.60093 -4.13846 0
M  V30 4741 H 461.07 -6.3026 -4.2506 0
M  V30 4742 N 462.645 1.35699 -0.801477 0
M  V30 4743 C 463.922 1.9324 -0.302937 0
M  V30 4744 C 464.302 1.73209 1.20672 0
M  V30 4745 O 463.65 1.09809 2.00385 0
M  V30 4746 C 463.86 3.41728 -0.708747 0
M  V30 4747 C 465.208 4.18868 -0.695328 0
M  V30 4748 O 466.232 3.5022 -0.649971 0
M  V30 4749 O 465.091 5.41342 -0.749081 0
M  V30 4750 H 462.185 0.82331 -0.0780367 0
M  V30 4751 H 464.731 1.44806 -0.884832 0
M  V30 4752 H 463.503 3.50015 -1.74944 0
M  V30 4753 H 463.126 3.97471 -0.101384 0
M  V30 4754 N 464.123 0.554532 1.47522 0
M  V30 4755 C 465.371 0.0294208 2.02079 0
M  V30 4756 C 465.692 -1.32411 1.43151 0
M  V30 4757 O 464.962 -1.863 0.605728 0
M  V30 4758 H 463.542 0.00788672 0.746958 0
M  V30 4759 H 466.204 0.723934 1.80956 0
M  V30 4760 H 465.3 -0.0606745 3.12041 0
M  V30 4761 N 465.601 -1.54893 0.290851 0
M  V30 4762 C 466.531 -2.26103 -0.583084 0
M  V30 4763 C 467.512 -1.25684 -1.14619 0
M  V30 4764 O 468.697 -1.54436 -1.17741 0
M  V30 4765 C 465.827 -2.99409 -1.75987 0
M  V30 4766 C 464.781 -4.0689 -1.32758 0
M  V30 4767 C 464.107 -4.67856 -2.58872 0
M  V30 4768 C 465.407 -5.20215 -0.46624 0
M  V30 4769 H 467.101 -2.99398 0.0108214 0
M  V30 4770 H 464.647 -1.43998 0.00664468 0
M  V30 4771 H 466.6 -3.47943 -2.37727 0
M  V30 4772 H 465.324 -2.23675 -2.37985 0
M  V30 4773 H 463.983 -3.59191 -0.733299 0
M  V30 4774 H 463.631 -3.88772 -3.19163 0
M  V30 4775 H 463.331 -5.40438 -2.30653 0
M  V30 4776 H 464.855 -5.19147 -3.21433 0
M  V30 4777 H 466.269 -5.64704 -0.989047 0
M  V30 4778 H 464.666 -5.99455 -0.27826 0
M  V30 4779 H 465.736 -4.82198 0.511173 0
M  V30 4780 N 467.08 -0.0183926 -1.57589 0
M  V30 4781 C 468.496 0.337897 -1.55982 0
M  V30 4782 C 468.696 1.73604 -1.02294 0
M  V30 4783 O 467.752 2.43589 -0.664895 0
M  V30 4784 C 469.065 0.196305 -3.00059 0
M  V30 4785 C 470.613 0.269875 -3.11834 0
M  V30 4786 C 471.088 0.157197 -4.5773 0
M  V30 4787 N 472.579 0.214521 -4.62703 0
M  V30 4788 C 473.314 0.150955 -5.73201 0
M  V30 4789 N 472.81 0.0369212 -6.9279 0
M  V30 4790 N 474.603 0.204162 -5.61729 0
M  V30 4791 H 466.754 -0.93279 -1.90821 0
M  V30 4792 H 469.017 -0.359253 -0.877292 0
M  V30 4793 H 468.723 -0.766383 -3.43248 0
M  V30 4794 H 468.597 0.970908 -3.6449 0
M  V30 4795 H 470.984 1.22302 -2.68563 0
M  V30 4796 H 471.065 -0.534918 -2.50144 0
M  V30 4797 H 470.709 -0.792479 -5.01679 0
M  V30 4798 H 470.639 0.980717 -5.17387 0
M  V30 4799 H 473.13 0.303238 -3.76681 0
M  V30 4800 H 473.443 -0.00518321 -7.728 0
M  V30 4801 H 471.788 0.0022886 -6.95 0
M  V30 4802 H 474.979 0.291575 -4.67191 0
M  V30 4803 H 475.152 0.15116 -6.47824 0
M  V30 4804 N 468.558 1.5553 0.254621 0
M  V30 4805 C 469.506 1.9048 1.33492 0
M  V30 4806 C 470.5 0.78304 1.50216 0
M  V30 4807 O 471.706 0.967582 1.51782 0
M  V30 4808 H 468.081 0.604846 0.44684 0
M  V30 4809 H 470.052 2.80688 1.01275 0
M  V30 4810 C 468.801 2.20928 2.68489 0
M  V30 4811 H 468.124 3.06742 2.56417 0
M  V30 4812 H 469.564 2.49291 3.42972 0
M  V30 4813 C 468.023 1.023 3.20993 0
M  V30 4814 O 468.553 0.267027 4.00811 0
M  V30 4815 N 466.759 0.815714 2.78917 0
M  V30 4816 H 466.306 1.43217 2.14119 0
M  V30 4817 H 466.264 0.0236532 3.14391 0
M  V30 4818 N 470.036 -0.519951 1.48776 0
M  V30 4819 C 470.999 -1.60574 1.6355 0
M  V30 4820 C 471.999 -1.52557 0.508234 0
M  V30 4821 O 473.189 -1.56047 0.774262 0
M  V30 4822 C 470.321 -3.00211 1.61512 0
M  V30 4823 H 471.514 -1.4881 2.60376 0
M  V30 4824 H 469.067 -0.742772 1.37523 0
M  V30 4825 H 469.802 -3.17471 0.662009 0
M  V30 4826 H 469.587 -3.07439 2.43359 0
M  V30 4827 H 471.077 -3.79134 1.75064 0
M  V30 4828 N 471.514 -1.37532 -0.769588 0
M  V30 4829 C 472.76 -1.33057 -1.53048 0
M  V30 4830 C 473.093 0.0841865 -1.94017 0
M  V30 4831 O 472.368 1.04198 -1.64235 0
M  V30 4832 C 472.651 -2.27166 -2.79406 0
M  V30 4833 C 472.504 -3.77429 -2.44677 0
M  V30 4834 C 473.823 -2.19683 -3.81349 0
M  V30 4835 H 470.942 -0.484655 -0.555228 0
M  V30 4836 H 473.584 -1.68251 -0.882702 0
M  V30 4837 H 471.734 -1.97283 -3.34682 0
M  V30 4838 H 473.406 -4.17918 -1.953 0
M  V30 4839 H 471.649 -3.95892 -1.77346 0
M  V30 4840 H 472.32 -4.38716 -3.35011 0
M  V30 4841 H 474.796 -2.46029 -3.35573 0
M  V30 4842 H 473.672 -2.87668 -4.67481 0
M  V30 4843 H 473.933 -1.19045 -4.25771 0
M  V30 4844 N 472.992 0.995999 -1.22138 0
M  V30 4845 C 474.403 1.54961 -1.04135 0
M  V30 4846 C 474.754 1.92159 0.396147 0
M  V30 4847 O 473.879 1.74435 1.28069 0
M  V30 4848 C 474.474 2.81581 -1.88408 0
M  V30 4849 C 473.033 3.33396 -1.74712 0
M  V30 4850 C 472.18 2.06509 -1.85066 0
M  V30 4851 H 475.131 0.817436 -1.36028 0
M  V30 4852 H 475.152 3.53822 -1.39966 0
M  V30 4853 H 474.664 2.54476 -2.93025 0
M  V30 4854 H 472.765 3.65416 -0.728159 0
M  V30 4855 H 472.878 4.04208 -2.57202 0
M  V30 4856 H 471.242 2.19925 -1.28472 0
M  V30 4857 H 472.025 1.81804 -2.91208 0
M  V30 4858 N 474.47 1.03057 1.19235 0
M  V30 4859 C 475.402 0.570932 2.21975 0
M  V30 4860 C 476.415 -0.354088 1.58903 0
M  V30 4861 O 477.604 -0.150211 1.77867 0
M  V30 4862 C 474.704 -0.187152 3.38383 0
M  V30 4863 C 473.877 0.743231 4.31039 0
M  V30 4864 C 472.936 0.0302493 5.26191 0
M  V30 4865 O 471.962 0.657371 5.65391 0
M  V30 4866 N 473.164 -1.23991 5.67104 0
M  V30 4867 H 475.929 1.45456 2.62036 0
M  V30 4868 H 473.49 0.909807 1.33918 0
M  V30 4869 H 475.482 -0.673715 3.99053 0
M  V30 4870 H 474.052 -0.972205 2.97098 0
M  V30 4871 H 473.272 1.40985 3.68126 0
M  V30 4872 H 474.56 1.3755 4.89854 0
M  V30 4873 H 473.958 -1.77011 5.37293 0
M  V30 4874 H 472.515 -1.67093 6.30018 0
M  V30 4875 N 475.948 -1.35272 0.808662 0
M  V30 4876 C 477.196 -1.98316 0.389233 0
M  V30 4877 C 477.517 -1.64465 -1.04767 0
M  V30 4878 O 476.787 -0.928175 -1.72516 0
M  V30 4879 H 475.367 -0.733585 0.140935 0
M  V30 4880 H 478.029 -1.6515 1.03496 0
M  V30 4881 H 477.125 -3.08123 0.496631 0
M  V30 4882 N 477.426 -0.562348 -1.47226 0
M  V30 4883 C 478.356 0.170627 -2.32876 0
M  V30 4884 C 479.337 0.903748 -1.44106 0
M  V30 4885 O 480.522 0.883206 -1.72954 0
M  V30 4886 C 477.652 1.19786 -3.25989 0
M  V30 4887 C 476.606 0.580875 -4.2404 0
M  V30 4888 C 475.932 1.71311 -5.06514 0
M  V30 4889 C 477.232 -0.468714 -5.20193 0
M  V30 4890 H 478.926 -0.544441 -2.94408 0
M  V30 4891 H 476.472 -0.263271 -1.41573 0
M  V30 4892 H 478.425 1.71884 -3.84752 0
M  V30 4893 H 477.149 1.94294 -2.62521 0
M  V30 4894 H 475.808 0.0811538 -3.6651 0
M  V30 4895 H 475.456 2.44736 -4.39447 0
M  V30 4896 H 475.156 1.30604 -5.72902 0
M  V30 4897 H 476.68 2.23725 -5.68137 0
M  V30 4898 H 478.094 -0.0336028 -5.7329 0
M  V30 4899 H 476.491 -0.794957 -5.94811 0
M  V30 4900 H 477.561 -1.36269 -4.65359 0
M  V30 4901 N 478.904 1.54736 -0.299062 0
M  V30 4902 C 480.315 1.8569 0.193971 0
M  V30 4903 C 480.666 1.22101 1.53577 0
M  V30 4904 O 479.791 0.51799 2.10109 0
M  V30 4905 C 480.386 3.36895 0.358733 0
M  V30 4906 C 478.945 3.67887 0.795986 0
M  V30 4907 C 478.092 2.77131 -0.096807 0
M  V30 4908 H 481.043 1.49934 -0.520134 0
M  V30 4909 H 481.064 3.61294 1.19361 0
M  V30 4910 H 480.576 3.83148 -0.617998 0
M  V30 4911 H 478.677 3.27151 1.78334 0
M  V30 4912 H 478.79 4.75114 0.616718 0
M  V30 4913 H 477.154 2.51153 0.423581 0
M  V30 4914 H 477.937 3.26204 -1.06986 0
M  V30 4915 N 480.382 0.0267497 1.57577 0
M  V30 4916 C 481.628 -0.653371 1.91987 0
M  V30 4917 C 481.961 -1.71915 0.903263 0
M  V30 4918 O 481.236 -1.94358 -0.0743387 0
M  V30 4919 C 481.519 -1.272 3.36886 0
M  V30 4920 C 481.372 -0.215938 4.49281 0
M  V30 4921 C 482.691 -2.19069 3.81703 0
M  V30 4922 H 479.81 -0.236047 0.698177 0
M  V30 4923 H 482.452 0.0835236 1.89816 0
M  V30 4924 H 480.602 -1.90005 3.38866 0
M  V30 4925 H 482.274 0.41449 4.59434 0
M  V30 4926 H 480.517 0.458855 4.31366 0
M  V30 4927 H 481.188 -0.688347 5.47691 0
M  V30 4928 H 483.664 -1.66253 3.81444 0
M  V30 4929 H 482.54 -2.59307 4.83788 0
M  V30 4930 H 482.801 -3.08087 3.17072 0
M  V30 4931 N 481.861 -1.55662 -0.24637 0
M  V30 4932 C 482.808 -1.90361 -1.30504 0
M  V30 4933 C 483.778 -0.757905 -1.47801 0
M  V30 4934 O 484.963 -1.01161 -1.61775 0
M  V30 4935 C 482.103 -2.2042 -2.65535 0
M  V30 4936 C 481.216 -3.47799 -2.56242 0
M  V30 4937 C 480.351 -3.67426 -3.8363 0
M  V30 4938 C 479.39 -4.88403 -3.68956 0
M  V30 4939 N 478.527 -5.04548 -4.88237 0
M  V30 4940 H 483.367 -2.80645 -1.00213 0
M  V30 4941 H 480.904 -1.38924 -0.483577 0
M  V30 4942 H 482.862 -2.35853 -3.44135 0
M  V30 4943 H 481.492 -1.3334 -2.93973 0
M  V30 4944 H 480.544 -3.40694 -1.69208 0
M  V30 4945 H 481.856 -4.36544 -2.4131 0
M  V30 4946 H 481.01 -3.82821 -4.70673 0
M  V30 4947 H 479.749 -2.76914 -4.01459 0
M  V30 4948 H 478.754 -4.72984 -2.80296 0
M  V30 4949 H 479.979 -5.80375 -3.52621 0
M  V30 4950 H 477.925 -4.16974 -5.06427 0
M  V30 4951 H 477.842 -5.87384 -4.75937 0
M  V30 4952 H 479.11 -5.24355 -5.76777 0
M  V30 4953 N 483.339 0.512053 -1.4905 0
M  V30 4954 C 484.302 1.59704 -1.64399 0
M  V30 4955 C 485.302 1.52285 -0.516317 0
M  V30 4956 O 486.492 1.55635 -0.782527 0
M  V30 4957 C 483.624 2.9935 -1.63102 0
M  V30 4958 H 484.817 1.47428 -2.61161 0
M  V30 4959 H 482.37 0.735469 -1.37915 0
M  V30 4960 H 483.105 3.17116 -0.678836 0
M  V30 4961 H 482.89 3.06144 -2.44986 0
M  V30 4962 H 484.38 3.782 -1.77072 0
M  V30 4963 N 484.817 1.37938 0.762283 0
M  V30 4964 C 486.045 1.36883 1.55147 0
M  V30 4965 C 486.46 -0.0435348 1.8875 0
M  V30 4966 O 485.817 -1.00786 1.52146 0
M  V30 4967 C 485.868 2.21624 2.85596 0
M  V30 4968 O 485.589 3.57358 2.5343 0
M  V30 4969 C 487.09 2.28653 3.7978 0
M  V30 4970 H 484.31 0.468521 0.480343 0
M  V30 4971 H 486.854 1.81404 0.944079 0
M  V30 4972 H 485.009 1.80588 3.42734 0
M  V30 4973 H 485.423 4.01883 3.37032 0
M  V30 4974 H 486.897 2.9225 4.68288 0
M  V30 4975 H 487.374 1.29767 4.19592 0
M  V30 4976 H 487.98 2.70043 3.28568 0
M  V30 4977 N 486.295 -0.989507 1.22664 0
M  V30 4978 C 487.706 -1.54406 1.04955 0
M  V30 4979 C 488.057 -1.92366 -0.385951 0
M  V30 4980 O 487.182 -1.75111 -1.27142 0
M  V30 4981 C 487.777 -2.80578 1.89899 0
M  V30 4982 C 486.336 -3.32464 1.76478 0
M  V30 4983 C 485.483 -2.05524 1.86159 0
M  V30 4984 H 488.434 -0.810211 1.3646 0
M  V30 4985 H 488.455 -3.53075 1.4184 0
M  V30 4986 H 487.967 -2.52918 2.94371 0
M  V30 4987 H 486.068 -3.65024 0.747528 0
M  V30 4988 H 486.181 -4.02838 2.59342 0
M  V30 4989 H 484.545 -2.19241 1.29636 0
M  V30 4990 H 485.328 -1.80258 2.92168 0
M  V30 4991 N 487.773 -1.03688 -1.18687 0
M  V30 4992 C 489.021 -0.736572 -1.88199 0
M  V30 4993 C 489.342 0.737665 -1.80509 0
M  V30 4994 O 488.612 1.53204 -1.22088 0
M  V30 4995 H 487.192 -0.269466 -0.696704 0
M  V30 4996 H 489.854 -1.31282 -1.44052 0
M  V30 4997 H 488.95 -1.03802 -2.94332 0
M  V30 4998 N 489.251 1.34841 -0.815825 0
M  V30 4999 C 490.476 2.03261 -0.41226 0
M  V30 5000 C 490.901 1.61055 0.971751 0
M  V30 5001 O 490.259 0.7917 1.63101 0
M  V30 5002 C 490.307 3.56914 -0.514289 0
M  V30 5003 O 489.411 4.09728 0.468675 0
M  V30 5004 H 488.752 0.641664 -0.170771 0
M  V30 5005 H 491.282 1.72241 -1.10427 0
M  V30 5006 H 491.292 4.06156 -0.387457 0
M  V30 5007 H 489.967 3.86982 -1.52375 0
M  V30 5008 H 488.544 3.71681 0.301316 0
M  V30 5009 N 490.729 0.570148 1.46925 0
M  V30 5010 C 491.959 0.0561151 2.06524 0
M  V30 5011 C 492.367 -1.24874 1.42137 0
M  V30 5012 O 491.71 -1.76292 0.516417 0
M  V30 5013 C 491.772 -0.197035 3.5896 0
M  V30 5014 C 491.436 1.02033 4.45464 0
M  V30 5015 C 492.433 1.92921 4.82781 0
M  V30 5016 C 490.118 1.23864 4.86788 0
M  V30 5017 C 492.112 3.03999 5.60235 0
M  V30 5018 C 489.799 2.35249 5.64004 0
M  V30 5019 C 490.797 3.25146 6.0064 0
M  V30 5020 O 490.485 4.34598 6.76299 0
M  V30 5021 H 490.217 0.0487409 0.674241 0
M  V30 5022 H 492.771 0.786915 1.89728 0
M  V30 5023 H 491.001 -0.982299 3.74016 0
M  V30 5024 H 492.69 -0.658032 4.00531 0
M  V30 5025 H 493.456 1.77265 4.51444 0
M  V30 5026 H 489.335 0.54805 4.57731 0
M  V30 5027 H 492.879 3.74192 5.8875 0
M  V30 5028 H 488.776 2.50873 5.94755 0
M  V30 5029 H 489.544 4.32808 6.94708 0
M  V30 5030 N 492.207 -1.54576 0.307264 0
M  V30 5031 C 493.139 -2.21212 -0.599807 0
M  V30 5032 C 494.152 -1.20685 -1.09266 0
M  V30 5033 O 495.341 -1.47244 -1.00903 0
M  V30 5034 C 492.441 -2.84994 -1.83389 0
M  V30 5035 C 491.614 -4.11511 -1.48248 0
M  V30 5036 C 490.673 -4.59038 -2.57237 0
M  V30 5037 O 489.699 -5.24095 -2.22065 0
M  V30 5038 N 490.901 -4.31884 -3.87887 0
M  V30 5039 H 493.666 -2.99686 -0.0293075 0
M  V30 5040 H 491.227 -1.61379 0.129738 0
M  V30 5041 H 493.219 -3.1372 -2.5566 0
M  V30 5042 H 491.789 -2.10324 -2.31263 0
M  V30 5043 H 491.009 -3.89728 -0.592122 0
M  V30 5044 H 492.297 -4.93879 -1.22316 0
M  V30 5045 H 491.695 -3.79778 -4.19268 0
M  V30 5046 H 490.252 -4.65304 -4.56438 0
M  V30 5047 N 493.685 -0.035106 -1.57561 0
M  V30 5048 C 494.932 0.642229 -1.92046 0
M  V30 5049 C 495.26 1.7179 -0.91206 0
M  V30 5050 O 494.515 1.95544 0.0781153 0
M  V30 5051 C 494.814 1.29149 -3.3325 0
M  V30 5052 C 494.48 0.345604 -4.49574 0
M  V30 5053 C 493.142 0.0852775 -4.81124 0
M  V30 5054 C 495.494 -0.303569 -5.20315 0
M  V30 5055 C 492.822 -0.831927 -5.80772 0
M  V30 5056 C 495.174 -1.20886 -6.20942 0
M  V30 5057 C 493.838 -1.47802 -6.50931 0
M  V30 5058 H 493.108 0.235008 -0.702746 0
M  V30 5059 H 495.755 -0.0981529 -1.91248 0
M  V30 5060 H 494.06 2.10676 -3.30337 0
M  V30 5061 H 495.757 1.82223 -3.57205 0
M  V30 5062 H 492.347 0.558683 -4.24943 0
M  V30 5063 H 496.531 -0.115515 -4.96166 0
M  V30 5064 H 491.787 -1.0481 -6.02349 0
M  V30 5065 H 495.961 -1.71804 -6.74875 0
M  V30 5066 H 493.588 -2.19039 -7.2796 0
M  V30 5067 N 495.163 1.55791 0.238111 0
M  V30 5068 C 496.093 1.94068 1.29846 0
M  V30 5069 C 497.074 0.806726 1.49753 0
M  V30 5070 O 498.259 1.06772 1.62214 0
M  V30 5071 C 495.389 2.24302 2.65153 0
M  V30 5072 C 494.343 3.40032 2.59927 0
M  V30 5073 C 493.669 3.55829 3.99111 0
M  V30 5074 C 494.969 4.75476 2.16148 0
M  V30 5075 H 496.663 2.82887 0.980563 0
M  V30 5076 H 494.209 1.36105 0.470253 0
M  V30 5077 H 496.162 2.4967 3.39475 0
M  V30 5078 H 494.886 1.32318 2.98596 0
M  V30 5079 H 493.545 3.14687 1.88063 0
M  V30 5080 H 493.193 2.6125 4.29834 0
M  V30 5081 H 492.893 4.3366 3.96501 0
M  V30 5082 H 494.417 3.83528 4.7512 0
M  V30 5083 H 495.831 5.00158 2.80205 0
M  V30 5084 H 494.228 5.56472 2.24631 0
M  V30 5085 H 495.298 4.71946 1.11333 0
M  V30 5086 N 496.642 -0.504142 1.49319 0
M  V30 5087 C 497.87 -1.28256 1.62351 0
M  V30 5088 C 498.285 -1.86502 0.293682 0
M  V30 5089 O 497.642 -1.67678 -0.720449 0
M  V30 5090 C 497.693 -2.41507 2.68992 0
M  V30 5091 O 497.414 -1.85656 3.96817 0
M  V30 5092 C 498.915 -3.32929 2.927 0
M  V30 5093 H 496.135 -0.389115 0.546654 0
M  V30 5094 H 498.679 -0.605531 1.95329 0
M  V30 5095 H 496.834 -3.05046 2.38801 0
M  V30 5096 H 497.248 -2.59981 4.55533 0
M  V30 5097 H 498.722 -4.0868 3.71058 0
M  V30 5098 H 499.199 -3.89733 2.02496 0
M  V30 5099 H 499.805 -2.75158 3.24296 0
M  V30 5100 N 498.12 -1.38341 -0.754957 0
M  V30 5101 C 499.348 -1.37704 -1.54419 0
M  V30 5102 C 499.763 0.0335243 -1.8877 0
M  V30 5103 O 499.12 0.999773 -1.52679 0
M  V30 5104 C 499.171 -2.23136 -2.84416 0
M  V30 5105 O 498.892 -3.58697 -2.51531 0
M  V30 5106 C 500.393 -2.30664 -3.78562 0
M  V30 5107 H 497.613 -0.471061 -0.477852 0
M  V30 5108 H 500.157 -1.81902 -0.934446 0
M  V30 5109 H 498.312 -1.82403 -3.41772 0
M  V30 5110 H 498.726 -4.03665 -3.34896 0
M  V30 5111 H 500.2 -2.9473 -4.66732 0
M  V30 5112 H 500.677 -1.3199 -4.18898 0
M  V30 5113 H 501.283 -2.71781 -3.27131 0
M  V30 5114 N 499.598 0.982988 -1.23187 0
M  V30 5115 C 500.823 1.76455 -1.08988 0
M  V30 5116 C 501.248 1.84726 0.354691 0
M  V30 5117 O 500.606 1.30699 1.25649 0
M  V30 5118 C 500.654 3.17094 -1.71708 0
M  V30 5119 O 499.758 4.00648 -0.977477 0
M  V30 5120 H 499.099 0.542988 -0.382177 0
M  V30 5121 H 501.629 1.23413 -1.63188 0
M  V30 5122 H 501.639 3.67684 -1.76841 0
M  V30 5123 H 500.314 3.10389 -2.76823 0
M  V30 5124 H 498.891 3.59161 -1.0029 0
M  V30 5125 N 501.076 1.04316 1.18135 0
M  V30 5126 C 502.353 0.662166 1.84051 0
M  V30 5127 C 502.733 -0.858169 1.9287 0
M  V30 5128 O 502.081 -1.76062 1.45652 0
M  V30 5129 C 502.291 1.3409 3.22212 0
M  V30 5130 C 503.639 1.4733 3.9822 0
M  V30 5131 O 504.663 1.29921 3.31661 0
M  V30 5132 O 503.522 1.75722 5.17479 0
M  V30 5133 H 500.616 0.232005 0.79379 0
M  V30 5134 H 503.162 1.1422 1.25506 0
M  V30 5135 H 501.934 2.37853 3.10711 0
M  V30 5136 H 501.557 0.849649 3.88416 0
M  V30 5137 N 502.554 -1.34406 0.822964 0
M  V30 5138 C 503.831 -1.92733 0.333641 0
M  V30 5139 C 504.211 -1.75107 -1.17901 0
M  V30 5140 O 503.559 -1.12983 -1.98613 0
M  V30 5141 C 503.769 -3.40557 0.763023 0
M  V30 5142 C 505.117 -4.17709 0.761879 0
M  V30 5143 O 506.141 -3.49141 0.705606 0
M  V30 5144 O 505 -5.40082 0.835109 0
M  V30 5145 H 502.094 -0.821964 0.0911249 0
M  V30 5146 H 504.64 -1.4338 0.907757 0
M  V30 5147 H 503.412 -3.47187 1.8049 0
M  V30 5148 H 503.035 -3.97259 0.164605 0
M  V30 5149 N 504.032 -0.577932 -1.46621 0
M  V30 5150 C 505.272 -0.0643097 -2.04299 0
M  V30 5151 C 505.636 1.26967 -1.44026 0
M  V30 5152 O 506.837 1.87224 -1.92875 0
M  V30 5153 C 505.108 0.00547588 -3.574 0
M  V30 5154 S 506.667 0.462216 -4.36359 0
M  V30 5155 H 503.485 -0.0351573 -0.71013 0
M  V30 5156 H 506.087 -0.76935 -1.79725 0
M  V30 5157 H 504.791 -0.969423 -3.98786 0
M  V30 5158 H 504.322 0.733435 -3.86503 0
M  V30 5159 H 506.337 1.71791 -4.65513 0
M  V30 5160 N 505.51 1.54411 -0.315457 0
M  V30 5161 C 506.735 2.05299 0.294496 0
M  V30 5162 C 507.16 1.19052 1.4563 0
M  V30 5163 O 506.518 0.197804 1.80218 0
M  V30 5164 C 506.566 3.5345 0.714549 0
M  V30 5165 O 505.67 3.70175 1.81781 0
M  V30 5166 H 505.011 0.661743 0.0547019 0
M  V30 5167 H 507.541 1.99327 -0.461508 0
M  V30 5168 H 507.551 3.9557 0.999426 0
M  V30 5169 H 506.226 4.1568 -0.135244 0
M  V30 5170 H 504.803 3.3996 1.53236 0
M  V30 5171 N 506.988 0.0434614 1.5754 0
M  V30 5172 C 507.898 -0.94893 2.14552 0
M  V30 5173 C 508.914 -1.34707 1.10136 0
M  V30 5174 O 510.09 -1.42557 1.42266 0
M  V30 5175 C 507.155 -2.208 2.67298 0
M  V30 5176 C 506.216 -1.86893 3.86484 0
M  V30 5177 C 505.449 -3.06797 4.36705 0
M  V30 5178 O 505.672 -4.19921 3.86034 0
M  V30 5179 O 504.606 -2.8826 5.28384 0
M  V30 5180 H 508.432 -0.494099 2.99654 0
M  V30 5181 H 506.017 -0.177989 1.48336 0
M  V30 5182 H 507.899 -2.94686 3.01228 0
M  V30 5183 H 506.574 -2.65436 1.85272 0
M  V30 5184 H 505.481 -1.10347 3.57455 0
M  V30 5185 H 506.814 -1.47062 4.69716 0
M  V30 5186 N 508.466 -1.55915 -0.229846 0
M  V30 5187 C 509.714 -1.7819 -0.953565 0
M  V30 5188 C 510.035 -0.610504 -1.85197 0
M  V30 5189 O 509.305 0.372988 -1.92316 0
M  V30 5190 H 507.885 -0.657208 -0.355087 0
M  V30 5191 H 510.547 -1.9337 -0.243693 0
M  V30 5192 H 509.643 -2.70011 -1.56527 0
M  V30 5193 N 509.944 0.496216 -1.49584 0
M  V30 5194 C 510.874 1.60576 -1.69521 0
M  V30 5195 C 511.855 1.61169 -0.543933 0
M  V30 5196 O 513.04 1.77834 -0.78031 0
M  V30 5197 C 510.17 2.99038 -1.76616 0
M  V30 5198 C 509.124 3.13312 -2.91581 0
M  V30 5199 C 508.45 4.53172 -2.83794 0
M  V30 5200 C 509.75 2.92886 -4.32452 0
M  V30 5201 H 511.444 1.44146 -2.62416 0
M  V30 5202 H 508.99 0.692024 -1.26282 0
M  V30 5203 H 510.943 3.76564 -1.8915 0
M  V30 5204 H 509.667 3.16568 -0.80324 0
M  V30 5205 H 508.326 2.38213 -2.78658 0
M  V30 5206 H 507.974 4.67585 -1.854 0
M  V30 5207 H 507.674 4.63662 -3.60958 0
M  V30 5208 H 509.198 5.32752 -2.98342 0
M  V30 5209 H 510.612 3.60178 -4.46032 0
M  V30 5210 H 509.009 3.14844 -5.10875 0
M  V30 5211 H 510.079 1.88966 -4.46565 0
M  V30 5212 N 511.423 1.38739 0.74761 0
M  V30 5213 C 512.353 1.39173 1.87492 0
M  V30 5214 C 513.334 0.256794 1.6815 0
M  V30 5215 O 514.519 0.460762 1.88655 0
M  V30 5216 C 511.649 1.22197 3.25093 0
M  V30 5217 C 510.603 2.32957 3.59047 0
M  V30 5218 C 509.929 2.01082 4.95449 0
M  V30 5219 C 511.229 3.75237 3.6331 0
M  V30 5220 H 512.923 2.3351 1.87386 0
M  V30 5221 H 510.469 1.12399 0.900134 0
M  V30 5222 H 512.422 1.21124 4.03617 0
M  V30 5223 H 511.146 0.243241 3.25693 0
M  V30 5224 H 509.805 2.33226 2.82845 0
M  V30 5225 H 509.453 1.01678 4.92616 0
M  V30 5226 H 509.153 2.75267 5.19136 0
M  V30 5227 H 510.677 2.01638 5.76346 0
M  V30 5228 H 512.091 3.76966 4.31937 0
M  V30 5229 H 510.488 4.48677 3.98509 0
M  V30 5230 H 511.558 4.07122 2.634 0
M  V30 5231 N 512.901 -0.976442 1.23707 0
M  V30 5232 C 514.312 -1.53284 1.06587 0
M  V30 5233 C 514.663 -1.92765 -0.365526 0
M  V30 5234 O 513.788 -1.7645 -1.25277 0
M  V30 5235 C 514.383 -2.78548 1.92864 0
M  V30 5236 C 512.942 -3.30574 1.79994 0
M  V30 5237 C 512.089 -2.03538 1.88328 0
M  V30 5238 H 515.04 -0.795692 1.37311 0
M  V30 5239 H 515.061 -3.5155 1.45577 0
M  V30 5240 H 514.573 -2.49782 2.97037 0
M  V30 5241 H 512.674 -3.64211 0.786202 0
M  V30 5242 H 512.787 -4.00065 2.636 0
M  V30 5243 H 511.151 -2.17853 1.31954 0
M  V30 5244 H 511.934 -1.77149 2.94063 0
M  V30 5245 N 514.379 -1.04941 -1.1758 0
M  V30 5246 C 515.327 -0.64204 -2.23563 0
M  V30 5247 C 516.321 0.335453 -1.66045 0
M  V30 5248 O 517.527 0.20179 -1.78865 0
M  V30 5249 H 513.902 -0.18944 -0.727748 0
M  V30 5250 H 515.873 -1.54609 -2.55223 0
M  V30 5251 C 514.622 -0.0301051 -3.47687 0
M  V30 5252 H 513.945 -0.773339 -3.92249 0
M  V30 5253 H 515.385 0.217592 -4.23441 0
M  V30 5254 C 513.844 1.2225 -3.13937 0
M  V30 5255 O 514.374 2.3122 -3.28482 0
M  V30 5256 N 512.58 1.11917 -2.68185 0
M  V30 5257 H 512.127 0.232403 -2.5655 0
M  V30 5258 H 512.085 1.95814 -2.45976 0
M  V30 5259 N 515.857 1.33968 -0.830081 0
M  V30 5260 C 517.104 1.98063 -0.421566 0
M  V30 5261 C 517.432 1.65787 1.0171 0
M  V30 5262 O 516.687 0.925348 1.72441 0
M  V30 5263 C 516.986 3.52679 -0.57898 0
M  V30 5264 C 516.652 4.04884 -1.98443 0
M  V30 5265 C 515.314 4.18852 -2.36888 0
M  V30 5266 C 517.666 4.32879 -2.90285 0
M  V30 5267 C 514.994 4.58145 -3.66497 0
M  V30 5268 C 517.346 4.7362 -4.19364 0
M  V30 5269 C 516.01 4.85794 -4.57778 0
M  V30 5270 H 515.28 0.724765 -0.154262 0
M  V30 5271 H 517.927 1.59792 -1.05541 0
M  V30 5272 H 516.232 3.91556 0.138219 0
M  V30 5273 H 517.929 4.00261 -0.243317 0
M  V30 5274 H 514.519 3.9448 -1.67581 0
M  V30 5275 H 518.703 4.21619 -2.61823 0
M  V30 5276 H 513.959 4.65762 -3.96075 0
M  V30 5277 H 518.133 4.9424 -4.90612 0
M  V30 5278 H 515.76 5.15998 -5.58256 0
M  V30 5279 N 517.335 0.585699 1.46312 0
M  V30 5280 C 518.285 -0.166813 2.27389 0
M  V30 5281 C 519.269 -0.859076 1.36047 0
M  V30 5282 O 520.461 -0.752678 1.60199 0
M  V30 5283 C 517.59 -1.17791 3.2246 0
M  V30 5284 C 516.676 -0.487605 4.21288 0
M  V30 5285 N 517.067 0.45849 5.03718 0
M  V30 5286 C 515.365 -0.737971 4.39852 0
M  V30 5287 C 516.066 0.862213 5.75275 0
M  V30 5288 N 515.042 0.210707 5.43191 0
M  V30 5289 H 518.844 0.560167 2.88512 0
M  V30 5290 H 516.358 0.407715 1.57199 0
M  V30 5291 H 518.355 -1.73122 3.79255 0
M  V30 5292 H 517.015 -1.90568 2.62896 0
M  V30 5293 H 518.026 0.834163 5.11138 0
M  V30 5294 H 514.703 -1.45209 3.91434 0
M  V30 5295 H 516.093 1.64128 6.51546 0
M  V30 5296 N 518.813 -1.54241 0.323641 0
M  V30 5297 C 520.038 -2.05452 -0.283605 0
M  V30 5298 C 520.463 -1.19823 -1.44997 0
M  V30 5299 O 519.821 -0.207358 -1.8011 0
M  V30 5300 C 519.869 -3.53823 -0.695795 0
M  V30 5301 O 518.973 -3.71134 -1.79815 0
M  V30 5302 H 518.314 -0.662024 -0.0511917 0
M  V30 5303 H 520.844 -1.99079 0.472073 0
M  V30 5304 H 520.854 -3.96094 -0.978434 0
M  V30 5305 H 519.529 -4.15602 0.157287 0
M  V30 5306 H 518.106 -3.40768 -1.51431 0
M  V30 5307 N 520.291 -0.0518155 -1.57515 0
M  V30 5308 C 521.519 0.631395 -1.9703 0
M  V30 5309 C 521.934 1.64341 -0.92938 0
M  V30 5310 O 521.291 1.82296 0.0863266 0
M  V30 5311 C 521.342 1.31774 -3.36627 0
M  V30 5312 O 521.063 0.346247 -4.3673 0
M  V30 5313 C 522.564 2.09065 -3.90905 0
M  V30 5314 H 519.784 0.172576 -0.648428 0
M  V30 5315 H 522.328 -0.118306 -2.04158 0
M  V30 5316 H 520.483 2.01867 -3.30649 0
M  V30 5317 H 520.897 0.836226 -5.17791 0
M  V30 5318 H 522.371 2.52508 -4.9086 0
M  V30 5319 H 522.848 2.93908 -3.26366 0
M  V30 5320 H 523.454 1.43882 -4.00223 0
M  V30 5321 N 521.769 1.56035 0.221574 0
M  V30 5322 C 523.18 1.69229 0.788567 0
M  V30 5323 C 523.531 0.653814 1.84986 0
M  V30 5324 O 522.656 -0.195065 2.15519 0
M  V30 5325 C 523.251 3.06809 1.43713 0
M  V30 5326 C 521.81 3.21858 1.95152 0
M  V30 5327 C 520.957 2.65155 0.811685 0
M  V30 5328 H 523.908 1.587 -0.00307894 0
M  V30 5329 H 523.929 3.02666 2.30594 0
M  V30 5330 H 523.441 3.82369 0.664475 0
M  V30 5331 H 521.542 2.51167 2.7522 0
M  V30 5332 H 521.655 4.29073 2.1315 0
M  V30 5333 H 520.019 2.23635 1.21899 0
M  V30 5334 H 520.802 3.43261 0.0516987 0
M  V30 5335 N 523.247 -0.488276 1.49845 0
M  V30 5336 C 524.157 -1.61451 1.70207 0
M  V30 5337 C 525.173 -1.63877 0.584846 0
M  V30 5338 O 526.349 -1.82063 0.861107 0
M  V30 5339 C 523.414 -2.9776 1.77594 0
M  V30 5340 C 522.475 -3.05861 3.01243 0
M  V30 5341 C 521.708 -4.35668 3.08268 0
M  V30 5342 O 521.931 -5.25197 2.22541 0
M  V30 5343 O 520.865 -4.49005 4.00847 0
M  V30 5344 H 524.691 -1.47199 2.65643 0
M  V30 5345 H 522.276 -0.665939 1.33737 0
M  V30 5346 H 524.158 -3.7875 1.84732 0
M  V30 5347 H 522.833 -3.12248 0.8534 0
M  V30 5348 H 521.74 -2.24012 2.99616 0
M  V30 5349 H 523.073 -2.96304 3.9302 0
M  V30 5350 N 524.725 -1.39134 -0.740242 0
M  V30 5351 C 525.974 -1.35384 -1.49512 0
M  V30 5352 C 526.287 0.04919 -1.95538 0
M  V30 5353 O 527.493 0.209257 -2.70692 0
M  V30 5354 C 525.949 -2.37812 -2.70136 0
M  V30 5355 C 525.557 -3.83804 -2.31081 0
M  V30 5356 C 527.301 -2.4313 -3.47977 0
M  V30 5357 C 525.208 -4.77886 -3.48395 0
M  V30 5358 H 524.138 -0.503297 -0.561434 0
M  V30 5359 H 526.789 -1.64754 -0.807974 0
M  V30 5360 H 525.171 -2.01505 -3.40899 0
M  V30 5361 H 526.345 -4.29123 -1.67898 0
M  V30 5362 H 524.66 -3.81732 -1.66343 0
M  V30 5363 H 527.257 -3.10614 -4.35228 0
M  V30 5364 H 527.6 -1.45423 -3.90074 0
M  V30 5365 H 528.133 -2.78304 -2.84239 0
M  V30 5366 H 524.872 -5.76836 -3.11353 0
M  V30 5367 H 524.392 -4.3725 -4.10576 0
M  V30 5368 H 526.071 -4.96538 -4.148 0
M  V30 5369 N 526.204 0.969867 -1.24223 0
M  V30 5370 C 527.451 1.71256 -1.08063 0
M  V30 5371 C 527.779 1.90734 0.380872 0
M  V30 5372 O 527.034 1.46469 1.29789 0
M  V30 5373 C 527.333 3.10883 -1.76314 0
M  V30 5374 C 526.999 3.11252 -3.26241 0
M  V30 5375 C 525.661 3.1106 -3.67144 0
M  V30 5376 C 528.013 3.05751 -4.22097 0
M  V30 5377 C 525.341 3.03097 -5.02344 0
M  V30 5378 C 527.693 2.9933 -5.57301 0
M  V30 5379 C 526.357 2.97466 -5.97554 0
M  V30 5380 H 525.627 0.62667 -0.395431 0
M  V30 5381 H 528.274 1.13422 -1.54297 0
M  V30 5382 H 526.579 3.72168 -1.22468 0
M  V30 5383 H 528.276 3.67138 -1.61277 0
M  V30 5384 H 524.866 3.12165 -2.93685 0
M  V30 5385 H 529.05 3.05031 -3.91497 0
M  V30 5386 H 524.306 3.00013 -5.32731 0
M  V30 5387 H 528.48 2.94033 -6.31283 0
M  V30 5388 H 526.107 2.91051 -7.02277 0
M  V30 5389 N 527.682 1.05563 1.17022 0
M  V30 5390 C 528.931 0.763036 1.8671 0
M  V30 5391 C 529.244 -0.712857 1.82147 0
M  V30 5392 O 530.45 -1.11955 2.47343 0
M  V30 5393 C 528.906 1.31474 3.35026 0
M  V30 5394 C 528.514 2.82034 3.48081 0
M  V30 5395 C 530.258 1.09935 4.10018 0
M  V30 5396 C 528.165 3.30486 4.90442 0
M  V30 5397 H 527.095 0.281747 0.699382 0
M  V30 5398 H 529.746 1.2734 1.32124 0
M  V30 5399 H 528.128 0.732171 3.89173 0
M  V30 5400 H 529.302 3.46178 3.04133 0
M  V30 5401 H 527.617 3.02156 2.86515 0
M  V30 5402 H 530.214 1.43632 5.15048 0
M  V30 5403 H 530.557 0.0373072 4.16283 0
M  V30 5404 H 531.09 1.64732 3.62089 0
M  V30 5405 H 527.829 4.36137 4.89352 0
M  V30 5406 H 527.349 2.71086 5.35044 0
M  V30 5407 H 529.028 3.25382 5.59227 0
M  V30 5408 N 529.16 -1.33526 0.837174 0
M  V30 5409 C 530.571 -1.80182 0.489017 0
M  V30 5410 C 530.922 -1.69285 -0.991826 0
M  V30 5411 O 530.047 -1.24113 -1.77271 0
M  V30 5412 C 530.642 -3.27149 0.880866 0
M  V30 5413 C 529.201 -3.71828 0.584872 0
M  V30 5414 C 528.348 -2.54974 1.09011 0
M  V30 5415 H 531.299 -1.21071 1.02603 0
M  V30 5416 H 531.32 -3.80024 0.190239 0
M  V30 5417 H 530.832 -3.35048 1.95869 0
M  V30 5418 H 528.933 -3.69457 -0.48295 0
M  V30 5419 H 529.046 -4.65366 1.13892 0
M  V30 5420 H 527.41 -2.4952 0.511047 0
M  V30 5421 H 528.193 -2.65637 2.17467 0
M  V30 5422 N 530.638 -0.59345 -1.46 0
M  V30 5423 C 531.886 -0.082988 -2.0193 0
M  V30 5424 C 532.207 1.28569 -1.46612 0
M  V30 5425 O 531.477 1.84629 -0.654909 0
M  V30 5426 H 530.057 -0.0276882 -0.746487 0
M  V30 5427 H 532.719 -0.771657 -1.78973 0
M  V30 5428 H 531.815 -0.022079 -3.12092 0
M  V30 5429 N 532.116 1.54067 -0.331816 0
M  V30 5430 C 533.048 2.22139 0.564538 0
M  V30 5431 C 534.061 1.22408 1.07332 0
M  V30 5432 O 535.25 1.4883 0.985481 0
M  V30 5433 C 532.35 2.87876 1.78831 0
M  V30 5434 C 531.523 4.13817 1.41682 0
M  V30 5435 C 530.582 4.63072 2.49901 0
M  V30 5436 O 529.608 5.27562 2.13699 0
M  V30 5437 N 530.81 4.38001 3.80967 0
M  V30 5438 H 533.575 2.99694 -0.0183736 0
M  V30 5439 H 531.136 1.61153 -0.155396 0
M  V30 5440 H 533.128 3.17747 2.50637 0
M  V30 5441 H 531.698 2.13977 2.27887 0
M  V30 5442 H 530.918 3.9062 0.530044 0
M  V30 5443 H 532.206 4.95762 1.14443 0
M  V30 5444 H 531.604 3.864 4.13173 0
M  V30 5445 H 530.161 4.72507 4.48977 0
M  V30 5446 N 533.594 0.0601682 1.57485 0
M  V30 5447 C 534.84 -0.612501 1.93329 0
M  V30 5448 C 535.173 -1.6996 0.939526 0
M  V30 5449 O 534.448 -1.94472 -0.0330957 0
M  V30 5450 C 534.731 -1.20025 3.39508 0
M  V30 5451 C 534.584 -0.12059 4.49638 0
M  V30 5452 C 535.903 -2.10923 3.86264 0
M  V30 5453 H 533.022 -0.221185 0.703027 0
M  V30 5454 H 535.664 0.123768 1.89596 0
M  V30 5455 H 533.814 -1.82774 3.42821 0
M  V30 5456 H 535.486 0.51185 4.58452 0
M  V30 5457 H 533.729 0.550251 4.30296 0
M  V30 5458 H 534.4 -0.572019 5.49028 0
M  V30 5459 H 536.876 -1.58124 3.84884 0
M  V30 5460 H 535.752 -2.48987 4.8918 0
M  V30 5461 H 536.013 -3.01292 3.23536 0
M  V30 5462 N 535.072 -1.5615 -0.213296 0
M  V30 5463 C 536.02 -1.93953 -1.28394 0
M  V30 5464 C 537.014 -0.822592 -1.48087 0
M  V30 5465 O 538.22 -1.00748 -1.49164 0
M  V30 5466 H 534.595 -0.61648 -0.430646 0
M  V30 5467 H 536.566 -2.83275 -0.937977 0
M  V30 5468 C 535.315 -2.27969 -2.62537 0
M  V30 5469 H 534.638 -3.13432 -2.48194 0
M  V30 5470 H 536.078 -2.58297 -3.36242 0
M  V30 5471 C 534.537 -1.10775 -3.18167 0
M  V30 5472 O 535.067 -0.373201 -3.99963 0
M  V30 5473 N 533.273 -0.889377 -2.76656 0
M  V30 5474 H 532.82 -1.48843 -2.10246 0
M  V30 5475 H 532.778 -0.107 -3.14218 0
M  V30 5476 N 536.55 0.480323 -1.50102 0
M  V30 5477 C 537.498 1.60024 -1.68805 0
M  V30 5478 C 538.492 1.60089 -0.553888 0
M  V30 5479 O 539.698 1.64349 -0.734127 0
M  V30 5480 H 536.073 0.530841 -0.532646 0
M  V30 5481 H 538.044 1.41408 -2.62767 0
M  V30 5482 C 536.793 2.98029 -1.79092 0
M  V30 5483 H 536.116 2.98694 -2.65748 0
M  V30 5484 H 537.556 3.75871 -1.96206 0
M  V30 5485 C 536.015 3.32538 -0.540388 0
M  V30 5486 O 536.545 4.00386 0.324637 0
M  V30 5487 N 534.751 2.87873 -0.397154 0
M  V30 5488 H 534.298 2.32834 -1.1021 0
M  V30 5489 H 534.256 3.11328 0.438425 0
M  V30 5490 N 538.028 1.39524 0.732853 0
M  V30 5491 C 538.958 1.41153 1.86005 0
M  V30 5492 C 539.939 0.274614 1.67869 0
M  V30 5493 O 541.124 0.480745 1.88155 0
M  V30 5494 C 538.254 1.25638 3.23778 0
M  V30 5495 C 537.208 2.36752 3.56556 0
M  V30 5496 C 536.534 2.06326 4.93289 0
M  V30 5497 C 537.834 3.79069 3.5931 0
M  V30 5498 H 539.528 2.35484 1.84899 0
M  V30 5499 H 537.074 1.13348 0.888162 0
M  V30 5500 H 539.027 1.25398 4.0231 0
M  V30 5501 H 537.751 0.277772 3.25417 0
M  V30 5502 H 536.41 2.36213 2.80355 0
M  V30 5503 H 536.058 1.06897 4.9151 0
M  V30 5504 H 535.758 2.80757 5.16187 0
M  V30 5505 H 537.282 2.07739 5.74175 0
M  V30 5506 H 538.696 3.81526 4.27914 0
M  V30 5507 H 537.093 4.52878 3.93728 0
M  V30 5508 H 538.163 4.09893 2.59068 0
M  V30 5509 N 539.506 -0.963266 1.24736 0
M  V30 5510 C 540.436 -2.07628 1.06832 0
M  V30 5511 C 541.417 -1.70088 -0.0200566 0
M  V30 5512 O 542.602 -1.93636 0.147854 0
M  V30 5513 C 539.732 -3.40636 0.677069 0
M  V30 5514 C 538.686 -3.9215 1.71471 0
M  V30 5515 C 538.012 -5.21553 1.1784 0
M  V30 5516 C 539.312 -4.19493 3.11164 0
M  V30 5517 H 541.006 -2.22864 1.9993 0
M  V30 5518 H 538.552 -1.07093 0.96266 0
M  V30 5519 H 540.505 -4.17941 0.538792 0
M  V30 5520 H 539.229 -3.25313 -0.289612 0
M  V30 5521 H 537.888 -3.17005 1.84128 0
M  V30 5522 H 537.536 -5.02593 0.202195 0
M  V30 5523 H 537.236 -5.56988 1.87185 0
M  V30 5524 H 538.76 -6.01463 1.05233 0
M  V30 5525 H 540.174 -4.87487 3.01711 0
M  V30 5526 H 538.571 -4.66165 3.77902 0
M  V30 5527 H 539.641 -3.26097 3.58871 0
M  V30 5528 N 540.985 -1.06182 -1.16461 0
M  V30 5529 C 541.895 -0.682671 -2.24448 0
M  V30 5530 C 542.911 0.30078 -1.71381 0
M  V30 5531 O 544.087 0.150376 -2.00838 0
M  V30 5532 C 541.152 -0.0737202 -3.46622 0
M  V30 5533 C 540.213 -1.10889 -4.14731 0
M  V30 5534 C 539.446 -0.528908 -5.31073 0
M  V30 5535 O 539.669 0.65868 -5.66584 0
M  V30 5536 O 538.603 -1.26805 -5.88391 0
M  V30 5537 H 542.429 -1.58291 -2.59187 0
M  V30 5538 H 540.014 -0.834013 -1.23954 0
M  V30 5539 H 541.896 0.264192 -4.20571 0
M  V30 5540 H 540.571 0.800015 -3.13658 0
M  V30 5541 H 539.478 -1.49896 -3.42756 0
M  V30 5542 H 540.811 -1.95412 -4.51747 0
M  V30 5543 N 542.463 1.3308 -0.844243 0
M  V30 5544 C 543.393 2.3161 -0.296493 0
M  V30 5545 C 544.374 1.59215 0.598707 0
M  V30 5546 O 545.559 1.87077 0.521134 0
M  V30 5547 C 542.689 3.43313 0.524762 0
M  V30 5548 C 541.643 4.27115 -0.275106 0
M  V30 5549 C 540.969 5.30483 0.670236 0
M  V30 5550 C 542.269 5.00443 -1.49514 0
M  V30 5551 H 543.963 2.77672 -1.11976 0
M  V30 5552 H 541.509 1.33496 -0.539899 0
M  V30 5553 H 543.462 4.11273 0.918298 0
M  V30 5554 H 542.186 2.95952 1.3813 0
M  V30 5555 H 540.845 3.60787 -0.650267 0
M  V30 5556 H 540.493 4.79379 1.52332 0
M  V30 5557 H 540.193 5.87435 0.139123 0
M  V30 5558 H 541.717 6.01308 1.06117 0
M  V30 5559 H 543.131 5.61141 -1.17447 0
M  V30 5560 H 541.528 5.67071 -1.96343 0
M  V30 5561 H 542.598 4.28906 -2.26202 0
M  V30 5562 N 543.941 0.601185 1.45683 0
M  V30 5563 C 545.187 0.0940202 2.02582 0
M  V30 5564 C 545.52 -1.26972 1.46941 0
M  V30 5565 O 544.795 -1.83613 0.641612 0
M  V30 5566 C 545.078 0.0481715 3.60068 0
M  V30 5567 C 544.931 1.44212 4.26055 0
M  V30 5568 C 546.25 -0.642975 4.35378 0
M  V30 5569 H 543.369 0.0356404 0.736138 0
M  V30 5570 H 546.011 0.771929 1.73612 0
M  V30 5571 H 544.161 -0.529128 3.8488 0
M  V30 5572 H 545.833 2.06601 4.12449 0
M  V30 5573 H 544.076 2.00465 3.84703 0
M  V30 5574 H 544.747 1.36234 5.34925 0
M  V30 5575 H 547.223 -0.152351 4.15821 0
M  V30 5576 H 546.099 -0.644141 5.45107 0
M  V30 5577 H 546.36 -1.70785 4.0778 0
M  V30 5578 N 545.419 -1.53889 0.339982 0
M  V30 5579 C 546.351 -2.22435 -0.55275 0
M  V30 5580 C 547.364 -1.22975 -1.06681 0
M  V30 5581 O 548.553 -1.49351 -0.977575 0
M  V30 5582 C 545.653 -2.8882 -1.77302 0
M  V30 5583 C 544.826 -4.14563 -1.39486 0
M  V30 5584 C 543.885 -4.64391 -2.47442 0
M  V30 5585 O 542.911 -5.28687 -2.10899 0
M  V30 5586 N 544.113 -4.40015 -3.78639 0
M  V30 5587 H 546.878 -2.9968 0.0342669 0
M  V30 5588 H 544.439 -1.61068 0.16394 0
M  V30 5589 H 546.431 -3.19072 -2.48948 0
M  V30 5590 H 545.001 -2.15182 -2.26749 0
M  V30 5591 H 544.221 -3.90896 -0.509321 0
M  V30 5592 H 545.509 -4.96362 -1.11813 0
M  V30 5593 H 544.907 -3.88586 -4.11118 0
M  V30 5594 H 543.464 -4.74881 -4.46465 0
M  V30 5595 N 546.897 -0.0685191 -1.57451 0
M  V30 5596 C 548.146 0.600898 -1.92541 0
M  V30 5597 C 548.459 1.70967 -0.950239 0
M  V30 5598 O 549.665 2.43844 -1.19384 0
M  V30 5599 C 548.121 1.12019 -3.42023 0
M  V30 5600 C 547.729 0.0426028 -4.4798 0
M  V30 5601 C 549.473 1.76386 -3.86119 0
M  V30 5602 C 547.38 0.575759 -5.88591 0
M  V30 5603 H 546.31 0.228225 -0.71863 0
M  V30 5604 H 548.961 -0.140223 -1.82963 0
M  V30 5605 H 547.343 1.91418 -3.46663 0
M  V30 5606 H 548.517 -0.73182 -4.54952 0
M  V30 5607 H 546.832 -0.504642 -4.13331 0
M  V30 5608 H 549.429 2.17302 -4.88553 0
M  V30 5609 H 549.772 2.62255 -3.23308 0
M  V30 5610 H 550.305 1.03615 -3.84069 0
M  V30 5611 H 547.044 -0.245691 -6.55039 0
M  V30 5612 H 546.564 1.31778 -5.85145 0
M  V30 5613 H 548.243 1.0532 -6.3837 0
M  V30 5614 N 548.375 1.56261 0.205012 0
M  V30 5615 C 549.285 1.96944 1.27476 0
M  V30 5616 C 550.301 0.875636 1.50362 0
M  V30 5617 O 551.477 1.18058 1.6317 0
M  V30 5618 C 548.542 2.29219 2.60115 0
M  V30 5619 C 547.603 3.52255 2.45387 0
M  V30 5620 C 546.836 3.8298 3.71701 0
M  V30 5621 O 547.059 3.15138 4.75441 0
M  V30 5622 O 545.993 4.76435 3.67823 0
M  V30 5623 H 549.819 2.88144 0.959527 0
M  V30 5624 H 547.404 1.43686 0.409217 0
M  V30 5625 H 549.286 2.51098 3.3842 0
M  V30 5626 H 547.961 1.4119 2.91285 0
M  V30 5627 H 546.868 3.35635 1.65227 0
M  V30 5628 H 548.201 4.40719 2.19152 0
M  V30 5629 N 549.853 -0.472356 1.50355 0
M  V30 5630 C 551.081 -1.24784 1.65035 0
M  V30 5631 C 551.496 -1.85837 0.333176 0
M  V30 5632 O 550.853 -1.69168 -0.68472 0
M  V30 5633 C 550.904 -2.35747 2.74054 0
M  V30 5634 O 550.625 -1.77197 4.00665 0
M  V30 5635 C 552.126 -3.26645 2.99696 0
M  V30 5636 H 549.346 -0.377432 0.554785 0
M  V30 5637 H 551.89 -0.563962 1.9657 0
M  V30 5638 H 550.045 -2.99912 2.45217 0
M  V30 5639 H 550.459 -2.5026 4.60945 0
M  V30 5640 H 551.933 -4.00718 3.79644 0
M  V30 5641 H 552.41 -3.8535 2.10718 0
M  V30 5642 H 553.016 -2.68218 3.3006 0
M  V30 5643 N 551.331 -1.39911 -0.725443 0
M  V30 5644 C 552.264 -1.33788 -1.84867 0
M  V30 5645 C 553.242 -0.209907 -1.61239 0
M  V30 5646 O 554.426 -0.391943 -1.8438 0
M  V30 5647 C 551.553 -1.07975 -3.21028 0
M  V30 5648 C 550.599 -2.23092 -3.635 0
M  V30 5649 S 551.432 -3.85431 -3.71757 0
M  V30 5650 C 552.588 -3.61862 -5.10692 0
M  V30 5651 H 552.821 -2.28848 -1.89779 0
M  V30 5652 H 550.354 -1.26079 -0.891254 0
M  V30 5653 H 552.312 -0.937669 -3.99647 0
M  V30 5654 H 550.973 -0.145865 -3.13761 0
M  V30 5655 H 550.166 -2.00647 -4.62338 0
M  V30 5656 H 549.768 -2.33553 -2.92112 0
M  V30 5657 H 552.06 -3.19719 -5.97316 0
M  V30 5658 H 553.003 -4.60196 -5.38169 0
M  V30 5659 H 553.411 -2.95757 -4.8082 0
M  V30 5660 N 552.809 0.956637 -1.25245 0
M  V30 5661 C 553.742 2.05232 -0.99775 0
M  V30 5662 C 554.72 1.62439 0.0723137 0
M  V30 5663 O 555.904 1.88381 -0.066926 0
M  V30 5664 C 553.031 3.34871 -0.507861 0
M  V30 5665 C 552.077 3.96625 -1.56815 0
M  V30 5666 S 552.91 4.32853 -3.15276 0
M  V30 5667 C 554.066 5.65613 -2.68017 0
M  V30 5668 H 554.299 2.26521 -1.9255 0
M  V30 5669 H 551.832 1.09601 -1.08752 0
M  V30 5670 H 553.79 4.09845 -0.231858 0
M  V30 5671 H 552.451 3.11551 0.399356 0
M  V30 5672 H 551.644 4.90087 -1.17604 0
M  V30 5673 H 551.246 3.28124 -1.79473 0
M  V30 5674 H 553.538 6.43635 -2.11518 0
M  V30 5675 H 554.481 6.09693 -3.60112 0
M  V30 5676 H 554.889 5.24751 -2.0808 0
M  V30 5677 N 554.287 1.06798 1.15896 0
M  V30 5678 C 555.515 0.808694 1.90441 0
M  V30 5679 C 555.93 -0.637506 1.77711 0
M  V30 5680 O 555.287 -1.43684 1.12522 0
M  V30 5681 C 555.338 1.20068 3.40978 0
M  V30 5682 O 555.059 2.59013 3.53333 0
M  V30 5683 C 556.56 0.96987 4.3256 0
M  V30 5684 H 553.78 0.292809 0.603742 0
M  V30 5685 H 556.324 1.42296 1.46874 0
M  V30 5686 H 554.479 0.630842 3.82229 0
M  V30 5687 H 554.893 2.7485 4.46719 0
M  V30 5688 H 556.367 1.29371 5.36626 0
M  V30 5689 H 556.844 -0.0941209 4.39099 0
M  V30 5690 H 557.45 1.52433 3.97044 0
M  V30 5691 N 555.766 -1.3263 0.851289 0
M  V30 5692 C 557.012 -1.9766 0.453694 0
M  V30 5693 C 557.345 -1.67225 -0.987396 0
M  V30 5694 O 556.62 -0.958693 -1.69232 0
M  V30 5695 C 556.903 -3.5344 0.68936 0
M  V30 5696 C 556.756 -3.93517 2.17862 0
M  V30 5697 C 558.075 -4.39866 0.143555 0
M  V30 5698 H 555.194 -0.717989 0.166314 0
M  V30 5699 H 557.836 -1.57068 1.06909 0
M  V30 5700 H 555.986 -3.88147 0.165546 0
M  V30 5701 H 557.658 -3.69006 2.76826 0
M  V30 5702 H 555.901 -3.42798 2.65841 0
M  V30 5703 H 556.572 -5.02065 2.29422 0
M  V30 5704 H 559.048 -4.11875 0.591451 0
M  V30 5705 H 557.924 -5.47858 0.338043 0
M  V30 5706 H 558.185 -4.31696 -0.953466 0
M  V30 5707 N 557.244 -0.608902 -1.45362 0
M  V30 5708 C 558.192 0.121639 -2.32282 0
M  V30 5709 C 559.186 0.858301 -1.46046 0
M  V30 5710 O 560.392 0.773718 -1.62523 0
M  V30 5711 H 556.767 0.058086 -0.749753 0
M  V30 5712 H 558.738 -0.629866 -2.91677 0
M  V30 5713 C 557.487 1.1047 -3.29684 0
M  V30 5714 H 556.81 0.547278 -3.96036 0
M  V30 5715 H 558.25 1.58576 -3.9323 0
M  V30 5716 C 556.709 2.17891 -2.56954 0
M  V30 5717 O 557.239 3.25652 -2.35189 0
M  V30 5718 N 555.445 1.93211 -2.17066 0
M  V30 5719 H 554.992 1.05584 -2.34967 0
M  V30 5720 H 554.95 2.6529 -1.68727 0
M  V30 5721 N 558.722 1.53707 -0.348139 0
M  V30 5722 C 559.67 2.26671 0.521808 0
M  V30 5723 C 560.664 1.28988 1.09811 0
M  V30 5724 O 561.87 1.4668 1.04332 0
M  V30 5725 H 558.245 0.728387 0.186968 0
M  V30 5726 H 560.216 2.98176 -0.115563 0
M  V30 5727 C 558.965 3.05591 1.6586 0
M  V30 5728 H 558.288 3.80589 1.22443 0
M  V30 5729 H 559.728 3.59851 2.24239 0
M  V30 5730 C 558.187 2.15366 2.59073 0
M  V30 5731 O 558.717 1.7528 3.61441 0
M  V30 5732 N 556.923 1.80352 2.27863 0
M  V30 5733 H 556.47 2.13149 1.44656 0
M  V30 5734 H 556.428 1.20268 2.90488 0
M  V30 5735 N 560.2 0.0768682 1.57412 0
M  V30 5736 C 561.428 -0.59997 1.9801 0
M  V30 5737 C 561.843 -1.62842 0.955408 0
M  V30 5738 O 561.2 -1.8241 -0.057314 0
M  V30 5739 C 561.251 -1.26401 3.38681 0
M  V30 5740 O 560.972 -0.276723 4.37225 0
M  V30 5741 C 562.473 -2.0282 3.94182 0
M  V30 5742 H 559.693 -0.162239 0.651091 0
M  V30 5743 H 562.237 0.150771 2.03943 0
M  V30 5744 H 560.392 -1.96581 3.33819 0
M  V30 5745 H 560.806 -0.753744 5.19056 0
M  V30 5746 H 562.28 -2.44667 4.94815 0
M  V30 5747 H 562.757 -2.88678 3.31001 0
M  V30 5748 H 563.363 -1.37496 4.02461 0
M  V30 5749 N 561.678 -1.56367 -0.196722 0
M  V30 5750 C 562.641 -1.93561 -1.22746 0
M  V30 5751 C 563.641 -0.816566 -1.38524 0
M  V30 5752 O 564.831 -1.084 -1.36363 0
M  V30 5753 C 561.963 -2.20823 -2.59712 0
M  V30 5754 H 563.156 -2.85774 -0.909586 0
M  V30 5755 H 560.709 -1.50032 -0.438174 0
M  V30 5756 H 561.444 -1.31243 -2.96557 0
M  V30 5757 H 561.229 -3.02368 -2.49632 0
M  V30 5758 H 562.719 -2.50608 -3.34044 0
M  V30 5759 N 563.156 0.464375 -1.50603 0
M  V30 5760 C 564.384 1.23907 -1.65695 0
M  V30 5761 C 564.799 1.85658 -0.343027 0
M  V30 5762 O 564.156 1.69529 0.675739 0
M  V30 5763 C 564.207 2.3429 -2.75301 0
M  V30 5764 O 563.928 1.7507 -4.01599 0
M  V30 5765 C 565.429 3.25051 -3.01424 0
M  V30 5766 H 562.649 0.374485 -0.556778 0
M  V30 5767 H 565.193 0.55353 -1.96866 0
M  V30 5768 H 563.348 2.98607 -2.46804 0
M  V30 5769 H 563.762 2.47812 -4.62266 0
M  V30 5770 H 565.236 3.98699 -3.81763 0
M  V30 5771 H 565.713 3.84227 -2.12758 0
M  V30 5772 H 566.319 2.66463 -3.31477 0
M  V30 5773 N 564.634 1.40294 0.718013 0
M  V30 5774 C 565.566 1.36281 1.84283 0
M  V30 5775 C 566.579 0.268621 1.60569 0
M  V30 5776 O 567.768 0.528798 1.70487 0
M  V30 5777 C 564.868 1.09741 3.2064 0
M  V30 5778 C 564.041 2.30767 3.71571 0
M  V30 5779 C 563.1 2.00424 4.86535 0
M  V30 5780 O 562.126 2.73268 4.99313 0
M  V30 5781 N 563.328 0.980724 5.72156 0
M  V30 5782 H 566.093 2.3322 1.88225 0
M  V30 5783 H 563.654 1.34616 0.899453 0
M  V30 5784 H 565.646 0.874322 3.95143 0
M  V30 5785 H 564.216 0.214771 3.11861 0
M  V30 5786 H 563.436 2.68921 2.88228 0
M  V30 5787 H 564.724 3.11455 4.02335 0
M  V30 5788 H 564.122 0.377375 5.6444 0
M  V30 5789 H 562.679 0.817538 6.46653 0
M  V30 5790 N 566.112 -0.949982 1.2575 0
M  V30 5791 C 567.075 -2.02894 1.06615 0
M  V30 5792 C 568.075 -1.60791 0.0173905 0
M  V30 5793 O 569.265 -1.72249 0.260003 0
M  V30 5794 C 566.397 -3.35219 0.619751 0
M  V30 5795 H 567.59 -2.21302 2.02399 0
M  V30 5796 H 565.143 -1.12772 1.08223 0
M  V30 5797 H 565.878 -3.22508 -0.340486 0
M  V30 5798 H 565.663 -3.67129 1.37692 0
M  V30 5799 H 567.153 -4.14505 0.507443 0
M  V30 5800 N 567.59 -1.07411 -1.15328 0
M  V30 5801 C 568.815 -0.818856 -1.90551 0
M  V30 5802 C 569.24 0.622194 -1.77512 0
M  V30 5803 O 568.598 1.43484 -1.10824 0
M  V30 5804 C 568.646 -1.23267 -3.38877 0
M  V30 5805 O 567.75 -0.378345 -4.10661 0
M  V30 5806 H 567.091 -0.29827 -0.593238 0
M  V30 5807 H 569.621 -1.43289 -1.46046 0
M  V30 5808 H 569.631 -1.20912 -3.89672 0
M  V30 5809 H 568.306 -2.28226 -3.47686 0
M  V30 5810 H 566.883 -0.464437 -3.69996 0
M  V30 5811 N 569.068 1.32177 -0.85831 0
M  V30 5812 C 570.316 1.96735 -0.462568 0
M  V30 5813 C 570.637 1.6824 0.985911 0
M  V30 5814 O 569.907 0.991564 1.68952 0
M  V30 5815 H 568.487 0.727849 -0.168064 0
M  V30 5816 H 571.149 1.61195 -1.09554 0
M  V30 5817 H 570.245 3.06068 -0.610647 0
M  V30 5818 N 570.547 0.616602 1.45037 0
M  V30 5819 C 571.793 0.115501 2.02471 0
M  V30 5820 C 572.126 -1.25406 1.4828 0
M  V30 5821 O 571.401 -1.82922 0.661051 0
M  V30 5822 C 571.684 0.0863588 3.59996 0
M  V30 5823 C 571.537 1.48723 4.24501 0
M  V30 5824 C 572.856 -0.596762 4.36035 0
M  V30 5825 H 569.975 0.0434461 0.735718 0
M  V30 5826 H 572.617 0.7903 1.72784 0
M  V30 5827 H 570.767 -0.488277 3.85419 0
M  V30 5828 H 572.439 2.10964 4.10234 0
M  V30 5829 H 570.682 2.04534 3.82555 0
M  V30 5830 H 571.353 1.419 5.3345 0
M  V30 5831 H 573.829 -0.10824 4.15959 0
M  V30 5832 H 572.705 -0.586289 5.4576 0
M  V30 5833 H 572.966 -1.66451 4.09569 0
M  V30 5834 N 572.025 -1.5352 0.356285 0
M  V30 5835 C 573.273 -2.00719 -0.235837 0
M  V30 5836 C 573.594 -1.24551 -1.5004 0
M  V30 5837 O 572.864 -0.356185 -1.92635 0
M  V30 5838 H 571.444 -0.741542 -0.0901366 0
M  V30 5839 H 574.106 -1.88887 0.480378 0
M  V30 5840 H 573.202 -3.08551 -0.469357 0
M  V30 5841 N 573.503 -0.0852151 -1.57369 0
M  V30 5842 C 574.919 0.271436 -1.57275 0
M  V30 5843 C 575.119 1.69109 -1.09565 0
M  V30 5844 O 574.175 2.40549 -0.767611 0
M  V30 5845 C 575.488 0.0688638 -3.00621 0
M  V30 5846 C 577.036 0.137373 -3.12698 0
M  V30 5847 C 577.511 -0.0370832 -4.57985 0
M  V30 5848 N 579.002 0.0180794 -4.63196 0
M  V30 5849 C 579.737 -0.0922953 -5.73326 0
M  V30 5850 N 579.233 -0.256948 -6.92323 0
M  V30 5851 N 581.026 -0.0342702 -5.6209 0
M  V30 5852 H 573.177 -1.01288 -1.86693 0
M  V30 5853 H 575.44 -0.396138 -0.861266 0
M  V30 5854 H 575.146 -0.911277 -3.39689 0
M  V30 5855 H 575.02 0.815442 -3.6828 0
M  V30 5856 H 577.407 1.10801 -2.73509 0
M  V30 5857 H 577.488 -0.640532 -2.47651 0
M  V30 5858 H 577.132 -1.00455 -4.97867 0
M  V30 5859 H 577.062 0.760392 -5.21081 0
M  V30 5860 H 579.553 0.143202 -3.77629 0
M  V30 5861 H 579.866 -0.332949 -7.72082 0
M  V30 5862 H 578.211 -0.292487 -6.94384 0
M  V30 5863 H 581.402 0.0931605 -4.68007 0
M  V30 5864 H 581.575 -0.12374 -6.47882 0
M  V30 5865 N 574.981 1.5647 0.188427 0
M  V30 5866 C 576.23 1.80207 0.905995 0
M  V30 5867 C 576.543 0.659579 1.84144 0
M  V30 5868 O 577.749 0.781431 2.60011 0
M  V30 5869 C 576.205 3.19255 1.66145 0
M  V30 5870 C 575.813 4.41324 0.770504 0
M  V30 5871 C 577.557 3.52298 2.36826 0
M  V30 5872 C 575.464 5.71394 1.52521 0
M  V30 5873 H 574.394 0.671953 0.342045 0
M  V30 5874 H 577.045 1.82808 0.159164 0
M  V30 5875 H 575.427 3.10922 2.45242 0
M  V30 5876 H 576.601 4.60797 0.0177261 0
M  V30 5877 H 574.916 4.16035 0.174199 0
M  V30 5878 H 577.513 4.46715 2.93854 0
M  V30 5879 H 577.856 2.76359 3.11338 0
M  V30 5880 H 578.389 3.62108 1.6469 0
M  V30 5881 H 575.128 6.50316 0.82275 0
M  V30 5882 H 574.648 5.55928 2.25175 0
M  V30 5883 H 576.327 6.12747 2.07725 0
M  V30 5884 N 576.459 -0.456382 1.50847 0
M  V30 5885 C 577.687 -1.23026 1.66349 0
M  V30 5886 C 578.102 -1.85473 0.352868 0
M  V30 5887 O 577.459 -1.69885 -0.666739 0
M  V30 5888 C 577.51 -2.32827 2.76539 0
M  V30 5889 O 577.231 -1.72938 4.02522 0
M  V30 5890 C 578.732 -3.23448 3.03144 0
M  V30 5891 H 575.952 -0.371527 0.558756 0
M  V30 5892 H 578.496 -0.543082 1.97157 0
M  V30 5893 H 576.651 -2.97294 2.48384 0
M  V30 5894 H 577.065 -2.45357 4.63573 0
M  V30 5895 H 578.539 -3.96669 3.83872 0
M  V30 5896 H 579.016 -3.83094 2.14793 0
M  V30 5897 H 579.622 -2.64702 3.32886 0
M  V30 5898 N 577.937 -1.40673 -0.710563 0
M  V30 5899 C 579.186 -1.38525 -1.46607 0
M  V30 5900 C 579.499 0.0077024 -1.95598 0
M  V30 5901 O 580.705 0.151792 -2.71075 0
M  V30 5902 C 579.161 -2.43489 -2.6503 0
M  V30 5903 C 578.769 -3.88619 -2.22888 0
M  V30 5904 C 580.513 -2.50456 -3.42742 0
M  V30 5905 C 578.42 -4.85168 -3.3818 0
M  V30 5906 H 577.35 -0.515092 -0.550632 0
M  V30 5907 H 580.001 -1.66431 -0.772846 0
M  V30 5908 H 578.383 -2.0869 -3.36548 0
M  V30 5909 H 579.557 -4.32588 -1.58758 0
M  V30 5910 H 577.872 -3.85174 -1.58208 0
M  V30 5911 H 580.469 -3.19776 -4.28541 0
M  V30 5912 H 580.812 -1.53665 -3.86902 0
M  V30 5913 H 581.345 -2.84271 -2.78271 0
M  V30 5914 H 578.084 -5.8331 -2.99047 0
M  V30 5915 H 577.604 -4.4586 -4.01209 0
M  V30 5916 H 579.283 -5.05225 -4.04174 0
M  V30 5917 N 579.415 0.9433 -1.26252 0
M  V30 5918 C 580.826 1.50404 -1.10614 0
M  V30 5919 C 581.177 1.93666 0.31429 0
M  V30 5920 O 580.302 1.79709 1.20555 0
M  V30 5921 C 580.897 2.73336 -2.00182 0
M  V30 5922 C 579.456 3.25686 -1.88695 0
M  V30 5923 C 578.603 1.98474 -1.93658 0
M  V30 5924 H 581.554 0.759006 -1.39373 0
M  V30 5925 H 581.575 3.47567 -1.54847 0
M  V30 5926 H 581.087 2.41818 -3.03555 0
M  V30 5927 H 579.188 3.61998 -0.882489 0
M  V30 5928 H 579.301 3.92935 -2.74115 0
M  V30 5929 H 577.665 2.14278 -1.37684 0
M  V30 5930 H 578.448 1.6929 -2.98657 0
M  V30 5931 N 580.893 1.08022 1.14757 0
M  V30 5932 C 582.139 0.808705 1.85978 0
M  V30 5933 C 582.472 -0.663764 1.82504 0
M  V30 5934 O 581.747 -1.48765 1.25296 0
M  V30 5935 C 582.03 1.32623 3.34788 0
M  V30 5936 C 581.883 2.86375 3.46856 0
M  V30 5937 C 583.202 0.948291 4.29762 0
M  V30 5938 H 580.321 0.295244 0.675278 0
M  V30 5939 H 582.963 1.33917 1.34783 0
M  V30 5940 H 581.113 0.875002 3.78518 0
M  V30 5941 H 582.785 3.39839 3.11941 0
M  V30 5942 H 581.028 3.24232 2.88194 0
M  V30 5943 H 581.699 3.17658 4.51439 0
M  V30 5944 H 584.175 1.33722 3.94028 0
M  V30 5945 H 583.051 1.33765 5.32352 0
M  V30 5946 H 583.312 -0.145094 4.41862 0
M  V30 5947 N 582.371 -1.3172 0.865308 0
M  V30 5948 C 583.596 -2.01591 0.487415 0
M  V30 5949 C 584.021 -1.6455 -0.911307 0
M  V30 5950 O 583.379 -0.851689 -1.6005 0
M  V30 5951 C 583.427 -3.54759 0.646401 0
M  V30 5952 O 582.531 -4.11185 -0.316284 0
M  V30 5953 H 581.872 -0.634884 0.194468 0
M  V30 5954 H 584.402 -1.68024 1.16744 0
M  V30 5955 H 584.412 -4.04438 0.537932 0
M  V30 5956 H 583.087 -3.8106 1.66632 0
M  V30 5957 H 581.664 -3.72543 -0.163162 0
M  V30 5958 N 583.85 -0.624285 -1.44708 0
M  V30 5959 C 585.096 -0.126237 -2.02407 0
M  V30 5960 C 585.428 1.24618 -1.48943 0
M  V30 5961 O 584.704 1.82569 -0.670742 0
M  V30 5962 C 584.986 -0.105449 -3.59946 0
M  V30 5963 C 584.84 -1.50972 -4.23707 0
M  V30 5964 C 586.159 0.573629 -4.36346 0
M  V30 5965 H 583.278 -0.0473472 -0.735478 0
M  V30 5966 H 585.92 -0.799452 -1.72362 0
M  V30 5967 H 584.07 0.46783 -3.85673 0
M  V30 5968 H 585.742 -2.13136 -4.0911 0
M  V30 5969 H 583.985 -2.0656 -3.81465 0
M  V30 5970 H 584.656 -1.44727 -5.32689 0
M  V30 5971 H 587.132 0.0861787 -4.16011 0
M  V30 5972 H 586.008 0.557338 -5.46063 0
M  V30 5973 H 586.269 1.64276 -4.10446 0
M  V30 5974 N 585.328 1.53329 -0.364422 0
M  V30 5975 C 586.26 2.23286 0.517293 0
M  V30 5976 C 587.273 1.24657 1.04711 0
M  V30 5977 O 588.462 1.50887 0.95369 0
M  V30 5978 C 585.562 2.91604 1.72685 0
M  V30 5979 C 584.735 4.1673 1.32873 0
M  V30 5980 C 583.794 4.68269 2.40022 0
M  V30 5981 O 582.82 5.31976 2.02461 0
M  V30 5982 N 584.022 4.45983 3.7159 0
M  V30 5983 H 586.787 2.99588 -0.0819391 0
M  V30 5984 H 584.348 1.60787 -0.189544 0
M  V30 5985 H 586.34 3.22992 2.4384 0
M  V30 5986 H 584.91 2.18763 2.23297 0
M  V30 5987 H 584.13 3.91657 0.447069 0
M  V30 5988 H 585.418 4.98078 1.03902 0
M  V30 5989 H 584.816 3.95077 4.04883 0
M  V30 5990 H 583.373 4.81924 4.38854 0
M  V30 5991 N 586.806 0.0935595 1.57322 0
M  V30 5992 C 588.031 -0.582324 1.99057 0
M  V30 5993 C 588.456 -1.61025 0.972242 0
M  V30 5994 O 587.814 -1.81202 -0.0594622 0
M  V30 5995 C 587.862 -1.20799 3.39765 0
M  V30 5996 O 586.966 -2.32382 3.40694 0
M  V30 5997 H 586.307 -0.147884 0.647323 0
M  V30 5998 H 588.837 0.174516 2.03854 0
M  V30 5999 H 588.847 -1.54966 3.77425 0
M  V30 6000 H 587.522 -0.454914 4.13405 0
M  V30 6001 H 586.099 -1.99845 3.14827 0
M  V30 6002 N 588.284 -1.56567 -0.180126 0
M  V30 6003 C 589.561 -1.7235 -0.924931 0
M  V30 6004 C 589.941 -0.652523 -2.00762 0
M  V30 6005 O 589.289 0.334115 -2.26044 0
M  V30 6006 C 589.499 -3.1523 -1.49771 0
M  V30 6007 C 590.847 -3.75921 -1.97405 0
M  V30 6008 O 591.871 -3.18452 -1.59583 0
M  V30 6009 O 590.73 -4.7681 -2.67048 0
M  V30 6010 H 587.824 -0.703502 -0.434758 0
M  V30 6011 H 590.37 -1.6886 -0.168647 0
M  V30 6012 H 589.142 -3.84656 -0.718027 0
M  V30 6013 H 588.765 -3.23009 -2.31842 0
M  V30 6014 N 589.762 0.448376 -1.51087 0
M  V30 6015 C 591.008 1.20049 -1.6345 0
M  V30 6016 C 591.341 1.91121 -0.344444 0
M  V30 6017 O 590.616 1.83125 0.655396 0
M  V30 6018 C 590.899 2.22624 -2.83038 0
M  V30 6019 C 590.752 1.55708 -4.21989 0
M  V30 6020 C 592.071 3.23718 -2.98152 0
M  V30 6021 H 589.19 0.435085 -0.59487 0
M  V30 6022 H 591.832 0.491183 -1.83541 0
M  V30 6023 H 589.982 2.83117 -2.66039 0
M  V30 6024 H 591.654 0.986367 -4.50631 0
M  V30 6025 H 589.897 0.859647 -4.25197 0
M  V30 6026 H 590.568 2.30357 -5.01637 0
M  V30 6027 H 593.044 2.73269 -3.13788 0
M  V30 6028 H 591.92 3.92795 -3.83411 0
M  V30 6029 H 592.181 3.89179 -2.09743 0
M  V30 6030 N 591.24 1.41047 0.703093 0
M  V30 6031 C 592.517 1.30493 1.45708 0
M  V30 6032 C 592.897 -0.0709892 2.10981 0
M  V30 6033 O 592.245 -1.08471 2.01113 0
M  V30 6034 C 592.455 2.45287 2.48265 0
M  V30 6035 C 593.803 2.86104 3.13735 0
M  V30 6036 O 594.827 2.44971 2.58587 0
M  V30 6037 O 593.686 3.57206 4.13601 0
M  V30 6038 H 590.78 0.513144 0.648546 0
M  V30 6039 H 593.326 1.52995 0.734208 0
M  V30 6040 H 592.098 3.37135 1.98635 0
M  V30 6041 H 591.721 2.24622 3.28071 0
M  V30 6042 N 592.718 -0.936591 1.26751 0
M  V30 6043 C 593.946 -1.71758 1.15355 0
M  V30 6044 C 594.361 -1.86549 -0.290683 0
M  V30 6045 O 593.718 -1.37616 -1.19868 0
M  V30 6046 C 593.769 -3.12193 1.82258 0
M  V30 6047 O 593.49 -2.98105 3.21038 0
M  V30 6048 C 594.991 -4.06485 1.76875 0
M  V30 6049 H 592.211 -0.537636 0.401483 0
M  V30 6050 H 594.755 -1.17382 1.67457 0
M  V30 6051 H 592.91 -3.63456 1.34083 0
M  V30 6052 H 593.324 -3.86824 3.54214 0
M  V30 6053 H 594.798 -5.02569 2.28316 0
M  V30 6054 H 595.275 -4.32986 0.736216 0
M  V30 6055 H 595.881 -3.61144 2.24623 0
M  V30 6056 N 594.196 -1.08629 -1.14182 0
M  V30 6057 C 595.128 -0.676189 -2.18998 0
M  V30 6058 C 596.141 0.277871 -1.60411 0
M  V30 6059 O 597.33 0.0651771 -1.78381 0
M  V30 6060 C 594.43 0.0254916 -3.3889 0
M  V30 6061 C 593.603 -0.948039 -4.27002 0
M  V30 6062 C 592.662 -0.281268 -5.25448 0
M  V30 6063 O 591.688 -0.926378 -5.61611 0
M  V30 6064 N 592.89 0.967923 -5.72374 0
M  V30 6065 H 595.655 -1.57792 -2.54798 0
M  V30 6066 H 593.216 -0.972665 -1.29425 0
M  V30 6067 H 595.208 0.482554 -4.01813 0
M  V30 6068 H 593.778 0.829348 -3.01398 0
M  V30 6069 H 592.998 -1.58388 -3.6098 0
M  V30 6070 H 594.286 -1.60765 -4.82734 0
M  V30 6071 H 593.684 1.51175 -5.45126 0
M  V30 6072 H 592.241 1.36844 -6.37273 0
M  V30 6073 N 595.674 1.31259 -0.872281 0
M  V30 6074 C 596.923 1.95893 -0.480493 0
M  V30 6075 C 597.236 1.697 0.972688 0
M  V30 6076 O 598.442 2.28214 1.47073 0
M  V30 6077 C 596.898 3.50705 -0.808342 0
M  V30 6078 C 596.506 3.85735 -2.27844 0
M  V30 6079 C 598.25 4.21719 -0.485136 0
M  V30 6080 C 596.157 5.33668 -2.54858 0
M  V30 6081 H 595.087 0.733182 -0.175955 0
M  V30 6082 H 597.738 1.49396 -1.0655 0
M  V30 6083 H 596.12 3.95706 -0.152558 0
M  V30 6084 H 597.294 3.51686 -2.97748 0
M  V30 6085 H 595.609 3.27792 -2.56791 0
M  V30 6086 H 598.206 5.30559 -0.664166 0
M  V30 6087 H 598.549 4.12316 0.574592 0
M  V30 6088 H 599.082 3.82359 -1.09756 0
M  V30 6089 H 595.821 5.48109 -3.59523 0
M  V30 6090 H 595.341 5.69061 -1.8955 0
M  V30 6091 H 597.02 6.00958 -2.39706 0
M  V30 6092 N 597.152 0.631951 1.44375 0
M  V30 6093 C 598.115 -0.0628142 2.29114 0
M  V30 6094 C 599.115 -0.771494 1.41084 0
M  V30 6095 O 600.305 -0.615959 1.62947 0
M  V30 6096 C 597.437 -1.09953 3.22681 0
M  V30 6097 H 598.63 0.682509 2.92031 0
M  V30 6098 H 596.183 0.392128 1.51301 0
M  V30 6099 H 596.918 -1.87481 2.64616 0
M  V30 6100 H 596.703 -0.595286 3.87555 0
M  V30 6101 H 598.193 -1.58538 3.86336 0
M  V30 6102 N 598.631 -1.53133 0.372548 0
M  V30 6103 C 599.879 -2.00958 -0.214534 0
M  V30 6104 C 600.2 -1.26135 -1.48711 0
M  V30 6105 O 599.47 -0.376597 -1.92246 0
M  V30 6106 H 598.05 -0.742456 -0.0822664 0
M  V30 6107 H 600.712 -1.88367 0.500385 0
M  V30 6108 H 599.808 -3.09031 -0.436605 0
M  V30 6109 N 600.109 -0.101901 -1.5727 0
M  V30 6110 C 601.356 0.560197 -1.94597 0
M  V30 6111 C 601.684 1.67767 -0.984101 0
M  V30 6112 O 600.939 1.95699 -0.00489193 0
M  V30 6113 C 601.238 1.14898 -3.38427 0
M  V30 6114 C 600.904 0.154613 -4.50635 0
M  V30 6115 C 599.566 -0.118861 -4.81053 0
M  V30 6116 C 601.918 -0.523979 -5.18559 0
M  V30 6117 C 599.246 -1.0775 -5.76721 0
M  V30 6118 C 601.598 -1.47114 -6.15256 0
M  V30 6119 C 600.262 -1.75278 -6.44076 0
M  V30 6120 H 599.532 0.204991 -0.712081 0
M  V30 6121 H 602.179 -0.17918 -1.9066 0
M  V30 6122 H 600.484 1.96476 -3.38976 0
M  V30 6123 H 602.181 1.66909 -3.64613 0
M  V30 6124 H 598.771 0.377948 -4.2693 0
M  V30 6125 H 602.955 -0.325851 -4.95229 0
M  V30 6126 H 598.211 -1.30263 -5.97362 0
M  V30 6127 H 602.385 -2.00274 -6.66981 0
M  V30 6128 H 600.012 -2.49717 -7.18015 0
M  V30 6129 N 601.587 1.56661 0.17182 0
M  V30 6130 C 602.815 1.861 0.904115 0
M  V30 6131 C 603.23 0.687227 1.75848 0
M  V30 6132 O 602.587 -0.343671 1.79235 0
M  V30 6133 C 602.638 3.14568 1.78127 0
M  V30 6134 O 602.359 4.27422 0.961366 0
M  V30 6135 C 603.86 3.5735 2.62327 0
M  V30 6136 H 601.08 0.617445 0.262684 0
M  V30 6137 H 603.624 2.03775 0.172068 0
M  V30 6138 H 601.779 2.98721 2.46666 0
M  V30 6139 H 602.193 5.00725 1.56123 0
M  V30 6140 H 603.667 4.50144 3.1949 0
M  V30 6141 H 604.144 2.81445 3.37173 0
M  V30 6142 H 604.75 3.75807 1.99121 0
M  V30 6143 N 603.065 -0.440357 1.51323 0
M  V30 6144 C 604.314 -1.18697 1.63076 0
M  V30 6145 C 604.627 -1.92418 0.35136 0
M  V30 6146 O 605.833 -2.69258 0.348221 0
M  V30 6147 C 604.289 -2.15849 2.87988 0
M  V30 6148 C 603.897 -1.47789 4.22921 0
M  V30 6149 C 605.641 -2.90962 3.09098 0
M  V30 6150 C 603.548 -2.43407 5.38987 0
M  V30 6151 H 602.478 -0.44676 0.607389 0
M  V30 6152 H 605.129 -0.454313 1.77787 0
M  V30 6153 H 603.511 -2.92537 2.66905 0
M  V30 6154 H 604.685 -0.7668 4.54375 0
M  V30 6155 H 603 -0.848404 4.07665 0
M  V30 6156 H 605.597 -3.62584 3.92985 0
M  V30 6157 H 605.94 -3.52133 2.22053 0
M  V30 6158 H 606.473 -2.21381 3.30507 0
M  V30 6159 H 603.212 -1.86929 6.28282 0
M  V30 6160 H 602.732 -3.12579 5.11913 0
M  V30 6161 H 604.411 -3.046 5.70813 0
M  V30 6162 N 604.543 -1.41418 -0.695603 0
M  V30 6163 C 605.491 -1.43467 -1.83084 0
M  V30 6164 C 606.485 -0.312719 -1.66489 0
M  V30 6165 O 607.691 -0.484744 -1.7335 0
M  V30 6166 H 604.066 -0.448891 -0.603325 0
M  V30 6167 H 606.037 -2.39144 -1.78473 0
M  V30 6168 C 604.786 -1.3337 -3.21104 0
M  V30 6169 H 604.109 -2.18989 -3.3449 0
M  V30 6170 H 605.549 -1.38865 -4.00615 0
M  V30 6171 C 604.008 -0.0460484 -3.36869 0
M  V30 6172 O 604.538 0.909258 -3.91274 0
M  V30 6173 N 602.744 0.0300222 -2.90584 0
M  V30 6174 H 602.291 -0.748129 -2.46497 0
M  V30 6175 H 602.249 0.890991 -3.01511 0
M  V30 6176 N 606.021 0.929856 -1.27246 0
M  V30 6177 C 607.432 1.49223 -1.12203 0
M  V30 6178 C 607.783 1.93989 0.293731 0
M  V30 6179 O 606.908 1.80978 1.18642 0
M  V30 6180 C 607.503 2.71198 -2.0307 0
M  V30 6181 C 606.062 3.23666 -1.92139 0
M  V30 6182 C 605.209 1.96409 -1.95752 0
M  V30 6183 H 608.16 0.744181 -1.4017 0
M  V30 6184 H 608.181 3.45905 -1.58524 0
M  V30 6185 H 607.693 2.38585 -3.06102 0
M  V30 6186 H 605.794 3.61042 -0.920834 0
M  V30 6187 H 605.907 3.90006 -2.78267 0
M  V30 6188 H 604.271 2.12806 -1.39949 0
M  V30 6189 H 605.054 1.66113 -3.00436 0
M  V30 6190 N 607.499 1.09233 1.13605 0
M  V30 6191 C 608.747 0.825525 1.84471 0
M  V30 6192 C 609.068 -0.650702 1.83823 0
M  V30 6193 O 608.338 -1.47204 1.29259 0
M  V30 6194 H 606.918 0.3024 0.683054 0
M  V30 6195 H 609.58 1.38006 1.37624 0
M  V30 6196 H 608.676 1.17727 2.89045 0
M  V30 6197 N 608.977 -1.30795 0.87923 0
M  V30 6198 C 610.202 -2.01063 0.508769 0
M  V30 6199 C 610.627 -1.65508 -0.893803 0
M  V30 6200 O 609.985 -0.868616 -1.59138 0
M  V30 6201 C 610.033 -3.54054 0.683991 0
M  V30 6202 O 609.137 -4.11498 -0.272654 0
M  V30 6203 H 608.478 -0.632786 0.201191 0
M  V30 6204 H 611.008 -1.66776 1.18519 0
M  V30 6205 H 611.018 -4.03845 0.580798 0
M  V30 6206 H 609.693 -3.79271 1.70665 0
M  V30 6207 H 608.27 -3.72695 -0.12364 0
M  V30 6208 N 610.455 -0.639598 -1.44038 0
M  V30 6209 C 611.732 -0.078012 -1.95444 0
M  V30 6210 C 612.112 1.39847 -1.58133 0
M  V30 6211 O 611.46 2.11714 -0.859614 0
M  V30 6212 C 611.67 -0.309832 -3.47622 0
M  V30 6213 C 613.018 -0.207521 -4.24093 0
M  V30 6214 O 614.042 -0.241653 -3.55379 0
M  V30 6215 O 612.901 -0.119641 -5.46369 0
M  V30 6216 H 609.995 0.0174534 -0.826816 0
M  V30 6217 H 612.541 -0.711891 -1.54046 0
M  V30 6218 H 611.313 -1.33401 -3.67858 0
M  V30 6219 H 610.936 0.357777 -3.95987 0
M  V30 6220 N 611.933 1.52934 -0.380664 0
M  V30 6221 C 613.181 2.01069 0.203874 0
M  V30 6222 C 613.502 1.26922 1.4804 0
M  V30 6223 O 612.772 0.386787 1.92044 0
M  V30 6224 H 611.352 0.742882 0.0783279 0
M  V30 6225 H 614.014 1.88099 -0.510368 0
M  V30 6226 H 613.11 3.09258 0.42021 0
M  V30 6227 N 613.412 0.11024 1.57214 0
M  V30 6228 C 614.658 -0.550684 1.9518 0
M  V30 6229 C 614.991 -1.66885 0.993122 0
M  V30 6230 O 614.266 -1.94479 0.0287907 0
M  V30 6231 C 614.549 -1.09163 3.43155 0
M  V30 6232 C 614.402 0.0225198 4.49794 0
M  V30 6233 C 615.721 -1.98527 3.92778 0
M  V30 6234 H 612.84 -0.198706 0.709708 0
M  V30 6235 H 615.482 0.184024 1.89107 0
M  V30 6236 H 613.632 -1.71775 3.48462 0
M  V30 6237 H 615.304 0.657443 4.56591 0
M  V30 6238 H 613.547 0.686868 4.28328 0
M  V30 6239 H 614.218 -0.39706 5.5057 0
M  V30 6240 H 616.694 -1.458 3.8972 0
M  V30 6241 H 615.57 -2.33298 4.96853 0
M  V30 6242 H 615.831 -2.90846 3.32958 0
M  V30 6243 N 614.89 -1.56749 -0.16351 0
M  V30 6244 C 616.137 -1.82434 -0.878866 0
M  V30 6245 C 616.465 -0.688557 -1.81904 0
M  V30 6246 O 615.72 0.323644 -1.93005 0
M  V30 6247 C 616.019 -3.14342 -1.70071 0
M  V30 6248 C 615.685 -4.41647 -0.908775 0
M  V30 6249 C 614.347 -4.76224 -0.690236 0
M  V30 6250 C 616.699 -5.19998 -0.353815 0
M  V30 6251 C 614.027 -5.86624 0.0942374 0
M  V30 6252 C 616.379 -6.3122 0.41761 0
M  V30 6253 C 615.043 -6.64358 0.646879 0
M  V30 6254 H 614.313 -0.667574 -0.3216 0
M  V30 6255 H 616.96 -1.90963 -0.14337 0
M  V30 6256 H 615.265 -3.0119 -2.50583 0
M  V30 6257 H 616.962 -3.31426 -2.25738 0
M  V30 6258 H 613.552 -4.1453 -1.08916 0
M  V30 6259 H 617.736 -4.93673 -0.509975 0
M  V30 6260 H 612.992 -6.10751 0.281529 0
M  V30 6261 H 617.166 -6.91133 0.854849 0
M  V30 6262 H 614.793 -7.49742 1.25662 0
M  V30 6263 N 616.368 0.432326 -1.51554 0
M  V30 6264 C 617.3 1.54357 -1.6943 0
M  V30 6265 C 618.313 1.52311 -0.574897 0
M  V30 6266 O 619.502 1.56997 -0.849369 0
M  V30 6267 C 616.602 2.93273 -1.69836 0
M  V30 6268 C 615.775 3.19768 -2.98442 0
M  V30 6269 C 614.834 4.38433 -2.90969 0
M  V30 6270 O 613.86 4.36842 -3.64908 0
M  V30 6271 N 615.062 5.42276 -2.07163 0
M  V30 6272 H 617.827 1.39426 -2.65293 0
M  V30 6273 H 615.388 0.621331 -1.49503 0
M  V30 6274 H 617.38 3.70687 -1.62399 0
M  V30 6275 H 615.95 3.01777 -0.815456 0
M  V30 6276 H 615.17 2.30607 -3.19709 0
M  V30 6277 H 616.458 3.343 -3.83563 0
M  V30 6278 H 615.856 5.46407 -1.46477 0
M  V30 6279 H 614.413 6.18524 -2.05601 0
M  V30 6280 N 617.846 1.41785 0.688094 0
M  V30 6281 C 619.071 1.45117 1.48175 0
M  V30 6282 C 619.496 0.060129 1.88004 0
M  V30 6283 O 618.854 -0.938385 1.55126 0
M  V30 6284 C 618.902 2.37224 2.71583 0
M  V30 6285 O 618.006 1.83443 3.69354 0
M  V30 6286 H 617.347 0.492208 0.445676 0
M  V30 6287 H 619.877 1.86329 0.845145 0
M  V30 6288 H 619.887 2.53353 3.19806 0
M  V30 6289 H 618.562 3.38293 2.41931 0
M  V30 6290 H 617.139 1.76802 3.28322 0
M  V30 6291 N 619.324 -0.923095 1.27737 0
M  V30 6292 C 620.552 -1.70525 1.17171 0
M  V30 6293 C 620.967 -1.86847 -0.270881 0
M  V30 6294 O 620.324 -1.38879 -1.18401 0
M  V30 6295 C 620.375 -3.10242 1.85559 0
M  V30 6296 O 620.096 -2.94683 3.24182 0
M  V30 6297 C 621.597 -4.04586 1.81176 0
M  V30 6298 H 618.817 -0.533347 0.407163 0
M  V30 6299 H 621.361 -1.15599 1.68692 0
M  V30 6300 H 619.516 -3.62014 1.3793 0
M  V30 6301 H 619.93 -3.83045 3.58297 0
M  V30 6302 H 621.404 -5.00119 2.33633 0
M  V30 6303 H 621.881 -4.3218 0.782099 0
M  V30 6304 H 622.487 -3.58741 2.2844 0
M  V30 6305 N 620.802 -1.09834 -1.13024 0
M  V30 6306 C 622.032 -0.857657 -1.87957 0
M  V30 6307 C 622.44 0.595008 -1.796 0
M  V30 6308 O 621.783 1.42158 -1.16347 0
M  V30 6309 C 621.845 -1.21949 -3.38185 0
M  V30 6310 C 621.509 -2.67791 -3.7032 0
M  V30 6311 C 622.506 -3.66036 -3.69207 0
M  V30 6312 C 620.191 -3.04019 -3.99847 0
M  V30 6313 C 622.185 -4.98533 -3.9717 0
M  V30 6314 C 619.872 -4.36706 -4.27471 0
M  V30 6315 C 620.87 -5.33772 -4.26118 0
M  V30 6316 O 620.558 -6.64072 -4.53061 0
M  V30 6317 H 620.29 -0.308009 -0.601753 0
M  V30 6318 H 622.844 -1.46496 -1.43973 0
M  V30 6319 H 621.074 -0.555249 -3.82693 0
M  V30 6320 H 622.763 -0.957281 -3.9445 0
M  V30 6321 H 623.529 -3.39392 -3.46465 0
M  V30 6322 H 619.408 -2.29096 -4.00045 0
M  V30 6323 H 622.952 -5.74288 -3.96029 0
M  V30 6324 H 618.849 -4.63091 -4.49685 0
M  V30 6325 H 619.617 -6.69608 -4.7071 0
M  V30 6326 N 622.28 1.30327 -0.886154 0
M  V30 6327 C 623.21 2.30549 -0.370028 0
M  V30 6328 C 624.191 1.61039 0.547751 0
M  V30 6329 O 625.376 1.8864 0.461353 0
M  V30 6330 C 622.506 3.44808 0.415275 0
M  V30 6331 C 621.46 4.26024 -0.41085 0
M  V30 6332 C 620.786 5.32347 0.501128 0
M  V30 6333 C 622.086 4.95433 -1.65359 0
M  V30 6334 H 623.78 2.73969 -1.20754 0
M  V30 6335 H 621.326 1.3171 -0.582097 0
M  V30 6336 H 623.279 4.13986 0.78699 0
M  V30 6337 H 622.003 3.00197 1.28644 0
M  V30 6338 H 620.662 3.58535 -0.764719 0
M  V30 6339 H 620.31 4.83982 1.37004 0
M  V30 6340 H 620.01 5.87581 -0.0478356 0
M  V30 6341 H 621.534 6.0438 0.869333 0
M  V30 6342 H 622.948 5.5712 -1.35239 0
M  V30 6343 H 621.345 5.60537 -2.14284 0
M  V30 6344 H 622.415 4.21493 -2.39733 0
M  V30 6345 N 623.758 0.647228 1.43697 0
M  V30 6346 C 625.006 0.157876 2.01482 0
M  V30 6347 C 625.327 -1.23039 1.51282 0
M  V30 6348 O 624.597 -1.82071 0.722982 0
M  V30 6349 H 623.177 0.0553745 0.744945 0
M  V30 6350 H 625.839 0.83755 1.75986 0
M  V30 6351 H 624.935 0.137895 3.11795 0
M  V30 6352 N 625.236 -1.5273 0.388769 0
M  V30 6353 C 626.168 -2.24081 -0.481704 0
M  V30 6354 C 627.181 -1.26307 -1.02715 0
M  V30 6355 O 628.37 -1.52386 -0.929565 0
M  V30 6356 C 625.47 -2.94315 -1.68024 0
M  V30 6357 C 624.643 -4.18791 -1.26226 0
M  V30 6358 C 623.702 -4.72028 -2.32542 0
M  V30 6359 O 622.728 -5.35129 -1.93972 0
M  V30 6360 N 623.93 -4.51838 -3.64448 0
M  V30 6361 H 626.695 -2.9942 0.129591 0
M  V30 6362 H 624.256 -1.60465 0.2151 0
M  V30 6363 H 626.248 -3.26831 -2.38671 0
M  V30 6364 H 624.818 -2.22287 -2.19789 0
M  V30 6365 H 624.038 -3.92318 -0.384703 0
M  V30 6366 H 625.326 -4.99668 -0.959647 0
M  V30 6367 H 624.724 -4.01468 -3.98547 0
M  V30 6368 H 623.281 -4.88845 -4.31131 0
M  V30 6369 N 626.714 -0.118576 -1.57153 0
M  V30 6370 C 627.963 0.539339 -1.94355 0
M  V30 6371 C 628.276 1.67858 -1.00415 0
M  V30 6372 O 629.482 2.39922 -1.27081 0
M  V30 6373 C 627.938 1.01082 -3.45414 0
M  V30 6374 C 627.546 -0.0999402 -4.47889 0
M  V30 6375 C 629.29 1.64013 -3.91535 0
M  V30 6376 C 627.197 0.388212 -5.90124 0
M  V30 6377 H 626.127 0.205247 -0.725527 0
M  V30 6378 H 628.778 -0.19836 -1.82425 0
M  V30 6379 H 627.16 1.80292 -3.52577 0
M  V30 6380 H 628.334 -0.876189 -4.52393 0
M  V30 6381 H 626.649 -0.635885 -4.11516 0
M  V30 6382 H 629.246 2.01649 -4.95219 0
M  V30 6383 H 629.589 2.51836 -3.31488 0
M  V30 6384 H 630.122 0.913439 -3.87171 0
M  V30 6385 H 626.861 -0.453963 -6.53926 0
M  V30 6386 H 626.381 1.13095 -5.89041 0
M  V30 6387 H 628.06 0.849574 -6.41398 0
M  V30 6388 N 628.193 1.56834 0.155195 0
M  V30 6389 C 629.433 1.84701 0.875488 0
M  V30 6390 C 629.797 0.701747 1.78716 0
M  V30 6391 O 630.998 0.861263 2.54629 0
M  V30 6392 C 629.269 3.1773 1.63654 0
M  V30 6393 S 630.828 3.67128 2.40338 0
M  V30 6394 H 627.646 0.647856 0.292923 0
M  V30 6395 H 630.248 1.95026 0.136024 0
M  V30 6396 H 628.952 3.99059 0.958117 0
M  V30 6397 H 628.483 3.10388 2.41708 0
M  V30 6398 H 630.498 3.35739 3.65368 0
M  V30 6399 N 629.671 -0.424282 1.51781 0
M  V30 6400 C 631.087 -0.761768 1.40247 0
M  V30 6401 C 631.287 -1.95324 0.495041 0
M  V30 6402 O 630.343 -2.5246 -0.0448949 0
M  V30 6403 C 631.656 -1.0299 2.82513 0
M  V30 6404 C 633.204 -1.13354 2.91753 0
M  V30 6405 C 633.679 -1.43453 4.34954 0
M  V30 6406 N 635.17 -1.5035 4.3812 0
M  V30 6407 C 635.905 -1.75236 5.45967 0
M  V30 6408 N 635.401 -1.97827 6.63955 0
M  V30 6409 N 637.194 -1.77126 5.33463 0
M  V30 6410 H 629.345 0.360228 2.09323 0
M  V30 6411 H 631.608 0.0988128 0.942836 0
M  V30 6412 H 631.314 -0.226961 3.50967 0
M  V30 6413 H 631.188 -1.95411 3.22637 0
M  V30 6414 H 633.575 -1.92709 2.23489 0
M  V30 6415 H 633.656 -0.188041 2.55108 0
M  V30 6416 H 633.3 -0.646209 5.03772 0
M  V30 6417 H 633.23 -2.3923 4.69123 0
M  V30 6418 H 635.721 -1.34742 3.53062 0
M  V30 6419 H 636.034 -2.16223 7.41935 0
M  V30 6420 H 634.379 -1.95123 6.67047 0
M  V30 6421 H 637.57 -1.59005 4.40267 0
M  V30 6422 H 637.743 -1.96182 6.17589 0
M  V30 6423 N 631.149 -1.42148 -0.680565 0
M  V30 6424 C 632.379 -1.45485 -1.46689 0
M  V30 6425 C 632.787 -0.0629451 -1.89095 0
M  V30 6426 O 632.13 0.931397 -1.58337 0
M  V30 6427 C 632.192 -2.31397 -2.75129 0
M  V30 6428 C 631.856 -3.79353 -2.54834 0
M  V30 6429 C 632.853 -4.71148 -2.19808 0
M  V30 6430 C 630.538 -4.23557 -2.70008 0
M  V30 6431 C 632.532 -6.05139 -2.00215 0
M  V30 6432 C 630.219 -5.57609 -2.50031 0
M  V30 6433 C 631.217 -6.48216 -2.15187 0
M  V30 6434 O 630.905 -7.79792 -1.95397 0
M  V30 6435 H 630.637 -0.497139 -0.458071 0
M  V30 6436 H 633.191 -1.87252 -0.844139 0
M  V30 6437 H 631.421 -1.84468 -3.39865 0
M  V30 6438 H 633.11 -2.26257 -3.36991 0
M  V30 6439 H 633.876 -4.38282 -2.07686 0
M  V30 6440 H 629.755 -3.53327 -2.96109 0
M  V30 6441 H 633.299 -6.75823 -1.72941 0
M  V30 6442 H 629.196 -5.9005 -2.61748 0
M  V30 6443 H 629.964 -7.91091 -2.10042 0
M  V30 6444 N 632.627 0.916307 -1.28225 0
M  V30 6445 C 633.874 1.66518 -1.1523 0
M  V30 6446 C 634.202 1.92178 0.299632 0
M  V30 6447 O 633.457 1.51842 1.2346 0
M  V30 6448 C 633.756 3.03125 -1.8934 0
M  V30 6449 C 633.422 2.97135 -3.39148 0
M  V30 6450 C 632.084 2.95208 -3.80007 0
M  V30 6451 C 634.436 2.87574 -4.34685 0
M  V30 6452 C 631.764 2.81518 -5.14747 0
M  V30 6453 C 634.116 2.75424 -5.69495 0
M  V30 6454 C 632.78 2.71854 -6.09632 0
M  V30 6455 H 632.05 0.609334 -0.421655 0
M  V30 6456 H 634.697 1.06776 -1.58969 0
M  V30 6457 H 633.002 3.66639 -1.38143 0
M  V30 6458 H 634.699 3.59968 -1.76704 0
M  V30 6459 H 631.289 2.99428 -3.06661 0
M  V30 6460 H 635.473 2.88152 -4.04082 0
M  V30 6461 H 630.729 2.77148 -5.44976 0
M  V30 6462 H 634.903 2.66993 -6.43185 0
M  V30 6463 H 632.53 2.61003 -7.1399 0
M  V30 6464 N 634.105 1.10431 1.1244 0
M  V30 6465 C 635.053 0.747974 2.20246 0
M  V30 6466 C 636.047 -0.255848 1.67457 0
M  V30 6467 O 637.253 -0.116221 1.79624 0
M  V30 6468 H 633.628 0.223946 0.71788 0
M  V30 6469 H 635.599 1.6661 2.47556 0
M  V30 6470 C 634.348 0.195957 3.47147 0
M  V30 6471 H 633.671 0.959606 3.88113 0
M  V30 6472 H 635.111 -0.0153154 4.23997 0
M  V30 6473 C 633.57 -1.07132 3.19413 0
M  V30 6474 O 634.1 -2.15284 3.3914 0
M  V30 6475 N 632.306 -0.98994 2.73219 0
M  V30 6476 H 631.853 -0.109736 2.57366 0
M  V30 6477 H 631.811 -1.83856 2.55038 0
M  V30 6478 N 635.583 -1.29855 0.893053 0
M  V30 6479 C 636.531 -2.29867 0.355512 0
M  V30 6480 C 637.525 -1.60502 -0.541801 0
M  V30 6481 O 638.731 -1.74902 -0.425339 0
M  V30 6482 H 635.106 -0.745805 0.0963247 0
M  V30 6483 H 637.077 -2.72655 1.21252 0
M  V30 6484 C 635.826 -3.453 -0.407801 0
M  V30 6485 H 635.149 -3.98864 0.273426 0
M  V30 6486 H 636.589 -4.17334 -0.748887 0
M  V30 6487 C 635.048 -2.96051 -1.60795 0
M  V30 6488 O 635.578 -2.96763 -2.7073 0
M  V30 6489 N 633.784 -2.51963 -1.44786 0
M  V30 6490 H 633.331 -2.51583 -0.553498 0
M  V30 6491 H 633.289 -2.1937 -2.2522 0
M  V30 6492 N 637.061 -0.65484 -1.43351 0
M  V30 6493 C 638.307 -0.177749 -2.02622 0
M  V30 6494 C 638.662 1.19553 -1.50748 0
M  V30 6495 O 637.955 1.78683 -0.691599 0
M  V30 6496 C 638.149 -0.130424 -3.57162 0
M  V30 6497 C 637.978 -1.49757 -4.24032 0
M  V30 6498 C 636.748 -2.09036 -4.60035 0
M  V30 6499 C 638.946 -2.4363 -4.52934 0
M  V30 6500 N 636.928 -3.3874 -5.11985 0
M  V30 6501 C 638.299 -3.57968 -5.0622 0
M  V30 6502 C 640.354 -2.42412 -4.34903 0
M  V30 6503 C 639.057 -4.71314 -5.43374 0
M  V30 6504 C 641.083 -3.5484 -4.7312 0
M  V30 6505 C 640.445 -4.67903 -5.26541 0
M  V30 6506 H 636.544 -0.10951 -0.774294 0
M  V30 6507 H 639.128 -0.863495 -1.74505 0
M  V30 6508 H 637.299 0.524671 -3.8484 0
M  V30 6509 H 639.031 0.35769 -4.03116 0
M  V30 6510 H 635.786 -1.61729 -4.4513 0
M  V30 6511 H 636.21 -4.05116 -5.42412 0
M  V30 6512 H 640.852 -1.56236 -3.92874 0
M  V30 6513 H 638.57 -5.5818 -5.84346 0
M  V30 6514 H 642.156 -3.55101 -4.60863 0
M  V30 6515 H 641.036 -5.5346 -5.55564 0
M  V30 6516 N 638.539 1.52521 -0.396863 0
M  V30 6517 C 639.764 2.06571 0.185258 0
M  V30 6518 C 640.189 1.26605 1.39115 0
M  V30 6519 O 639.547 0.293055 1.78916 0
M  V30 6520 C 639.595 3.5674 0.526189 0
M  V30 6521 O 638.699 3.7929 1.61903 0
M  V30 6522 H 638.04 0.663712 0.0195474 0
M  V30 6523 H 640.57 1.966 -0.566519 0
M  V30 6524 H 640.58 4.00311 0.788338 0
M  V30 6525 H 639.255 4.14379 -0.355397 0
M  V30 6526 H 637.832 3.47605 1.35 0
M  V30 6527 N 640.017 0.126909 1.57088 0
M  V30 6528 C 641.265 -0.528123 1.95078 0
M  V30 6529 C 641.586 -1.66708 1.0116 0
M  V30 6530 O 640.856 -1.95777 0.0693527 0
M  V30 6531 H 639.436 -0.198087 0.720257 0
M  V30 6532 H 642.098 0.197703 1.93895 0
M  V30 6533 H 641.194 -0.917507 2.98309 0
M  V30 6534 N 641.495 -1.56914 -0.146875 0
M  V30 6535 C 642.72 -1.87881 -0.878386 0
M  V30 6536 C 643.145 -0.715945 -1.73942 0
M  V30 6537 O 642.503 0.334447 -1.78189 0
M  V30 6538 C 642.551 -3.17431 -1.71084 0
M  V30 6539 O 641.655 -3.01374 -2.81509 0
M  V30 6540 H 640.996 -0.617289 -0.244644 0
M  V30 6541 H 643.526 -2.04136 -0.137654 0
M  V30 6542 H 643.536 -3.49455 -2.10582 0
M  V30 6543 H 642.211 -4.01671 -1.07856 0
M  V30 6544 H 640.788 -2.80758 -2.45416 0
M  V30 6545 N 642.974 0.416227 -1.52004 0
M  V30 6546 C 644.223 1.16088 -1.64944 0
M  V30 6547 C 644.536 1.91835 -0.381928 0
M  V30 6548 O 645.742 2.6867 -0.391013 0
M  V30 6549 C 644.198 2.1124 -2.91386 0
M  V30 6550 C 643.806 1.41042 -4.25219 0
M  V30 6551 C 645.55 2.86008 -3.13688 0
M  V30 6552 C 643.457 2.34801 -5.42791 0
M  V30 6553 H 642.387 0.437041 -0.61442 0
M  V30 6554 H 645.038 0.425971 -1.78487 0
M  V30 6555 H 643.42 2.88254 -2.71525 0
M  V30 6556 H 644.594 0.694416 -4.55538 0
M  V30 6557 H 642.909 0.78344 -4.08964 0
M  V30 6558 H 645.506 3.56286 -3.98703 0
M  V30 6559 H 645.849 3.48556 -2.27628 0
M  V30 6560 H 646.382 2.16095 -3.33988 0
M  V30 6561 H 643.121 1.7691 -6.31176 0
M  V30 6562 H 642.641 3.04395 -5.16821 0
M  V30 6563 H 644.32 2.9548 -5.75587 0
M  V30 6564 N 644.452 1.42507 0.673017 0
M  V30 6565 C 645.362 1.4853 1.81593 0
M  V30 6566 C 646.378 0.373907 1.69935 0
M  V30 6567 O 647.554 0.625078 1.91454 0
M  V30 6568 C 644.619 1.387 3.17747 0
M  V30 6569 C 643.68 2.60346 3.41348 0
M  V30 6570 C 642.913 2.50975 4.71007 0
M  V30 6571 O 643.136 1.54659 5.49033 0
M  V30 6572 O 642.07 3.41138 4.95892 0
M  V30 6573 H 645.896 2.45001 1.79467 0
M  V30 6574 H 643.481 1.2429 0.82899 0
M  V30 6575 H 645.363 1.35586 3.98992 0
M  V30 6576 H 644.038 0.453555 3.20507 0
M  V30 6577 H 642.945 2.69034 2.59945 0
M  V30 6578 H 644.278 3.52595 3.43421 0
M  V30 6579 N 645.93 -0.909495 1.28709 0
M  V30 6580 C 647.179 -1.65365 1.15487 0
M  V30 6581 C 647.492 -1.93364 -0.294941 0
M  V30 6582 O 648.698 -2.65905 -0.548338 0
M  V30 6583 C 647.154 -2.97923 2.01916 0
M  V30 6584 C 646.762 -2.77556 3.51663 0
M  V30 6585 C 648.506 -3.75814 1.97393 0
M  V30 6586 C 646.413 -4.0578 4.30229 0
M  V30 6587 H 645.343 -0.620323 0.42862 0
M  V30 6588 H 647.994 -1.00894 1.53273 0
M  V30 6589 H 646.376 -3.63552 1.5699 0
M  V30 6590 H 647.55 -2.2058 4.04575 0
M  V30 6591 H 645.865 -2.13072 3.57756 0
M  V30 6592 H 648.462 -4.70866 2.53357 0
M  V30 6593 H 648.805 -4.05277 0.951643 0
M  V30 6594 H 649.338 -3.1701 2.40311 0
M  V30 6595 H 646.077 -3.81488 5.33055 0
M  V30 6596 H 645.597 -4.62351 3.82089 0
M  V30 6597 H 647.276 -4.74004 4.40374 0
M  V30 6598 N 647.408 -1.11026 -1.11852 0
M  V30 6599 C 648.636 -0.878818 -1.87308 0
M  V30 6600 C 649.051 0.57111 -1.79955 0
M  V30 6601 O 648.408 1.39409 -1.17777 0
M  V30 6602 C 648.459 -1.3264 -3.36287 0
M  V30 6603 O 648.18 -2.71948 -3.43476 0
M  V30 6604 C 649.681 -1.12974 -4.28663 0
M  V30 6605 H 646.901 -0.315015 -0.592458 0
M  V30 6606 H 649.445 -1.47649 -1.41492 0
M  V30 6607 H 647.6 -0.772269 -3.79625 0
M  V30 6608 H 648.014 -2.91241 -4.3621 0
M  V30 6609 H 649.488 -1.49198 -5.31454 0
M  V30 6610 H 649.965 -0.0689127 -4.39146 0
M  V30 6611 H 650.571 -1.67064 -3.91113 0
M  V30 6612 N 648.886 1.2938 -0.899927 0
M  V30 6613 C 650.133 1.9555 -0.525963 0
M  V30 6614 C 650.461 1.70945 0.927789 0
M  V30 6615 O 649.716 1.01545 1.67293 0
M  V30 6616 C 650.015 3.49114 -0.765113 0
M  V30 6617 C 649.681 3.93796 -2.19626 0
M  V30 6618 C 648.343 4.05707 -2.58758 0
M  V30 6619 C 650.695 4.16883 -3.12823 0
M  V30 6620 C 648.023 4.38074 -3.90267 0
M  V30 6621 C 650.375 4.50725 -4.4388 0
M  V30 6622 C 649.039 4.60845 -4.82885 0
M  V30 6623 H 648.309 0.715569 -0.192463 0
M  V30 6624 H 650.956 1.53972 -1.13863 0
M  V30 6625 H 649.261 3.91738 -0.069531 0
M  V30 6626 H 650.958 3.98409 -0.455144 0
M  V30 6627 H 647.548 3.85042 -1.88256 0
M  V30 6628 H 651.732 4.07147 -2.83804 0
M  V30 6629 H 646.988 4.44112 -4.20207 0
M  V30 6630 H 651.162 4.67538 -5.16121 0
M  V30 6631 H 648.789 4.85681 -5.84823 0
M  V30 6632 N 650.364 0.662433 1.43002 0
M  V30 6633 C 651.297 -0.073459 2.28082 0
M  V30 6634 C 652.275 -0.820869 1.40358 0
M  V30 6635 O 653.459 -0.818545 1.698 0
M  V30 6636 C 650.586 -1.11097 3.19961 0
M  V30 6637 C 649.632 -0.460557 4.24006 0
M  V30 6638 S 650.465 0.772717 5.29896 0
M  V30 6639 C 651.621 -0.264028 6.25343 0
M  V30 6640 H 651.854 0.648227 2.90147 0
M  V30 6641 H 649.387 0.451566 1.47649 0
M  V30 6642 H 651.345 -1.70452 3.73439 0
M  V30 6643 H 650.006 -1.80503 2.57056 0
M  V30 6644 H 649.199 -1.24299 4.88432 0
M  V30 6645 H 648.801 0.0591038 3.73953 0
M  V30 6646 H 651.093 -1.12748 6.68052 0
M  V30 6647 H 652.036 0.345443 7.07257 0
M  V30 6648 H 652.444 -0.603964 5.6126 0
M  V30 6649 N 651.842 -1.52309 0.404946 0
M  V30 6650 C 653.089 -2.01767 -0.1722 0
M  V30 6651 C 653.417 -1.29075 -1.45498 0
M  V30 6652 O 652.672 -0.3843 -1.9189 0
M  V30 6653 C 652.971 -3.54284 -0.470895 0
M  V30 6654 C 652.637 -4.45079 0.722194 0
M  V30 6655 C 651.299 -4.69617 1.04946 0
M  V30 6656 C 653.651 -4.98555 1.51962 0
M  V30 6657 C 650.979 -5.44878 2.17543 0
M  V30 6658 C 653.331 -5.75049 2.63632 0
M  V30 6659 C 651.995 -5.9786 2.9685 0
M  V30 6660 H 651.265 -0.738316 -0.0630125 0
M  V30 6661 H 653.912 -1.83566 0.545506 0
M  V30 6662 H 652.217 -3.70642 -1.27012 0
M  V30 6663 H 653.914 -3.90058 -0.930346 0
M  V30 6664 H 650.504 -4.26155 0.457131 0
M  V30 6665 H 654.688 -4.79509 1.28002 0
M  V30 6666 H 649.944 -5.60762 2.43631 0
M  V30 6667 H 654.118 -6.15483 3.25813 0
M  V30 6668 H 651.745 -6.5596 3.84215 0
M  V30 6669 N 653.32 -0.135238 -1.57019 0
M  V30 6670 C 654.56 0.521686 -1.9763 0
M  V30 6671 C 654.924 1.62804 -1.01778 0
M  V30 6672 O 656.125 2.345 -1.31389 0
M  V30 6673 C 654.396 1.0257 -3.42365 0
M  V30 6674 S 655.955 1.68888 -4.04997 0
M  V30 6675 H 652.773 0.169064 -0.690607 0
M  V30 6676 H 655.375 -0.224168 -1.94211 0
M  V30 6677 H 654.079 0.209556 -4.09865 0
M  V30 6678 H 653.61 1.80645 -3.49472 0
M  V30 6679 H 655.625 2.97554 -3.97084 0
M  V30 6680 N 654.798 1.5699 0.138552 0
M  V30 6681 C 656.046 1.83446 0.848053 0
M  V30 6682 C 656.367 0.71744 1.81322 0
M  V30 6683 O 655.637 -0.260228 1.94164 0
M  V30 6684 H 654.217 0.676792 0.316166 0
M  V30 6685 H 656.879 1.94462 0.130538 0
M  V30 6686 H 655.975 2.78677 1.40518 0
M  V30 6687 N 656.276 -0.40816 1.52223 0
M  V30 6688 C 657.501 -1.18127 1.70472 0
M  V30 6689 C 657.926 -1.83491 0.41384 0
M  V30 6690 O 657.284 -1.70047 -0.628778 0
M  V30 6691 C 657.332 -2.21935 2.84213 0
M  V30 6692 O 656.436 -3.28099 2.4985 0
M  V30 6693 H 655.777 -0.344781 0.56747 0
M  V30 6694 H 658.307 -0.478328 1.9893 0
M  V30 6695 H 658.317 -2.66248 3.09153 0
M  V30 6696 H 656.992 -1.73744 3.7787 0
M  V30 6697 H 655.569 -2.89058 2.35584 0
M  V30 6698 N 657.755 -1.42862 -0.66545 0
M  V30 6699 C 659.002 -1.4383 -1.42546 0
M  V30 6700 C 659.33 -0.0581114 -1.94413 0
M  V30 6701 O 658.585 0.935002 -1.71919 0
M  V30 6702 C 658.884 -2.4175 -2.63233 0
M  V30 6703 C 658.55 -3.87915 -2.29854 0
M  V30 6704 C 657.212 -4.27726 -2.20463 0
M  V30 6705 C 659.564 -4.80074 -2.02924 0
M  V30 6706 C 656.892 -5.57666 -1.82279 0
M  V30 6707 C 659.244 -6.10366 -1.66242 0
M  V30 6708 C 657.908 -6.49167 -1.55367 0
M  V30 6709 H 657.178 -0.52631 -0.521612 0
M  V30 6710 H 659.825 -1.75863 -0.757914 0
M  V30 6711 H 658.13 -2.03077 -3.35063 0
M  V30 6712 H 659.827 -2.39759 -3.21429 0
M  V30 6713 H 656.417 -3.564 -2.3807 0
M  V30 6714 H 660.601 -4.50097 -2.09108 0
M  V30 6715 H 655.857 -5.8658 -1.72436 0
M  V30 6716 H 660.031 -6.81258 -1.44432 0
M  V30 6717 H 657.658 -7.49761 -1.2555 0
M  V30 6718 N 659.233 0.902656 -1.29189 0
M  V30 6719 C 660.166 2.00816 -1.0839 0
M  V30 6720 C 661.144 1.626 0.00335266 0
M  V30 6721 O 662.328 1.87928 -0.146765 0
M  V30 6722 C 659.455 3.32415 -0.649435 0
M  V30 6723 C 658.501 3.89617 -1.73496 0
M  V30 6724 S 659.334 4.19091 -3.33351 0
M  V30 6725 C 660.49 5.53736 -2.91766 0
M  V30 6726 H 660.723 2.18151 -2.01984 0
M  V30 6727 H 658.256 1.0489 -1.13303 0
M  V30 6728 H 660.214 4.08492 -0.405479 0
M  V30 6729 H 658.875 3.12964 0.266857 0
M  V30 6730 H 658.068 4.84658 -1.38284 0
M  V30 6731 H 657.67 3.20217 -1.93229 0
M  V30 6732 H 659.962 6.34085 -2.38627 0
M  V30 6733 H 660.905 5.93871 -3.85647 0
M  V30 6734 H 661.313 5.15453 -2.30149 0
M  V30 6735 N 660.711 1.11618 1.11262 0
M  V30 6736 C 661.674 0.779447 2.15539 0
M  V30 6737 C 662.674 -0.202081 1.59525 0
M  V30 6738 O 663.864 0.0226356 1.74185 0
M  V30 6739 C 660.996 0.15674 3.40539 0
M  V30 6740 H 662.189 1.70324 2.4684 0
M  V30 6741 H 659.742 0.918298 1.26479 0
M  V30 6742 H 660.477 -0.777186 3.1485 0
M  V30 6743 H 660.262 0.863308 3.82478 0
M  V30 6744 H 661.752 -0.062661 4.17553 0
M  V30 6745 N 662.189 -1.289 0.906776 0
M  V30 6746 C 663.417 -1.99401 0.551969 0
M  V30 6747 C 663.832 -1.67816 -0.865048 0
M  V30 6748 O 663.189 -0.927078 -1.57199 0
M  V30 6749 C 663.24 -3.53779 0.743152 0
M  V30 6750 O 662.961 -3.84248 2.1044 0
M  V30 6751 C 664.462 -4.41543 0.39424 0
M  V30 6752 H 661.682 -0.636926 0.211106 0
M  V30 6753 H 664.226 -1.64266 1.21807 0
M  V30 6754 H 662.381 -3.87201 0.124143 0
M  V30 6755 H 662.795 -4.78904 2.13895 0
M  V30 6756 H 664.269 -5.48957 0.578814 0
M  V30 6757 H 664.746 -4.34073 -0.669137 0
M  V30 6758 H 665.352 -4.13605 0.990491 0
M  V30 6759 N 663.667 -0.670007 -1.42649 0
M  V30 6760 C 664.915 -0.18991 -2.01206 0
M  V30 6761 C 665.236 1.20617 -1.53221 0
M  V30 6762 O 664.506 1.80898 -0.751856 0
M  V30 6763 H 663.086 -0.0672189 -0.743969 0
M  V30 6764 H 665.748 -0.865442 -1.74631 0
M  V30 6765 H 664.844 -0.187481 -3.11536 0
M  V30 6766 N 665.145 1.52092 -0.413018 0
M  V30 6767 C 666.092 2.27119 0.410558 0
M  V30 6768 C 667.062 1.29692 1.03774 0
M  V30 6769 O 668.247 1.58561 1.06128 0
M  V30 6770 C 665.387 3.09863 1.51918 0
M  V30 6771 C 664.5 4.22252 0.912528 0
M  V30 6772 C 663.635 4.92348 1.99417 0
M  V30 6773 C 662.674 5.96694 1.36466 0
M  V30 6774 N 661.811 6.60292 2.38661 0
M  V30 6775 H 666.651 2.97067 -0.235661 0
M  V30 6776 H 664.188 1.46542 -0.128055 0
M  V30 6777 H 666.146 3.56144 2.17295 0
M  V30 6778 H 664.776 2.42078 2.13537 0
M  V30 6779 H 663.828 3.80113 0.147697 0
M  V30 6780 H 665.14 4.9709 0.412717 0
M  V30 6781 H 664.294 5.42054 2.72512 0
M  V30 6782 H 663.033 4.17087 2.52764 0
M  V30 6783 H 662.038 5.46304 0.61906 0
M  V30 6784 H 663.263 6.73899 0.838827 0
M  V30 6785 H 661.209 5.87858 2.91134 0
M  V30 6786 H 661.126 7.30816 1.93503 0
M  V30 6787 H 662.394 7.14635 3.11314 0
M  V30 6788 N 666.623 0.143563 1.56945 0
M  V30 6789 C 667.872 -0.50835 1.95189 0
M  V30 6790 C 668.185 -1.66239 1.03073 0
M  V30 6791 O 669.391 -2.3787 1.30882 0
M  V30 6792 C 667.847 -0.955735 3.46978 0
M  V30 6793 C 667.455 0.171183 4.47673 0
M  V30 6794 C 669.199 -1.57763 3.94095 0
M  V30 6795 C 667.106 -0.294279 5.90667 0
M  V30 6796 H 666.036 -0.193679 0.728701 0
M  V30 6797 H 668.687 0.227357 1.82086 0
M  V30 6798 H 667.069 -1.7466 3.55401 0
M  V30 6799 H 668.243 0.948049 4.50942 0
M  V30 6800 H 666.558 0.701273 4.10452 0
M  V30 6801 H 669.155 -1.93745 4.98364 0
M  V30 6802 H 669.498 -2.46531 3.35452 0
M  V30 6803 H 670.031 -0.851728 3.88575 0
M  V30 6804 H 666.77 0.557939 6.53121 0
M  V30 6805 H 666.29 -1.0371 5.90766 0
M  V30 6806 H 667.969 -0.747426 6.42668 0
M  V30 6807 N 668.101 -1.57061 -0.130224 0
M  V30 6808 C 669.031 -2.02552 -1.16168 0
M  V30 6809 C 670.012 -0.907971 -1.4384 0
M  V30 6810 O 671.197 -1.17693 -1.54473 0
M  V30 6811 C 668.327 -2.42035 -2.49071 0
M  V30 6812 C 667.281 -3.5713 -2.35886 0
M  V30 6813 C 666.607 -3.82478 -3.7365 0
M  V30 6814 C 667.907 -4.89236 -1.8288 0
M  V30 6815 H 669.601 -2.8897 -0.783359 0
M  V30 6816 H 667.147 -1.39021 -0.375376 0
M  V30 6817 H 669.1 -2.72462 -3.21469 0
M  V30 6818 H 667.824 -1.52573 -2.88771 0
M  V30 6819 H 666.483 -3.26895 -1.65938 0
M  V30 6820 H 666.131 -2.9024 -4.10816 0
M  V30 6821 H 665.831 -4.59944 -3.65685 0
M  V30 6822 H 667.355 -4.15347 -4.47571 0
M  V30 6823 H 668.769 -5.18272 -2.45085 0
M  V30 6824 H 667.166 -5.70624 -1.85763 0
M  V30 6825 H 668.236 -4.78494 -0.785571 0
M  V30 6826 N 669.579 0.400081 -1.52437 0
M  V30 6827 C 670.828 1.14332 -1.66166 0
M  V30 6828 C 671.141 1.91419 -0.402253 0
M  V30 6829 O 672.347 2.6824 -0.419487 0
M  V30 6830 C 670.803 2.08137 -2.9361 0
M  V30 6831 C 670.411 1.36524 -4.26691 0
M  V30 6832 C 672.155 2.82664 -3.16703 0
M  V30 6833 C 670.062 2.29031 -5.45251 0
M  V30 6834 H 668.992 0.430499 -0.61902 0
M  V30 6835 H 671.643 0.407017 -1.78929 0
M  V30 6836 H 670.025 2.85358 -2.74567 0
M  V30 6837 H 671.199 0.646061 -4.56249 0
M  V30 6838 H 669.514 0.74002 -4.09771 0
M  V30 6839 H 672.111 3.52037 -4.0246 0
M  V30 6840 H 672.454 3.46122 -2.31312 0
M  V30 6841 H 672.987 2.12541 -3.36261 0
M  V30 6842 H 669.726 1.70206 -6.33017 0
M  V30 6843 H 669.246 2.98896 -5.2002 0
M  V30 6844 H 670.925 2.89359 -5.78689 0
M  V30 6845 N 671.057 1.43213 0.657864 0
M  V30 6846 C 672.02 1.47687 1.75275 0
M  V30 6847 C 673.02 0.362179 1.56668 0
M  V30 6848 O 674.21 0.623734 1.62651 0
M  V30 6849 C 671.342 1.32497 3.14098 0
M  V30 6850 H 672.535 2.4519 1.7269 0
M  V30 6851 H 670.088 1.2991 0.869087 0
M  V30 6852 H 670.823 0.359831 3.22298 0
M  V30 6853 H 670.608 2.13299 3.29008 0
M  V30 6854 H 672.098 1.38549 3.93946 0
M  V30 6855 N 672.536 -0.895792 1.29666 0
M  V30 6856 C 673.766 -1.67757 1.20586 0
M  V30 6857 C 674.174 -1.87729 -0.235432 0
M  V30 6858 O 673.517 -1.41706 -1.16898 0
M  V30 6859 C 673.579 -3.08117 1.85215 0
M  V30 6860 C 673.243 -3.1136 3.3452 0
M  V30 6861 C 674.24 -2.91217 4.30684 0
M  V30 6862 C 671.925 -3.33302 3.75786 0
M  V30 6863 C 673.919 -2.92955 5.66089 0
M  V30 6864 C 671.606 -3.3467 5.11311 0
M  V30 6865 C 672.604 -3.14519 6.06273 0
M  V30 6866 O 672.292 -3.15684 7.39323 0
M  V30 6867 H 672.024 -0.530601 0.418854 0
M  V30 6868 H 674.578 -1.12831 1.71634 0
M  V30 6869 H 672.808 -3.64661 1.28683 0
M  V30 6870 H 674.497 -3.68399 1.70403 0
M  V30 6871 H 675.263 -2.74074 4.00136 0
M  V30 6872 H 671.142 -3.48025 3.02324 0
M  V30 6873 H 674.686 -2.77145 6.40185 0
M  V30 6874 H 670.583 -3.51346 5.41504 0
M  V30 6875 H 671.351 -3.31924 7.48177 0
M  V30 6876 N 674.014 -1.12206 -1.10668 0
M  V30 6877 C 675.242 -0.898635 -1.86366 0
M  V30 6878 C 675.657 0.551991 -1.80551 0
M  V30 6879 O 675.014 1.38152 -1.19249 0
M  V30 6880 C 675.065 -1.36199 -3.34861 0
M  V30 6881 O 674.786 -2.75576 -3.40573 0
M  V30 6882 C 676.287 -1.17515 -4.2744 0
M  V30 6883 H 673.507 -0.321281 -0.589084 0
M  V30 6884 H 676.051 -1.49142 -1.39918 0
M  V30 6885 H 674.206 -0.81249 -3.78784 0
M  V30 6886 H 674.62 -2.95851 -4.33096 0
M  V30 6887 H 676.094 -1.54827 -5.29842 0
M  V30 6888 H 676.571 -0.115486 -4.39048 0
M  V30 6889 H 677.177 -1.71203 -3.89319 0
M  V30 6890 N 675.492 1.28418 -0.913599 0
M  V30 6891 C 676.903 1.77024 -0.593237 0
M  V30 6892 C 677.254 1.74779 0.891441 0
M  V30 6893 O 676.379 1.34237 1.69733 0
M  V30 6894 C 676.974 3.21456 -1.07011 0
M  V30 6895 C 675.533 3.67786 -0.800664 0
M  V30 6896 C 674.68 2.48185 -1.23691 0
M  V30 6897 H 677.631 1.14883 -1.09487 0
M  V30 6898 H 677.652 3.78269 -0.411481 0
M  V30 6899 H 677.164 3.23058 -2.1507 0
M  V30 6900 H 675.265 3.71644 0.266725 0
M  V30 6901 H 675.378 4.57934 -1.4083 0
M  V30 6902 H 673.742 2.46116 -0.655655 0
M  V30 6903 H 674.525 2.52506 -2.32585 0
M  V30 6904 N 676.97 0.677563 1.42291 0
M  V30 6905 C 678.381 0.277912 1.8462 0
M  V30 6906 C 678.732 -1.18048 1.56714 0
M  V30 6907 O 677.857 -1.90404 1.02836 0
M  V30 6908 C 678.452 0.497619 3.35126 0
M  V30 6909 C 677.011 0.152063 3.76093 0
M  V30 6910 C 676.158 0.78872 2.65847 0
M  V30 6911 H 679.109 0.879527 1.32098 0
M  V30 6912 H 679.13 -0.24939 3.79682 0
M  V30 6913 H 678.642 1.55913 3.55405 0
M  V30 6914 H 676.743 -0.905896 3.6142 0
M  V30 6915 H 676.856 0.594514 4.75397 0
M  V30 6916 H 675.22 0.219813 2.5375 0
M  V30 6917 H 676.003 1.85374 2.88949 0
M  V30 6918 N 678.448 -1.51871 0.421078 0
M  V30 6919 C 679.696 -2.01539 -0.150492 0
M  V30 6920 C 680.017 -1.30803 -1.44623 0
M  V30 6921 O 679.287 -0.437568 -1.90951 0
M  V30 6922 H 677.867 -0.744698 -0.0586041 0
M  V30 6923 H 680.529 -1.8668 0.560059 0
M  V30 6924 H 679.625 -3.10264 -0.338068 0
M  V30 6925 N 679.926 -0.151884 -1.56866 0
M  V30 6926 C 681.174 0.497021 -1.95893 0
M  V30 6927 C 681.495 1.65078 -1.03799 0
M  V30 6928 O 680.765 1.95642 -0.10049 0
M  V30 6929 H 679.345 0.186603 -0.723318 0
M  V30 6930 H 682.007 -0.228525 -1.93556 0
M  V30 6931 H 681.103 0.869933 -2.99731 0
M  V30 6932 N 681.404 1.57128 0.121893 0
M  V30 6933 C 682.629 1.89254 0.848385 0
M  V30 6934 C 683.054 0.743527 1.72781 0
M  V30 6935 O 682.412 -0.306056 1.78698 0
M  V30 6936 C 682.46 3.20113 1.66012 0
M  V30 6937 O 681.564 3.05815 2.76679 0
M  V30 6938 H 680.905 0.621103 0.234793 0
M  V30 6939 H 683.435 2.0433 0.10516 0
M  V30 6940 H 683.445 3.52761 2.04996 0
M  V30 6941 H 682.12 4.03336 1.01452 0
M  V30 6942 H 680.697 2.84627 2.40918 0
M  V30 6943 N 682.882 -0.391992 1.52647 0
M  V30 6944 C 683.845 -1.46135 1.7657 0
M  V30 6945 C 684.845 -1.47701 0.635698 0
M  V30 6946 O 686.035 -1.48924 0.903728 0
M  V30 6947 C 683.167 -2.85443 1.86374 0
M  V30 6948 H 684.36 -1.26208 2.72051 0
M  V30 6949 H 681.913 -0.623549 1.43323 0
M  V30 6950 H 682.648 -3.10718 0.928685 0
M  V30 6951 H 682.433 -2.85708 2.68539 0
M  V30 6952 H 683.923 -3.62933 2.06566 0
M  V30 6953 N 684.36 -1.4356 -0.65026 0
M  V30 6954 C 685.771 -1.40324 -1.2315 0
M  V30 6955 C 686.122 -0.108812 -1.95898 0
M  V30 6956 O 685.247 0.79163 -2.01401 0
M  V30 6957 C 685.842 -2.54195 -2.23987 0
M  V30 6958 C 684.401 -2.54215 -2.77582 0
M  V30 6959 C 683.548 -2.31752 -1.5227 0
M  V30 6960 H 686.499 -1.52418 -0.442095 0
M  V30 6961 H 686.52 -2.25854 -3.0622 0
M  V30 6962 H 686.032 -3.48392 -1.71011 0
M  V30 6963 H 684.133 -1.63907 -3.34612 0
M  V30 6964 H 684.246 -3.52081 -3.24925 0
M  V30 6965 H 682.61 -1.80476 -1.79723 0
M  V30 6966 H 683.393 -3.28037 -1.01225 0
M  V30 6967 N 685.838 0.888903 -1.30139 0
M  V30 6968 C 687.066 1.67358 -1.21651 0
M  V30 6969 C 687.481 1.87499 0.221246 0
M  V30 6970 O 686.838 1.41969 1.14677 0
M  V30 6971 C 686.889 3.05213 -1.93719 0
M  V30 6972 O 686.61 2.85984 -3.31881 0
M  V30 6973 C 688.111 3.9964 -1.9184 0
M  V30 6974 H 685.331 0.522365 -0.42116 0
M  V30 6975 H 687.875 1.11086 -1.71698 0
M  V30 6976 H 686.03 3.5823 -1.4748 0
M  V30 6977 H 686.444 3.73411 -3.68327 0
M  V30 6978 H 687.918 4.93749 -2.46811 0
M  V30 6979 H 688.395 4.29955 -0.896409 0
M  V30 6980 H 689.001 3.52558 -2.37872 0
M  V30 6981 N 687.317 1.12792 1.10072 0
M  V30 6982 C 688.594 0.796867 1.78632 0
M  V30 6983 C 688.974 -0.712739 1.98704 0
M  V30 6984 O 688.322 -1.64773 1.5831 0
M  V30 6985 C 688.532 1.57622 3.11378 0
M  V30 6986 C 689.88 1.76463 3.86194 0
M  V30 6987 O 690.904 1.54165 3.2111 0
M  V30 6988 O 689.763 2.13623 5.03018 0
M  V30 6989 H 686.857 0.290248 0.774394 0
M  V30 6990 H 689.403 1.23215 1.16688 0
M  V30 6991 H 688.175 2.60246 2.92212 0
M  V30 6992 H 687.798 1.13543 3.81043 0
M  V30 6993 N 688.795 -1.27931 0.920396 0
M  V30 6994 C 690.211 -1.47085 0.619537 0
M  V30 6995 C 690.411 -1.83463 -0.833291 0
M  V30 6996 O 689.467 -1.94363 -1.61181 0
M  V30 6997 C 690.78 -2.56878 1.56314 0
M  V30 6998 C 692.328 -2.70743 1.57058 0
M  V30 6999 C 692.803 -3.83687 2.50097 0
M  V30 7000 N 694.294 -3.9105 2.48262 0
M  V30 7001 C 695.029 -4.77842 3.16945 0
M  V30 7002 N 694.525 -5.69176 3.94982 0
M  V30 7003 N 696.318 -4.71509 3.06 0
M  V30 7004 H 688.469 -1.02601 1.85975 0
M  V30 7005 H 690.732 -0.511682 0.798051 0
M  V30 7006 H 690.438 -2.36923 2.59923 0
M  V30 7007 H 690.312 -3.54117 1.29928 0
M  V30 7008 H 692.699 -2.90083 0.541832 0
M  V30 7009 H 692.78 -1.74015 1.8749 0
M  V30 7010 H 692.424 -3.65101 3.53077 0
M  V30 7011 H 692.354 -4.79827 2.16964 0
M  V30 7012 H 694.845 -3.25738 1.91581 0
M  V30 7013 H 695.158 -6.32245 4.44394 0
M  V30 7014 H 693.503 -5.68995 3.99086 0
M  V30 7015 H 696.694 -3.99151 2.44533 0
M  V30 7016 H 696.867 -5.38933 3.59799 0
M  V30 7017 N 690.273 -0.685099 -1.4193 0
M  V30 7018 C 691.22 -0.0131869 -2.30796 0
M  V30 7019 C 692.19 0.782129 -1.46533 0
M  V30 7020 O 693.375 0.75229 -1.75343 0
M  V30 7021 C 690.515 0.924768 -3.32479 0
M  V30 7022 C 689.628 0.122181 -4.31827 0
M  V30 7023 C 688.763 1.05682 -5.20581 0
M  V30 7024 C 687.802 0.246526 -6.11603 0
M  V30 7025 N 686.939 1.13442 -6.92875 0
M  V30 7026 H 691.779 -0.776789 -2.87698 0
M  V30 7027 H 689.316 -0.394791 -1.41703 0
M  V30 7028 H 691.274 1.48251 -3.89971 0
M  V30 7029 H 689.904 1.65488 -2.77152 0
M  V30 7030 H 688.956 -0.552335 -3.76369 0
M  V30 7031 H 690.268 -0.506473 -4.96222 0
M  V30 7032 H 689.422 1.68415 -5.82856 0
M  V30 7033 H 688.161 1.71935 -4.56388 0
M  V30 7034 H 687.166 -0.393944 -5.48387 0
M  V30 7035 H 688.391 -0.412053 -6.77849 0
M  V30 7036 H 686.337 1.78316 -6.313 0
M  V30 7037 H 686.254 0.561089 -7.53915 0
M  V30 7038 H 687.522 1.74889 -7.59628 0
M  V30 7039 N 691.751 1.51645 -0.429126 0
M  V30 7040 C 692.976 2.06917 0.141399 0
M  V30 7041 C 693.401 1.29527 1.36398 0
M  V30 7042 O 692.759 0.33094 1.78254 0
M  V30 7043 C 692.807 3.57776 0.4504 0
M  V30 7044 O 691.911 3.82639 1.53821 0
M  V30 7045 H 691.252 0.663978 0.0054647 0
M  V30 7046 H 693.782 1.95355 -0.608093 0
M  V30 7047 H 693.792 4.01894 0.703249 0
M  V30 7048 H 692.467 4.13532 -0.443213 0
M  V30 7049 H 691.044 3.5039 1.27597 0
M  V30 7050 N 693.229 0.160201 1.56784 0
M  V30 7051 C 694.192 -0.760405 2.16219 0
M  V30 7052 C 695.192 -1.16595 1.10735 0
M  V30 7053 O 696.382 -1.08472 1.36306 0
M  V30 7054 C 693.514 -2.03358 2.73603 0
M  V30 7055 H 694.707 -0.243173 2.98912 0
M  V30 7056 H 692.26 -0.0893139 1.56045 0
M  V30 7057 H 692.995 -2.59416 1.94612 0
M  V30 7058 H 692.78 -1.75186 3.50788 0
M  V30 7059 H 694.27 -2.69081 3.19351 0
M  V30 7060 N 694.707 -1.5719 -0.113559 0
M  V30 7061 C 695.64 -1.9595 -1.16957 0
M  V30 7062 C 696.618 -0.829951 -1.39823 0
M  V30 7063 O 697.802 -1.08861 -1.53888 0
M  V30 7064 C 694.929 -2.2604 -2.52237 0
M  V30 7065 C 693.975 -3.48571 -2.45765 0
M  V30 7066 S 694.808 -5.00962 -1.89203 0
M  V30 7067 C 695.964 -5.3421 -3.26145 0
M  V30 7068 H 696.197 -2.85214 -0.839069 0
M  V30 7069 H 693.73 -1.51036 -0.320529 0
M  V30 7070 H 695.688 -2.44054 -3.30073 0
M  V30 7071 H 694.349 -1.3738 -2.82463 0
M  V30 7072 H 693.542 -3.67008 -3.45429 0
M  V30 7073 H 693.144 -3.29972 -1.76053 0
M  V30 7074 H 695.436 -5.29725 -4.22371 0
M  V30 7075 H 696.379 -6.35398 -3.12529 0
M  V30 7076 H 696.787 -4.61681 -3.24825 0
M  V30 7077 N 696.185 0.383891 -1.52853 0
M  V30 7078 C 697.115 1.47559 -1.80965 0
M  V30 7079 C 698.096 1.5669 -0.661986 0
M  V30 7080 O 699.281 1.71556 -0.910072 0
M  V30 7081 C 696.411 2.85114 -1.98312 0
M  V30 7082 C 695.365 2.9082 -3.14019 0
M  V30 7083 C 694.691 4.30873 -3.16627 0
M  V30 7084 C 695.991 2.60001 -4.52986 0
M  V30 7085 H 697.685 1.24283 -2.72386 0
M  V30 7086 H 695.231 0.596445 -1.31067 0
M  V30 7087 H 697.184 3.61496 -2.16561 0
M  V30 7088 H 695.908 3.09738 -1.03585 0
M  V30 7089 H 694.567 2.16886 -2.9556 0
M  V30 7090 H 694.215 4.52545 -2.19573 0
M  V30 7091 H 693.915 4.3561 -3.94357 0
M  V30 7092 H 695.439 5.09154 -3.37038 0
M  V30 7093 H 696.853 3.261 -4.71521 0
M  V30 7094 H 695.25 2.76081 -5.32822 0
M  V30 7095 H 696.32 1.5532 -4.59351 0
M  V30 7096 N 697.663 1.43903 0.642637 0
M  V30 7097 C 698.911 1.45791 1.39962 0
M  V30 7098 C 699.232 0.0873144 1.94804 0
M  V30 7099 O 698.502 -0.878825 1.75081 0
M  V30 7100 H 697.082 0.536797 0.519479 0
M  V30 7101 H 699.744 1.7959 0.757189 0
M  V30 7102 H 698.84 2.17665 2.2367 0
M  V30 7103 N 699.141 -0.881989 1.30609 0
M  V30 7104 C 700.369 -1.66711 1.22536 0
M  V30 7105 C 700.784 -1.87614 -0.2113 0
M  V30 7106 O 700.141 -1.42576 -1.13923 0
M  V30 7107 C 700.192 -3.04182 1.95335 0
M  V30 7108 O 699.913 -2.8422 3.33393 0
M  V30 7109 C 701.414 -3.98617 1.93956 0
M  V30 7110 H 698.634 -0.520124 0.423925 0
M  V30 7111 H 701.178 -1.10174 1.72285 0
M  V30 7112 H 699.333 -3.57442 1.49378 0
M  V30 7113 H 699.747 -3.71452 3.70302 0
M  V30 7114 H 701.221 -4.92433 2.49426 0
M  V30 7115 H 701.698 -4.29473 0.919198 0
M  V30 7116 H 702.304 -3.51292 2.39738 0
M  V30 7117 N 700.619 -1.13374 -1.09472 0
M  V30 7118 C 701.569 -0.77946 -2.14263 0
M  V30 7119 C 702.553 0.226271 -1.59301 0
M  V30 7120 O 703.745 0.0302581 -1.76974 0
M  V30 7121 C 700.874 -0.246635 -3.42413 0
M  V30 7122 C 699.96 -1.28124 -4.04283 0
M  V30 7123 N 700.351 -2.48201 -4.40715 0
M  V30 7124 C 698.649 -1.12892 -4.31476 0
M  V30 7125 C 699.35 -3.14347 -4.8945 0
M  V30 7126 N 698.326 -2.41771 -4.86876 0
M  V30 7127 H 702.128 -1.69305 -2.40235 0
M  V30 7128 H 699.642 -1.01598 -1.26695 0
M  V30 7129 H 701.639 0.0254131 -4.16892 0
M  V30 7130 H 700.299 0.661287 -3.17895 0
M  V30 7131 H 701.31 -2.85511 -4.32093 0
M  V30 7132 H 697.987 -0.279117 -4.16566 0
M  V30 7133 H 699.377 -4.16663 -5.27107 0
M  V30 7134 N 702.098 1.27442 -0.927168 0
M  V30 7135 C 703.344 1.94679 -0.568164 0
M  V30 7136 C 703.677 1.72697 0.888219 0
M  V30 7137 O 702.952 1.05573 1.63354 0
M  V30 7138 C 703.235 3.4882 -0.894253 0
M  V30 7139 C 703.088 3.80146 -2.40435 0
M  V30 7140 C 704.407 4.38281 -0.399766 0
M  V30 7141 H 701.526 0.707071 -0.207892 0
M  V30 7142 H 704.168 1.50568 -1.15885 0
M  V30 7143 H 702.318 3.86522 -0.391566 0
M  V30 7144 H 703.99 3.52238 -2.97869 0
M  V30 7145 H 702.233 3.26716 -2.85375 0
M  V30 7146 H 702.904 4.87835 -2.58304 0
M  V30 7147 H 705.38 4.07726 -0.83058 0
M  V30 7148 H 704.256 5.44955 -0.656885 0
M  V30 7149 H 704.517 4.36521 0.700153 0
M  V30 7150 N 703.576 0.692616 1.41565 0
M  V30 7151 C 704.825 0.219452 2.00503 0
M  V30 7152 C 705.138 -1.18683 1.55479 0
M  V30 7153 O 706.344 -1.75731 2.06956 0
M  V30 7154 C 704.8 0.341451 3.58277 0
M  V30 7155 C 704.408 1.75291 4.12283 0
M  V30 7156 C 706.152 -0.0720899 4.24439 0
M  V30 7157 C 704.059 1.82673 5.62481 0
M  V30 7158 H 702.989 0.0782874 0.749925 0
M  V30 7159 H 705.64 0.860386 1.62079 0
M  V30 7160 H 704.022 -0.367683 3.94289 0
M  V30 7161 H 705.196 2.49057 3.87695 0
M  V30 7162 H 703.511 2.11587 3.58636 0
M  V30 7163 H 706.108 -0.0373385 5.34687 0
M  V30 7164 H 706.451 -1.11034 4.0122 0
M  V30 7165 H 706.984 0.586663 3.9345 0
M  V30 7166 H 703.723 2.84539 5.90523 0
M  V30 7167 H 703.243 1.13288 5.89004 0
M  V30 7168 H 704.922 1.58827 6.27203 0
M  V30 7169 N 705.054 -1.51416 0.437162 0
M  V30 7170 C 706.3 -2.03035 -0.121818 0
M  V30 7171 C 706.655 -1.31551 -1.404 0
M  V30 7172 O 705.948 -0.421623 -1.86903 0
M  V30 7173 C 706.142 -3.55203 -0.39564 0
M  V30 7174 C 705.971 -4.4143 0.858452 0
M  V30 7175 C 704.741 -4.85751 1.39192 0
M  V30 7176 C 706.939 -4.83808 1.74454 0
M  V30 7177 N 704.921 -5.5619 2.59857 0
M  V30 7178 C 706.292 -5.53312 2.79724 0
M  V30 7179 C 708.347 -4.65795 1.75897 0
M  V30 7180 C 707.05 -6.06713 3.86383 0
M  V30 7181 C 709.076 -5.20112 2.81492 0
M  V30 7182 C 708.438 -5.89562 3.85482 0
M  V30 7183 H 704.537 -0.781981 -0.00541671 0
M  V30 7184 H 707.121 -1.85296 0.597792 0
M  V30 7185 H 705.292 -3.72958 -1.08429 0
M  V30 7186 H 707.024 -3.93489 -0.945963 0
M  V30 7187 H 703.779 -4.64058 0.945879 0
M  V30 7188 H 704.203 -5.96037 3.21044 0
M  V30 7189 H 708.845 -4.11562 0.968306 0
M  V30 7190 H 706.563 -6.6 4.66288 0
M  V30 7191 H 710.149 -5.08026 2.83551 0
M  V30 7192 H 709.029 -6.30838 4.65847 0
M  V30 7193 N 706.532 -0.168513 -1.56696 0
M  V30 7194 C 707.809 0.523367 -1.88468 0
M  V30 7195 C 708.189 1.81503 -1.07796 0
M  V30 7196 O 707.537 2.27859 -0.171045 0
M  V30 7197 C 707.747 0.767991 -3.40445 0
M  V30 7198 C 709.095 1.09924 -4.10124 0
M  V30 7199 O 710.119 0.856625 -3.45746 0
M  V30 7200 O 708.978 1.55681 -5.23856 0
M  V30 7201 H 706.072 0.269447 -0.781874 0
M  V30 7202 H 708.618 -0.206739 -1.68436 0
M  V30 7203 H 707.39 -0.145254 -3.9103 0
M  V30 7204 H 707.013 1.55151 -3.66079 0
M  V30 7205 N 708.01 1.57248 0.105221 0
M  V30 7206 C 709.257 1.8557 0.810552 0
M  V30 7207 C 709.585 0.755595 1.79223 0
M  V30 7208 O 708.84 -0.251788 1.94073 0
M  V30 7209 C 709.139 3.20437 1.58287 0
M  V30 7210 C 708.805 4.44716 0.744235 0
M  V30 7211 C 707.467 4.78458 0.513013 0
M  V30 7212 C 709.819 5.20953 0.160578 0
M  V30 7213 C 707.147 5.8587 -0.311894 0
M  V30 7214 C 709.499 6.29235 -0.651596 0
M  V30 7215 C 708.163 6.615 -0.893005 0
M  V30 7216 H 707.433 0.67905 0.296602 0
M  V30 7217 H 710.08 1.91363 0.0723968 0
M  V30 7218 H 708.385 3.10283 2.39232 0
M  V30 7219 H 710.082 3.39576 2.13282 0
M  V30 7220 H 706.672 4.18287 0.934555 0
M  V30 7221 H 710.856 4.95226 0.3264 0
M  V30 7222 H 706.112 6.09286 -0.508012 0
M  V30 7223 H 710.286 6.87484 -1.11077 0
M  V30 7224 H 707.913 7.44562 -1.53401 0
M  V30 7225 N 709.488 -0.375779 1.53054 0
M  V30 7226 C 710.736 -1.11727 1.68409 0
M  V30 7227 C 711.057 -1.90127 0.43323 0
M  V30 7228 O 710.327 -1.87945 -0.552595 0
M  V30 7229 H 708.907 -0.415451 0.620813 0
M  V30 7230 H 711.569 -0.424869 1.90213 0
M  V30 7231 H 710.665 -1.8128 2.54055 0
M  V30 7232 N 710.966 -1.44241 -0.634997 0
M  V30 7233 C 711.896 -1.53632 -1.7584 0
M  V30 7234 C 712.877 -0.389603 -1.65578 0
M  V30 7235 O 714.062 -0.609219 -1.84397 0
M  V30 7236 C 711.192 -1.47644 -3.14354 0
M  V30 7237 C 710.146 -2.60752 -3.394 0
M  V30 7238 C 709.472 -2.39817 -4.77904 0
M  V30 7239 C 710.772 -4.02921 -3.32343 0
M  V30 7240 H 712.466 -2.47662 -1.68238 0
M  V30 7241 H 710.012 -1.19197 -0.807969 0
M  V30 7242 H 711.965 -1.52815 -3.92716 0
M  V30 7243 H 710.689 -0.501284 -3.2273 0
M  V30 7244 H 709.348 -2.54965 -2.63417 0
M  V30 7245 H 708.996 -1.40502 -4.82978 0
M  V30 7246 H 708.696 -3.15649 -4.9562 0
M  V30 7247 H 710.22 -2.46799 -5.585 0
M  V30 7248 H 711.634 -4.10098 -4.00615 0
M  V30 7249 H 710.031 -4.78925 -3.61595 0
M  V30 7250 H 711.101 -4.26766 -2.30215 0
M  V30 7251 N 712.444 0.87505 -1.31075 0
M  V30 7252 C 713.376 1.98773 -1.14114 0
M  V30 7253 C 714.389 1.62595 -0.0816119 0
M  V30 7254 O 715.578 1.75449 -0.32861 0
M  V30 7255 C 712.678 3.31159 -0.720224 0
M  V30 7256 C 711.851 3.9571 -1.86366 0
M  V30 7257 C 710.91 5.06407 -1.42965 0
M  V30 7258 O 709.936 5.27501 -2.13848 0
M  V30 7259 N 711.138 5.79649 -0.314194 0
M  V30 7260 H 713.903 2.1387 -2.09951 0
M  V30 7261 H 711.464 1.04873 -1.23342 0
M  V30 7262 H 713.456 4.0259 -0.412687 0
M  V30 7263 H 712.026 3.12257 0.146396 0
M  V30 7264 H 711.246 3.17324 -2.33879 0
M  V30 7265 H 712.534 4.35576 -2.62966 0
M  V30 7266 H 711.932 5.65025 0.276228 0
M  V30 7267 H 710.489 6.51766 -0.0661641 0
M  V30 7268 N 713.922 1.13953 1.08869 0
M  V30 7269 C 715.147 0.928559 1.85452 0
M  V30 7270 C 715.572 -0.517642 1.80837 0
M  V30 7271 O 714.93 -1.36779 1.19001 0
M  V30 7272 C 714.978 1.42814 3.31114 0
M  V30 7273 O 714.082 0.617129 4.07756 0
M  V30 7274 H 713.423 0.33235 0.574839 0
M  V30 7275 H 715.953 1.5156 1.37443 0
M  V30 7276 H 715.963 1.43425 3.8196 0
M  V30 7277 H 714.638 2.48109 3.33788 0
M  V30 7278 H 713.215 0.679365 3.66659 0
M  V30 7279 N 715.4 -1.26948 0.933913 0
M  V30 7280 C 716.625 -1.98724 0.593589 0
M  V30 7281 C 717.05 -1.6915 -0.822801 0
M  V30 7282 O 716.408 -0.93533 -1.5531 0
M  V30 7283 C 716.456 -3.50834 0.833542 0
M  V30 7284 O 715.56 -4.12284 -0.0978788 0
M  V30 7285 H 714.901 -0.623683 0.227849 0
M  V30 7286 H 717.431 -1.61599 1.25486 0
M  V30 7287 H 717.441 -4.01018 0.75156 0
M  V30 7288 H 716.116 -3.71691 1.86597 0
M  V30 7289 H 714.693 -3.72884 0.0345443 0
M  V30 7290 N 716.879 -0.700114 -1.41195 0
M  V30 7291 C 717.842 -0.0465706 -2.29153 0
M  V30 7292 C 718.842 0.703302 -1.44604 0
M  V30 7293 O 720.032 0.537513 -1.657 0
M  V30 7294 C 717.164 0.944324 -3.2756 0
M  V30 7295 H 718.357 -0.821064 -2.88442 0
M  V30 7296 H 715.91 -0.463869 -1.49258 0
M  V30 7297 H 716.645 1.74642 -2.73259 0
M  V30 7298 H 716.43 0.409701 -3.89954 0
M  V30 7299 H 717.92 1.39925 -3.9346 0
M  V30 7300 N 718.357 1.51182 -0.445186 0
M  V30 7301 C 719.585 2.06568 0.117091 0
M  V30 7302 C 720 1.31182 1.35781 0
M  V30 7303 O 719.357 0.373605 1.78635 0
M  V30 7304 C 719.408 3.58917 0.431408 0
M  V30 7305 O 719.129 4.31456 -0.760078 0
M  V30 7306 C 720.63 4.30843 1.0435 0
M  V30 7307 H 717.85 0.670985 0.00444436 0
M  V30 7308 H 720.394 1.94666 -0.626525 0
M  V30 7309 H 718.549 3.70708 1.12493 0
M  V30 7310 H 718.963 5.22215 -0.489048 0
M  V30 7311 H 720.437 5.38499 1.21337 0
M  V30 7312 H 720.914 3.89644 2.02667 0
M  V30 7313 H 721.52 4.23516 0.38913 0
M  V30 7314 N 719.835 0.176821 1.56605 0
M  V30 7315 C 720.765 -0.746841 2.21234 0
M  V30 7316 C 721.746 -1.23502 1.16967 0
M  V30 7317 O 722.931 -1.28718 1.45414 0
M  V30 7318 C 720.061 -1.97407 2.8574 0
M  V30 7319 C 719.015 -1.62153 3.96094 0
M  V30 7320 C 718.341 -2.92387 4.47676 0
M  V30 7321 C 719.641 -0.845353 5.15413 0
M  V30 7322 H 721.335 -0.208116 2.98676 0
M  V30 7323 H 718.881 -0.0986594 1.43662 0
M  V30 7324 H 720.834 -2.62531 3.2963 0
M  V30 7325 H 719.558 -2.53703 2.05676 0
M  V30 7326 H 718.217 -0.993964 3.52868 0
M  V30 7327 H 717.865 -3.46734 3.64396 0
M  V30 7328 H 717.565 -2.69551 5.22127 0
M  V30 7329 H 719.089 -3.5853 4.94255 0
M  V30 7330 H 720.503 -1.39929 5.55961 0
M  V30 7331 H 718.9 -0.715814 5.95815 0
M  V30 7332 H 719.97 0.157239 4.84645 0
M  V30 7333 N 721.313 -1.57302 -0.09688 0
M  V30 7334 C 722.243 -2.0497 -1.11846 0
M  V30 7335 C 723.224 -0.938278 -1.41882 0
M  V30 7336 O 724.409 -1.20943 -1.51942 0
M  V30 7337 C 721.539 -2.47264 -2.43881 0
M  V30 7338 C 720.493 -3.62053 -2.28257 0
M  V30 7339 C 719.819 -3.90318 -3.65453 0
M  V30 7340 C 721.119 -4.93005 -1.72461 0
M  V30 7341 H 722.813 -2.90567 -0.721888 0
M  V30 7342 H 720.359 -1.39786 -0.345803 0
M  V30 7343 H 722.312 -2.7922 -3.15617 0
M  V30 7344 H 721.036 -1.58664 -2.8547 0
M  V30 7345 H 719.695 -3.30341 -1.58967 0
M  V30 7346 H 719.343 -2.98889 -4.04567 0
M  V30 7347 H 719.043 -4.67597 -3.55846 0
M  V30 7348 H 720.567 -4.24747 -4.3866 0
M  V30 7349 H 721.981 -5.23354 -2.34036 0
M  V30 7350 H 720.378 -5.74436 -1.73618 0
M  V30 7351 H 721.448 -4.80053 -0.683898 0
M  V30 7352 N 722.791 0.367657 -1.53252 0
M  V30 7353 C 724.04 1.10782 -1.68554 0
M  V30 7354 C 724.353 1.90523 -0.442765 0
M  V30 7355 O 725.559 2.6729 -0.47629 0
M  V30 7356 C 724.015 2.01863 -2.97959 0
M  V30 7357 C 723.623 1.27443 -4.29491 0
M  V30 7358 C 725.367 2.75883 -3.22628 0
M  V30 7359 C 723.274 2.17414 -5.49987 0
M  V30 7360 H 722.204 0.417272 -0.628013 0
M  V30 7361 H 724.855 0.368971 -1.79752 0
M  V30 7362 H 723.237 2.7947 -2.80558 0
M  V30 7363 H 724.411 0.549138 -4.57516 0
M  V30 7364 H 722.726 0.652935 -4.11249 0
M  V30 7365 H 725.323 3.43421 -4.09837 0
M  V30 7366 H 725.666 3.41138 -2.38601 0
M  V30 7367 H 726.199 2.0536 -3.40693 0
M  V30 7368 H 722.938 1.5674 -6.36485 0
M  V30 7369 H 722.458 2.87799 -5.26243 0
M  V30 7370 H 724.137 2.77019 -5.84696 0
M  V30 7371 N 724.269 1.44576 0.627338 0
M  V30 7372 C 725.68 1.42266 1.20902 0
M  V30 7373 C 726.031 0.139964 1.957 0
M  V30 7374 O 725.156 -0.759489 2.02634 0
M  V30 7375 C 725.751 2.57727 2.19914 0
M  V30 7376 C 724.31 2.58599 2.73502 0
M  V30 7377 C 723.457 2.34145 1.48564 0
M  V30 7378 H 726.408 1.53102 0.417791 0
M  V30 7379 H 726.429 2.30697 3.02588 0
M  V30 7380 H 725.941 3.51068 1.65447 0
M  V30 7381 H 724.042 1.6921 3.31962 0
M  V30 7382 H 724.155 3.57205 3.19282 0
M  V30 7383 H 722.519 1.83313 1.76829 0
M  V30 7384 H 723.302 3.29606 0.959935 0
M  V30 7385 N 725.747 -0.868086 1.31537 0
M  V30 7386 C 726.993 -1.62359 1.2252 0
M  V30 7387 C 727.348 -1.91204 -0.214169 0
M  V30 7388 O 726.641 -1.5339 -1.14813 0
M  V30 7389 C 726.835 -2.95889 2.0046 0
M  V30 7390 C 726.664 -2.80082 3.5183 0
M  V30 7391 C 725.434 -2.7917 4.21179 0
M  V30 7392 C 727.632 -2.54805 4.46743 0
M  V30 7393 N 725.614 -2.54433 5.58692 0
M  V30 7394 C 726.985 -2.39349 5.71937 0
M  V30 7395 C 729.04 -2.40165 4.36148 0
M  V30 7396 C 727.743 -2.1074 6.87736 0
M  V30 7397 C 729.769 -2.12945 5.51732 0
M  V30 7398 C 729.131 -1.98278 6.75918 0
M  V30 7399 H 725.23 -0.598381 0.503452 0
M  V30 7400 H 727.814 -1.02156 1.65748 0
M  V30 7401 H 725.985 -3.54095 1.59598 0
M  V30 7402 H 727.717 -3.60734 1.83447 0
M  V30 7403 H 724.472 -2.91621 3.73168 0
M  V30 7404 H 724.896 -2.45029 6.31102 0
M  V30 7405 H 729.538 -2.50231 3.408 0
M  V30 7406 H 727.256 -1.99412 7.8311 0
M  V30 7407 H 730.842 -2.02415 5.45454 0
M  V30 7408 H 729.722 -1.77514 7.63845 0
M  V30 7409 N 727.225 -1.14528 -1.08264 0
M  V30 7410 C 728.474 -0.908992 -1.80056 0
M  V30 7411 C 728.787 0.565859 -1.87236 0
M  V30 7412 O 729.993 0.919454 -2.55457 0
M  V30 7413 C 728.449 -1.57681 -3.23519 0
M  V30 7414 C 728.057 -3.08803 -3.24569 0
M  V30 7415 C 729.801 -1.4217 -3.99985 0
M  V30 7416 C 727.708 -3.68414 -4.62629 0
M  V30 7417 H 726.638 -0.336432 -0.674781 0
M  V30 7418 H 729.289 -1.37437 -1.21587 0
M  V30 7419 H 727.671 -1.03911 -3.82124 0
M  V30 7420 H 728.845 -3.69252 -2.75663 0
M  V30 7421 H 727.16 -3.23968 -2.61598 0
M  V30 7422 H 729.757 -1.84106 -5.02005 0
M  V30 7423 H 730.1 -0.367989 -4.1467 0
M  V30 7424 H 730.633 -1.92984 -3.47853 0
M  V30 7425 H 727.372 -4.73644 -4.53147 0
M  V30 7426 H 726.892 -3.12746 -5.11811 0
M  V30 7427 H 728.571 -3.68793 -5.31602 0
M  V30 7428 N 728.703 1.26451 -0.940633 0
M  V30 7429 C 729.928 1.98407 -0.60412 0
M  V30 7430 C 730.353 1.69584 0.81382 0
M  V30 7431 O 729.711 0.943553 1.54812 0
M  V30 7432 C 729.759 3.50387 -0.852136 0
M  V30 7433 O 728.863 4.1233 0.076013 0
M  V30 7434 H 728.204 0.622466 -0.231153 0
M  V30 7435 H 730.734 1.60932 -1.26342 0
M  V30 7436 H 730.744 4.00614 -0.772816 0
M  V30 7437 H 729.419 3.70696 -1.88566 0
M  V30 7438 H 727.996 3.7286 -0.0543187 0
M  V30 7439 N 730.181 0.707592 1.40822 0
M  V30 7440 C 731.129 0.0386643 2.32568 0
M  V30 7441 C 732.123 -0.755653 1.51612 0
M  V30 7442 O 733.329 -0.659921 1.67467 0
M  V30 7443 H 729.704 -0.00629912 0.751974 0
M  V30 7444 H 731.675 0.8293 2.86645 0
M  V30 7445 C 730.424 -0.87496 3.36511 0
M  V30 7446 H 729.747 -0.273157 3.98866 0
M  V30 7447 H 731.187 -1.31111 4.03219 0
M  V30 7448 C 729.646 -1.99672 2.71353 0
M  V30 7449 O 730.176 -3.08676 2.57064 0
M  V30 7450 N 728.382 -1.77799 2.29861 0
M  V30 7451 H 727.929 -0.89147 2.41683 0
M  V30 7452 H 727.887 -2.53036 1.86601 0
M  V30 7453 N 731.66 -1.50943 0.453197 0
M  V30 7454 C 732.888 -2.06628 -0.106135 0
M  V30 7455 C 733.303 -1.31901 -1.35084 0
M  V30 7456 O 732.66 -0.383074 -1.78434 0
M  V30 7457 C 732.711 -3.5914 -0.412368 0
M  V30 7458 O 732.432 -4.31047 0.782948 0
M  V30 7459 C 733.933 -4.31391 -1.02064 0
M  V30 7460 H 731.153 -0.670999 -0.000885896 0
M  V30 7461 H 733.697 -1.94331 0.63684 0
M  V30 7462 H 731.852 -3.71299 -1.10526 0
M  V30 7463 H 732.266 -5.21948 0.516736 0
M  V30 7464 H 733.74 -5.39135 -1.1848 0
M  V30 7465 H 734.217 -3.90714 -2.00598 0
M  V30 7466 H 734.823 -4.23716 -0.366664 0
M  V30 7467 N 733.138 -0.185124 -1.56509 0
M  V30 7468 C 734.378 0.458547 -1.9919 0
M  V30 7469 C 734.742 1.59484 -1.06906 0
M  V30 7470 O 735.943 2.30201 -1.38783 0
M  V30 7471 C 734.214 0.916263 -3.45455 0
M  V30 7472 S 735.773 1.55918 -4.10165 0
M  V30 7473 H 732.591 0.147008 -0.695636 0
M  V30 7474 H 735.193 -0.285841 -1.93399 0
M  V30 7475 H 733.897 0.0790543 -4.10324 0
M  V30 7476 H 733.428 1.69436 -3.55042 0
M  V30 7477 H 735.443 2.84771 -4.0635 0
M  V30 7478 N 734.616 1.57351 0.0885366 0
M  V30 7479 C 735.549 1.97786 1.13825 0
M  V30 7480 C 736.527 0.852091 1.38485 0
M  V30 7481 O 737.711 1.11296 1.52137 0
M  V30 7482 C 734.838 2.30024 2.48609 0
M  V30 7483 C 733.884 3.52437 2.40189 0
M  V30 7484 S 734.717 5.03908 1.81209 0
M  V30 7485 C 735.873 5.39331 3.17605 0
M  V30 7486 H 736.106 2.86513 0.793587 0
M  V30 7487 H 733.639 1.51527 0.29646 0
M  V30 7488 H 735.597 2.49274 3.26148 0
M  V30 7489 H 734.258 1.41856 2.80242 0
M  V30 7490 H 733.451 3.72457 3.39546 0
M  V30 7491 H 733.053 3.32731 1.70781 0
M  V30 7492 H 735.345 5.36378 4.13891 0
M  V30 7493 H 736.288 6.4029 3.02381 0
M  V30 7494 H 736.696 4.6679 3.17438 0
M  V30 7495 N 736.094 -0.359525 1.53444 0
M  V30 7496 C 737.51 -0.701599 1.43352 0
M  V30 7497 C 737.71 -1.93049 0.577439 0
M  V30 7498 O 736.766 -2.52423 0.0622224 0
M  V30 7499 C 738.079 -0.90915 2.86627 0
M  V30 7500 C 739.627 -1.00878 2.96298 0
M  V30 7501 C 740.102 -1.24876 4.40647 0
M  V30 7502 N 741.593 -1.31632 4.44103 0
M  V30 7503 C 742.328 -1.51922 5.52908 0
M  V30 7504 N 741.824 -1.69489 6.71748 0
M  V30 7505 N 743.617 -1.54341 5.40496 0
M  V30 7506 H 735.768 0.448685 2.07607 0
M  V30 7507 H 738.031 0.138713 0.937797 0
M  V30 7508 H 737.737 -0.0778997 3.51614 0
M  V30 7509 H 737.611 -1.81551 3.30634 0
M  V30 7510 H 739.998 -1.83057 2.31461 0
M  V30 7511 H 740.079 -0.0796721 2.55676 0
M  V30 7512 H 739.723 -0.431961 5.0606 0
M  V30 7513 H 739.653 -2.19118 4.78848 0
M  V30 7514 H 742.144 -1.19646 3.5846 0
M  V30 7515 H 742.457 -1.84561 7.50438 0
M  V30 7516 H 740.802 -1.66655 6.74723 0
M  V30 7517 H 743.993 -1.40188 4.46615 0
M  V30 7518 H 744.166 -1.69812 6.25354 0
M  V30 7519 N 737.572 -1.44907 -0.619662 0
M  V30 7520 C 738.52 -1.52971 -1.75222 0
M  V30 7521 C 739.514 -0.400531 -1.64597 0
M  V30 7522 O 740.72 -0.575952 -1.70537 0
M  V30 7523 H 737.095 -0.480241 -0.578682 0
M  V30 7524 H 739.066 -2.48269 -1.65545 0
M  V30 7525 C 737.815 -1.50204 -3.13583 0
M  V30 7526 H 737.138 -2.36412 -3.22412 0
M  V30 7527 H 738.578 -1.59905 -3.92691 0
M  V30 7528 C 737.037 -0.22455 -3.36151 0
M  V30 7529 O 737.567 0.700574 -3.95544 0
M  V30 7530 N 735.773 -0.124052 -2.90335 0
M  V30 7531 H 735.32 -0.87774 -2.42185 0
M  V30 7532 H 735.278 0.729914 -3.0581 0
M  V30 7533 N 739.05 0.861098 -1.31996 0
M  V30 7534 C 740.296 1.61721 -1.22369 0
M  V30 7535 C 740.629 1.93 0.215587 0
M  V30 7536 O 739.904 1.56789 1.15098 0
M  V30 7537 C 740.187 2.9417 -2.07691 0
M  V30 7538 C 740.04 2.69714 -3.59965 0
M  V30 7539 C 741.359 3.95372 -1.93312 0
M  V30 7540 H 738.478 0.586822 -0.44588 0
M  V30 7541 H 741.12 0.994788 -1.61876 0
M  V30 7542 H 739.27 3.47292 -1.74128 0
M  V30 7543 H 740.942 2.23196 -4.03709 0
M  V30 7544 H 739.185 2.03789 -3.82952 0
M  V30 7545 H 739.856 3.63996 -4.14983 0
M  V30 7546 H 742.332 3.51487 -2.22701 0
M  V30 7547 H 741.208 4.85916 -2.55298 0
M  V30 7548 H 741.469 4.32865 -0.898922 0
M  V30 7549 N 740.528 1.15101 1.07655 0
M  V30 7550 C 741.491 0.847625 2.12951 0
M  V30 7551 C 742.491 -0.151227 1.60087 0
M  V30 7552 O 743.681 0.0780399 1.74025 0
M  V30 7553 C 740.813 0.265 3.39868 0
M  V30 7554 H 742.006 1.7809 2.41296 0
M  V30 7555 H 739.559 0.958072 1.23494 0
M  V30 7556 H 740.294 -0.676625 3.17163 0
M  V30 7557 H 740.079 0.984554 3.79538 0
M  V30 7558 H 741.569 0.0702121 4.17541 0
M  V30 7559 N 742.006 -1.2595 0.947325 0
M  V30 7560 C 743.231 -1.98083 0.614633 0
M  V30 7561 C 743.656 -1.70013 -0.804815 0
M  V30 7562 O 743.014 -0.95175 -1.54309 0
M  V30 7563 C 743.062 -3.4993 0.870706 0
M  V30 7564 O 742.166 -4.12364 -0.0541451 0
M  V30 7565 H 741.507 -0.621232 0.234451 0
M  V30 7566 H 744.037 -1.60259 1.27193 0
M  V30 7567 H 744.047 -4.00198 0.794051 0
M  V30 7568 H 742.722 -3.69691 1.90529 0
M  V30 7569 H 741.299 -3.72826 0.0740917 0
M  V30 7570 N 743.484 -0.715051 -1.40445 0
M  V30 7571 C 744.414 -0.0768699 -2.33373 0
M  V30 7572 C 745.395 0.746109 -1.52863 0
M  V30 7573 O 746.58 0.695142 -1.81332 0
M  V30 7574 C 743.71 0.846014 -3.36838 0
M  V30 7575 C 742.664 0.128694 -4.27806 0
M  V30 7576 C 741.99 1.16726 -5.21804 0
M  V30 7577 C 743.29 -1.01679 -5.12307 0
M  V30 7578 H 744.984 -0.853061 -2.8699 0
M  V30 7579 H 742.53 -0.41167 -1.3799 0
M  V30 7580 H 744.483 1.30185 -4.00786 0
M  V30 7581 H 743.207 1.6541 -2.81615 0
M  V30 7582 H 741.866 -0.307314 -3.6531 0
M  V30 7583 H 741.514 1.96838 -4.62887 0
M  V30 7584 H 741.214 0.692188 -5.83509 0
M  V30 7585 H 742.738 1.62321 -5.88629 0
M  V30 7586 H 744.152 -0.640337 -5.69713 0
M  V30 7587 H 742.549 -1.4202 -5.83053 0
M  V30 7588 H 743.619 -1.84769 -4.48317 0
M  V30 7589 N 744.962 1.50701 -0.461195 0
M  V30 7590 C 745.925 2.2686 0.326679 0
M  V30 7591 C 746.925 1.31243 0.929085 0
M  V30 7592 O 748.115 1.54754 0.799807 0
M  V30 7593 C 745.247 3.07844 1.46441 0
M  V30 7594 H 746.44 2.97954 -0.341095 0
M  V30 7595 H 743.993 1.54814 -0.214984 0
M  V30 7596 H 744.728 2.41223 2.16753 0
M  V30 7597 H 744.513 3.78101 1.03836 0
M  V30 7598 H 746.003 3.65469 2.02044 0
M  V30 7599 N 746.441 0.193421 1.56409 0
M  V30 7600 C 747.671 -0.450783 2.01622 0
M  V30 7601 C 748.079 -1.5585 1.07273 0
M  V30 7602 O 747.422 -1.83569 0.0694875 0
M  V30 7603 C 747.484 -1.06913 3.43235 0
M  V30 7604 C 747.148 -0.100352 4.5689 0
M  V30 7605 C 748.145 0.689633 5.15306 0
M  V30 7606 C 745.83 0.0102436 5.02299 0
M  V30 7607 C 747.824 1.5772 6.17579 0
M  V30 7608 C 745.511 0.901368 6.04416 0
M  V30 7609 C 746.509 1.68341 6.61929 0
M  V30 7610 O 746.197 2.5596 7.62063 0
M  V30 7611 H 745.929 -0.117671 0.66568 0
M  V30 7612 H 748.483 0.2989 2.03214 0
M  V30 7613 H 746.713 -1.86736 3.38624 0
M  V30 7614 H 748.402 -1.61781 3.72266 0
M  V30 7615 H 749.168 0.614485 4.81092 0
M  V30 7616 H 745.047 -0.58829 4.57231 0
M  V30 7617 H 748.591 2.18805 6.62397 0
M  V30 7618 H 744.488 0.977637 6.38054 0
M  V30 7619 H 745.256 2.49721 7.79475 0
M  V30 7620 N 747.919 -1.57396 -0.0801906 0
M  V30 7621 C 748.851 -1.9982 -1.12271 0
M  V30 7622 C 749.864 -0.902902 -1.35468 0
M  V30 7623 O 751.053 -1.18088 -1.33856 0
M  V30 7624 C 748.153 -2.31476 -2.47532 0
M  V30 7625 C 747.326 -3.62745 -2.44407 0
M  V30 7626 C 746.385 -3.82168 -3.6171 0
M  V30 7627 O 745.411 -4.53852 -3.43522 0
M  V30 7628 N 746.613 -3.2388 -4.81749 0
M  V30 7629 H 749.378 -2.89864 -0.761501 0
M  V30 7630 H 746.939 -1.5965 -0.268965 0
M  V30 7631 H 748.931 -2.4165 -3.24634 0
M  V30 7632 H 747.501 -1.47364 -2.75686 0
M  V30 7633 H 746.721 -3.63403 -1.52747 0
M  V30 7634 H 748.009 -4.48954 -2.39412 0
M  V30 7635 H 747.407 -2.6568 -4.9943 0
M  V30 7636 H 745.964 -3.39515 -5.56392 0
M  V30 7637 N 749.397 0.351382 -1.53633 0
M  V30 7638 C 750.674 1.10903 -1.6112 0
M  V30 7639 C 751.054 2.06725 -0.427556 0
M  V30 7640 O 750.402 2.20992 0.580916 0
M  V30 7641 C 750.612 1.83561 -2.96827 0
M  V30 7642 C 751.96 2.37587 -3.51906 0
M  V30 7643 O 752.984 1.93669 -2.9895 0
M  V30 7644 O 751.843 3.17913 -4.44515 0
M  V30 7645 H 748.937 0.509558 -0.651368 0
M  V30 7646 H 751.483 0.353504 -1.65977 0
M  V30 7647 H 750.255 1.1371 -3.74414 0
M  V30 7648 H 749.878 2.6599 -2.95525 0
M  V30 7649 N 750.875 1.45233 0.611969 0
M  V30 7650 C 752.103 1.52539 1.39784 0
M  V30 7651 C 752.518 0.156533 1.8815 0
M  V30 7652 O 751.875 -0.84112 1.61961 0
M  V30 7653 C 751.926 2.50614 2.60528 0
M  V30 7654 O 751.647 3.8218 2.14173 0
M  V30 7655 C 753.148 2.67574 3.53439 0
M  V30 7656 H 750.368 0.51674 0.428043 0
M  V30 7657 H 752.912 1.90379 0.746727 0
M  V30 7658 H 751.067 2.15858 3.2169 0
M  V30 7659 H 751.481 4.35305 2.92592 0
M  V30 7660 H 752.955 3.40184 4.34717 0
M  V30 7661 H 753.432 1.73458 4.03496 0
M  V30 7662 H 754.038 3.0331 2.98133 0
M  V30 7663 N 752.353 -0.854086 1.3245 0
M  V30 7664 C 753.583 -1.63836 1.25862 0
M  V30 7665 C 753.991 -1.88383 -0.175588 0
M  V30 7666 O 753.334 -1.45353 -1.1233 0
M  V30 7667 C 753.396 -3.02068 1.94923 0
M  V30 7668 C 753.06 -3.0056 3.44257 0
M  V30 7669 C 754.057 -2.77368 4.39731 0
M  V30 7670 C 751.742 -3.21177 3.862 0
M  V30 7671 C 753.736 -2.74797 5.75122 0
M  V30 7672 C 751.423 -3.18234 5.217 0
M  V30 7673 C 752.421 -2.95072 6.15972 0
M  V30 7674 O 752.109 -2.92003 7.48992 0
M  V30 7675 H 751.841 -0.517007 0.435523 0
M  V30 7676 H 754.395 -1.07314 1.75137 0
M  V30 7677 H 752.625 -3.60382 1.40219 0
M  V30 7678 H 754.314 -3.62791 1.82037 0
M  V30 7679 H 755.08 -2.61205 4.08653 0
M  V30 7680 H 750.959 -3.38231 3.13243 0
M  V30 7681 H 754.503 -2.56638 6.48678 0
M  V30 7682 H 750.4 -3.33941 5.52407 0
M  V30 7683 H 751.168 -3.07953 7.58358 0
M  V30 7684 N 753.831 -1.1567 -1.07043 0
M  V30 7685 C 755.078 -0.933517 -1.79699 0
M  V30 7686 C 755.406 0.539162 -1.86878 0
M  V30 7687 O 754.661 1.41592 -1.35093 0
M  V30 7688 C 754.96 -1.49677 -3.24548 0
M  V30 7689 C 754.626 -2.99047 -3.37463 0
M  V30 7690 C 753.288 -3.39824 -3.40695 0
M  V30 7691 C 755.64 -3.95027 -3.40004 0
M  V30 7692 C 752.968 -4.75215 -3.44075 0
M  V30 7693 C 755.32 -5.30295 -3.44921 0
M  V30 7694 C 753.984 -5.70562 -3.46432 0
M  V30 7695 H 753.254 -0.341598 -0.657565 0
M  V30 7696 H 755.901 -1.44263 -1.25938 0
M  V30 7697 H 754.206 -0.908915 -3.81111 0
M  V30 7698 H 755.903 -1.29986 -3.79348 0
M  V30 7699 H 752.493 -2.6653 -3.35648 0
M  V30 7700 H 756.677 -3.64596 -3.36725 0
M  V30 7701 H 751.933 -5.05754 -3.43545 0
M  V30 7702 H 756.107 -6.0446 -3.45833 0
M  V30 7703 H 753.734 -6.75456 -3.48803 0
M  V30 7704 N 755.309 1.25446 -0.953992 0
M  V30 7705 C 756.272 2.24156 -0.478179 0
M  V30 7706 C 757.272 1.55278 0.417776 0
M  V30 7707 O 758.462 1.72866 0.215155 0
M  V30 7708 C 755.594 3.39495 0.309202 0
M  V30 7709 H 756.787 2.67764 -1.35064 0
M  V30 7710 H 754.34 1.37822 -0.737206 0
M  V30 7711 H 755.075 3.01307 1.19936 0
M  V30 7712 H 754.86 3.90679 -0.333562 0
M  V30 7713 H 756.35 4.12796 0.631594 0
M  V30 7714 N 756.787 0.722489 1.40064 0
M  V30 7715 C 758.035 0.264455 2.00362 0
M  V30 7716 C 758.356 -1.14847 1.57592 0
M  V30 7717 O 757.626 -1.77982 0.818477 0
M  V30 7718 H 756.206 0.0947846 0.740962 0
M  V30 7719 H 758.868 0.929659 1.71299 0
M  V30 7720 H 757.964 0.302977 3.10626 0
M  V30 7721 N 758.265 -1.50454 0.469181 0
M  V30 7722 C 759.513 -2.01916 -0.0862982 0
M  V30 7723 C 759.834 -1.35337 -1.40388 0
M  V30 7724 O 759.104 -0.498096 -1.89462 0
M  V30 7725 H 757.684 -0.746185 -0.0348825 0
M  V30 7726 H 760.346 -1.84804 0.619167 0
M  V30 7727 H 759.442 -3.11182 -0.239189 0
M  V30 7728 N 759.743 -0.201713 -1.56304 0
M  V30 7729 C 760.973 0.440084 -2.01858 0
M  V30 7730 C 761.381 1.55279 -1.08098 0
M  V30 7731 O 760.724 1.83529 -0.0792216 0
M  V30 7732 C 760.786 1.05091 -3.43797 0
M  V30 7733 C 760.45 0.0761208 -4.56937 0
M  V30 7734 C 761.447 -0.716951 -5.14933 0
M  V30 7735 C 759.132 -0.0368815 -5.02286 0
M  V30 7736 C 761.126 -1.60993 -6.16733 0
M  V30 7737 C 758.813 -0.933409 -6.03929 0
M  V30 7738 C 759.811 -1.71849 -6.61027 0
M  V30 7739 O 759.499 -2.59998 -7.60695 0
M  V30 7740 H 759.231 0.114139 -0.666294 0
M  V30 7741 H 761.785 -0.309672 -2.03052 0
M  V30 7742 H 760.015 1.84938 -3.3961 0
M  V30 7743 H 761.704 1.59804 -3.73118 0
M  V30 7744 H 762.47 -0.63999 -4.80759 0
M  V30 7745 H 758.349 0.564034 -4.57537 0
M  V30 7746 H 761.893 -2.22315 -6.61227 0
M  V30 7747 H 757.79 -1.01146 -6.37526 0
M  V30 7748 H 758.558 -2.53851 -7.7814 0
M  V30 7749 N 761.222 1.57436 0.0718424 0
M  V30 7750 C 762.468 1.87525 0.772149 0
M  V30 7751 C 762.801 0.79399 1.77227 0
M  V30 7752 O 762.076 -0.195733 1.93513 0
M  V30 7753 C 762.359 3.28272 1.48018 0
M  V30 7754 C 762.212 4.47052 0.49647 0
M  V30 7755 C 763.531 3.67256 2.42509 0
M  V30 7756 H 760.65 0.682049 0.279245 0
M  V30 7757 H 763.292 1.89967 0.03534 0
M  V30 7758 H 761.442 3.26321 2.10824 0
M  V30 7759 H 763.114 4.61127 -0.126375 0
M  V30 7760 H 761.357 4.33392 -0.188205 0
M  V30 7761 H 762.028 5.42315 1.02949 0
M  V30 7762 H 764.504 3.70301 1.89781 0
M  V30 7763 H 763.38 4.66626 2.89053 0
M  V30 7764 H 763.641 2.97186 3.27312 0
M  V30 7765 N 762.7 -0.34323 1.53817 0
M  V30 7766 C 763.928 -1.10348 1.75017 0
M  V30 7767 C 764.343 -1.82345 0.489475 0
M  V30 7768 O 763.7 -1.74362 -0.538886 0
M  V30 7769 C 763.751 -2.11672 2.93048 0
M  V30 7770 O 763.472 -1.42603 4.14241 0
M  V30 7771 C 764.973 -3.0007 3.26301 0
M  V30 7772 H 762.193 -0.329056 0.584776 0
M  V30 7773 H 764.737 -0.395339 2.00642 0
M  V30 7774 H 762.892 -2.78051 2.69753 0
M  V30 7775 H 763.306 -2.10294 4.80496 0
M  V30 7776 H 764.78 -3.67101 4.12239 0
M  V30 7777 H 765.257 -3.66105 2.42618 0
M  V30 7778 H 765.863 -2.3928 3.51604 0
M  V30 7779 N 764.178 -1.45556 -0.604258 0
M  V30 7780 C 765.108 -1.57327 -1.72541 0
M  V30 7781 C 766.089 -0.424637 -1.64714 0
M  V30 7782 O 767.274 -0.648196 -1.83063 0
M  V30 7783 C 764.404 -1.54279 -3.11152 0
M  V30 7784 C 763.358 -2.67893 -3.33792 0
M  V30 7785 C 762.684 -2.499 -4.72709 0
M  V30 7786 C 763.984 -4.0988 -3.23722 0
M  V30 7787 H 765.678 -2.51175 -1.62947 0
M  V30 7788 H 763.224 -1.20884 -0.782504 0
M  V30 7789 H 765.177 -1.6111 -3.89386 0
M  V30 7790 H 763.901 -0.569627 -3.21594 0
M  V30 7791 H 762.56 -2.60495 -2.57949 0
M  V30 7792 H 762.208 -1.50715 -4.79889 0
M  V30 7793 H 761.908 -3.26091 -4.88813 0
M  V30 7794 H 763.432 -2.5859 -5.5314 0
M  V30 7795 H 764.846 -4.18503 -3.91826 0
M  V30 7796 H 763.243 -4.86487 -3.51355 0
M  V30 7797 H 764.313 -4.31553 -2.21111 0
M  V30 7798 N 765.656 0.84705 -1.32902 0
M  V30 7799 C 766.902 1.60389 -1.25088 0
M  V30 7800 C 767.257 1.91521 0.183723 0
M  V30 7801 O 766.55 1.55197 1.12359 0
M  V30 7802 C 766.744 2.92663 -2.05142 0
M  V30 7803 C 766.573 2.74449 -3.56241 0
M  V30 7804 C 765.343 2.72434 -4.25567 0
M  V30 7805 C 767.541 2.47666 -4.5074 0
M  V30 7806 N 765.523 2.45512 -5.62669 0
M  V30 7807 C 766.894 2.30219 -5.75673 0
M  V30 7808 C 768.949 2.33196 -4.39914 0
M  V30 7809 C 767.652 1.99772 -6.91002 0
M  V30 7810 C 769.678 2.0414 -5.5505 0
M  V30 7811 C 769.04 1.875 -6.78987 0
M  V30 7812 H 765.139 0.590296 -0.512908 0
M  V30 7813 H 767.723 0.995058 -1.67352 0
M  V30 7814 H 765.894 3.51511 -1.65211 0
M  V30 7815 H 767.626 3.5777 -1.89163 0
M  V30 7816 H 764.381 2.85647 -3.7776 0
M  V30 7817 H 764.805 2.34958 -6.3492 0
M  V30 7818 H 769.447 2.44777 -3.44738 0
M  V30 7819 H 767.165 1.86928 -7.86183 0
M  V30 7820 H 770.751 1.93711 -5.48605 0
M  V30 7821 H 769.631 1.65339 -7.66572 0
M  V30 7822 N 767.134 1.16236 1.06428 0
M  V30 7823 C 768.364 0.965782 1.82637 0
M  V30 7824 C 768.772 -0.489284 1.82764 0
M  V30 7825 O 768.115 -1.35133 1.24438 0
M  V30 7826 C 768.177 1.41458 3.30499 0
M  V30 7827 C 767.841 2.88926 3.54077 0
M  V30 7828 C 768.838 3.86939 3.47238 0
M  V30 7829 C 766.523 3.26814 3.81442 0
M  V30 7830 C 768.517 5.20841 3.67428 0
M  V30 7831 C 766.204 4.60886 4.01282 0
M  V30 7832 C 767.202 5.57708 3.94272 0
M  V30 7833 O 766.89 6.89357 4.13573 0
M  V30 7834 H 766.622 0.342569 0.582772 0
M  V30 7835 H 769.176 1.54641 1.35187 0
M  V30 7836 H 767.406 0.777426 3.78805 0
M  V30 7837 H 769.095 1.18563 3.88198 0
M  V30 7838 H 769.861 3.59014 3.26089 0
M  V30 7839 H 765.74 2.5203 3.86008 0
M  V30 7840 H 769.284 5.96401 3.61873 0
M  V30 7841 H 765.181 4.88522 4.21921 0
M  V30 7842 H 765.949 6.95913 4.30869 0
M  V30 7843 N 768.612 -1.24939 0.960631 0
M  V30 7844 C 769.544 -2.24879 0.442937 0
M  V30 7845 C 770.557 -1.56615 -0.444464 0
M  V30 7846 O 771.746 -1.76715 -0.251776 0
M  V30 7847 C 768.846 -3.36757 -0.380537 0
M  V30 7848 C 768.019 -4.34587 0.495283 0
M  V30 7849 C 767.078 -5.25502 -0.270995 0
M  V30 7850 O 766.104 -5.68227 0.332661 0
M  V30 7851 N 767.306 -5.59077 -1.56249 0
M  V30 7852 H 770.071 -2.69932 1.30218 0
M  V30 7853 H 767.632 -1.38907 0.83166 0
M  V30 7854 H 769.624 -3.94542 -0.90103 0
M  V30 7855 H 768.194 -2.91045 -1.14067 0
M  V30 7856 H 767.414 -3.75593 1.19682 0
M  V30 7857 H 768.702 -4.96925 1.09285 0
M  V30 7858 H 768.1 -5.2628 -2.07476 0
M  V30 7859 H 766.657 -6.19421 -2.02882 0
M  V30 7860 N 770.09 -0.729906 -1.39679 0
M  V30 7861 C 771.318 -0.285709 -2.04918 0
M  V30 7862 C 771.733 1.07765 -1.55023 0
M  V30 7863 O 771.09 1.67999 -0.712923 0
M  V30 7864 C 771.141 -0.272793 -3.60469 0
M  V30 7865 O 770.862 -1.58233 -4.08527 0
M  V30 7866 C 772.363 0.188199 -4.429 0
M  V30 7867 H 769.583 -0.125758 -0.65911 0
M  V30 7868 H 772.127 -0.992129 -1.78821 0
M  V30 7869 H 770.282 0.384699 -3.85485 0
M  V30 7870 H 770.696 -1.49245 -5.02818 0
M  V30 7871 H 772.17 0.14608 -5.51807 0
M  V30 7872 H 772.647 1.2326 -4.21549 0
M  V30 7873 H 773.253 -0.439541 -4.23023 0
M  V30 7874 N 771.568 1.50203 -0.477153 0
M  V30 7875 C 772.516 2.30278 0.327826 0
M  V30 7876 C 773.51 1.37831 0.984839 0
M  V30 7877 O 774.716 1.54994 0.915251 0
M  V30 7878 H 771.091 0.741612 0.124564 0
M  V30 7879 H 773.062 2.96124 -0.367853 0
M  V30 7880 C 771.811 3.18548 1.39365 0
M  V30 7881 H 771.134 3.89596 0.897475 0
M  V30 7882 H 772.574 3.77561 1.92934 0
M  V30 7883 C 771.033 2.36548 2.39889 0
M  V30 7884 O 771.563 2.05282 3.45286 0
M  V30 7885 N 769.769 1.99015 2.11758 0
M  V30 7886 H 769.316 2.24641 1.26071 0
M  V30 7887 H 769.274 1.44454 2.7925 0
M  V30 7888 N 773.046 0.209999 1.56195 0
M  V30 7889 C 774.293 -0.424813 1.97994 0
M  V30 7890 C 774.621 -1.60589 1.09733 0
M  V30 7891 O 773.876 -1.95201 0.139693 0
M  V30 7892 C 774.175 -0.91312 3.45539 0
M  V30 7893 C 773.841 0.156187 4.50629 0
M  V30 7894 C 772.503 0.449966 4.79092 0
M  V30 7895 C 774.855 0.879959 5.13718 0
M  V30 7896 C 772.183 1.47223 5.67928 0
M  V30 7897 C 774.535 1.89148 6.0366 0
M  V30 7898 C 773.199 2.1923 6.30472 0
M  V30 7899 H 772.469 -0.15545 0.724511 0
M  V30 7900 H 775.116 0.310095 1.88973 0
M  V30 7901 H 773.421 -1.72658 3.51705 0
M  V30 7902 H 775.118 -1.41395 3.75245 0
M  V30 7903 H 771.708 -0.0829466 4.2852 0
M  V30 7904 H 775.892 0.66623 4.91808 0
M  V30 7905 H 771.148 1.71105 5.86969 0
M  V30 7906 H 775.322 2.45745 6.516 0
M  V30 7907 H 772.949 2.98587 6.99107 0
M  V30 7908 N 774.524 -1.57472 -0.0634922 0
M  V30 7909 C 775.77 -1.87932 -0.762194 0
M  V30 7910 C 776.103 -0.803377 -1.76804 0
M  V30 7911 O 775.378 0.185468 -1.93614 0
M  V30 7912 C 775.661 -3.29053 -1.46275 0
M  V30 7913 C 775.514 -4.47309 -0.472755 0
M  V30 7914 C 776.833 -3.68537 -2.40558 0
M  V30 7915 H 773.952 -0.683521 -0.275624 0
M  V30 7916 H 776.594 -1.89983 -0.0252651 0
M  V30 7917 H 774.744 -3.27435 -2.0909 0
M  V30 7918 H 776.416 -4.61053 0.150828 0
M  V30 7919 H 774.659 -4.33286 0.211187 0
M  V30 7920 H 775.33 -5.42853 -1.00072 0
M  V30 7921 H 777.806 -3.71302 -1.87814 0
M  V30 7922 H 776.682 -4.68152 -2.86574 0
M  V30 7923 H 776.943 -2.98917 -3.25731 0
M  V30 7924 N 776.003 0.335068 -1.53997 0
M  V30 7925 C 777.249 1.07594 -1.71905 0
M  V30 7926 C 777.582 1.88039 -0.485264 0
M  V30 7927 O 776.857 1.87482 0.517752 0
M  V30 7928 C 777.14 2.01016 -2.98772 0
M  V30 7929 C 776.993 1.23977 -4.32377 0
M  V30 7930 C 778.312 3.0071 -3.21343 0
M  V30 7931 H 775.431 0.38976 -0.625505 0
M  V30 7932 H 778.073 0.353684 -1.86679 0
M  V30 7933 H 776.223 2.62603 -2.86307 0
M  V30 7934 H 777.895 0.649383 -4.56706 0
M  V30 7935 H 776.138 0.541878 -4.30402 0
M  V30 7936 H 776.809 1.92512 -5.17342 0
M  V30 7937 H 779.285 2.4924 -3.33194 0
M  V30 7938 H 778.161 3.63272 -4.11491 0
M  V30 7939 H 778.422 3.72549 -2.38033 0
M  V30 7940 N 777.481 1.45874 0.596531 0
M  V30 7941 C 778.892 1.44798 1.17857 0
M  V30 7942 C 779.243 0.181443 1.95359 0
M  V30 7943 O 778.368 -0.716336 2.042 0
M  V30 7944 C 778.963 2.62333 2.14398 0
M  V30 7945 C 777.522 2.64342 2.67955 0
M  V30 7946 C 776.669 2.37244 1.43564 0
M  V30 7947 H 779.62 1.53954 0.385222 0
M  V30 7948 H 779.641 2.37063 2.97626 0
M  V30 7949 H 779.153 3.54499 1.57963 0
M  V30 7950 H 777.254 1.76213 3.28298 0
M  V30 7951 H 777.367 3.63897 3.11634 0
M  V30 7952 H 775.731 1.87022 1.72901 0
M  V30 7953 H 776.514 3.31568 0.889805 0
M  V30 7954 N 778.959 -0.83999 1.33349 0
M  V30 7955 C 780.184 -1.63249 1.27924 0
M  V30 7956 C 780.609 -1.87523 -0.147193 0
M  V30 7957 O 779.967 -1.43853 -1.10345 0
M  V30 7958 C 780.015 -2.96046 2.05886 0
M  V30 7959 O 779.119 -3.87303 1.4167 0
M  V30 7960 H 778.46 -0.49715 0.440157 0
M  V30 7961 H 780.99 -1.04512 1.75893 0
M  V30 7962 H 781 -3.45752 2.16609 0
M  V30 7963 H 779.675 -2.77701 3.09605 0
M  V30 7964 H 778.252 -3.45789 1.39585 0
M  V30 7965 N 780.437 -1.16799 -1.0581 0
M  V30 7966 C 781.685 -0.950642 -1.78346 0
M  V30 7967 C 782.006 0.522524 -1.87869 0
M  V30 7968 O 781.276 1.3795 -1.39092 0
M  V30 7969 H 779.856 -0.348736 -0.6606 0
M  V30 7970 H 782.518 -1.47158 -1.27791 0
M  V30 7971 H 781.614 -1.37359 -2.80248 0
M  V30 7972 N 781.915 1.24427 -0.967243 0
M  V30 7973 C 782.878 2.23637 -0.501927 0
M  V30 7974 C 783.878 1.55712 0.401283 0
M  V30 7975 O 785.068 1.73085 0.196808 0
M  V30 7976 C 782.2 3.39804 0.273176 0
M  V30 7977 H 783.393 2.66317 -1.37897 0
M  V30 7978 H 780.946 1.37033 -0.751783 0
M  V30 7979 H 781.681 3.02562 1.16733 0
M  V30 7980 H 781.466 3.90303 -0.37498 0
M  V30 7981 H 782.956 4.13443 0.587776 0
M  V30 7982 N 783.393 0.737304 1.3929 0
M  V30 7983 C 784.804 0.355966 1.83275 0
M  V30 7984 C 785.155 -1.11295 1.6158 0
M  V30 7985 O 784.28 -1.85871 1.10819 0
M  V30 7986 C 784.875 0.63931 3.32713 0
M  V30 7987 C 783.434 0.31144 3.75109 0
M  V30 7988 C 782.581 0.900765 2.62262 0
M  V30 7989 H 785.532 0.934763 1.28249 0
M  V30 7990 H 785.553 -0.0881293 3.80398 0
M  V30 7991 H 785.065 1.70847 3.48472 0
M  V30 7992 H 783.166 -0.751791 3.64937 0
M  V30 7993 H 783.279 0.795611 4.72448 0
M  V30 7994 H 781.643 0.327239 2.52589 0
M  V30 7995 H 782.426 1.97463 2.80826 0
M  V30 7996 N 784.871 -1.49948 0.485112 0
M  V30 7997 C 786.099 -2.06806 -0.0622824 0
M  V30 7998 C 786.514 -1.34736 -1.32256 0
M  V30 7999 O 785.871 -0.420836 -1.77582 0
M  V30 8000 C 785.922 -3.59934 -0.336096 0
M  V30 8001 O 785.643 -4.29289 0.874203 0
M  V30 8002 C 787.144 -4.33459 -0.928903 0
M  V30 8003 H 784.364 -0.670867 0.0133472 0
M  V30 8004 H 786.908 -1.92937 0.677917 0
M  V30 8005 H 785.063 -3.7356 -1.02625 0
M  V30 8006 H 785.477 -5.20735 0.627332 0
M  V30 8007 H 786.951 -5.41527 -1.07017 0
M  V30 8008 H 787.428 -3.94881 -1.92265 0
M  V30 8009 H 788.034 -4.24399 -0.276705 0
M  V30 8010 N 786.349 -0.21828 -1.56081 0
M  V30 8011 C 787.574 0.422302 -2.03055 0
M  V30 8012 C 787.999 1.5279 -1.09713 0
M  V30 8013 O 787.357 1.81102 -0.0847187 0
M  V30 8014 C 787.405 0.934177 -3.48289 0
M  V30 8015 O 786.509 2.04574 -3.58083 0
M  V30 8016 H 785.85 0.0959764 -0.657027 0
M  V30 8017 H 788.38 -0.335958 -2.01823 0
M  V30 8018 H 788.39 1.24484 -3.88546 0
M  V30 8019 H 787.065 0.124963 -4.15712 0
M  V30 8020 H 785.642 1.74196 -3.29712 0
M  V30 8021 N 787.827 1.57504 0.0551401 0
M  V30 8022 C 788.79 2.03826 1.04821 0
M  V30 8023 C 789.79 0.937968 1.30609 0
M  V30 8024 O 790.98 1.20237 1.2605 0
M  V30 8025 C 788.112 2.43309 2.38775 0
M  V30 8026 H 789.305 2.92802 0.6486 0
M  V30 8027 H 786.858 1.53368 0.301315 0
M  V30 8028 H 787.593 1.5741 2.83536 0
M  V30 8029 H 787.378 3.23615 2.21395 0
M  V30 8030 H 788.868 2.79666 3.10124 0
M  V30 8031 N 789.305 -0.326896 1.54172 0
M  V30 8032 C 790.721 -0.671034 1.44808 0
M  V30 8033 C 790.921 -1.91781 0.618258 0
M  V30 8034 O 789.977 -2.52235 0.115751 0
M  V30 8035 C 791.29 -0.848147 2.88491 0
M  V30 8036 C 792.838 -0.945702 2.98371 0
M  V30 8037 C 793.313 -1.15501 4.43197 0
M  V30 8038 N 794.804 -1.22183 4.46795 0
M  V30 8039 C 795.539 -1.4016 5.56006 0
M  V30 8040 N 795.035 -1.55202 6.75192 0
M  V30 8041 N 796.828 -1.42841 5.43648 0
M  V30 8042 H 788.979 0.49262 2.06608 0
M  V30 8043 H 791.242 0.158574 0.934643 0
M  V30 8044 H 790.948 -0.00329969 3.517 0
M  V30 8045 H 790.822 -1.74497 3.34411 0
M  V30 8046 H 793.209 -1.78106 2.35292 0
M  V30 8047 H 793.29 -0.0254215 2.55787 0
M  V30 8048 H 792.934 -0.324521 5.06862 0
M  V30 8049 H 792.864 -2.08911 4.83388 0
M  V30 8050 H 795.355 -1.12016 3.60917 0
M  V30 8051 H 795.668 -1.68601 7.54184 0
M  V30 8052 H 794.013 -1.52306 6.78106 0
M  V30 8053 H 797.204 -1.30683 4.49488 0
M  V30 8054 H 797.377 -1.56509 6.28816 0
M  V30 8055 N 790.784 -1.46188 -0.588786 0
M  V30 8056 C 792.033 -1.50452 -1.34339 0
M  V30 8057 C 792.346 -0.158096 -1.9496 0
M  V30 8058 O 793.552 -0.0784918 -2.71387 0
M  V30 8059 C 792.008 -2.65074 -2.43441 0
M  V30 8060 C 791.616 -4.06111 -1.8915 0
M  V30 8061 C 793.36 -2.78603 -3.20282 0
M  V30 8062 C 791.267 -5.12084 -2.95845 0
M  V30 8063 H 790.197 -0.559905 -0.504997 0
M  V30 8064 H 792.848 -1.72382 -0.629014 0
M  V30 8065 H 791.23 -2.36462 -3.1765 0
M  V30 8066 H 792.404 -4.44487 -1.21524 0
M  V30 8067 H 790.719 -3.97197 -1.24995 0
M  V30 8068 H 793.316 -3.54944 -3.99898 0
M  V30 8069 H 793.659 -1.85902 -3.72486 0
M  V30 8070 H 794.192 -3.06832 -2.53178 0
M  V30 8071 H 790.931 -6.06556 -2.48535 0
M  V30 8072 H 790.451 -4.78259 -3.61979 0
M  V30 8073 H 792.13 -5.37661 -3.59902 0
M  V30 8074 N 792.262 0.832906 -1.33792 0
M  V30 8075 C 793.511 1.58351 -1.24932 0
M  V30 8076 C 793.824 1.94754 0.181703 0
M  V30 8077 O 795.03 2.6865 0.392375 0
M  V30 8078 C 793.486 2.85643 -2.18943 0
M  V30 8079 C 793.094 2.56581 -3.67247 0
M  V30 8080 C 794.838 3.63667 -2.18968 0
M  V30 8081 C 792.745 3.80006 -4.53155 0
M  V30 8082 H 791.675 0.594278 -0.464058 0
M  V30 8083 H 794.326 0.91786 -1.58895 0
M  V30 8084 H 792.708 3.53781 -1.77919 0
M  V30 8085 H 793.882 1.96617 -4.16747 0
M  V30 8086 H 792.197 1.91851 -3.6957 0
M  V30 8087 H 794.794 4.55293 -2.80379 0
M  V30 8088 H 795.137 3.99039 -1.18631 0
M  V30 8089 H 795.67 3.0246 -2.58384 0
M  V30 8090 H 792.409 3.4976 -5.5439 0
M  V30 8091 H 791.929 4.39288 -4.08395 0
M  V30 8092 H 793.608 4.47523 -4.6726 0
M  V30 8093 N 793.74 1.17359 1.05189 0
M  V30 8094 C 794.703 0.892604 2.11105 0
M  V30 8095 C 795.703 -0.117236 1.60372 0
M  V30 8096 O 796.893 0.114936 1.7382 0
M  V30 8097 C 794.025 0.337032 3.3923 0
M  V30 8098 H 795.218 1.83169 2.37464 0
M  V30 8099 H 792.771 0.984051 1.21434 0
M  V30 8100 H 793.506 -0.609198 3.18527 0
M  V30 8101 H 793.291 1.06484 3.77364 0
M  V30 8102 H 794.781 0.158763 4.17298 0
M  V30 8103 N 795.218 -1.23913 0.973828 0
M  V30 8104 C 796.148 -2.27453 0.527969 0
M  V30 8105 C 797.129 -1.6443 -0.435513 0
M  V30 8106 O 798.314 -1.9137 -0.330306 0
M  V30 8107 C 795.444 -3.4685 -0.176757 0
M  V30 8108 C 794.398 -4.22181 0.703352 0
M  V30 8109 C 793.724 -5.34534 -0.133215 0
M  V30 8110 C 795.024 -4.82865 1.99096 0
M  V30 8111 H 796.718 -2.65 1.3934 0
M  V30 8112 H 794.264 -1.27388 0.671446 0
M  V30 8113 H 796.217 -4.18424 -0.499934 0
M  V30 8114 H 794.941 -3.08346 -1.07659 0
M  V30 8115 H 793.6 -3.52416 1.00989 0
M  V30 8116 H 793.248 -4.92271 -1.03338 0
M  V30 8117 H 792.948 -5.85855 0.452494 0
M  V30 8118 H 794.472 -6.08933 -0.450924 0
M  V30 8119 H 795.886 -5.46481 1.73297 0
M  V30 8120 H 794.283 -5.44444 2.52389 0
M  V30 8121 H 795.353 -4.03977 2.68199 0
M  V30 8122 N 796.696 -0.74468 -1.38897 0
M  V30 8123 C 797.936 -0.301691 -2.02161 0
M  V30 8124 C 798.3 1.09338 -1.57826 0
M  V30 8125 O 799.501 1.63499 -2.13358 0
M  V30 8126 C 797.772 -0.410601 -3.55034 0
M  V30 8127 S 799.331 -0.0488802 -4.38773 0
M  V30 8128 H 796.149 -0.117583 -0.70121 0
M  V30 8129 H 798.751 -0.973334 -1.69548 0
M  V30 8130 H 797.455 -1.42705 -3.8479 0
M  V30 8131 H 796.986 0.278531 -3.92413 0
M  V30 8132 H 799.001 1.16434 -4.82346 0
M  V30 8133 N 798.174 1.49689 -0.493057 0
M  V30 8134 C 799.137 2.27502 0.278485 0
M  V30 8135 C 800.137 1.33184 0.901037 0
M  V30 8136 O 801.327 1.56415 0.766801 0
M  V30 8137 C 798.459 3.10881 1.39878 0
M  V30 8138 H 799.652 2.97163 -0.404219 0
M  V30 8139 H 797.205 1.54324 -0.247774 0
M  V30 8140 H 797.94 2.45767 2.11587 0
M  V30 8141 H 797.725 3.80219 0.957924 0
M  V30 8142 H 799.215 3.69673 1.94247 0
M  V30 8143 N 799.652 0.226554 1.55963 0
M  V30 8144 C 800.615 -0.668015 2.19249 0
M  V30 8145 C 801.615 -1.11794 1.1558 0
M  V30 8146 O 802.805 -1.02593 1.40784 0
M  V30 8147 C 799.937 -1.91571 2.81981 0
M  V30 8148 H 801.13 -0.116175 2.99675 0
M  V30 8149 H 798.683 -0.0230497 1.56283 0
M  V30 8150 H 799.418 -2.50929 2.05439 0
M  V30 8151 H 799.203 -1.6015 3.57903 0
M  V30 8152 H 800.693 -2.55294 3.30477 0
M  V30 8153 N 801.13 -1.57531 -0.0467866 0
M  V30 8154 C 802.077 -2.05387 -1.05285 0
M  V30 8155 C 803.047 -0.939385 -1.36985 0
M  V30 8156 O 804.232 -1.20877 -1.47626 0
M  V30 8157 C 801.372 -2.52343 -2.35408 0
M  V30 8158 C 800.485 -3.77512 -2.10022 0
M  V30 8159 C 799.62 -4.1315 -3.33887 0
M  V30 8160 C 798.659 -5.31286 -3.03976 0
M  V30 8161 N 797.796 -5.62441 -4.20243 0
M  V30 8162 H 802.636 -2.91095 -0.637788 0
M  V30 8163 H 800.173 -1.43939 -0.303322 0
M  V30 8164 H 802.131 -2.77628 -3.11413 0
M  V30 8165 H 800.761 -1.69577 -2.7467 0
M  V30 8166 H 799.813 -3.59417 -1.24594 0
M  V30 8167 H 801.125 -4.63644 -1.83945 0
M  V30 8168 H 800.279 -4.39469 -4.18273 0
M  V30 8169 H 799.018 -3.25634 -3.63062 0
M  V30 8170 H 798.023 -5.04738 -2.17991 0
M  V30 8171 H 799.248 -6.20441 -2.76098 0
M  V30 8172 H 797.194 -4.77885 -4.49402 0
M  V30 8173 H 797.111 -6.43046 -3.97528 0
M  V30 8174 H 798.379 -5.93327 -5.05553 0
M  V30 8175 N 802.608 0.318715 -1.54344 0
M  V30 8176 C 803.856 1.054 -1.72439 0
M  V30 8177 C 804.177 1.88388 -0.503495 0
M  V30 8178 O 803.447 1.89866 0.48246 0
M  V30 8179 H 802.027 0.392124 -0.635805 0
M  V30 8180 H 804.689 0.35398 -1.91659 0
M  V30 8181 H 803.785 1.71726 -2.60608 0
M  V30 8182 N 804.086 1.46499 0.581025 0
M  V30 8183 C 805.363 1.42372 1.34125 0
M  V30 8184 C 805.743 0.108073 2.10823 0
M  V30 8185 O 805.091 -0.910366 2.09582 0
M  V30 8186 C 805.301 2.65445 2.26583 0
M  V30 8187 C 806.649 3.11664 2.88359 0
M  V30 8188 O 807.673 2.66006 2.36896 0
M  V30 8189 O 806.532 3.90974 3.81839 0
M  V30 8190 H 803.626 0.566262 0.602724 0
M  V30 8191 H 806.172 1.58667 0.601903 0
M  V30 8192 H 804.944 3.52756 1.69348 0
M  V30 8193 H 804.567 2.51618 3.07854 0
M  V30 8194 N 805.565 -0.825799 1.34232 0
M  V30 8195 C 806.812 -1.58185 1.26427 0
M  V30 8196 C 807.14 -1.93786 -0.166533 0
M  V30 8197 O 806.395 -1.59986 -1.12707 0
M  V30 8198 C 806.694 -2.89362 2.09772 0
M  V30 8199 C 806.36 -2.73066 3.58812 0
M  V30 8200 C 805.022 -2.68329 3.99441 0
M  V30 8201 C 807.374 -2.56946 4.53462 0
M  V30 8202 C 804.702 -2.4539 5.32917 0
M  V30 8203 C 807.054 -2.35538 5.87115 0
M  V30 8204 C 805.718 -2.29212 6.26912 0
M  V30 8205 H 804.988 -0.57884 0.462629 0
M  V30 8206 H 807.635 -0.955714 1.65947 0
M  V30 8207 H 805.94 -3.56251 1.63071 0
M  V30 8208 H 807.637 -3.4694 2.01081 0
M  V30 8209 H 804.227 -2.77591 3.26559 0
M  V30 8210 H 808.411 -2.59631 4.22972 0
M  V30 8211 H 803.667 -2.38947 5.62774 0
M  V30 8212 H 807.841 -2.22051 6.6005 0
M  V30 8213 H 805.468 -2.11197 7.30274 0
M  V30 8214 N 807.043 -1.17915 -1.04565 0
M  V30 8215 C 808.283 -0.982331 -1.79247 0
M  V30 8216 C 808.647 0.47998 -1.85904 0
M  V30 8217 O 809.848 0.796078 -2.56741 0
M  V30 8218 C 808.119 -1.61329 -3.18916 0
M  V30 8219 S 809.678 -1.56355 -4.09998 0
M  V30 8220 H 806.496 -0.352869 -0.617256 0
M  V30 8221 H 809.098 -1.49971 -1.25415 0
M  V30 8222 H 807.802 -2.66993 -3.11678 0
M  V30 8223 H 807.333 -1.09599 -3.77825 0
M  V30 8224 H 809.348 -0.57593 -4.92846 0
M  V30 8225 N 808.521 1.23394 -0.980386 0
M  V30 8226 C 809.451 2.2717 -0.540024 0
M  V30 8227 C 810.432 1.64659 0.426787 0
M  V30 8228 O 811.617 1.91543 0.320153 0
M  V30 8229 C 808.747 3.46939 0.15836 0
M  V30 8230 C 807.701 4.21802 -0.725732 0
M  V30 8231 C 807.027 5.34597 0.104866 0
M  V30 8232 C 808.327 4.81802 -2.01654 0
M  V30 8233 H 810.021 2.64257 -1.40743 0
M  V30 8234 H 807.567 1.2703 -0.678193 0
M  V30 8235 H 809.52 4.18683 0.477737 0
M  V30 8236 H 808.244 3.08912 1.06022 0
M  V30 8237 H 806.903 3.51875 -1.02857 0
M  V30 8238 H 806.551 4.92812 1.00726 0
M  V30 8239 H 806.251 5.85607 -0.483557 0
M  V30 8240 H 807.775 6.09163 0.418624 0
M  V30 8241 H 809.189 5.45554 -1.76193 0
M  V30 8242 H 807.586 5.43098 -2.55273 0
M  V30 8243 H 808.656 4.02549 -2.70338 0
M  V30 8244 N 809.999 0.752036 1.385 0
M  V30 8245 C 811.415 0.42946 1.53713 0
M  V30 8246 C 811.615 -1.0576 1.71514 0
M  V30 8247 O 810.671 -1.84366 1.72527 0
M  V30 8248 C 811.984 1.22735 2.74511 0
M  V30 8249 C 813.532 1.21727 2.8836 0
M  V30 8250 C 814.007 1.99809 4.12117 0
M  V30 8251 N 815.498 1.97062 4.19191 0
M  V30 8252 C 816.233 2.54274 5.13938 0
M  V30 8253 N 815.729 3.20193 6.14368 0
M  V30 8254 N 817.522 2.44212 5.06277 0
M  V30 8255 H 809.673 1.71581 1.25195 0
M  V30 8256 H 811.936 0.727293 0.60807 0
M  V30 8257 H 811.642 2.28032 2.67758 0
M  V30 8258 H 811.516 0.843186 3.67655 0
M  V30 8259 H 813.903 0.172367 2.94596 0
M  V30 8260 H 813.984 1.64094 1.96232 0
M  V30 8261 H 813.628 3.0431 4.06642 0
M  V30 8262 H 813.558 1.54837 5.03322 0
M  V30 8263 H 816.049 1.49054 3.47263 0
M  V30 8264 H 816.362 3.61272 6.83156 0
M  V30 8265 H 814.707 3.24287 6.14705 0
M  V30 8266 H 817.898 1.92343 4.26757 0
M  V30 8267 H 818.071 2.89096 5.79937 0
M  V30 8268 N 811.477 -1.49425 0.500989 0
M  V30 8269 C 812.407 -2.31971 -0.266775 0
M  V30 8270 C 813.388 -1.40245 -0.962563 0
M  V30 8271 O 814.573 -1.69154 -0.953968 0
M  V30 8272 C 811.703 -3.20757 -1.33163 0
M  V30 8273 C 810.657 -4.21275 -0.75572 0
M  V30 8274 C 809.983 -4.98997 -1.92109 0
M  V30 8275 C 811.283 -5.21686 0.253213 0
M  V30 8276 H 812.977 -2.96408 0.422237 0
M  V30 8277 H 810.523 -1.4254 0.204505 0
M  V30 8278 H 812.476 -3.77315 -1.87646 0
M  V30 8279 H 811.2 -2.54263 -2.04983 0
M  V30 8280 H 809.859 -3.65861 -0.232637 0
M  V30 8281 H 809.507 -4.28951 -2.62698 0
M  V30 8282 H 809.207 -5.67011 -1.54182 0
M  V30 8283 H 810.731 -5.584 -2.47026 0
M  V30 8284 H 812.145 -5.72939 -0.203483 0
M  V30 8285 H 810.542 -5.9759 0.548322 0
M  V30 8286 H 811.612 -4.70596 1.16909 0
M  V30 8287 N 812.955 -0.234822 -1.55841 0
M  V30 8288 C 813.885 0.664217 -2.23854 0
M  V30 8289 C 814.866 1.19076 -1.2147 0
M  V30 8290 O 816.051 1.23232 -1.50091 0
M  V30 8291 C 813.181 1.86666 -2.9287 0
M  V30 8292 C 812.135 1.47341 -4.01839 0
M  V30 8293 C 811.461 2.75571 -4.58219 0
M  V30 8294 C 812.761 0.653479 -5.18196 0
M  V30 8295 H 814.455 0.0971213 -2.99242 0
M  V30 8296 H 812.001 0.0452724 -1.43929 0
M  V30 8297 H 813.954 2.50116 -3.39146 0
M  V30 8298 H 812.678 2.45894 -2.1495 0
M  V30 8299 H 811.337 0.862314 -3.56314 0
M  V30 8300 H 810.985 3.32971 -3.77014 0
M  V30 8301 H 810.685 2.49987 -5.31771 0
M  V30 8302 H 812.209 3.39939 -5.07221 0
M  V30 8303 H 813.623 1.19198 -5.60771 0
M  V30 8304 H 812.02 0.494188 -5.98062 0
M  V30 8305 H 813.09 -0.337004 -4.83728 0
M  V30 8306 N 814.433 1.57553 0.0384317 0
M  V30 8307 C 815.38 2.05942 1.04194 0
M  V30 8308 C 816.35 0.946637 1.36484 0
M  V30 8309 O 817.535 1.21658 1.46983 0
M  V30 8310 C 814.675 2.53588 2.34066 0
M  V30 8311 C 813.788 3.7862 2.08017 0
M  V30 8312 C 812.923 4.14915 3.31692 0
M  V30 8313 C 811.962 5.32891 3.01155 0
M  V30 8314 N 811.099 5.64662 4.17254 0
M  V30 8315 H 815.939 2.91429 0.622341 0
M  V30 8316 H 813.476 1.44098 0.295684 0
M  V30 8317 H 815.434 2.79276 3.09937 0
M  V30 8318 H 814.064 1.71031 2.73767 0
M  V30 8319 H 813.116 3.60073 1.22686 0
M  V30 8320 H 814.428 4.64613 1.81484 0
M  V30 8321 H 813.582 4.41681 4.15936 0
M  V30 8322 H 812.321 3.27555 3.6133 0
M  V30 8323 H 811.326 5.05887 2.15311 0
M  V30 8324 H 812.551 6.21896 2.72804 0
M  V30 8325 H 810.497 4.80261 4.46861 0
M  V30 8326 H 810.414 6.45145 3.94112 0
M  V30 8327 H 811.682 5.96 5.02399 0
M  V30 8328 N 815.911 -0.310526 1.54511 0
M  V30 8329 C 817.188 -1.06593 1.64004 0
M  V30 8330 C 817.568 -2.05519 0.482216 0
M  V30 8331 O 816.916 -2.22455 -0.52212 0
M  V30 8332 C 817.126 -1.75627 3.01589 0
M  V30 8333 C 818.474 -2.28173 3.58081 0
M  V30 8334 O 819.498 -1.85674 3.03979 0
M  V30 8335 O 818.357 -3.06015 4.52788 0
M  V30 8336 H 815.451 -0.492109 0.664649 0
M  V30 8337 H 817.997 -0.309374 1.66856 0
M  V30 8338 H 816.769 -1.03743 3.77297 0
M  V30 8339 H 816.392 -2.58061 3.02473 0
M  V30 8340 N 817.389 -1.46805 -0.573248 0
M  V30 8341 C 818.614 -1.56433 -1.36175 0
M  V30 8342 C 819.039 -0.209336 -1.86932 0
M  V30 8343 O 818.397 0.812146 -1.62092 0
M  V30 8344 C 818.445 -2.58055 -2.51873 0
M  V30 8345 O 817.549 -2.12214 -3.53609 0
M  V30 8346 H 816.89 -0.526068 -0.405153 0
M  V30 8347 H 819.42 -1.92456 -0.694405 0
M  V30 8348 H 819.43 -2.77966 -2.98662 0
M  V30 8349 H 818.105 -3.56448 -2.14284 0
M  V30 8350 H 816.682 -2.02333 -3.13234 0
M  V30 8351 N 818.867 0.818669 -1.34668 0
M  V30 8352 C 820.095 1.60674 -1.30351 0
M  V30 8353 C 820.51 1.88408 0.121546 0
M  V30 8354 O 819.867 1.47849 1.06991 0
M  V30 8355 C 819.918 2.94516 -2.09625 0
M  V30 8356 O 819.639 2.6799 -3.46573 0
M  V30 8357 C 821.14 3.8891 -2.12754 0
M  V30 8358 H 818.36 0.499306 -0.448258 0
M  V30 8359 H 820.904 1.01828 -1.77345 0
M  V30 8360 H 819.059 3.49908 -1.66262 0
M  V30 8361 H 819.473 3.53361 -3.87603 0
M  V30 8362 H 820.947 4.79972 -2.72637 0
M  V30 8363 H 821.424 4.24599 -1.12306 0
M  V30 8364 H 822.03 3.39453 -2.56225 0
M  V30 8365 N 820.346 1.18468 1.03938 0
M  V30 8366 C 821.623 0.890435 1.74157 0
M  V30 8367 C 822.003 -0.606409 2.02203 0
M  V30 8368 O 821.351 -1.5615 1.66822 0
M  V30 8369 C 821.561 1.73906 3.02585 0
M  V30 8370 C 822.909 1.96686 3.76297 0
M  V30 8371 O 823.933 1.70969 3.12487 0
M  V30 8372 O 822.792 2.39986 4.90988 0
M  V30 8373 H 819.886 0.330889 0.757919 0
M  V30 8374 H 822.432 1.29228 1.09992 0
M  V30 8375 H 821.204 2.75369 2.78006 0
M  V30 8376 H 820.827 1.33581 3.74489 0
M  V30 8377 N 821.824 -1.22873 0.986916 0
M  V30 8378 C 823.073 -1.90772 0.654911 0
M  V30 8379 C 823.386 -1.77768 -0.81595 0
M  V30 8380 O 824.592 -2.40529 -1.25929 0
M  V30 8381 C 823.048 -3.42003 1.12081 0
M  V30 8382 C 822.656 -3.63655 2.61647 0
M  V30 8383 C 824.4 -4.15638 0.862854 0
M  V30 8384 C 822.307 -5.08555 3.01871 0
M  V30 8385 H 821.237 -0.714362 0.241252 0
M  V30 8386 H 823.888 -1.39196 1.19568 0
M  V30 8387 H 822.27 -3.92725 0.508207 0
M  V30 8388 H 823.444 -3.2345 3.28202 0
M  V30 8389 H 821.759 -3.03341 2.8526 0
M  V30 8390 H 824.356 -5.22425 1.13915 0
M  V30 8391 H 824.699 -4.15814 -0.201036 0
M  V30 8392 H 825.232 -3.70924 1.43736 0
M  V30 8393 H 821.971 -5.13514 4.07411 0
M  V30 8394 H 821.491 -5.49684 2.40015 0
M  V30 8395 H 823.17 -5.76936 2.92839 0
M  V30 8396 N 823.302 -0.75937 -1.38099 0
M  V30 8397 C 824.527 -0.327859 -2.04792 0
M  V30 8398 C 824.952 1.03752 -1.56899 0
M  V30 8399 O 824.31 1.66235 -0.723581 0
M  V30 8400 C 824.358 -0.366264 -3.58735 0
M  V30 8401 O 823.462 0.637697 -4.0744 0
M  V30 8402 H 822.803 -0.144092 -0.648177 0
M  V30 8403 H 825.333 -1.03211 -1.7666 0
M  V30 8404 H 825.343 -0.219179 -4.07411 0
M  V30 8405 H 824.018 -1.36243 -3.92951 0
M  V30 8406 H 822.595 0.454749 -3.70117 0
M  V30 8407 N 824.78 1.49157 -0.508906 0
M  V30 8408 C 825.712 2.272 0.302115 0
M  V30 8409 C 826.725 1.3407 0.923529 0
M  V30 8410 O 827.914 1.5929 0.805532 0
M  V30 8411 C 825.014 3.06736 1.44105 0
M  V30 8412 C 824.187 4.27497 0.925477 0
M  V30 8413 C 823.246 4.89014 1.94297 0
M  V30 8414 O 822.272 5.48851 1.50834 0
M  V30 8415 N 823.474 4.7937 3.2739 0
M  V30 8416 H 826.239 2.97443 -0.367115 0
M  V30 8417 H 823.8 1.58248 -0.341933 0
M  V30 8418 H 825.792 3.44763 2.11944 0
M  V30 8419 H 824.362 2.3905 2.0143 0
M  V30 8420 H 823.582 3.94135 0.0717301 0
M  V30 8421 H 824.87 5.05714 0.55955 0
M  V30 8422 H 824.268 4.31869 3.65384 0
M  V30 8423 H 822.825 5.21559 3.90922 0
M  V30 8424 N 826.258 0.243083 1.55714 0
M  V30 8425 C 827.483 -0.389944 2.03701 0
M  V30 8426 C 827.908 -1.51025 1.12129 0
M  V30 8427 O 827.266 -1.80944 0.11352 0
M  V30 8428 C 827.314 -0.878649 3.49731 0
M  V30 8429 O 826.418 -1.98851 3.61292 0
M  V30 8430 H 825.759 -0.0855115 0.658471 0
M  V30 8431 H 828.289 0.368023 2.01263 0
M  V30 8432 H 828.299 -1.18287 3.90477 0
M  V30 8433 H 826.974 -0.0588107 4.15858 0
M  V30 8434 H 825.551 -1.68928 3.32442 0
M  V30 8435 N 827.736 -1.57571 -0.0300757 0
M  V30 8436 C 828.699 -2.05468 -1.01565 0
M  V30 8437 C 829.699 -0.958628 -1.29101 0
M  V30 8438 O 830.889 -1.22228 -1.24121 0
M  V30 8439 C 828.021 -2.47077 -2.34874 0
M  V30 8440 H 829.214 -2.93797 -0.601936 0
M  V30 8441 H 826.767 -1.53828 -0.276878 0
M  V30 8442 H 827.502 -1.61901 -2.80996 0
M  V30 8443 H 827.287 -3.27097 -2.16218 0
M  V30 8444 H 828.777 -2.84564 -3.05635 0
M  V30 8445 N 829.214 0.302327 -1.54673 0
M  V30 8446 C 830.46 1.03924 -1.74149 0
M  V30 8447 C 830.793 1.86968 -0.525041 0
M  V30 8448 O 830.068 1.88538 0.477868 0
M  V30 8449 C 830.351 1.94633 -3.02969 0
M  V30 8450 C 830.204 1.14778 -4.34909 0
M  V30 8451 C 831.523 2.93826 -3.27649 0
M  V30 8452 H 828.642 0.376405 -0.633631 0
M  V30 8453 H 831.284 0.314007 -1.87387 0
M  V30 8454 H 829.434 2.56471 -2.91813 0
M  V30 8455 H 831.106 0.552363 -4.57981 0
M  V30 8456 H 829.349 0.450462 -4.31455 0
M  V30 8457 H 830.02 1.81495 -5.21309 0
M  V30 8458 H 832.496 2.42117 -3.38406 0
M  V30 8459 H 831.372 3.54462 -4.19104 0
M  V30 8460 H 831.633 3.67416 -2.45882 0
M  V30 8461 N 830.692 1.47107 0.565454 0
M  V30 8462 C 831.622 1.61846 1.68309 0
M  V30 8463 C 832.603 0.468159 1.63531 0
M  V30 8464 O 833.788 0.696504 1.8128 0
M  V30 8465 C 830.918 1.62474 3.06952 0
M  V30 8466 C 829.872 2.76649 3.26572 0
M  V30 8467 C 829.198 2.62345 4.65917 0
M  V30 8468 C 830.498 4.18319 3.12741 0
M  V30 8469 H 832.192 2.55407 1.5623 0
M  V30 8470 H 829.738 1.22916 0.750179 0
M  V30 8471 H 831.691 1.71378 3.84977 0
M  V30 8472 H 830.415 0.654692 3.19971 0
M  V30 8473 H 829.074 2.67242 2.50952 0
M  V30 8474 H 828.722 1.63386 4.75725 0
M  V30 8475 H 828.422 3.38936 4.79996 0
M  V30 8476 H 829.946 2.73165 5.46089 0
M  V30 8477 H 831.36 4.28745 3.80593 0
M  V30 8478 H 829.757 4.95632 3.38333 0
M  V30 8479 H 830.827 4.37263 2.09592 0
M  V30 8480 N 832.17 -0.811516 1.35101 0
M  V30 8481 C 833.102 -1.93102 1.23468 0
M  V30 8482 C 834.115 -1.62021 0.159095 0
M  V30 8483 O 835.304 -1.73682 0.411945 0
M  V30 8484 C 832.404 -3.27345 0.877404 0
M  V30 8485 C 831.577 -3.86368 2.05033 0
M  V30 8486 C 830.636 -4.99009 1.66963 0
M  V30 8487 O 829.662 -5.16698 2.38772 0
M  V30 8488 N 830.864 -5.7749 0.590394 0
M  V30 8489 H 833.629 -2.0361 2.19916 0
M  V30 8490 H 831.19 -0.988687 1.28205 0
M  V30 8491 H 833.182 -4.00163 0.604298 0
M  V30 8492 H 831.752 -3.126 0.00275267 0
M  V30 8493 H 830.972 -3.05804 2.48752 0
M  V30 8494 H 832.26 -4.22533 2.83449 0
M  V30 8495 H 831.658 -5.657 -0.00633259 0
M  V30 8496 H 830.215 -6.50708 0.377055 0
M  V30 8497 N 833.648 -1.19017 -1.03309 0
M  V30 8498 C 834.596 -0.920627 -2.13605 0
M  V30 8499 C 835.59 0.121969 -1.6896 0
M  V30 8500 O 836.796 -0.0268854 -1.7998 0
M  V30 8501 H 833.171 -0.280284 -0.697814 0
M  V30 8502 H 835.142 -1.85755 -2.33533 0
M  V30 8503 C 833.891 -0.471198 -3.44492 0
M  V30 8504 H 833.214 -1.26499 -3.7926 0
M  V30 8505 H 834.654 -0.321663 -4.22778 0
M  V30 8506 C 833.113 0.81411 -3.26916 0
M  V30 8507 O 833.643 1.87654 -3.55175 0
M  V30 8508 N 831.849 0.769695 -2.80221 0
M  V30 8509 H 831.396 -0.0951278 -2.57424 0
M  V30 8510 H 831.354 1.63008 -2.68842 0
M  V30 8511 N 835.127 1.22348 -0.993418 0
M  V30 8512 C 836.352 1.95666 -0.687727 0
M  V30 8513 C 836.777 1.72883 0.741161 0
M  V30 8514 O 836.135 1.00837 1.50671 0
M  V30 8515 C 836.183 3.46457 -0.99998 0
M  V30 8516 O 835.287 4.12281 -0.0989386 0
M  V30 8517 H 834.628 0.612102 -0.257346 0
M  V30 8518 H 837.158 1.55428 -1.33054 0
M  V30 8519 H 837.168 3.96976 -0.942035 0
M  V30 8520 H 835.843 3.62365 -2.04118 0
M  V30 8521 H 834.42 3.72295 -0.212413 0
M  V30 8522 N 836.605 0.766683 1.37694 0
M  V30 8523 C 838.016 0.394761 1.82479 0
M  V30 8524 C 838.367 -1.07842 1.63904 0
M  V30 8525 O 837.492 -1.83479 1.14737 0
M  V30 8526 C 838.087 0.70974 3.31283 0
M  V30 8527 C 836.646 0.390936 3.74364 0
M  V30 8528 C 835.793 0.956192 2.60293 0
M  V30 8529 H 838.744 0.961756 1.26238 0
M  V30 8530 H 838.765 -0.00742144 3.80499 0
M  V30 8531 H 838.277 1.782 3.4477 0
M  V30 8532 H 836.378 -0.674213 3.66449 0
M  V30 8533 H 836.491 0.895645 4.70654 0
M  V30 8534 H 834.855 0.380744 2.51838 0
M  V30 8535 H 835.638 2.03375 2.76575 0
M  V30 8536 N 838.083 -1.48885 0.516809 0
M  V30 8537 C 838.993 -2.33185 -0.257293 0
M  V30 8538 C 840.009 -1.4565 -0.951952 0
M  V30 8539 O 841.185 -1.78651 -0.929834 0
M  V30 8540 C 838.25 -3.21465 -1.29851 0
M  V30 8541 C 837.311 -4.24863 -0.615608 0
M  V30 8542 C 836.544 -5.08925 -1.60722 0
M  V30 8543 O 836.767 -4.9475 -2.83863 0
M  V30 8544 O 835.701 -5.90737 -1.15384 0
M  V30 8545 H 839.527 -3.00596 0.433131 0
M  V30 8546 H 837.112 -1.46792 0.277908 0
M  V30 8547 H 838.994 -3.76108 -1.90055 0
M  V30 8548 H 837.669 -2.5673 -1.97158 0
M  V30 8549 H 836.576 -3.74091 0.0265829 0
M  V30 8550 H 837.909 -4.92198 0.0152871 0
M  V30 8551 N 839.561 -0.251338 -1.55583 0
M  V30 8552 C 840.493 0.679167 -2.18906 0
M  V30 8553 C 841.506 1.13545 -1.16667 0
M  V30 8554 O 842.695 1.06146 -1.4351 0
M  V30 8555 C 839.795 1.93544 -2.78198 0
M  V30 8556 C 838.968 1.62987 -4.05899 0
M  V30 8557 C 838.027 2.73618 -4.49466 0
M  V30 8558 O 837.053 2.40815 -5.15749 0
M  V30 8559 N 838.255 4.03204 -4.1762 0
M  V30 8560 H 841.02 0.137328 -2.99385 0
M  V30 8561 H 838.581 -0.0714754 -1.61742 0
M  V30 8562 H 840.573 2.66804 -3.04299 0
M  V30 8563 H 839.143 2.38695 -2.0185 0
M  V30 8564 H 838.363 0.732237 -3.8734 0
M  V30 8565 H 839.651 1.40041 -4.89148 0
M  V30 8566 H 839.049 4.32686 -3.64416 0
M  V30 8567 H 837.606 4.72916 -4.48547 0
M  V30 8568 N 841.039 1.57585 0.0217189 0
M  V30 8569 C 842.002 2.06004 1.00474 0
M  V30 8570 C 843.002 0.965461 1.2859 0
M  V30 8571 O 844.192 1.22884 1.23471 0
M  V30 8572 C 841.324 2.48319 2.33561 0
M  V30 8573 H 842.517 2.94112 0.586346 0
M  V30 8574 H 840.07 1.53973 0.268716 0
M  V30 8575 H 840.805 1.63389 2.80133 0
M  V30 8576 H 840.59 3.28239 2.1448 0
M  V30 8577 H 842.08 2.86181 3.04122 0
M  V30 8578 N 842.517 -0.29412 1.54831 0
M  V30 8579 C 843.766 -1.02614 1.73647 0
M  V30 8580 C 844.079 -1.88193 0.533162 0
M  V30 8581 O 845.285 -2.64713 0.603275 0
M  V30 8582 C 843.741 -1.87417 3.07251 0
M  V30 8583 C 843.349 -1.06806 4.35082 0
M  V30 8584 C 845.093 -2.60176 3.35423 0
M  V30 8585 C 843 -1.90926 5.59733 0
M  V30 8586 H 841.93 -0.386834 0.647206 0
M  V30 8587 H 844.581 -0.282789 1.81308 0
M  V30 8588 H 842.963 -2.65765 2.93572 0
M  V30 8589 H 844.137 -0.330226 4.59615 0
M  V30 8590 H 842.452 -0.455979 4.13896 0
M  V30 8591 H 845.049 -3.23476 4.25755 0
M  V30 8592 H 845.392 -3.29365 2.54606 0
M  V30 8593 H 845.925 -1.88871 3.50103 0
M  V30 8594 H 842.664 -1.26194 6.43238 0
M  V30 8595 H 842.184 -2.62363 5.39375 0
M  V30 8596 H 843.863 -2.48807 5.97247 0
M  V30 8597 N 843.995 -1.47404 -0.557645 0
M  V30 8598 C 844.905 -1.62491 -1.69216 0
M  V30 8599 C 845.921 -0.507764 -1.66426 0
M  V30 8600 O 847.097 -0.775241 -1.85882 0
M  V30 8601 C 844.162 -1.63511 -3.05721 0
M  V30 8602 C 843.223 -2.86648 -3.1958 0
M  V30 8603 C 842.456 -2.87609 -4.49574 0
M  V30 8604 O 842.679 -1.97799 -5.35006 0
M  V30 8605 O 841.613 -3.79465 -4.67215 0
M  V30 8606 H 845.439 -2.58487 -1.59431 0
M  V30 8607 H 843.024 -1.30485 -0.7276 0
M  V30 8608 H 844.906 -1.66863 -3.86956 0
M  V30 8609 H 843.581 -0.706812 -3.15889 0
M  V30 8610 H 842.488 -2.8884 -2.37744 0
M  V30 8611 H 843.821 -3.7877 -3.14316 0
M  V30 8612 N 845.473 0.80434 -1.35529 0
M  V30 8613 C 846.721 1.55845 -1.28673 0
M  V30 8614 C 847.042 1.94511 0.137976 0
M  V30 8615 O 846.312 1.63775 1.07492 0
M  V30 8616 H 844.892 0.577931 -0.473291 0
M  V30 8617 H 847.554 0.959293 -1.69657 0
M  V30 8618 H 846.65 2.47285 -1.90411 0
M  V30 8619 N 846.951 1.19563 1.02676 0
M  V30 8620 C 848.197 1.00105 1.76371 0
M  V30 8621 C 848.53 -0.466823 1.88506 0
M  V30 8622 O 847.805 -1.34665 1.40341 0
M  V30 8623 C 848.088 1.67321 3.18866 0
M  V30 8624 C 847.941 3.21486 3.1459 0
M  V30 8625 C 849.26 1.39794 4.17308 0
M  V30 8626 H 846.379 0.365075 0.640226 0
M  V30 8627 H 849.021 1.47433 1.19848 0
M  V30 8628 H 847.171 1.27081 3.67128 0
M  V30 8629 H 848.843 3.70953 2.7421 0
M  V30 8630 H 847.086 3.5292 2.52249 0
M  V30 8631 H 847.757 3.63665 4.15273 0
M  V30 8632 H 850.233 1.74685 3.77657 0
M  V30 8633 H 849.109 1.89371 5.15199 0
M  V30 8634 H 849.37 0.323505 4.40915 0
M  V30 8635 N 848.429 -1.21819 0.999893 0
M  V30 8636 C 849.678 -1.90066 0.675108 0
M  V30 8637 C 849.991 -1.78624 -0.79705 0
M  V30 8638 O 851.197 -2.41851 -1.23371 0
M  V30 8639 C 849.653 -3.40795 1.15702 0
M  V30 8640 C 849.261 -3.60859 2.6549 0
M  V30 8641 C 851.005 -4.147 0.906889 0
M  V30 8642 C 848.912 -5.05324 3.07248 0
M  V30 8643 H 847.842 -0.711763 0.248815 0
M  V30 8644 H 850.493 -1.3792 1.21038 0
M  V30 8645 H 848.875 -3.92164 0.549832 0
M  V30 8646 H 850.049 -3.19951 3.31614 0
M  V30 8647 H 848.364 -3.00298 2.88461 0
M  V30 8648 H 850.961 -5.21187 1.1945 0
M  V30 8649 H 851.304 -4.16004 -0.156923 0
M  V30 8650 H 851.837 -3.69379 1.47662 0
M  V30 8651 H 848.576 -5.09164 4.12834 0
M  V30 8652 H 848.096 -5.47108 2.45832 0
M  V30 8653 H 849.775 -5.73797 2.98941 0
M  V30 8654 N 849.908 -0.773975 -1.37286 0
M  V30 8655 C 851.133 -0.349561 -2.04433 0
M  V30 8656 C 851.558 1.02082 -1.5799 0
M  V30 8657 O 850.916 1.65458 -0.741172 0
M  V30 8658 C 850.964 -0.404292 -3.58326 0
M  V30 8659 O 850.068 0.594447 -4.08093 0
M  V30 8660 H 849.409 -0.150959 -0.646612 0
M  V30 8661 H 851.939 -1.05079 -1.75555 0
M  V30 8662 H 851.949 -0.262378 -4.07155 0
M  V30 8663 H 850.624 -1.40403 -3.91484 0
M  V30 8664 H 849.201 0.415468 -3.70578 0
M  V30 8665 N 851.386 1.48609 -0.524698 0
M  V30 8666 C 852.614 2.06899 0.00742946 0
M  V30 8667 C 853.029 1.38196 1.28637 0
M  V30 8668 O 852.386 0.467771 1.76403 0
M  V30 8669 C 852.437 3.60699 0.240548 0
M  V30 8670 O 852.158 4.26821 -0.987715 0
M  V30 8671 C 853.659 4.35769 0.813652 0
M  V30 8672 H 850.879 0.670278 -0.0311294 0
M  V30 8673 H 853.423 1.91071 -0.728832 0
M  V30 8674 H 851.578 3.76149 0.926845 0
M  V30 8675 H 851.992 5.18889 -0.765175 0
M  V30 8676 H 853.466 5.44174 0.926219 0
M  V30 8677 H 853.943 3.9984 1.81728 0
M  V30 8678 H 854.549 4.24983 0.164086 0
M  V30 8679 N 852.864 0.259585 1.55447 0
M  V30 8680 C 854.092 -0.365392 2.03648 0
M  V30 8681 C 854.507 -1.50613 1.13847 0
M  V30 8682 O 853.864 -1.81837 0.155414 0
M  V30 8683 C 853.915 -0.861172 3.51093 0
M  V30 8684 O 853.636 0.234121 4.37474 0
M  V30 8685 C 855.137 -1.55555 4.15111 0
M  V30 8686 H 852.357 -0.0853439 0.66555 0
M  V30 8687 H 854.901 0.387151 2.00802 0
M  V30 8688 H 853.056 -1.56385 3.54433 0
M  V30 8689 H 853.47 -0.1444 5.24301 0
M  V30 8690 H 854.944 -1.85403 5.19932 0
M  V30 8691 H 855.421 -2.48185 3.62355 0
M  V30 8692 H 856.027 -0.89712 4.15731 0
M  V30 8693 N 854.342 -1.57594 -0.0133615 0
M  V30 8694 C 855.591 -1.8916 -0.700103 0
M  V30 8695 C 855.904 -0.860147 -1.75673 0
M  V30 8696 O 857.11 -1.06556 -2.49716 0
M  V30 8697 C 855.566 -3.35742 -1.29635 0
M  V30 8698 C 855.174 -4.47154 -0.275249 0
M  V30 8699 C 856.918 -3.76436 -1.96205 0
M  V30 8700 C 854.825 -5.84805 -0.880726 0
M  V30 8701 H 853.755 -0.705805 -0.265247 0
M  V30 8702 H 856.406 -1.83445 0.044993 0
M  V30 8703 H 854.788 -3.36252 -2.09167 0
M  V30 8704 H 855.962 -4.58139 0.494506 0
M  V30 8705 H 854.277 -4.15394 0.289256 0
M  V30 8706 H 856.874 -4.76606 -2.42386 0
M  V30 8707 H 857.217 -3.09249 -2.78695 0
M  V30 8708 H 857.75 -3.78168 -1.23426 0
M  V30 8709 H 854.489 -6.55431 -0.0949013 0
M  V30 8710 H 854.009 -5.7751 -1.61995 0
M  V30 8711 H 855.688 -6.32038 -1.38338 0
M  V30 8712 N 855.82 0.285905 -1.54985 0
M  V30 8713 C 856.752 1.37505 -1.83371 0
M  V30 8714 C 857.765 1.46138 -0.717454 0
M  V30 8715 O 858.954 1.48186 -0.995142 0
M  V30 8716 C 856.054 2.7575 -1.97016 0
M  V30 8717 C 855.227 2.89866 -3.27561 0
M  V30 8718 C 854.286 4.08704 -3.31433 0
M  V30 8719 O 853.312 4.00073 -4.04883 0
M  V30 8720 N 854.514 5.20062 -2.57907 0
M  V30 8721 H 857.279 1.13505 -2.77375 0
M  V30 8722 H 854.84 0.476006 -1.54744 0
M  V30 8723 H 856.832 3.5352 -1.96991 0
M  V30 8724 H 855.402 2.9263 -1.09938 0
M  V30 8725 H 854.622 1.99085 -3.40234 0
M  V30 8726 H 855.91 2.96219 -4.13681 0
M  V30 8727 H 855.308 5.29958 -1.97891 0
M  V30 8728 H 853.865 5.96111 -2.63619 0
M  V30 8729 N 857.298 1.47698 0.54982 0
M  V30 8730 C 858.246 1.61156 1.67724 0
M  V30 8731 C 859.24 0.478606 1.62498 0
M  V30 8732 O 860.446 0.656661 1.67595 0
M  V30 8733 H 856.821 0.507304 0.55511 0
M  V30 8734 H 858.792 2.55884 1.53512 0
M  V30 8735 C 857.541 1.64994 3.06059 0
M  V30 8736 H 856.864 2.51525 3.10765 0
M  V30 8737 H 858.304 1.78459 3.84615 0
M  V30 8738 C 856.763 0.384677 3.34697 0
M  V30 8739 O 857.293 -0.511057 3.98436 0
M  V30 8740 N 855.499 0.262434 2.89413 0
M  V30 8741 H 855.046 0.99229 2.37721 0
M  V30 8742 H 855.004 -0.583177 3.08944 0
M  V30 8743 N 858.776 -0.797141 1.35954 0
M  V30 8744 C 859.706 -1.92387 1.32323 0
M  V30 8745 C 860.687 -1.68967 0.196007 0
M  V30 8746 O 861.872 -1.90193 0.39245 0
M  V30 8747 C 859.002 -3.29286 1.10398 0
M  V30 8748 C 857.956 -3.67212 2.19862 0
M  V30 8749 C 857.282 -5.02377 1.8309 0
M  V30 8750 C 858.582 -3.76602 3.61896 0
M  V30 8751 H 860.276 -1.95683 2.26602 0
M  V30 8752 H 857.822 -0.94007 1.09081 0
M  V30 8753 H 859.775 -4.07721 1.06495 0
M  V30 8754 H 858.499 -3.26358 0.125668 0
M  V30 8755 H 857.158 -2.91069 2.22878 0
M  V30 8756 H 856.806 -4.95961 0.838527 0
M  V30 8757 H 856.506 -5.28722 2.56372 0
M  V30 8758 H 858.03 -5.8324 1.80729 0
M  V30 8759 H 859.444 -4.45246 3.6115 0
M  V30 8760 H 857.841 -4.14425 4.34018 0
M  V30 8761 H 858.911 -2.77906 3.97361 0
M  V30 8762 N 860.254 -1.20106 -1.0204 0
M  V30 8763 C 861.482 -1.0344 -1.79186 0
M  V30 8764 C 861.897 0.416542 -1.84148 0
M  V30 8765 O 861.254 1.28925 -1.29168 0
M  V30 8766 C 861.305 -1.60663 -3.23836 0
M  V30 8767 O 861.026 -3.00079 -3.19193 0
M  V30 8768 C 862.527 -1.48897 -4.17546 0
M  V30 8769 H 859.747 -0.364093 -0.563629 0
M  V30 8770 H 862.291 -1.5911 -1.28469 0
M  V30 8771 H 860.446 -1.09122 -3.71714 0
M  V30 8772 H 860.86 -3.27162 -4.09958 0
M  V30 8773 H 862.334 -1.93703 -5.16898 0
M  V30 8774 H 862.811 -0.440843 -4.36982 0
M  V30 8775 H 863.417 -1.9961 -3.75547 0
M  V30 8776 N 861.732 1.21287 -1.00634 0
M  V30 8777 C 863.143 1.72136 -0.722914 0
M  V30 8778 C 863.494 1.8091 0.759338 0
M  V30 8779 O 862.619 1.46458 1.59308 0
M  V30 8780 C 863.214 3.12633 -1.30561 0
M  V30 8781 C 861.773 3.60833 -1.07127 0
M  V30 8782 C 860.92 2.38326 -1.4176 0
M  V30 8783 H 863.871 1.06445 -1.17708 0
M  V30 8784 H 863.892 3.74174 -0.690937 0
M  V30 8785 H 863.404 3.06215 -2.38441 0
M  V30 8786 H 861.505 3.72599 -0.00968671 0
M  V30 8787 H 861.618 4.46226 -1.74411 0
M  V30 8788 H 859.982 2.40575 -0.836412 0
M  V30 8789 H 860.765 2.34558 -2.50674 0
M  V30 8790 N 863.21 0.781244 1.36873 0
M  V30 8791 C 864.142 0.132075 2.28819 0
M  V30 8792 C 865.155 -0.653925 1.49089 0
M  V30 8793 O 866.344 -0.490453 1.7163 0
M  V30 8794 C 863.444 -0.836297 3.28419 0
M  V30 8795 C 862.617 -0.102097 4.37281 0
M  V30 8796 C 861.676 -0.985217 5.16894 0
M  V30 8797 O 860.702 -0.445478 5.67454 0
M  V30 8798 N 861.904 -2.31043 5.3254 0
M  V30 8799 H 864.669 0.921838 2.85171 0
M  V30 8800 H 862.23 0.634427 1.48952 0
M  V30 8801 H 864.222 -1.43074 3.78566 0
M  V30 8802 H 862.792 -1.52698 2.72767 0
M  V30 8803 H 862.012 0.67335 3.88407 0
M  V30 8804 H 863.3 0.404862 5.07187 0
M  V30 8805 H 862.698 -2.77318 4.93063 0
M  V30 8806 H 861.255 -2.85472 5.8596 0
M  V30 8807 N 864.689 -1.48329 0.532571 0
M  V30 8808 C 865.637 -2.31336 -0.242133 0
M  V30 8809 C 866.631 -1.41391 -0.933006 0
M  V30 8810 O 867.837 -1.58284 -0.857096 0
M  V30 8811 H 864.212 -0.745724 -0.0969536 0
M  V30 8812 H 866.183 -2.94555 0.477504 0
M  V30 8813 C 864.932 -3.23501 -1.27446 0
M  V30 8814 H 864.255 -3.92659 -0.752261 0
M  V30 8815 H 865.695 -3.84461 -1.78789 0
M  V30 8816 C 864.154 -2.45288 -2.30944 0
M  V30 8817 O 864.684 -2.17955 -3.37429 0
M  V30 8818 N 862.89 -2.06737 -2.04226 0
M  V30 8819 H 862.437 -2.29166 -1.17647 0
M  V30 8820 H 862.395 -1.54719 -2.73696 0
M  V30 8821 N 866.167 -0.267825 -1.55308 0
M  V30 8822 C 867.416 0.351635 -1.98611 0
M  V30 8823 C 867.729 1.57522 -1.15957 0
M  V30 8824 O 868.935 2.26717 -1.49371 0
M  V30 8825 C 867.391 0.676986 -3.53475 0
M  V30 8826 C 866.999 -0.526385 -4.44897 0
M  V30 8827 C 868.743 1.25948 -4.05386 0
M  V30 8828 C 866.65 -0.176026 -5.91138 0
M  V30 8829 H 865.58 0.13516 -0.741787 0
M  V30 8830 H 868.231 -0.371333 -1.79704 0
M  V30 8831 H 866.613 1.45866 -3.68156 0
M  V30 8832 H 867.787 -1.30339 -4.41982 0
M  V30 8833 H 866.102 -1.02522 -4.03582 0
M  V30 8834 H 868.699 1.53529 -5.12184 0
M  V30 8835 H 869.042 2.19094 -3.53982 0
M  V30 8836 H 869.575 0.540253 -3.94114 0
M  V30 8837 H 866.314 -1.07518 -6.46622 0
M  V30 8838 H 865.834 0.564363 -5.97139 0
M  V30 8839 H 867.513 0.234365 -6.46575 0
M  V30 8840 N 867.645 1.57599 0.00500368 0
M  V30 8841 C 868.87 1.95026 0.705663 0
M  V30 8842 C 869.295 0.869643 1.6679 0
M  V30 8843 O 868.653 -0.172659 1.80476 0
M  V30 8844 C 868.701 3.31545 1.4181 0
M  V30 8845 O 867.805 3.25495 2.53232 0
M  V30 8846 H 867.146 0.636808 0.188074 0
M  V30 8847 H 869.676 2.04547 -0.046696 0
M  V30 8848 H 869.686 3.66996 1.78265 0
M  V30 8849 H 868.361 4.09751 0.712543 0
M  V30 8850 H 866.938 3.01714 2.19142 0
M  V30 8851 N 869.123 -0.277682 1.55134 0
M  V30 8852 C 870.086 -1.32635 1.86924 0
M  V30 8853 C 871.086 -1.42578 0.743507 0
M  V30 8854 O 872.276 -1.4181 1.01171 0
M  V30 8855 C 869.408 -2.70832 2.07034 0
M  V30 8856 H 870.601 -1.0568 2.80663 0
M  V30 8857 H 868.154 -0.515517 1.47554 0
M  V30 8858 H 868.889 -3.02974 1.15661 0
M  V30 8859 H 868.674 -2.65001 2.88993 0
M  V30 8860 H 870.164 -3.46611 2.32918 0
M  V30 8861 N 870.601 -1.47988 -0.541979 0
M  V30 8862 C 871.826 -1.59286 -1.32826 0
M  V30 8863 C 872.251 -0.24894 -1.86445 0
M  V30 8864 O 871.609 0.777581 -1.63778 0
M  V30 8865 C 871.657 -2.6334 -2.46343 0
M  V30 8866 O 870.761 -2.19667 -3.49028 0
M  V30 8867 H 870.102 -0.534543 -0.393903 0
M  V30 8868 H 872.632 -1.93885 -0.653427 0
M  V30 8869 H 872.642 -2.84238 -2.92699 0
M  V30 8870 H 871.317 -3.60913 -2.06675 0
M  V30 8871 H 869.894 -2.08932 -3.08872 0
M  V30 8872 N 872.079 0.78992 -1.36375 0
M  V30 8873 C 872.989 1.93386 -1.32812 0
M  V30 8874 C 874.005 1.72468 -0.230377 0
M  V30 8875 O 875.181 1.96014 -0.462657 0
M  V30 8876 C 872.246 3.2824 -1.11621 0
M  V30 8877 C 871.307 3.61939 -2.30865 0
M  V30 8878 C 870.54 4.90359 -2.10675 0
M  V30 8879 O 870.763 5.6005 -1.08168 0
M  V30 8880 O 869.697 5.22702 -2.9844 0
M  V30 8881 H 873.523 1.99342 -2.29121 0
M  V30 8882 H 871.108 0.9301 -1.16917 0
M  V30 8883 H 872.99 4.08939 -1.01719 0
M  V30 8884 H 871.665 3.23178 -0.183732 0
M  V30 8885 H 870.572 2.81549 -2.46335 0
M  V30 8886 H 871.905 3.71725 -3.22617 0
M  V30 8887 N 873.557 1.20646 1.01402 0
M  V30 8888 C 874.805 1.01618 1.74695 0
M  V30 8889 C 875.126 -0.452438 1.89679 0
M  V30 8890 O 874.396 -1.32693 1.44116 0
M  V30 8891 H 872.976 0.373013 0.647202 0
M  V30 8892 H 875.638 1.518 1.22241 0
M  V30 8893 H 874.734 1.47666 2.74957 0
M  V30 8894 N 875.035 -1.20752 1.01276 0
M  V30 8895 C 876.26 -1.94547 0.718769 0
M  V30 8896 C 876.685 -1.7404 -0.713563 0
M  V30 8897 O 876.043 -1.03221 -1.49047 0
M  V30 8898 C 876.091 -3.44823 1.05497 0
M  V30 8899 O 875.195 -4.12072 0.164516 0
M  V30 8900 H 874.536 -0.607931 0.267051 0
M  V30 8901 H 877.066 -1.53292 1.35509 0
M  V30 8902 H 877.076 -3.95427 1.00507 0
M  V30 8903 H 875.751 -3.59072 2.09858 0
M  V30 8904 H 874.328 -3.71909 0.271615 0
M  V30 8905 N 876.513 -0.788492 -1.36457 0
M  V30 8906 C 877.762 -0.357052 -1.98515 0
M  V30 8907 C 878.075 1.0769 -1.63285 0
M  V30 8908 O 879.281 1.61057 -2.1857 0
M  V30 8909 C 877.737 -0.587449 -3.55073 0
M  V30 8910 C 877.345 -2.03276 -3.99228 0
M  V30 8911 C 879.089 -0.220468 -4.23927 0
M  V30 8912 C 876.996 -2.20987 -5.48561 0
M  V30 8913 H 875.926 -0.129762 -0.74275 0
M  V30 8914 H 878.577 -0.969995 -1.55767 0
M  V30 8915 H 876.959 0.0951918 -3.95886 0
M  V30 8916 H 878.133 -2.75173 -3.69617 0
M  V30 8917 H 876.448 -2.3579 -3.43208 0
M  V30 8918 H 879.045 -0.331085 -5.33674 0
M  V30 8919 H 879.388 0.831306 -4.07915 0
M  V30 8920 H 879.921 -0.856309 -3.88474 0
M  V30 8921 H 876.66 -3.24543 -5.69519 0
M  V30 8922 H 876.18 -1.53594 -5.79801 0
M  V30 8923 H 877.859 -2.01656 -6.14771 0
M  V30 8924 N 877.991 1.48044 -0.54043 0
M  V30 8925 C 879.239 2.02097 -0.0101367 0
M  V30 8926 C 879.56 1.41881 1.33771 0
M  V30 8927 O 878.83 0.587923 1.8687 0
M  V30 8928 H 877.41 0.747 -0.000758716 0
M  V30 8929 H 880.072 1.81639 -0.706634 0
M  V30 8930 H 879.168 3.11969 0.0904474 0
M  V30 8931 N 879.47 0.276058 1.55163 0
M  V30 8932 C 880.433 -0.597924 2.21263 0
M  V30 8933 C 881.433 -1.0806 1.19078 0
M  V30 8934 O 882.623 -0.980626 1.43977 0
M  V30 8935 C 879.755 -1.82503 2.87933 0
M  V30 8936 H 880.948 -0.0207769 2.99893 0
M  V30 8937 H 878.501 0.0266823 1.56277 0
M  V30 8938 H 879.236 -2.44266 2.13318 0
M  V30 8939 H 879.021 -1.48683 3.62816 0
M  V30 8940 H 880.511 -2.44651 3.38431 0
M  V30 8941 N 880.948 -1.576 0.00335426 0
M  V30 8942 C 881.911 -2.07576 -0.971838 0
M  V30 8943 C 882.911 -0.985796 -1.27038 0
M  V30 8944 O 884.101 -1.24833 -1.21501 0
M  V30 8945 C 881.233 -2.52003 -2.29581 0
M  V30 8946 H 882.426 -2.95008 -0.539481 0
M  V30 8947 H 879.979 -1.54381 -0.244186 0
M  V30 8948 H 880.714 -1.67825 -2.77498 0
M  V30 8949 H 880.499 -3.31609 -2.09231 0
M  V30 8950 H 881.989 -2.90983 -2.99531 0
M  V30 8951 N 882.426 0.269451 -1.5528 0
M  V30 8952 C 883.389 1.31642 -1.87625 0
M  V30 8953 C 884.389 1.42182 -0.751058 0
M  V30 8954 O 885.579 1.41272 -1.01921 0
M  V30 8955 C 882.711 2.6973 -2.08467 0
M  V30 8956 H 883.904 1.0419 -2.81219 0
M  V30 8957 H 881.457 0.507685 -1.47825 0
M  V30 8958 H 882.192 3.02356 -1.17266 0
M  V30 8959 H 881.977 2.63465 -2.90394 0
M  V30 8960 H 883.467 3.4537 -2.34753 0
M  V30 8961 N 883.904 1.48273 0.534124 0
M  V30 8962 C 885.315 1.49667 1.1161 0
M  V30 8963 C 885.666 0.264139 1.94414 0
M  V30 8964 O 884.791 -0.629084 2.07054 0
M  V30 8965 C 885.386 2.71191 2.03079 0
M  V30 8966 C 883.945 2.7547 2.56502 0
M  V30 8967 C 883.092 2.43119 1.33373 0
M  V30 8968 H 886.043 1.55449 0.319578 0
M  V30 8969 H 886.064 2.49473 2.87304 0
M  V30 8970 H 885.576 3.60879 1.42785 0
M  V30 8971 H 883.677 1.89979 3.20529 0
M  V30 8972 H 883.79 3.76787 2.95919 0
M  V30 8973 H 882.154 1.94187 1.64813 0
M  V30 8974 H 882.937 3.35044 0.748375 0
M  V30 8975 N 885.382 -0.782676 1.36792 0
M  V30 8976 C 886.345 -1.8772 1.31507 0
M  V30 8977 C 887.345 -1.59269 0.221349 0
M  V30 8978 O 888.535 -1.67555 0.476544 0
M  V30 8979 C 885.667 -3.24641 1.04025 0
M  V30 8980 H 886.86 -1.9382 2.28853 0
M  V30 8981 H 884.413 -0.981226 1.21662 0
M  V30 8982 H 885.148 -3.24221 0.0716439 0
M  V30 8983 H 884.933 -3.46681 1.8318 0
M  V30 8984 H 886.423 -4.04711 1.02949 0
M  V30 8985 N 886.86 -1.21182 -1.00761 0
M  V30 8986 C 887.79 -0.992773 -2.11344 0
M  V30 8987 C 888.771 0.0813618 -1.69905 0
M  V30 8988 O 889.956 -0.0779503 -1.94043 0
M  V30 8989 C 887.086 -0.553826 -3.42856 0
M  V30 8990 C 886.04 -1.57223 -3.98077 0
M  V30 8991 C 885.366 -0.989605 -5.25463 0
M  V30 8992 C 886.666 -2.95839 -4.30438 0
M  V30 8993 H 888.36 -1.91766 -2.29927 0
M  V30 8994 H 885.906 -0.923426 -1.10494 0
M  V30 8995 H 887.859 -0.387771 -4.19612 0
M  V30 8996 H 886.583 0.406702 -3.24058 0
M  V30 8997 H 885.242 -1.7258 -3.23437 0
M  V30 8998 H 884.89 -0.0208743 -5.02996 0
M  V30 8999 H 884.59 -1.66984 -5.63374 0
M  V30 9000 H 886.114 -0.834815 -6.04866 0
M  V30 9001 H 887.528 -2.8394 -4.98047 0
M  V30 9002 H 885.925 -3.60851 -4.79486 0
M  V30 9003 H 886.995 -3.46882 -3.38823 0
M  V30 9004 N 888.338 1.20213 -1.01915 0
M  V30 9005 C 889.27 2.2251 -0.549725 0
M  V30 9006 C 890.283 1.58558 0.369235 0
M  V30 9007 O 891.472 1.77715 0.167176 0
M  V30 9008 C 888.572 3.38189 0.219432 0
M  V30 9009 C 887.745 4.31729 -0.702066 0
M  V30 9010 C 886.804 5.26196 0.0199624 0
M  V30 9011 O 885.83 5.65993 -0.60339 0
M  V30 9012 N 887.032 5.65895 1.29397 0
M  V30 9013 H 889.797 2.63412 -1.42948 0
M  V30 9014 H 887.358 1.3478 -0.896987 0
M  V30 9015 H 889.35 3.98392 0.711763 0
M  V30 9016 H 887.92 2.96156 1.00051 0
M  V30 9017 H 887.14 3.69455 -1.37466 0
M  V30 9018 H 888.428 4.91145 -1.3287 0
M  V30 9019 H 887.826 5.35579 1.8213 0
M  V30 9020 H 886.383 6.28395 1.73098 0
M  V30 9021 N 889.816 0.795718 1.36037 0
M  V30 9022 C 890.779 0.204318 2.28287 0
M  V30 9023 C 891.779 -0.602017 1.49105 0
M  V30 9024 O 892.969 -0.422089 1.69009 0
M  V30 9025 C 890.101 -0.716431 3.33287 0
M  V30 9026 H 891.294 1.01781 2.821 0
M  V30 9027 H 888.847 0.565588 1.45708 0
M  V30 9028 H 889.582 -1.55403 2.84641 0
M  V30 9029 H 889.367 -0.140096 3.9185 0
M  V30 9030 H 890.857 -1.12488 4.02164 0
M  V30 9031 N 891.294 -1.47756 0.548274 0
M  V30 9032 C 892.257 -2.28379 -0.193857 0
M  V30 9033 C 893.257 -1.36436 -0.850986 0
M  V30 9034 O 894.447 -1.59154 -0.70822 0
M  V30 9035 C 891.579 -3.15858 -1.28243 0
M  V30 9036 H 892.772 -2.95458 0.514231 0
M  V30 9037 H 890.325 -1.53298 0.304879 0
M  V30 9038 H 891.06 -2.5345 -2.0232 0
M  V30 9039 H 890.845 -3.83512 -0.816148 0
M  V30 9040 H 892.335 -3.76627 -1.80393 0
M  V30 9041 N 892.772 -0.284283 -1.55015 0
M  V30 9042 C 893.682 0.60906 -2.26556 0
M  V30 9043 C 894.698 1.16246 -1.29472 0
M  V30 9044 O 895.874 1.1908 -1.62425 0
M  V30 9045 C 892.939 1.77246 -2.97968 0
M  V30 9046 C 892 1.25482 -4.10552 0
M  V30 9047 C 891.233 2.36277 -4.78549 0
M  V30 9048 O 891.456 3.55829 -4.45805 0
M  V30 9049 O 890.39 2.03914 -5.66306 0
M  V30 9050 H 894.216 0.0292298 -3.03686 0
M  V30 9051 H 891.801 -0.0513466 -1.49312 0
M  V30 9052 H 893.683 2.45062 -3.42815 0
M  V30 9053 H 892.358 2.33921 -2.23747 0
M  V30 9054 H 891.265 0.542859 -3.7014 0
M  V30 9055 H 892.598 0.733708 -4.86701 0
M  V30 9056 N 894.251 1.57596 -0.0117121 0
M  V30 9057 C 895.479 1.9536 0.681334 0
M  V30 9058 C 895.894 0.887255 1.66653 0
M  V30 9059 O 895.251 -0.132692 1.82017 0
M  V30 9060 C 895.302 3.33165 1.40298 0
M  V30 9061 O 895.023 4.35707 0.45728 0
M  V30 9062 C 896.524 3.85458 2.18946 0
M  V30 9063 H 893.744 0.643826 0.189023 0
M  V30 9064 H 896.288 2.04392 -0.066311 0
M  V30 9065 H 894.443 3.25404 2.10216 0
M  V30 9066 H 894.857 5.15495 0.96773 0
M  V30 9067 H 896.331 4.84275 2.64918 0
M  V30 9068 H 896.808 3.18781 3.02118 0
M  V30 9069 H 897.414 3.96431 1.5402 0
M  V30 9070 N 895.729 -0.261212 1.5542 0
M  V30 9071 C 896.977 -0.989272 1.76232 0
M  V30 9072 C 897.298 -1.86389 0.573067 0
M  V30 9073 O 896.568 -1.91526 -0.41166 0
M  V30 9074 H 895.148 -0.368256 0.64992 0
M  V30 9075 H 897.81 -0.282603 1.9284 0
M  V30 9076 H 896.906 -1.61935 2.66802 0
M  V30 9077 N 897.207 -1.48554 -0.526253 0
M  V30 9078 C 898.17 -1.62868 -1.61266 0
M  V30 9079 C 899.17 -0.501762 -1.52771 0
M  V30 9080 O 900.36 -0.76764 -1.56374 0
M  V30 9081 C 897.492 -1.60238 -3.00893 0
M  V30 9082 H 898.685 -2.59742 -1.49913 0
M  V30 9083 H 896.238 -1.37207 -0.748595 0
M  V30 9084 H 896.973 -0.648545 -3.17749 0
M  V30 9085 H 896.758 -2.42054 -3.08468 0
M  V30 9086 H 898.248 -1.73455 -3.79872 0
M  V30 9087 N 898.685 0.775411 -1.37205 0
M  V30 9088 C 899.913 1.56446 -1.35397 0
M  V30 9089 C 900.328 1.887 0.0615437 0
M  V30 9090 O 899.685 1.51178 1.02233 0
M  V30 9091 C 899.736 2.87697 -2.18889 0
M  V30 9092 O 899.457 2.56828 -3.54924 0
M  V30 9093 C 900.958 3.81944 -2.25019 0
M  V30 9094 H 898.178 0.484792 -0.463916 0
M  V30 9095 H 900.722 0.961346 -1.80495 0
M  V30 9096 H 898.877 3.44442 -1.7731 0
M  V30 9097 H 899.291 3.40851 -3.98649 0
M  V30 9098 H 900.765 4.71055 -2.87769 0
M  V30 9099 H 901.242 4.20811 -1.25757 0
M  V30 9100 H 901.848 3.3113 -2.66895 0
M  V30 9101 N 900.163 1.21714 1.00117 0
M  V30 9102 C 901.388 1.06357 1.78054 0
M  V30 9103 C 901.813 -0.382075 1.84179 0
M  V30 9104 O 901.171 -1.27575 1.28819 0
M  V30 9105 C 901.219 1.66982 3.19608 0
M  V30 9106 O 900.323 0.917892 4.02055 0
M  V30 9107 H 899.664 0.374074 0.548602 0
M  V30 9108 H 902.194 1.61338 1.25822 0
M  V30 9109 H 902.204 1.71363 3.70268 0
M  V30 9110 H 900.879 2.72185 3.14465 0
M  V30 9111 H 899.456 0.949473 3.6061 0
M  V30 9112 N 901.641 -1.19671 1.02551 0
M  V30 9113 C 902.869 -1.93233 0.739513 0
M  V30 9114 C 903.284 -1.75298 -0.701158 0
M  V30 9115 O 902.641 -1.07269 -1.47647 0
M  V30 9116 C 902.692 -3.45085 1.07697 0
M  V30 9117 O 902.413 -3.62441 2.46106 0
M  V30 9118 C 903.914 -4.35776 0.813298 0
M  V30 9119 H 901.134 -0.613905 0.270853 0
M  V30 9120 H 903.678 -1.51909 1.36909 0
M  V30 9121 H 901.833 -3.84255 0.492635 0
M  V30 9122 H 902.247 -4.56337 2.58567 0
M  V30 9123 H 903.721 -5.40941 1.09941 0
M  V30 9124 H 904.198 -4.38474 -0.252359 0
M  V30 9125 H 904.804 -4.02282 1.38021 0
M  V30 9126 N 903.119 -0.802921 -1.35613 0
M  V30 9127 C 904.082 -0.216422 -2.28176 0
M  V30 9128 C 905.082 0.594101 -1.49422 0
M  V30 9129 O 906.272 0.41312 -1.6923 0
M  V30 9130 C 903.404 0.698746 -3.33662 0
M  V30 9131 H 904.597 -1.03276 -2.81557 0
M  V30 9132 H 902.15 -0.573307 -1.45406 0
M  V30 9133 H 902.885 1.53891 -2.85461 0
M  V30 9134 H 902.67 0.119314 -3.91918 0
M  V30 9135 H 904.16 1.10354 -4.02755 0
M  V30 9136 N 904.597 1.47463 -0.556102 0
M  V30 9137 C 905.825 2.06868 -0.0364585 0
M  V30 9138 C 906.24 1.40893 1.25677 0
M  V30 9139 O 905.597 0.505083 1.75371 0
M  V30 9140 C 905.648 3.61128 0.163984 0
M  V30 9141 O 905.369 4.24629 -1.07803 0
M  V30 9142 C 906.87 4.37397 0.721036 0
M  V30 9143 H 904.09 0.669466 -0.0453399 0
M  V30 9144 H 906.634 1.89482 -0.769198 0
M  V30 9145 H 904.789 3.78031 0.84685 0
M  V30 9146 H 905.203 5.17149 -0.875067 0
M  V30 9147 H 906.677 5.46016 0.810584 0
M  V30 9148 H 907.154 4.03604 1.73206 0
M  V30 9149 H 907.76 4.25236 0.073904 0
M  V30 9150 N 906.075 0.2925 1.54862 0
M  V30 9151 C 907.486 -0.201841 1.85606 0
M  V30 9152 C 907.837 -1.54093 1.21449 0
M  V30 9153 O 906.962 -2.10327 0.509079 0
M  V30 9154 C 907.557 -0.373011 3.3674 0
M  V30 9155 C 906.116 -0.811574 3.67547 0
M  V30 9156 C 905.263 0.0850583 2.7717 0
M  V30 9157 H 908.214 0.513774 1.50153 0
M  V30 9158 H 908.235 -1.20892 3.60785 0
M  V30 9159 H 907.747 0.601751 3.83407 0
M  V30 9160 H 905.848 -1.79719 3.26392 0
M  V30 9161 H 905.961 -0.636853 4.74848 0
M  V30 9162 H 904.325 -0.434224 2.50971 0
M  V30 9163 H 905.108 1.05602 3.26654 0
M  V30 9164 N 907.553 -1.57587 0.0200696 0
M  V30 9165 C 908.463 -2.13119 -0.980676 0
M  V30 9166 C 909.479 -1.08124 -1.36328 0
M  V30 9167 O 910.655 -1.40134 -1.44653 0
M  V30 9168 C 907.72 -2.63991 -2.24743 0
M  V30 9169 C 906.781 -3.83667 -1.9261 0
M  V30 9170 C 906.014 -4.32103 -3.13246 0
M  V30 9171 O 906.237 -3.79758 -4.25606 0
M  V30 9172 O 905.171 -5.24047 -2.96072 0
M  V30 9173 H 908.997 -2.98887 -0.538528 0
M  V30 9174 H 906.582 -1.48055 -0.19999 0
M  V30 9175 H 908.464 -2.9682 -2.99125 0
M  V30 9176 H 907.139 -1.81311 -2.68157 0
M  V30 9177 H 906.046 -3.55778 -1.15641 0
M  V30 9178 H 907.379 -4.67482 -1.54019 0
M  V30 9179 N 909.032 0.252966 -1.55557 0
M  V30 9180 C 910.28 0.979912 -1.76754 0
M  V30 9181 C 910.601 1.86083 -0.582944 0
M  V30 9182 O 909.871 1.91742 0.401497 0
M  V30 9183 H 908.451 0.364805 -0.651864 0
M  V30 9184 H 911.113 0.272372 -1.92987 0
M  V30 9185 H 910.209 1.60518 -2.67657 0
M  V30 9186 N 910.51 1.48831 0.518367 0
M  V30 9187 C 911.443 1.588 1.63884 0
M  V30 9188 C 912.421 0.437847 1.56594 0
M  V30 9189 O 913.605 0.651042 1.769 0
M  V30 9190 C 910.732 1.52681 3.02335 0
M  V30 9191 C 909.778 2.7268 3.27945 0
M  V30 9192 S 910.611 4.34536 3.12951 0
M  V30 9193 C 911.767 4.31034 4.53828 0
M  V30 9194 H 912 2.53587 1.5518 0
M  V30 9195 H 909.533 1.37507 0.702218 0
M  V30 9196 H 911.491 1.49837 3.82177 0
M  V30 9197 H 910.152 0.592107 3.08469 0
M  V30 9198 H 909.345 2.64569 4.28974 0
M  V30 9199 H 908.947 2.72847 2.55794 0
M  V30 9200 H 911.239 4.01683 5.45579 0
M  V30 9201 H 912.182 5.32282 4.66991 0
M  V30 9202 H 912.59 3.61343 4.33695 0
M  V30 9203 N 911.988 -0.768124 1.37614 0
M  V30 9204 C 913.237 -1.5221 1.32345 0
M  V30 9205 C 913.55 -1.95399 -0.0885761 0
M  V30 9206 O 914.756 -2.70216 -0.263752 0
M  V30 9207 C 913.212 -2.74872 2.32322 0
M  V30 9208 C 912.82 -2.38767 3.79071 0
M  V30 9209 C 914.564 -3.52805 2.36069 0
M  V30 9210 C 912.471 -3.57953 4.7077 0
M  V30 9211 H 911.401 -0.571461 0.491883 0
M  V30 9212 H 914.052 -0.841004 1.63093 0
M  V30 9213 H 912.434 -3.44889 1.94596 0
M  V30 9214 H 913.608 -1.7651 4.25654 0
M  V30 9215 H 911.923 -1.74 3.78303 0
M  V30 9216 H 914.52 -4.41397 3.01782 0
M  V30 9217 H 914.863 -3.92925 1.37535 0
M  V30 9218 H 915.396 -2.89788 2.72521 0
M  V30 9219 H 912.135 -3.22911 5.70446 0
M  V30 9220 H 911.655 -4.19302 4.28889 0
M  V30 9221 H 913.334 -4.2472 4.8808 0
M  V30 9222 N 913.466 -1.22244 -0.994698 0
M  V30 9223 C 914.376 -1.00722 -2.11878 0
M  V30 9224 C 915.392 0.043919 -1.73945 0
M  V30 9225 O 916.568 -0.148411 -2.00852 0
M  V30 9226 C 913.633 -0.585723 -3.41717 0
M  V30 9227 C 912.694 -1.71027 -3.93762 0
M  V30 9228 C 911.927 -1.30879 -5.17403 0
M  V30 9229 O 912.15 -0.18681 -5.70094 0
M  V30 9230 O 911.084 -2.1246 -5.63156 0
M  V30 9231 H 914.91 -1.94894 -2.32916 0
M  V30 9232 H 912.495 -1.00822 -1.10251 0
M  V30 9233 H 914.377 -0.360935 -4.19851 0
M  V30 9234 H 913.052 0.327166 -3.22042 0
M  V30 9235 H 911.959 -1.98956 -3.16808 0
M  V30 9236 H 913.292 -2.60096 -4.17865 0
M  V30 9237 N 914.944 1.19125 -1.03184 0
M  V30 9238 C 916.172 1.92838 -0.74975 0
M  V30 9239 C 916.587 1.75667 0.691851 0
M  V30 9240 O 915.944 1.0805 1.47076 0
M  V30 9241 C 915.995 3.44509 -1.09525 0
M  V30 9242 O 915.716 3.6113 -2.48025 0
M  V30 9243 C 917.217 4.35338 -0.836397 0
M  V30 9244 H 914.437 0.61246 -0.274105 0
M  V30 9245 H 916.981 1.5118 -1.37712 0
M  V30 9246 H 915.136 3.83988 -0.513006 0
M  V30 9247 H 915.55 4.54959 -2.60984 0
M  V30 9248 H 917.024 5.4035 -1.12808 0
M  V30 9249 H 917.501 4.38602 0.229102 0
M  V30 9250 H 918.107 4.01544 -1.40152 0
M  V30 9251 N 916.422 0.810101 1.35185 0
M  V30 9252 C 917.838 0.494269 1.51754 0
M  V30 9253 C 918.038 -0.983907 1.75845 0
M  V30 9254 O 917.094 -1.76882 1.80191 0
M  V30 9255 C 918.407 1.34268 2.69059 0
M  V30 9256 C 919.955 1.33848 2.82938 0
M  V30 9257 C 920.43 2.17109 4.03271 0
M  V30 9258 N 921.921 2.14664 4.10456 0
M  V30 9259 C 922.656 2.75843 5.02691 0
M  V30 9260 N 922.152 3.45962 6.00235 0
M  V30 9261 N 923.945 2.65465 4.95464 0
M  V30 9262 H 916.096 1.76736 1.17805 0
M  V30 9263 H 918.359 0.752429 0.576676 0
M  V30 9264 H 918.065 2.39183 2.57845 0
M  V30 9265 H 917.939 0.998362 3.63748 0
M  V30 9266 H 920.326 0.29716 2.936 0
M  V30 9267 H 920.407 1.72269 1.89095 0
M  V30 9268 H 920.051 3.21283 3.93369 0
M  V30 9269 H 919.981 1.76046 4.96302 0
M  V30 9270 H 922.472 1.63648 3.40628 0
M  V30 9271 H 922.785 3.89922 6.67219 0
M  V30 9272 H 921.13 3.50067 6.00398 0
M  V30 9273 H 924.321 2.1027 4.18215 0
M  V30 9274 H 924.494 3.13433 5.67154 0
M  V30 9275 N 917.9 -1.47166 0.563914 0
M  V30 9276 C 919.125 -2.0735 0.0454698 0
M  V30 9277 C 919.55 -1.41281 -1.24182 0
M  V30 9278 O 918.908 -0.490084 -1.7455 0
M  V30 9279 C 918.956 -3.60378 -0.126453 0
M  V30 9280 O 918.06 -3.94934 -1.18746 0
M  V30 9281 H 917.401 -0.661773 0.0543377 0
M  V30 9282 H 919.931 -1.89086 0.781508 0
M  V30 9283 H 919.941 -4.06593 -0.338554 0
M  V30 9284 H 918.616 -4.07862 0.81373 0
M  V30 9285 H 917.193 -3.60455 -0.955318 0
M  V30 9286 N 919.378 -0.300708 -1.54705 0
M  V30 9287 C 920.624 0.309111 -2.0043 0
M  V30 9288 C 920.957 1.53562 -1.1888 0
M  V30 9289 O 920.232 1.92683 -0.265205 0
M  V30 9290 C 920.515 0.665995 -3.53888 0
M  V30 9291 C 920.368 -0.56963 -4.46178 0
M  V30 9292 C 921.687 1.49262 -4.14016 0
M  V30 9293 H 918.806 0.110878 -0.728612 0
M  V30 9294 H 921.448 -0.412748 -1.85463 0
M  V30 9295 H 919.598 1.281 -3.66773 0
M  V30 9296 H 921.27 -1.20811 -4.45199 0
M  V30 9297 H 919.513 -1.20292 -4.16788 0
M  V30 9298 H 920.184 -0.275785 -5.51311 0
M  V30 9299 H 922.66 0.972979 -4.04564 0
M  V30 9300 H 921.536 1.71111 -5.21548 0
M  V30 9301 H 921.797 2.48174 -3.65872 0
M  V30 9302 N 920.856 1.57574 -0.0284266 0
M  V30 9303 C 922.105 1.9095 0.649704 0
M  V30 9304 C 922.418 0.906421 1.7333 0
M  V30 9305 O 923.624 1.1314 2.46803 0
M  V30 9306 C 922.08 3.39061 1.20687 0
M  V30 9307 C 921.688 4.47726 0.156597 0
M  V30 9308 C 923.432 3.81505 1.86156 0
M  V30 9309 C 921.339 5.86935 0.725365 0
M  V30 9310 H 920.269 0.712589 0.24644 0
M  V30 9311 H 922.92 1.83261 -0.0936143 0
M  V30 9312 H 921.302 3.41679 2.00178 0
M  V30 9313 H 922.476 4.56667 -0.6158 0
M  V30 9314 H 920.791 4.14481 -0.399288 0
M  V30 9315 H 923.388 4.82865 2.29665 0
M  V30 9316 H 923.731 3.16529 2.70398 0
M  V30 9317 H 924.264 3.81307 1.13356 0
M  V30 9318 H 921.003 6.55453 -0.0789081 0
M  V30 9319 H 920.523 5.81602 1.46627 0
M  V30 9320 H 922.202 6.35483 1.21532 0
M  V30 9321 N 922.334 -0.244713 1.55689 0
M  V30 9322 C 923.282 -1.32276 1.91326 0
M  V30 9323 C 924.276 -1.49714 0.792589 0
M  V30 9324 O 925.482 -1.51163 0.977227 0
M  V30 9325 H 921.857 -0.442979 0.607679 0
M  V30 9326 H 923.828 -0.99486 2.81327 0
M  V30 9327 C 922.577 -2.67077 2.22633 0
M  V30 9328 H 921.9 -2.54458 3.08368 0
M  V30 9329 H 923.34 -3.41378 2.5147 0
M  V30 9330 C 921.799 -3.20335 1.04342 0
M  V30 9331 O 922.329 -4.00633 0.292543 0
M  V30 9332 N 920.535 -2.78392 0.833457 0
M  V30 9333 H 920.082 -2.13202 1.44577 0
M  V30 9334 H 920.04 -3.1437 0.0436713 0
M  V30 9335 N 923.813 -1.49104 -0.510467 0
M  V30 9336 C 925.229 -1.35657 -0.840797 0
M  V30 9337 C 925.429 -0.382425 -1.97838 0
M  V30 9338 O 924.485 0.189331 -2.51789 0
M  V30 9339 C 925.798 -2.76155 -1.18992 0
M  V30 9340 C 927.346 -2.84786 -1.29868 0
M  V30 9341 C 927.821 -4.2603 -1.68115 0
M  V30 9342 N 929.312 -4.28796 -1.75181 0
M  V30 9343 C 930.047 -5.35041 -2.062 0
M  V30 9344 N 929.543 -6.51543 -2.35508 0
M  V30 9345 N 931.336 -5.2245 -2.07371 0
M  V30 9346 H 923.487 -2.11042 0.23982 0
M  V30 9347 H 925.75 -0.946946 0.0446824 0
M  V30 9348 H 925.456 -3.49092 -0.427484 0
M  V30 9349 H 925.33 -3.10922 -2.13558 0
M  V30 9350 H 927.717 -2.12092 -2.05186 0
M  V30 9351 H 927.798 -2.53613 -0.333758 0
M  V30 9352 H 927.442 -4.99247 -0.933512 0
M  V30 9353 H 927.372 -4.5466 -2.65691 0
M  V30 9354 H 929.863 -3.44771 -1.5473 0
M  V30 9355 H 930.176 -7.28342 -2.58337 0
M  V30 9356 H 928.521 -6.54785 -2.32985 0
M  V30 9357 H 931.712 -4.30444 -1.83945 0
M  V30 9358 H 931.885 -6.05347 -2.31212 0
M  V30 9359 N 925.291 0.760815 -1.38019 0
M  V30 9360 C 926.223 1.88387 -1.30549 0
M  V30 9361 C 927.236 1.61319 -0.219119 0
M  V30 9362 O 928.425 1.72033 -0.476122 0
M  V30 9363 C 925.525 3.23863 -0.998291 0
M  V30 9364 C 924.698 3.78492 -2.19232 0
M  V30 9365 C 923.757 4.92468 -1.85368 0
M  V30 9366 O 922.783 5.0748 -2.57785 0
M  V30 9367 N 923.985 5.74901 -0.804319 0
M  V30 9368 H 926.75 1.95308 -2.27322 0
M  V30 9369 H 924.311 0.940423 -1.31786 0
M  V30 9370 H 926.303 3.97644 -0.7524 0
M  V30 9371 H 924.873 3.12374 -0.11877 0
M  V30 9372 H 924.093 2.96361 -2.5993 0
M  V30 9373 H 925.381 4.11722 -2.98935 0
M  V30 9374 H 924.779 5.65333 -0.203628 0
M  V30 9375 H 923.336 6.48861 -0.618301 0
M  V30 9376 N 926.769 1.22769 0.988202 0
M  V30 9377 C 927.719 0.969202 2.06375 0
M  V30 9378 C 928.703 -0.0819274 1.60691 0
M  V30 9379 O 929.895 0.129201 1.76528 0
M  V30 9380 C 927.024 0.553919 3.38802 0
M  V30 9381 C 926.11 1.64003 3.91106 0
M  V30 9382 N 926.501 2.86872 4.16579 0
M  V30 9383 C 924.799 1.5128 4.1956 0
M  V30 9384 C 925.5 3.57137 4.5916 0
M  V30 9385 N 924.476 2.84624 4.63131 0
M  V30 9386 H 928.278 1.90247 2.24017 0
M  V30 9387 H 925.792 1.12592 1.17033 0
M  V30 9388 H 927.789 0.350033 4.15428 0
M  V30 9389 H 926.449 -0.37239 3.22558 0
M  V30 9390 H 927.46 3.23254 4.04632 0
M  V30 9391 H 924.137 0.653032 4.12361 0
M  V30 9392 H 925.527 4.62428 4.87452 0
M  V30 9393 N 928.247 -1.18576 1.03814 0
M  V30 9394 C 929.496 -1.87822 0.735235 0
M  V30 9395 C 929.809 -1.81069 -0.739819 0
M  V30 9396 O 931.015 -2.45654 -1.15614 0
M  V30 9397 C 929.471 -3.36941 1.26486 0
M  V30 9398 C 929.079 -3.5223 2.76836 0
M  V30 9399 C 930.823 -4.11604 1.03836 0
M  V30 9400 C 928.73 -4.95294 3.23169 0
M  V30 9401 H 927.66 -0.703487 0.271333 0
M  V30 9402 H 930.311 -1.34 1.25365 0
M  V30 9403 H 928.693 -3.90217 0.674318 0
M  V30 9404 H 929.867 -3.09239 3.41625 0
M  V30 9405 H 928.182 -2.90969 2.97869 0
M  V30 9406 H 930.779 -5.17123 1.3597 0
M  V30 9407 H 931.122 -4.16293 -0.0244945 0
M  V30 9408 H 931.655 -3.64494 1.59338 0
M  V30 9409 H 928.394 -4.95772 4.28824 0
M  V30 9410 H 927.914 -5.3901 2.63113 0
M  V30 9411 H 929.593 -5.63996 3.17045 0
M  V30 9412 N 929.725 -0.817259 -1.34754 0
M  V30 9413 C 930.688 -0.240611 -2.27934 0
M  V30 9414 C 931.688 0.578219 -1.50044 0
M  V30 9415 O 932.878 0.395148 -1.69659 0
M  V30 9416 C 930.01 0.663318 -3.34384 0
M  V30 9417 H 931.203 -1.06257 -2.80445 0
M  V30 9418 H 928.756 -0.588697 -1.4479 0
M  V30 9419 H 929.491 1.50855 -2.87077 0
M  V30 9420 H 929.276 0.0777388 -3.92023 0
M  V30 9421 H 930.766 1.06076 -4.03903 0
M  V30 9422 N 931.203 1.46865 -0.571711 0
M  V30 9423 C 932.113 2.33979 0.170571 0
M  V30 9424 C 933.129 1.49083 0.897239 0
M  V30 9425 O 934.305 1.81979 0.862888 0
M  V30 9426 C 931.37 3.26063 1.17831 0
M  V30 9427 C 930.431 4.26855 0.457499 0
M  V30 9428 C 929.664 5.14539 1.41722 0
M  V30 9429 O 929.887 5.04945 2.65305 0
M  V30 9430 O 928.821 5.94612 0.9338 0
M  V30 9431 H 932.647 2.98781 -0.544396 0
M  V30 9432 H 930.232 1.4566 -0.332198 0
M  V30 9433 H 932.114 3.82903 1.75965 0
M  V30 9434 H 930.789 2.63871 1.87493 0
M  V30 9435 H 929.696 3.73734 -0.165406 0
M  V30 9436 H 931.029 4.91802 -0.197953 0
M  V30 9437 N 932.681 0.308908 1.54543 0
M  V30 9438 C 933.906 -0.303196 2.05172 0
M  V30 9439 C 934.331 -1.46133 1.18434 0
M  V30 9440 O 933.689 -1.803 0.190162 0
M  V30 9441 C 933.737 -0.729526 3.53143 0
M  V30 9442 O 932.841 -1.83348 3.69401 0
M  V30 9443 H 932.182 -0.0575066 0.661505 0
M  V30 9444 H 934.712 0.453055 1.99521 0
M  V30 9445 H 934.722 -1.01619 3.95143 0
M  V30 9446 H 933.397 0.117622 4.15734 0
M  V30 9447 H 931.974 -1.54676 3.39308 0
M  V30 9448 N 934.159 -1.57557 0.0367827 0
M  V30 9449 C 935.384 -1.96828 -0.653707 0
M  V30 9450 C 935.809 -0.913559 -1.64425 0
M  V30 9451 O 935.167 0.124749 -1.8087 0
M  V30 9452 C 935.215 -3.35189 -1.32969 0
M  V30 9453 O 934.319 -3.32095 -2.44513 0
M  V30 9454 H 933.66 -0.64157 -0.171124 0
M  V30 9455 H 936.19 -2.04351 0.100912 0
M  V30 9456 H 936.2 -3.71593 -1.68472 0
M  V30 9457 H 934.875 -4.11496 -0.603654 0
M  V30 9458 H 933.452 -3.07418 -2.11065 0
M  V30 9459 N 935.637 0.236453 -1.55816 0
M  V30 9460 C 936.883 0.964439 -1.784 0
M  V30 9461 C 937.216 1.84573 -0.603868 0
M  V30 9462 O 936.491 1.90395 0.397473 0
M  V30 9463 C 936.774 1.81608 -3.10951 0
M  V30 9464 C 936.627 0.962283 -4.39386 0
M  V30 9465 C 937.946 2.79665 -3.39817 0
M  V30 9466 H 935.065 0.349192 -0.649026 0
M  V30 9467 H 937.707 0.234247 -1.8855 0
M  V30 9468 H 935.857 2.43864 -3.02428 0
M  V30 9469 H 937.529 0.35762 -4.59912 0
M  V30 9470 H 935.772 0.267062 -4.32977 0
M  V30 9471 H 936.443 1.59222 -5.28538 0
M  V30 9472 H 938.919 2.27546 -3.4837 0
M  V30 9473 H 937.795 3.36367 -4.33761 0
M  V30 9474 H 938.056 3.56657 -2.61244 0
M  V30 9475 N 937.115 1.49373 0.502552 0
M  V30 9476 C 938.025 1.68659 1.63068 0
M  V30 9477 C 939.041 0.569182 1.64427 0
M  V30 9478 O 940.217 0.843695 1.82876 0
M  V30 9479 C 937.282 1.74745 2.99441 0
M  V30 9480 C 936.343 2.98311 3.08721 0
M  V30 9481 C 935.576 3.04097 4.38589 0
M  V30 9482 O 935.799 2.17519 5.27297 0
M  V30 9483 O 934.733 3.96544 4.52809 0
M  V30 9484 H 938.559 2.64226 1.49727 0
M  V30 9485 H 936.144 1.33096 0.67867 0
M  V30 9486 H 938.026 1.8111 3.80496 0
M  V30 9487 H 936.701 0.823565 3.13048 0
M  V30 9488 H 935.608 2.97465 2.2686 0
M  V30 9489 H 936.941 3.90174 3.00041 0
M  V30 9490 N 938.594 -0.753485 1.38421 0
M  V30 9491 C 939.819 -1.54783 1.38047 0
M  V30 9492 C 940.244 -1.8808 -0.0276371 0
M  V30 9493 O 939.602 -1.5058 -1.00973 0
M  V30 9494 C 939.65 -2.82353 2.24297 0
M  V30 9495 O 938.754 -3.77509 1.66014 0
M  V30 9496 H 938.095 -0.468151 0.470883 0
M  V30 9497 H 940.625 -0.931144 1.82184 0
M  V30 9498 H 940.635 -3.31277 2.38159 0
M  V30 9499 H 939.31 -2.57449 3.26639 0
M  V30 9500 H 937.887 -3.36212 1.61294 0
M  V30 9501 N 940.072 -1.23292 -0.981677 0
M  V30 9502 C 941.319 -1.06424 -1.72279 0
M  V30 9503 C 941.647 0.399055 -1.90362 0
M  V30 9504 O 940.902 1.31181 -1.45224 0
M  V30 9505 C 941.201 -1.73339 -3.12551 0
M  V30 9506 C 940.867 -3.23256 -3.14351 0
M  V30 9507 C 939.529 -3.64159 -3.14549 0
M  V30 9508 C 941.881 -4.1916 -3.09765 0
M  V30 9509 C 939.209 -4.99428 -3.07877 0
M  V30 9510 C 941.561 -5.54419 -3.04635 0
M  V30 9511 C 940.225 -5.94688 -3.03154 0
M  V30 9512 H 939.495 -0.389434 -0.630415 0
M  V30 9513 H 942.142 -1.53208 -1.1489 0
M  V30 9514 H 940.447 -1.18911 -3.73319 0
M  V30 9515 H 942.144 -1.57767 -3.68661 0
M  V30 9516 H 938.734 -2.90693 -3.14953 0
M  V30 9517 H 942.918 -3.88569 -3.08753 0
M  V30 9518 H 938.174 -5.29844 -3.05083 0
M  V30 9519 H 942.348 -6.28448 -3.00043 0
M  V30 9520 H 939.975 -6.99468 -2.97739 0
M  V30 9521 N 941.55 1.18024 -1.04442 0
M  V30 9522 C 942.78 1.91753 -0.769044 0
M  V30 9523 C 943.188 1.76629 0.678141 0
M  V30 9524 O 942.531 1.09589 1.47431 0
M  V30 9525 C 942.593 3.43505 -1.0604 0
M  V30 9526 C 942.257 3.82409 -2.50225 0
M  V30 9527 C 943.254 3.8588 -3.48414 0
M  V30 9528 C 940.939 4.13594 -2.85036 0
M  V30 9529 C 942.933 4.19993 -4.79463 0
M  V30 9530 C 940.62 4.47377 -4.1629 0
M  V30 9531 C 941.618 4.50553 -5.13314 0
M  V30 9532 O 941.306 4.83546 -6.42214 0
M  V30 9533 H 941.038 0.615466 -0.279603 0
M  V30 9534 H 943.592 1.5065 -1.3962 0
M  V30 9535 H 941.822 3.84866 -0.376125 0
M  V30 9536 H 943.511 3.98486 -0.772235 0
M  V30 9537 H 944.277 3.6192 -3.2286 0
M  V30 9538 H 940.156 4.10297 -2.10185 0
M  V30 9539 H 943.7 4.22387 -5.55189 0
M  V30 9540 H 939.597 4.70798 -4.4161 0
M  V30 9541 H 940.365 5.01433 -6.46921 0
M  V30 9542 N 943.028 0.824394 1.34319 0
M  V30 9543 C 944.253 0.425194 2.02995 0
M  V30 9544 C 944.678 -0.961476 1.6167 0
M  V30 9545 O 944.036 -1.62593 0.80207 0
M  V30 9546 C 944.084 0.537004 3.56579 0
M  V30 9547 O 943.188 -0.442576 4.10018 0
M  V30 9548 H 942.529 0.174853 0.640564 0
M  V30 9549 H 945.059 1.11522 1.71534 0
M  V30 9550 H 945.069 0.413311 4.05901 0
M  V30 9551 H 943.744 1.54836 3.86004 0
M  V30 9552 H 942.321 -0.277644 3.71865 0
M  V30 9553 N 944.506 -1.46559 0.579492 0
M  V30 9554 C 945.922 -1.57771 0.240921 0
M  V30 9555 C 946.122 -1.57505 -1.25676 0
M  V30 9556 O 945.178 -1.4903 -2.03829 0
M  V30 9557 C 946.491 -2.87311 0.887285 0
M  V30 9558 C 948.039 -3.00937 0.860576 0
M  V30 9559 C 948.514 -4.33208 1.48642 0
M  V30 9560 N 950.005 -4.39899 1.45062 0
M  V30 9561 C 950.74 -5.40856 1.90428 0
M  V30 9562 N 950.236 -6.48503 2.43752 0
M  V30 9563 N 952.029 -5.32037 1.81364 0
M  V30 9564 H 944.18 -1.44976 1.55228 0
M  V30 9565 H 946.443 -0.691354 0.648639 0
M  V30 9566 H 946.149 -2.93307 1.94071 0
M  V30 9567 H 946.023 -3.75141 0.393577 0
M  V30 9568 H 948.41 -2.94524 -0.184223 0
M  V30 9569 H 948.491 -2.14591 1.39227 0
M  V30 9570 H 948.135 -4.40378 2.5304 0
M  V30 9571 H 948.065 -5.18323 0.92998 0
M  V30 9572 H 950.556 -3.62706 1.0608 0
M  V30 9573 H 950.869 -7.21744 2.76234 0
M  V30 9574 H 949.214 -6.49332 2.47776 0
M  V30 9575 H 952.405 -4.46841 1.39465 0
M  V30 9576 H 952.578 -6.10573 2.17035 0
M  V30 9577 N 945.984 -0.3171 -1.54377 0
M  V30 9578 C 946.947 0.53905 -2.22771 0
M  V30 9579 C 947.947 1.04865 -1.21901 0
M  V30 9580 O 949.137 0.942108 -1.46526 0
M  V30 9581 C 946.269 1.74804 -2.92671 0
M  V30 9582 H 947.462 -0.0587417 -2.99842 0
M  V30 9583 H 945.015 -0.068107 -1.56152 0
M  V30 9584 H 945.75 2.38524 -2.1972 0
M  V30 9585 H 945.535 1.39011 -3.66631 0
M  V30 9586 H 947.025 2.35592 -3.44799 0
M  V30 9587 N 947.462 1.57535 -0.0451378 0
M  V30 9588 C 948.71 1.92071 0.628743 0
M  V30 9589 C 949.031 0.923635 1.71738 0
M  V30 9590 O 948.301 -0.0324376 1.95873 0
M  V30 9591 H 946.881 0.708995 0.235233 0
M  V30 9592 H 949.543 1.9466 -0.0967177 0
M  V30 9593 H 948.639 2.9314 1.07123 0
M  V30 9594 N 948.94 -0.228186 1.55939 0
M  V30 9595 C 949.87 -1.28607 1.94891 0
M  V30 9596 C 950.851 -1.49236 0.816245 0
M  V30 9597 O 952.036 -1.61531 1.07803 0
M  V30 9598 C 949.166 -2.63719 2.25986 0
M  V30 9599 C 948.12 -2.57757 3.4168 0
M  V30 9600 C 947.446 -3.96837 3.58364 0
M  V30 9601 C 948.746 -2.13116 4.76843 0
M  V30 9602 H 950.44 -0.962531 2.83506 0
M  V30 9603 H 947.986 -0.461577 1.36402 0
M  V30 9604 H 949.939 -3.37878 2.51826 0
M  V30 9605 H 948.663 -2.97747 1.34217 0
M  V30 9606 H 947.322 -1.86055 3.15878 0
M  V30 9607 H 946.97 -4.28162 2.63982 0
M  V30 9608 H 946.67 -3.93731 4.36176 0
M  V30 9609 H 948.194 -4.72668 3.86545 0
M  V30 9610 H 949.608 -2.77015 5.01932 0
M  V30 9611 H 948.005 -2.21083 5.57891 0
M  V30 9612 H 949.075 -1.08326 4.72645 0
M  V30 9613 N 950.418 -1.49637 -0.494624 0
M  V30 9614 C 951.664 -1.59681 -1.25019 0
M  V30 9615 C 951.997 -0.285511 -1.9209 0
M  V30 9616 O 951.272 0.711398 -1.81023 0
M  V30 9617 C 951.555 -2.76058 -2.31222 0
M  V30 9618 C 951.408 -4.17002 -1.68611 0
M  V30 9619 C 952.727 -2.88056 -3.32734 0
M  V30 9620 H 949.846 -0.581209 -0.453172 0
M  V30 9621 H 952.488 -1.81944 -0.547391 0
M  V30 9622 H 950.638 -2.57207 -2.91164 0
M  V30 9623 H 952.31 -4.47385 -1.12447 0
M  V30 9624 H 950.553 -4.22352 -0.989991 0
M  V30 9625 H 951.224 -4.94316 -2.45674 0
M  V30 9626 H 953.7 -3.05237 -2.82789 0
M  V30 9627 H 952.576 -3.71151 -4.04399 0
M  V30 9628 H 952.837 -1.97676 -3.95445 0
M  V30 9629 N 951.896 0.746133 -1.38819 0
M  V30 9630 C 953.144 1.50247 -1.35167 0
M  V30 9631 C 953.465 1.94921 0.0553531 0
M  V30 9632 O 952.735 1.68187 1.00449 0
M  V30 9633 H 951.315 0.557337 -0.497377 0
M  V30 9634 H 953.977 0.886472 -1.73573 0
M  V30 9635 H 953.073 2.38986 -2.00728 0
M  V30 9636 N 953.375 1.23811 0.975125 0
M  V30 9637 C 954.308 0.967173 2.06691 0
M  V30 9638 C 955.286 -0.09642 1.62314 0
M  V30 9639 O 956.47 0.0389532 1.8846 0
M  V30 9640 C 953.597 0.458094 3.35588 0
M  V30 9641 C 952.643 1.5091 3.98909 0
M  V30 9642 S 953.476 3.08815 4.37485 0
M  V30 9643 C 954.632 2.59591 5.69529 0
M  V30 9644 H 954.865 1.89166 2.29355 0
M  V30 9645 H 952.398 1.07113 1.11203 0
M  V30 9646 H 954.356 0.170991 4.10144 0
M  V30 9647 H 953.017 -0.445562 3.10924 0
M  V30 9648 H 952.21 1.10315 4.91779 0
M  V30 9649 H 951.812 1.74582 3.30752 0
M  V30 9650 H 954.104 2.0194 6.46704 0
M  V30 9651 H 955.047 3.51021 6.14971 0
M  V30 9652 H 955.455 2.00267 5.27782 0
M  V30 9653 N 954.853 -1.17469 1.05066 0
M  V30 9654 C 956.099 -1.87976 0.761113 0
M  V30 9655 C 956.432 -1.80756 -0.709995 0
M  V30 9656 O 955.707 -1.21469 -1.51906 0
M  V30 9657 C 955.99 -3.38055 1.2406 0
M  V30 9658 C 955.843 -3.54032 2.77455 0
M  V30 9659 C 957.162 -4.32036 0.838612 0
M  V30 9660 H 954.281 -0.682573 0.277963 0
M  V30 9661 H 956.923 -1.38147 1.30443 0
M  V30 9662 H 955.073 -3.80622 0.778388 0
M  V30 9663 H 956.745 -3.20489 3.3179 0
M  V30 9664 H 954.988 -2.96352 3.16793 0
M  V30 9665 H 955.659 -4.59377 3.06066 0
M  V30 9666 H 958.135 -3.97303 1.23651 0
M  V30 9667 H 957.011 -5.35583 1.20173 0
M  V30 9668 H 957.272 -4.41349 -0.257498 0
M  V30 9669 N 956.331 -0.831506 -1.3388 0
M  V30 9670 C 957.278 -0.257449 -2.2936 0
M  V30 9671 C 958.248 0.622604 -1.5399 0
M  V30 9672 O 959.433 0.562432 -1.82322 0
M  V30 9673 C 956.573 0.567587 -3.404 0
M  V30 9674 C 955.686 -0.335666 -4.30694 0
M  V30 9675 C 954.821 0.499762 -5.28844 0
M  V30 9676 C 953.86 -0.402343 -6.10776 0
M  V30 9677 N 952.997 0.39452 -7.00991 0
M  V30 9678 H 957.837 -1.077 -2.77857 0
M  V30 9679 H 955.374 -0.542589 -1.36727 0
M  V30 9680 H 957.332 1.06133 -4.03474 0
M  V30 9681 H 955.962 1.35217 -2.93115 0
M  V30 9682 H 955.014 -0.94768 -3.68406 0
M  V30 9683 H 956.326 -1.02896 -4.88072 0
M  V30 9684 H 955.48 1.05763 -5.9741 0
M  V30 9685 H 954.219 1.22652 -4.72025 0
M  V30 9686 H 953.224 -0.972288 -5.41135 0
M  V30 9687 H 954.449 -1.12735 -6.69677 0
M  V30 9688 H 952.395 1.1048 -6.4663 0
M  V30 9689 H 952.312 -0.240209 -7.55618 0
M  V30 9690 H 953.58 0.934867 -7.73874 0
M  V30 9691 N 957.809 1.4625 -0.587256 0
M  V30 9692 C 958.739 2.33132 0.131076 0
M  V30 9693 C 959.72 1.45619 0.879158 0
M  V30 9694 O 960.905 1.74428 0.853723 0
M  V30 9695 C 958.035 3.27975 1.14236 0
M  V30 9696 C 956.989 4.24965 0.508819 0
M  V30 9697 C 956.315 5.09349 1.62689 0
M  V30 9698 C 957.615 5.19322 -0.55694 0
M  V30 9699 H 959.309 2.93442 -0.594333 0
M  V30 9700 H 956.855 1.41106 -0.287263 0
M  V30 9701 H 958.808 3.87614 1.65328 0
M  V30 9702 H 957.532 2.65781 1.8981 0
M  V30 9703 H 956.191 3.66595 0.0189337 0
M  V30 9704 H 955.839 4.43537 2.37242 0
M  V30 9705 H 955.539 5.75036 1.20861 0
M  V30 9706 H 957.063 5.71852 2.14049 0
M  V30 9707 H 958.477 5.73151 -0.130903 0
M  V30 9708 H 956.874 5.93376 -0.895801 0
M  V30 9709 H 957.944 4.62979 -1.44148 0
M  V30 9710 N 959.287 0.325282 1.54207 0
M  V30 9711 C 960.197 -0.548778 2.28091 0
M  V30 9712 C 961.213 -1.12772 1.32508 0
M  V30 9713 O 962.389 -1.14732 1.65525 0
M  V30 9714 C 959.454 -1.69284 3.02562 0
M  V30 9715 C 958.515 -1.14553 4.13734 0
M  V30 9716 C 957.748 -2.23506 4.84645 0
M  V30 9717 O 957.971 -3.43884 4.55082 0
M  V30 9718 O 956.905 -1.88828 5.71513 0
M  V30 9719 H 960.731 0.0512974 3.03657 0
M  V30 9720 H 958.316 0.0909159 1.49123 0
M  V30 9721 H 960.198 -2.35887 3.49192 0
M  V30 9722 H 958.873 -2.27906 2.2987 0
M  V30 9723 H 957.78 -0.444532 3.71449 0
M  V30 9724 H 959.113 -0.60441 4.88475 0
M  V30 9725 N 960.765 -1.57509 0.0534917 0
M  V30 9726 C 962.013 -1.92402 -0.618548 0
M  V30 9727 C 962.334 -0.93273 -1.71246 0
M  V30 9728 O 961.604 0.0220495 -1.95888 0
M  V30 9729 H 960.184 -0.710233 -0.23147 0
M  V30 9730 H 962.846 -1.94606 0.10704 0
M  V30 9731 H 961.942 -2.93704 -1.05566 0
M  V30 9732 N 962.243 0.219913 -1.56058 0
M  V30 9733 C 963.173 1.27572 -1.9557 0
M  V30 9734 C 964.154 1.48801 -0.824148 0
M  V30 9735 O 965.339 1.60957 -1.08658 0
M  V30 9736 C 962.469 2.62517 -2.27381 0
M  V30 9737 C 961.423 2.55941 -3.43042 0
M  V30 9738 C 960.749 3.94931 -3.60463 0
M  V30 9739 C 962.049 2.10584 -4.77966 0
M  V30 9740 H 963.743 0.947482 -2.84013 0
M  V30 9741 H 961.289 0.454337 -1.36645 0
M  V30 9742 H 963.242 3.36538 -2.53615 0
M  V30 9743 H 961.966 2.97031 -1.35794 0
M  V30 9744 H 960.625 1.84377 -3.1686 0
M  V30 9745 H 960.273 4.26756 -2.66249 0
M  V30 9746 H 959.973 3.91413 -4.38258 0
M  V30 9747 H 961.497 4.70611 -3.89046 0
M  V30 9748 H 962.911 2.74349 -5.03394 0
M  V30 9749 H 961.308 2.18122 -5.59055 0
M  V30 9750 H 962.378 1.05818 -4.73213 0
M  V30 9751 N 963.721 1.49897 0.486681 0
M  V30 9752 C 964.653 1.63755 1.60365 0
M  V30 9753 C 965.666 0.519614 1.54285 0
M  V30 9754 O 966.855 0.792219 1.59957 0
M  V30 9755 C 963.955 1.59153 2.99205 0
M  V30 9756 C 963.128 2.8672 3.30319 0
M  V30 9757 C 962.187 2.74974 4.48638 0
M  V30 9758 O 961.213 3.48922 4.49714 0
M  V30 9759 N 962.415 1.87479 5.49392 0
M  V30 9760 H 965.18 2.60094 1.48899 0
M  V30 9761 H 962.741 1.47166 0.674825 0
M  V30 9762 H 964.733 1.4893 3.76301 0
M  V30 9763 H 963.303 0.706133 3.0452 0
M  V30 9764 H 962.523 3.11188 2.41983 0
M  V30 9765 H 963.811 3.71262 3.47911 0
M  V30 9766 H 963.209 1.26684 5.51333 0
M  V30 9767 H 961.766 1.83169 6.25534 0
M  V30 9768 N 965.199 -0.738761 1.39212 0
M  V30 9769 C 966.424 -1.5331 1.39681 0
M  V30 9770 C 966.849 -1.88098 -0.00768715 0
M  V30 9771 O 966.207 -1.51642 -0.993699 0
M  V30 9772 C 966.255 -2.79958 2.27279 0
M  V30 9773 O 965.359 -3.75727 1.70008 0
M  V30 9774 H 964.7 -0.463131 0.475821 0
M  V30 9775 H 967.23 -0.911768 1.83161 0
M  V30 9776 H 967.24 -3.28732 2.41659 0
M  V30 9777 H 965.915 -2.5397 3.29351 0
M  V30 9778 H 964.492 -3.34483 1.64851 0
M  V30 9779 N 966.677 -1.24326 -0.968545 0
M  V30 9780 C 967.902 -1.1104 -1.75171 0
M  V30 9781 C 968.327 0.333109 -1.85127 0
M  V30 9782 O 967.685 1.24115 -1.32156 0
M  V30 9783 C 967.733 -1.75397 -3.15068 0
M  V30 9784 O 966.837 -1.02417 -3.9948 0
M  V30 9785 H 966.178 -0.388488 -0.538491 0
M  V30 9786 H 968.708 -1.64617 -1.215 0
M  V30 9787 H 968.718 -1.8112 -3.65595 0
M  V30 9788 H 967.393 -2.80427 -3.07138 0
M  V30 9789 H 965.97 -1.04475 -3.57966 0
M  V30 9790 N 968.156 1.1691 -1.05688 0
M  V30 9791 C 969.384 1.91204 -0.790485 0
M  V30 9792 C 969.799 1.77095 0.654434 0
M  V30 9793 O 969.156 1.11146 1.44751 0
M  V30 9794 C 969.207 3.42108 -1.16808 0
M  V30 9795 O 968.928 3.55788 -2.55629 0
M  V30 9796 C 970.429 4.33466 -0.92855 0
M  V30 9797 H 967.649 0.606508 -0.287035 0
M  V30 9798 H 970.193 1.48225 -1.40888 0
M  V30 9799 H 968.348 3.82814 -0.59434 0
M  V30 9800 H 968.762 4.49321 -2.70575 0
M  V30 9801 H 970.236 5.37836 -1.24245 0
M  V30 9802 H 970.713 4.38989 0.136016 0
M  V30 9803 H 971.319 3.98481 -1.48638 0
M  V30 9804 N 969.634 0.838594 1.33437 0
M  V30 9805 C 970.881 0.434169 1.97791 0
M  V30 9806 C 971.209 -1.00652 1.66431 0
M  V30 9807 O 970.464 -1.71848 0.936309 0
M  V30 9808 C 970.763 0.601425 3.52303 0
M  V30 9809 C 970.429 2.01017 4.03612 0
M  V30 9810 C 969.091 2.39551 4.17336 0
M  V30 9811 C 971.443 2.93035 4.31022 0
M  V30 9812 C 968.771 3.69406 4.55802 0
M  V30 9813 C 971.123 4.22372 4.7094 0
M  V30 9814 C 969.787 4.60862 4.82869 0
M  V30 9815 H 969.057 0.158874 0.723768 0
M  V30 9816 H 971.704 1.06556 1.59116 0
M  V30 9817 H 970.009 -0.113284 3.91636 0
M  V30 9818 H 971.706 0.268798 4.00098 0
M  V30 9819 H 968.296 1.7009 3.93405 0
M  V30 9820 H 972.48 2.64503 4.19943 0
M  V30 9821 H 967.736 3.99033 4.63231 0
M  V30 9822 H 971.91 4.93749 4.91106 0
M  V30 9823 H 969.537 5.6153 5.12433 0
M  V30 9824 N 971.112 -1.45937 0.595003 0
M  V30 9825 C 972.34 -2.06698 0.091293 0
M  V30 9826 C 972.755 -1.44176 -1.21897 0
M  V30 9827 O 972.112 -0.551402 -1.73971 0
M  V30 9828 C 972.163 -3.61436 -0.0681801 0
M  V30 9829 O 971.884 -4.21622 1.19023 0
M  V30 9830 C 973.385 -4.39155 -0.604814 0
M  V30 9831 H 970.605 -0.668029 0.0630737 0
M  V30 9832 H 973.149 -1.87376 0.819165 0
M  V30 9833 H 971.304 -3.80143 -0.746324 0
M  V30 9834 H 971.718 -5.14647 1.01187 0
M  V30 9835 H 973.192 -5.47973 -0.665532 0
M  V30 9836 H 973.669 -4.08055 -1.62444 0
M  V30 9837 H 974.275 -4.25282 0.0388658 0
M  V30 9838 N 972.59 -0.333456 -1.54032 0
M  V30 9839 C 973.818 0.267813 -2.05159 0
M  V30 9840 C 974.233 1.4501 -1.20903 0
M  V30 9841 O 973.59 1.80888 -0.241994 0
M  V30 9842 C 973.641 0.69268 -3.54802 0
M  V30 9843 O 973.362 -0.442579 -4.35859 0
M  V30 9844 C 974.863 1.35572 -4.2206 0
M  V30 9845 H 972.083 0.0534924 -0.668864 0
M  V30 9846 H 974.627 -0.482515 -1.98726 0
M  V30 9847 H 972.782 1.39297 -3.6149 0
M  V30 9848 H 973.196 -0.105915 -5.24393 0
M  V30 9849 H 974.67 1.60385 -5.28186 0
M  V30 9850 H 975.147 2.30614 -3.73783 0
M  V30 9851 H 975.753 0.697748 -4.19537 0
M  V30 9852 N 974.068 1.57479 -0.061844 0
M  V30 9853 C 975.314 1.9421 0.604485 0
M  V30 9854 C 975.669 0.941011 1.67818 0
M  V30 9855 O 974.962 -0.0382264 1.91562 0
M  V30 9856 C 975.156 3.35394 1.23474 0
M  V30 9857 C 974.985 4.49144 0.223628 0
M  V30 9858 C 973.755 5.04949 -0.188187 0
M  V30 9859 C 975.953 5.11508 -0.535193 0
M  V30 9860 N 973.935 6.02235 -1.19105 0
M  V30 9861 C 975.306 6.04199 -1.39082 0
M  V30 9862 C 977.361 4.94364 -0.592346 0
M  V30 9863 C 976.064 6.81587 -2.2985 0
M  V30 9864 C 978.09 5.72388 -1.48749 0
M  V30 9865 C 977.452 6.6472 -2.33082 0
M  V30 9866 H 973.551 0.757931 0.192522 0
M  V30 9867 H 976.135 1.9422 -0.136667 0
M  V30 9868 H 974.306 3.36141 1.94587 0
M  V30 9869 H 976.038 3.59387 1.86073 0
M  V30 9870 H 972.793 4.73207 0.192933 0
M  V30 9871 H 973.217 6.55575 -1.68969 0
M  V30 9872 H 977.859 4.22776 0.045445 0
M  V30 9873 H 975.577 7.5246 -2.94669 0
M  V30 9874 H 979.163 5.61146 -1.53642 0
M  V30 9875 H 978.043 7.2404 -3.01225 0
M  V30 9876 N 975.546 -0.211634 1.56173 0
M  V30 9877 C 976.774 -0.951184 1.83739 0
M  V30 9878 C 977.189 -1.7754 0.642252 0
M  V30 9879 O 976.546 -1.78302 -0.389174 0
M  V30 9880 C 976.597 -1.86075 3.09933 0
M  V30 9881 O 976.318 -1.06983 4.24837 0
M  V30 9882 C 977.819 -2.71337 3.50559 0
M  V30 9883 H 975.039 -0.278312 0.61056 0
M  V30 9884 H 977.583 -0.223871 2.03271 0
M  V30 9885 H 975.738 -2.54189 2.92347 0
M  V30 9886 H 976.152 -1.68815 4.9659 0
M  V30 9887 H 977.626 -3.30843 4.41868 0
M  V30 9888 H 978.103 -3.44226 2.72773 0
M  V30 9889 H 978.709 -2.0862 3.70618 0
M  V30 9890 N 977.024 -1.50153 -0.478725 0
M  V30 9891 C 978.273 -1.60002 -1.22809 0
M  V30 9892 C 978.586 -0.302277 -1.9325 0
M  V30 9893 O 979.792 -0.279583 -2.70057 0
M  V30 9894 C 978.248 -2.82402 -2.23108 0
M  V30 9895 C 977.856 -4.19023 -1.58505 0
M  V30 9896 C 979.6 -3.01593 -2.98734 0
M  V30 9897 C 977.507 -5.32618 -2.57045 0
M  V30 9898 H 976.437 -0.595822 -0.462073 0
M  V30 9899 H 979.088 -1.76573 -0.499412 0
M  V30 9900 H 977.47 -2.59373 -2.99235 0
M  V30 9901 H 978.644 -4.52277 -0.882187 0
M  V30 9902 H 976.959 -4.05374 -0.951877 0
M  V30 9903 H 979.556 -3.8363 -3.72468 0
M  V30 9904 H 979.899 -2.1302 -3.57671 0
M  V30 9905 H 980.432 -3.24766 -2.29721 0
M  V30 9906 H 977.171 -6.23321 -2.02858 0
M  V30 9907 H 976.691 -5.03792 -3.25505 0
M  V30 9908 H 978.37 -5.62877 -3.19028 0
M  V30 9909 N 978.502 0.731368 -1.39602 0
M  V30 9910 C 979.779 1.48308 -1.27531 0
M  V30 9911 C 980.159 2.10795 0.113482 0
M  V30 9912 O 979.507 1.98886 1.12501 0
M  V30 9913 C 979.717 2.53156 -2.40235 0
M  V30 9914 C 981.065 3.19436 -2.79725 0
M  V30 9915 O 982.089 2.6347 -2.39712 0
M  V30 9916 O 980.948 4.20714 -3.48801 0
M  V30 9917 H 978.042 0.658753 -0.499973 0
M  V30 9918 H 980.588 0.764884 -1.51485 0
M  V30 9919 H 979.36 2.05387 -3.33064 0
M  V30 9920 H 978.983 3.3253 -2.17966 0
M  V30 9921 N 979.98 1.24838 0.961938 0
M  V30 9922 C 981.208 1.11871 1.74047 0
M  V30 9923 C 981.623 -0.328209 1.85925 0
M  V30 9924 O 980.98 -1.22616 1.35173 0
M  V30 9925 C 981.031 1.75931 3.15801 0
M  V30 9926 O 980.752 3.14967 3.04512 0
M  V30 9927 C 982.253 1.68649 4.09966 0
M  V30 9928 H 979.473 0.390569 0.545616 0
M  V30 9929 H 982.017 1.65058 1.20732 0
M  V30 9930 H 980.172 1.26733 3.66084 0
M  V30 9931 H 980.586 3.46349 3.93882 0
M  V30 9932 H 982.06 2.18144 5.07067 0
M  V30 9933 H 982.537 0.648831 4.34381 0
M  V30 9934 H 983.143 2.17301 3.65596 0
M  V30 9935 N 981.458 -1.16348 1.06306 0
M  V30 9936 C 982.391 -2.19667 0.618197 0
M  V30 9937 C 983.369 -1.58586 -0.359078 0
M  V30 9938 O 984.553 -1.86585 -0.268023 0
M  V30 9939 C 981.68 -3.3857 -0.0937091 0
M  V30 9940 C 980.726 -4.18139 0.840339 0
M  V30 9941 S 981.559 -4.81879 2.33565 0
M  V30 9942 C 982.715 -6.04161 1.63524 0
M  V30 9943 H 982.948 -2.57063 1.49352 0
M  V30 9944 H 980.481 -1.27141 0.876046 0
M  V30 9945 H 982.439 -4.07465 -0.498227 0
M  V30 9946 H 981.1 -2.9954 -0.94523 0
M  V30 9947 H 980.293 -5.03172 0.288781 0
M  V30 9948 H 979.895 -3.54739 1.18474 0
M  V30 9949 H 982.187 -6.70935 0.940904 0
M  V30 9950 H 983.13 -6.63866 2.46347 0
M  V30 9951 H 983.538 -5.53323 1.11778 0
M  V30 9952 N 982.937 -0.845659 -1.3299 0
M  V30 9953 C 984.185 -0.443774 -1.97168 0
M  V30 9954 C 984.506 1.00192 -1.67292 0
M  V30 9955 O 983.776 1.69891 -0.975397 0
M  V30 9956 H 982.356 -0.161111 -0.729419 0
M  V30 9957 H 985.018 -1.08011 -1.62233 0
M  V30 9958 H 984.114 -0.581414 -3.06637 0
M  V30 9959 N 984.415 1.45619 -0.602734 0
M  V30 9960 C 985.662 2.02272 -0.0960337 0
M  V30 9961 C 985.99 1.47177 1.27159 0
M  V30 9962 O 985.245 0.634593 1.85125 0
M  V30 9963 C 985.544 3.574 -0.00157909 0
M  V30 9964 C 985.21 4.31626 -1.30422 0
M  V30 9965 C 983.872 4.51622 -1.66106 0
M  V30 9966 C 986.224 4.74091 -2.16535 0
M  V30 9967 C 983.552 5.11338 -2.87663 0
M  V30 9968 C 985.904 5.35151 -3.37336 0
M  V30 9969 C 984.568 5.53371 -3.73278 0
M  V30 9970 H 983.838 0.740166 -0.0351412 0
M  V30 9971 H 986.485 1.74744 -0.783382 0
M  V30 9972 H 984.79 3.84179 0.769008 0
M  V30 9973 H 986.487 3.98934 0.406549 0
M  V30 9974 H 983.077 4.16372 -1.01647 0
M  V30 9975 H 987.261 4.5838 -1.90266 0
M  V30 9976 H 982.517 5.23634 -3.15622 0
M  V30 9977 H 986.691 5.67011 -4.04316 0
M  V30 9978 H 984.318 5.99412 -4.67556 0
M  V30 9979 N 985.893 0.34162 1.53853 0
M  V30 9980 C 987.139 -0.255862 2.01179 0
M  V30 9981 C 987.472 -1.50356 1.22909 0
M  V30 9982 O 986.747 -1.91913 0.316198 0
M  V30 9983 C 987.03 -0.571934 3.55529 0
M  V30 9984 C 986.883 0.687727 4.44511 0
M  V30 9985 C 988.202 -1.38233 4.17827 0
M  V30 9986 H 985.321 -0.091521 0.731295 0
M  V30 9987 H 987.963 0.461775 1.84303 0
M  V30 9988 H 986.113 -1.18331 3.70041 0
M  V30 9989 H 987.785 1.32572 4.4184 0
M  V30 9990 H 986.028 1.313 4.13452 0
M  V30 9991 H 986.699 0.421858 5.50386 0
M  V30 9992 H 989.175 -0.865374 4.07002 0
M  V30 9993 H 988.051 -1.57223 5.25901 0
M  V30 9994 H 988.312 -2.38386 3.72323 0
M  V30 9995 N 987.371 -1.57444 0.0701946 0
M  V30 9996 C 988.303 -2.09611 -0.927142 0
M  V30 9997 C 989.316 -1.02791 -1.26245 0
M  V30 9998 O 990.505 -1.30309 -1.21992 0
M  V30 9999 C 987.605 -2.54015 -2.24342 0
M  V30 10000 C 986.778 -3.84389 -2.08719 0
M  V30 10001 C 985.837 -4.14904 -3.23638 0
M  V30 10002 O 984.863 -4.84528 -2.98699 0
M  V30 10003 N 986.065 -3.68322 -4.48686 0
M  V30 10004 H 988.83 -2.95803 -0.481753 0
M  V30 10005 H 986.391 -1.61487 -0.115572 0
M  V30 10006 H 988.383 -2.71492 -3.00124 0
M  V30 10007 H 986.953 -1.72969 -2.60385 0
M  V30 10008 H 986.173 -3.76308 -1.17415 0
M  V30 10009 H 987.461 -4.69729 -1.9553 0
M  V30 10010 H 986.859 -3.12073 -4.71834 0
M  V30 10011 H 985.416 -3.91002 -5.21499 0
M  V30 10012 N 988.849 0.203349 -1.56283 0
M  V30 10013 C 989.781 1.27592 -1.90402 0
M  V30 10014 C 990.794 1.4213 -0.79391 0
M  V30 10015 O 991.983 1.42703 -1.07229 0
M  V30 10016 C 989.083 2.64919 -2.11356 0
M  V30 10017 C 988.256 2.72095 -3.42466 0
M  V30 10018 C 987.315 3.9056 -3.52631 0
M  V30 10019 O 986.341 3.78048 -4.25521 0
M  V30 10020 N 987.543 5.0566 -2.85111 0
M  V30 10021 H 990.308 0.986423 -2.83001 0
M  V30 10022 H 987.869 0.39331 -1.5705 0
M  V30 10023 H 989.861 3.42581 -2.15453 0
M  V30 10024 H 988.431 2.86391 -1.25295 0
M  V30 10025 H 987.651 1.8077 -3.50308 0
M  V30 10026 H 988.939 2.73874 -4.28801 0
M  V30 10027 H 988.337 5.18723 -2.25705 0
M  V30 10028 H 986.894 5.81299 -2.94847 0
M  V30 10029 N 990.327 1.50405 0.470755 0
M  V30 10030 C 991.743 1.37838 0.804534 0
M  V30 10031 C 991.943 0.434743 1.96754 0
M  V30 10032 O 990.999 -0.122507 2.52203 0
M  V30 10033 C 992.312 2.79212 1.11629 0
M  V30 10034 C 993.86 2.88129 1.22272 0
M  V30 10035 C 994.335 4.30337 1.5676 0
M  V30 10036 N 995.826 4.3329 1.63751 0
M  V30 10037 C 996.561 5.4032 1.91942 0
M  V30 10038 N 996.057 6.57558 2.18151 0
M  V30 10039 N 997.85 5.27764 1.93446 0
M  V30 10040 H 990.001 2.10332 -0.295689 0
M  V30 10041 H 992.264 0.945429 -0.0697733 0
M  V30 10042 H 991.97 3.50103 0.334778 0
M  V30 10043 H 991.844 3.16475 2.0524 0
M  V30 10044 H 994.231 2.17457 1.9949 0
M  V30 10045 H 994.312 2.54409 0.2664 0
M  V30 10046 H 993.956 5.01547 0.800817 0
M  V30 10047 H 993.886 4.61545 2.53543 0
M  V30 10048 H 996.377 3.48752 1.45535 0
M  V30 10049 H 996.69 7.34935 2.38936 0
M  V30 10050 H 995.035 6.60732 2.15542 0
M  V30 10051 H 998.226 4.35169 1.72468 0
M  V30 10052 H 998.399 6.11264 2.15081 0
M  V30 10053 N 991.805 -0.723954 1.39988 0
M  V30 10054 C 993.221 -1.03095 1.21834 0
M  V30 10055 C 993.421 -2.01309 0.0876647 0
M  V30 10056 O 992.477 -2.46277 -0.55714 0
M  V30 10057 C 993.79 -1.58267 2.5568 0
M  V30 10058 C 995.338 -1.70293 2.6262 0
M  V30 10059 C 995.813 -2.28872 3.96713 0
M  V30 10060 N 997.304 -2.36269 3.98411 0
M  V30 10061 C 998.039 -2.82557 4.98948 0
M  V30 10062 N 997.535 -3.28661 6.0988 0
M  V30 10063 N 999.328 -2.81866 4.86321 0
M  V30 10064 H 991.479 -0.0727891 2.12275 0
M  V30 10065 H 993.742 -0.0949029 0.943238 0
M  V30 10066 H 993.448 -0.935642 3.39026 0
M  V30 10067 H 993.322 -2.56914 2.76179 0
M  V30 10068 H 995.709 -2.34115 1.7965 0
M  V30 10069 H 995.79 -0.70268 2.45959 0
M  V30 10070 H 995.434 -1.65675 4.80119 0
M  V30 10071 H 995.364 -3.29595 4.107 0
M  V30 10072 H 997.855 -2.03697 3.18302 0
M  V30 10073 H 998.168 -3.62524 6.82493 0
M  V30 10074 H 996.513 -3.26641 6.13458 0
M  V30 10075 H 999.704 -2.45179 3.98754 0
M  V30 10076 H 999.877 -3.17626 5.64817 0
M  V30 10077 N 993.283 -1.25346 -0.955304 0
M  V30 10078 C 994.23 -1.05672 -2.05188 0
M  V30 10079 C 995.2 0.0339217 -1.66065 0
M  V30 10080 O 996.385 -0.123126 -1.90402 0
M  V30 10081 C 993.525 -0.680791 -3.38318 0
M  V30 10082 C 992.638 -1.84622 -3.90562 0
M  V30 10083 C 991.773 -1.41471 -5.12015 0
M  V30 10084 C 990.812 -2.54931 -5.56486 0
M  V30 10085 N 989.949 -2.1256 -6.69151 0
M  V30 10086 H 994.789 -1.9952 -2.2135 0
M  V30 10087 H 992.326 -0.993588 -1.08472 0
M  V30 10088 H 994.284 -0.443794 -4.14833 0
M  V30 10089 H 992.914 0.2207 -3.22045 0
M  V30 10090 H 991.966 -2.19654 -3.10574 0
M  V30 10091 H 993.278 -2.6983 -4.19515 0
M  V30 10092 H 992.432 -1.13732 -5.95945 0
M  V30 10093 H 991.171 -0.533334 -4.84775 0
M  V30 10094 H 990.176 -2.83415 -4.71122 0
M  V30 10095 H 991.401 -3.43645 -5.85734 0
M  V30 10096 H 989.347 -1.26838 -6.43621 0
M  V30 10097 H 989.264 -2.91317 -6.97618 0
M  V30 10098 H 990.532 -1.87996 -7.5649 0
M  V30 10099 N 994.761 1.15782 -1.06922 0
M  V30 10100 C 995.691 2.22538 -0.707045 0
M  V30 10101 C 996.672 1.67371 0.303471 0
M  V30 10102 O 997.857 1.9339 0.177189 0
M  V30 10103 C 994.987 3.47158 -0.0994269 0
M  V30 10104 C 993.941 4.15257 -1.03661 0
M  V30 10105 C 993.267 5.33902 -0.291974 0
M  V30 10106 C 994.567 4.65516 -2.36837 0
M  V30 10107 H 996.261 2.53089 -1.59958 0
M  V30 10108 H 993.807 1.21649 -0.770552 0
M  V30 10109 H 995.76 4.21073 0.165852 0
M  V30 10110 H 994.484 3.15926 0.828155 0
M  V30 10111 H 993.143 3.43276 -1.28674 0
M  V30 10112 H 992.791 4.98926 0.638928 0
M  V30 10113 H 992.491 5.80407 -0.916613 0
M  V30 10114 H 994.015 6.1059 -0.0343915 0
M  V30 10115 H 995.429 5.30981 -2.16175 0
M  V30 10116 H 993.826 5.22666 -2.94856 0
M  V30 10117 H 994.896 3.81387 -2.99453 0
M  V30 10118 N 996.239 0.8527 1.3254 0
M  V30 10119 C 997.149 0.298744 2.3269 0
M  V30 10120 C 998.165 -0.582418 1.63963 0
M  V30 10121 O 999.341 -0.483253 1.95516 0
M  V30 10122 C 996.406 -0.505453 3.42996 0
M  V30 10123 C 995.467 0.401618 4.27417 0
M  V30 10124 C 994.7 -0.364294 5.32455 0
M  V30 10125 O 994.923 -1.59448 5.47661 0
M  V30 10126 O 993.857 0.268892 6.01299 0
M  V30 10127 H 997.683 1.12843 2.81958 0
M  V30 10128 H 995.268 0.615584 1.36128 0
M  V30 10129 H 997.15 -0.961974 4.10273 0
M  V30 10130 H 995.825 -1.31197 2.95921 0
M  V30 10131 H 994.732 0.906274 3.62957 0
M  V30 10132 H 996.065 1.17327 4.78012 0
M  V30 10133 N 997.718 -1.45297 0.610449 0
M  V30 10134 C 998.648 -2.33311 -0.0939698 0
M  V30 10135 C 999.629 -1.46999 -0.85588 0
M  V30 10136 O 1000.81 -1.75764 -0.825865 0
M  V30 10137 C 997.944 -3.29751 -1.09003 0
M  V30 10138 C 996.898 -4.2572 -0.441146 0
M  V30 10139 C 996.224 -5.11873 -1.54566 0
M  V30 10140 C 997.524 -5.1837 0.639489 0
M  V30 10141 H 999.218 -2.92459 0.640941 0
M  V30 10142 H 996.764 -1.40631 0.309675 0
M  V30 10143 H 998.717 -3.90195 -1.59141 0
M  V30 10144 H 997.441 -2.68768 -1.85557 0
M  V30 10145 H 996.1 -3.66579 0.0393908 0
M  V30 10146 H 995.748 -4.47256 -2.30155 0
M  V30 10147 H 995.448 -5.76886 -1.11698 0
M  V30 10148 H 996.972 -5.75185 -2.04925 0
M  V30 10149 H 998.386 -5.7287 0.22207 0
M  V30 10150 H 996.783 -5.91876 0.990089 0
M  V30 10151 H 997.853 -4.60627 1.51495 0
M  V30 10152 N 999.196 -0.349774 -1.5367 0
M  V30 10153 C 1000.44 0.244827 -2.01015 0
M  V30 10154 C 1000.77 1.50057 -1.23746 0
M  V30 10155 O 1000.03 1.9315 -0.314872 0
M  V30 10156 C 1000.32 0.598311 -3.52356 0
M  V30 10157 C 999.991 -0.56127 -4.47393 0
M  V30 10158 C 998.653 -0.879481 -4.73095 0
M  V30 10159 C 1001 -1.3389 -5.03709 0
M  V30 10160 C 998.333 -1.97758 -5.52366 0
M  V30 10161 C 1000.68 -2.4273 -5.84179 0
M  V30 10162 C 999.349 -2.75103 -6.08173 0
M  V30 10163 H 998.619 0.0895884 -0.735564 0
M  V30 10164 H 1001.27 -0.478975 -1.85413 0
M  V30 10165 H 999.571 1.40291 -3.65822 0
M  V30 10166 H 1001.27 1.07036 -3.86451 0
M  V30 10167 H 997.858 -0.303201 -4.27526 0
M  V30 10168 H 1002.04 -1.10632 -4.83812 0
M  V30 10169 H 997.298 -2.23257 -5.6918 0
M  V30 10170 H 1001.47 -3.03412 -6.26828 0
M  V30 10171 H 999.099 -3.60317 -6.69385 0
M  V30 10172 N 1000.67 1.57404 -0.0785433 0
M  V30 10173 C 1001.9 1.98074 0.597862 0
M  V30 10174 C 1002.32 0.95714 1.6274 0
M  V30 10175 O 1001.67 -0.0553728 1.82416 0
M  V30 10176 C 1001.72 3.38815 1.26041 0
M  V30 10177 O 1001.45 4.37254 0.27207 0
M  V30 10178 C 1002.95 3.94397 2.024 0
M  V30 10179 H 1000.17 0.651263 0.161546 0
M  V30 10180 H 1002.71 2.03927 -0.152941 0
M  V30 10181 H 1000.87 3.34028 1.96225 0
M  V30 10182 H 1001.28 5.19136 0.74822 0
M  V30 10183 H 1002.75 4.95075 2.4414 0
M  V30 10184 H 1003.23 3.31308 2.88326 0
M  V30 10185 H 1003.84 4.02607 1.37068 0
M  V30 10186 N 1002.15 -0.195058 1.56388 0
M  V30 10187 C 1003.38 -0.930291 1.8447 0
M  V30 10188 C 1003.79 -1.77356 0.658901 0
M  V30 10189 O 1003.13 -1.79691 -0.381664 0
M  V30 10190 C 1003.19 -1.87626 3.06654 0
M  V30 10191 C 1002.86 -1.21494 4.40555 0
M  V30 10192 C 1003.86 -0.591847 5.1652 0
M  V30 10193 C 1001.54 -1.21878 4.8729 0
M  V30 10194 C 1003.53 0.0185743 6.37397 0
M  V30 10195 C 1001.22 -0.604524 6.08103 0
M  V30 10196 C 1002.22 0.0130731 6.82999 0
M  V30 10197 O 1001.91 0.617703 8.01523 0
M  V30 10198 H 1001.64 -0.276933 0.616672 0
M  V30 10199 H 1004.19 -0.207277 2.04351 0
M  V30 10200 H 1002.42 -2.63897 2.82658 0
M  V30 10201 H 1004.11 -2.47929 3.21382 0
M  V30 10202 H 1004.88 -0.581018 4.81507 0
M  V30 10203 H 1000.76 -1.68888 4.2895 0
M  V30 10204 H 1004.3 0.50124 6.95797 0
M  V30 10205 H 1000.2 -0.612855 6.42584 0
M  V30 10206 H 1000.97 0.514612 8.16881 0
M  V30 10207 N 1003.63 -1.50653 -0.462772 0
M  V30 10208 C 1004.56 -1.64773 -1.57877 0
M  V30 10209 C 1005.54 -0.495664 -1.54861 0
M  V30 10210 O 1006.72 -0.716248 -1.74362 0
M  V30 10211 C 1003.85 -1.63796 -2.9646 0
M  V30 10212 C 1002.9 -2.84663 -3.17599 0
M  V30 10213 S 1003.73 -4.45852 -2.96608 0
M  V30 10214 C 1004.89 -4.47581 -4.37518 0
M  V30 10215 H 1005.12 -2.59172 -1.45661 0
M  V30 10216 H 1002.65 -1.40019 -0.650699 0
M  V30 10217 H 1004.61 -1.63918 -3.76353 0
M  V30 10218 H 1003.27 -0.706185 -3.06059 0
M  V30 10219 H 1002.46 -2.80308 -4.1886 0
M  V30 10220 H 1002.07 -2.82152 -2.45492 0
M  V30 10221 H 1004.36 -4.21656 -5.30295 0
M  V30 10222 H 1005.3 -5.49248 -4.46914 0
M  V30 10223 H 1005.71 -3.7719 -4.19985 0
M  V30 10224 N 1005.11 0.71652 -1.4037 0
M  V30 10225 C 1006.52 1.02447 -1.22379 0
M  V30 10226 C 1006.72 2.0126 -0.0983394 0
M  V30 10227 O 1005.78 2.46569 0.544071 0
M  V30 10228 C 1007.09 1.56909 -2.56515 0
M  V30 10229 C 1008.64 1.68898 -2.6352 0
M  V30 10230 C 1009.12 2.26765 -3.97922 0
M  V30 10231 N 1010.61 2.34152 -3.99658 0
M  V30 10232 C 1011.34 2.79907 -5.00439 0
M  V30 10233 N 1010.84 3.25422 -6.11615 0
M  V30 10234 N 1012.63 2.79283 -4.87809 0
M  V30 10235 H 1004.78 0.0615306 -2.12311 0
M  V30 10236 H 1007.05 0.0898994 -0.943728 0
M  V30 10237 H 1006.75 0.917649 -3.39517 0
M  V30 10238 H 1006.63 2.55446 -2.77538 0
M  V30 10239 H 1009.01 2.33159 -1.8089 0
M  V30 10240 H 1009.09 0.689626 -2.46329 0
M  V30 10241 H 1008.74 1.63126 -4.80991 0
M  V30 10242 H 1008.67 3.27413 -4.12442 0
M  V30 10243 H 1011.16 2.02006 -3.19378 0
M  V30 10244 H 1011.47 3.58899 -6.84406 0
M  V30 10245 H 1009.82 3.23383 -6.15181 0
M  V30 10246 H 1013.01 2.43061 -4.00049 0
M  V30 10247 H 1013.18 3.14626 -5.66493 0
M  V30 10248 N 1006.59 1.25851 0.948643 0
M  V30 10249 C 1007.83 1.10954 1.69397 0
M  V30 10250 C 1008.16 -0.348443 1.91353 0
M  V30 10251 O 1007.42 -1.27285 1.48651 0
M  V30 10252 C 1007.72 1.81565 3.07846 0
M  V30 10253 C 1007.38 3.31477 3.0567 0
M  V30 10254 C 1006.04 3.72371 3.04784 0
M  V30 10255 C 1008.4 4.27225 2.98543 0
M  V30 10256 C 1005.72 5.07416 2.94527 0
M  V30 10257 C 1008.08 5.62301 2.89828 0
M  V30 10258 C 1006.74 6.02516 2.87281 0
M  V30 10259 H 1006.01 0.406011 0.619868 0
M  V30 10260 H 1008.66 1.562 1.10787 0
M  V30 10261 H 1006.96 1.28767 3.70035 0
M  V30 10262 H 1008.66 1.67486 3.64348 0
M  V30 10263 H 1005.25 2.98941 3.07135 0
M  V30 10264 H 1009.43 3.96618 2.98342 0
M  V30 10265 H 1004.69 5.37746 2.90928 0
M  V30 10266 H 1008.86 6.36182 2.83276 0
M  V30 10267 H 1006.49 7.07116 2.79089 0
M  V30 10268 N 1008.06 -1.15214 1.07534 0
M  V30 10269 C 1009.34 -1.82155 0.71267 0
M  V30 10270 C 1009.72 -1.95163 -0.804655 0
M  V30 10271 O 1009.07 -1.50451 -1.71979 0
M  V30 10272 C 1009.28 -3.18392 1.42925 0
M  V30 10273 C 1010.63 -3.94005 1.58256 0
M  V30 10274 O 1011.65 -3.27952 1.39018 0
M  V30 10275 O 1010.51 -5.12436 1.89925 0
M  V30 10276 H 1007.6 -0.78709 0.253808 0
M  V30 10277 H 1010.15 -1.22309 1.17638 0
M  V30 10278 H 1008.92 -3.04034 2.46331 0
M  V30 10279 H 1008.55 -3.85925 0.956439 0
M  V30 10280 N 1009.54 -0.859717 -1.32086 0
M  V30 10281 C 1010.51 -0.313005 -2.27053 0
M  V30 10282 C 1011.51 0.530191 -1.51808 0
M  V30 10283 O 1012.7 0.340972 -1.7083 0
M  V30 10284 C 1009.83 0.5566 -3.36325 0
M  V30 10285 H 1011.02 -1.15125 -2.76923 0
M  V30 10286 H 1008.57 -0.634463 -1.42843 0
M  V30 10287 H 1009.31 1.41645 -2.91731 0
M  V30 10288 H 1009.09 -0.0470197 -3.92072 0
M  V30 10289 H 1010.58 0.931725 -4.07073 0
M  V30 10290 N 1011.02 1.44971 -0.618145 0
M  V30 10291 C 1011.93 2.34403 0.0960457 0
M  V30 10292 C 1012.95 1.51862 0.849355 0
M  V30 10293 O 1014.12 1.84632 0.804557 0
M  V30 10294 C 1011.19 3.29646 1.07397 0
M  V30 10295 C 1010.25 4.28095 0.321466 0
M  V30 10296 C 1009.48 5.18787 1.25281 0
M  V30 10297 O 1009.7 5.1313 2.49106 0
M  V30 10298 O 1008.64 5.97282 0.744156 0
M  V30 10299 H 1012.46 2.96898 -0.639176 0
M  V30 10300 H 1010.05 1.44529 -0.37837 0
M  V30 10301 H 1011.93 3.88307 1.63694 0
M  V30 10302 H 1010.61 2.69702 1.79004 0
M  V30 10303 H 1009.51 3.73019 -0.284223 0
M  V30 10304 H 1010.85 4.90923 -0.354315 0
M  V30 10305 N 1012.5 0.357919 1.53482 0
M  V30 10306 C 1013.75 -0.234163 2.01142 0
M  V30 10307 C 1014.07 -1.49399 1.2454 0
M  V30 10308 O 1013.33 -1.92981 0.325111 0
M  V30 10309 C 1013.63 -0.579617 3.52669 0
M  V30 10310 C 1013.29 0.584988 4.47089 0
M  V30 10311 C 1011.96 0.904558 4.72622 0
M  V30 10312 C 1014.31 1.3656 5.02992 0
M  V30 10313 C 1011.64 2.00685 5.5131 0
M  V30 10314 C 1013.99 2.45824 5.82884 0
M  V30 10315 C 1012.65 2.78325 6.06706 0
M  V30 10316 H 1011.92 -0.0856863 0.736029 0
M  V30 10317 H 1014.57 0.488801 1.85157 0
M  V30 10318 H 1012.87 -1.38349 3.66561 0
M  V30 10319 H 1014.57 -1.04985 3.87013 0
M  V30 10320 H 1011.16 0.32587 4.27359 0
M  V30 10321 H 1015.34 1.13196 4.83219 0
M  V30 10322 H 1010.6 2.26272 5.67988 0
M  V30 10323 H 1014.77 3.06732 6.25211 0
M  V30 10324 H 1012.4 3.63862 6.67464 0
M  V30 10325 N 1013.98 -1.5736 0.0868897 0
M  V30 10326 C 1015.2 -1.98388 -0.587349 0
M  V30 10327 C 1015.62 -0.965757 -1.6223 0
M  V30 10328 O 1014.98 0.0456981 -1.82443 0
M  V30 10329 C 1015.03 -3.39479 -1.24242 0
M  V30 10330 O 1014.75 -4.37393 -0.248878 0
M  V30 10331 C 1016.25 -3.95465 -2.00305 0
M  V30 10332 H 1013.47 -0.652111 -0.15809 0
M  V30 10333 H 1016.01 -2.03843 0.163754 0
M  V30 10334 H 1014.17 -3.35063 -1.94451 0
M  V30 10335 H 1014.58 -5.19525 -0.720678 0
M  V30 10336 H 1016.06 -4.96363 -2.41511 0
M  V30 10337 H 1016.53 -3.32832 -2.86565 0
M  V30 10338 H 1017.14 -4.03328 -1.34931 0
M  V30 10339 N 1015.45 0.186762 -1.56489 0
M  V30 10340 C 1016.39 1.25971 -1.9028 0
M  V30 10341 C 1017.37 1.43543 -0.763822 0
M  V30 10342 O 1018.55 1.58799 -1.01564 0
M  V30 10343 C 1015.68 2.62507 -2.14028 0
M  V30 10344 C 1014.72 2.61758 -3.36727 0
M  V30 10345 S 1015.56 2.12366 -4.9159 0
M  V30 10346 C 1016.71 3.5071 -5.18414 0
M  V30 10347 H 1016.94 0.971203 -2.80989 0
M  V30 10348 H 1014.48 0.390636 -1.49377 0
M  V30 10349 H 1016.44 3.41098 -2.28391 0
M  V30 10350 H 1015.1 2.88564 -1.24054 0
M  V30 10351 H 1014.29 3.62173 -3.50495 0
M  V30 10352 H 1013.89 1.91254 -3.214 0
M  V30 10353 H 1016.18 4.46622 -5.09445 0
M  V30 10354 H 1017.13 3.41829 -6.20128 0
M  V30 10355 H 1017.53 3.46008 -4.46026 0
M  V30 10356 N 1016.93 1.50896 0.454776 0
M  V30 10357 C 1017.86 1.73885 1.5584 0
M  V30 10358 C 1018.84 0.588172 1.59607 0
M  V30 10359 O 1020.03 0.829054 1.75614 0
M  V30 10360 C 1017.16 1.84796 2.94054 0
M  V30 10361 C 1016.11 3.00111 3.05152 0
M  V30 10362 C 1015.44 2.96183 4.45174 0
M  V30 10363 C 1016.74 4.40365 2.80849 0
M  V30 10364 H 1018.43 2.66292 1.36854 0
M  V30 10365 H 1015.98 1.28142 0.656936 0
M  V30 10366 H 1017.93 1.99462 3.71204 0
M  V30 10367 H 1016.66 0.890235 3.14233 0
M  V30 10368 H 1015.31 2.85121 2.30438 0
M  V30 10369 H 1014.96 1.98224 4.62295 0
M  V30 10370 H 1014.66 3.73608 4.53532 0
M  V30 10371 H 1016.19 3.1292 5.24322 0
M  V30 10372 H 1017.6 4.55795 3.47741 0
M  V30 10373 H 1016 5.19363 3.00636 0
M  V30 10374 H 1017.07 4.51606 1.76579 0
M  V30 10375 N 1018.41 -0.709066 1.40748 0
M  V30 10376 C 1019.66 -1.47119 1.39585 0
M  V30 10377 C 1019.99 -1.942 0.000245323 0
M  V30 10378 O 1019.26 -1.68609 -0.969593 0
M  V30 10379 C 1019.55 -2.69266 2.39099 0
M  V30 10380 C 1019.4 -2.28037 3.8771 0
M  V30 10381 C 1020.72 -3.71438 2.36055 0
M  V30 10382 H 1017.84 -0.533632 0.508336 0
M  V30 10383 H 1020.48 -0.808718 1.7193 0
M  V30 10384 H 1018.63 -3.25788 2.11647 0
M  V30 10385 H 1020.3 -1.76946 4.26014 0
M  V30 10386 H 1018.55 -1.59966 4.03229 0
M  V30 10387 H 1019.22 -3.15621 4.52866 0
M  V30 10388 H 1021.69 -3.24559 2.60385 0
M  V30 10389 H 1020.57 -4.54532 3.07721 0
M  V30 10390 H 1020.83 -4.20193 1.37443 0
M  V30 10391 N 1019.89 -1.26353 -0.941956 0
M  V30 10392 C 1021.13 -1.13071 -1.70277 0
M  V30 10393 C 1021.49 0.320699 -1.89303 0
M  V30 10394 O 1022.69 0.575624 -2.62564 0
M  V30 10395 C 1020.97 -1.87777 -3.04096 0
M  V30 10396 S 1022.52 -1.9054 -3.95272 0
M  V30 10397 H 1019.34 -0.403912 -0.585129 0
M  V30 10398 H 1021.94 -1.6006 -1.12254 0
M  V30 10399 H 1020.65 -2.92447 -2.87929 0
M  V30 10400 H 1020.18 -1.41226 -3.67177 0
M  V30 10401 H 1022.19 -0.991548 -4.86192 0
M  V30 10402 N 1021.37 1.14642 -1.08144 0
M  V30 10403 C 1022.33 2.17834 -0.712799 0
M  V30 10404 C 1023.33 1.58828 0.251041 0
M  V30 10405 O 1024.52 1.74173 0.0309381 0
M  V30 10406 C 1021.65 3.4086 -0.0519477 0
M  V30 10407 H 1022.85 2.51961 -1.62653 0
M  V30 10408 H 1020.4 1.29243 -0.878971 0
M  V30 10409 H 1021.13 3.12311 0.873636 0
M  V30 10410 H 1020.92 3.84952 -0.745286 0
M  V30 10411 H 1022.41 4.17163 0.191031 0
M  V30 10412 N 1022.85 0.866709 1.31628 0
M  V30 10413 C 1023.81 0.325041 2.26883 0
M  V30 10414 C 1024.81 -0.522133 1.52087 0
M  V30 10415 O 1026 -0.331908 1.71009 0
M  V30 10416 C 1023.13 -0.538756 3.36616 0
M  V30 10417 H 1024.32 1.16592 2.76308 0
M  V30 10418 H 1021.88 0.642029 1.42505 0
M  V30 10419 H 1022.61 -1.40096 2.92478 0
M  V30 10420 H 1022.4 0.0678115 3.92041 0
M  V30 10421 H 1023.89 -0.910123 4.07562 0
M  V30 10422 N 1024.32 -1.44642 0.625825 0
M  V30 10423 C 1025.23 -2.34451 -0.0836134 0
M  V30 10424 C 1026.25 -1.5231 -0.841289 0
M  V30 10425 O 1027.43 -1.85056 -0.794754 0
M  V30 10426 C 1024.49 -3.30211 -1.05648 0
M  V30 10427 C 1023.55 -4.28259 -0.298759 0
M  V30 10428 C 1022.78 -5.19444 -1.22528 0
M  V30 10429 O 1023.01 -5.14444 -2.46382 0
M  V30 10430 O 1021.94 -5.97668 -0.71247 0
M  V30 10431 H 1025.77 -2.96555 0.654912 0
M  V30 10432 H 1023.35 -1.44327 0.386029 0
M  V30 10433 H 1025.23 -3.8917 -1.61632 0
M  V30 10434 H 1023.91 -2.70648 -1.77571 0
M  V30 10435 H 1022.82 -3.72863 0.304001 0
M  V30 10436 H 1024.15 -4.90728 0.380345 0
M  V30 10437 N 1025.8 -0.366053 -1.5329 0
M  V30 10438 C 1026.71 0.488111 -2.29466 0
M  V30 10439 C 1027.73 1.09219 -1.35452 0
M  V30 10440 O 1028.9 1.10303 -1.68509 0
M  V30 10441 C 1025.97 1.61202 -3.06944 0
M  V30 10442 C 1025.03 1.03543 -4.16626 0
M  V30 10443 C 1024.26 2.10578 -4.904 0
M  V30 10444 O 1024.49 3.31697 -4.6404 0
M  V30 10445 O 1023.42 1.73609 -5.76319 0
M  V30 10446 H 1027.25 -0.131789 -3.03414 0
M  V30 10447 H 1024.83 -0.130421 -1.4883 0
M  V30 10448 H 1026.71 2.26546 -3.55324 0
M  V30 10449 H 1025.39 2.21732 -2.35832 0
M  V30 10450 H 1024.29 0.345892 -3.72498 0
M  V30 10451 H 1025.63 0.474687 -4.89906 0
M  V30 10452 N 1027.28 1.57312 -0.0952337 0
M  V30 10453 C 1028.53 1.93533 0.568131 0
M  V30 10454 C 1028.84 0.979121 1.6933 0
M  V30 10455 O 1030.05 1.23506 2.41782 0
M  V30 10456 C 1028.5 3.43875 1.06198 0
M  V30 10457 C 1028.11 4.47988 -0.0334397 0
M  V30 10458 C 1029.86 3.89057 1.69807 0
M  V30 10459 C 1027.76 5.89483 0.475774 0
M  V30 10460 H 1026.69 0.7224 0.215995 0
M  V30 10461 H 1029.34 1.82699 -0.171257 0
M  V30 10462 H 1027.73 3.49862 1.85506 0
M  V30 10463 H 1028.9 4.53644 -0.808934 0
M  V30 10464 H 1027.21 4.12415 -0.574725 0
M  V30 10465 H 1029.81 4.92171 2.08978 0
M  V30 10466 H 1030.15 3.27713 2.5673 0
M  V30 10467 H 1030.69 3.85772 0.970815 0
M  V30 10468 H 1027.43 6.54528 -0.356837 0
M  V30 10469 H 1026.95 5.87297 1.21827 0
M  V30 10470 H 1028.63 6.40066 0.944697 0
M  V30 10471 N 1028.76 -0.17846 1.56586 0
M  V30 10472 C 1029.71 -1.24042 1.96765 0
M  V30 10473 C 1030.7 -1.46218 0.855375 0
M  V30 10474 O 1031.91 -1.46882 1.04046 0
M  V30 10475 H 1028.28 -0.416807 0.62592 0
M  V30 10476 H 1030.25 -0.874644 2.85294 0
M  V30 10477 C 1029 -2.57394 2.3376 0
M  V30 10478 H 1028.32 -2.41151 3.18883 0
M  V30 10479 H 1029.76 -3.30405 2.65723 0
M  V30 10480 C 1028.22 -3.15621 1.17835 0
M  V30 10481 O 1028.75 -3.99032 0.462202 0
M  V30 10482 N 1026.96 -2.74606 0.950783 0
M  V30 10483 H 1026.51 -2.06878 1.5349 0
M  V30 10484 H 1026.46 -3.13902 0.176967 0
M  V30 10485 N 1030.24 -1.51135 -0.446768 0
M  V30 10486 C 1031.65 -1.55919 -1.02694 0
M  V30 10487 C 1032 -0.377038 -1.92543 0
M  V30 10488 O 1031.12 0.507295 -2.1037 0
M  V30 10489 C 1031.72 -2.8257 -1.86922 0
M  V30 10490 C 1030.28 -2.89956 -2.40005 0
M  V30 10491 C 1029.42 -2.50482 -1.18971 0
M  V30 10492 H 1032.37 -1.57048 -0.228403 0
M  V30 10493 H 1032.4 -2.65799 -2.7227 0
M  V30 10494 H 1031.91 -3.6859 -1.21502 0
M  V30 10495 H 1030.01 -2.08343 -3.08907 0
M  V30 10496 H 1030.12 -3.93399 -2.73448 0
M  V30 10497 H 1028.49 -2.03466 -1.53211 0
M  V30 10498 H 1029.27 -3.38837 -0.551762 0
M  V30 10499 N 1031.71 0.701592 -1.41122 0
M  V30 10500 C 1032.94 1.48833 -1.43291 0
M  V30 10501 C 1033.35 1.89168 -0.0348668 0
M  V30 10502 O 1032.69 1.56937 0.9548 0
M  V30 10503 C 1032.76 2.78533 -2.27287 0
M  V30 10504 C 1032.42 2.60438 -3.75528 0
M  V30 10505 C 1033.42 2.26778 -4.67833 0
M  V30 10506 C 1031.1 2.76266 -4.19503 0
M  V30 10507 C 1033.1 2.09176 -6.021 0
M  V30 10508 C 1030.78 2.58281 -5.53836 0
M  V30 10509 C 1031.78 2.24786 -6.4495 0
M  V30 10510 O 1031.47 2.06952 -7.76805 0
M  V30 10511 H 1031.2 0.465401 -0.490284 0
M  V30 10512 H 1033.76 0.871843 -1.85979 0
M  V30 10513 H 1031.99 3.42566 -1.79403 0
M  V30 10514 H 1033.67 3.40312 -2.21229 0
M  V30 10515 H 1034.44 2.1417 -4.35151 0
M  V30 10516 H 1030.32 3.01322 -3.48893 0
M  V30 10517 H 1033.86 1.82955 -6.73181 0
M  V30 10518 H 1029.76 2.70478 -5.86099 0
M  V30 10519 H 1030.53 2.21762 -7.87886 0
M  V30 10520 N 1033.19 1.2685 0.935242 0
M  V30 10521 C 1034.14 1.08746 2.05614 0
M  V30 10522 C 1035.13 0.012681 1.69395 0
M  V30 10523 O 1036.34 0.169822 1.79197 0
M  V30 10524 H 1032.71 0.33485 0.673335 0
M  V30 10525 H 1034.69 2.03725 2.18033 0
M  V30 10526 C 1033.43 0.74346 3.39659 0
M  V30 10527 H 1032.76 1.56236 3.68008 0
M  V30 10528 H 1034.2 0.656607 4.18885 0
M  V30 10529 C 1032.66 -0.551751 3.32351 0
M  V30 10530 O 1033.19 -1.58836 3.68963 0
M  V30 10531 N 1031.39 -0.544583 2.85452 0
M  V30 10532 H 1030.94 0.29939 2.55854 0
M  V30 10533 H 1030.9 -1.41129 2.80945 0
M  V30 10534 N 1034.67 -1.14067 1.0875 0
M  V30 10535 C 1035.92 -1.84535 0.814235 0
M  V30 10536 C 1036.23 -1.84044 -0.662355 0
M  V30 10537 O 1037.44 -2.50336 -1.05091 0
M  V30 10538 C 1035.89 -3.31273 1.40663 0
M  V30 10539 C 1035.5 -3.40171 2.91526 0
M  V30 10540 C 1037.25 -4.0683 1.21201 0
M  V30 10541 C 1035.15 -4.81141 3.43885 0
M  V30 10542 H 1034.08 -0.691346 0.300926 0
M  V30 10543 H 1036.73 -1.28562 1.30935 0
M  V30 10544 H 1035.12 -3.87005 0.839215 0
M  V30 10545 H 1036.29 -2.94471 3.54434 0
M  V30 10546 H 1034.61 -2.78073 3.09942 0
M  V30 10547 H 1037.2 -5.10891 1.57781 0
M  V30 10548 H 1037.55 -4.16022 0.152092 0
M  V30 10549 H 1038.08 -3.57408 1.74655 0
M  V30 10550 H 1034.82 -4.77138 4.49466 0
M  V30 10551 H 1034.34 -5.27365 2.85738 0
M  V30 10552 H 1036.02 -5.50042 3.40681 0
M  V30 10553 N 1036.15 -0.873678 -1.31166 0
M  V30 10554 C 1037.08 -0.289389 -2.27366 0
M  V30 10555 C 1038.09 0.549667 -1.5324 0
M  V30 10556 O 1039.28 0.371056 -1.74601 0
M  V30 10557 C 1036.38 0.60807 -3.334 0
M  V30 10558 C 1035.56 -0.199379 -4.36945 0
M  V30 10559 C 1034.61 0.626798 -5.22454 0
M  V30 10560 O 1033.64 0.0535121 -5.69175 0
M  V30 10561 N 1034.84 1.93809 -5.47191 0
M  V30 10562 H 1037.61 -1.1161 -2.78143 0
M  V30 10563 H 1035.17 -0.735529 -1.44228 0
M  V30 10564 H 1037.16 1.16656 -3.87522 0
M  V30 10565 H 1035.73 1.33545 -2.82638 0
M  V30 10566 H 1034.95 -0.939316 -3.82845 0
M  V30 10567 H 1036.24 -0.75329 -5.03193 0
M  V30 10568 H 1035.64 2.42693 -5.10995 0
M  V30 10569 H 1034.19 2.44428 -6.04234 0
M  V30 10570 N 1037.63 1.44308 -0.633487 0
M  V30 10571 C 1038.86 2.06085 -0.145852 0
M  V30 10572 C 1039.26 1.47432 1.18577 0
M  V30 10573 O 1038.61 0.592575 1.7388 0
M  V30 10574 C 1038.67 3.59477 0.0407848 0
M  V30 10575 C 1038.33 4.40607 -1.21304 0
M  V30 10576 C 1039.33 4.73937 -2.13728 0
M  V30 10577 C 1037.02 4.80943 -1.44911 0
M  V30 10578 C 1039.01 5.46489 -3.28068 0
M  V30 10579 C 1036.7 5.53243 -2.59548 0
M  V30 10580 C 1037.69 5.85936 -3.50953 0
M  V30 10581 O 1037.38 6.56764 -4.6359 0
M  V30 10582 H 1037.11 0.671484 -0.0780085 0
M  V30 10583 H 1039.67 1.86128 -0.868658 0
M  V30 10584 H 1037.9 3.77933 0.818761 0
M  V30 10585 H 1039.59 4.03013 0.483273 0
M  V30 10586 H 1040.35 4.43311 -1.96725 0
M  V30 10587 H 1036.23 4.54915 -0.746537 0
M  V30 10588 H 1039.78 5.71924 -3.99435 0
M  V30 10589 H 1035.67 5.83285 -2.76493 0
M  V30 10590 H 1036.44 6.75234 -4.62602 0
M  V30 10591 N 1039.1 0.374177 1.53094 0
M  V30 10592 C 1040.04 -0.511995 2.22382 0
M  V30 10593 C 1041.02 -1.07617 1.2189 0
M  V30 10594 O 1042.2 -1.13068 1.50824 0
M  V30 10595 C 1039.33 -1.70724 2.92525 0
M  V30 10596 C 1038.37 -1.26972 4.07161 0
M  V30 10597 S 1039.21 -0.263835 5.3485 0
M  V30 10598 C 1040.36 -1.46521 6.08508 0
M  V30 10599 H 1040.59 0.0764311 2.97202 0
M  V30 10600 H 1038.13 0.158307 1.53586 0
M  V30 10601 H 1040.09 -2.39279 3.3355 0
M  V30 10602 H 1038.75 -2.26693 2.17414 0
M  V30 10603 H 1037.94 -2.16172 4.55286 0
M  V30 10604 H 1037.54 -0.663273 3.68072 0
M  V30 10605 H 1039.83 -2.39483 6.33762 0
M  V30 10606 H 1040.78 -1.02517 7.0064 0
M  V30 10607 H 1041.18 -1.67516 5.39072 0
M  V30 10608 N 1040.58 -1.57259 0.103575 0
M  V30 10609 C 1041.81 -1.98711 -0.565454 0
M  V30 10610 C 1042.22 -0.981759 -1.61735 0
M  V30 10611 O 1041.56 0.0357019 -1.83665 0
M  V30 10612 C 1041.63 -3.36552 -1.26384 0
M  V30 10613 C 1041.29 -4.55566 -0.361714 0
M  V30 10614 C 1042.29 -5.18408 0.393539 0
M  V30 10615 C 1039.97 -5.01534 -0.277292 0
M  V30 10616 C 1041.97 -6.25594 1.2211 0
M  V30 10617 C 1039.65 -6.08584 0.553919 0
M  V30 10618 C 1040.65 -6.7048 1.30176 0
M  V30 10619 O 1040.34 -7.75464 2.1192 0
M  V30 10620 H 1040.07 -0.657853 -0.155582 0
M  V30 10621 H 1042.62 -2.04591 0.182089 0
M  V30 10622 H 1040.85 -3.2738 -2.05813 0
M  V30 10623 H 1042.54 -3.62395 -1.82824 0
M  V30 10624 H 1043.31 -4.8382 0.338098 0
M  V30 10625 H 1039.19 -4.53114 -0.849047 0
M  V30 10626 H 1042.73 -6.73836 1.80531 0
M  V30 10627 H 1038.63 -6.42604 0.610809 0
M  V30 10628 H 1039.4 -7.92491 2.04694 0
M  V30 10629 N 1042.06 0.170153 -1.56679 0
M  V30 10630 C 1043.31 0.887906 -1.8233 0
M  V30 10631 C 1043.64 1.81845 -0.681608 0
M  V30 10632 O 1042.91 1.9191 0.316362 0
M  V30 10633 C 1043.2 1.68256 -3.18374 0
M  V30 10634 C 1043.05 0.775059 -4.43072 0
M  V30 10635 C 1044.37 2.65001 -3.51372 0
M  V30 10636 H 1041.49 0.32135 -0.663252 0
M  V30 10637 H 1044.13 0.154065 -1.89374 0
M  V30 10638 H 1042.28 2.30817 -3.12499 0
M  V30 10639 H 1043.95 0.162234 -4.61015 0
M  V30 10640 H 1042.2 0.0831809 -4.3372 0
M  V30 10641 H 1042.87 1.36661 -5.34816 0
M  V30 10642 H 1045.34 2.12566 -3.57708 0
M  V30 10643 H 1044.22 3.17667 -4.47637 0
M  V30 10644 H 1044.48 3.45255 -2.76136 0
M  V30 10645 N 1043.54 1.5137 0.438746 0
M  V30 10646 C 1044.95 1.56462 1.01866 0
M  V30 10647 C 1045.3 0.387244 1.9234 0
M  V30 10648 O 1044.43 -0.496131 2.10636 0
M  V30 10649 C 1045.02 2.83557 1.85421 0
M  V30 10650 C 1043.58 2.91224 2.38464 0
M  V30 10651 C 1042.73 2.51109 1.17641 0
M  V30 10652 H 1045.68 1.57167 0.220072 0
M  V30 10653 H 1045.7 2.6724 2.70857 0
M  V30 10654 H 1045.21 3.69229 1.19546 0
M  V30 10655 H 1043.31 2.09979 3.07798 0
M  V30 10656 H 1043.42 3.94844 2.71358 0
M  V30 10657 H 1041.79 2.04276 1.5213 0
M  V30 10658 H 1042.57 3.39125 0.533785 0
M  V30 10659 N 1045.02 -0.694098 1.41492 0
M  V30 10660 C 1046.43 -1.27407 1.36471 0
M  V30 10661 C 1046.78 -1.9614 0.0485209 0
M  V30 10662 O 1045.9 -1.98871 -0.853188 0
M  V30 10663 C 1046.5 -2.31698 2.47188 0
M  V30 10664 C 1045.06 -2.85268 2.45559 0
M  V30 10665 C 1044.2 -1.59325 2.2696 0
M  V30 10666 H 1047.16 -0.488756 1.50986 0
M  V30 10667 H 1047.18 -3.1302 2.1633 0
M  V30 10668 H 1046.69 -1.81644 3.42968 0
M  V30 10669 H 1044.79 -3.39494 1.5354 0
M  V30 10670 H 1044.9 -3.35598 3.41922 0
M  V30 10671 H 1043.27 -1.85188 1.74864 0
M  V30 10672 H 1044.05 -1.11265 3.24769 0
M  V30 10673 N 1046.49 -1.27344 -0.928501 0
M  V30 10674 C 1047.74 -1.13411 -1.67279 0
M  V30 10675 C 1048.06 0.320698 -1.92345 0
M  V30 10676 O 1047.33 1.2245 -1.52915 0
M  V30 10677 H 1045.91 -0.416712 -0.619968 0
M  V30 10678 H 1048.58 -1.5986 -1.11493 0
M  V30 10679 H 1047.67 -1.66256 -2.64131 0
M  V30 10680 N 1047.97 1.13488 -1.09353 0
M  V30 10681 C 1049.2 1.89133 -0.85108 0
M  V30 10682 C 1049.62 1.78542 0.591976 0
M  V30 10683 O 1048.98 1.13243 1.41583 0
M  V30 10684 C 1049.03 3.36736 -1.29001 0
M  V30 10685 O 1048.13 4.09959 -0.447993 0
M  V30 10686 H 1047.47 0.58809 -0.308296 0
M  V30 10687 H 1050 1.43593 -1.45747 0
M  V30 10688 H 1050.01 3.87564 -1.27508 0
M  V30 10689 H 1048.69 3.43762 -2.34095 0
M  V30 10690 H 1047.27 3.69155 -0.52717 0
M  V30 10691 N 1049.45 0.880621 1.30701 0
M  V30 10692 C 1050.7 0.495894 1.95922 0
M  V30 10693 C 1051.02 -0.957214 1.69889 0
M  V30 10694 O 1050.29 -1.67245 1.0201 0
M  V30 10695 H 1048.87 0.180394 0.724891 0
M  V30 10696 H 1051.53 1.12274 1.59313 0
M  V30 10697 H 1050.63 0.662508 3.04987 0
M  V30 10698 N 1050.93 -1.4397 0.641131 0
M  V30 10699 C 1052.18 -2.01163 0.147026 0
M  V30 10700 C 1052.49 -1.51099 -1.24211 0
M  V30 10701 O 1053.7 -2.00487 -1.83078 0
M  V30 10702 C 1052.15 -3.59275 0.212068 0
M  V30 10703 C 1051.76 -4.18334 1.60314 0
M  V30 10704 C 1053.51 -4.23903 -0.225057 0
M  V30 10705 C 1051.41 -5.68701 1.62276 0
M  V30 10706 H 1050.34 -0.75226 0.051201 0
M  V30 10707 H 1052.99 -1.65075 0.801396 0
M  V30 10708 H 1051.38 -3.92708 -0.509589 0
M  V30 10709 H 1052.55 -3.96422 2.34918 0
M  V30 10710 H 1050.86 -3.66031 1.9852 0
M  V30 10711 H 1053.46 -5.34205 -0.230074 0
M  V30 10712 H 1053.8 -3.96956 -1.25426 0
M  V30 10713 H 1054.34 -3.95309 0.44444 0
M  V30 10714 H 1051.08 -6.00397 2.63066 0
M  V30 10715 H 1050.6 -5.92705 0.919797 0
M  V30 10716 H 1052.28 -6.32521 1.36112 0
M  V30 10717 N 1052.41 -0.382291 -1.52893 0
M  V30 10718 C 1053.82 0.0932841 -1.86467 0
M  V30 10719 C 1054.17 1.4675 -1.30226 0
M  V30 10720 O 1053.29 2.07001 -0.63084 0
M  V30 10721 C 1053.89 0.176048 -3.38342 0
M  V30 10722 C 1052.45 0.595904 -3.71653 0
M  V30 10723 C 1051.6 -0.246511 -2.76202 0
M  V30 10724 H 1054.55 -0.600443 -1.46903 0
M  V30 10725 H 1054.57 0.996512 -3.67219 0
M  V30 10726 H 1054.08 -0.824264 -3.79246 0
M  V30 10727 H 1052.18 1.60384 -3.36315 0
M  V30 10728 H 1052.29 0.358919 -4.77754 0
M  V30 10729 H 1050.66 0.287162 -2.53076 0
M  V30 10730 H 1051.44 -1.24467 -3.19942 0
M  V30 10731 N 1053.89 1.57202 -0.111913 0
M  V30 10732 C 1055.11 1.99297 0.555713 0
M  V30 10733 C 1055.53 0.991444 1.60673 0
M  V30 10734 O 1054.89 -0.0166672 1.82492 0
M  V30 10735 C 1054.94 3.41413 1.18826 0
M  V30 10736 O 1054.66 4.37733 0.179261 0
M  V30 10737 C 1056.16 3.98602 1.93989 0
M  V30 10738 H 1053.38 0.654543 0.147695 0
M  V30 10739 H 1055.92 2.03557 -0.196163 0
M  V30 10740 H 1054.08 3.38115 1.89096 0
M  V30 10741 H 1054.49 5.20606 0.637935 0
M  V30 10742 H 1055.97 5.00143 2.33584 0
M  V30 10743 H 1056.44 3.37349 2.81233 0
M  V30 10744 H 1057.05 4.05424 1.28497 0
M  V30 10745 N 1055.36 -0.161842 1.56767 0
M  V30 10746 C 1056.64 -0.904754 1.73417 0
M  V30 10747 C 1057.02 -1.99987 0.675908 0
M  V30 10748 O 1056.37 -2.26419 -0.307712 0
M  V30 10749 C 1056.58 -1.46082 3.16956 0
M  V30 10750 C 1057.93 -1.93004 3.78199 0
M  V30 10751 O 1058.95 -1.55856 3.20293 0
M  V30 10752 O 1057.81 -2.61465 4.79894 0
M  V30 10753 H 1054.9 -0.426518 0.708528 0
M  V30 10754 H 1057.45 -0.148928 1.69045 0
M  V30 10755 H 1056.22 -0.673087 3.85468 0
M  V30 10756 H 1055.84 -2.28056 3.25693 0
M  V30 10757 N 1056.84 -1.516 -0.430713 0
M  V30 10758 C 1057.79 -1.69776 -1.52185 0
M  V30 10759 C 1058.78 -0.551692 -1.51146 0
M  V30 10760 O 1059.97 -0.807883 -1.57487 0
M  V30 10761 C 1057.1 -1.83222 -2.90318 0
M  V30 10762 C 1056.18 -3.03633 -2.96087 0
M  V30 10763 N 1056.57 -4.267 -2.71589 0
M  V30 10764 C 1054.87 -3.03024 -3.2725 0
M  V30 10765 C 1055.57 -5.08011 -2.83372 0
M  V30 10766 N 1054.55 -4.42798 -3.15327 0
M  V30 10767 H 1058.35 -2.62586 -1.32006 0
M  V30 10768 H 1055.86 -1.49338 -0.63812 0
M  V30 10769 H 1057.86 -1.94355 -3.68825 0
M  V30 10770 H 1056.52 -0.915971 -3.11513 0
M  V30 10771 H 1057.53 -4.55535 -2.46391 0
M  V30 10772 H 1054.21 -2.21055 -3.54176 0
M  V30 10773 H 1055.6 -6.15995 -2.68329 0
M  V30 10774 N 1058.32 0.686584 -1.41858 0
M  V30 10775 C 1059.6 1.44176 -1.32185 0
M  V30 10776 C 1059.98 2.11049 0.046362 0
M  V30 10777 O 1059.32 2.02365 1.06117 0
M  V30 10778 C 1059.53 2.45385 -2.48168 0
M  V30 10779 C 1060.88 3.10375 -2.89746 0
M  V30 10780 O 1061.91 2.55711 -2.47973 0
M  V30 10781 O 1060.77 4.09404 -3.62009 0
M  V30 10782 H 1057.86 0.642513 -0.520678 0
M  V30 10783 H 1060.41 0.716303 -1.53841 0
M  V30 10784 H 1059.18 1.94687 -3.3943 0
M  V30 10785 H 1058.8 3.25428 -2.28435 0
M  V30 10786 N 1059.8 1.27835 0.921735 0
M  V30 10787 C 1061.02 1.17465 1.70929 0
M  V30 10788 C 1061.45 -0.264171 1.86236 0
M  V30 10789 O 1060.81 -1.19124 1.36671 0
M  V30 10790 C 1060.85 1.8697 3.08342 0
M  V30 10791 O 1059.96 1.17173 3.95404 0
M  V30 10792 H 1059.3 0.408206 0.523702 0
M  V30 10793 H 1061.83 1.69013 1.15307 0
M  V30 10794 H 1061.84 1.94564 3.58621 0
M  V30 10795 H 1060.51 2.91633 2.96518 0
M  V30 10796 H 1059.09 1.17688 3.53842 0
M  V30 10797 N 1061.28 -1.12907 1.09954 0
M  V30 10798 C 1062.51 -1.87866 0.859656 0
M  V30 10799 C 1062.91 -1.79664 -0.593096 0
M  V30 10800 O 1062.26 -1.16499 -1.42034 0
M  V30 10801 C 1062.32 -3.38055 1.22308 0
M  V30 10802 C 1061.98 -3.70035 2.68185 0
M  V30 10803 C 1062.98 -3.68817 3.66428 0
M  V30 10804 C 1060.66 -3.99523 3.04444 0
M  V30 10805 C 1062.66 -3.96639 4.98955 0
M  V30 10806 C 1060.35 -4.27006 4.37161 0
M  V30 10807 C 1061.34 -4.25549 5.34225 0
M  V30 10808 O 1061.03 -4.52354 6.64553 0
M  V30 10809 H 1060.76 -0.601425 0.308649 0
M  V30 10810 H 1063.32 -1.43817 1.46649 0
M  V30 10811 H 1061.55 -3.82634 0.559322 0
M  V30 10812 H 1063.24 -3.94348 0.961479 0
M  V30 10813 H 1064 -3.46104 3.3976 0
M  V30 10814 H 1059.88 -3.99801 2.29521 0
M  V30 10815 H 1063.43 -3.95418 5.74709 0
M  V30 10816 H 1059.32 -4.49192 4.6357 0
M  V30 10817 H 1060.09 -4.69997 6.70108 0
M  V30 10818 N 1062.75 -0.88754 -1.30232 0
M  V30 10819 C 1063.68 -0.372481 -2.3051 0
M  V30 10820 C 1064.66 0.546037 -1.61098 0
M  V30 10821 O 1065.85 0.459345 -1.88689 0
M  V30 10822 C 1062.98 0.411605 -3.44852 0
M  V30 10823 C 1061.93 -0.415383 -4.2598 0
M  V30 10824 C 1061.26 0.495463 -5.324 0
M  V30 10825 C 1062.56 -1.65886 -4.95257 0
M  V30 10826 H 1064.25 -1.21045 -2.7384 0
M  V30 10827 H 1061.8 -0.583498 -1.31648 0
M  V30 10828 H 1063.75 0.782584 -4.1407 0
M  V30 10829 H 1062.48 1.28325 -3.00334 0
M  V30 10830 H 1061.14 -0.768534 -3.58454 0
M  V30 10831 H 1060.78 1.36489 -4.84128 0
M  V30 10832 H 1060.48 -0.0540885 -5.87575 0
M  V30 10833 H 1062.01 0.862901 -6.04472 0
M  V30 10834 H 1063.42 -1.35832 -5.56976 0
M  V30 10835 H 1061.82 -2.14881 -5.60309 0
M  V30 10836 H 1062.89 -2.40181 -4.21237 0
M  V30 10837 N 1064.23 1.43628 -0.648757 0
M  V30 10838 C 1065.48 2.02695 -0.169158 0
M  V30 10839 C 1065.83 1.50239 1.20191 0
M  V30 10840 O 1065.13 0.684018 1.78974 0
M  V30 10841 C 1065.32 3.57214 -0.115282 0
M  V30 10842 C 1065.15 4.24663 -1.47959 0
M  V30 10843 C 1063.92 4.60917 -2.07084 0
M  V30 10844 C 1066.12 4.53962 -2.41708 0
M  V30 10845 N 1064.1 5.13416 -3.36566 0
M  V30 10846 C 1065.47 5.07733 -3.55819 0
M  V30 10847 C 1067.53 4.35927 -2.40566 0
M  V30 10848 C 1066.23 5.45367 -4.69007 0
M  V30 10849 C 1068.25 4.7462 -3.52831 0
M  V30 10850 C 1067.62 5.2852 -4.65667 0
M  V30 10851 H 1063.72 0.774751 -0.106227 0
M  V30 10852 H 1066.3 1.74869 -0.85609 0
M  V30 10853 H 1064.47 3.84614 0.54098 0
M  V30 10854 H 1066.2 4.02961 0.374775 0
M  V30 10855 H 1062.96 4.45812 -1.59841 0
M  V30 10856 H 1063.38 5.44124 -4.02813 0
M  V30 10857 H 1068.02 3.93533 -1.54569 0
M  V30 10858 H 1065.74 5.86707 -5.55698 0
M  V30 10859 H 1069.33 4.62364 -3.53144 0
M  V30 10860 H 1068.21 5.57906 -5.511 0
M  V30 10861 N 1065.71 0.390394 1.52688 0
M  V30 10862 C 1066.64 -0.479319 2.24132 0
M  V30 10863 C 1067.66 -1.0258 1.26416 0
M  V30 10864 O 1068.84 -0.927943 1.52484 0
M  V30 10865 C 1065.94 -1.67711 2.94493 0
M  V30 10866 C 1065.12 -1.2578 4.18925 0
M  V30 10867 C 1064.18 -2.3204 4.72275 0
M  V30 10868 O 1063.2 -1.93402 5.35336 0
M  V30 10869 N 1064.4 -3.63967 4.52226 0
M  V30 10870 H 1067.17 0.132777 2.99406 0
M  V30 10871 H 1064.73 0.216807 1.60442 0
M  V30 10872 H 1066.72 -2.38323 3.27084 0
M  V30 10873 H 1065.29 -2.19552 2.22521 0
M  V30 10874 H 1064.51 -0.380528 3.92359 0
M  V30 10875 H 1065.8 -0.954329 4.9977 0
M  V30 10876 H 1065.2 -3.98119 4.01892 0
M  V30 10877 H 1063.76 -4.30611 4.89303 0
M  V30 10878 N 1067.19 -1.57141 0.120249 0
M  V30 10879 C 1068.41 -2.00017 -0.548454 0
M  V30 10880 C 1068.84 -0.999433 -1.59352 0
M  V30 10881 O 1068.2 0.0286978 -1.81277 0
M  V30 10882 C 1068.24 -3.41766 -1.15015 0
M  V30 10883 O 1067.35 -3.44589 -2.26566 0
M  V30 10884 H 1066.69 -0.649739 -0.136875 0
M  V30 10885 H 1069.22 -2.03529 0.209092 0
M  V30 10886 H 1069.23 -3.80001 -1.48537 0
M  V30 10887 H 1067.9 -4.14117 -0.384681 0
M  V30 10888 H 1066.48 -3.18174 -1.94473 0
M  V30 10889 N 1068.67 0.153526 -1.5685 0
M  V30 10890 C 1069.91 0.865519 -1.82629 0
M  V30 10891 C 1070.24 1.81999 -0.700105 0
M  V30 10892 O 1069.51 1.93907 0.278744 0
M  V30 10893 H 1068.09 0.32261 -0.673745 0
M  V30 10894 H 1070.75 0.149088 -1.94329 0
M  V30 10895 H 1069.84 1.43171 -2.77324 0
M  V30 10896 N 1070.14 1.51827 0.422667 0
M  V30 10897 C 1071.37 1.69049 1.1929 0
M  V30 10898 C 1071.79 0.394095 1.84641 0
M  V30 10899 O 1071.14 -0.628731 1.71328 0
M  V30 10900 C 1071.2 2.81657 2.26609 0
M  V30 10901 O 1070.92 4.06275 1.63929 0
M  V30 10902 C 1072.42 3.10274 3.16615 0
M  V30 10903 H 1069.64 0.566894 0.358988 0
M  V30 10904 H 1072.18 1.98318 0.499029 0
M  V30 10905 H 1070.34 2.54945 2.91688 0
M  V30 10906 H 1070.75 4.68924 2.3497 0
M  V30 10907 H 1072.22 3.92613 3.88019 0
M  V30 10908 H 1072.7 2.23273 3.78214 0
M  V30 10909 H 1073.31 3.387 2.57221 0
M  V30 10910 N 1071.62 -0.679052 1.4222 0
M  V30 10911 C 1072.57 -1.81398 1.45594 0
M  V30 10912 C 1073.56 -1.66112 0.332127 0
M  V30 10913 O 1074.77 -1.72772 0.504942 0
M  V30 10914 H 1071.15 -0.598045 0.455902 0
M  V30 10915 H 1073.12 -1.7567 2.41211 0
M  V30 10916 C 1071.87 -3.19525 1.37109 0
M  V30 10917 H 1071.19 -3.31912 2.22878 0
M  V30 10918 H 1072.63 -3.98967 1.43531 0
M  V30 10919 C 1071.09 -3.36792 0.0853593 0
M  V30 10920 O 1071.62 -3.92309 -0.863532 0
M  V30 10921 N 1069.82 -2.906 0.00389229 0
M  V30 10922 H 1069.37 -2.45607 0.776846 0
M  V30 10923 H 1069.33 -3.0253 -0.855742 0
M  V30 10924 N 1073.1 -1.28322 -0.914942 0
M  V30 10925 C 1074.51 -1.13937 -1.47903 0
M  V30 10926 C 1074.86 0.271072 -1.94318 0
M  V30 10927 O 1073.99 1.16522 -1.8235 0
M  V30 10928 C 1074.58 -2.06221 -2.68809 0
M  V30 10929 C 1073.14 -1.95903 -3.21402 0
M  V30 10930 C 1072.29 -1.98031 -1.94111 0
M  V30 10931 H 1075.24 -1.41029 -0.727772 0
M  V30 10932 H 1075.26 -1.6255 -3.44031 0
M  V30 10933 H 1074.77 -3.08866 -2.34997 0
M  V30 10934 H 1072.87 -0.962907 -3.59943 0
M  V30 10935 H 1072.99 -2.82799 -3.86732 0
M  V30 10936 H 1071.35 -1.42423 -2.11158 0
M  V30 10937 H 1072.13 -3.02354 -1.62595 0
M  V30 10938 N 1074.58 1.12322 -1.10551 0
M  V30 10939 C 1075.8 1.8822 -0.871093 0
M  V30 10940 C 1076.23 1.7916 0.573005 0
M  V30 10941 O 1075.59 1.14738 1.40374 0
M  V30 10942 C 1075.63 3.35349 -1.32565 0
M  V30 10943 O 1074.74 4.09461 -0.49145 0
M  V30 10944 H 1074.08 0.584787 -0.314516 0
M  V30 10945 H 1076.61 1.42039 -1.47262 0
M  V30 10946 H 1076.62 3.86189 -1.31612 0
M  V30 10947 H 1075.29 3.4126 -2.37728 0
M  V30 10948 H 1073.87 3.68575 -0.566294 0
M  V30 10949 N 1076.06 0.894434 1.2976 0
M  V30 10950 C 1077.31 0.513673 1.95049 0
M  V30 10951 C 1077.62 -0.943744 1.71327 0
M  V30 10952 O 1078.82 -1.43179 2.30678 0
M  V30 10953 C 1077.28 0.867751 3.49282 0
M  V30 10954 C 1076.89 2.34358 3.81812 0
M  V30 10955 C 1078.63 0.556645 4.20835 0
M  V30 10956 C 1076.54 2.63879 5.29265 0
M  V30 10957 H 1075.47 0.188375 0.73009 0
M  V30 10958 H 1078.12 1.09071 1.47566 0
M  V30 10959 H 1076.5 0.2197 3.9539 0
M  V30 10960 H 1077.68 3.03674 3.46581 0
M  V30 10961 H 1075.99 2.62318 3.23386 0
M  V30 10962 H 1078.59 0.754123 5.29355 0
M  V30 10963 H 1078.93 -0.504526 4.13231 0
M  V30 10964 H 1079.46 1.1623 3.80441 0
M  V30 10965 H 1076.2 3.68774 5.41928 0
M  V30 10966 H 1075.72 1.99182 5.65762 0
M  V30 10967 H 1077.4 2.49871 5.96803 0
M  V30 10968 N 1077.53 -1.43282 0.656365 0
M  V30 10969 C 1078.76 -2.05826 0.178619 0
M  V30 10970 C 1079.17 -1.493 -1.16216 0
M  V30 10971 O 1078.52 -0.620163 -1.72915 0
M  V30 10972 C 1078.58 -3.59496 0.0164101 0
M  V30 10973 C 1078.24 -4.38621 1.28298 0
M  V30 10974 C 1079.24 -4.70477 2.21241 0
M  V30 10975 C 1076.92 -4.78577 1.52544 0
M  V30 10976 C 1078.92 -5.412 3.36721 0
M  V30 10977 C 1076.6 -5.49044 2.68316 0
M  V30 10978 C 1077.6 -5.80279 3.6023 0
M  V30 10979 O 1077.29 -6.49306 4.7398 0
M  V30 10980 H 1077.02 -0.670158 0.0886814 0
M  V30 10981 H 1079.58 -1.84722 0.89816 0
M  V30 10982 H 1077.81 -3.79188 -0.758532 0
M  V30 10983 H 1079.5 -4.03731 -0.419096 0
M  V30 10984 H 1080.26 -4.40125 2.03753 0
M  V30 10985 H 1076.14 -4.5367 0.818816 0
M  V30 10986 H 1079.68 -5.65497 4.08483 0
M  V30 10987 H 1075.58 -5.78813 2.85738 0
M  V30 10988 H 1076.35 -6.67789 4.73286 0
M  V30 10989 N 1079.01 -0.398486 -1.52479 0
M  V30 10990 C 1080.26 0.181019 -2.0199 0
M  V30 10991 C 1080.59 1.45691 -1.28405 0
M  V30 10992 O 1079.87 1.90607 -0.387207 0
M  V30 10993 C 1080.15 0.439587 -3.57407 0
M  V30 10994 C 1080 -0.85223 -4.41653 0
M  V30 10995 C 1081.32 1.2263 -4.2267 0
M  V30 10996 H 1078.44 0.0643164 -0.734188 0
M  V30 10997 H 1081.08 -0.52986 -1.82462 0
M  V30 10998 H 1079.23 1.04516 -3.74177 0
M  V30 10999 H 1080.91 -1.48879 -4.36615 0
M  V30 11000 H 1079.15 -1.46555 -4.08294 0
M  V30 11001 H 1079.82 -0.625839 -5.48441 0
M  V30 11002 H 1082.3 0.713722 -4.09933 0
M  V30 11003 H 1081.17 1.37596 -5.31374 0
M  V30 11004 H 1081.43 2.24403 -3.80914 0
M  V30 11005 N 1080.49 1.57075 -0.12858 0
M  V30 11006 C 1081.44 2.15816 0.818064 0
M  V30 11007 C 1082.41 1.08581 1.25696 0
M  V30 11008 O 1083.59 1.36535 1.33277 0
M  V30 11009 C 1080.73 2.76943 2.05905 0
M  V30 11010 C 1079.85 3.98514 1.66764 0
M  V30 11011 C 1078.98 4.47698 2.85902 0
M  V30 11012 C 1078.02 5.61778 2.43047 0
M  V30 11013 N 1077.16 6.05662 3.5513 0
M  V30 11014 H 1082 2.9638 0.310318 0
M  V30 11015 H 1079.53 1.46418 0.141472 0
M  V30 11016 H 1081.49 3.10519 2.78629 0
M  V30 11017 H 1080.12 1.99053 2.54122 0
M  V30 11018 H 1079.17 3.71038 0.838766 0
M  V30 11019 H 1080.49 4.81215 1.31277 0
M  V30 11020 H 1079.64 4.83233 3.66839 0
M  V30 11021 H 1078.38 3.63967 3.24622 0
M  V30 11022 H 1077.38 5.25838 1.60544 0
M  V30 11023 H 1078.61 6.47282 2.05433 0
M  V30 11024 H 1076.56 5.2487 3.93506 0
M  V30 11025 H 1076.47 6.83242 3.23598 0
M  V30 11026 H 1077.74 6.45838 4.36479 0
M  V30 11027 N 1081.97 -0.145205 1.5693 0
M  V30 11028 C 1083.19 -0.876386 1.87974 0
M  V30 11029 C 1083.62 -1.73866 0.717795 0
M  V30 11030 O 1082.98 -1.78224 -0.332551 0
M  V30 11031 C 1083.03 -1.70746 3.17613 0
M  V30 11032 O 1082.13 -2.81188 3.01674 0
M  V30 11033 H 1081.47 -0.243987 0.617549 0
M  V30 11034 H 1084 -0.135482 2.04151 0
M  V30 11035 H 1084.01 -2.1021 3.49679 0
M  V30 11036 H 1082.69 -1.07429 4.01786 0
M  V30 11037 H 1081.26 -2.45117 2.81019 0
M  V30 11038 N 1083.45 -1.52049 -0.414609 0
M  V30 11039 C 1084.68 -1.69679 -1.18392 0
M  V30 11040 C 1085.09 -0.403881 -1.84429 0
M  V30 11041 O 1084.45 0.619636 -1.71659 0
M  V30 11042 C 1084.5 -2.82855 -2.25112 0
M  V30 11043 O 1084.22 -4.07138 -1.61772 0
M  V30 11044 C 1085.72 -3.11948 -3.14965 0
M  V30 11045 H 1082.94 -0.56879 -0.355977 0
M  V30 11046 H 1085.48 -1.9858 -0.488505 0
M  V30 11047 H 1083.64 -2.56488 -2.90332 0
M  V30 11048 H 1084.05 -4.70163 -2.32479 0
M  V30 11049 H 1085.53 -3.94665 -3.85932 0
M  V30 11050 H 1086 -2.25276 -3.77024 0
M  V30 11051 H 1086.61 -3.40059 -2.55421 0
M  V30 11052 N 1084.93 0.6715 -1.42579 0
M  V30 11053 C 1086.2 1.42766 -1.33706 0
M  V30 11054 C 1086.58 2.11086 0.0239748 0
M  V30 11055 O 1085.93 2.03479 1.03964 0
M  V30 11056 C 1086.14 2.42739 -2.50756 0
M  V30 11057 C 1087.49 3.07284 -2.93021 0
M  V30 11058 O 1088.51 2.53066 -2.50671 0
M  V30 11059 O 1087.37 4.05541 -3.66331 0
M  V30 11060 H 1084.47 0.636955 -0.527463 0
M  V30 11061 H 1087.01 0.699946 -1.54593 0
M  V30 11062 H 1085.78 1.91076 -3.41476 0
M  V30 11063 H 1085.41 3.22986 -2.31874 0
M  V30 11064 N 1086.4 1.28806 0.908124 0
M  V30 11065 C 1087.81 1.14719 1.47297 0
M  V30 11066 C 1088.17 -0.260763 1.94459 0
M  V30 11067 O 1087.29 -1.15553 1.82966 0
M  V30 11068 C 1087.89 2.07643 2.67712 0
M  V30 11069 C 1086.44 1.97605 3.20358 0
M  V30 11070 C 1085.59 1.99058 1.93058 0
M  V30 11071 H 1088.54 1.41413 0.720283 0
M  V30 11072 H 1088.56 1.64372 3.43165 0
M  V30 11073 H 1088.08 3.10108 2.33355 0
M  V30 11074 H 1086.18 0.981982 3.59427 0
M  V30 11075 H 1086.29 2.84846 3.85226 0
M  V30 11076 H 1084.65 1.43541 2.104 0
M  V30 11077 H 1085.44 3.03212 1.60989 0
M  V30 11078 N 1087.88 -1.11734 1.11145 0
M  V30 11079 C 1089.29 -1.64928 0.874959 0
M  V30 11080 C 1089.64 -1.87012 -0.593375 0
M  V30 11081 O 1088.77 -1.60206 -1.45475 0
M  V30 11082 C 1089.36 -2.99608 1.58178 0
M  V30 11083 C 1087.92 -3.49723 1.39179 0
M  V30 11084 C 1087.07 -2.24595 1.62642 0
M  V30 11085 H 1090.02 -0.954154 1.26813 0
M  V30 11086 H 1090.04 -3.66434 1.02501 0
M  V30 11087 H 1089.55 -2.83504 2.65042 0
M  V30 11088 H 1087.65 -3.70998 0.345111 0
M  V30 11089 H 1087.77 -4.28711 2.13878 0
M  V30 11090 H 1086.13 -2.32067 1.04961 0
M  V30 11091 H 1086.91 -2.11036 2.70774 0
M  V30 11092 N 1089.36 -0.901303 -1.29284 0
M  V30 11093 C 1090.32 -0.385081 -2.25942 0
M  V30 11094 C 1091.32 0.481626 -1.53418 0
M  V30 11095 O 1092.51 0.286451 -1.71829 0
M  V30 11096 C 1089.64 0.449319 -3.37926 0
M  V30 11097 H 1090.84 -1.23877 -2.7312 0
M  V30 11098 H 1088.39 -0.679586 -1.40753 0
M  V30 11099 H 1089.13 1.32292 -2.9609 0
M  V30 11100 H 1088.91 -0.171731 -3.91724 0
M  V30 11101 H 1090.4 0.801746 -4.09831 0
M  V30 11102 N 1090.84 1.42931 -0.663954 0
M  V30 11103 C 1091.77 2.29122 0.0598878 0
M  V30 11104 C 1092.78 1.43094 0.776404 0
M  V30 11105 O 1093.97 1.66923 0.63237 0
M  V30 11106 C 1091.07 3.20268 1.10822 0
M  V30 11107 C 1090.24 4.34892 0.4677 0
M  V30 11108 C 1089.3 5.06836 1.41435 0
M  V30 11109 O 1088.33 5.61735 0.918818 0
M  V30 11110 N 1089.53 5.11336 2.74801 0
M  V30 11111 H 1092.3 2.91885 -0.679945 0
M  V30 11112 H 1089.86 1.53739 -0.507543 0
M  V30 11113 H 1091.85 3.65264 1.74255 0
M  V30 11114 H 1090.42 2.59031 1.7499 0
M  V30 11115 H 1089.64 3.92679 -0.34593 0
M  V30 11116 H 1090.93 5.08796 0.0210237 0
M  V30 11117 H 1090.33 4.68124 3.1761 0
M  V30 11118 H 1088.88 5.60013 3.33509 0
M  V30 11119 N 1092.32 0.406567 1.52266 0
M  V30 11120 C 1093.56 -0.170053 2.01785 0
M  V30 11121 C 1093.89 -1.45361 1.2923 0
M  V30 11122 O 1093.15 -1.91849 0.386342 0
M  V30 11123 C 1093.44 -0.467124 3.54334 0
M  V30 11124 C 1093.11 0.72693 4.45002 0
M  V30 11125 C 1091.77 1.05446 4.69505 0
M  V30 11126 C 1094.12 1.52493 4.98393 0
M  V30 11127 C 1091.45 2.18123 5.44646 0
M  V30 11128 C 1093.8 2.64244 5.74768 0
M  V30 11129 C 1092.47 2.97486 5.97544 0
M  V30 11130 H 1091.74 -0.0622267 0.738383 0
M  V30 11131 H 1094.39 0.54746 1.83508 0
M  V30 11132 H 1092.69 -1.26617 3.70777 0
M  V30 11133 H 1094.39 -0.926194 3.90157 0
M  V30 11134 H 1090.98 0.461666 4.26106 0
M  V30 11135 H 1095.16 1.28512 4.79373 0
M  V30 11136 H 1090.42 2.44228 5.60502 0
M  V30 11137 H 1094.59 3.26468 6.15136 0
M  V30 11138 H 1092.22 3.84913 6.5555 0
M  V30 11139 N 1093.79 -1.57004 0.136909 0
M  V30 11140 C 1095.02 -2.00587 -0.527209 0
M  V30 11141 C 1095.44 -1.01628 -1.58283 0
M  V30 11142 O 1094.8 0.00946934 -1.81298 0
M  V30 11143 C 1094.85 -3.42967 -1.11384 0
M  V30 11144 O 1093.95 -3.46973 -2.22898 0
M  V30 11145 H 1093.3 -0.651155 -0.129976 0
M  V30 11146 H 1095.83 -2.03296 0.230667 0
M  V30 11147 H 1095.84 -3.81555 -1.44499 0
M  V30 11148 H 1094.51 -4.14502 -0.340736 0
M  V30 11149 H 1093.09 -3.20219 -1.91087 0
M  V30 11150 N 1095.27 0.136881 -1.57004 0
M  V30 11151 C 1096.52 0.846257 -1.83088 0
M  V30 11152 C 1096.83 1.81876 -0.719765 0
M  V30 11153 O 1098.04 2.57302 -0.866494 0
M  V30 11154 C 1096.5 1.55559 -3.24545 0
M  V30 11155 C 1096.1 0.624989 -4.43619 0
M  V30 11156 C 1097.85 2.25115 -3.59893 0
M  V30 11157 C 1095.76 1.33653 -5.761 0
M  V30 11158 H 1094.69 0.319768 -0.682836 0
M  V30 11159 H 1097.34 0.0989741 -1.83233 0
M  V30 11160 H 1095.72 2.34887 -3.18817 0
M  V30 11161 H 1096.89 -0.133783 -4.60606 0
M  V30 11162 H 1095.21 0.0373216 -4.16383 0
M  V30 11163 H 1097.8 2.79008 -4.56134 0
M  V30 11164 H 1098.15 3.02084 -2.86446 0
M  V30 11165 H 1098.68 1.52696 -3.67327 0
M  V30 11166 H 1095.42 0.608495 -6.5267 0
M  V30 11167 H 1094.94 2.06776 -5.63031 0
M  V30 11168 H 1096.62 1.87467 -6.19246 0
M  V30 11169 N 1096.75 1.52266 0.40654 0
M  V30 11170 C 1098.16 1.58587 0.985241 0
M  V30 11171 C 1098.51 0.427955 1.91476 0
M  V30 11172 O 1097.64 -0.451341 2.11641 0
M  V30 11173 C 1098.23 2.87426 1.79365 0
M  V30 11174 C 1096.79 2.96217 2.32233 0
M  V30 11175 C 1095.94 2.53548 1.12288 0
M  V30 11176 H 1098.89 1.57598 0.186685 0
M  V30 11177 H 1098.91 2.72925 2.65127 0
M  V30 11178 H 1098.42 3.71682 1.11687 0
M  V30 11179 H 1096.52 2.1646 3.03275 0
M  V30 11180 H 1096.64 4.00511 2.62922 0
M  V30 11181 H 1095 2.07457 1.47763 0
M  V30 11182 H 1095.78 3.40181 0.461731 0
M  V30 11183 N 1098.23 -0.663929 1.42933 0
M  V30 11184 C 1099.48 -1.42393 1.43981 0
M  V30 11185 C 1099.8 -1.94407 0.0601802 0
M  V30 11186 O 1099.06 -1.72019 -0.933172 0
M  V30 11187 C 1099.36 -2.62976 2.4203 0
M  V30 11188 C 1099.02 -2.29441 3.88159 0
M  V30 11189 C 1097.69 -2.20007 4.27961 0
M  V30 11190 C 1100.04 -2.02413 4.8029 0
M  V30 11191 C 1097.37 -1.81686 5.57859 0
M  V30 11192 C 1099.72 -1.65592 6.10542 0
M  V30 11193 C 1098.38 -1.54676 6.49332 0
M  V30 11194 H 1097.65 -0.521051 0.526865 0
M  V30 11195 H 1100.3 -0.756042 1.75944 0
M  V30 11196 H 1098.6 -3.34847 2.03433 0
M  V30 11197 H 1100.3 -3.21174 2.40101 0
M  V30 11198 H 1096.89 -2.3769 3.56653 0
M  V30 11199 H 1101.07 -2.08628 4.5032 0
M  V30 11200 H 1096.33 -1.71812 5.86763 0
M  V30 11201 H 1100.5 -1.43707 6.81411 0
M  V30 11202 H 1098.13 -1.24752 7.49894 0
M  V30 11203 N 1099.71 -1.29285 -0.901281 0
M  V30 11204 C 1100.64 -1.08603 -2.007 0
M  V30 11205 C 1101.62 0.00162233 -1.626 0
M  V30 11206 O 1102.8 -0.148764 -1.87912 0
M  V30 11207 C 1099.93 -0.652972 -3.32346 0
M  V30 11208 C 1098.97 -1.73911 -3.89432 0
M  V30 11209 S 1099.81 -3.33797 -4.18736 0
M  V30 11210 C 1100.96 -2.92355 -5.53425 0
M  V30 11211 H 1101.2 -2.02216 -2.17936 0
M  V30 11212 H 1098.73 -1.13414 -1.04769 0
M  V30 11213 H 1100.69 -0.409825 -4.08449 0
M  V30 11214 H 1099.35 0.263527 -3.12993 0
M  V30 11215 H 1098.54 -1.388 -4.84511 0
M  V30 11216 H 1098.14 -1.93569 -3.20011 0
M  V30 11217 H 1100.44 -2.39301 -6.33831 0
M  V30 11218 H 1101.38 -3.86278 -5.9346 0
M  V30 11219 H 1101.79 -2.30697 -5.15208 0
M  V30 11220 N 1101.18 1.11143 -1.11736 0
M  V30 11221 C 1102.41 1.87285 -0.891007 0
M  V30 11222 C 1102.83 1.79758 0.553971 0
M  V30 11223 O 1102.19 1.16221 1.39149 0
M  V30 11224 C 1102.24 3.33924 -1.36114 0
M  V30 11225 O 1101.34 4.08917 -0.534851 0
M  V30 11226 H 1100.69 0.581418 -0.320701 0
M  V30 11227 H 1103.22 1.40469 -1.4876 0
M  V30 11228 H 1103.23 3.84772 -1.35701 0
M  V30 11229 H 1101.9 3.38719 -2.41334 0
M  V30 11230 H 1100.48 3.67954 -0.605355 0
M  V30 11231 N 1102.66 0.908147 1.28804 0
M  V30 11232 C 1103.89 0.55409 1.99343 0
M  V30 11233 C 1104.31 -0.863262 1.67908 0
M  V30 11234 O 1103.66 -1.571 0.92875 0
M  V30 11235 C 1103.71 0.746916 3.537 0
M  V30 11236 O 1103.43 2.10849 3.84024 0
M  V30 11237 C 1104.94 0.398939 4.41501 0
M  V30 11238 H 1102.16 0.211784 0.636701 0
M  V30 11239 H 1104.7 1.21981 1.64137 0
M  V30 11240 H 1102.85 0.128264 3.87188 0
M  V30 11241 H 1103.27 2.14404 4.78676 0
M  V30 11242 H 1104.74 0.584656 5.48895 0
M  V30 11243 H 1105.22 -0.664517 4.34144 0
M  V30 11244 H 1105.83 0.994892 4.135 0
M  V30 11245 N 1104.14 -1.42577 0.671525 0
M  V30 11246 C 1105.38 -2.03455 0.196271 0
M  V30 11247 C 1105.74 -1.51934 -1.17389 0
M  V30 11248 O 1106.95 -2.04577 -1.74361 0
M  V30 11249 C 1105.22 -3.56687 0.225624 0
M  V30 11250 S 1106.78 -4.38434 -0.179107 0
M  V30 11251 H 1103.59 -0.706371 0.0809995 0
M  V30 11252 H 1106.2 -1.74375 0.883948 0
M  V30 11253 H 1104.9 -3.91684 1.22524 0
M  V30 11254 H 1104.43 -3.90436 -0.481994 0
M  V30 11255 H 1106.45 -4.75646 -1.41332 0
M  V30 11256 N 1105.62 -0.414636 -1.52048 0
M  V30 11257 C 1106.58 0.396285 -2.25748 0
M  V30 11258 C 1107.58 0.969003 -1.28324 0
M  V30 11259 O 1108.77 0.847016 -1.52221 0
M  V30 11260 C 1105.9 1.55838 -3.03195 0
M  V30 11261 H 1107.1 -0.249311 -2.98862 0
M  V30 11262 H 1104.65 -0.167276 -1.55402 0
M  V30 11263 H 1105.38 2.24068 -2.34444 0
M  V30 11264 H 1105.17 1.15414 -3.74729 0
M  V30 11265 H 1106.66 2.13187 -3.59084 0
M  V30 11266 N 1107.1 1.56929 -0.145233 0
M  V30 11267 C 1108.06 2.15483 0.781002 0
M  V30 11268 C 1109.06 1.09617 1.17647 0
M  V30 11269 O 1110.25 1.35265 1.09768 0
M  V30 11270 C 1107.38 2.7165 2.05959 0
M  V30 11271 H 1108.57 2.98667 0.271685 0
M  V30 11272 H 1106.13 1.55952 0.1042 0
M  V30 11273 H 1106.86 1.92127 2.61262 0
M  V30 11274 H 1106.65 3.491 1.78526 0
M  V30 11275 H 1108.14 3.16769 2.72116 0
M  V30 11276 N 1108.58 -0.128553 1.57075 0
M  V30 11277 C 1109.81 -0.851214 1.8825 0
M  V30 11278 C 1110.21 -1.74402 0.733531 0
M  V30 11279 O 1109.56 -1.81149 -0.305108 0
M  V30 11280 C 1109.62 -1.74451 3.14336 0
M  V30 11281 C 1109.28 -1.02699 4.45311 0
M  V30 11282 C 1110.28 -0.37224 5.18566 0
M  V30 11283 C 1107.96 -1.01101 4.9202 0
M  V30 11284 C 1109.96 0.2889 6.36745 0
M  V30 11285 C 1107.65 -0.346063 6.10119 0
M  V30 11286 C 1108.64 0.302744 6.82329 0
M  V30 11287 O 1108.33 0.9571 7.98182 0
M  V30 11288 H 1108.06 -0.250529 0.627863 0
M  V30 11289 H 1110.62 -0.120418 2.05047 0
M  V30 11290 H 1108.85 -2.51671 2.93596 0
M  V30 11291 H 1110.54 -2.34075 3.31608 0
M  V30 11292 H 1111.3 -0.376271 4.83538 0
M  V30 11293 H 1107.18 -1.50543 4.35727 0
M  V30 11294 H 1110.73 0.795901 6.93045 0
M  V30 11295 H 1106.62 -0.339762 6.44605 0
M  V30 11296 H 1107.39 0.860616 8.13963 0
M  V30 11297 N 1110.05 -1.5248 -0.398459 0
M  V30 11298 C 1111.02 -1.75949 -1.46883 0
M  V30 11299 C 1112.02 -0.629431 -1.47969 0
M  V30 11300 O 1113.21 -0.897407 -1.49306 0
M  V30 11301 C 1110.34 -1.85162 -2.8623 0
M  V30 11302 H 1111.53 -2.71513 -1.2736 0
M  V30 11303 H 1109.08 -1.43058 -0.629619 0
M  V30 11304 H 1109.82 -0.915505 -3.11109 0
M  V30 11305 H 1109.6 -2.67326 -2.86844 0
M  V30 11306 H 1111.09 -2.05025 -3.63805 0
M  V30 11307 N 1111.53 0.65634 -1.43283 0
M  V30 11308 C 1112.78 1.41674 -1.45946 0
M  V30 11309 C 1113.13 1.92228 -0.0812633 0
M  V30 11310 O 1112.43 1.69167 0.899607 0
M  V30 11311 C 1112.62 2.61688 -2.43421 0
M  V30 11312 C 1112.45 2.2288 -3.90583 0
M  V30 11313 C 1111.22 2.11355 -4.58974 0
M  V30 11314 C 1113.42 1.83361 -4.80503 0
M  V30 11315 N 1111.4 1.65844 -5.91074 0
M  V30 11316 C 1112.77 1.48909 -6.01852 0
M  V30 11317 C 1114.82 1.70517 -4.67791 0
M  V30 11318 C 1113.53 1.02899 -7.11902 0
M  V30 11319 C 1115.55 1.25912 -5.77841 0
M  V30 11320 C 1114.92 0.923948 -6.98314 0
M  V30 11321 H 1111.01 0.514195 -0.589175 0
M  V30 11322 H 1113.6 0.755591 -1.79441 0
M  V30 11323 H 1111.77 3.25466 -2.11958 0
M  V30 11324 H 1113.5 3.28374 -2.36542 0
M  V30 11325 H 1110.26 2.31014 -4.13436 0
M  V30 11326 H 1110.68 1.45459 -6.61189 0
M  V30 11327 H 1115.32 1.9507 -3.7511 0
M  V30 11328 H 1113.04 0.770942 -8.04414 0
M  V30 11329 H 1116.63 1.16468 -5.70023 0
M  V30 11330 H 1115.51 0.584057 -7.82022 0
M  V30 11331 N 1113.01 1.29761 0.894412 0
M  V30 11332 C 1114.26 1.18039 1.64539 0
M  V30 11333 C 1114.58 -0.26697 1.92659 0
M  V30 11334 O 1113.84 -1.20865 1.53916 0
M  V30 11335 C 1114.14 1.94458 2.99868 0
M  V30 11336 C 1113.8 3.44143 2.91336 0
M  V30 11337 C 1112.47 3.84963 2.88716 0
M  V30 11338 C 1114.82 4.39503 2.80154 0
M  V30 11339 C 1112.15 5.19451 2.72741 0
M  V30 11340 C 1114.5 5.74088 2.65718 0
M  V30 11341 C 1113.16 6.14159 2.61467 0
M  V30 11342 H 1112.43 0.431936 0.60209 0
M  V30 11343 H 1115.08 1.60758 1.04063 0
M  V30 11344 H 1113.38 1.44346 3.64241 0
M  V30 11345 H 1115.08 1.82788 3.56917 0
M  V30 11346 H 1111.67 3.11699 2.9418 0
M  V30 11347 H 1115.86 4.08915 2.81251 0
M  V30 11348 H 1111.11 5.49602 2.67858 0
M  V30 11349 H 1115.29 6.47625 2.56038 0
M  V30 11350 H 1112.91 7.18317 2.48847 0
M  V30 11351 N 1114.49 -1.10549 1.12324 0
M  V30 11352 C 1115.72 -1.86 0.899312 0
M  V30 11353 C 1116.13 -1.80881 -0.554854 0
M  V30 11354 O 1115.47 -1.19485 -1.39531 0
M  V30 11355 C 1115.53 -3.35384 1.29452 0
M  V30 11356 C 1115.19 -3.64263 2.75974 0
M  V30 11357 C 1116.19 -3.60962 3.74169 0
M  V30 11358 C 1113.88 -3.92976 3.1285 0
M  V30 11359 C 1115.87 -3.85966 5.07256 0
M  V30 11360 C 1113.56 -4.17637 4.4612 0
M  V30 11361 C 1114.56 -4.14122 5.43132 0
M  V30 11362 O 1114.24 -4.38156 6.73999 0
M  V30 11363 H 1113.98 -0.594743 0.321337 0
M  V30 11364 H 1116.53 -1.40674 1.49667 0
M  V30 11365 H 1114.76 -3.81361 0.640358 0
M  V30 11366 H 1116.45 -3.9222 1.04491 0
M  V30 11367 H 1117.21 -3.38819 3.47025 0
M  V30 11368 H 1113.09 -3.94843 2.3795 0
M  V30 11369 H 1116.64 -3.83138 5.82967 0
M  V30 11370 H 1112.53 -4.39258 4.72993 0
M  V30 11371 H 1113.3 -4.55677 6.79927 0
M  V30 11372 N 1115.97 -0.914965 -1.28321 0
M  V30 11373 C 1117.24 -0.46764 -1.89928 0
M  V30 11374 C 1117.62 1.05364 -1.82925 0
M  V30 11375 O 1116.97 1.90223 -1.26599 0
M  V30 11376 C 1117.18 -0.999372 -3.34385 0
M  V30 11377 C 1118.53 -1.0522 -4.11356 0
M  V30 11378 O 1119.55 -0.9481 -3.4335 0
M  V30 11379 O 1118.41 -1.21085 -5.32917 0
M  V30 11380 H 1115.51 -0.148398 -0.813577 0
M  V30 11381 H 1118.05 -1.00583 -1.36679 0
M  V30 11382 H 1116.82 -2.04333 -3.33712 0
M  V30 11383 H 1116.45 -0.442083 -3.95135 0
M  V30 11384 N 1117.44 1.42219 -0.679077 0
M  V30 11385 C 1118.69 2.01081 -0.202718 0
M  V30 11386 C 1119.01 1.53986 1.19639 0
M  V30 11387 O 1118.28 0.763359 1.80415 0
M  V30 11388 H 1116.86 0.743526 -0.0719547 0
M  V30 11389 H 1119.52 1.74077 -0.876544 0
M  V30 11390 H 1118.62 3.11411 -0.207314 0
M  V30 11391 N 1118.92 0.422693 1.51826 0
M  V30 11392 C 1120.15 -0.14753 2.06073 0
M  V30 11393 C 1120.56 -1.38264 1.2915 0
M  V30 11394 O 1119.9 -1.8052 0.340306 0
M  V30 11395 C 1119.96 -0.549558 3.55275 0
M  V30 11396 C 1119.63 0.576704 4.53347 0
M  V30 11397 C 1120.63 1.44442 4.99432 0
M  V30 11398 C 1118.31 0.753264 4.9662 0
M  V30 11399 C 1120.3 2.47352 5.87448 0
M  V30 11400 C 1117.99 1.78566 5.84429 0
M  V30 11401 C 1118.99 2.64419 6.29739 0
M  V30 11402 O 1118.68 3.65888 7.15808 0
M  V30 11403 H 1118.41 -0.0178911 0.675763 0
M  V30 11404 H 1120.96 0.596258 1.96555 0
M  V30 11405 H 1119.19 -1.34583 3.62525 0
M  V30 11406 H 1120.88 -1.04925 3.92104 0
M  V30 11407 H 1121.65 1.31948 4.66706 0
M  V30 11408 H 1117.53 0.0946405 4.60903 0
M  V30 11409 H 1121.07 3.14397 6.22736 0
M  V30 11410 H 1116.97 1.91086 6.16568 0
M  V30 11411 H 1117.74 3.62294 7.33952 0
M  V30 11412 N 1120.4 -1.5685 0.153553 0
M  V30 11413 C 1121.81 -1.83074 -0.36618 0
M  V30 11414 C 1122.16 -1.07257 -1.64288 0
M  V30 11415 O 1121.29 -0.319925 -2.14022 0
M  V30 11416 C 1121.88 -3.32086 -0.671142 0
M  V30 11417 C 1120.44 -3.58868 -1.13537 0
M  V30 11418 C 1119.59 -2.76827 -0.161887 0
M  V30 11419 H 1122.54 -1.54129 0.378139 0
M  V30 11420 H 1122.56 -3.48598 -1.52512 0
M  V30 11421 H 1122.07 -3.8724 0.258234 0
M  V30 11422 H 1120.17 -3.09107 -2.08047 0
M  V30 11423 H 1120.29 -4.67299 -1.05682 0
M  V30 11424 H 1118.65 -2.46112 -0.6558 0
M  V30 11425 H 1119.43 -3.34755 0.761195 0
M  V30 11426 N 1121.88 0.120221 -1.57141 0
M  V30 11427 C 1123.29 0.473718 -1.52408 0
M  V30 11428 C 1123.49 1.81925 -0.866354 0
M  V30 11429 O 1122.55 2.48491 -0.448173 0
M  V30 11430 C 1123.86 0.459338 -2.97171 0
M  V30 11431 C 1125.41 0.542975 -3.08254 0
M  V30 11432 C 1125.89 0.558996 -4.54576 0
M  V30 11433 N 1127.38 0.620469 -4.59026 0
M  V30 11434 C 1128.11 0.654292 -5.69655 0
M  V30 11435 N 1127.61 0.645835 -6.89783 0
M  V30 11436 N 1129.4 0.697208 -5.57759 0
M  V30 11437 H 1121.55 -0.76142 -1.98283 0
M  V30 11438 H 1123.81 -0.280736 -0.905479 0
M  V30 11439 H 1123.52 -0.461654 -3.48657 0
M  V30 11440 H 1123.39 1.28759 -3.54543 0
M  V30 11441 H 1125.78 1.45439 -2.56772 0
M  V30 11442 H 1125.86 -0.312936 -2.53879 0
M  V30 11443 H 1125.51 -0.348367 -5.06704 0
M  V30 11444 H 1125.44 1.43177 -5.06762 0
M  V30 11445 H 1127.93 0.633218 -3.72557 0
M  V30 11446 H 1128.24 0.674233 -7.69853 0
M  V30 11447 H 1126.59 0.613279 -6.92289 0
M  V30 11448 H 1129.78 0.70117 -4.62819 0
M  V30 11449 H 1129.95 0.7201 -6.43986 0
M  V30 11450 N 1123.36 1.52689 0.390367 0
M  V30 11451 C 1124.58 1.71839 1.16129 0
M  V30 11452 C 1125.01 0.435226 1.82996 0
M  V30 11453 O 1124.36 -0.60889 1.70769 0
M  V30 11454 C 1124.41 2.86784 2.18603 0
M  V30 11455 O 1123.52 2.53662 3.25161 0
M  V30 11456 H 1122.86 0.571455 0.338135 0
M  V30 11457 H 1125.39 1.99475 0.45508 0
M  V30 11458 H 1125.4 3.12239 2.62622 0
M  V30 11459 H 1124.07 3.79872 1.69322 0
M  V30 11460 H 1122.65 2.38942 2.86289 0
M  V30 11461 N 1124.83 -0.648732 1.43629 0
M  V30 11462 C 1126.06 -1.43412 1.48716 0
M  V30 11463 C 1126.47 -1.88908 0.105051 0
M  V30 11464 O 1125.82 -1.60373 -0.895896 0
M  V30 11465 C 1125.88 -2.69906 2.37468 0
M  V30 11466 C 1125.54 -2.46321 3.84935 0
M  V30 11467 C 1126.54 -2.09259 4.75927 0
M  V30 11468 C 1124.22 -2.60506 4.29467 0
M  V30 11469 C 1126.22 -1.86686 6.09448 0
M  V30 11470 C 1123.9 -2.37548 5.6304 0
M  V30 11471 C 1124.9 -2.00694 6.52848 0
M  V30 11472 O 1124.59 -1.77979 7.83951 0
M  V30 11473 H 1124.32 -0.446883 0.507219 0
M  V30 11474 H 1126.88 -0.802218 1.89086 0
M  V30 11475 H 1125.11 -3.35672 1.91993 0
M  V30 11476 H 1126.8 -3.31867 2.33707 0
M  V30 11477 H 1127.56 -1.97872 4.428 0
M  V30 11478 H 1123.44 -2.88165 3.59836 0
M  V30 11479 H 1126.98 -1.57844 6.79508 0
M  V30 11480 H 1122.88 -2.48539 5.95734 0
M  V30 11481 H 1123.65 -1.92368 7.95573 0
M  V30 11482 N 1126.31 -1.30234 -0.887518 0
M  V30 11483 C 1127.56 -1.18675 -1.63587 0
M  V30 11484 C 1127.88 0.259342 -1.93268 0
M  V30 11485 O 1127.15 1.17523 -1.56733 0
M  V30 11486 H 1125.73 -0.436224 -0.606397 0
M  V30 11487 H 1128.39 -1.63326 -1.06351 0
M  V30 11488 H 1127.49 -1.74575 -2.58708 0
M  V30 11489 N 1127.79 1.09952 -1.12909 0
M  V30 11490 C 1129.2 1.63516 -0.901087 0
M  V30 11491 C 1129.55 1.87932 0.563547 0
M  V30 11492 O 1128.68 1.625 1.42908 0
M  V30 11493 C 1129.27 2.97054 -1.62924 0
M  V30 11494 C 1127.83 3.47464 -1.44725 0
M  V30 11495 C 1126.98 2.21979 -1.66194 0
M  V30 11496 H 1129.93 0.933858 -1.28315 0
M  V30 11497 H 1129.95 3.64757 -1.08318 0
M  V30 11498 H 1129.46 2.79251 -2.69519 0
M  V30 11499 H 1127.56 3.70402 -0.40409 0
M  V30 11500 H 1127.68 4.25254 -2.20671 0
M  V30 11501 H 1126.04 2.30368 -1.0864 0
M  V30 11502 H 1126.82 2.06702 -2.74097 0
M  V30 11503 N 1129.27 0.921757 1.27833 0
M  V30 11504 C 1130.55 0.477706 1.89677 0
M  V30 11505 C 1130.93 -1.04392 1.83481 0
M  V30 11506 O 1130.27 -1.89549 1.27606 0
M  V30 11507 C 1130.48 1.01709 3.33851 0
M  V30 11508 C 1131.83 1.074 4.10792 0
M  V30 11509 O 1132.86 0.966295 3.42843 0
M  V30 11510 O 1131.71 1.23909 5.32268 0
M  V30 11511 H 1128.81 0.15271 0.812778 0
M  V30 11512 H 1131.35 1.01306 1.36144 0
M  V30 11513 H 1130.13 2.061 3.32623 0
M  V30 11514 H 1129.75 0.463031 3.94895 0
M  V30 11515 N 1130.75 -1.41857 0.686609 0
M  V30 11516 C 1131.71 -2.29187 0.0247022 0
M  V30 11517 C 1132.71 -1.43926 -0.717069 0
M  V30 11518 O 1133.9 -1.65179 -0.5533 0
M  V30 11519 C 1131.03 -3.26644 -0.975537 0
M  V30 11520 H 1132.22 -2.89212 0.793503 0
M  V30 11521 H 1129.78 -1.49694 0.449605 0
M  V30 11522 H 1130.51 -2.7158 -1.77242 0
M  V30 11523 H 1130.3 -3.89545 -0.446892 0
M  V30 11524 H 1131.79 -3.92107 -1.43673 0
M  V30 11525 N 1132.22 -0.430739 -1.51599 0
M  V30 11526 C 1133.13 0.390347 -2.3133 0
M  V30 11527 C 1134.15 1.03376 -1.39962 0
M  V30 11528 O 1135.33 1.03057 -1.73035 0
M  V30 11529 C 1132.39 1.48039 -3.13505 0
M  V30 11530 C 1131.45 0.857792 -4.20643 0
M  V30 11531 C 1130.69 1.89589 -4.9889 0
M  V30 11532 O 1130.91 3.11717 -4.77691 0
M  V30 11533 O 1129.84 1.49009 -5.83164 0
M  V30 11534 H 1133.67 -0.260358 -3.02582 0
M  V30 11535 H 1131.25 -0.193428 -1.48143 0
M  V30 11536 H 1133.14 2.11272 -3.64612 0
M  V30 11537 H 1131.81 2.1153 -2.45024 0
M  V30 11538 H 1130.72 0.187592 -3.73629 0
M  V30 11539 H 1132.05 0.266474 -4.91478 0
M  V30 11540 N 1133.7 1.56767 -0.161869 0
M  V30 11541 C 1134.67 2.16299 0.758104 0
M  V30 11542 C 1135.67 1.10859 1.16478 0
M  V30 11543 O 1136.86 1.36422 1.08327 0
M  V30 11544 C 1133.99 2.73819 2.03067 0
M  V30 11545 H 1135.18 2.98938 0.239992 0
M  V30 11546 H 1132.73 1.56054 0.0876532 0
M  V30 11547 H 1133.47 1.94887 2.59209 0
M  V30 11548 H 1133.25 3.50974 1.74813 0
M  V30 11549 H 1134.74 3.19638 2.68741 0
M  V30 11550 N 1135.18 -0.111886 1.57202 0
M  V30 11551 C 1136.11 -1.13796 2.03894 0
M  V30 11552 C 1137.09 -1.4277 0.924696 0
M  V30 11553 O 1138.28 -1.53089 1.19488 0
M  V30 11554 C 1135.41 -2.46229 2.44925 0
M  V30 11555 C 1134.36 -2.31702 3.59859 0
M  V30 11556 C 1133.69 -3.69161 3.86813 0
M  V30 11557 C 1134.99 -1.77158 4.91337 0
M  V30 11558 H 1136.68 -0.749581 2.89865 0
M  V30 11559 H 1134.23 -0.359126 1.3945 0
M  V30 11560 H 1136.18 -3.18267 2.76195 0
M  V30 11561 H 1134.9 -2.86971 1.55933 0
M  V30 11562 H 1133.56 -1.62112 3.28809 0
M  V30 11563 H 1133.21 -4.07401 2.95015 0
M  V30 11564 H 1132.91 -3.60292 4.6418 0
M  V30 11565 H 1134.43 -4.42693 4.20542 0
M  V30 11566 H 1135.85 -2.3902 5.21097 0
M  V30 11567 H 1134.25 -1.79091 5.72753 0
M  V30 11568 H 1135.32 -0.729675 4.79379 0
M  V30 11569 N 1136.66 -1.52894 -0.382264 0
M  V30 11570 C 1137.61 -1.78799 -1.48774 0
M  V30 11571 C 1138.6 -0.65624 -1.56173 0
M  V30 11572 O 1139.81 -0.838856 -1.59258 0
M  V30 11573 H 1136.18 -0.565855 -0.49529 0
M  V30 11574 H 1138.15 -2.7136 -1.24122 0
M  V30 11575 C 1136.9 -1.97987 -2.85826 0
M  V30 11576 H 1136.22 -2.84505 -2.80886 0
M  V30 11577 H 1137.66 -2.20099 -3.62398 0
M  V30 11578 C 1136.12 -0.75427 -3.28348 0
M  V30 11579 O 1136.65 0.0650749 -4.01647 0
M  V30 11580 N 1134.86 -0.582457 -2.84703 0
M  V30 11581 H 1134.41 -1.25034 -2.2522 0
M  V30 11582 H 1134.36 0.236208 -3.13511 0
M  V30 11583 N 1138.14 0.641106 -1.43971 0
M  V30 11584 C 1139.08 1.75352 -1.50068 0
M  V30 11585 C 1140.05 1.62386 -0.349266 0
M  V30 11586 O 1141.24 1.82455 -0.558118 0
M  V30 11587 C 1138.38 3.13561 -1.4413 0
M  V30 11588 C 1137.49 3.37574 -2.6957 0
M  V30 11589 C 1136.63 4.65698 -2.55535 0
M  V30 11590 C 1135.67 4.82857 -3.76186 0
M  V30 11591 N 1134.8 6.02249 -3.60888 0
M  V30 11592 H 1139.64 1.69477 -2.45116 0
M  V30 11593 H 1137.18 0.826871 -1.2166 0
M  V30 11594 H 1139.14 3.93476 -1.38681 0
M  V30 11595 H 1137.77 3.18476 -0.526563 0
M  V30 11596 H 1136.82 2.5167 -2.85248 0
M  V30 11597 H 1138.13 3.46135 -3.59154 0
M  V30 11598 H 1137.29 5.53759 -2.47862 0
M  V30 11599 H 1136.03 4.59479 -1.63495 0
M  V30 11600 H 1135.03 3.93229 -3.84254 0
M  V30 11601 H 1136.26 4.90898 -4.6925 0
M  V30 11602 H 1134.2 5.97138 -2.71591 0
M  V30 11603 H 1134.12 6.11822 -4.44083 0
M  V30 11604 H 1135.39 6.92898 -3.57088 0
M  V30 11605 N 1139.62 1.30703 0.880598 0
M  V30 11606 C 1140.84 1.22843 1.67106 0
M  V30 11607 C 1141.27 -0.204788 1.86982 0
M  V30 11608 O 1140.62 -1.14716 1.40392 0
M  V30 11609 C 1140.67 1.96685 3.02237 0
M  V30 11610 O 1139.78 1.29693 3.91476 0
M  V30 11611 H 1139.12 0.424661 0.51045 0
M  V30 11612 H 1141.65 1.72596 1.09871 0
M  V30 11613 H 1141.66 2.05874 3.52249 0
M  V30 11614 H 1140.33 3.00919 2.8709 0
M  V30 11615 H 1138.91 1.28886 3.49918 0
M  V30 11616 N 1141.09 -1.09351 1.1349 0
M  V30 11617 C 1142.32 -1.85036 0.918989 0
M  V30 11618 C 1142.73 -1.8146 -0.535638 0
M  V30 11619 O 1142.07 -1.20958 -1.38256 0
M  V30 11620 C 1142.14 -3.33992 1.33001 0
M  V30 11621 C 1141.8 -3.61315 2.79822 0
M  V30 11622 C 1142.8 -3.56973 3.77976 0
M  V30 11623 C 1140.48 -3.89636 3.17001 0
M  V30 11624 C 1142.48 -3.80564 5.11321 0
M  V30 11625 C 1140.16 -4.12882 4.50524 0
M  V30 11626 C 1141.16 -4.08338 5.47494 0
M  V30 11627 O 1140.85 -4.30983 6.78608 0
M  V30 11628 H 1140.58 -0.591301 0.327627 0
M  V30 11629 H 1143.14 -1.39078 1.5115 0
M  V30 11630 H 1141.37 -3.8066 0.68077 0
M  V30 11631 H 1143.05 -3.9109 1.08645 0
M  V30 11632 H 1143.82 -3.3512 3.50599 0
M  V30 11633 H 1139.7 -3.92297 2.42124 0
M  V30 11634 H 1143.24 -3.76933 5.86998 0
M  V30 11635 H 1139.14 -4.34216 4.77626 0
M  V30 11636 H 1139.91 -4.4844 6.84722 0
M  V30 11637 N 1142.57 -0.928524 -1.27343 0
M  V30 11638 C 1143.82 -0.568267 -1.93946 0
M  V30 11639 C 1144.14 0.893501 -1.73325 0
M  V30 11640 O 1143.41 1.63344 -1.08147 0
M  V30 11641 H 1141.99 -0.207173 -0.717696 0
M  V30 11642 H 1144.65 -1.1811 -1.55036 0
M  V30 11643 H 1143.75 -0.775246 -3.02318 0
M  V30 11644 N 1144.05 1.41491 -0.694123 0
M  V30 11645 C 1145.3 2.00479 -0.221585 0
M  V30 11646 C 1145.61 1.55605 1.18518 0
M  V30 11647 O 1146.82 2.07143 1.7551 0
M  V30 11648 C 1145.27 3.5824 -0.345264 0
M  V30 11649 C 1144.88 4.12096 -1.7573 0
M  V30 11650 C 1146.63 4.24446 0.0675731 0
M  V30 11651 C 1144.53 5.62286 -1.83271 0
M  V30 11652 H 1143.46 0.749841 -0.0790854 0
M  V30 11653 H 1146.11 1.61987 -0.86211 0
M  V30 11654 H 1144.5 3.94328 0.363487 0
M  V30 11655 H 1145.67 3.8743 -2.49469 0
M  V30 11656 H 1143.98 3.58411 -2.11969 0
M  V30 11657 H 1146.58 5.34691 0.0316485 0
M  V30 11658 H 1146.92 4.01338 1.10606 0
M  V30 11659 H 1147.46 3.93388 -0.59085 0
M  V30 11660 H 1144.2 5.9022 -2.85168 0
M  V30 11661 H 1143.72 5.88883 -1.13914 0
M  V30 11662 H 1145.4 6.27033 -1.59494 0
M  V30 11663 N 1145.53 0.438773 1.51369 0
M  V30 11664 C 1146.46 -0.362467 2.3067 0
M  V30 11665 C 1147.44 -1.01973 1.36145 0
M  V30 11666 O 1148.62 -1.0231 1.65065 0
M  V30 11667 C 1145.75 -1.46313 3.14976 0
M  V30 11668 C 1144.71 -0.929272 4.1779 0
M  V30 11669 C 1144.03 -2.12579 4.90627 0
M  V30 11670 C 1145.33 0.0372782 5.22287 0
M  V30 11671 H 1147.03 0.29931 2.979 0
M  V30 11672 H 1144.57 0.14539 1.43264 0
M  V30 11673 H 1146.53 -2.03088 3.69233 0
M  V30 11674 H 1145.25 -2.15321 2.45569 0
M  V30 11675 H 1143.91 -0.383722 3.64586 0
M  V30 11676 H 1143.56 -2.8021 4.17722 0
M  V30 11677 H 1143.26 -1.77496 5.60151 0
M  V30 11678 H 1144.78 -2.69905 5.47708 0
M  V30 11679 H 1146.2 -0.44022 5.71607 0
M  V30 11680 H 1144.59 0.300748 5.99346 0
M  V30 11681 H 1145.66 0.973503 4.75027 0
M  V30 11682 N 1147.01 -1.56678 0.170181 0
M  V30 11683 C 1148.42 -1.83452 -0.346742 0
M  V30 11684 C 1148.77 -1.08993 -1.63141 0
M  V30 11685 O 1147.89 -0.342607 -2.13671 0
M  V30 11686 C 1148.49 -3.32779 -0.635882 0
M  V30 11687 C 1147.05 -3.60052 -1.09725 0
M  V30 11688 C 1146.19 -2.76983 -0.132516 0
M  V30 11689 H 1149.14 -1.53719 0.394465 0
M  V30 11690 H 1149.17 -3.50195 -1.48806 0
M  V30 11691 H 1148.68 -3.86944 0.299291 0
M  V30 11692 H 1146.78 -3.11297 -2.04756 0
M  V30 11693 H 1146.89 -4.68393 -1.00719 0
M  V30 11694 H 1145.26 -2.46794 -0.62966 0
M  V30 11695 H 1146.04 -3.33929 0.796658 0
M  V30 11696 N 1148.48 0.103547 -1.57259 0
M  V30 11697 C 1149.45 1.11039 -2.00507 0
M  V30 11698 C 1150.45 1.33432 -0.897361 0
M  V30 11699 O 1151.64 1.29688 -1.16304 0
M  V30 11700 C 1148.77 2.46144 -2.35851 0
M  V30 11701 H 1149.96 0.738332 -2.90669 0
M  V30 11702 H 1147.51 0.348334 -1.52369 0
M  V30 11703 H 1148.25 2.88242 -1.48617 0
M  V30 11704 H 1148.03 2.31241 -3.16654 0
M  V30 11705 H 1149.52 3.18577 -2.69997 0
M  V30 11706 N 1149.96 1.53094 0.37415 0
M  V30 11707 C 1150.91 1.79585 1.47824 0
M  V30 11708 C 1151.9 0.664513 1.55822 0
M  V30 11709 O 1153.11 0.84729 1.58811 0
M  V30 11710 H 1149.48 0.568474 0.492282 0
M  V30 11711 H 1151.46 2.72014 1.22681 0
M  V30 11712 C 1150.2 1.995 2.84772 0
M  V30 11713 H 1149.53 2.85991 2.79373 0
M  V30 11714 H 1150.97 2.22018 3.61226 0
M  V30 11715 C 1149.43 0.771673 3.27943 0
M  V30 11716 O 1149.96 -0.0437737 4.01676 0
M  V30 11717 N 1148.16 0.597547 2.8439 0
M  V30 11718 H 1147.71 1.26227 2.24554 0
M  V30 11719 H 1147.67 -0.219578 3.13632 0
M  V30 11720 N 1151.44 -0.633461 1.44309 0
M  V30 11721 C 1152.37 -1.75868 1.4698 0
M  V30 11722 C 1153.38 -1.58691 0.363469 0
M  V30 11723 O 1154.57 -1.67048 0.629075 0
M  V30 11724 C 1151.67 -3.1356 1.28582 0
M  V30 11725 C 1150.85 -3.57217 2.52418 0
M  V30 11726 C 1149.91 -4.73779 2.28954 0
M  V30 11727 O 1148.93 -4.8221 3.02428 0
M  V30 11728 N 1150.13 -5.65324 1.31866 0
M  V30 11729 H 1152.9 -1.74048 2.43983 0
M  V30 11730 H 1150.46 -0.817952 1.39718 0
M  V30 11731 H 1152.45 -3.89255 1.10736 0
M  V30 11732 H 1151.02 -3.10036 0.399529 0
M  V30 11733 H 1150.24 -2.71755 2.85557 0
M  V30 11734 H 1151.53 -3.83136 3.3479 0
M  V30 11735 H 1150.93 -5.61204 0.71179 0
M  V30 11736 H 1149.48 -6.40659 1.19998 0
M  V30 11737 N 1152.92 -1.31168 -0.873655 0
M  V30 11738 C 1154.17 -1.20642 -1.6264 0
M  V30 11739 C 1154.49 0.236286 -1.93059 0
M  V30 11740 O 1153.75 1.18401 -1.55819 0
M  V30 11741 C 1154.05 -1.99204 -2.96736 0
M  V30 11742 C 1153.71 -3.48734 -2.85824 0
M  V30 11743 C 1152.38 -3.89507 -2.82555 0
M  V30 11744 C 1154.73 -4.43905 -2.73127 0
M  V30 11745 C 1152.06 -5.23724 -2.64442 0
M  V30 11746 C 1154.41 -5.78242 -2.56551 0
M  V30 11747 C 1153.07 -6.18241 -2.51663 0
M  V30 11748 H 1152.34 -0.44146 -0.595142 0
M  V30 11749 H 1154.99 -1.62394 -1.01492 0
M  V30 11750 H 1153.29 -1.50122 -3.61899 0
M  V30 11751 H 1154.99 -1.88443 -3.53963 0
M  V30 11752 H 1151.58 -3.1634 -2.89184 0
M  V30 11753 H 1155.76 -4.13338 -2.7471 0
M  V30 11754 H 1151.02 -5.53794 -2.59081 0
M  V30 11755 H 1155.19 -6.51616 -2.45702 0
M  V30 11756 H 1152.82 -7.22185 -2.37387 0
M  V30 11757 N 1154.4 1.08748 -1.14068 0
M  V30 11758 C 1155.64 1.80707 -0.904947 0
M  V30 11759 C 1155.97 1.86478 0.570167 0
M  V30 11760 O 1155.24 1.35536 1.41445 0
M  V30 11761 H 1153.82 0.669261 -0.331811 0
M  V30 11762 H 1156.48 1.31494 -1.43859 0
M  V30 11763 H 1155.57 2.83653 -1.30182 0
M  V30 11764 N 1155.87 0.935264 1.26849 0
M  V30 11765 C 1157.1 0.596249 1.98122 0
M  V30 11766 C 1157.52 -0.827452 1.69702 0
M  V30 11767 O 1156.87 -1.55095 0.961864 0
M  V30 11768 C 1156.93 0.821773 3.52036 0
M  V30 11769 O 1156.65 2.18947 3.79465 0
M  V30 11770 C 1158.15 0.492498 4.40556 0
M  V30 11771 H 1155.37 0.225242 0.632066 0
M  V30 11772 H 1157.91 1.25435 1.61512 0
M  V30 11773 H 1156.07 0.210363 3.86828 0
M  V30 11774 H 1156.48 2.24509 4.74021 0
M  V30 11775 H 1157.95 0.700953 5.47531 0
M  V30 11776 H 1158.43 -0.57228 4.35456 0
M  V30 11777 H 1159.04 1.08238 4.11296 0
M  V30 11778 N 1157.35 -1.41121 0.701616 0
M  V30 11779 C 1158.6 -2.0113 0.235147 0
M  V30 11780 C 1158.93 -1.55587 -1.16718 0
M  V30 11781 O 1158.18 -0.760615 -1.80314 0
M  V30 11782 C 1158.48 -3.5654 0.247781 0
M  V30 11783 C 1158.15 -4.21616 1.59846 0
M  V30 11784 C 1156.81 -4.39106 1.96822 0
M  V30 11785 C 1159.16 -4.58048 2.48679 0
M  V30 11786 C 1156.49 -4.90307 3.22205 0
M  V30 11787 C 1158.84 -5.10642 3.734 0
M  V30 11788 C 1157.51 -5.26343 4.10512 0
M  V30 11789 H 1156.78 -0.735987 0.0860462 0
M  V30 11790 H 1159.42 -1.68932 0.901898 0
M  V30 11791 H 1157.73 -3.88564 -0.502528 0
M  V30 11792 H 1159.42 -4.00787 -0.130766 0
M  V30 11793 H 1156.01 -4.08381 1.30088 0
M  V30 11794 H 1160.2 -4.44184 2.21391 0
M  V30 11795 H 1155.45 -5.00647 3.50945 0
M  V30 11796 H 1159.63 -5.37811 4.42416 0
M  V30 11797 H 1157.26 -5.65779 5.07738 0
M  V30 11798 N 1158.83 -0.446794 -1.51134 0
M  V30 11799 C 1160.07 0.115546 -2.04073 0
M  V30 11800 C 1160.43 1.39137 -1.32306 0
M  V30 11801 O 1161.64 2.03455 -1.75668 0
M  V30 11802 C 1159.91 0.319657 -3.55968 0
M  V30 11803 S 1161.47 0.844045 -4.30606 0
M  V30 11804 H 1158.28 0.0274089 -0.710471 0
M  V30 11805 H 1160.89 -0.608368 -1.85793 0
M  V30 11806 H 1159.59 -0.615082 -4.05765 0
M  V30 11807 H 1159.12 1.07038 -3.78558 0
M  V30 11808 H 1161.14 2.12051 -4.48608 0
M  V30 11809 N 1160.31 1.56586 -0.178487 0
M  V30 11810 C 1161.24 2.14168 0.787856 0
M  V30 11811 C 1162.22 1.07374 1.22105 0
M  V30 11812 O 1163.4 1.35391 1.31154 0
M  V30 11813 C 1160.53 2.68708 2.06189 0
M  V30 11814 C 1159.58 3.8794 1.77215 0
M  V30 11815 S 1160.41 5.27274 0.935002 0
M  V30 11816 C 1161.57 5.85224 2.21954 0
M  V30 11817 H 1161.8 2.958 0.298293 0
M  V30 11818 H 1159.33 1.54357 0.0362853 0
M  V30 11819 H 1161.29 3.00777 2.79363 0
M  V30 11820 H 1159.95 1.87149 2.52258 0
M  V30 11821 H 1159.14 4.24453 2.71764 0
M  V30 11822 H 1158.75 3.56795 1.12132 0
M  V30 11823 H 1161.04 5.98575 3.17355 0
M  V30 11824 H 1161.98 6.82162 1.89898 0
M  V30 11825 H 1162.39 5.13697 2.34042 0
M  V30 11826 N 1161.79 -0.095206 1.57312 0
M  V30 11827 C 1163.2 -0.449411 1.53142 0
M  V30 11828 C 1163.4 -1.80523 0.895187 0
M  V30 11829 O 1162.46 -2.47746 0.487649 0
M  V30 11830 C 1163.77 -0.412002 2.97864 0
M  V30 11831 C 1165.32 -0.493866 3.09079 0
M  V30 11832 C 1165.79 -0.486606 4.55408 0
M  V30 11833 N 1167.29 -0.547363 4.59955 0
M  V30 11834 C 1168.02 -0.563582 5.70624 0
M  V30 11835 N 1167.52 -0.536015 6.90723 0
M  V30 11836 N 1169.31 -0.608385 5.58798 0
M  V30 11837 H 1161.46 0.792869 1.97047 0
M  V30 11838 H 1163.72 0.295106 0.900898 0
M  V30 11839 H 1163.43 0.517064 3.47878 0
M  V30 11840 H 1163.3 -1.23102 3.56547 0
M  V30 11841 H 1165.69 -1.41335 2.59053 0
M  V30 11842 H 1165.77 0.353286 2.53349 0
M  V30 11843 H 1165.42 0.428935 5.06086 0
M  V30 11844 H 1165.35 -1.35097 5.08976 0
M  V30 11845 H 1167.84 -0.573867 3.73517 0
M  V30 11846 H 1168.15 -0.551671 7.70828 0
M  V30 11847 H 1166.49 -0.503064 6.93177 0
M  V30 11848 H 1169.69 -0.627451 4.63876 0
M  V30 11849 H 1169.86 -0.617556 6.45051 0
M  V30 11850 N 1163.26 -1.53291 -0.366026 0
M  V30 11851 C 1164.19 -1.82675 -1.45437 0
M  V30 11852 C 1165.18 -0.680227 -1.55907 0
M  V30 11853 O 1166.36 -0.930032 -1.70482 0
M  V30 11854 C 1163.49 -2.01626 -2.8278 0
M  V30 11855 C 1162.44 -3.17391 -2.87135 0
M  V30 11856 C 1161.77 -3.21634 -4.27148 0
M  V30 11857 C 1163.07 -4.5599 -2.54697 0
M  V30 11858 H 1164.76 -2.73818 -1.21096 0
M  V30 11859 H 1162.31 -1.31754 -0.581108 0
M  V30 11860 H 1164.26 -2.20765 -3.58944 0
M  V30 11861 H 1162.99 -1.07193 -3.08508 0
M  V30 11862 H 1161.65 -2.98071 -2.13422 0
M  V30 11863 H 1161.29 -2.2484 -4.49951 0
M  V30 11864 H 1160.99 -3.99414 -4.30978 0
M  V30 11865 H 1162.52 -3.42957 -5.05186 0
M  V30 11866 H 1163.93 -4.75294 -3.20575 0
M  V30 11867 H 1162.33 -5.36008 -2.69844 0
M  V30 11868 H 1163.4 -4.61133 -1.49949 0
M  V30 11869 N 1164.74 0.6258 -1.44643 0
M  V30 11870 C 1165.67 1.74858 -1.54748 0
M  V30 11871 C 1166.65 1.65327 -0.400138 0
M  V30 11872 O 1167.84 1.84005 -0.620948 0
M  V30 11873 C 1164.97 3.13408 -1.49643 0
M  V30 11874 C 1163.92 3.37733 -2.62908 0
M  V30 11875 C 1163.25 4.76367 -2.42855 0
M  V30 11876 C 1164.55 3.29771 -4.05029 0
M  V30 11877 H 1166.24 1.66658 -2.48728 0
M  V30 11878 H 1163.79 0.800363 -1.19709 0
M  V30 11879 H 1165.74 3.91735 -1.55312 0
M  V30 11880 H 1164.47 3.22404 -0.521824 0
M  V30 11881 H 1163.12 2.61788 -2.56637 0
M  V30 11882 H 1162.77 4.82074 -1.43575 0
M  V30 11883 H 1162.47 4.936 -3.18799 0
M  V30 11884 H 1164 5.56917 -2.50351 0
M  V30 11885 H 1165.41 3.97996 -4.12641 0
M  V30 11886 H 1163.81 3.58538 -4.81218 0
M  V30 11887 H 1164.88 2.27493 -4.28223 0
M  V30 11888 N 1166.22 1.31629 0.866686 0
M  V30 11889 C 1167.47 1.21263 1.61678 0
M  V30 11890 C 1167.79 -0.228562 1.93656 0
M  V30 11891 O 1167.06 -1.15014 1.58583 0
M  V30 11892 H 1165.64 0.445817 0.59938 0
M  V30 11893 H 1168.3 1.64998 1.03739 0
M  V30 11894 H 1167.4 1.78669 2.55898 0
M  V30 11895 N 1167.7 -1.08142 1.14644 0
M  V30 11896 C 1168.92 -1.84857 0.940349 0
M  V30 11897 C 1169.35 -1.81163 -0.506117 0
M  V30 11898 O 1168.71 -1.19869 -1.36019 0
M  V30 11899 C 1168.76 -3.30198 1.4492 0
M  V30 11900 O 1167.86 -4.07355 0.64308 0
M  V30 11901 H 1167.2 -0.572711 0.336003 0
M  V30 11902 H 1169.73 -1.36475 1.52432 0
M  V30 11903 H 1169.74 -3.81039 1.45854 0
M  V30 11904 H 1168.42 -3.32202 2.50229 0
M  V30 11905 H 1166.99 -3.66219 0.702698 0
M  V30 11906 N 1169.18 -0.941978 -1.26351 0
M  V30 11907 C 1170.14 -0.456768 -2.24602 0
M  V30 11908 C 1171.14 0.432574 -1.54872 0
M  V30 11909 O 1172.33 0.23164 -1.72653 0
M  V30 11910 C 1169.46 0.341583 -3.39184 0
M  V30 11911 H 1170.66 -1.32503 -2.69041 0
M  V30 11912 H 1168.21 -0.724021 -1.38519 0
M  V30 11913 H 1168.94 1.22806 -3.00149 0
M  V30 11914 H 1168.73 -0.296268 -3.90979 0
M  V30 11915 H 1170.22 0.670955 -4.12175 0
M  V30 11916 N 1170.66 1.40747 -0.709091 0
M  V30 11917 C 1171.59 2.33404 -0.0669763 0
M  V30 11918 C 1172.57 1.52546 0.752582 0
M  V30 11919 O 1173.75 1.81036 0.702823 0
M  V30 11920 C 1170.88 3.36476 0.860285 0
M  V30 11921 C 1169.84 4.27748 0.146828 0
M  V30 11922 C 1169.16 5.21304 1.18937 0
M  V30 11923 C 1170.46 5.12734 -0.995064 0
M  V30 11924 H 1172.16 2.87349 -0.840888 0
M  V30 11925 H 1169.7 1.38163 -0.405817 0
M  V30 11926 H 1171.65 4.00231 1.31883 0
M  V30 11927 H 1170.38 2.80912 1.66602 0
M  V30 11928 H 1169.04 3.65437 -0.291826 0
M  V30 11929 H 1168.69 4.62048 1.98798 0
M  V30 11930 H 1168.39 5.8321 0.716917 0
M  V30 11931 H 1169.91 5.87936 1.64815 0
M  V30 11932 H 1171.32 5.69979 -0.61618 0
M  V30 11933 H 1169.72 5.83649 -1.39547 0
M  V30 11934 H 1170.79 4.49097 -1.82867 0
M  V30 11935 N 1172.13 0.454803 1.50895 0
M  V30 11936 C 1173.08 -0.347769 2.28165 0
M  V30 11937 C 1174.05 -1.00158 1.32505 0
M  V30 11938 O 1175.24 -1.01715 1.61427 0
M  V30 11939 C 1172.38 -1.43315 3.13934 0
M  V30 11940 C 1171.49 -0.795736 4.24608 0
M  V30 11941 C 1170.62 -1.85763 4.9766 0
M  V30 11942 C 1169.66 -1.19959 6.0023 0
M  V30 11943 N 1168.8 -2.20361 6.66622 0
M  V30 11944 H 1173.64 0.317493 2.96304 0
M  V30 11945 H 1171.18 0.168418 1.46133 0
M  V30 11946 H 1173.13 -2.07391 3.62001 0
M  V30 11947 H 1171.76 -2.0678 2.47875 0
M  V30 11948 H 1170.82 -0.0428173 3.80376 0
M  V30 11949 H 1172.13 -0.275477 4.98039 0
M  V30 11950 H 1171.28 -2.5746 5.49363 0
M  V30 11951 H 1170.02 -2.41166 4.23899 0
M  V30 11952 H 1169.03 -0.46817 5.47803 0
M  V30 11953 H 1170.25 -0.652666 6.75956 0
M  V30 11954 H 1168.2 -2.74812 5.95663 0
M  V30 11955 H 1168.11 -1.73275 7.35875 0
M  V30 11956 H 1169.38 -2.91488 7.22949 0
M  V30 11957 N 1173.61 -1.56489 0.186789 0
M  V30 11958 C 1174.84 -2.01722 -0.459993 0
M  V30 11959 C 1175.25 -1.06697 -1.5576 0
M  V30 11960 O 1174.61 -0.0704212 -1.82364 0
M  V30 11961 C 1174.66 -3.46693 -1.02401 0
M  V30 11962 O 1174.38 -4.3809 0.0297916 0
M  V30 11963 C 1175.88 -4.07403 -1.7475 0
M  V30 11964 H 1173.1 -0.660845 -0.116298 0
M  V30 11965 H 1175.65 -2.02389 0.293059 0
M  V30 11966 H 1173.8 -3.46752 -1.72749 0
M  V30 11967 H 1174.22 -5.23057 -0.388821 0
M  V30 11968 H 1175.69 -5.10718 -2.09455 0
M  V30 11969 H 1176.17 -3.50383 -2.64818 0
M  V30 11970 H 1176.77 -4.11093 -1.09007 0
M  V30 11971 N 1175.09 0.086862 -1.5736 0
M  V30 11972 C 1176.32 0.802167 -1.90717 0
M  V30 11973 C 1176.73 1.71875 -0.781304 0
M  V30 11974 O 1176.09 1.80831 0.246255 0
M  V30 11975 C 1176.14 1.60858 -3.23739 0
M  V30 11976 O 1175.86 0.728851 -4.31995 0
M  V30 11977 C 1177.36 2.42621 -3.71012 0
M  V30 11978 H 1174.58 0.228914 -0.630745 0
M  V30 11979 H 1177.13 0.061634 -2.04407 0
M  V30 11980 H 1175.28 2.30153 -3.11622 0
M  V30 11981 H 1175.7 1.2882 -5.08435 0
M  V30 11982 H 1177.17 2.94683 -4.66761 0
M  V30 11983 H 1177.65 3.21462 -2.99264 0
M  V30 11984 H 1178.25 1.78509 -3.86024 0
M  V30 11985 N 1176.57 1.53483 0.357892 0
M  V30 11986 C 1177.5 1.83444 1.44466 0
M  V30 11987 C 1178.48 0.688486 1.55544 0
M  V30 11988 O 1179.66 0.93906 1.69986 0
M  V30 11989 C 1176.79 2.03122 2.81707 0
M  V30 11990 C 1175.75 3.1891 2.85448 0
M  V30 11991 C 1175.07 3.23895 4.25436 0
M  V30 11992 C 1176.37 4.57334 2.52275 0
M  V30 11993 H 1178.07 2.74456 1.19642 0
M  V30 11994 H 1175.61 1.3206 0.574112 0
M  V30 11995 H 1177.57 2.22666 3.57768 0
M  V30 11996 H 1176.29 1.08827 3.07935 0
M  V30 11997 H 1174.95 2.99199 2.11838 0
M  V30 11998 H 1174.6 2.27223 4.48753 0
M  V30 11999 H 1174.3 4.01694 4.28854 0
M  V30 12000 H 1175.82 3.45632 5.0336 0
M  V30 12001 H 1177.24 4.76988 3.1805 0
M  V30 12002 H 1175.63 5.37431 2.66998 0
M  V30 12003 H 1176.7 4.61921 1.47501 0
M  V30 12004 N 1178.05 -0.61812 1.44973 0
M  V30 12005 C 1179.27 -1.40429 1.51945 0
M  V30 12006 C 1179.69 -1.88215 0.148556 0
M  V30 12007 O 1179.05 -1.61603 -0.847978 0
M  V30 12008 C 1179.1 -2.61588 2.49507 0
M  V30 12009 O 1178.82 -2.15791 3.81269 0
M  V30 12010 C 1180.32 -3.5457 2.66074 0
M  V30 12011 H 1177.54 -0.43023 0.514921 0
M  V30 12012 H 1180.08 -0.754791 1.90061 0
M  V30 12013 H 1178.24 -3.22602 2.14492 0
M  V30 12014 H 1178.65 -2.94434 4.34061 0
M  V30 12015 H 1180.13 -4.36155 3.38338 0
M  V30 12016 H 1180.6 -4.04227 1.71746 0
M  V30 12017 H 1181.21 -2.99416 3.02043 0
M  V30 12018 N 1179.52 -1.32087 -0.859693 0
M  V30 12019 C 1180.77 -1.22542 -1.6159 0
M  V30 12020 C 1181.1 0.213533 -1.93022 0
M  V30 12021 O 1180.38 1.14931 -1.56911 0
M  V30 12022 C 1180.66 -2.08004 -2.93949 0
M  V30 12023 C 1180.51 -3.60252 -2.6933 0
M  V30 12024 C 1181.83 -1.93732 -3.95166 0
M  V30 12025 H 1178.95 -0.446504 -0.586347 0
M  V30 12026 H 1181.59 -1.61982 -0.993064 0
M  V30 12027 H 1179.74 -1.74498 -3.47106 0
M  V30 12028 H 1181.42 -4.03947 -2.22766 0
M  V30 12029 H 1179.66 -3.83169 -2.03382 0
M  V30 12030 H 1180.33 -4.1537 -3.63555 0
M  V30 12031 H 1182.81 -2.23075 -3.5125 0
M  V30 12032 H 1181.68 -2.55815 -4.85644 0
M  V30 12033 H 1181.94 -0.903528 -4.32769 0
M  V30 12034 N 1181 1.07532 -1.15215 0
M  V30 12035 C 1182.42 1.32183 -0.894411 0
M  V30 12036 C 1182.62 1.96188 0.459614 0
M  V30 12037 O 1181.67 2.22057 1.20195 0
M  V30 12038 C 1182.99 2.21473 -2.03397 0
M  V30 12039 C 1184.53 2.34927 -2.06829 0
M  V30 12040 C 1185.01 3.27564 -3.20103 0
M  V30 12041 N 1186.5 3.35144 -3.19738 0
M  V30 12042 C 1187.24 4.0688 -4.04025 0
M  V30 12043 N 1186.73 4.81246 -4.98371 0
M  V30 12044 N 1188.52 4.02802 -3.92055 0
M  V30 12045 H 1180.68 0.643732 -2.0241 0
M  V30 12046 H 1182.94 0.346272 -0.882496 0
M  V30 12047 H 1182.64 1.81701 -3.01127 0
M  V30 12048 H 1182.52 3.2199 -1.96475 0
M  V30 12049 H 1184.91 2.73953 -1.09699 0
M  V30 12050 H 1184.99 1.34121 -2.17819 0
M  V30 12051 H 1184.63 2.89258 -4.17483 0
M  V30 12052 H 1184.56 4.2832 -3.06349 0
M  V30 12053 H 1187.05 2.82135 -2.51412 0
M  V30 12054 H 1187.36 5.33472 -5.59131 0
M  V30 12055 H 1185.71 4.80268 -5.02362 0
M  V30 12056 H 1188.9 3.43816 -3.17661 0
M  V30 12057 H 1189.07 4.58443 -4.57967 0
M  V30 12058 N 1182.48 0.948665 1.2585 0
M  V30 12059 C 1183.73 0.595938 1.92695 0
M  V30 12060 C 1184.04 -0.870229 1.75175 0
M  V30 12061 O 1185.25 -1.33266 2.36543 0
M  V30 12062 C 1183.7 1.01511 3.45288 0
M  V30 12063 C 1183.31 2.50341 3.71528 0
M  V30 12064 C 1185.06 0.734635 4.18095 0
M  V30 12065 C 1182.96 2.8609 5.17597 0
M  V30 12066 H 1181.89 0.219171 0.721443 0
M  V30 12067 H 1184.54 1.15231 1.42807 0
M  V30 12068 H 1182.93 0.387201 3.94102 0
M  V30 12069 H 1184.1 3.18101 3.3339 0
M  V30 12070 H 1182.42 2.75797 3.11969 0
M  V30 12071 H 1185.01 0.977962 5.25681 0
M  V30 12072 H 1185.36 -0.328807 4.14999 0
M  V30 12073 H 1185.89 1.32262 3.75169 0
M  V30 12074 H 1182.63 3.91427 5.25799 0
M  V30 12075 H 1182.15 2.22999 5.56805 0
M  V30 12076 H 1183.83 2.74959 5.85668 0
M  V30 12077 N 1183.96 -1.40369 0.716545 0
M  V30 12078 C 1185.19 -2.04884 0.265757 0
M  V30 12079 C 1185.6 -1.54095 -1.09779 0
M  V30 12080 O 1184.94 -0.692944 -1.70129 0
M  V30 12081 C 1185 -3.59103 0.16887 0
M  V30 12082 C 1184.67 -4.32785 1.46786 0
M  V30 12083 C 1185.66 -4.6067 2.40997 0
M  V30 12084 C 1183.35 -4.71676 1.72705 0
M  V30 12085 C 1185.34 -5.26432 3.59372 0
M  V30 12086 C 1183.03 -5.3717 2.91362 0
M  V30 12087 C 1184.03 -5.64478 3.84517 0
M  V30 12088 O 1183.71 -6.28618 5.01093 0
M  V30 12089 H 1183.45 -0.665794 0.117025 0
M  V30 12090 H 1186 -1.80746 0.975698 0
M  V30 12091 H 1184.23 -3.82064 -0.597023 0
M  V30 12092 H 1185.92 -4.05145 -0.247483 0
M  V30 12093 H 1186.69 -4.31087 2.22236 0
M  V30 12094 H 1182.56 -4.49789 1.0105 0
M  V30 12095 H 1186.11 -5.47663 4.321 0
M  V30 12096 H 1182.01 -5.66173 3.1003 0
M  V30 12097 H 1182.77 -6.47115 5.01183 0
M  V30 12098 N 1185.44 -0.462799 -1.50652 0
M  V30 12099 C 1186.37 0.381469 -2.24989 0
M  V30 12100 C 1187.35 1.00328 -1.27957 0
M  V30 12101 O 1188.53 1.04082 -1.5716 0
M  V30 12102 C 1185.66 1.53378 -3.01981 0
M  V30 12103 C 1184.7 1.03017 -4.13872 0
M  V30 12104 S 1185.54 -0.048447 -5.35478 0
M  V30 12105 C 1186.69 1.10794 -6.16016 0
M  V30 12106 H 1186.93 -0.249578 -2.96251 0
M  V30 12107 H 1184.46 -0.247583 -1.52402 0
M  V30 12108 H 1186.42 2.19425 -3.46934 0
M  V30 12109 H 1185.08 2.13632 -2.30261 0
M  V30 12110 H 1184.27 1.8926 -4.67115 0
M  V30 12111 H 1183.87 0.447548 -3.71313 0
M  V30 12112 H 1186.17 2.02125 -6.46646 0
M  V30 12113 H 1187.11 0.614937 -7.05425 0
M  V30 12114 H 1187.52 1.35802 -5.47922 0
M  V30 12115 N 1186.91 1.56388 -0.195085 0
M  V30 12116 C 1188.33 1.58788 0.160758 0
M  V30 12117 C 1188.53 1.21125 1.61031 0
M  V30 12118 O 1187.59 0.933994 2.34591 0
M  V30 12119 C 1188.9 3.00366 -0.141588 0
M  V30 12120 C 1190.45 3.12893 -0.0816947 0
M  V30 12121 C 1190.92 4.56604 -0.35735 0
M  V30 12122 N 1192.41 4.62188 -0.305968 0
M  V30 12123 C 1193.15 5.71276 -0.493108 0
M  V30 12124 N 1192.64 6.8883 -0.740595 0
M  V30 12125 N 1194.44 5.60473 -0.427365 0
M  V30 12126 H 1186.59 1.79151 -1.14099 0
M  V30 12127 H 1188.85 0.831446 -0.455413 0
M  V30 12128 H 1188.56 3.32483 -1.14666 0
M  V30 12129 H 1188.43 3.73082 0.555834 0
M  V30 12130 H 1190.82 2.80589 0.913978 0
M  V30 12131 H 1190.9 2.42564 -0.812193 0
M  V30 12132 H 1190.54 4.8962 -1.35034 0
M  V30 12133 H 1190.47 5.25124 0.394036 0
M  V30 12134 H 1192.96 3.77705 -0.121298 0
M  V30 12135 H 1193.28 7.67862 -0.872201 0
M  V30 12136 H 1191.62 6.90637 -0.777488 0
M  V30 12137 H 1194.81 4.67513 -0.234436 0
M  V30 12138 H 1194.99 6.45429 -0.576627 0
M  V30 12139 N 1188.39 -0.0785156 1.57404 0
M  V30 12140 C 1189.8 -0.631132 1.75709 0
M  V30 12141 C 1190.15 -1.78261 0.819605 0
M  V30 12142 O 1189.28 -2.164 0.00206912 0
M  V30 12143 C 1189.87 -1.15168 3.18625 0
M  V30 12144 C 1188.43 -1.65021 3.38297 0
M  V30 12145 C 1187.58 -0.566773 2.71446 0
M  V30 12146 H 1190.53 0.147631 1.58012 0
M  V30 12147 H 1190.55 -2.02065 3.22413 0
M  V30 12148 H 1190.06 -0.313399 3.86833 0
M  V30 12149 H 1188.17 -2.51196 2.75194 0
M  V30 12150 H 1188.28 -1.73179 4.46706 0
M  V30 12151 H 1186.64 -1.01021 2.33809 0
M  V30 12152 H 1187.43 0.261204 3.42305 0
M  V30 12153 N 1189.87 -1.5367 -0.349747 0
M  V30 12154 C 1190.82 -1.81223 -1.42922 0
M  V30 12155 C 1191.79 -0.657536 -1.52531 0
M  V30 12156 O 1192.97 -0.90134 -1.68168 0
M  V30 12157 C 1190.11 -2.022 -2.79659 0
M  V30 12158 C 1189.23 -3.29915 -2.78891 0
M  V30 12159 C 1188.36 -3.40993 -4.07305 0
M  V30 12160 C 1187.4 -4.6268 -4.00741 0
M  V30 12161 N 1186.54 -4.70826 -5.20833 0
M  V30 12162 H 1191.38 -2.73328 -1.18727 0
M  V30 12163 H 1188.91 -1.35386 -0.57525 0
M  V30 12164 H 1190.87 -2.12351 -3.59114 0
M  V30 12165 H 1189.5 -1.13416 -3.0222 0
M  V30 12166 H 1188.55 -3.28637 -1.91577 0
M  V30 12167 H 1189.87 -4.19459 -2.69917 0
M  V30 12168 H 1189.02 -3.50542 -4.95182 0
M  V30 12169 H 1187.76 -2.49493 -4.19052 0
M  V30 12170 H 1186.76 -4.53215 -3.11249 0
M  V30 12171 H 1187.99 -5.55538 -3.90582 0
M  V30 12172 H 1185.93 -3.82233 -5.33136 0
M  V30 12173 H 1185.85 -5.54297 -5.14092 0
M  V30 12174 H 1187.12 -4.84677 -6.10499 0
M  V30 12175 N 1191.35 0.610423 -1.45298 0
M  V30 12176 C 1192.3 1.71552 -1.5018 0
M  V30 12177 C 1193.28 1.56697 -0.365357 0
M  V30 12178 O 1194.47 1.66082 -0.612029 0
M  V30 12179 C 1191.6 3.10298 -1.46867 0
M  V30 12180 C 1190.69 3.30549 -2.65703 0
M  V30 12181 N 1191.08 3.21073 -3.90827 0
M  V30 12182 C 1189.38 3.6141 -2.6134 0
M  V30 12183 C 1190.08 3.42577 -4.70123 0
M  V30 12184 N 1189.06 3.66434 -4.01531 0
M  V30 12185 H 1192.86 1.62714 -2.44747 0
M  V30 12186 H 1190.37 0.813587 -1.40551 0
M  V30 12187 H 1192.37 3.89575 -1.48449 0
M  V30 12188 H 1191.03 3.20286 -0.533548 0
M  V30 12189 H 1192.04 2.99537 -4.2249 0
M  V30 12190 H 1188.72 3.78253 -1.76722 0
M  V30 12191 H 1190.11 3.40669 -5.79132 0
M  V30 12192 N 1192.83 1.32541 0.852676 0
M  V30 12193 C 1194.08 1.22567 1.60188 0
M  V30 12194 C 1194.39 -0.210594 1.94463 0
M  V30 12195 O 1195.59 -0.432214 2.68038 0
M  V30 12196 C 1194.05 2.14678 2.88862 0
M  V30 12197 C 1193.66 3.63398 2.62004 0
M  V30 12198 C 1195.4 2.13545 3.66877 0
M  V30 12199 C 1193.31 4.47464 3.86691 0
M  V30 12200 H 1192.24 0.455184 0.601102 0
M  V30 12201 H 1194.89 1.57515 0.941347 0
M  V30 12202 H 1193.27 1.72647 3.56383 0
M  V30 12203 H 1194.45 4.13783 2.02782 0
M  V30 12204 H 1192.76 3.66681 1.97316 0
M  V30 12205 H 1195.36 2.73589 4.59405 0
M  V30 12206 H 1195.7 1.12694 4.00756 0
M  V30 12207 H 1196.23 2.53866 3.06263 0
M  V30 12208 H 1192.97 5.49136 3.57952 0
M  V30 12209 H 1192.49 4.01829 4.45302 0
M  V30 12210 H 1194.17 4.60565 4.5441 0
M  V30 12211 N 1194.3 -1.0692 1.15784 0
M  V30 12212 C 1195.25 -2.14235 0.858616 0
M  V30 12213 C 1196.22 -1.65006 -0.190295 0
M  V30 12214 O 1197.41 -1.90715 -0.0568853 0
M  V30 12215 C 1194.55 -3.43229 0.35888 0
M  V30 12216 C 1193.66 -4.06225 1.46987 0
M  V30 12217 C 1192.79 -5.2307 0.925812 0
M  V30 12218 C 1191.83 -5.78037 2.01345 0
M  V30 12219 N 1190.97 -6.86206 1.48544 0
M  V30 12220 H 1195.81 -2.3917 1.77769 0
M  V30 12221 H 1193.35 -1.17354 0.886925 0
M  V30 12222 H 1195.31 -4.17169 0.0508198 0
M  V30 12223 H 1193.94 -3.18531 -0.523259 0
M  V30 12224 H 1192.99 -3.29895 1.89403 0
M  V30 12225 H 1194.3 -4.43081 2.29088 0
M  V30 12226 H 1193.45 -6.04011 0.570555 0
M  V30 12227 H 1192.19 -4.87644 0.0740371 0
M  V30 12228 H 1191.2 -4.95738 2.37748 0
M  V30 12229 H 1192.42 -6.15517 2.86907 0
M  V30 12230 H 1190.37 -6.52711 0.656092 0
M  V30 12231 H 1190.29 -7.2197 2.24266 0
M  V30 12232 H 1191.55 -7.70842 1.15856 0
M  V30 12233 N 1195.78 -0.955326 -1.25345 0
M  V30 12234 C 1197.02 -0.618161 -1.94828 0
M  V30 12235 C 1197.39 0.829532 -1.73155 0
M  V30 12236 O 1198.59 1.27632 -2.36566 0
M  V30 12237 C 1196.86 -0.967887 -3.44045 0
M  V30 12238 S 1198.42 -0.743401 -4.32457 0
M  V30 12239 H 1195.24 -0.227189 -0.673726 0
M  V30 12240 H 1197.84 -1.22965 -1.51986 0
M  V30 12241 H 1196.54 -2.01864 -3.57322 0
M  V30 12242 H 1196.07 -0.346677 -3.9187 0
M  V30 12243 H 1198.09 0.385467 -4.94701 0
M  V30 12244 N 1197.26 1.39987 -0.723979 0
M  V30 12245 C 1198.51 2.01514 -0.276365 0
M  V30 12246 C 1198.86 1.56399 1.12058 0
M  V30 12247 O 1198.16 0.777927 1.75097 0
M  V30 12248 C 1198.35 3.56101 -0.304472 0
M  V30 12249 C 1198.18 4.16223 -1.70261 0
M  V30 12250 C 1196.95 4.49292 -2.31225 0
M  V30 12251 C 1199.15 4.40512 -2.65431 0
M  V30 12252 N 1197.13 4.94854 -3.63308 0
M  V30 12253 C 1198.5 4.88158 -3.82232 0
M  V30 12254 C 1200.55 4.22562 -2.63335 0
M  V30 12255 C 1199.26 5.19739 -4.97256 0
M  V30 12256 C 1201.28 4.5525 -3.77493 0
M  V30 12257 C 1200.65 5.03093 -4.93028 0
M  V30 12258 H 1196.74 0.768031 -0.147146 0
M  V30 12259 H 1199.33 1.70085 -0.947581 0
M  V30 12260 H 1197.5 3.86941 0.336344 0
M  V30 12261 H 1199.23 4.04381 0.160647 0
M  V30 12262 H 1195.99 4.36712 -1.83248 0
M  V30 12263 H 1196.41 5.22007 -4.31089 0
M  V30 12264 H 1201.05 3.84786 -1.75212 0
M  V30 12265 H 1198.77 5.56426 -5.86017 0
M  V30 12266 H 1202.36 4.42995 -3.77156 0
M  V30 12267 H 1201.24 5.27909 -5.79898 0
M  V30 12268 N 1198.74 0.470782 1.50404 0
M  V30 12269 C 1199.7 -0.312227 2.27063 0
M  V30 12270 C 1200.7 -0.920709 1.31832 0
M  V30 12271 O 1201.89 -0.789937 1.5526 0
M  V30 12272 C 1199.02 -1.44477 3.0877 0
M  V30 12273 H 1200.22 0.36006 2.97731 0
M  V30 12274 H 1197.77 0.224837 1.54674 0
M  V30 12275 H 1198.51 -2.15212 2.42599 0
M  V30 12276 H 1198.29 -1.01426 3.78755 0
M  V30 12277 H 1199.78 -1.99713 3.66749 0
M  V30 12278 N 1200.22 -1.56282 0.203376 0
M  V30 12279 C 1201.63 -1.84146 -0.307752 0
M  V30 12280 C 1201.98 -1.12429 -1.60792 0
M  V30 12281 O 1201.1 -0.387852 -2.12896 0
M  V30 12282 C 1201.7 -3.34053 -0.565152 0
M  V30 12283 C 1200.26 -3.62298 -1.02063 0
M  V30 12284 C 1199.41 -2.77202 -0.0737343 0
M  V30 12285 H 1202.36 -1.52848 0.426983 0
M  V30 12286 H 1202.38 -3.53273 -1.41345 0
M  V30 12287 H 1201.89 -3.86222 0.381301 0
M  V30 12288 H 1199.99 -3.1557 -1.98107 0
M  V30 12289 H 1200.1 -4.70424 -0.907614 0
M  V30 12290 H 1198.47 -2.48074 -0.577169 0
M  V30 12291 H 1199.25 -3.32164 0.86731 0
M  V30 12292 N 1201.7 0.070167 -1.57444 0
M  V30 12293 C 1203.11 0.424991 -1.53838 0
M  V30 12294 C 1203.31 1.79076 -0.923793 0
M  V30 12295 O 1202.37 2.46939 -0.527002 0
M  V30 12296 C 1203.68 0.364562 -2.98482 0
M  V30 12297 C 1205.23 0.444631 -3.09826 0
M  V30 12298 C 1205.7 0.414093 -4.56124 0
M  V30 12299 N 1207.19 0.474119 -4.60767 0
M  V30 12300 C 1207.93 0.472729 -5.71448 0
M  V30 12301 N 1207.43 0.426059 -6.91489 0
M  V30 12302 N 1209.22 0.519408 -5.59695 0
M  V30 12303 H 1201.37 -0.824117 -1.9576 0
M  V30 12304 H 1203.63 -0.309401 -0.896089 0
M  V30 12305 H 1203.34 -0.572343 -3.47012 0
M  V30 12306 H 1203.21 1.17414 -3.5846 0
M  V30 12307 H 1205.6 1.37196 -2.61269 0
M  V30 12308 H 1205.68 -0.393547 -2.52755 0
M  V30 12309 H 1205.32 -0.509394 -5.05339 0
M  V30 12310 H 1205.25 1.26983 -5.11061 0
M  V30 12311 H 1207.75 0.514371 -3.74383 0
M  V30 12312 H 1208.06 0.428969 -7.71609 0
M  V30 12313 H 1206.4 0.392722 -6.9389 0
M  V30 12314 H 1209.59 0.553573 -4.64815 0
M  V30 12315 H 1209.77 0.514856 -6.45951 0
M  V30 12316 N 1203.17 1.53854 0.341593 0
M  V30 12317 C 1204.58 1.62623 0.917093 0
M  V30 12318 C 1204.94 0.508781 1.89488 0
M  V30 12319 O 1204.06 -0.361171 2.13365 0
M  V30 12320 C 1204.66 2.94775 1.67012 0
M  V30 12321 C 1203.21 3.058 2.19461 0
M  V30 12322 C 1202.36 2.58082 1.01433 0
M  V30 12323 H 1205.31 1.58248 0.119674 0
M  V30 12324 H 1205.33 2.83924 2.53313 0
M  V30 12325 H 1204.85 3.76085 0.958221 0
M  V30 12326 H 1202.95 2.29128 2.93821 0
M  V30 12327 H 1203.06 4.11302 2.45698 0
M  V30 12328 H 1201.42 2.13537 1.38831 0
M  V30 12329 H 1202.21 3.41833 0.317033 0
M  V30 12330 N 1204.65 -0.602709 1.4562 0
M  V30 12331 C 1205.9 -1.36158 1.49891 0
M  V30 12332 C 1206.23 -1.93977 0.142581 0
M  V30 12333 O 1205.48 -1.75822 -0.859374 0
M  V30 12334 C 1205.78 -2.52474 2.52966 0
M  V30 12335 C 1205.45 -2.12772 3.97541 0
M  V30 12336 C 1204.11 -2.01658 4.36907 0
M  V30 12337 C 1206.46 -1.8186 4.88443 0
M  V30 12338 C 1203.79 -1.57862 5.65063 0
M  V30 12339 C 1206.14 -1.39548 6.17016 0
M  V30 12340 C 1204.8 -1.26997 6.55308 0
M  V30 12341 H 1204.07 -0.498236 0.54849 0
M  V30 12342 H 1206.72 -0.680738 1.78992 0
M  V30 12343 H 1205.03 -3.25917 2.17452 0
M  V30 12344 H 1206.72 -3.10701 2.53507 0
M  V30 12345 H 1203.31 -2.22349 3.66413 0
M  V30 12346 H 1207.5 -1.89341 4.58763 0
M  V30 12347 H 1202.75 -1.46771 5.93522 0
M  V30 12348 H 1206.93 -1.14677 6.86893 0
M  V30 12349 H 1204.55 -0.928346 7.5451 0
M  V30 12350 N 1206.13 -1.32992 -0.845635 0
M  V30 12351 C 1207.55 -1.12179 -1.13526 0
M  V30 12352 C 1207.75 0.091795 -2.01291 0
M  V30 12353 O 1206.8 0.774051 -2.40343 0
M  V30 12354 C 1208.11 -2.40584 -1.80388 0
M  V30 12355 C 1209.66 -2.46427 -1.92984 0
M  V30 12356 C 1210.14 -3.74776 -2.63261 0
M  V30 12357 N 1211.63 -3.75809 -2.7078 0
M  V30 12358 C 1212.36 -4.71829 -3.2583 0
M  V30 12359 N 1211.86 -5.78219 -3.81621 0
M  V30 12360 N 1213.65 -4.59313 -3.24018 0
M  V30 12361 H 1205.8 -2.10786 -0.261369 0
M  V30 12362 H 1208.07 -0.931053 -0.17845 0
M  V30 12363 H 1207.77 -3.29357 -1.23357 0
M  V30 12364 H 1207.65 -2.52225 -2.80468 0
M  V30 12365 H 1210.03 -1.58108 -2.4917 0
M  V30 12366 H 1210.11 -2.38732 -0.918732 0
M  V30 12367 H 1209.76 -4.63474 -2.07736 0
M  V30 12368 H 1209.69 -3.79746 -3.6483 0
M  V30 12369 H 1212.18 -2.98916 -2.31209 0
M  V30 12370 H 1212.49 -6.47531 -4.2181 0
M  V30 12371 H 1210.84 -5.81962 -3.79927 0
M  V30 12372 H 1214.03 -3.75358 -2.79685 0
M  V30 12373 H 1214.2 -5.34316 -3.6662 0
M  V30 12374 N 1207.61 1.06304 -1.1635 0
M  V30 12375 C 1208.54 2.13209 -0.81346 0
M  V30 12376 C 1209.52 1.61174 0.21484 0
M  V30 12377 O 1210.7 1.8824 0.0989458 0
M  V30 12378 C 1207.83 3.38039 -0.211498 0
M  V30 12379 C 1206.88 4.08875 -1.21339 0
M  V30 12380 S 1207.71 4.58894 -2.76001 0
M  V30 12381 C 1208.86 5.86985 -2.17254 0
M  V30 12382 H 1209.1 2.42572 -1.7189 0
M  V30 12383 H 1206.63 1.18737 -0.986957 0
M  V30 12384 H 1208.59 4.10296 0.129349 0
M  V30 12385 H 1207.25 3.06834 0.671705 0
M  V30 12386 H 1206.44 4.98528 -0.740631 0
M  V30 12387 H 1206.04 3.42632 -1.49932 0
M  V30 12388 H 1208.34 6.59738 -1.54115 0
M  V30 12389 H 1209.28 6.38991 -3.05117 0
M  V30 12390 H 1209.69 5.41012 -1.61141 0
M  V30 12391 N 1209.09 0.96196 1.24836 0
M  V30 12392 C 1210.02 0.506241 2.27946 0
M  V30 12393 C 1211 -0.451183 1.64007 0
M  V30 12394 O 1212.18 -0.348552 1.91046 0
M  V30 12395 C 1209.31 -0.209846 3.46665 0
M  V30 12396 C 1208.27 0.663035 4.22833 0
M  V30 12397 C 1207.59 -0.184216 5.34383 0
M  V30 12398 C 1208.89 1.94479 4.84742 0
M  V30 12399 H 1210.59 1.36805 2.66317 0
M  V30 12400 H 1208.13 0.65926 1.28023 0
M  V30 12401 H 1210.08 -0.539838 4.17928 0
M  V30 12402 H 1208.81 -1.10596 3.07305 0
M  V30 12403 H 1207.47 0.976216 3.53363 0
M  V30 12404 H 1207.12 -1.08031 4.91262 0
M  V30 12405 H 1206.82 0.39657 5.8626 0
M  V30 12406 H 1208.34 -0.509009 6.08475 0
M  V30 12407 H 1209.75 1.68074 5.48109 0
M  V30 12408 H 1208.15 2.47183 5.46828 0
M  V30 12409 H 1209.22 2.64332 4.06517 0
M  V30 12410 N 1210.56 -1.39601 0.731392 0
M  V30 12411 C 1211.97 -1.83424 0.348194 0
M  V30 12412 C 1212.33 -1.61106 -1.11979 0
M  V30 12413 O 1211.45 -1.1003 -1.86339 0
M  V30 12414 C 1212.05 -3.32982 0.6252 0
M  V30 12415 C 1210.6 -3.75238 0.295536 0
M  V30 12416 C 1209.75 -2.62642 0.88964 0
M  V30 12417 H 1212.7 -1.28644 0.929318 0
M  V30 12418 H 1212.72 -3.80357 -0.104254 0
M  V30 12419 H 1212.24 -3.49193 1.69368 0
M  V30 12420 H 1210.34 -3.64615 -0.767254 0
M  V30 12421 H 1210.45 -4.72781 0.775576 0
M  V30 12422 H 1208.81 -2.52726 0.316529 0
M  V30 12423 H 1209.6 -2.81661 1.96271 0
M  V30 12424 N 1212.04 -0.478751 -1.50152 0
M  V30 12425 C 1213.27 0.0709455 -2.06478 0
M  V30 12426 C 1213.68 1.33376 -1.34192 0
M  V30 12427 O 1213.02 1.79133 -0.40707 0
M  V30 12428 C 1213.09 0.417322 -3.5707 0
M  V30 12429 C 1212.75 -0.744563 -4.50894 0
M  V30 12430 C 1213.75 -1.62879 -4.93727 0
M  V30 12431 C 1211.43 -0.937062 -4.93482 0
M  V30 12432 C 1213.43 -2.68985 -5.77863 0
M  V30 12433 C 1211.11 -2.00134 -5.77399 0
M  V30 12434 C 1212.11 -2.87609 -6.19492 0
M  V30 12435 O 1211.8 -3.92203 -7.01735 0
M  V30 12436 H 1211.53 -0.00720177 -0.675962 0
M  V30 12437 H 1214.08 -0.668797 -1.94207 0
M  V30 12438 H 1212.31 1.21036 -3.6727 0
M  V30 12439 H 1214 0.903002 -3.95728 0
M  V30 12440 H 1214.77 -1.49179 -4.61488 0
M  V30 12441 H 1210.65 -0.265636 -4.60234 0
M  V30 12442 H 1214.19 -3.37293 -6.10639 0
M  V30 12443 H 1210.09 -2.13837 -6.09052 0
M  V30 12444 H 1210.86 -3.89284 -7.2 0
M  V30 12445 N 1213.52 1.56172 -0.211661 0
M  V30 12446 C 1214.77 1.98332 0.423332 0
M  V30 12447 C 1215.1 1.09895 1.60115 0
M  V30 12448 O 1214.37 0.154477 1.93886 0
M  V30 12449 C 1214.66 3.49495 0.86747 0
M  V30 12450 C 1214.51 4.48708 -0.313302 0
M  V30 12451 C 1215.83 4.04793 1.72716 0
M  V30 12452 H 1212.95 0.72107 0.152402 0
M  V30 12453 H 1215.59 1.87521 -0.305912 0
M  V30 12454 H 1213.74 3.58839 1.48885 0
M  V30 12455 H 1215.41 4.51385 -0.951291 0
M  V30 12456 H 1213.66 4.2299 -0.96238 0
M  V30 12457 H 1214.33 5.51985 0.0402402 0
M  V30 12458 H 1216.8 3.98332 1.20296 0
M  V30 12459 H 1215.68 5.10898 2.00684 0
M  V30 12460 H 1215.94 3.51067 2.68709 0
M  V30 12461 N 1215 -0.0618163 1.57479 0
M  V30 12462 C 1215.91 -1.09006 2.07738 0
M  V30 12463 C 1216.92 -1.4176 1.00896 0
M  V30 12464 O 1218.1 -1.51737 1.32431 0
M  V30 12465 C 1215.17 -2.38153 2.5196 0
M  V30 12466 C 1214.23 -2.12279 3.73143 0
M  V30 12467 C 1213.46 -3.35269 4.15248 0
M  V30 12468 O 1213.68 -4.44758 3.57137 0
M  V30 12469 O 1212.62 -3.22894 5.0796 0
M  V30 12470 H 1216.44 -0.693059 2.95686 0
M  V30 12471 H 1214.03 -0.276628 1.46817 0
M  V30 12472 H 1215.91 -3.14139 2.80882 0
M  V30 12473 H 1214.58 -2.77213 1.67137 0
M  V30 12474 H 1213.49 -1.33966 3.49291 0
M  V30 12475 H 1214.82 -1.78094 4.5885 0
M  V30 12476 N 1216.48 -1.54033 -0.333429 0
M  V30 12477 C 1217.42 -1.82729 -1.40992 0
M  V30 12478 C 1218.39 -0.673677 -1.51825 0
M  V30 12479 O 1219.58 -0.919126 -1.67203 0
M  V30 12480 C 1216.72 -2.05155 -2.77498 0
M  V30 12481 C 1215.83 -3.32854 -2.75376 0
M  V30 12482 C 1214.97 -3.45294 -4.03665 0
M  V30 12483 C 1214.01 -4.66905 -3.95811 0
M  V30 12484 N 1213.14 -4.76323 -5.1581 0
M  V30 12485 H 1217.98 -2.74572 -1.15821 0
M  V30 12486 H 1215.52 -1.35988 -0.560859 0
M  V30 12487 H 1217.48 -2.16148 -3.56841 0
M  V30 12488 H 1216.11 -1.16615 -3.01 0
M  V30 12489 H 1215.16 -3.30651 -1.88081 0
M  V30 12490 H 1216.47 -4.22299 -2.65453 0
M  V30 12491 H 1215.63 -3.55775 -4.91436 0
M  V30 12492 H 1214.36 -2.53924 -4.16382 0
M  V30 12493 H 1213.37 -4.56491 -3.06425 0
M  V30 12494 H 1214.59 -5.59649 -3.84668 0
M  V30 12495 H 1212.54 -3.87866 -5.29052 0
M  V30 12496 H 1212.46 -5.59719 -5.08184 0
M  V30 12497 H 1213.73 -4.91125 -6.05324 0
M  V30 12498 N 1217.95 0.594978 -1.45938 0
M  V30 12499 C 1218.9 1.726 -1.55923 0
M  V30 12500 C 1219.9 1.63893 -0.428411 0
M  V30 12501 O 1221.1 1.69535 -0.604815 0
M  V30 12502 H 1217.48 0.570447 -0.489994 0
M  V30 12503 H 1219.45 1.61308 -2.51043 0
M  V30 12504 C 1218.2 3.10988 -1.55505 0
M  V30 12505 H 1217.52 3.18353 -2.4185 0
M  V30 12506 H 1218.96 3.8992 -1.66548 0
M  V30 12507 C 1217.42 3.35721 -0.281573 0
M  V30 12508 O 1217.95 3.96676 0.633336 0
M  V30 12509 N 1216.16 2.90083 -0.173314 0
M  V30 12510 H 1215.7 2.4066 -0.91872 0
M  V30 12511 H 1215.66 3.07005 0.677903 0
M  V30 12512 N 1219.43 1.33438 0.838571 0
M  V30 12513 C 1220.85 1.12779 1.12929 0
M  V30 12514 C 1221.05 -0.0811188 2.01337 0
M  V30 12515 O 1220.1 -0.761294 2.4075 0
M  V30 12516 C 1221.42 2.41537 1.7911 0
M  V30 12517 C 1222.97 2.47447 1.91674 0
M  V30 12518 C 1223.44 3.76167 2.6127 0
M  V30 12519 N 1224.93 3.7724 2.68783 0
M  V30 12520 C 1225.67 4.7355 3.23323 0
M  V30 12521 N 1225.16 5.80235 3.78549 0
M  V30 12522 N 1226.96 4.61025 3.21578 0
M  V30 12523 H 1219.11 2.10921 0.250187 0
M  V30 12524 H 1221.37 0.931986 0.17351 0
M  V30 12525 H 1221.08 3.30006 1.21609 0
M  V30 12526 H 1220.95 2.53709 2.79127 0
M  V30 12527 H 1223.34 1.59427 2.48328 0
M  V30 12528 H 1223.42 2.39216 0.906058 0
M  V30 12529 H 1223.06 4.64569 2.05275 0
M  V30 12530 H 1222.99 3.81675 3.62811 0
M  V30 12531 H 1225.48 3.00138 2.29621 0
M  V30 12532 H 1225.8 6.49759 4.1837 0
M  V30 12533 H 1224.14 5.83969 3.76836 0
M  V30 12534 H 1227.33 3.76836 2.77691 0
M  V30 12535 H 1227.5 5.36253 3.63781 0
M  V30 12536 N 1220.91 -1.05686 1.16912 0
M  V30 12537 C 1222.32 -1.60059 0.961153 0
M  V30 12538 C 1222.67 -1.89894 -0.493409 0
M  V30 12539 O 1221.8 -1.67692 -1.36778 0
M  V30 12540 C 1222.39 -2.90803 1.73837 0
M  V30 12541 C 1220.95 -3.41854 1.57522 0
M  V30 12542 C 1220.1 -2.15658 1.74319 0
M  V30 12543 H 1223.05 -0.885592 1.31693 0
M  V30 12544 H 1223.07 -3.60485 1.21781 0
M  V30 12545 H 1222.58 -2.69056 2.79697 0
M  V30 12546 H 1220.68 -3.68647 0.541284 0
M  V30 12547 H 1220.8 -4.16771 2.36302 0
M  V30 12548 H 1219.16 -2.26177 1.17115 0
M  V30 12549 H 1219.94 -1.96386 2.8158 0
M  V30 12550 N 1222.39 -0.968567 -1.24324 0
M  V30 12551 C 1223.61 -0.648166 -1.97012 0
M  V30 12552 C 1224.04 0.775842 -1.71354 0
M  V30 12553 O 1223.4 1.52672 -0.977804 0
M  V30 12554 C 1223.44 -0.929974 -3.48402 0
M  V30 12555 O 1222.55 -0.015854 -4.12397 0
M  V30 12556 H 1221.89 -0.244961 -0.617163 0
M  V30 12557 H 1224.42 -1.29895 -1.58077 0
M  V30 12558 H 1224.43 -0.861863 -3.98793 0
M  V30 12559 H 1223.1 -1.96776 -3.66404 0
M  V30 12560 H 1221.68 -0.137361 -3.72647 0
M  V30 12561 N 1223.87 1.39211 -0.738786 0
M  V30 12562 C 1225.1 2.04435 -0.298318 0
M  V30 12563 C 1225.5 1.55822 1.07314 0
M  V30 12564 O 1224.85 0.719922 1.69005 0
M  V30 12565 C 1224.91 3.58789 -0.225979 0
M  V30 12566 C 1224.57 4.30395 -1.53653 0
M  V30 12567 C 1225.57 4.56777 -2.48295 0
M  V30 12568 C 1223.26 4.68869 -1.80187 0
M  V30 12569 C 1225.25 5.20648 -3.67702 0
M  V30 12570 C 1222.94 5.32467 -2.99871 0
M  V30 12571 C 1223.93 5.58289 -3.93449 0
M  V30 12572 O 1223.62 6.20567 -5.1103 0
M  V30 12573 H 1223.35 0.663848 -0.127603 0
M  V30 12574 H 1225.91 1.79171 -1.00433 0
M  V30 12575 H 1224.14 3.82965 0.536164 0
M  V30 12576 H 1225.83 4.05487 0.182996 0
M  V30 12577 H 1226.59 4.27497 -2.29066 0
M  V30 12578 H 1222.47 4.48124 -1.08193 0
M  V30 12579 H 1226.02 5.4072 -4.40759 0
M  V30 12580 H 1221.91 5.61169 -3.18998 0
M  V30 12581 H 1222.68 6.39059 -5.11415 0
M  V30 12582 N 1225.34 0.486708 1.49896 0
M  V30 12583 C 1226.29 -0.299294 2.28851 0
M  V30 12584 C 1227.26 -0.973251 1.346 0
M  V30 12585 O 1228.45 -0.982678 1.63548 0
M  V30 12586 C 1225.59 -1.36624 3.16904 0
M  V30 12587 C 1224.7 -0.705492 4.262 0
M  V30 12588 C 1223.83 -1.75165 5.01488 0
M  V30 12589 C 1222.87 -1.072 6.0264 0
M  V30 12590 N 1222.01 -2.06172 6.71147 0
M  V30 12591 H 1226.85 0.380272 2.95564 0
M  V30 12592 H 1224.39 0.199377 1.45743 0
M  V30 12593 H 1226.35 -1.99666 3.66319 0
M  V30 12594 H 1224.98 -2.01476 2.52205 0
M  V30 12595 H 1224.03 0.0378757 3.80381 0
M  V30 12596 H 1225.34 -0.169774 4.98511 0
M  V30 12597 H 1224.49 -2.45749 5.547 0
M  V30 12598 H 1223.23 -2.3212 4.28919 0
M  V30 12599 H 1222.24 -0.351868 5.48673 0
M  V30 12600 H 1223.46 -0.509139 6.77189 0
M  V30 12601 H 1221.41 -2.62115 6.01358 0
M  V30 12602 H 1221.33 -1.57627 7.39385 0
M  V30 12603 H 1222.59 -2.76088 7.28969 0
M  V30 12604 N 1226.82 -1.56058 0.219941 0
M  V30 12605 C 1228.05 -2.031 -0.42014 0
M  V30 12606 C 1228.47 -1.09875 -1.52673 0
M  V30 12607 O 1227.83 -0.0866458 -1.81093 0
M  V30 12608 C 1227.88 -3.48389 -0.93047 0
M  V30 12609 O 1226.98 -3.583 -2.04192 0
M  V30 12610 H 1226.32 -0.657129 -0.0952772 0
M  V30 12611 H 1228.85 -2.01787 0.338105 0
M  V30 12612 H 1228.86 -3.88678 -1.2407 0
M  V30 12613 H 1227.54 -4.15725 -0.120539 0
M  V30 12614 H 1226.12 -3.29898 -1.73845 0
M  V30 12615 N 1228.3 0.053464 -1.57509 0
M  V30 12616 C 1229.71 0.603099 -1.76691 0
M  V30 12617 C 1230.06 1.76934 -0.847861 0
M  V30 12618 O 1229.19 2.16369 -0.0364962 0
M  V30 12619 C 1229.78 1.10084 -3.20417 0
M  V30 12620 C 1228.34 1.59618 -3.4088 0
M  V30 12621 C 1227.49 0.523516 -2.72313 0
M  V30 12622 H 1230.44 -0.172751 -1.57757 0
M  V30 12623 H 1230.46 1.9691 -3.25587 0
M  V30 12624 H 1229.97 0.251818 -3.87282 0
M  V30 12625 H 1228.07 2.46786 -2.79155 0
M  V30 12626 H 1228.19 1.6605 -4.49404 0
M  V30 12627 H 1226.55 0.972886 -2.35387 0
M  V30 12628 H 1227.33 -0.315629 -3.41846 0
M  V30 12629 N 1229.78 1.54207 0.325255 0
M  V30 12630 C 1231.19 1.63587 0.899793 0
M  V30 12631 C 1231.54 0.528851 1.88938 0
M  V30 12632 O 1230.67 -0.33852 2.13736 0
M  V30 12633 C 1231.26 2.9653 1.63877 0
M  V30 12634 C 1229.82 3.08111 2.16205 0
M  V30 12635 C 1228.97 2.59144 0.986903 0
M  V30 12636 H 1231.92 1.58366 0.102883 0
M  V30 12637 H 1231.94 2.86595 2.50287 0
M  V30 12638 H 1231.45 3.7708 0.918279 0
M  V30 12639 H 1229.55 2.32232 2.91375 0
M  V30 12640 H 1229.67 4.13885 2.41322 0
M  V30 12641 H 1228.03 2.14997 1.36558 0
M  V30 12642 H 1228.81 3.4215 0.28076 0
M  V30 12643 N 1231.26 -0.58723 1.46251 0
M  V30 12644 C 1232.49 -1.37174 1.5489 0
M  V30 12645 C 1232.9 -1.87857 0.188445 0
M  V30 12646 O 1232.26 -1.63365 -0.813509 0
M  V30 12647 C 1232.31 -2.56237 2.55 0
M  V30 12648 O 1232.03 -2.07655 3.8576 0
M  V30 12649 C 1233.53 -3.48846 2.73535 0
M  V30 12650 H 1230.75 -0.419211 0.523931 0
M  V30 12651 H 1233.29 -0.714307 1.91619 0
M  V30 12652 H 1231.45 -3.1798 2.21287 0
M  V30 12653 H 1231.86 -2.85161 4.40208 0
M  V30 12654 H 1233.34 -4.2888 3.47514 0
M  V30 12655 H 1233.81 -4.00493 1.80282 0
M  V30 12656 H 1234.42 -2.92942 3.08326 0
M  V30 12657 N 1232.74 -1.33881 -0.831482 0
M  V30 12658 C 1234.01 -1.16346 -1.57236 0
M  V30 12659 C 1234.39 0.267304 -2.09401 0
M  V30 12660 O 1233.74 1.26742 -1.90128 0
M  V30 12661 C 1233.95 -2.21082 -2.70044 0
M  V30 12662 C 1235.3 -2.5562 -3.39033 0
M  V30 12663 O 1236.32 -2.19806 -2.80292 0
M  V30 12664 O 1235.18 -3.17106 -4.45091 0
M  V30 12665 H 1232.28 -0.450469 -0.693546 0
M  V30 12666 H 1234.82 -1.45487 -0.873597 0
M  V30 12667 H 1233.59 -3.17155 -2.2919 0
M  V30 12668 H 1233.22 -1.9307 -3.47577 0
M  V30 12669 N 1234.21 1.05064 -1.1747 0
M  V30 12670 C 1235.62 1.59547 -0.969628 0
M  V30 12671 C 1235.98 1.90153 0.483332 0
M  V30 12672 O 1235.1 1.68415 1.35887 0
M  V30 12673 C 1235.7 2.89877 -1.75377 0
M  V30 12674 C 1234.25 3.41013 -1.59332 0
M  V30 12675 C 1233.4 2.1473 -1.7546 0
M  V30 12676 H 1236.35 0.878595 -1.3216 0
M  V30 12677 H 1236.37 3.59834 -1.23691 0
M  V30 12678 H 1235.89 2.67569 -2.8112 0
M  V30 12679 H 1233.99 3.68355 -0.560827 0
M  V30 12680 H 1234.1 4.15512 -2.38509 0
M  V30 12681 H 1232.46 2.25553 -1.18313 0
M  V30 12682 H 1233.25 1.9489 -2.82618 0
M  V30 12683 N 1235.69 0.975146 1.23809 0
M  V30 12684 C 1236.94 0.636678 1.91388 0
M  V30 12685 C 1237.25 -0.832876 1.76982 0
M  V30 12686 O 1238.46 -1.28218 2.39316 0
M  V30 12687 C 1236.92 1.08813 3.43057 0
M  V30 12688 C 1236.52 2.58165 3.66135 0
M  V30 12689 C 1238.27 0.823154 4.16443 0
M  V30 12690 C 1236.17 2.97004 5.11412 0
M  V30 12691 H 1235.1 0.234424 0.716632 0
M  V30 12692 H 1237.76 1.18235 1.40331 0
M  V30 12693 H 1236.14 0.470709 3.93192 0
M  V30 12694 H 1237.31 3.25101 3.26567 0
M  V30 12695 H 1235.63 2.82353 3.06049 0
M  V30 12696 H 1238.22 1.08925 5.23488 0
M  V30 12697 H 1238.57 -0.240705 4.15604 0
M  V30 12698 H 1239.1 1.4019 3.72279 0
M  V30 12699 H 1235.84 4.02492 5.17378 0
M  V30 12700 H 1235.36 2.34759 5.51949 0
M  V30 12701 H 1237.04 2.8732 5.79704 0
M  V30 12702 N 1237.17 -1.38817 0.746158 0
M  V30 12703 C 1238.12 -2.30521 0.113517 0
M  V30 12704 C 1239.09 -1.49795 -0.717682 0
M  V30 12705 O 1240.27 -1.78448 -0.675345 0
M  V30 12706 C 1237.41 -3.36185 -0.779343 0
M  V30 12707 C 1236.52 -4.3195 0.0656784 0
M  V30 12708 C 1235.66 -5.24684 -0.829492 0
M  V30 12709 C 1234.7 -6.12097 0.0196112 0
M  V30 12710 N 1233.84 -6.97152 -0.832107 0
M  V30 12711 H 1238.68 -2.84048 0.901136 0
M  V30 12712 H 1236.21 -1.39853 0.456025 0
M  V30 12713 H 1238.17 -3.96048 -1.31156 0
M  V30 12714 H 1236.8 -2.84085 -1.53282 0
M  V30 12715 H 1235.85 -3.73611 0.715445 0
M  V30 12716 H 1237.16 -4.93551 0.721735 0
M  V30 12717 H 1236.32 -5.89627 -1.42915 0
M  V30 12718 H 1235.06 -4.63431 -1.5193 0
M  V30 12719 H 1234.06 -5.46156 0.631991 0
M  V30 12720 H 1235.29 -6.75416 0.706369 0
M  V30 12721 H 1233.23 -6.38456 -1.507 0
M  V30 12722 H 1233.15 -7.55642 -0.232782 0
M  V30 12723 H 1234.42 -7.66513 -1.41697 0
M  V30 12724 N 1238.65 -0.49465 -1.49636 0
M  V30 12725 C 1239.6 0.300929 -2.30645 0
M  V30 12726 C 1240.59 0.968687 -1.38971 0
M  V30 12727 O 1241.8 0.897101 -1.56052 0
M  V30 12728 H 1238.17 0.1159 -0.743015 0
M  V30 12729 H 1240.14 -0.402387 -2.95674 0
M  V30 12730 C 1238.89 1.35638 -3.20153 0
M  V30 12731 H 1238.21 0.851946 -3.90617 0
M  V30 12732 H 1239.65 1.88515 -3.79787 0
M  V30 12733 C 1238.11 2.37112 -2.39331 0
M  V30 12734 O 1238.64 3.42867 -2.09298 0
M  V30 12735 N 1236.85 2.09421 -2.01473 0
M  V30 12736 H 1236.4 1.23441 -2.26097 0
M  V30 12737 H 1236.35 2.77545 -1.47703 0
M  V30 12738 N 1240.13 1.55939 -0.228214 0
M  V30 12739 C 1241.54 1.59094 0.12704 0
M  V30 12740 C 1241.74 1.24514 1.58425 0
M  V30 12741 O 1240.8 0.983544 2.32557 0
M  V30 12742 C 1242.11 2.99999 -0.205268 0
M  V30 12743 C 1243.66 3.1265 -0.148046 0
M  V30 12744 C 1244.13 4.55743 -0.454122 0
M  V30 12745 N 1245.62 4.61435 -0.403937 0
M  V30 12746 C 1246.36 5.70101 -0.614173 0
M  V30 12747 N 1245.86 6.87104 -0.88654 0
M  V30 12748 N 1247.65 5.5944 -0.546153 0
M  V30 12749 H 1239.8 1.7669 -1.17874 0
M  V30 12750 H 1242.06 0.821599 -0.472947 0
M  V30 12751 H 1241.77 3.29976 -1.21692 0
M  V30 12752 H 1241.64 3.74177 0.476573 0
M  V30 12753 H 1244.03 2.82465 0.854255 0
M  V30 12754 H 1244.11 2.40786 -0.863462 0
M  V30 12755 H 1243.75 4.86646 -1.45389 0
M  V30 12756 H 1243.68 5.25841 0.282561 0
M  V30 12757 H 1246.18 3.77363 -0.201388 0
M  V30 12758 H 1246.49 7.65839 -1.03488 0
M  V30 12759 H 1244.83 6.88833 -0.923808 0
M  V30 12760 H 1248.02 4.6691 -0.33355 0
M  V30 12761 H 1248.2 6.44061 -0.713402 0
M  V30 12762 N 1241.6 -0.0451101 1.57535 0
M  V30 12763 C 1242.83 -0.75132 1.92777 0
M  V30 12764 C 1243.25 -1.69743 0.826599 0
M  V30 12765 O 1242.6 -1.8142 -0.198224 0
M  V30 12766 C 1242.66 -1.52218 3.2789 0
M  V30 12767 O 1242.38 -0.614059 4.33775 0
M  V30 12768 C 1243.88 -2.32699 3.77314 0
M  V30 12769 H 1241.1 -0.21211 0.636593 0
M  V30 12770 H 1243.64 -0.0074174 2.04499 0
M  V30 12771 H 1241.8 -2.2181 3.17614 0
M  V30 12772 H 1242.21 -1.15294 5.11671 0
M  V30 12773 H 1243.68 -2.82205 4.7441 0
M  V30 12774 H 1244.16 -3.13414 3.07682 0
M  V30 12775 H 1244.77 -1.68212 3.90621 0
M  V30 12776 N 1243.08 -1.54377 -0.317073 0
M  V30 12777 C 1244.31 -1.77184 -1.07798 0
M  V30 12778 C 1244.73 -0.52204 -1.80711 0
M  V30 12779 O 1244.09 0.52672 -1.7348 0
M  V30 12780 C 1244.14 -2.96887 -2.04671 0
M  V30 12781 O 1243.24 -2.68887 -3.12688 0
M  V30 12782 H 1242.58 -0.586937 -0.310485 0
M  V30 12783 H 1245.11 -2.01419 -0.35939 0
M  V30 12784 H 1245.12 -3.24414 -2.47426 0
M  V30 12785 H 1243.8 -3.87518 -1.51005 0
M  V30 12786 H 1242.38 -2.52329 -2.74562 0
M  V30 12787 N 1244.56 0.579466 -1.4656 0
M  V30 12788 C 1245.81 1.33379 -1.51304 0
M  V30 12789 C 1246.12 1.94855 -0.170507 0
M  V30 12790 O 1247.33 2.71331 -0.0957704 0
M  V30 12791 C 1245.78 2.41748 -2.66619 0
M  V30 12792 C 1245.39 1.8656 -4.07307 0
M  V30 12793 C 1247.14 3.18502 -2.80636 0
M  V30 12794 C 1245.04 2.92578 -5.13957 0
M  V30 12795 H 1243.97 0.501422 -0.56311 0
M  V30 12796 H 1246.62 0.618025 -1.72779 0
M  V30 12797 H 1245.01 3.16138 -2.3848 0
M  V30 12798 H 1246.18 1.18692 -4.45252 0
M  V30 12799 H 1244.5 1.22464 -3.97984 0
M  V30 12800 H 1247.09 3.9763 -3.57483 0
M  V30 12801 H 1247.44 3.71295 -1.8827 0
M  V30 12802 H 1247.97 2.51219 -3.08437 0
M  V30 12803 H 1244.71 2.44668 -6.08126 0
M  V30 12804 H 1244.23 3.58926 -4.80554 0
M  V30 12805 H 1245.91 3.56471 -5.39942 0
M  V30 12806 N 1246.04 1.3432 0.824371 0
M  V30 12807 C 1247.27 1.29669 1.61226 0
M  V30 12808 C 1247.68 -0.129532 1.88355 0
M  V30 12809 O 1247.04 -1.07616 1.47394 0
M  V30 12810 C 1247.09 2.08375 2.95402 0
M  V30 12811 O 1246.81 3.45434 2.69456 0
M  V30 12812 C 1248.31 2.11103 3.89808 0
M  V30 12813 H 1245.53 0.446137 0.501201 0
M  V30 12814 H 1248.08 1.76912 1.02579 0
M  V30 12815 H 1246.23 1.64777 3.5061 0
M  V30 12816 H 1246.64 3.86101 3.55001 0
M  V30 12817 H 1248.12 2.706 4.81124 0
M  V30 12818 H 1248.6 1.10505 4.25071 0
M  V30 12819 H 1249.2 2.54784 3.40537 0
M  V30 12820 N 1247.52 -1.0444 1.18026 0
M  V30 12821 C 1248.74 -1.81234 0.998089 0
M  V30 12822 C 1249.16 -1.83271 -0.453559 0
M  V30 12823 O 1248.52 -1.26545 -1.31502 0
M  V30 12824 C 1248.57 -3.27007 1.54106 0
M  V30 12825 O 1248.29 -3.25174 2.93587 0
M  V30 12826 C 1249.79 -4.20461 1.40455 0
M  V30 12827 H 1247.01 -0.57085 0.352663 0
M  V30 12828 H 1249.55 -1.31649 1.56489 0
M  V30 12829 H 1247.71 -3.73837 1.01611 0
M  V30 12830 H 1248.12 -4.16466 3.18836 0
M  V30 12831 H 1249.6 -5.20695 1.83249 0
M  V30 12832 H 1250.07 -4.37781 0.352713 0
M  V30 12833 H 1250.68 -3.79493 1.92004 0
M  V30 12834 N 1248.99 -0.981699 -1.2329 0
M  V30 12835 C 1250.22 -0.66937 -1.95773 0
M  V30 12836 C 1250.64 0.763898 -1.72656 0
M  V30 12837 O 1249.99 1.51418 -1.01876 0
M  V30 12838 C 1250.05 -0.951863 -3.48743 0
M  V30 12839 O 1249.77 -2.3288 -3.71078 0
M  V30 12840 C 1251.27 -0.655668 -4.38424 0
M  V30 12841 H 1248.49 -0.248545 -0.623271 0
M  V30 12842 H 1251.03 -1.31343 -1.56746 0
M  V30 12843 H 1249.19 -0.353787 -3.85781 0
M  V30 12844 H 1249.6 -2.41948 -4.65362 0
M  V30 12845 H 1251.07 -0.903683 -5.44553 0
M  V30 12846 H 1251.55 0.410269 -4.3728 0
M  V30 12847 H 1252.16 -1.23428 -4.06996 0
M  V30 12848 N 1250.47 1.3842 -0.753509 0
M  V30 12849 C 1251.72 1.99723 -0.309021 0
M  V30 12850 C 1252.04 1.60111 1.11308 0
M  V30 12851 O 1251.31 0.85792 1.76115 0
M  V30 12852 H 1249.89 0.738667 -0.111266 0
M  V30 12853 H 1252.55 1.69186 -0.967586 0
M  V30 12854 H 1251.65 3.09874 -0.372095 0
M  V30 12855 N 1251.95 0.502579 1.49372 0
M  V30 12856 C 1252.91 -0.263993 2.27675 0
M  V30 12857 C 1253.91 -0.892538 1.33755 0
M  V30 12858 O 1255.1 -0.756826 1.56901 0
M  V30 12859 C 1252.24 -1.37895 3.11765 0
M  V30 12860 H 1253.43 0.423132 2.969 0
M  V30 12861 H 1250.98 0.257595 1.54163 0
M  V30 12862 H 1251.72 -2.10018 2.47109 0
M  V30 12863 H 1251.5 -0.933694 3.80821 0
M  V30 12864 H 1252.99 -1.91889 3.70902 0
M  V30 12865 N 1253.43 -1.55816 0.23648 0
M  V30 12866 C 1254.68 -1.98686 -0.391146 0
M  V30 12867 C 1255 -1.12443 -1.58703 0
M  V30 12868 O 1254.26 -0.172805 -1.94936 0
M  V30 12869 C 1254.56 -3.47039 -0.85434 0
M  V30 12870 C 1254.22 -4.50299 0.232651 0
M  V30 12871 C 1252.89 -4.78259 0.531218 0
M  V30 12872 C 1255.24 -5.1215 0.967027 0
M  V30 12873 C 1252.57 -5.65347 1.56842 0
M  V30 12874 C 1254.92 -6.00363 1.99367 0
M  V30 12875 C 1253.58 -6.2666 2.299 0
M  V30 12876 H 1252.85 -0.727045 -0.14313 0
M  V30 12877 H 1255.5 -1.88419 0.342125 0
M  V30 12878 H 1253.8 -3.54585 -1.66663 0
M  V30 12879 H 1255.5 -3.7759 -1.35005 0
M  V30 12880 H 1252.09 -4.28599 -0.0102014 0
M  V30 12881 H 1256.27 -4.90606 0.749609 0
M  V30 12882 H 1251.53 -5.83981 1.81043 0
M  V30 12883 H 1255.7 -6.47335 2.56769 0
M  V30 12884 H 1253.33 -6.93938 3.1041 0
M  V30 12885 N 1254.91 0.036755 -1.57557 0
M  V30 12886 C 1256.15 0.727665 -1.88546 0
M  V30 12887 C 1256.48 1.76304 -0.833179 0
M  V30 12888 O 1255.75 1.9544 0.13414 0
M  V30 12889 H 1254.33 0.271744 -0.695819 0
M  V30 12890 H 1256.99 0.00452915 -1.94899 0
M  V30 12891 H 1256.08 1.22205 -2.8718 0
M  V30 12892 N 1256.39 1.54543 0.308881 0
M  V30 12893 C 1257.32 1.81309 1.40212 0
M  V30 12894 C 1258.33 0.69568 1.47187 0
M  V30 12895 O 1259.52 0.973034 1.49647 0
M  V30 12896 C 1256.62 1.92901 2.78644 0
M  V30 12897 C 1255.79 3.23222 2.94697 0
M  V30 12898 C 1254.85 3.25329 4.13579 0
M  V30 12899 O 1253.88 3.989 4.06039 0
M  V30 12900 N 1255.08 2.50158 5.23833 0
M  V30 12901 H 1257.84 2.75659 1.1761 0
M  V30 12902 H 1255.41 1.54021 0.498925 0
M  V30 12903 H 1257.4 1.91721 3.56406 0
M  V30 12904 H 1255.97 1.05582 2.9423 0
M  V30 12905 H 1255.19 3.37241 2.04113 0
M  V30 12906 H 1256.48 4.09238 3.02328 0
M  V30 12907 H 1255.87 1.90002 5.32838 0
M  V30 12908 H 1254.43 2.5474 5.99959 0
M  V30 12909 N 1257.86 -0.571685 1.46866 0
M  V30 12910 C 1258.8 -1.69475 1.54307 0
M  V30 12911 C 1259.81 -1.57006 0.430449 0
M  V30 12912 O 1261 -1.64229 0.69936 0
M  V30 12913 C 1258.1 -3.07824 1.41766 0
M  V30 12914 C 1257.27 -3.46189 2.67342 0
M  V30 12915 C 1256.33 -4.63642 2.48843 0
M  V30 12916 O 1255.36 -4.68949 3.22608 0
M  V30 12917 N 1256.56 -5.59223 1.55724 0
M  V30 12918 H 1259.32 -1.63543 2.51145 0
M  V30 12919 H 1256.88 -0.757957 1.43062 0
M  V30 12920 H 1258.88 -3.84208 1.27146 0
M  V30 12921 H 1257.45 -3.08063 0.530667 0
M  V30 12922 H 1256.67 -2.59399 2.96826 0
M  V30 12923 H 1257.95 -3.68591 3.50739 0
M  V30 12924 H 1257.35 -5.5768 0.949175 0
M  V30 12925 H 1255.91 -6.34993 1.47063 0
M  V30 12926 N 1259.34 -1.34755 -0.817236 0
M  V30 12927 C 1260.57 -1.30676 -1.61054 0
M  V30 12928 C 1260.99 0.115343 -1.87746 0
M  V30 12929 O 1260.35 1.07887 -1.45705 0
M  V30 12930 C 1260.4 -2.10881 -2.92509 0
M  V30 12931 O 1259.5 -1.48223 -3.84842 0
M  V30 12932 H 1258.84 -0.448531 -0.489608 0
M  V30 12933 H 1261.37 -1.77642 -1.01512 0
M  V30 12934 H 1261.38 -2.22446 -3.42026 0
M  V30 12935 H 1260.06 -3.14274 -2.72406 0
M  V30 12936 H 1258.63 -1.45434 -3.4337 0
M  V30 12937 N 1260.82 1.03812 -1.18578 0
M  V30 12938 C 1262.07 1.76706 -0.980776 0
M  V30 12939 C 1262.39 1.88729 0.490562 0
M  V30 12940 O 1261.66 1.41413 1.35569 0
M  V30 12941 H 1260.24 0.654586 -0.359898 0
M  V30 12942 H 1262.9 1.25274 -1.49306 0
M  V30 12943 H 1262 2.77876 -1.42096 0
M  V30 12944 N 1262.3 0.988223 1.22768 0
M  V30 12945 C 1263.26 0.539813 2.22752 0
M  V30 12946 C 1264.26 -0.374796 1.56371 0
M  V30 12947 O 1265.45 -0.167402 1.73394 0
M  V30 12948 C 1262.58 -0.215461 3.40218 0
M  V30 12949 H 1263.78 1.42397 2.63938 0
M  V30 12950 H 1261.33 0.774933 1.35737 0
M  V30 12951 H 1262.06 -1.11581 3.045 0
M  V30 12952 H 1261.85 0.441173 3.8961 0
M  V30 12953 H 1263.34 -0.517517 4.14381 0
M  V30 12954 N 1263.78 -1.38018 0.760839 0
M  V30 12955 C 1265.02 -2.00248 0.320716 0
M  V30 12956 C 1265.35 -1.60259 -1.09684 0
M  V30 12957 O 1264.63 -0.843567 -1.75255 0
M  V30 12958 C 1264.91 -3.57254 0.451849 0
M  V30 12959 C 1264.77 -4.07185 1.91103 0
M  V30 12960 C 1266.08 -4.39843 -0.150439 0
M  V30 12961 H 1263.2 -0.727491 0.118007 0
M  V30 12962 H 1265.85 -1.63855 0.961842 0
M  V30 12963 H 1264 -3.88386 -0.0939672 0
M  V30 12964 H 1265.67 -3.86665 2.51571 0
M  V30 12965 H 1263.91 -3.59782 2.42362 0
M  V30 12966 H 1264.58 -5.16262 1.9539 0
M  V30 12967 H 1267.06 -4.14905 0.315145 0
M  V30 12968 H 1265.93 -5.48893 -0.0284853 0
M  V30 12969 H 1266.19 -4.24367 -1.23956 0
M  V30 12970 N 1265.25 -0.510493 -1.49103 0
M  V30 12971 C 1266.5 0.0306436 -2.02477 0
M  V30 12972 C 1266.83 1.36113 -1.38937 0
M  V30 12973 O 1266.08 1.88731 -0.517584 0
M  V30 12974 C 1266.38 0.221921 -3.5671 0
M  V30 12975 C 1266.05 -1.03176 -4.38937 0
M  V30 12976 C 1264.71 -1.37539 -4.61125 0
M  V30 12977 C 1267.06 -1.86464 -4.86704 0
M  V30 12978 C 1264.39 -2.55124 -5.28326 0
M  V30 12979 C 1266.74 -3.03211 -5.55199 0
M  V30 12980 C 1265.41 -3.37943 -5.75631 0
M  V30 12981 H 1264.68 0.0112133 -0.740915 0
M  V30 12982 H 1267.32 -0.672574 -1.79301 0
M  V30 12983 H 1265.63 1.00775 -3.78618 0
M  V30 12984 H 1267.33 0.655223 -3.95611 0
M  V30 12985 H 1263.92 -0.754105 -4.21914 0
M  V30 12986 H 1268.1 -1.61229 -4.69381 0
M  V30 12987 H 1263.36 -2.8226 -5.42346 0
M  V30 12988 H 1267.53 -3.68068 -5.91185 0
M  V30 12989 H 1265.16 -4.29158 -6.27477 0
M  V30 12990 N 1266.73 1.55688 -0.24474 0
M  V30 12991 C 1267.98 1.99186 0.381167 0
M  V30 12992 C 1268.31 1.13266 1.57748 0
M  V30 12993 O 1267.59 0.195568 1.93514 0
M  V30 12994 C 1267.87 3.51257 0.793142 0
M  V30 12995 C 1267.72 4.47942 -0.408409 0
M  V30 12996 C 1269.04 4.08365 1.64091 0
M  V30 12997 H 1266.16 0.724141 0.137073 0
M  V30 12998 H 1268.8 1.8683 -0.345619 0
M  V30 12999 H 1266.95 3.61917 1.4124 0
M  V30 13000 H 1268.62 4.49265 -1.04682 0
M  V30 13001 H 1266.87 4.20854 -1.05189 0
M  V30 13002 H 1267.54 5.51946 -0.0768531 0
M  V30 13003 H 1270.01 4.00794 1.1182 0
M  V30 13004 H 1268.89 5.1504 1.89802 0
M  V30 13005 H 1269.15 3.56687 2.61202 0
M  V30 13006 N 1268.21 -0.0283989 1.57574 0
M  V30 13007 C 1269.46 -0.717656 1.88929 0
M  V30 13008 C 1269.78 -1.7586 0.842517 0
M  V30 13009 O 1269.05 -1.95509 -0.123774 0
M  V30 13010 H 1267.63 -0.268051 0.69725 0
M  V30 13011 H 1270.29 0.00580691 1.94899 0
M  V30 13012 H 1269.39 -1.2068 2.87824 0
M  V30 13013 N 1269.69 -1.54705 -0.300681 0
M  V30 13014 C 1270.64 -1.86433 -1.39087 0
M  V30 13015 C 1271.63 -0.738101 -1.52474 0
M  V30 13016 O 1272.84 -0.922096 -1.54588 0
M  V30 13017 H 1269.21 -0.591314 -0.464599 0
M  V30 13018 H 1271.18 -2.77558 -1.09563 0
M  V30 13019 C 1269.93 -2.1286 -2.74929 0
M  V30 13020 H 1269.25 -2.98994 -2.6541 0
M  V30 13021 H 1270.69 -2.39 -3.50222 0
M  V30 13022 C 1269.15 -0.92726 -3.23888 0
M  V30 13023 O 1269.68 -0.147921 -4.01428 0
M  V30 13024 N 1267.89 -0.732553 -2.81215 0
M  V30 13025 H 1267.44 -1.36797 -2.18276 0
M  V30 13026 H 1267.39 0.0696902 -3.14323 0
M  V30 13027 N 1271.17 0.563888 -1.47167 0
M  V30 13028 C 1272.4 1.34498 -1.56825 0
M  V30 13029 C 1272.8 1.87974 -0.215011 0
M  V30 13030 O 1272.15 1.65323 0.80087 0
M  V30 13031 C 1272.21 2.55602 -2.528 0
M  V30 13032 C 1271.87 2.23459 -3.98642 0
M  V30 13033 C 1272.87 1.81155 -4.87318 0
M  V30 13034 C 1270.56 2.35024 -4.43925 0
M  V30 13035 C 1272.55 1.50835 -6.19296 0
M  V30 13036 C 1270.24 2.04317 -5.75932 0
M  V30 13037 C 1271.23 1.6229 -6.63439 0
M  V30 13038 O 1270.92 1.31969 -7.92994 0
M  V30 13039 H 1270.65 0.416551 -0.532411 0
M  V30 13040 H 1273.21 0.690611 -1.93442 0
M  V30 13041 H 1271.44 3.23907 -2.11237 0
M  V30 13042 H 1273.13 3.17677 -2.52659 0
M  V30 13043 H 1273.89 1.71719 -4.53583 0
M  V30 13044 H 1269.77 2.66696 -3.76024 0
M  V30 13045 H 1273.32 1.17958 -6.87555 0
M  V30 13046 H 1269.21 2.13383 -6.09211 0
M  V30 13047 H 1269.98 1.45656 -8.05436 0
M  V30 13048 N 1272.64 1.35187 0.810078 0
M  V30 13049 C 1273.59 1.27822 1.92173 0
M  V30 13050 C 1274.56 0.150851 1.65414 0
M  V30 13051 O 1275.75 0.333973 1.87854 0
M  V30 13052 C 1272.89 1.05258 3.28656 0
M  V30 13053 C 1272 2.26884 3.67624 0
M  V30 13054 C 1271.13 1.97499 4.9312 0
M  V30 13055 C 1270.17 3.15198 5.24706 0
M  V30 13056 N 1269.31 2.85612 6.41381 0
M  V30 13057 H 1274.15 2.22884 1.97804 0
M  V30 13058 H 1271.69 1.10799 0.967577 0
M  V30 13059 H 1273.65 0.902084 4.07331 0
M  V30 13060 H 1272.28 0.138583 3.22502 0
M  V30 13061 H 1271.33 2.5281 2.84238 0
M  V30 13062 H 1272.64 3.14783 3.86928 0
M  V30 13063 H 1271.79 1.7926 5.79613 0
M  V30 13064 H 1270.53 1.0688 4.75844 0
M  V30 13065 H 1269.54 3.34019 4.36705 0
M  V30 13066 H 1270.76 4.06614 5.43913 0
M  V30 13067 H 1268.71 1.97583 6.25537 0
M  V30 13068 H 1268.63 3.67044 6.60919 0
M  V30 13069 H 1269.89 2.70906 7.3091 0
M  V30 13070 N 1274.12 -1.03182 1.19127 0
M  V30 13071 C 1275.37 -1.75934 0.986415 0
M  V30 13072 C 1275.68 -1.89519 -0.48392 0
M  V30 13073 O 1276.89 -2.59213 -0.80752 0
M  V30 13074 C 1275.35 -3.16358 1.71597 0
M  V30 13075 C 1274.95 -3.10836 3.22622 0
M  V30 13076 C 1276.7 -3.93426 1.59425 0
M  V30 13077 C 1274.61 -4.46174 3.88179 0
M  V30 13078 H 1273.54 -0.659516 0.365451 0
M  V30 13079 H 1276.19 -1.15497 1.42593 0
M  V30 13080 H 1274.57 -3.77245 1.20426 0
M  V30 13081 H 1275.74 -2.59348 3.80887 0
M  V30 13082 H 1274.06 -2.47266 3.35035 0
M  V30 13083 H 1276.65 -4.93526 2.05757 0
M  V30 13084 H 1277 -4.12678 0.547926 0
M  V30 13085 H 1277.53 -3.39134 2.07925 0
M  V30 13086 H 1274.27 -4.32126 4.92897 0
M  V30 13087 H 1273.79 -4.97729 3.34702 0
M  V30 13088 H 1275.47 -5.15066 3.91556 0
M  V30 13089 N 1275.6 -0.99472 -1.22242 0
M  V30 13090 C 1276.83 -0.690097 -1.95052 0
M  V30 13091 C 1277.24 0.745543 -1.73456 0
M  V30 13092 O 1276.6 1.50329 -1.03477 0
M  V30 13093 C 1276.65 -0.988798 -3.47714 0
M  V30 13094 O 1276.37 -2.36803 -3.68587 0
M  V30 13095 C 1277.87 -0.702132 -4.37704 0
M  V30 13096 H 1275.09 -0.255142 -0.620599 0
M  V30 13097 H 1277.64 -1.32998 -1.55344 0
M  V30 13098 H 1275.79 -0.394684 -3.85384 0
M  V30 13099 H 1276.21 -2.4687 -4.62769 0
M  V30 13100 H 1277.68 -0.961389 -5.43564 0
M  V30 13101 H 1278.16 0.363866 -4.3769 0
M  V30 13102 H 1278.76 -1.27738 -4.05664 0
M  V30 13103 N 1277.08 1.37613 -0.768148 0
M  V30 13104 C 1278.03 2.3218 -0.13974 0
M  V30 13105 C 1279.02 1.54754 0.689023 0
M  V30 13106 O 1280.23 1.70177 0.586489 0
M  V30 13107 H 1276.6 0.751536 -0.0264001 0
M  V30 13108 H 1278.57 2.82768 -0.953139 0
M  V30 13109 C 1277.32 3.39997 0.727829 0
M  V30 13110 H 1276.64 3.99676 0.0994851 0
M  V30 13111 H 1278.08 4.08538 1.13456 0
M  V30 13112 C 1276.54 2.79778 1.87686 0
M  V30 13113 O 1277.07 2.70241 2.97208 0
M  V30 13114 N 1275.28 2.37373 1.67637 0
M  V30 13115 H 1274.83 2.4533 0.785552 0
M  V30 13116 H 1274.78 1.97426 2.44684 0
M  V30 13117 N 1278.56 0.518393 1.4883 0
M  V30 13118 C 1279.49 -0.239685 2.32267 0
M  V30 13119 C 1280.47 -0.94613 1.41359 0
M  V30 13120 O 1281.65 -0.934162 1.70256 0
M  V30 13121 C 1278.78 -1.29411 3.22289 0
M  V30 13122 C 1277.74 -0.706504 4.22129 0
M  V30 13123 C 1277.06 -1.86273 5.01205 0
M  V30 13124 C 1278.36 0.314079 5.21355 0
M  V30 13125 H 1280.06 0.4568 2.95895 0
M  V30 13126 H 1277.6 0.221126 1.42292 0
M  V30 13127 H 1279.56 -1.8323 3.7948 0
M  V30 13128 H 1278.28 -2.02001 2.56638 0
M  V30 13129 H 1276.94 -0.189924 3.66108 0
M  V30 13130 H 1276.59 -2.57674 4.31988 0
M  V30 13131 H 1276.29 -1.47554 5.68772 0
M  V30 13132 H 1277.81 -2.40492 5.61245 0
M  V30 13133 H 1279.22 -0.136604 5.73137 0
M  V30 13134 H 1277.62 0.618026 5.96909 0
M  V30 13135 H 1278.69 1.22394 4.69199 0
M  V30 13136 N 1280.03 -1.55556 0.252993 0
M  V30 13137 C 1280.98 -2.18298 -0.658028 0
M  V30 13138 C 1281.97 -1.14072 -1.13474 0
M  V30 13139 O 1283.16 -1.39962 -1.0835 0
M  V30 13140 C 1280.29 -2.89067 -1.8519 0
M  V30 13141 C 1279.38 -4.00556 -1.3934 0
M  V30 13142 N 1279.77 -5.01612 -0.649538 0
M  V30 13143 C 1278.06 -4.13222 -1.67819 0
M  V30 13144 C 1278.77 -5.80244 -0.411347 0
M  V30 13145 N 1277.74 -5.34742 -0.977342 0
M  V30 13146 H 1281.54 -2.93787 -0.0816162 0
M  V30 13147 H 1279.06 -1.62305 0.0555728 0
M  V30 13148 H 1281.05 -3.32448 -2.51563 0
M  V30 13149 H 1279.71 -2.15082 -2.43248 0
M  V30 13150 H 1280.73 -5.17036 -0.299043 0
M  V30 13151 H 1277.4 -3.50414 -2.26972 0
M  V30 13152 H 1278.79 -6.71651 0.182911 0
M  V30 13153 N 1281.51 0.0200419 -1.57587 0
M  V30 13154 C 1282.44 1.01715 -2.10181 0
M  V30 13155 C 1283.42 1.37136 -1.00636 0
M  V30 13156 O 1284.61 1.45862 -1.2821 0
M  V30 13157 C 1281.74 2.31531 -2.58865 0
M  V30 13158 C 1280.69 2.10327 -3.72755 0
M  V30 13159 C 1280.02 3.45981 -4.07678 0
M  V30 13160 C 1281.32 1.4821 -5.0083 0
M  V30 13161 H 1283.01 0.579307 -2.93742 0
M  V30 13162 H 1280.56 0.277211 -1.41307 0
M  V30 13163 H 1282.51 3.01623 -2.94281 0
M  V30 13164 H 1281.24 2.77392 -1.72399 0
M  V30 13165 H 1279.89 1.42665 -3.37701 0
M  V30 13166 H 1279.54 3.89508 -3.18265 0
M  V30 13167 H 1279.24 3.32616 -4.84397 0
M  V30 13168 H 1280.77 4.17421 -4.45637 0
M  V30 13169 H 1282.18 2.08232 -5.34146 0
M  V30 13170 H 1280.58 1.45393 -5.82221 0
M  V30 13171 H 1281.65 0.448942 -4.82817 0
M  V30 13172 N 1282.99 1.54862 0.292472 0
M  V30 13173 C 1283.95 1.8565 1.34413 0
M  V30 13174 C 1284.95 0.729868 1.43281 0
M  V30 13175 O 1286.14 0.998128 1.42769 0
M  V30 13176 C 1283.28 2.0444 2.72795 0
M  V30 13177 H 1284.47 2.79642 1.08354 0
M  V30 13178 H 1282.02 1.47055 0.529574 0
M  V30 13179 H 1282.76 1.12765 3.04063 0
M  V30 13180 H 1282.54 2.86451 2.67747 0
M  V30 13181 H 1284.03 2.296 3.48817 0
M  V30 13182 N 1284.47 -0.556076 1.47464 0
M  V30 13183 C 1285.69 -1.3434 1.58011 0
M  V30 13184 C 1286.12 -1.86674 0.231138 0
M  V30 13185 O 1285.48 -1.63029 -0.793174 0
M  V30 13186 C 1285.52 -2.48844 2.60977 0
M  V30 13187 O 1284.63 -3.51108 2.16326 0
M  V30 13188 H 1283.97 -0.398986 0.53076 0
M  V30 13189 H 1286.5 -0.671898 1.93253 0
M  V30 13190 H 1286.51 -2.95398 2.81432 0
M  V30 13191 H 1285.18 -2.10109 3.58925 0
M  V30 13192 H 1283.76 -3.10852 2.05975 0
M  V30 13193 N 1285.95 -1.35615 -0.802897 0
M  V30 13194 C 1287.18 -1.32217 -1.59142 0
M  V30 13195 C 1287.59 0.0995496 -1.88537 0
M  V30 13196 O 1286.95 1.05258 -1.49087 0
M  V30 13197 C 1287 -2.13048 -2.92049 0
M  V30 13198 O 1286.72 -3.49677 -2.63927 0
M  V30 13199 C 1288.22 -2.17278 -3.864 0
M  V30 13200 H 1285.44 -0.454054 -0.49404 0
M  V30 13201 H 1287.98 -1.78521 -0.997516 0
M  V30 13202 H 1286.14 -1.70334 -3.47944 0
M  V30 13203 H 1286.55 -3.917 -3.48814 0
M  V30 13204 H 1288.03 -2.7822 -4.76758 0
M  V30 13205 H 1288.5 -1.17253 -4.23259 0
M  V30 13206 H 1289.11 -2.6017 -3.3644 0
M  V30 13207 N 1287.43 1.02549 -1.19673 0
M  V30 13208 C 1288.67 1.76004 -1.00144 0
M  V30 13209 C 1289 1.888 0.467423 0
M  V30 13210 O 1288.26 1.404 1.36331 0
M  V30 13211 C 1288.55 3.18597 -1.61959 0
M  V30 13212 C 1288.22 3.258 -3.11713 0
M  V30 13213 C 1286.88 3.27473 -3.52583 0
M  V30 13214 C 1289.23 3.24675 -4.0772 0
M  V30 13215 C 1286.56 3.25681 -4.88005 0
M  V30 13216 C 1288.91 3.24424 -5.43076 0
M  V30 13217 C 1287.58 3.24396 -5.83372 0
M  V30 13218 H 1286.85 0.644044 -0.366453 0
M  V30 13219 H 1289.5 1.20338 -1.48966 0
M  V30 13220 H 1287.8 3.77364 -1.05375 0
M  V30 13221 H 1289.5 3.74109 -1.44374 0
M  V30 13222 H 1286.09 3.25228 -2.7915 0
M  V30 13223 H 1290.27 3.2256 -3.77185 0
M  V30 13224 H 1285.53 3.23986 -5.18501 0
M  V30 13225 H 1289.7 3.22504 -6.17223 0
M  V30 13226 H 1287.33 3.22762 -6.8828 0
M  V30 13227 N 1288.9 1.00119 1.21713 0
M  V30 13228 C 1290.18 0.597366 1.86255 0
M  V30 13229 C 1290.56 -0.925124 1.89749 0
M  V30 13230 O 1289.91 -1.8105 1.39402 0
M  V30 13231 C 1290.12 1.22735 3.26707 0
M  V30 13232 C 1291.47 1.33307 4.03131 0
M  V30 13233 O 1292.49 1.18237 3.36003 0
M  V30 13234 O 1291.35 1.57509 5.2331 0
M  V30 13235 H 1288.44 0.204091 0.801421 0
M  V30 13236 H 1290.99 1.09759 1.29426 0
M  V30 13237 H 1289.76 2.26837 3.18843 0
M  V30 13238 H 1289.38 0.713232 3.91151 0
M  V30 13239 N 1290.38 -1.37203 0.775435 0
M  V30 13240 C 1291.8 -1.52962 0.455488 0
M  V30 13241 C 1292 -1.73284 -1.02834 0
M  V30 13242 O 1291.05 -1.75631 -1.81411 0
M  V30 13243 C 1292.37 -2.72389 1.27377 0
M  V30 13244 C 1293.91 -2.86252 1.26604 0
M  V30 13245 C 1294.39 -4.08666 2.06775 0
M  V30 13246 N 1295.88 -4.15786 2.04148 0
M  V30 13247 C 1296.62 -5.09548 2.6296 0
M  V30 13248 N 1296.11 -6.08845 3.30574 0
M  V30 13249 N 1297.9 -5.02059 2.5277 0
M  V30 13250 H 1290.06 -1.22265 1.73681 0
M  V30 13251 H 1292.32 -0.595638 0.737509 0
M  V30 13252 H 1292.02 -2.63849 2.32544 0
M  V30 13253 H 1291.9 -3.66171 0.905467 0
M  V30 13254 H 1294.29 -2.94261 0.222345 0
M  V30 13255 H 1294.37 -1.93418 1.67401 0
M  V30 13256 H 1294.01 -4.01419 3.11168 0
M  V30 13257 H 1293.94 -5.00621 1.63358 0
M  V30 13258 H 1296.43 -3.44683 1.54926 0
M  V30 13259 H 1296.74 -6.76926 3.72815 0
M  V30 13260 H 1295.09 -6.09113 3.34674 0
M  V30 13261 H 1298.28 -4.23431 1.99559 0
M  V30 13262 H 1298.45 -5.74947 2.98898 0
M  V30 13263 N 1291.86 -0.526279 -1.48553 0
M  V30 13264 C 1292.77 0.24244 -2.33344 0
M  V30 13265 C 1293.79 0.942658 -1.46253 0
M  V30 13266 O 1294.96 0.91844 -1.79239 0
M  V30 13267 C 1292.03 1.27801 -3.22285 0
M  V30 13268 C 1291.09 0.588543 -4.25247 0
M  V30 13269 C 1290.32 1.57478 -5.09938 0
M  V30 13270 O 1290.54 2.80707 -4.96548 0
M  V30 13271 O 1289.48 1.11621 -5.9146 0
M  V30 13272 H 1293.3 -0.452262 -3.00314 0
M  V30 13273 H 1290.89 -0.287249 -1.46613 0
M  V30 13274 H 1292.77 1.87656 -3.7731 0
M  V30 13275 H 1291.45 1.95519 -2.57981 0
M  V30 13276 H 1290.35 -0.0504022 -3.74066 0
M  V30 13277 H 1291.69 -0.046627 -4.92178 0
M  V30 13278 N 1293.34 1.5542 -0.261239 0
M  V30 13279 C 1294.56 2.04142 0.366144 0
M  V30 13280 C 1294.99 1.13884 1.49706 0
M  V30 13281 O 1294.35 0.134629 1.80799 0
M  V30 13282 C 1294.39 3.50733 0.837774 0
M  V30 13283 O 1293.5 3.63588 1.94621 0
M  V30 13284 H 1292.84 0.659424 0.077821 0
M  V30 13285 H 1295.37 2.0082 -0.391487 0
M  V30 13286 H 1295.38 3.91831 1.13721 0
M  V30 13287 H 1294.05 4.15899 0.0102742 0
M  V30 13288 H 1292.63 3.34391 1.65037 0
M  V30 13289 N 1294.82 -0.0116844 1.57596 0
M  V30 13290 C 1295.73 -1.02342 2.111 0
M  V30 13291 C 1296.74 -1.38478 1.05355 0
M  V30 13292 O 1297.92 -1.47447 1.37191 0
M  V30 13293 C 1294.98 -2.30016 2.5941 0
M  V30 13294 C 1294.04 -2.003 3.79708 0
M  V30 13295 C 1293.28 -3.21888 4.25704 0
M  V30 13296 O 1293.5 -4.33171 3.71106 0
M  V30 13297 O 1292.43 -3.0657 5.17975 0
M  V30 13298 H 1296.26 -0.598637 2.97742 0
M  V30 13299 H 1293.84 -0.229779 1.47622 0
M  V30 13300 H 1295.73 -3.05044 2.90733 0
M  V30 13301 H 1294.4 -2.71755 1.75871 0
M  V30 13302 H 1293.31 -1.22785 3.53376 0
M  V30 13303 H 1294.64 -1.63406 4.64284 0
M  V30 13304 N 1296.29 -1.55015 -0.284256 0
M  V30 13305 C 1297.54 -1.7535 -1.01884 0
M  V30 13306 C 1297.87 -0.546825 -1.86342 0
M  V30 13307 O 1297.15 0.455832 -1.89083 0
M  V30 13308 C 1297.43 -3.05219 -1.91084 0
M  V30 13309 C 1297.28 -4.36219 -1.09694 0
M  V30 13310 C 1298.6 -3.31056 -2.89983 0
M  V30 13311 H 1295.72 -0.637981 -0.368984 0
M  V30 13312 H 1298.36 -1.87741 -0.292116 0
M  V30 13313 H 1296.51 -2.94786 -2.53048 0
M  V30 13314 H 1298.19 -4.58594 -0.498876 0
M  V30 13315 H 1296.43 -4.31951 -0.400078 0
M  V30 13316 H 1297.1 -5.23392 -1.75399 0
M  V30 13317 H 1299.58 -3.41209 -2.38151 0
M  V30 13318 H 1298.45 -4.23212 -3.49547 0
M  V30 13319 H 1298.71 -2.50153 -3.64521 0
M  V30 13320 N 1297.77 0.548248 -1.47757 0
M  V30 13321 C 1299.02 1.30458 -1.56052 0
M  V30 13322 C 1299.37 1.91096 -0.22363 0
M  V30 13323 O 1298.67 1.75375 0.771644 0
M  V30 13324 C 1298.86 2.42911 -2.62162 0
M  V30 13325 C 1298.69 1.93293 -4.06039 0
M  V30 13326 C 1297.46 1.76727 -4.73387 0
M  V30 13327 C 1299.66 1.47214 -4.9278 0
M  V30 13328 N 1297.64 1.21543 -6.01748 0
M  V30 13329 C 1299.01 1.03855 -6.1124 0
M  V30 13330 C 1301.06 1.35348 -4.79151 0
M  V30 13331 C 1299.77 0.498086 -7.17573 0
M  V30 13332 C 1301.79 0.827023 -5.85589 0
M  V30 13333 C 1301.16 0.40341 -7.03244 0
M  V30 13334 H 1297.25 0.469075 -0.625694 0
M  V30 13335 H 1299.84 0.620405 -1.84551 0
M  V30 13336 H 1298.01 3.08847 -2.35516 0
M  V30 13337 H 1299.74 3.09924 -2.60249 0
M  V30 13338 H 1296.5 1.99709 -4.29433 0
M  V30 13339 H 1296.92 0.960132 -6.70157 0
M  V30 13340 H 1301.56 1.66708 -3.88546 0
M  V30 13341 H 1299.28 0.172123 -8.07917 0
M  V30 13342 H 1302.87 0.738641 -5.77092 0
M  V30 13343 H 1301.75 0.00236338 -7.842 0
M  V30 13344 N 1299.25 1.36039 0.795694 0
M  V30 13345 C 1300.47 1.33222 1.58955 0
M  V30 13346 C 1300.9 -0.0854596 1.87906 0
M  V30 13347 O 1300.26 -1.05555 1.47403 0
M  V30 13348 C 1300.31 2.15508 2.89117 0
M  V30 13349 O 1299.41 1.54327 3.82436 0
M  V30 13350 H 1298.75 0.456264 0.48241 0
M  V30 13351 H 1301.28 1.79234 0.986726 0
M  V30 13352 H 1301.29 2.2786 3.38444 0
M  V30 13353 H 1299.97 3.18568 2.67371 0
M  V30 13354 H 1298.54 1.50879 3.41013 0
M  V30 13355 N 1300.73 -1.01913 1.20215 0
M  V30 13356 C 1301.95 -1.79613 1.03702 0
M  V30 13357 C 1302.38 -1.83591 -0.409374 0
M  V30 13358 O 1301.74 -1.26911 -1.29473 0
M  V30 13359 C 1301.78 -3.22052 1.62219 0
M  V30 13360 O 1300.89 -4.03374 0.858106 0
M  V30 13361 H 1300.23 -0.554095 0.365889 0
M  V30 13362 H 1302.76 -1.28203 1.59452 0
M  V30 13363 H 1302.77 -3.72772 1.65847 0
M  V30 13364 H 1301.44 -3.18471 2.67487 0
M  V30 13365 H 1300.02 -3.6198 0.895835 0
M  V30 13366 N 1302.21 -1.00763 -1.2118 0
M  V30 13367 C 1303.44 -0.709715 -1.94027 0
M  V30 13368 C 1303.84 0.732135 -1.7446 0
M  V30 13369 O 1303.19 1.50731 -1.05004 0
M  V30 13370 C 1303.25 -0.95427 -3.46603 0
M  V30 13371 C 1302.91 -2.38347 -3.89923 0
M  V30 13372 C 1303.91 -3.36383 -3.96412 0
M  V30 13373 C 1301.6 -2.72183 -4.22163 0
M  V30 13374 C 1303.59 -4.66321 -4.34538 0
M  V30 13375 C 1301.28 -4.02336 -4.59966 0
M  V30 13376 C 1302.27 -4.99216 -4.66125 0
M  V30 13377 O 1301.96 -6.27041 -5.03065 0
M  V30 13378 H 1301.69 -0.260545 -0.623773 0
M  V30 13379 H 1304.25 -1.34922 -1.54872 0
M  V30 13380 H 1302.48 -0.257599 -3.85841 0
M  V30 13381 H 1304.17 -0.649333 -4.00673 0
M  V30 13382 H 1304.93 -3.11578 -3.71677 0
M  V30 13383 H 1300.81 -1.97468 -4.16566 0
M  V30 13384 H 1304.36 -5.41938 -4.3926 0
M  V30 13385 H 1300.25 -4.26924 -4.84155 0
M  V30 13386 H 1301.02 -6.31196 -5.21089 0
M  V30 13387 N 1303.68 1.3679 -0.7827 0
M  V30 13388 C 1304.59 2.33928 -0.17747 0
M  V30 13389 C 1305.61 1.60716 0.666802 0
M  V30 13390 O 1306.79 1.92742 0.584162 0
M  V30 13391 C 1303.85 3.39907 0.68294 0
M  V30 13392 C 1302.91 4.28926 -0.179053 0
M  V30 13393 C 1302.15 5.29844 0.640386 0
M  V30 13394 O 1302.37 5.38639 1.87681 0
M  V30 13395 O 1301.3 6.01884 0.0438164 0
M  V30 13396 H 1305.13 2.87439 -0.980441 0
M  V30 13397 H 1302.71 1.39142 -0.54404 0
M  V30 13398 H 1304.6 4.04722 1.17379 0
M  V30 13399 H 1303.27 2.88706 1.46391 0
M  V30 13400 H 1302.18 3.67174 -0.716512 0
M  V30 13401 H 1303.51 4.83461 -0.923377 0
M  V30 13402 N 1305.16 0.53415 1.48272 0
M  V30 13403 C 1306.58 0.192291 1.58437 0
M  V30 13404 C 1306.78 -1.3046 1.53566 0
M  V30 13405 O 1305.83 -2.08316 1.42692 0
M  V30 13406 C 1307.15 0.798515 2.89904 0
M  V30 13407 C 1308.7 0.76763 3.03441 0
M  V30 13408 C 1309.17 1.3525 4.37574 0
M  V30 13409 N 1310.66 1.31466 4.44152 0
M  V30 13410 C 1311.4 1.73706 5.46456 0
M  V30 13411 N 1310.89 2.23695 6.55692 0
M  V30 13412 N 1312.69 1.64918 5.37363 0
M  V30 13413 H 1304.84 1.50696 1.49681 0
M  V30 13414 H 1307.1 0.627073 0.710973 0
M  V30 13415 H 1306.81 1.8496 2.99136 0
M  V30 13416 H 1306.68 0.278033 3.76174 0
M  V30 13417 H 1309.07 -0.274704 2.93819 0
M  V30 13418 H 1309.15 1.32562 2.18771 0
M  V30 13419 H 1308.79 2.39379 4.47951 0
M  V30 13420 H 1308.72 0.770153 5.20938 0
M  V30 13421 H 1311.21 0.948761 3.65796 0
M  V30 13422 H 1311.53 2.5391 7.29897 0
M  V30 13423 H 1309.87 2.27691 6.56644 0
M  V30 13424 H 1313.06 1.25658 4.50919 0
M  V30 13425 H 1313.23 1.98157 6.16958 0
M  V30 13426 N 1306.64 -1.55279 0.269478 0
M  V30 13427 C 1307.92 -1.91458 -0.400412 0
M  V30 13428 C 1308.3 -1.19306 -1.74153 0
M  V30 13429 O 1307.65 -0.318017 -2.26276 0
M  V30 13430 C 1307.86 -3.44698 -0.546258 0
M  V30 13431 C 1309.2 -4.16374 -0.831758 0
M  V30 13432 O 1310.23 -3.50561 -0.631279 0
M  V30 13433 O 1309.09 -5.32826 -1.21484 0
M  V30 13434 H 1306.18 -0.79766 -0.218328 0
M  V30 13435 H 1308.73 -1.66747 0.315214 0
M  V30 13436 H 1307.5 -3.89273 0.397784 0
M  V30 13437 H 1307.12 -3.75345 -1.31157 0
M  V30 13438 N 1308.12 0.00332656 -1.576 0
M  V30 13439 C 1309.05 0.994803 -2.11248 0
M  V30 13440 C 1310.03 1.36061 -1.02085 0
M  V30 13441 O 1311.21 1.44494 -1.2975 0
M  V30 13442 C 1308.34 2.28772 -2.61306 0
M  V30 13443 C 1307.3 2.06362 -3.74965 0
M  V30 13444 C 1306.62 3.41638 -4.11324 0
M  V30 13445 C 1307.92 1.4289 -5.02374 0
M  V30 13446 H 1309.62 0.548119 -2.9434 0
M  V30 13447 H 1307.16 0.262208 -1.41593 0
M  V30 13448 H 1309.12 2.98485 -2.97464 0
M  V30 13449 H 1307.84 2.75547 -1.75332 0
M  V30 13450 H 1306.5 1.39076 -3.39195 0
M  V30 13451 H 1306.15 3.8611 -3.22379 0
M  V30 13452 H 1305.85 3.2746 -4.87897 0
M  V30 13453 H 1307.37 4.12671 -4.50039 0
M  V30 13454 H 1308.79 2.02555 -5.36325 0
M  V30 13455 H 1307.18 1.3921 -5.8373 0
M  V30 13456 H 1308.25 0.397708 -4.83266 0
M  V30 13457 N 1309.6 1.55164 0.276031 0
M  V30 13458 C 1310.85 1.74833 1.0058 0
M  V30 13459 C 1311.16 0.555089 1.87558 0
M  V30 13460 O 1312.36 0.634127 2.63991 0
M  V30 13461 C 1310.82 3.09417 1.83818 0
M  V30 13462 C 1310.43 4.36299 1.01721 0
M  V30 13463 C 1312.17 3.38437 2.56244 0
M  V30 13464 C 1310.08 5.61923 1.8438 0
M  V30 13465 H 1309.01 0.651676 0.379254 0
M  V30 13466 H 1311.66 1.81626 0.26161 0
M  V30 13467 H 1310.04 2.96654 2.62321 0
M  V30 13468 H 1311.22 4.59969 0.276565 0
M  V30 13469 H 1309.53 4.144 0.407645 0
M  V30 13470 H 1312.13 4.29501 3.18485 0
M  V30 13471 H 1312.47 2.58432 3.26372 0
M  V30 13472 H 1313 3.52284 1.84773 0
M  V30 13473 H 1309.74 6.44667 1.18679 0
M  V30 13474 H 1309.26 5.424 2.56051 0
M  V30 13475 H 1310.94 6.0011 2.4182 0
M  V30 13476 N 1311.07 -0.540404 1.48045 0
M  V30 13477 C 1312.32 -1.2987 1.55762 0
M  V30 13478 C 1312.65 -1.92877 0.226307 0
M  V30 13479 O 1311.93 -1.7875 -0.766727 0
M  V30 13480 C 1312.21 -2.39602 2.68817 0
M  V30 13481 C 1312.06 -1.81354 4.1162 0
M  V30 13482 C 1313.38 -3.41434 2.77688 0
M  V30 13483 H 1310.5 -0.47083 0.566999 0
M  V30 13484 H 1313.14 -0.603081 1.80175 0
M  V30 13485 H 1311.29 -2.98936 2.48132 0
M  V30 13486 H 1312.97 -1.26151 4.43716 0
M  V30 13487 H 1311.21 -1.1194 4.19108 0
M  V30 13488 H 1311.88 -2.60758 4.86528 0
M  V30 13489 H 1314.36 -2.92042 2.96396 0
M  V30 13490 H 1313.23 -4.15621 3.5854 0
M  V30 13491 H 1313.49 -4.01336 1.85422 0
M  V30 13492 N 1312.55 -1.36459 -0.788468 0
M  V30 13493 C 1313.78 -1.34063 -1.58246 0
M  V30 13494 C 1314.2 0.0754933 -1.87948 0
M  V30 13495 O 1313.56 1.04772 -1.47961 0
M  V30 13496 C 1313.61 -2.17038 -2.8797 0
M  V30 13497 O 1312.71 -1.56353 -3.81612 0
M  V30 13498 H 1312.05 -0.458816 -0.479983 0
M  V30 13499 H 1314.58 -1.79755 -0.977207 0
M  V30 13500 H 1314.59 -2.29651 -3.3723 0
M  V30 13501 H 1313.27 -3.19981 -2.65678 0
M  V30 13502 H 1311.85 -1.52685 -3.40208 0
M  V30 13503 N 1314.03 1.01274 -1.20754 0
M  V30 13504 C 1315.26 1.7906 -1.04653 0
M  V30 13505 C 1315.68 1.83806 0.399632 0
M  V30 13506 O 1315.04 1.27596 1.28798 0
M  V30 13507 C 1315.09 3.21187 -1.63925 0
M  V30 13508 O 1314.19 4.02913 -0.879486 0
M  V30 13509 H 1313.53 0.552147 -0.368823 0
M  V30 13510 H 1316.06 1.27356 -1.6013 0
M  V30 13511 H 1316.07 3.71887 -1.67822 0
M  V30 13512 H 1314.75 3.17048 -2.69172 0
M  V30 13513 H 1313.32 3.61499 -0.915019 0
M  V30 13514 N 1315.51 1.01404 1.20644 0
M  V30 13515 C 1316.74 0.72104 1.93929 0
M  V30 13516 C 1317.15 -0.717853 1.7462 0
M  V30 13517 O 1316.51 -1.48664 1.05855 0
M  V30 13518 C 1316.56 1.04399 3.46097 0
M  V30 13519 O 1316.28 2.42637 3.64773 0
M  V30 13520 C 1317.78 0.771678 4.36532 0
M  V30 13521 H 1315 0.264983 0.616462 0
M  V30 13522 H 1317.55 1.35453 1.53208 0
M  V30 13523 H 1315.7 0.455946 3.84708 0
M  V30 13524 H 1316.12 2.54201 4.58783 0
M  V30 13525 H 1317.59 1.04774 5.41965 0
M  V30 13526 H 1318.07 -0.294188 4.38214 0
M  V30 13527 H 1318.67 1.34176 4.0358 0
M  V30 13528 N 1316.99 -1.36373 0.789944 0
M  V30 13529 C 1318.22 -2.03482 0.37453 0
M  V30 13530 C 1318.63 -1.59562 -1.00923 0
M  V30 13531 O 1317.99 -0.785289 -1.64741 0
M  V30 13532 C 1318.04 -3.58942 0.429255 0
M  V30 13533 O 1317.76 -4.01261 1.75845 0
M  V30 13534 C 1319.26 -4.433 0.00453729 0
M  V30 13535 H 1316.48 -0.653019 0.154295 0
M  V30 13536 H 1319.02 -1.74339 1.06894 0
M  V30 13537 H 1317.18 -3.86793 -0.21674 0
M  V30 13538 H 1317.59 -4.95854 1.70964 0
M  V30 13539 H 1319.07 -5.5192 0.0939653 0
M  V30 13540 H 1319.54 -4.26509 -1.04816 0
M  V30 13541 H 1320.15 -4.20712 0.623041 0
M  V30 13542 N 1318.47 -0.542005 -1.47987 0
M  V30 13543 C 1319.43 0.203537 -2.28294 0
M  V30 13544 C 1320.43 0.856762 -1.36074 0
M  V30 13545 O 1321.62 0.71496 -1.58852 0
M  V30 13546 C 1318.75 1.29581 -3.15312 0
M  V30 13547 H 1319.94 -0.501701 -2.95674 0
M  V30 13548 H 1317.5 -0.298378 -1.53426 0
M  V30 13549 H 1318.23 2.03393 -2.5259 0
M  V30 13550 H 1318.02 0.832398 -3.83163 0
M  V30 13551 H 1319.51 1.81988 -3.75859 0
M  V30 13552 N 1319.94 1.55134 -0.277709 0
M  V30 13553 C 1320.89 2.19317 0.623216 0
M  V30 13554 C 1321.88 1.15863 1.11645 0
M  V30 13555 O 1323.07 1.41668 1.0611 0
M  V30 13556 C 1320.2 2.91976 1.80568 0
M  V30 13557 C 1319.28 4.02722 1.3295 0
M  V30 13558 N 1319.68 5.02582 0.569654 0
M  V30 13559 C 1317.97 4.1584 1.61224 0
M  V30 13560 C 1318.67 5.80825 0.318983 0
M  V30 13561 N 1317.65 5.36229 0.892145 0
M  V30 13562 H 1321.45 2.93879 0.0348669 0
M  V30 13563 H 1318.97 1.62196 -0.0813871 0
M  V30 13564 H 1320.96 3.36408 2.46242 0
M  V30 13565 H 1319.62 2.18925 2.39796 0
M  V30 13566 H 1320.63 5.17446 0.216749 0
M  V30 13567 H 1317.31 3.53981 2.21368 0
M  V30 13568 H 1318.7 6.71275 -0.289742 0
M  V30 13569 N 1321.42 0.00503138 1.57599 0
M  V30 13570 C 1322.67 -0.67742 1.90409 0
M  V30 13571 C 1322.99 -1.74033 0.87963 0
M  V30 13572 O 1322.26 -1.95727 -0.0822757 0
M  V30 13573 H 1320.84 -0.2532 0.702779 0
M  V30 13574 H 1323.5 0.0471466 1.94843 0
M  V30 13575 H 1322.6 -1.14548 2.90319 0
M  V30 13576 N 1322.9 -1.55308 -0.267798 0
M  V30 13577 C 1324.14 -1.77913 -1.0063 0
M  V30 13578 C 1324.5 -0.571149 -1.83308 0
M  V30 13579 O 1325.7 -0.675552 -2.60173 0
M  V30 13580 C 1323.98 -3.05112 -1.86123 0
M  V30 13581 S 1325.53 -3.48856 -2.66167 0
M  V30 13582 H 1322.35 -0.625065 -0.338843 0
M  V30 13583 H 1324.95 -1.93539 -0.276196 0
M  V30 13584 H 1323.66 -3.91118 -1.24317 0
M  V30 13585 H 1323.19 -2.92165 -2.63444 0
M  V30 13586 H 1325.2 -3.0854 -3.8861 0
M  V30 13587 N 1324.38 0.532545 -1.4833 0
M  V30 13588 C 1325.65 1.29371 -1.46705 0
M  V30 13589 C 1326.03 2.10354 -0.177329 0
M  V30 13590 O 1325.38 2.12462 0.840968 0
M  V30 13591 C 1325.59 2.17733 -2.72751 0
M  V30 13592 C 1326.94 2.77956 -3.20976 0
M  V30 13593 O 1327.96 2.28022 -2.7365 0
M  V30 13594 O 1326.82 3.68779 -4.03317 0
M  V30 13595 H 1323.92 0.58378 -0.585773 0
M  V30 13596 H 1326.46 0.549411 -1.6056 0
M  V30 13597 H 1325.24 1.57659 -3.58133 0
M  V30 13598 H 1324.86 2.99415 -2.61603 0
M  V30 13599 N 1325.86 1.36875 0.78122 0
M  V30 13600 C 1326.8 1.31869 1.89418 0
M  V30 13601 C 1327.77 0.185904 1.65056 0
M  V30 13602 O 1328.96 0.373745 1.87104 0
M  V30 13603 C 1326.1 1.12205 3.2635 0
M  V30 13604 C 1325.21 2.34631 3.62729 0
M  V30 13605 C 1324.35 2.07914 4.8882 0
M  V30 13606 C 1323.38 3.26257 5.17902 0
M  V30 13607 N 1322.52 2.99152 6.35179 0
M  V30 13608 H 1327.36 2.2703 1.93032 0
M  V30 13609 H 1324.9 1.12826 0.943857 0
M  V30 13610 H 1326.86 0.988282 4.05326 0
M  V30 13611 H 1325.49 0.206959 3.22136 0
M  V30 13612 H 1324.54 2.58782 2.78812 0
M  V30 13613 H 1325.85 3.22919 3.80164 0
M  V30 13614 H 1325 1.91514 5.7568 0
M  V30 13615 H 1323.74 1.1695 4.7347 0
M  V30 13616 H 1322.75 3.43207 4.29522 0
M  V30 13617 H 1323.97 4.1806 5.35166 0
M  V30 13618 H 1321.92 2.10807 6.21205 0
M  V30 13619 H 1321.84 3.80981 6.52985 0
M  V30 13620 H 1323.1 2.86349 7.25 0
M  V30 13621 N 1327.33 -1.00632 1.21289 0
M  V30 13622 C 1328.26 -2.11238 0.995021 0
M  V30 13623 C 1329.24 -1.69914 -0.0795537 0
M  V30 13624 O 1330.43 -1.94035 0.0800152 0
M  V30 13625 C 1327.56 -3.42797 0.557475 0
M  V30 13626 C 1326.51 -3.97909 1.57646 0
M  V30 13627 C 1325.84 -5.25357 0.995197 0
M  V30 13628 C 1327.14 -4.30123 2.96297 0
M  V30 13629 H 1328.83 -2.29722 1.9201 0
M  V30 13630 H 1326.38 -1.10395 0.924602 0
M  V30 13631 H 1328.33 -4.19571 0.392236 0
M  V30 13632 H 1327.06 -3.24101 -0.403253 0
M  V30 13633 H 1325.72 -3.23254 1.72924 0
M  V30 13634 H 1325.36 -5.02993 0.026227 0
M  V30 13635 H 1325.06 -5.63196 1.67583 0
M  V30 13636 H 1326.59 -6.04777 0.841251 0
M  V30 13637 H 1328 -4.97744 2.8447 0
M  V30 13638 H 1326.4 -4.79101 3.61361 0
M  V30 13639 H 1327.47 -3.38454 3.47242 0
M  V30 13640 N 1328.81 -1.02043 -1.20104 0
M  V30 13641 C 1329.77 -0.598682 -2.21243 0
M  V30 13642 C 1330.77 0.333205 -1.5731 0
M  V30 13643 O 1331.96 0.12137 -1.73777 0
M  V30 13644 C 1329.1 0.125183 -3.4067 0
M  V30 13645 H 1330.29 -1.49345 -2.60069 0
M  V30 13646 H 1327.84 -0.810649 -1.33634 0
M  V30 13647 H 1328.58 1.03469 -3.07351 0
M  V30 13648 H 1328.36 -0.544316 -3.88304 0
M  V30 13649 H 1329.85 0.407469 -4.15607 0
M  V30 13650 N 1330.29 1.35952 -0.797165 0
M  V30 13651 C 1331.71 1.52218 -0.479765 0
M  V30 13652 C 1331.91 1.74898 1.00064 0
M  V30 13653 O 1330.96 1.78495 1.78594 0
M  V30 13654 C 1332.28 2.70328 -1.31694 0
M  V30 13655 C 1333.82 2.84202 -1.31142 0
M  V30 13656 C 1334.3 4.05325 -2.13251 0
M  V30 13657 N 1335.79 4.12485 -2.10737 0
M  V30 13658 C 1336.52 5.053 -2.71033 0
M  V30 13659 N 1336.02 6.03509 -3.40219 0
M  V30 13660 N 1337.81 4.97975 -2.60725 0
M  V30 13661 H 1329.96 1.19486 -1.75604 0
M  V30 13662 H 1332.23 0.58383 -0.746892 0
M  V30 13663 H 1331.93 2.60116 -2.36712 0
M  V30 13664 H 1331.81 3.64684 -0.963607 0
M  V30 13665 H 1334.19 2.9387 -0.269131 0
M  V30 13666 H 1334.28 1.9073 -1.70457 0
M  V30 13667 H 1333.92 3.96417 -3.17515 0
M  V30 13668 H 1333.85 4.97959 -1.71302 0
M  V30 13669 H 1336.34 3.42174 -1.6039 0
M  V30 13670 H 1336.65 6.70909 -3.83537 0
M  V30 13671 H 1335 6.03711 -3.44322 0
M  V30 13672 H 1338.19 4.20203 -2.0627 0
M  V30 13673 H 1338.36 5.70119 -3.08007 0
M  V30 13674 N 1331.77 0.549846 1.47697 0
M  V30 13675 C 1333.01 0.0253105 2.04384 0
M  V30 13676 C 1333.37 -1.29692 1.41576 0
M  V30 13677 O 1334.57 -1.9087 1.89267 0
M  V30 13678 C 1332.84 -0.0736795 3.57324 0
M  V30 13679 S 1334.4 -0.545405 4.35397 0
M  V30 13680 H 1331.22 0.0215991 0.710672 0
M  V30 13681 H 1333.82 0.734912 1.81161 0
M  V30 13682 H 1332.53 0.893144 4.00563 0
M  V30 13683 H 1332.06 -0.80706 3.85033 0
M  V30 13684 H 1334.07 -1.80644 4.6215 0
M  V30 13685 N 1333.25 -1.54984 0.285932 0
M  V30 13686 C 1334.47 -2.04239 -0.330774 0
M  V30 13687 C 1334.89 -1.16387 -1.48659 0
M  V30 13688 O 1334.25 -0.186255 -1.81547 0
M  V30 13689 C 1334.3 -3.52504 -0.801456 0
M  V30 13690 O 1334.02 -4.37014 0.30834 0
M  V30 13691 C 1335.52 -4.17692 -1.48487 0
M  V30 13692 H 1332.74 -0.666903 -0.0740351 0
M  V30 13693 H 1335.28 -2.00116 0.421178 0
M  V30 13694 H 1333.44 -3.57036 -1.50347 0
M  V30 13695 H 1333.85 -5.24471 -0.0553891 0
M  V30 13696 H 1335.33 -5.23004 -1.76552 0
M  V30 13697 H 1335.8 -3.66515 -2.41999 0
M  V30 13698 H 1336.41 -4.17193 -0.826428 0
M  V30 13699 N 1334.72 -0.0133892 -1.57594 0
M  V30 13700 C 1335.96 0.672977 -1.93004 0
M  V30 13701 C 1336.33 1.70188 -0.888816 0
M  V30 13702 O 1337.53 2.4396 -1.12859 0
M  V30 13703 C 1335.8 1.28743 -3.33407 0
M  V30 13704 S 1337.36 1.99706 -3.90721 0
M  V30 13705 H 1334.18 0.221972 -0.675462 0
M  V30 13706 H 1336.78 -0.0732871 -1.95363 0
M  V30 13707 H 1335.48 0.525931 -4.07016 0
M  V30 13708 H 1335.01 2.07134 -3.34454 0
M  V30 13709 H 1337.03 3.27375 -3.72881 0
M  V30 13710 N 1336.2 1.55448 0.259558 0
M  V30 13711 C 1337.15 1.90056 1.34096 0
M  V30 13712 C 1338.14 0.778267 1.50464 0
M  V30 13713 O 1339.35 0.962758 1.52089 0
M  V30 13714 H 1335.73 0.603424 0.448758 0
M  V30 13715 H 1337.7 2.80365 1.02166 0
M  V30 13716 C 1336.45 2.20074 2.69189 0
M  V30 13717 H 1335.77 3.05926 2.57389 0
M  V30 13718 H 1337.21 2.48201 3.43762 0
M  V30 13719 C 1335.67 1.01281 3.21316 0
M  V30 13720 O 1336.2 0.2543 4.00894 0
M  V30 13721 N 1334.4 0.806855 2.79174 0
M  V30 13722 H 1333.95 1.42536 2.14572 0
M  V30 13723 H 1333.91 0.0136714 3.14397 0
M  V30 13724 N 1337.68 -0.524672 1.4861 0
M  V30 13725 C 1338.91 -1.30482 1.60568 0
M  V30 13726 C 1339.32 -1.86889 0.267952 0
M  V30 13727 O 1338.68 -1.66669 -0.743488 0
M  V30 13728 C 1338.73 -2.45191 2.65638 0
M  V30 13729 O 1338.45 -1.91107 3.9422 0
M  V30 13730 C 1339.95 -3.36931 2.88084 0
M  V30 13731 H 1337.17 -0.396612 0.541239 0
M  V30 13732 H 1339.72 -0.632392 1.94476 0
M  V30 13733 H 1337.87 -3.08308 2.34574 0
M  V30 13734 H 1338.29 -2.66234 4.51907 0
M  V30 13735 H 1339.76 -4.13755 3.65391 0
M  V30 13736 H 1340.24 -3.92487 1.97106 0
M  V30 13737 H 1340.84 -2.79601 3.20473 0
M  V30 13738 N 1339.16 -1.37287 -0.77395 0
M  V30 13739 C 1340.41 -1.32112 -1.5294 0
M  V30 13740 C 1340.73 0.0946137 -1.9477 0
M  V30 13741 O 1340 1.03817 -1.66129 0
M  V30 13742 H 1338.58 -0.486047 -0.567245 0
M  V30 13743 H 1341.24 -1.71752 -0.921263 0
M  V30 13744 H 1340.34 -1.95873 -2.42982 0
M  V30 13745 N 1340.64 0.999871 -1.21821 0
M  V30 13746 C 1341.88 1.74098 -1.04009 0
M  V30 13747 C 1342.22 1.89499 0.424716 0
M  V30 13748 O 1341.49 1.43306 1.31505 0
M  V30 13749 C 1341.77 3.1506 -1.74382 0
M  V30 13750 C 1341.63 3.0735 -3.28414 0
M  V30 13751 C 1342.95 4.1409 -1.49055 0
M  V30 13752 H 1340.06 0.631935 -0.379245 0
M  V30 13753 H 1342.71 1.16534 -1.50066 0
M  V30 13754 H 1340.86 3.64206 -1.35227 0
M  V30 13755 H 1342.53 2.65879 -3.76969 0
M  V30 13756 H 1340.77 2.44325 -3.58452 0
M  V30 13757 H 1341.44 4.07069 -3.72825 0
M  V30 13758 H 1343.92 3.73672 -1.83054 0
M  V30 13759 H 1342.79 5.10853 -2.008 0
M  V30 13760 H 1343.06 4.40085 -0.421641 0
M  V30 13761 N 1342.11 1.02678 1.19562 0
M  V30 13762 C 1343.34 0.740493 1.92874 0
M  V30 13763 C 1343.75 -0.704287 1.75603 0
M  V30 13764 O 1343.1 -1.49042 1.07389 0
M  V30 13765 C 1343.16 1.00929 3.45041 0
M  V30 13766 C 1342.82 2.4452 3.86081 0
M  V30 13767 C 1343.82 3.42647 3.9101 0
M  V30 13768 C 1341.5 2.78865 4.1778 0
M  V30 13769 C 1343.5 4.73175 4.27065 0
M  V30 13770 C 1341.18 4.09603 4.53507 0
M  V30 13771 C 1342.18 5.06568 4.58124 0
M  V30 13772 O 1341.87 6.34965 4.93026 0
M  V30 13773 H 1341.6 0.270435 0.619549 0
M  V30 13774 H 1344.16 1.37369 1.52706 0
M  V30 13775 H 1342.39 0.31895 3.85382 0
M  V30 13776 H 1344.08 0.712994 3.99589 0
M  V30 13777 H 1344.84 3.17452 3.66673 0
M  V30 13778 H 1340.72 2.04071 4.13372 0
M  V30 13779 H 1344.26 5.48857 4.30583 0
M  V30 13780 H 1340.16 4.34573 4.77302 0
M  V30 13781 H 1340.93 6.39406 5.10982 0
M  V30 13782 N 1343.59 -1.35528 0.804364 0
M  V30 13783 C 1344.84 -1.98832 0.383692 0
M  V30 13784 C 1345.17 -1.63816 -1.04855 0
M  V30 13785 O 1344.42 -0.892272 -1.74175 0
M  V30 13786 C 1344.72 -3.5372 0.511571 0
M  V30 13787 C 1344.39 -4.08597 1.9068 0
M  V30 13788 C 1343.05 -4.23297 2.28852 0
M  V30 13789 C 1345.4 -4.3834 2.81971 0
M  V30 13790 C 1342.73 -4.65056 3.57687 0
M  V30 13791 C 1345.08 -4.81537 4.1025 0
M  V30 13792 C 1343.75 -4.94442 4.48423 0
M  V30 13793 H 1343.02 -0.727577 0.140403 0
M  V30 13794 H 1345.66 -1.61777 1.02472 0
M  V30 13795 H 1343.97 -3.91221 -0.212916 0
M  V30 13796 H 1345.66 -4.00653 0.166888 0
M  V30 13797 H 1342.25 -3.97606 1.60023 0
M  V30 13798 H 1346.44 -4.26538 2.5373 0
M  V30 13799 H 1341.69 -4.73236 3.87115 0
M  V30 13800 H 1345.87 -5.03512 4.81091 0
M  V30 13801 H 1343.5 -5.26558 5.48307 0
M  V30 13802 N 1345.07 -0.557671 -1.47404 0
M  V30 13803 C 1346.31 -0.0361491 -2.04368 0
M  V30 13804 C 1346.68 1.2894 -1.42262 0
M  V30 13805 O 1347.88 1.89864 -1.90276 0
M  V30 13806 C 1346.15 0.0547287 -3.57358 0
M  V30 13807 S 1347.71 0.522307 -4.3568 0
M  V30 13808 H 1344.52 -0.0253676 -0.710547 0
M  V30 13809 H 1347.13 -0.744509 -1.80769 0
M  V30 13810 H 1345.83 -0.914374 -4.00084 0
M  V30 13811 H 1345.36 0.786629 -3.85455 0
M  V30 13812 H 1347.38 1.7819 -4.63101 0
M  V30 13813 N 1346.55 1.54831 -0.294147 0
M  V30 13814 C 1347.5 2.23263 0.58499 0
M  V30 13815 C 1348.47 1.21278 1.13494 0
M  V30 13816 O 1349.65 1.49878 1.18073 0
M  V30 13817 C 1346.79 2.97185 1.75429 0
M  V30 13818 C 1345.9 4.1393 1.23638 0
M  V30 13819 C 1345.04 4.7545 2.36899 0
M  V30 13820 C 1344.08 5.84352 1.82207 0
M  V30 13821 N 1343.22 6.39855 2.89015 0
M  V30 13822 H 1348.06 2.98 -0.00519329 0
M  V30 13823 H 1345.59 1.47093 -0.0143313 0
M  V30 13824 H 1347.55 3.38271 2.4419 0
M  V30 13825 H 1346.18 2.24837 2.3162 0
M  V30 13826 H 1345.23 3.77832 0.441247 0
M  V30 13827 H 1346.54 4.92409 0.795946 0
M  V30 13828 H 1345.7 5.19353 3.1362 0
M  V30 13829 H 1344.44 3.96288 2.84266 0
M  V30 13830 H 1343.44 5.39879 1.03974 0
M  V30 13831 H 1344.67 6.65393 1.35753 0
M  V30 13832 H 1342.61 5.6358 3.35729 0
M  V30 13833 H 1342.53 7.13661 2.49447 0
M  V30 13834 H 1343.8 6.88417 3.65654 0
M  V30 13835 N 1348.03 0.0217466 1.57585 0
M  V30 13836 C 1349.25 -0.67246 1.96196 0
M  V30 13837 C 1349.68 -1.6529 0.897827 0
M  V30 13838 O 1349.04 -1.80743 -0.142002 0
M  V30 13839 C 1349.08 -1.36162 3.33905 0
M  V30 13840 O 1348.19 -2.47671 3.29747 0
M  V30 13841 H 1347.53 -0.177238 0.639908 0
M  V30 13842 H 1350.06 0.0814073 2.04438 0
M  V30 13843 H 1350.07 -1.7201 3.69968 0
M  V30 13844 H 1348.74 -0.642893 4.10901 0
M  V30 13845 H 1347.32 -2.13989 3.0539 0
M  V30 13846 N 1349.51 -1.55583 -0.251311 0
M  V30 13847 C 1350.47 -1.89148 -1.29443 0
M  V30 13848 C 1351.47 -0.7676 -1.41296 0
M  V30 13849 O 1352.66 -1.03563 -1.40073 0
M  V30 13850 C 1349.79 -2.11601 -2.67279 0
M  V30 13851 H 1350.98 -2.82416 -1.00901 0
M  V30 13852 H 1348.54 -1.48407 -0.490398 0
M  V30 13853 H 1349.27 -1.20787 -3.00967 0
M  V30 13854 H 1349.06 -2.93449 -2.60058 0
M  V30 13855 H 1350.55 -2.38768 -3.42607 0
M  V30 13856 N 1350.98 0.516783 -1.48886 0
M  V30 13857 C 1351.93 1.64093 -1.64853 0
M  V30 13858 C 1352.93 1.61392 -0.514685 0
M  V30 13859 O 1354.13 1.6609 -0.693831 0
M  V30 13860 H 1350.51 0.543672 -0.519543 0
M  V30 13861 H 1352.48 1.47774 -2.5924 0
M  V30 13862 C 1351.23 3.02308 -1.71771 0
M  V30 13863 H 1350.55 3.05085 -2.58385 0
M  V30 13864 H 1351.99 3.80544 -1.86982 0
M  V30 13865 C 1350.45 3.33757 -0.459136 0
M  V30 13866 O 1350.98 3.99475 0.422177 0
M  V30 13867 N 1349.18 2.88756 -0.326837 0
M  V30 13868 H 1348.73 2.35452 -1.045 0
M  V30 13869 H 1348.69 3.10166 0.514213 0
M  V30 13870 N 1352.46 1.37696 0.766659 0
M  V30 13871 C 1353.41 1.33871 1.88009 0
M  V30 13872 C 1354.38 0.2034 1.6485 0
M  V30 13873 O 1355.56 0.393569 1.86697 0
M  V30 13874 C 1352.7 1.1566 3.25141 0
M  V30 13875 C 1351.82 2.38465 3.6022 0
M  V30 13876 C 1350.95 2.13087 4.86587 0
M  V30 13877 C 1349.99 3.31732 5.14413 0
M  V30 13878 N 1349.13 3.05872 6.3197 0
M  V30 13879 H 1353.97 2.29065 1.90613 0
M  V30 13880 H 1351.5 1.13821 0.931837 0
M  V30 13881 H 1353.46 1.03122 4.04255 0
M  V30 13882 H 1352.09 0.241115 3.21898 0
M  V30 13883 H 1351.14 2.61725 2.76051 0
M  V30 13884 H 1352.46 3.26933 3.76718 0
M  V30 13885 H 1351.61 1.97609 5.73616 0
M  V30 13886 H 1350.35 1.21965 4.72203 0
M  V30 13887 H 1349.35 3.47743 4.25858 0
M  V30 13888 H 1350.58 4.23712 5.30702 0
M  V30 13889 H 1348.53 2.17384 6.18935 0
M  V30 13890 H 1348.44 3.87885 6.48908 0
M  V30 13891 H 1349.71 2.94023 7.21922 0
M  V30 13892 N 1353.94 -0.993397 1.22349 0
M  V30 13893 C 1354.89 -2.06784 0.960445 0
M  V30 13894 C 1355.87 -1.60655 -0.0887385 0
M  V30 13895 O 1357.07 -1.76581 0.121716 0
M  V30 13896 C 1354.19 -3.39034 0.539552 0
M  V30 13897 C 1353.28 -3.91798 1.62344 0
M  V30 13898 N 1353.67 -4.17791 2.85104 0
M  V30 13899 C 1351.97 -4.20197 1.49501 0
M  V30 13900 C 1352.67 -4.6067 3.55187 0
M  V30 13901 N 1351.65 -4.64333 2.82658 0
M  V30 13902 H 1355.45 -2.24821 1.89295 0
M  V30 13903 H 1352.96 -1.17509 1.12095 0
M  V30 13904 H 1354.96 -4.15573 0.332419 0
M  V30 13905 H 1353.62 -3.22397 -0.38606 0
M  V30 13906 H 1354.63 -4.05999 3.21536 0
M  V30 13907 H 1351.31 -4.12634 0.635546 0
M  V30 13908 H 1352.7 -4.89408 4.60358 0
M  V30 13909 N 1355.42 -1.03311 -1.19015 0
M  V30 13910 C 1356.66 -0.732039 -1.88805 0
M  V30 13911 C 1356.99 0.739688 -1.79886 0
M  V30 13912 O 1356.25 1.55476 -1.18851 0
M  V30 13913 C 1356.55 -1.13402 -3.38932 0
M  V30 13914 C 1356.21 -2.60473 -3.68055 0
M  V30 13915 C 1354.87 -3.00654 -3.75713 0
M  V30 13916 C 1357.23 -3.55604 -3.81045 0
M  V30 13917 C 1354.55 -4.3487 -3.93833 0
M  V30 13918 C 1356.91 -4.89529 -4.00679 0
M  V30 13919 C 1355.57 -5.29392 -4.06571 0
M  V30 13920 H 1354.84 -0.267872 -0.690888 0
M  V30 13921 H 1357.49 -1.29673 -1.40915 0
M  V30 13922 H 1355.79 -0.487997 -3.88749 0
M  V30 13923 H 1357.49 -0.878532 -3.91258 0
M  V30 13924 H 1354.08 -2.28348 -3.62706 0
M  V30 13925 H 1358.26 -3.25711 -3.74467 0
M  V30 13926 H 1353.52 -4.65285 -3.96636 0
M  V30 13927 H 1357.69 -5.63153 -4.09672 0
M  V30 13928 H 1355.32 -6.33402 -4.20364 0
M  V30 13929 N 1356.9 1.35099 -0.81154 0
M  V30 13930 C 1358.31 1.81082 -0.454543 0
M  V30 13931 C 1358.66 1.67361 1.02395 0
M  V30 13932 O 1357.78 1.20707 1.79607 0
M  V30 13933 C 1358.38 3.2877 -0.818274 0
M  V30 13934 C 1356.94 3.72877 -0.513808 0
M  V30 13935 C 1356.08 2.57008 -1.04125 0
M  V30 13936 H 1359.03 1.23007 -1.00274 0
M  V30 13937 H 1359.06 3.80318 -0.117683 0
M  V30 13938 H 1358.57 3.38725 -1.89439 0
M  V30 13939 H 1356.67 3.68468 0.553368 0
M  V30 13940 H 1356.78 4.67455 -1.0499 0
M  V30 13941 H 1355.15 2.5045 -0.463337 0
M  V30 13942 H 1355.93 2.69738 -2.12358 0
M  V30 13943 N 1358.37 0.56548 1.47106 0
M  V30 13944 C 1359.62 0.0445914 2.02751 0
M  V30 13945 C 1359.95 -1.30517 1.43801 0
M  V30 13946 O 1359.23 -1.85123 0.596646 0
M  V30 13947 C 1359.51 -0.0396474 3.60078 0
M  V30 13948 C 1359.36 1.3378 4.29445 0
M  V30 13949 C 1360.68 -0.748954 4.3368 0
M  V30 13950 H 1357.8 0.0176787 0.736788 0
M  V30 13951 H 1360.44 0.729363 1.75443 0
M  V30 13952 H 1358.59 -0.622826 3.83475 0
M  V30 13953 H 1360.27 1.96482 4.17364 0
M  V30 13954 H 1358.51 1.91024 3.89477 0
M  V30 13955 H 1359.18 1.23149 5.38088 0
M  V30 13956 H 1361.66 -0.253707 4.15326 0
M  V30 13957 H 1360.53 -0.776877 5.43374 0
M  V30 13958 H 1360.79 -1.80679 4.03494 0
M  V30 13959 N 1359.85 -1.54672 0.302354 0
M  V30 13960 C 1361.09 -2.02076 -0.30738 0
M  V30 13961 C 1361.46 -1.18603 -1.50988 0
M  V30 13962 O 1362.66 -1.5571 -2.19107 0
M  V30 13963 C 1360.93 -3.5137 -0.65375 0
M  V30 13964 S 1362.49 -4.20733 -1.24615 0
M  V30 13965 H 1359.31 -0.704725 -0.0942521 0
M  V30 13966 H 1361.91 -1.907 0.430542 0
M  V30 13967 H 1360.61 -4.09756 0.229892 0
M  V30 13968 H 1360.14 -3.66784 -1.42243 0
M  V30 13969 H 1362.16 -4.26624 -2.5339 0
M  V30 13970 N 1361.33 -0.0301034 -1.57571 0
M  V30 13971 C 1362.58 0.648323 -1.91841 0
M  V30 13972 C 1362.91 1.72078 -0.906601 0
M  V30 13973 O 1362.16 1.95518 0.0843233 0
M  V30 13974 C 1362.46 1.30206 -3.32838 0
M  V30 13975 C 1362.13 0.359876 -4.49462 0
M  V30 13976 C 1360.79 0.100552 -4.81095 0
M  V30 13977 C 1363.14 -0.287048 -5.20409 0
M  V30 13978 C 1360.47 -0.813484 -5.81033 0
M  V30 13979 C 1362.82 -1.18914 -6.21323 0
M  V30 13980 C 1361.48 -1.45735 -6.51397 0
M  V30 13981 H 1360.75 0.237238 -0.701997 0
M  V30 13982 H 1363.4 -0.0920804 -1.91278 0
M  V30 13983 H 1361.71 2.11724 -3.29667 0
M  V30 13984 H 1363.4 1.83356 -3.56625 0
M  V30 13985 H 1359.99 0.572172 -4.24764 0
M  V30 13986 H 1364.18 -0.0997611 -4.962 0
M  V30 13987 H 1359.43 -1.02897 -6.02679 0
M  V30 13988 H 1363.61 -1.69661 -6.75417 0
M  V30 13989 H 1361.23 -2.16727 -7.28652 0
M  V30 13990 N 1362.81 1.55714 0.243056 0
M  V30 13991 C 1363.74 1.87093 1.32396 0
M  V30 13992 C 1364.75 0.757482 1.44104 0
M  V30 13993 O 1365.94 1.03563 1.45386 0
M  V30 13994 C 1363.04 2.04546 2.70212 0
M  V30 13995 C 1362.22 3.3543 2.80723 0
M  V30 13996 C 1361.27 3.42578 3.99408 0
M  V30 13997 O 1360.3 4.15762 3.88755 0
M  V30 13998 N 1361.5 2.7215 5.12752 0
M  V30 13999 H 1364.27 2.80399 1.05813 0
M  V30 14000 H 1361.83 1.55998 0.433151 0
M  V30 14001 H 1363.82 2.06665 3.47954 0
M  V30 14002 H 1362.39 1.17966 2.89487 0
M  V30 14003 H 1361.61 3.45594 1.89626 0
M  V30 14004 H 1362.9 4.21692 2.84698 0
M  V30 14005 H 1362.3 2.1243 5.24299 0
M  V30 14006 H 1360.85 2.79957 5.88615 0
M  V30 14007 N 1364.29 -0.50888 1.49158 0
M  V30 14008 C 1365.53 -1.261 1.57934 0
M  V30 14009 C 1365.86 -1.93199 0.264405 0
M  V30 14010 O 1365.13 -1.82359 -0.715684 0
M  V30 14011 H 1363.71 -0.468421 0.581886 0
M  V30 14012 H 1366.37 -0.590447 1.85741 0
M  V30 14013 H 1365.46 -2.02913 2.37135 0
M  V30 14014 N 1365.76 -1.381 -0.759346 0
M  V30 14015 C 1367.18 -1.30379 -1.33635 0
M  V30 14016 C 1367.53 0.0430279 -1.96153 0
M  V30 14017 O 1366.65 0.945029 -1.94675 0
M  V30 14018 C 1367.25 -2.3611 -2.42976 0
M  V30 14019 C 1365.81 -2.31985 -2.96412 0
M  V30 14020 C 1364.95 -2.19281 -1.69739 0
M  V30 14021 H 1367.9 -1.48542 -0.558656 0
M  V30 14022 H 1367.92 -2.01493 -3.22771 0
M  V30 14023 H 1367.44 -3.34122 -1.97445 0
M  V30 14024 H 1365.54 -1.37536 -3.46287 0
M  V30 14025 H 1365.65 -3.25895 -3.51183 0
M  V30 14026 H 1364.01 -1.66035 -1.93144 0
M  V30 14027 H 1364.8 -3.19225 -1.26293 0
M  V30 14028 N 1367.24 0.986894 -1.22875 0
M  V30 14029 C 1368.49 1.72388 -1.05484 0
M  V30 14030 C 1368.81 1.90639 0.410074 0
M  V30 14031 O 1368.08 1.47036 1.2945 0
M  V30 14032 H 1366.66 0.638732 -0.387337 0
M  V30 14033 H 1369.32 1.18829 -1.54485 0
M  V30 14034 H 1368.42 2.71599 -1.53754 0
M  V30 14035 N 1368.72 1.0394 1.18466 0
M  V30 14036 C 1369.65 0.650182 2.24265 0
M  V30 14037 C 1370.63 -0.345968 1.66545 0
M  V30 14038 O 1371.82 -0.226348 1.92876 0
M  V30 14039 C 1368.95 0.0110451 3.47298 0
M  V30 14040 C 1367.9 0.930599 4.17761 0
M  V30 14041 C 1367.23 0.156005 5.34472 0
M  V30 14042 C 1368.53 2.24913 4.71393 0
M  V30 14043 H 1370.22 1.53465 2.57078 0
M  V30 14044 H 1367.77 0.739343 1.23571 0
M  V30 14045 H 1369.72 -0.272959 4.20515 0
M  V30 14046 H 1368.44 -0.908288 3.13716 0
M  V30 14047 H 1367.1 1.19897 3.4644 0
M  V30 14048 H 1366.75 -0.765695 4.97138 0
M  V30 14049 H 1366.45 0.768606 5.82551 0
M  V30 14050 H 1367.97 -0.121011 6.1048 0
M  V30 14051 H 1369.39 2.02592 5.36311 0
M  V30 14052 H 1367.79 2.81459 5.30001 0
M  V30 14053 H 1368.86 2.8965 3.88884 0
M  V30 14054 N 1370.2 -1.34667 0.818693 0
M  V30 14055 C 1371.43 -2.02642 0.417608 0
M  V30 14056 C 1371.84 -1.61667 -0.97516 0
M  V30 14057 O 1371.2 -0.820056 -1.63038 0
M  V30 14058 C 1371.25 -3.57951 0.505295 0
M  V30 14059 O 1370.97 -3.97441 1.84317 0
M  V30 14060 C 1372.47 -4.4319 0.0985667 0
M  V30 14061 H 1369.69 -0.6496 0.168111 0
M  V30 14062 H 1372.24 -1.72032 1.10568 0
M  V30 14063 H 1370.39 -3.87166 -0.134646 0
M  V30 14064 H 1370.8 -4.92116 1.81444 0
M  V30 14065 H 1372.28 -5.51597 0.211015 0
M  V30 14066 H 1372.76 -4.28637 -0.95745 0
M  V30 14067 H 1373.36 -4.19295 0.71214 0
M  V30 14068 N 1371.68 -0.573274 -1.46804 0
M  V30 14069 C 1372.92 -0.0552613 -2.02425 0
M  V30 14070 C 1373.25 1.30098 -1.44585 0
M  V30 14071 O 1372.51 1.86366 -0.597166 0
M  V30 14072 C 1372.81 0.0704285 -3.57331 0
M  V30 14073 C 1372.47 -1.217 -4.34166 0
M  V30 14074 C 1371.13 -1.56973 -4.54877 0
M  V30 14075 C 1373.49 -2.06939 -4.78357 0
M  V30 14076 C 1370.81 -2.77302 -5.1703 0
M  V30 14077 C 1373.17 -3.26486 -5.41839 0
M  V30 14078 C 1371.83 -3.62053 -5.6078 0
M  V30 14079 H 1371.1 -0.0202215 -0.740724 0
M  V30 14080 H 1373.75 -0.748016 -1.76287 0
M  V30 14081 H 1372.05 0.846254 -3.82552 0
M  V30 14082 H 1373.75 0.486841 -3.98034 0
M  V30 14083 H 1370.34 -0.932374 -4.18336 0
M  V30 14084 H 1374.52 -1.80992 -4.62121 0
M  V30 14085 H 1369.78 -3.05008 -5.29887 0
M  V30 14086 H 1373.95 -3.92811 -5.75042 0
M  V30 14087 H 1371.58 -4.55385 -6.08711 0
M  V30 14088 N 1373.15 1.5451 -0.310553 0
M  V30 14089 C 1374.4 1.99505 0.296731 0
M  V30 14090 C 1374.72 1.20257 1.54265 0
M  V30 14091 O 1375.92 1.55566 2.22512 0
M  V30 14092 C 1374.38 3.55208 0.579251 0
M  V30 14093 C 1373.99 4.43276 -0.648874 0
M  V30 14094 C 1375.73 4.08705 1.1472 0
M  V30 14095 C 1373.64 5.90428 -0.338978 0
M  V30 14096 H 1372.57 0.745232 0.114652 0
M  V30 14097 H 1375.22 1.78611 -0.420749 0
M  V30 14098 H 1373.6 3.72039 1.35658 0
M  V30 14099 H 1374.77 4.3822 -1.42478 0
M  V30 14100 H 1373.09 4.00601 -1.13613 0
M  V30 14101 H 1375.69 5.16223 1.39346 0
M  V30 14102 H 1376.03 3.59889 2.09249 0
M  V30 14103 H 1376.56 3.95454 0.431363 0
M  V30 14104 H 1373.3 6.43411 -1.25309 0
M  V30 14105 H 1372.82 5.98468 0.399475 0
M  V30 14106 H 1374.5 6.46976 0.0559696 0
M  V30 14107 N 1374.63 0.0384594 1.57553 0
M  V30 14108 C 1375.54 -0.955737 2.14249 0
M  V30 14109 C 1376.56 -1.35056 1.09708 0
M  V30 14110 O 1377.74 -1.43008 1.41812 0
M  V30 14111 C 1374.8 -2.21647 2.66596 0
M  V30 14112 C 1373.86 -1.88119 3.85888 0
M  V30 14113 C 1373.09 -3.08182 4.35729 0
M  V30 14114 O 1373.32 -4.21145 3.84699 0
M  V30 14115 O 1372.25 -2.89936 5.27467 0
M  V30 14116 H 1376.08 -0.50361 2.99495 0
M  V30 14117 H 1373.66 -0.182698 1.48279 0
M  V30 14118 H 1375.54 -2.9564 3.00291 0
M  V30 14119 H 1374.22 -2.66022 1.84428 0
M  V30 14120 H 1373.13 -1.11481 3.57103 0
M  V30 14121 H 1374.46 -1.48553 4.69247 0
M  V30 14122 N 1376.11 -1.55841 -0.234795 0
M  V30 14123 C 1377.07 -1.9051 -1.2743 0
M  V30 14124 C 1378.07 -0.782543 -1.40474 0
M  V30 14125 O 1379.26 -1.05043 -1.38966 0
M  V30 14126 C 1376.4 -2.14424 -2.65019 0
M  V30 14127 H 1377.59 -2.83471 -0.979003 0
M  V30 14128 H 1375.14 -1.48919 -0.47463 0
M  V30 14129 H 1375.88 -1.23972 -2.99669 0
M  V30 14130 H 1375.66 -2.96191 -2.56931 0
M  V30 14131 H 1377.15 -2.42388 -3.40056 0
M  V30 14132 N 1377.59 0.500963 -1.49426 0
M  V30 14133 C 1378.54 1.62335 -1.66584 0
M  V30 14134 C 1379.53 1.60837 -0.531773 0
M  V30 14135 O 1380.74 1.65345 -0.711408 0
M  V30 14136 H 1377.11 0.538131 -0.52528 0
M  V30 14137 H 1379.08 1.45016 -2.60793 0
M  V30 14138 C 1377.83 3.00469 -1.74968 0
M  V30 14139 H 1377.16 3.02328 -2.61607 0
M  V30 14140 H 1378.6 3.78539 -1.91008 0
M  V30 14141 C 1377.05 3.33251 -0.49451 0
M  V30 14142 O 1377.58 3.99901 0.379783 0
M  V30 14143 N 1375.79 2.88393 -0.357445 0
M  V30 14144 H 1375.34 2.3433 -1.06991 0
M  V30 14145 H 1375.3 3.10694 0.481287 0
M  V30 14146 N 1379.07 1.38501 0.752011 0
M  V30 14147 C 1379.98 1.38094 1.8965 0
M  V30 14148 C 1380.99 0.277851 1.71767 0
M  V30 14149 O 1382.17 0.516536 1.94663 0
M  V30 14150 C 1379.23 1.2063 3.25037 0
M  V30 14151 C 1378.3 2.40758 3.55435 0
M  V30 14152 C 1377.53 2.24118 4.84362 0
M  V30 14153 O 1377.75 1.23571 5.56854 0
M  V30 14154 O 1376.69 3.12741 5.14273 0
M  V30 14155 H 1380.51 2.34532 1.92947 0
M  V30 14156 H 1378.1 1.19437 0.897504 0
M  V30 14157 H 1379.98 1.12957 4.05979 0
M  V30 14158 H 1378.65 0.272785 3.22549 0
M  V30 14159 H 1377.56 2.54006 2.74648 0
M  V30 14160 H 1378.89 3.32745 3.62686 0
M  V30 14161 N 1380.55 -0.980364 1.23396 0
M  V30 14162 C 1381.78 -1.75434 1.09117 0
M  V30 14163 C 1382.18 -1.85739 -0.360243 0
M  V30 14164 O 1381.53 -1.33585 -1.26098 0
M  V30 14165 C 1381.59 -3.19795 1.6423 0
M  V30 14166 C 1381.25 -3.32999 3.12986 0
M  V30 14167 C 1382.25 -3.19321 4.1028 0
M  V30 14168 C 1379.93 -3.57647 3.52695 0
M  V30 14169 C 1381.93 -3.30096 5.45266 0
M  V30 14170 C 1379.62 -3.68061 4.87826 0
M  V30 14171 C 1380.61 -3.54295 5.83921 0
M  V30 14172 O 1380.3 -3.6434 7.16597 0
M  V30 14173 H 1380.03 -0.557382 0.382494 0
M  V30 14174 H 1382.59 -1.24038 1.63718 0
M  V30 14175 H 1380.82 -3.72439 1.04049 0
M  V30 14176 H 1382.51 -3.78954 1.45427 0
M  V30 14177 H 1383.27 -3.00177 3.80945 0
M  V30 14178 H 1379.15 -3.67433 2.78413 0
M  V30 14179 H 1382.7 -3.19268 6.20253 0
M  V30 14180 H 1378.59 -3.86715 5.16838 0
M  V30 14181 H 1379.36 -3.81135 7.24347 0
M  V30 14182 N 1382.02 -1.04567 -1.17913 0
M  V30 14183 C 1383.25 -0.771084 -1.91671 0
M  V30 14184 C 1383.66 0.676261 -1.76701 0
M  V30 14185 O 1383 1.47314 -1.09746 0
M  V30 14186 C 1383.07 -1.06406 -3.43392 0
M  V30 14187 C 1382.73 -2.50632 -3.82142 0
M  V30 14188 C 1383.73 -3.48825 -3.85509 0
M  V30 14189 C 1381.41 -2.85476 -4.1329 0
M  V30 14190 C 1383.41 -4.79909 -4.19483 0
M  V30 14191 C 1381.09 -4.16766 -4.46934 0
M  V30 14192 C 1382.09 -5.13793 -4.50007 0
M  V30 14193 O 1381.78 -6.42728 -4.82862 0
M  V30 14194 H 1381.51 -0.280258 -0.615168 0
M  V30 14195 H 1384.07 -1.39781 -1.50501 0
M  V30 14196 H 1382.3 -0.380221 -3.84826 0
M  V30 14197 H 1383.98 -0.776475 -3.98404 0
M  V30 14198 H 1384.75 -3.23245 -3.61577 0
M  V30 14199 H 1380.63 -2.10621 -4.10073 0
M  V30 14200 H 1384.17 -5.55638 -4.21796 0
M  V30 14201 H 1380.07 -4.42111 -4.70328 0
M  V30 14202 H 1380.84 -6.47454 -5.00744 0
M  V30 14203 N 1383.5 1.34231 -0.825823 0
M  V30 14204 C 1384.91 1.8059 -0.473724 0
M  V30 14205 C 1385.26 1.68438 1.00614 0
M  V30 14206 O 1384.39 1.22606 1.78317 0
M  V30 14207 C 1384.98 3.27884 -0.853099 0
M  V30 14208 C 1383.54 3.72311 -0.553327 0
M  V30 14209 C 1382.69 2.55889 -1.06845 0
M  V30 14210 H 1385.64 1.21937 -1.01573 0
M  V30 14211 H 1385.66 3.80172 -0.158014 0
M  V30 14212 H 1385.17 3.36696 -1.93021 0
M  V30 14213 H 1383.27 3.69034 0.514256 0
M  V30 14214 H 1383.39 4.66315 -1.09942 0
M  V30 14215 H 1381.75 2.49945 -0.489874 0
M  V30 14216 H 1382.53 2.67471 -2.15207 0
M  V30 14217 N 1384.98 0.581051 1.46498 0
M  V30 14218 C 1385.94 -0.142937 2.28754 0
M  V30 14219 C 1386.94 -0.820383 1.38298 0
M  V30 14220 O 1388.13 -0.672592 1.60692 0
M  V30 14221 C 1385.26 -1.21176 3.18637 0
M  V30 14222 H 1386.46 0.579918 2.9424 0
M  V30 14223 H 1384.01 0.338951 1.52581 0
M  V30 14224 H 1384.75 -1.96624 2.57894 0
M  V30 14225 H 1384.53 -0.730517 3.85235 0
M  V30 14226 H 1386.02 -1.71958 3.80552 0
M  V30 14227 N 1386.46 -1.54343 0.318742 0
M  V30 14228 C 1387.87 -1.59564 -0.034068 0
M  V30 14229 C 1388.07 -1.33539 -1.50896 0
M  V30 14230 O 1387.13 -1.11746 -2.26427 0
M  V30 14231 C 1388.44 -2.98291 0.379827 0
M  V30 14232 C 1389.99 -3.11255 0.330078 0
M  V30 14233 C 1390.47 -4.5232 0.719061 0
M  V30 14234 N 1391.96 -4.58295 0.67228 0
M  V30 14235 C 1392.69 -5.65551 0.945513 0
M  V30 14236 N 1392.19 -6.80767 1.28563 0
M  V30 14237 N 1393.98 -5.55305 0.871394 0
M  V30 14238 H 1386.13 -1.69518 1.27975 0
M  V30 14239 H 1388.39 -0.792627 0.520044 0
M  V30 14240 H 1388.1 -3.22319 1.40724 0
M  V30 14241 H 1387.97 -3.76319 -0.257606 0
M  V30 14242 H 1390.36 -2.86965 -0.688117 0
M  V30 14243 H 1390.44 -2.35342 1.00238 0
M  V30 14244 H 1390.09 -4.77342 1.73515 0
M  V30 14245 H 1390.02 -5.26594 0.0245001 0
M  V30 14246 H 1392.51 -3.75547 0.421059 0
M  V30 14247 H 1392.82 -7.58503 1.47963 0
M  V30 14248 H 1391.17 -6.82275 1.32385 0
M  V30 14249 H 1394.36 -4.64171 0.605205 0
M  V30 14250 H 1394.53 -6.38806 1.08769 0
M  V30 14251 N 1387.94 -0.0468143 -1.5753 0
M  V30 14252 C 1389.17 0.636723 -1.96544 0
M  V30 14253 C 1389.57 1.65169 -0.922814 0
M  V30 14254 O 1388.92 1.83417 0.101892 0
M  V30 14255 C 1388.98 1.38435 -3.31777 0
M  V30 14256 C 1388.64 0.525714 -4.53966 0
M  V30 14257 C 1389.64 -0.206392 -5.1949 0
M  V30 14258 C 1387.32 0.457919 -5.00208 0
M  V30 14259 C 1389.32 -0.994779 -6.29589 0
M  V30 14260 C 1387.01 -0.334159 -6.10186 0
M  V30 14261 C 1388 -1.0592 -6.74737 0
M  V30 14262 O 1387.69 -1.83826 -7.826 0
M  V30 14263 H 1387.42 0.179197 -0.651816 0
M  V30 14264 H 1389.98 -0.108214 -2.05115 0
M  V30 14265 H 1388.21 2.17482 -3.19748 0
M  V30 14266 H 1389.9 1.9577 -3.55568 0
M  V30 14267 H 1390.66 -0.163457 -4.84724 0
M  V30 14268 H 1386.54 1.01185 -4.49758 0
M  V30 14269 H 1390.09 -1.56121 -6.79906 0
M  V30 14270 H 1385.98 -0.378748 -6.44388 0
M  V30 14271 H 1386.75 -1.75991 -7.99356 0
M  V30 14272 N 1389.41 1.55964 0.226527 0
M  V30 14273 C 1390.35 1.88487 1.30405 0
M  V30 14274 C 1391.36 0.772723 1.43293 0
M  V30 14275 O 1392.55 1.05099 1.44279 0
M  V30 14276 C 1389.65 2.074 2.68027 0
M  V30 14277 C 1388.82 3.38389 2.77149 0
M  V30 14278 C 1387.88 3.46795 3.95752 0
M  V30 14279 O 1386.91 4.19862 3.84323 0
M  V30 14280 N 1388.11 2.77573 5.09836 0
M  V30 14281 H 1390.87 2.81506 1.02833 0
M  V30 14282 H 1388.43 1.56449 0.416581 0
M  V30 14283 H 1390.43 2.10344 3.45742 0
M  V30 14284 H 1389 1.2103 2.8822 0
M  V30 14285 H 1388.22 3.47586 1.8595 0
M  V30 14286 H 1389.5 4.24688 2.8021 0
M  V30 14287 H 1388.9 2.17979 5.22017 0
M  V30 14288 H 1387.46 2.86185 5.85612 0
M  V30 14289 N 1390.89 -0.493031 1.4969 0
M  V30 14290 C 1392.12 -1.27517 1.63567 0
M  V30 14291 C 1392.54 -1.85526 0.310105 0
M  V30 14292 O 1391.9 -1.66246 -0.723314 0
M  V30 14293 C 1391.95 -2.37551 2.71296 0
M  V30 14294 O 1391.05 -3.41617 2.31023 0
M  V30 14295 H 1390.39 -0.376116 0.547205 0
M  V30 14296 H 1392.92 -0.589328 1.95929 0
M  V30 14297 H 1392.93 -2.83196 2.93708 0
M  V30 14298 H 1391.61 -1.94697 3.67513 0
M  V30 14299 H 1390.19 -3.01836 2.18974 0
M  V30 14300 N 1392.37 -1.38898 -0.744656 0
M  V30 14301 C 1393.32 -1.33342 -1.84943 0
M  V30 14302 C 1394.3 -0.216036 -1.59443 0
M  V30 14303 O 1395.5 -0.452764 -1.71111 0
M  V30 14304 C 1392.63 -1.16966 -3.2276 0
M  V30 14305 C 1391.71 -2.33365 -3.54121 0
M  V30 14306 N 1392.1 -3.58824 -3.56481 0
M  V30 14307 C 1390.4 -2.26112 -3.84434 0
M  V30 14308 C 1391.1 -4.35741 -3.85364 0
M  V30 14309 N 1390.08 -3.65206 -4.02648 0
M  V30 14310 H 1393.88 -2.28321 -1.85059 0
M  V30 14311 H 1391.39 -1.32257 -0.94244 0
M  V30 14312 H 1393.39 -1.11069 -4.01832 0
M  V30 14313 H 1392.05 -0.229288 -3.23889 0
M  V30 14314 H 1393.06 -3.92377 -3.38025 0
M  V30 14315 H 1389.74 -1.40283 -3.93226 0
M  V30 14316 H 1391.13 -5.44445 -3.93738 0
M  V30 14317 N 1393.85 0.973806 -1.23914 0
M  V30 14318 C 1395.09 1.71852 -1.07678 0
M  V30 14319 C 1395.43 1.90357 0.384425 0
M  V30 14320 O 1394.7 1.46063 1.28436 0
M  V30 14321 C 1394.99 3.1129 -1.81026 0
M  V30 14322 C 1394.84 3.00315 -3.3486 0
M  V30 14323 C 1396.16 4.10835 -1.57805 0
M  V30 14324 H 1393.28 0.623749 -0.392564 0
M  V30 14325 H 1395.92 1.13325 -1.52504 0
M  V30 14326 H 1394.07 3.61255 -1.42922 0
M  V30 14327 H 1395.74 2.57823 -3.82524 0
M  V30 14328 H 1393.98 2.36667 -3.63553 0
M  V30 14329 H 1394.65 3.9907 -3.81376 0
M  V30 14330 H 1397.13 3.69705 -1.90939 0
M  V30 14331 H 1396.01 5.06478 -2.11591 0
M  V30 14332 H 1396.27 4.39091 -0.514894 0
M  V30 14333 N 1395.33 1.05191 1.17357 0
M  V30 14334 C 1396.26 0.673931 2.23563 0
M  V30 14335 C 1397.24 -0.328284 1.66902 0
M  V30 14336 O 1398.42 -0.205878 1.93106 0
M  V30 14337 C 1395.55 0.0478801 3.47267 0
M  V30 14338 C 1394.51 0.974855 4.1675 0
M  V30 14339 C 1393.83 0.212684 5.34277 0
M  V30 14340 C 1395.13 2.299 4.68981 0
M  V30 14341 H 1396.83 1.56183 2.55436 0
M  V30 14342 H 1394.37 0.752408 1.2278 0
M  V30 14343 H 1396.33 -0.228343 4.20781 0
M  V30 14344 H 1395.05 -0.874963 3.14662 0
M  V30 14345 H 1393.71 1.23564 3.45148 0
M  V30 14346 H 1393.36 -0.712924 4.97922 0
M  V30 14347 H 1393.06 0.830351 5.81703 0
M  V30 14348 H 1394.58 -0.056255 6.10574 0
M  V30 14349 H 1395.99 2.08269 5.34132 0
M  V30 14350 H 1394.39 2.87064 5.26986 0
M  V30 14351 H 1395.46 2.93759 3.8579 0
M  V30 14352 N 1396.8 -1.33791 0.83293 0
M  V30 14353 C 1397.73 -2.31853 0.276846 0
M  V30 14354 C 1398.72 -1.58702 -0.612184 0
M  V30 14355 O 1399.9 -1.86629 -0.536975 0
M  V30 14356 C 1397.03 -3.42855 -0.55385 0
M  V30 14357 C 1395.98 -4.27333 0.238884 0
M  V30 14358 C 1395.31 -5.29895 -0.715187 0
M  V30 14359 C 1396.61 -5.01692 1.45265 0
M  V30 14360 H 1398.3 -2.78611 1.09618 0
M  V30 14361 H 1395.85 -1.33949 0.528562 0
M  V30 14362 H 1397.8 -4.10479 -0.953133 0
M  V30 14363 H 1396.53 -2.94771 -1.40634 0
M  V30 14364 H 1395.19 -3.61325 0.619656 0
M  V30 14365 H 1394.83 -4.7807 -1.56391 0
M  V30 14366 H 1394.53 -5.87296 -0.188921 0
M  V30 14367 H 1396.06 -6.00387 -1.11211 0
M  V30 14368 H 1397.47 -5.62117 1.12685 0
M  V30 14369 H 1395.87 -5.68715 1.91528 0
M  V30 14370 H 1396.94 -4.30809 2.22558 0
M  V30 14371 N 1398.28 -0.588812 -1.46187 0
M  V30 14372 C 1399.25 0.130803 -2.28826 0
M  V30 14373 C 1400.25 0.813037 -1.38731 0
M  V30 14374 O 1401.44 0.664061 -1.61046 0
M  V30 14375 C 1398.57 1.19484 -3.19275 0
M  V30 14376 H 1399.76 -0.595514 -2.93928 0
M  V30 14377 H 1397.31 -0.347038 -1.52399 0
M  V30 14378 H 1398.05 1.95254 -2.58933 0
M  V30 14379 H 1397.83 0.710077 -3.85617 0
M  V30 14380 H 1399.32 1.69938 -3.81459 0
M  V30 14381 N 1399.76 1.54172 -0.326923 0
M  V30 14382 C 1401.01 2.00926 0.275047 0
M  V30 14383 C 1401.34 1.21469 1.51522 0
M  V30 14384 O 1400.61 0.297871 1.92206 0
M  V30 14385 C 1400.9 3.54967 0.605833 0
M  V30 14386 C 1400.75 4.45147 -0.645279 0
M  V30 14387 C 1402.07 4.16489 1.42213 0
M  V30 14388 H 1399.19 0.730389 0.098495 0
M  V30 14389 H 1401.83 1.84735 -0.444168 0
M  V30 14390 H 1399.98 3.68895 1.21857 0
M  V30 14391 H 1401.65 4.43085 -1.2835 0
M  V30 14392 H 1399.9 4.14686 -1.27349 0
M  V30 14393 H 1400.57 5.50763 -0.36932 0
M  V30 14394 H 1403.04 4.06158 0.904172 0
M  V30 14395 H 1401.92 5.24377 1.62234 0
M  V30 14396 H 1402.18 3.70032 2.41928 0
M  V30 14397 N 1401.24 0.0551678 1.57503 0
M  V30 14398 C 1402.49 -0.6165 1.92467 0
M  V30 14399 C 1402.81 -1.71147 0.934552 0
M  V30 14400 O 1402.08 -1.9589 -0.0199649 0
M  V30 14401 H 1400.66 -0.230714 0.710479 0
M  V30 14402 H 1403.32 0.109111 1.94594 0
M  V30 14403 H 1402.42 -1.05254 2.93816 0
M  V30 14404 N 1402.72 -1.56081 -0.218252 0
M  V30 14405 C 1403.67 -1.89082 -1.27405 0
M  V30 14406 C 1404.65 -0.754204 -1.42129 0
M  V30 14407 O 1405.84 -1.01668 -1.44888 0
M  V30 14408 C 1402.97 -2.21387 -2.62379 0
M  V30 14409 C 1402.06 -3.41448 -2.51543 0
M  V30 14410 N 1402.45 -4.5998 -2.10362 0
M  V30 14411 C 1400.75 -3.45128 -2.82494 0
M  V30 14412 C 1401.45 -5.42139 -2.10857 0
M  V30 14413 N 1400.42 -4.81936 -2.51472 0
M  V30 14414 H 1404.23 -2.78238 -0.946609 0
M  V30 14415 H 1401.74 -1.56691 -0.426801 0
M  V30 14416 H 1403.74 -2.43205 -3.38611 0
M  V30 14417 H 1402.4 -1.33545 -2.95966 0
M  V30 14418 H 1403.41 -4.85077 -1.8144 0
M  V30 14419 H 1400.08 -2.67638 -3.20431 0
M  V30 14420 H 1401.47 -6.47029 -1.81114 0
M  V30 14421 N 1404.2 0.485086 -1.49949 0
M  V30 14422 C 1405.16 1.56713 -1.67253 0
M  V30 14423 C 1406.16 1.51329 -0.543701 0
M  V30 14424 O 1407.35 1.54198 -0.810472 0
M  V30 14425 C 1404.48 2.9636 -1.68475 0
M  V30 14426 H 1405.67 1.42693 -2.63778 0
M  V30 14427 H 1403.23 0.710473 -1.39219 0
M  V30 14428 H 1403.96 3.1584 -0.735924 0
M  V30 14429 H 1403.75 3.01675 -2.50469 0
M  V30 14430 H 1405.24 3.74945 -1.83865 0
M  V30 14431 N 1405.67 1.39291 0.737279 0
M  V30 14432 C 1406.61 1.33728 1.86144 0
M  V30 14433 C 1407.62 0.246468 1.60924 0
M  V30 14434 O 1408.81 0.505252 1.712 0
M  V30 14435 C 1405.91 1.05312 3.22122 0
M  V30 14436 C 1405.08 2.25624 3.74716 0
M  V30 14437 C 1404.14 1.937 4.89251 0
M  V30 14438 O 1403.17 2.66361 5.03031 0
M  V30 14439 N 1404.37 0.901782 5.73453 0
M  V30 14440 H 1407.13 2.30604 1.91421 0
M  V30 14441 H 1404.69 1.33364 0.917919 0
M  V30 14442 H 1406.69 0.819784 3.9631 0
M  V30 14443 H 1405.26 0.171773 3.12128 0
M  V30 14444 H 1404.48 2.64923 2.91906 0
M  V30 14445 H 1405.76 3.05881 4.06589 0
M  V30 14446 H 1405.16 0.299553 5.64906 0
M  V30 14447 H 1403.72 0.728344 6.47718 0
M  V30 14448 N 1407.15 -0.967221 1.24429 0
M  V30 14449 C 1408.56 -1.52488 1.07723 0
M  V30 14450 C 1408.91 -1.93031 -0.351191 0
M  V30 14451 O 1408.04 -1.77376 -1.23963 0
M  V30 14452 C 1408.63 -2.77107 1.94929 0
M  V30 14453 C 1407.19 -3.29227 1.82446 0
M  V30 14454 C 1406.34 -2.02133 1.89835 0
M  V30 14455 H 1409.29 -0.785465 1.37899 0
M  V30 14456 H 1409.31 -3.50459 1.48186 0
M  V30 14457 H 1408.82 -2.47567 2.98885 0
M  V30 14458 H 1406.92 -3.63617 0.813246 0
M  V30 14459 H 1407.04 -3.98095 2.66566 0
M  V30 14460 H 1405.4 -2.16867 1.3357 0
M  V30 14461 H 1406.18 -1.74958 2.95372 0
M  V30 14462 N 1408.63 -1.05812 -1.16797 0
M  V30 14463 C 1409.88 -0.770398 -1.8684 0
M  V30 14464 C 1410.2 0.704986 -1.8181 0
M  V30 14465 O 1409.47 1.50977 -1.24832 0
M  V30 14466 H 1408.05 -0.281989 -0.691731 0
M  V30 14467 H 1410.71 -1.33859 -1.41661 0
M  V30 14468 H 1409.81 -1.09094 -2.92412 0
M  V30 14469 N 1410.11 1.33347 -0.840014 0
M  V30 14470 C 1411.38 1.92293 -0.358158 0
M  V30 14471 C 1411.76 1.76594 1.15662 0
M  V30 14472 O 1411.11 1.15503 1.97158 0
M  V30 14473 C 1411.32 3.39558 -0.806329 0
M  V30 14474 C 1412.67 4.16705 -0.81501 0
M  V30 14475 O 1413.69 3.48214 -0.75001 0
M  V30 14476 O 1412.55 5.38974 -0.903818 0
M  V30 14477 H 1409.65 0.820737 -0.101585 0
M  V30 14478 H 1412.19 1.42213 -0.925942 0
M  V30 14479 H 1410.97 3.44861 -1.84897 0
M  V30 14480 H 1410.59 3.97017 -0.215181 0
M  V30 14481 N 1411.59 0.596556 1.45873 0
M  V30 14482 C 1412.83 0.090321 2.042 0
M  V30 14483 C 1413.19 -1.25123 1.45631 0
M  V30 14484 O 1414.39 -1.84752 1.95243 0
M  V30 14485 C 1412.66 0.0400377 3.57378 0
M  V30 14486 S 1414.22 -0.40661 4.36912 0
M  V30 14487 H 1411.04 0.0441976 0.709625 0
M  V30 14488 H 1413.64 0.792175 1.78731 0
M  V30 14489 H 1412.34 1.02013 3.97519 0
M  V30 14490 H 1411.88 -0.684156 3.87405 0
M  V30 14491 H 1413.89 -1.65849 4.67663 0
M  V30 14492 N 1413.06 -1.53996 0.335095 0
M  V30 14493 C 1414.31 -2.00375 -0.263475 0
M  V30 14494 C 1414.63 -1.22471 -1.51742 0
M  V30 14495 O 1413.9 -0.329604 -1.93107 0
M  V30 14496 H 1412.48 -0.740229 -0.100347 0
M  V30 14497 H 1415.14 -1.89531 0.454302 0
M  V30 14498 H 1414.24 -3.07874 -0.511834 0
M  V30 14499 N 1414.54 -0.0635198 -1.57472 0
M  V30 14500 C 1415.79 0.606285 -1.92792 0
M  V30 14501 C 1416.11 1.70648 -0.943615 0
M  V30 14502 O 1415.38 1.95898 0.00957612 0
M  V30 14503 H 1413.96 0.226943 -0.711692 0
M  V30 14504 H 1416.62 -0.119429 -1.94534 0
M  V30 14505 H 1415.72 1.03694 -2.9437 0
M  V30 14506 N 1416.02 1.56195 0.209972 0
M  V30 14507 C 1417.27 1.78941 0.930744 0
M  V30 14508 C 1417.58 0.634139 1.85035 0
M  V30 14509 O 1418.79 0.745524 2.61064 0
M  V30 14510 C 1417.24 3.16935 1.70529 0
M  V30 14511 C 1416.85 4.40221 0.83125 0
M  V30 14512 C 1418.6 3.49 2.41659 0
M  V30 14513 C 1416.5 5.69238 1.60381 0
M  V30 14514 H 1415.43 0.667176 0.351273 0
M  V30 14515 H 1418.08 1.82572 0.184341 0
M  V30 14516 H 1416.47 3.07513 2.49503 0
M  V30 14517 H 1417.64 4.60728 0.081227 0
M  V30 14518 H 1415.95 4.15756 0.231517 0
M  V30 14519 H 1418.55 4.42623 2.99982 0
M  V30 14520 H 1418.89 2.72042 3.15117 0
M  V30 14521 H 1419.43 3.59804 1.69665 0
M  V30 14522 H 1416.17 6.49121 0.912292 0
M  V30 14523 H 1415.69 5.52772 2.32815 0
M  V30 14524 H 1417.37 6.09827 2.16149 0
M  V30 14525 N 1417.5 -0.477127 1.50204 0
M  V30 14526 C 1418.43 -1.58405 1.71552 0
M  V30 14527 C 1419.41 -1.60463 0.564413 0
M  V30 14528 O 1420.59 -1.76826 0.802893 0
M  V30 14529 C 1417.72 -2.96765 1.8041 0
M  V30 14530 C 1416.68 -3.09573 2.95548 0
M  V30 14531 C 1416 -4.49522 2.89542 0
M  V30 14532 C 1417.3 -2.87356 4.36147 0
M  V30 14533 H 1419 -1.40792 2.64231 0
M  V30 14534 H 1416.54 -0.675886 1.27153 0
M  V30 14535 H 1418.5 -3.74125 1.9393 0
M  V30 14536 H 1417.22 -3.1552 0.843489 0
M  V30 14537 H 1415.88 -2.34645 2.81669 0
M  V30 14538 H 1415.53 -4.65186 1.91339 0
M  V30 14539 H 1415.23 -4.59028 3.66834 0
M  V30 14540 H 1416.75 -5.28909 3.05102 0
M  V30 14541 H 1418.17 -3.54469 4.50583 0
M  V30 14542 H 1416.56 -3.08313 5.14843 0
M  V30 14543 H 1417.63 -1.83264 4.48935 0
M  V30 14544 N 1418.98 -1.3968 -0.729882 0
M  V30 14545 C 1420.39 -1.21396 -1.0361 0
M  V30 14546 C 1420.59 -0.0791302 -2.01345 0
M  V30 14547 O 1419.65 0.567575 -2.46038 0
M  V30 14548 C 1420.96 -2.55006 -1.59349 0
M  V30 14549 C 1422.51 -2.61896 -1.71405 0
M  V30 14550 C 1422.98 -3.9574 -2.30552 0
M  V30 14551 N 1424.48 -3.97406 -2.37955 0
M  V30 14552 C 1425.21 -4.97745 -2.8467 0
M  V30 14553 N 1424.71 -6.08482 -3.31243 0
M  V30 14554 N 1426.5 -4.85121 -2.83925 0
M  V30 14555 H 1418.65 -2.12242 -0.081787 0
M  V30 14556 H 1420.91 -0.942827 -0.0989005 0
M  V30 14557 H 1420.62 -3.38626 -0.950005 0
M  V30 14558 H 1420.49 -2.75087 -2.58083 0
M  V30 14559 H 1422.88 -1.78656 -2.34874 0
M  V30 14560 H 1422.96 -2.45659 -0.7131 0
M  V30 14561 H 1422.61 -4.79412 -1.67709 0
M  V30 14562 H 1422.54 -4.09299 -3.31334 0
M  V30 14563 H 1425.03 -3.17435 -2.05044 0
M  V30 14564 H 1425.34 -6.8095 -3.65414 0
M  V30 14565 H 1423.68 -6.12068 -3.29239 0
M  V30 14566 H 1426.88 -3.97711 -2.46867 0
M  V30 14567 H 1427.05 -5.63465 -3.20017 0
M  V30 14568 N 1420.45 0.960609 -1.2494 0
M  V30 14569 C 1421.69 1.71937 -1.10531 0
M  V30 14570 C 1422.06 1.88806 0.348766 0
M  V30 14571 O 1423.26 2.61681 0.614539 0
M  V30 14572 C 1421.53 3.0685 -1.83242 0
M  V30 14573 S 1423.09 3.98057 -1.84651 0
M  V30 14574 H 1419.91 0.591061 -0.395181 0
M  V30 14575 H 1422.51 1.14618 -1.58376 0
M  V30 14576 H 1421.21 2.92238 -2.8814 0
M  V30 14577 H 1420.74 3.69233 -1.35759 0
M  V30 14578 H 1422.76 4.8761 -0.919263 0
M  V30 14579 N 1421.93 1.0643 1.16234 0
M  V30 14580 C 1422.84 0.687446 2.24302 0
M  V30 14581 C 1423.86 -0.297132 1.71444 0
M  V30 14582 O 1425.03 -0.146101 2.00869 0
M  V30 14583 C 1422.1 0.0810973 3.46605 0
M  V30 14584 C 1421.16 1.11772 4.14494 0
M  V30 14585 C 1420.39 0.54021 5.30959 0
M  V30 14586 O 1420.62 -0.646619 5.66723 0
M  V30 14587 O 1419.55 1.28057 5.8812 0
M  V30 14588 H 1423.38 1.58842 2.58849 0
M  V30 14589 H 1420.96 0.836649 1.23776 0
M  V30 14590 H 1422.84 -0.25524 4.20626 0
M  V30 14591 H 1421.52 -0.793338 3.13828 0
M  V30 14592 H 1420.43 1.50626 3.42436 0
M  V30 14593 H 1421.76 1.96373 4.5133 0
M  V30 14594 N 1423.41 -1.329 0.847073 0
M  V30 14595 C 1424.36 -2.26534 0.258111 0
M  V30 14596 C 1425.34 -1.49627 -0.591653 0
M  V30 14597 O 1426.54 -1.71385 -0.442277 0
M  V30 14598 C 1423.67 -3.38719 -0.558969 0
M  V30 14599 C 1422.75 -4.23018 0.30276 0
M  V30 14600 N 1423.14 -4.86457 1.38541 0
M  V30 14601 C 1421.44 -4.45907 0.0911992 0
M  V30 14602 C 1422.14 -5.49277 1.91492 0
M  V30 14603 N 1421.12 -5.29843 1.21519 0
M  V30 14604 H 1424.92 -2.73103 1.0859 0
M  V30 14605 H 1422.43 -1.46901 0.692386 0
M  V30 14606 H 1424.43 -4.04797 -0.997259 0
M  V30 14607 H 1423.09 -2.93697 -1.38464 0
M  V30 14608 H 1424.1 -4.86776 1.76832 0
M  V30 14609 H 1420.78 -4.11584 -0.70037 0
M  V30 14610 H 1422.17 -6.09764 2.82201 0
M  V30 14611 N 1424.89 -0.604284 -1.45555 0
M  V30 14612 C 1426.14 -0.0979922 -2.01862 0
M  V30 14613 C 1426.46 1.27476 -1.47563 0
M  V30 14614 O 1425.73 1.84137 -0.668612 0
M  V30 14615 H 1424.31 -0.033235 -0.74626 0
M  V30 14616 H 1426.97 -0.784936 -1.78395 0
M  V30 14617 H 1426.07 -0.0452716 -3.12067 0
M  V30 14618 N 1426.37 1.53816 -0.343257 0
M  V30 14619 C 1427.61 2.01207 0.253721 0
M  V30 14620 C 1427.95 1.23069 1.50225 0
M  V30 14621 O 1427.22 0.31824 1.91879 0
M  V30 14622 C 1427.5 3.5559 0.56815 0
M  V30 14623 C 1427.36 4.44438 -0.692457 0
M  V30 14624 C 1428.68 4.17974 1.37788 0
M  V30 14625 H 1425.79 0.731392 0.0907427 0
M  V30 14626 H 1428.44 1.84254 -0.463736 0
M  V30 14627 H 1426.59 3.70166 1.17937 0
M  V30 14628 H 1428.26 4.41698 -1.33042 0
M  V30 14629 H 1426.5 4.13312 -1.3174 0
M  V30 14630 H 1427.17 5.5034 -0.427715 0
M  V30 14631 H 1429.65 4.07094 0.861043 0
M  V30 14632 H 1428.52 5.26068 1.56663 0
M  V30 14633 H 1428.79 3.72577 2.3799 0
M  V30 14634 N 1427.84 0.0718701 1.57436 0
M  V30 14635 C 1429.09 -0.598116 1.93779 0
M  V30 14636 C 1429.42 -1.69258 0.952131 0
M  V30 14637 O 1428.7 -1.94491 -0.0186426 0
M  V30 14638 C 1428.98 -1.17499 3.40391 0
M  V30 14639 C 1428.83 -0.0871719 4.49716 0
M  V30 14640 C 1430.15 -2.08047 3.8782 0
M  V30 14641 H 1427.27 -0.215954 0.704651 0
M  V30 14642 H 1429.91 0.137854 1.89499 0
M  V30 14643 H 1428.06 -1.80221 3.44169 0
M  V30 14644 H 1429.74 0.545906 4.58058 0
M  V30 14645 H 1427.98 0.582213 4.29875 0
M  V30 14646 H 1428.65 -0.531202 5.49438 0
M  V30 14647 H 1431.13 -1.5526 3.86049 0
M  V30 14648 H 1430 -2.45345 4.91016 0
M  V30 14649 H 1430.26 -2.98879 3.25766 0
M  V30 14650 N 1429.32 -1.56304 -0.201686 0
M  V30 14651 C 1430.57 -1.79881 -0.921269 0
M  V30 14652 C 1430.89 -0.643809 -1.84065 0
M  V30 14653 O 1430.16 0.338239 -1.92958 0
M  V30 14654 H 1428.74 -0.663506 -0.343175 0
M  V30 14655 H 1431.4 -1.93779 -0.208775 0
M  V30 14656 H 1430.5 -2.7279 -1.51631 0
M  V30 14657 N 1430.8 0.469154 -1.50455 0
M  V30 14658 C 1432.05 1.21788 -1.60781 0
M  V30 14659 C 1432.36 1.93054 -0.314576 0
M  V30 14660 O 1433.57 2.69873 -0.296773 0
M  V30 14661 C 1432.02 2.21305 -2.83817 0
M  V30 14662 C 1431.63 1.55833 -4.20024 0
M  V30 14663 C 1433.38 2.96808 -3.03489 0
M  V30 14664 C 1431.28 2.53648 -5.34244 0
M  V30 14665 H 1430.21 0.45827 -0.598752 0
M  V30 14666 H 1432.86 0.488159 -1.76888 0
M  V30 14667 H 1431.25 2.97577 -2.61273 0
M  V30 14668 H 1432.42 0.853371 -4.52829 0
M  V30 14669 H 1430.74 0.926046 -4.05972 0
M  V30 14670 H 1433.33 3.70017 -3.85994 0
M  V30 14671 H 1433.68 3.56307 -2.15293 0
M  V30 14672 H 1434.21 2.27648 -3.26223 0
M  V30 14673 H 1430.95 1.98885 -6.246 0
M  V30 14674 H 1430.47 3.22291 -5.05854 0
M  V30 14675 H 1432.15 3.15438 -5.64897 0
M  V30 14676 N 1432.28 1.40065 0.722464 0
M  V30 14677 C 1433.21 1.42532 1.84951 0
M  V30 14678 C 1434.19 0.287082 1.6766 0
M  V30 14679 O 1435.37 0.494715 1.87793 0
M  V30 14680 C 1432.5 1.28041 3.22836 0
M  V30 14681 C 1431.46 2.39396 3.54787 0
M  V30 14682 C 1430.78 2.09986 4.91742 0
M  V30 14683 C 1432.08 3.81729 3.56483 0
M  V30 14684 H 1433.78 2.36851 1.83144 0
M  V30 14685 H 1431.32 1.14005 0.879714 0
M  V30 14686 H 1433.28 1.28385 4.01367 0
M  V30 14687 H 1432 0.301947 3.25201 0
M  V30 14688 H 1430.66 2.3829 2.78592 0
M  V30 14689 H 1430.31 1.10547 4.90702 0
M  V30 14690 H 1430.01 2.84586 5.14086 0
M  V30 14691 H 1431.53 2.12 5.72615 0
M  V30 14692 H 1432.95 3.84696 4.25067 0
M  V30 14693 H 1431.34 4.55791 3.90351 0
M  V30 14694 H 1432.41 4.11807 2.56014 0
M  V30 14695 N 1433.76 -0.95397 1.25448 0
M  V30 14696 C 1434.99 -1.73331 1.12977 0
M  V30 14697 C 1435.4 -1.86131 -0.316364 0
M  V30 14698 O 1434.76 -1.35951 -1.21753 0
M  V30 14699 C 1434.81 -3.14675 1.77938 0
M  V30 14700 O 1434.53 -3.025 3.16899 0
M  V30 14701 C 1436.03 -4.08884 1.71256 0
M  V30 14702 H 1433.25 -0.543118 0.394036 0
M  V30 14703 H 1435.79 -1.19678 1.65823 0
M  V30 14704 H 1433.95 -3.6527 1.29062 0
M  V30 14705 H 1434.36 -3.91668 3.4885 0
M  V30 14706 H 1435.84 -5.05668 2.21368 0
M  V30 14707 H 1436.31 -4.33959 0.676476 0
M  V30 14708 H 1436.92 -3.64205 2.19624 0
M  V30 14709 N 1435.24 -1.07045 -1.15668 0
M  V30 14710 C 1436.2 -0.69198 -2.18505 0
M  V30 14711 C 1437.2 0.266185 -1.58582 0
M  V30 14712 O 1438.39 0.0475566 -1.74135 0
M  V30 14713 C 1435.52 -0.0194196 -3.40894 0
M  V30 14714 H 1436.71 -1.60241 -2.53501 0
M  V30 14715 H 1434.27 -0.866598 -1.30076 0
M  V30 14716 H 1435 0.903398 -3.11463 0
M  V30 14717 H 1434.79 -0.708519 -3.85645 0
M  V30 14718 H 1436.28 0.230829 -4.16962 0
M  V30 14719 N 1436.71 1.32449 -0.85411 0
M  V30 14720 C 1437.96 1.96881 -0.45632 0
M  V30 14721 C 1438.28 1.67926 0.991248 0
M  V30 14722 O 1437.55 0.986195 1.69266 0
M  V30 14723 H 1436.13 0.728378 -0.165752 0
M  V30 14724 H 1438.79 1.61542 -1.09042 0
M  V30 14725 H 1437.89 3.0626 -0.600927 0
M  V30 14726 N 1438.19 0.611994 1.45232 0
M  V30 14727 C 1439.44 0.108696 2.01807 0
M  V30 14728 C 1439.76 -1.26692 1.48237 0
M  V30 14729 O 1439.03 -1.8378 0.678368 0
M  V30 14730 H 1437.61 0.0371921 0.746074 0
M  V30 14731 H 1440.27 0.794386 1.77976 0
M  V30 14732 H 1439.37 0.0618207 3.12039 0
M  V30 14733 N 1439.67 -1.53632 0.351409 0
M  V30 14734 C 1440.62 -2.26782 -0.516983 0
M  V30 14735 C 1441.61 -1.29222 -1.09536 0
M  V30 14736 O 1442.82 -1.46901 -1.04019 0
M  V30 14737 H 1439.19 -0.728783 -0.185417 0
M  V30 14738 H 1441.16 -2.98151 0.121909 0
M  V30 14739 C 1439.91 -3.05943 -1.6521 0
M  V30 14740 H 1439.24 -3.80848 -1.21633 0
M  V30 14741 H 1440.68 -3.60328 -2.23472 0
M  V30 14742 C 1439.13 -2.15917 -2.58614 0
M  V30 14743 O 1439.66 -1.76049 -3.61067 0
M  V30 14744 N 1437.87 -1.80837 -2.27478 0
M  V30 14745 H 1437.42 -2.13456 -1.44202 0
M  V30 14746 H 1437.38 -1.20886 -2.90231 0
M  V30 14747 N 1441.15 -0.0802183 -1.57396 0
M  V30 14748 C 1442.4 0.585802 -1.93424 0
M  V30 14749 C 1442.72 1.69638 -0.961662 0
M  V30 14750 O 1441.99 1.95897 -0.011202 0
M  V30 14751 H 1440.57 0.219382 -0.714059 0
M  V30 14752 H 1443.23 -0.140055 -1.94396 0
M  V30 14753 H 1442.32 1.00566 -2.95454 0
M  V30 14754 N 1442.63 1.56409 0.193394 0
M  V30 14755 C 1443.56 1.97707 1.24234 0
M  V30 14756 C 1444.54 0.849286 1.47381 0
M  V30 14757 O 1445.72 1.11374 1.59089 0
M  V30 14758 C 1442.85 2.31804 2.5862 0
M  V30 14759 C 1441.81 3.47337 2.50082 0
M  V30 14760 C 1441.13 3.67114 3.88756 0
M  V30 14761 C 1442.43 4.81472 2.02441 0
M  V30 14762 H 1444.13 2.8558 0.89914 0
M  V30 14763 H 1441.67 1.37396 0.431078 0
M  V30 14764 H 1443.62 2.5929 3.32185 0
M  V30 14765 H 1442.35 1.40816 2.94684 0
M  V30 14766 H 1441.01 3.19944 1.78973 0
M  V30 14767 H 1440.66 2.73454 4.22175 0
M  V30 14768 H 1440.36 4.44838 3.83918 0
M  V30 14769 H 1441.88 3.96978 4.6394 0
M  V30 14770 H 1443.29 5.07978 2.65766 0
M  V30 14771 H 1441.69 5.62677 2.08601 0
M  V30 14772 H 1442.76 4.74941 0.977704 0
M  V30 14773 N 1444.1 -0.461169 1.50702 0
M  V30 14774 C 1445.35 -1.21431 1.62427 0
M  V30 14775 C 1445.68 -1.91406 0.328228 0
M  V30 14776 O 1444.96 -1.82563 -0.670898 0
M  V30 14777 C 1445.24 -2.25016 2.8114 0
M  V30 14778 C 1445.09 -1.5928 4.20654 0
M  V30 14779 C 1446.41 -3.26234 2.95397 0
M  V30 14780 H 1443.53 -0.440113 0.59116 0
M  V30 14781 H 1446.17 -0.506726 1.83118 0
M  V30 14782 H 1444.32 -2.85363 2.63629 0
M  V30 14783 H 1446 -1.02454 4.49779 0
M  V30 14784 H 1444.24 -0.895665 4.24453 0
M  V30 14785 H 1444.91 -2.34602 4.99666 0
M  V30 14786 H 1447.39 -2.7592 3.1146 0
M  V30 14787 H 1446.26 -3.96031 3.80067 0
M  V30 14788 H 1446.52 -3.90943 2.06436 0
M  V30 14789 N 1445.58 -1.40446 -0.715026 0
M  V30 14790 C 1446.54 -1.40506 -1.81082 0
M  V30 14791 C 1447.54 -0.298768 -1.58 0
M  V30 14792 O 1448.73 -0.5577 -1.65031 0
M  V30 14793 C 1445.87 -1.19735 -3.19181 0
M  V30 14794 H 1447.06 -2.38034 -1.82427 0
M  V30 14795 H 1444.61 -1.26303 -0.920718 0
M  V30 14796 H 1445.35 -0.229695 -3.23486 0
M  V30 14797 H 1445.13 -1.99871 -3.37334 0
M  V30 14798 H 1446.62 -1.22566 -3.99208 0
M  V30 14799 N 1447.06 0.947303 -1.25952 0
M  V30 14800 C 1448.31 1.69279 -1.11135 0
M  V30 14801 C 1448.63 1.9139 0.346407 0
M  V30 14802 O 1447.89 1.48786 1.27126 0
M  V30 14803 C 1448.19 3.07652 -1.81892 0
M  V30 14804 C 1447.85 3.05317 -3.31802 0
M  V30 14805 C 1446.52 3.04387 -3.72695 0
M  V30 14806 C 1448.87 2.98088 -4.27543 0
M  V30 14807 C 1446.2 2.93987 -5.07729 0
M  V30 14808 C 1448.55 2.89229 -5.62609 0
M  V30 14809 C 1447.21 2.86639 -6.02822 0
M  V30 14810 H 1446.48 0.619435 -0.40667 0
M  V30 14811 H 1449.13 1.10621 -1.56318 0
M  V30 14812 H 1447.43 3.69898 -1.29161 0
M  V30 14813 H 1449.13 3.6417 -1.67873 0
M  V30 14814 H 1445.72 3.06817 -2.99268 0
M  V30 14815 H 1449.91 2.9792 -3.96935 0
M  V30 14816 H 1445.16 2.90355 -5.38056 0
M  V30 14817 H 1449.34 2.82598 -6.36483 0
M  V30 14818 H 1446.96 2.78336 -7.07413 0
M  V30 14819 N 1448.54 1.07657 1.15099 0
M  V30 14820 C 1449.5 0.703558 2.18135 0
M  V30 14821 C 1450.5 -0.257771 1.5872 0
M  V30 14822 O 1451.69 -0.0383211 1.74158 0
M  V30 14823 C 1448.82 0.0374978 3.40879 0
M  V30 14824 H 1450.02 1.61583 2.52648 0
M  V30 14825 H 1447.57 0.873484 1.29615 0
M  V30 14826 H 1448.3 -0.886868 3.11938 0
M  V30 14827 H 1448.09 0.728961 3.85264 0
M  V30 14828 H 1449.58 -0.208714 4.17078 0
M  V30 14829 N 1450.02 -1.31994 0.861122 0
M  V30 14830 C 1451.29 -1.91699 0.388705 0
M  V30 14831 C 1451.67 -1.78412 -1.12838 0
M  V30 14832 O 1451.02 -1.18625 -1.95296 0
M  V30 14833 C 1451.23 -3.38232 0.860248 0
M  V30 14834 C 1452.58 -4.15355 0.881201 0
M  V30 14835 O 1453.6 -3.46977 0.805313 0
M  V30 14836 O 1452.46 -5.37468 0.98945 0
M  V30 14837 H 1449.56 -0.819017 0.114629 0
M  V30 14838 H 1452.1 -1.40721 0.94845 0
M  V30 14839 H 1450.87 -3.41876 1.9036 0
M  V30 14840 H 1450.5 -3.96625 0.278316 0
M  V30 14841 N 1451.49 -0.619688 -1.44906 0
M  V30 14842 C 1452.42 0.0791121 -2.33366 0
M  V30 14843 C 1453.41 0.846503 -1.47541 0
M  V30 14844 O 1454.59 0.814657 -1.76287 0
M  V30 14845 C 1451.72 1.06901 -3.30438 0
M  V30 14846 C 1450.67 0.41403 -4.25993 0
M  V30 14847 C 1450 1.51303 -5.12846 0
M  V30 14848 C 1451.3 -0.672483 -5.17953 0
M  V30 14849 H 1452.99 -0.659551 -2.92045 0
M  V30 14850 H 1450.54 -0.318623 -1.40431 0
M  V30 14851 H 1452.49 1.56653 -3.912 0
M  V30 14852 H 1451.22 1.83842 -2.69944 0
M  V30 14853 H 1449.88 -0.0627315 -3.66546 0
M  V30 14854 H 1449.52 2.27303 -4.48712 0
M  V30 14855 H 1449.22 1.08022 -5.77586 0
M  V30 14856 H 1450.75 2.01258 -5.76479 0
M  V30 14857 H 1452.16 -0.258542 -5.72717 0
M  V30 14858 H 1450.56 -1.02776 -5.91234 0
M  V30 14859 H 1451.63 -1.54425 -4.59653 0
M  V30 14860 N 1452.97 1.53444 -0.359552 0
M  V30 14861 C 1454.39 1.59598 -0.00824946 0
M  V30 14862 C 1454.59 1.37492 1.47303 0
M  V30 14863 O 1453.64 1.1771 2.23385 0
M  V30 14864 C 1454.96 2.9718 -0.45878 0
M  V30 14865 C 1456.51 3.1027 -0.412485 0
M  V30 14866 C 1456.98 4.50255 -0.838733 0
M  V30 14867 N 1458.47 4.56352 -0.793552 0
M  V30 14868 C 1459.21 5.62845 -1.09513 0
M  V30 14869 N 1458.7 6.77119 -1.46567 0
M  V30 14870 N 1460.5 5.52799 -1.01832 0
M  V30 14871 H 1452.65 1.66065 -1.32424 0
M  V30 14872 H 1454.91 0.778561 -0.540876 0
M  V30 14873 H 1454.62 3.18475 -1.4922 0
M  V30 14874 H 1454.49 3.7687 0.157741 0
M  V30 14875 H 1456.88 2.88689 0.611791 0
M  V30 14876 H 1456.96 2.32602 -1.06442 0
M  V30 14877 H 1456.6 4.72573 -1.8611 0
M  V30 14878 H 1456.53 5.26344 -0.164109 0
M  V30 14879 H 1459.02 3.74299 -0.52048 0
M  V30 14880 H 1459.34 7.54313 -1.68021 0
M  V30 14881 H 1457.68 6.78525 -1.50427 0
M  V30 14882 H 1460.87 4.62403 -0.728059 0
M  V30 14883 H 1461.04 6.35698 -1.25668 0
M  V30 14884 N 1454.45 0.0885642 1.57351 0
M  V30 14885 C 1455.73 -0.618587 1.85561 0
M  V30 14886 C 1456.11 -1.86753 0.984206 0
M  V30 14887 O 1455.46 -2.28434 0.0548839 0
M  V30 14888 C 1455.67 -0.940222 3.36096 0
M  V30 14889 C 1457.01 -1.30649 4.04 0
M  V30 14890 O 1458.04 -1.03144 3.4094 0
M  V30 14891 O 1456.9 -1.82135 5.15256 0
M  V30 14892 H 1453.99 -0.308881 0.767152 0
M  V30 14893 H 1456.54 0.120767 1.6927 0
M  V30 14894 H 1455.31 -0.0538991 3.91263 0
M  V30 14895 H 1454.93 -1.73577 3.5771 0
M  V30 14896 N 1455.93 -1.56509 -0.185096 0
M  V30 14897 C 1456.86 -1.98363 -1.23184 0
M  V30 14898 C 1457.84 -0.85709 -1.46929 0
M  V30 14899 O 1459.02 -1.12216 -1.58497 0
M  V30 14900 C 1456.15 -2.33172 -2.57387 0
M  V30 14901 C 1455.11 -3.48658 -2.48236 0
M  V30 14902 C 1454.43 -3.69171 -3.86804 0
M  V30 14903 C 1455.73 -4.82538 -1.99885 0
M  V30 14904 H 1457.43 -2.86053 -0.883982 0
M  V30 14905 H 1454.97 -1.37623 -0.423786 0
M  V30 14906 H 1456.93 -2.61048 -3.30805 0
M  V30 14907 H 1455.65 -1.42377 -2.93933 0
M  V30 14908 H 1454.31 -3.20889 -1.77273 0
M  V30 14909 H 1453.96 -2.75689 -4.20719 0
M  V30 14910 H 1453.66 -4.46868 -3.81553 0
M  V30 14911 H 1455.18 -3.99433 -4.61829 0
M  V30 14912 H 1456.6 -5.0938 -2.63068 0
M  V30 14913 H 1454.99 -5.63775 -2.05614 0
M  V30 14914 H 1456.06 -4.75453 -0.952503 0
M  V30 14915 N 1457.41 0.45317 -1.50944 0
M  V30 14916 C 1458.34 1.55655 -1.74051 0
M  V30 14917 C 1459.32 1.59545 -0.58987 0
M  V30 14918 O 1460.5 1.75526 -0.830922 0
M  V30 14919 C 1457.63 2.93857 -1.85109 0
M  V30 14920 C 1456.59 3.04832 -3.00435 0
M  V30 14921 C 1455.91 4.44858 -2.96657 0
M  V30 14922 C 1457.21 2.80381 -4.40663 0
M  V30 14923 H 1458.91 1.36571 -2.66437 0
M  V30 14924 H 1456.45 0.655572 -1.28212 0
M  V30 14925 H 1458.41 3.70992 -1.99857 0
M  V30 14926 H 1457.13 3.14138 -0.893579 0
M  V30 14927 H 1455.79 2.30134 -2.85366 0
M  V30 14928 H 1455.44 4.62083 -1.98716 0
M  V30 14929 H 1455.14 4.53134 -3.7409 0
M  V30 14930 H 1456.66 5.23989 -3.13478 0
M  V30 14931 H 1458.07 3.47255 -4.56165 0
M  V30 14932 H 1456.47 3.00083 -5.19683 0
M  V30 14933 H 1457.54 1.76099 -4.51793 0
M  V30 14934 N 1458.88 1.40823 0.707568 0
M  V30 14935 C 1460.13 1.40743 1.46843 0
M  V30 14936 C 1460.49 0.0119104 1.92396 0
M  V30 14937 O 1459.78 -0.960008 1.65814 0
M  V30 14938 C 1459.97 2.33829 2.70294 0
M  V30 14939 C 1459.8 3.82294 2.36816 0
M  V30 14940 C 1458.57 4.51056 2.27764 0
M  V30 14941 C 1460.77 4.7358 2.00565 0
M  V30 14942 N 1458.75 5.84711 1.87045 0
M  V30 14943 C 1460.12 5.96093 1.7051 0
M  V30 14944 C 1462.18 4.6134 1.8727 0
M  V30 14945 C 1460.88 7.07729 1.28497 0
M  V30 14946 C 1462.91 5.72926 1.46662 0
M  V30 14947 C 1462.27 6.94529 1.1751 0
M  V30 14948 H 1458.37 0.570255 0.535101 0
M  V30 14949 H 1460.95 1.766 0.81979 0
M  V30 14950 H 1459.12 2.00087 3.32896 0
M  V30 14951 H 1460.85 2.2455 3.36689 0
M  V30 14952 H 1457.61 4.04839 2.45768 0
M  V30 14953 H 1458.03 6.55515 1.69201 0
M  V30 14954 H 1462.68 3.67834 2.08467 0
M  V30 14955 H 1460.39 8.01112 1.06044 0
M  V30 14956 H 1463.98 5.65454 1.36942 0
M  V30 14957 H 1462.86 7.79408 0.865604 0
M  V30 14958 N 1460.36 -0.94061 1.26453 0
M  V30 14959 C 1461.61 -1.68132 1.1142 0
M  V30 14960 C 1461.92 -1.92587 -0.342006 0
M  V30 14961 O 1463.13 -2.64489 -0.613018 0
M  V30 14962 C 1461.59 -3.02758 1.94591 0
M  V30 14963 C 1461.19 -2.86049 3.4479 0
M  V30 14964 C 1462.94 -3.80516 1.88169 0
M  V30 14965 C 1460.85 -4.1615 4.20206 0
M  V30 14966 H 1459.78 -0.630591 0.413366 0
M  V30 14967 H 1462.43 -1.04602 1.50767 0
M  V30 14968 H 1460.81 -3.67272 1.48078 0
M  V30 14969 H 1461.98 -2.3038 3.99076 0
M  V30 14970 H 1460.3 -2.21732 3.52454 0
M  V30 14971 H 1462.89 -4.76904 2.41799 0
M  V30 14972 H 1463.24 -4.07477 0.852531 0
M  V30 14973 H 1463.77 -3.22776 2.32509 0
M  V30 14974 H 1460.51 -3.94373 5.23593 0
M  V30 14975 H 1460.03 -4.71531 3.707 0
M  V30 14976 H 1461.71 -4.84602 4.28684 0
M  V30 14977 N 1461.84 -1.08266 -1.14527 0
M  V30 14978 C 1462.75 -0.723043 -2.2318 0
M  V30 14979 C 1463.77 0.269819 -1.71895 0
M  V30 14980 O 1464.94 0.114126 -2.01076 0
M  V30 14981 C 1462.01 -0.136229 -3.46432 0
M  V30 14982 C 1461.07 -1.18352 -4.12664 0
M  V30 14983 C 1460.3 -0.624612 -5.30032 0
M  V30 14984 O 1460.52 0.556377 -5.6768 0
M  V30 14985 O 1459.46 -1.37397 -5.86008 0
M  V30 14986 H 1463.28 -1.6294 -2.56289 0
M  V30 14987 H 1460.87 -0.856235 -1.22429 0
M  V30 14988 H 1462.75 0.18829 -4.20979 0
M  V30 14989 H 1461.43 0.74331 -3.1505 0
M  V30 14990 H 1460.33 -1.56054 -3.39997 0
M  V30 14991 H 1461.67 -2.03528 -4.48148 0
M  V30 14992 N 1463.32 1.31536 -0.86811 0
M  V30 14993 C 1464.6 1.9149 -0.398866 0
M  V30 14994 C 1464.98 1.79008 1.1189 0
M  V30 14995 O 1464.32 1.19659 1.94664 0
M  V30 14996 C 1464.53 3.37771 -0.878173 0
M  V30 14997 C 1465.88 4.14882 -0.903216 0
M  V30 14998 O 1466.91 3.46545 -0.823703 0
M  V30 14999 O 1465.77 5.36936 -1.01794 0
M  V30 15000 H 1462.86 0.818398 -0.118971 0
M  V30 15001 H 1465.41 1.40216 -0.955899 0
M  V30 15002 H 1464.18 3.40861 -1.9217 0
M  V30 15003 H 1463.8 3.96472 -0.299346 0
M  V30 15004 N 1464.8 0.627364 1.44575 0
M  V30 15005 C 1466.07 0.0614392 1.95503 0
M  V30 15006 C 1466.45 -1.41182 1.56942 0
M  V30 15007 O 1465.8 -2.12435 0.841634 0
M  V30 15008 C 1466.01 0.280349 3.47872 0
M  V30 15009 C 1467.36 0.171559 4.24253 0
M  V30 15010 O 1468.38 0.211515 3.55571 0
M  V30 15011 O 1467.24 0.0733152 5.46451 0
M  V30 15012 H 1464.34 -0.0244626 0.826638 0
M  V30 15013 H 1466.88 0.698805 1.54644 0
M  V30 15014 H 1465.66 1.30278 3.68976 0
M  V30 15015 H 1465.28 -0.391336 3.95669 0
M  V30 15016 N 1466.28 -1.53251 0.367684 0
M  V30 15017 C 1467.24 -2.24423 -0.465516 0
M  V30 15018 C 1468.24 -1.25283 -1.00801 0
M  V30 15019 O 1469.43 -1.49545 -0.893424 0
M  V30 15020 C 1466.56 -2.9826 -1.65087 0
M  V30 15021 H 1467.75 -2.99487 0.157292 0
M  V30 15022 H 1465.31 -1.55843 0.119409 0
M  V30 15023 H 1466.04 -2.27443 -2.31171 0
M  V30 15024 H 1465.83 -3.71003 -1.26882 0
M  V30 15025 H 1467.32 -3.52358 -2.24128 0
M  V30 15026 N 1467.75 -0.0969077 -1.57302 0
M  V30 15027 C 1468.69 0.898042 -2.09787 0
M  V30 15028 C 1469.66 1.27518 -1.00886 0
M  V30 15029 O 1470.85 1.3801 -1.28396 0
M  V30 15030 C 1467.98 2.19868 -2.57635 0
M  V30 15031 C 1467.02 1.97127 -3.7821 0
M  V30 15032 S 1467.85 1.20763 -5.21705 0
M  V30 15033 C 1469.01 2.52054 -5.72905 0
M  V30 15034 H 1469.24 0.451544 -2.93851 0
M  V30 15035 H 1466.78 0.116417 -1.5396 0
M  V30 15036 H 1468.73 2.9461 -2.85859 0
M  V30 15037 H 1467.4 2.61639 -1.73793 0
M  V30 15038 H 1466.59 2.93445 -4.09763 0
M  V30 15039 H 1466.19 1.30515 -3.50488 0
M  V30 15040 H 1468.48 3.4802 -5.81282 0
M  V30 15041 H 1469.43 2.25077 -6.71376 0
M  V30 15042 H 1469.83 2.6041 -5.00846 0
M  V30 15043 N 1469.23 1.56605 0.176793 0
M  V30 15044 C 1470.14 1.99211 1.23903 0
M  V30 15045 C 1471.16 0.902614 1.48758 0
M  V30 15046 O 1472.33 1.20982 1.61014 0
M  V30 15047 C 1469.4 2.33873 2.55938 0
M  V30 15048 C 1468.46 3.56624 2.38994 0
M  V30 15049 C 1467.69 3.89623 3.64733 0
M  V30 15050 O 1467.92 3.23662 4.6968 0
M  V30 15051 O 1466.85 4.82992 3.5917 0
M  V30 15052 H 1470.68 2.89827 0.907398 0
M  V30 15053 H 1468.26 1.44401 0.383234 0
M  V30 15054 H 1470.14 2.57161 3.33836 0
M  V30 15055 H 1468.82 1.46421 2.88691 0
M  V30 15056 H 1467.72 3.38561 1.59146 0
M  V30 15057 H 1469.06 4.446 2.11167 0
M  V30 15058 N 1470.71 -0.445159 1.51182 0
M  V30 15059 C 1471.64 -1.55788 1.68115 0
M  V30 15060 C 1472.65 -1.52793 0.561964 0
M  V30 15061 O 1473.84 -1.57711 0.836029 0
M  V30 15062 C 1470.94 -2.94702 1.67344 0
M  V30 15063 C 1470.12 -3.22286 2.9572 0
M  V30 15064 C 1469.18 -4.40884 2.87241 0
M  V30 15065 O 1468.2 -4.3992 3.61191 0
M  V30 15066 N 1469.4 -5.44013 2.02558 0
M  V30 15067 H 1472.17 -1.4167 2.64102 0
M  V30 15068 H 1469.73 -0.633984 1.48971 0
M  V30 15069 H 1471.72 -3.7205 1.5925 0
M  V30 15070 H 1470.29 -3.02457 0.789842 0
M  V30 15071 H 1469.51 -2.33309 3.17743 0
M  V30 15072 H 1470.8 -3.3754 3.80715 0
M  V30 15073 H 1470.2 -5.47629 1.4184 0
M  V30 15074 H 1468.75 -6.20245 2.0035 0
M  V30 15075 N 1472.19 -1.41197 -0.700089 0
M  V30 15076 C 1473.44 -1.40034 -1.45722 0
M  V30 15077 C 1473.76 -0.00876281 -1.94998 0
M  V30 15078 O 1473.03 0.948647 -1.71399 0
M  V30 15079 H 1471.61 -0.515433 -0.540683 0
M  V30 15080 H 1474.27 -1.76394 -0.828926 0
M  V30 15081 H 1473.36 -2.08477 -2.32258 0
M  V30 15082 N 1473.67 0.933891 -1.2695 0
M  V30 15083 C 1474.91 1.6834 -1.13091 0
M  V30 15084 C 1475.24 1.91484 0.32367 0
M  V30 15085 O 1474.52 1.50075 1.23724 0
M  V30 15086 C 1474.8 3.05374 -1.90838 0
M  V30 15087 C 1474.66 2.8951 -3.44244 0
M  V30 15088 C 1475.97 4.05607 -1.70795 0
M  V30 15089 H 1473.09 0.610944 -0.41221 0
M  V30 15090 H 1475.74 1.08416 -1.56032 0
M  V30 15091 H 1473.89 3.56526 -1.54343 0
M  V30 15092 H 1475.56 2.45523 -3.90533 0
M  V30 15093 H 1473.8 2.24981 -3.70899 0
M  V30 15094 H 1474.47 3.86734 -3.93879 0
M  V30 15095 H 1476.95 3.63443 -2.02604 0
M  V30 15096 H 1475.82 4.9949 -2.27597 0
M  V30 15097 H 1476.08 4.37231 -0.654327 0
M  V30 15098 N 1475.14 1.08871 1.13951 0
M  V30 15099 C 1476.37 0.843055 1.89492 0
M  V30 15100 C 1476.79 -0.599539 1.78289 0
M  V30 15101 O 1476.15 -1.42062 1.12642 0
M  V30 15102 C 1476.2 1.27572 3.3728 0
M  V30 15103 O 1475.3 0.430611 4.10146 0
M  V30 15104 H 1474.64 0.3058 0.589391 0
M  V30 15105 H 1477.17 1.45137 1.44209 0
M  V30 15106 H 1477.18 1.25864 3.88101 0
M  V30 15107 H 1475.86 2.32635 3.44751 0
M  V30 15108 H 1474.44 0.511516 3.69375 0
M  V30 15109 N 1476.62 -1.31073 0.875073 0
M  V30 15110 C 1477.9 -1.91276 0.409015 0
M  V30 15111 C 1478.28 -1.79599 -1.10939 0
M  V30 15112 O 1477.63 -1.2069 -1.94026 0
M  V30 15113 C 1477.84 -3.373 0.896074 0
M  V30 15114 C 1479.18 -4.14397 0.925205 0
M  V30 15115 O 1480.21 -3.46104 0.842069 0
M  V30 15116 O 1479.07 -5.36389 1.0464 0
M  V30 15117 H 1476.16 -0.817755 0.12331 0
M  V30 15118 H 1478.71 -1.39708 0.963322 0
M  V30 15119 H 1477.48 -3.39837 1.93975 0
M  V30 15120 H 1477.1 -3.96307 0.320367 0
M  V30 15121 N 1478.1 -0.635022 -1.4424 0
M  V30 15122 C 1479.33 -0.148045 -2.06069 0
M  V30 15123 C 1479.74 1.1842 -1.47558 0
M  V30 15124 O 1479.08 1.73817 -0.594425 0
M  V30 15125 C 1479.14 0.0369593 -3.59481 0
M  V30 15126 C 1478.81 -1.21773 -4.40478 0
M  V30 15127 C 1479.8 -2.14233 -4.73709 0
M  V30 15128 C 1477.49 -1.45423 -4.80788 0
M  V30 15129 C 1479.48 -3.2865 -5.46139 0
M  V30 15130 C 1477.17 -2.60136 -5.52967 0
M  V30 15131 C 1478.17 -3.51576 -5.85562 0
M  V30 15132 O 1477.86 -4.64289 -6.5627 0
M  V30 15133 H 1477.59 -0.0787231 -0.671401 0
M  V30 15134 H 1480.14 -0.870639 -1.86035 0
M  V30 15135 H 1478.37 0.814739 -3.7802 0
M  V30 15136 H 1480.06 0.478984 -4.03064 0
M  V30 15137 H 1480.83 -1.97196 -4.43101 0
M  V30 15138 H 1476.71 -0.751378 -4.54835 0
M  V30 15139 H 1480.25 -4.00043 -5.71499 0
M  V30 15140 H 1476.15 -2.77114 -5.82991 0
M  V30 15141 H 1476.92 -4.6332 -6.74742 0
M  V30 15142 N 1479.58 1.53054 -0.375806 0
M  V30 15143 C 1480.82 2.017 0.210985 0
M  V30 15144 C 1481.16 1.26228 1.47581 0
M  V30 15145 O 1480.43 0.358869 1.91161 0
M  V30 15146 C 1480.72 3.56715 0.492596 0
M  V30 15147 C 1480.57 4.42869 -0.786573 0
M  V30 15148 C 1481.89 4.20803 1.28891 0
M  V30 15149 H 1479.01 0.733153 0.0752084 0
M  V30 15150 H 1481.65 1.83229 -0.502715 0
M  V30 15151 H 1479.8 3.72585 1.10059 0
M  V30 15152 H 1481.47 4.38777 -1.42381 0
M  V30 15153 H 1479.71 4.10425 -1.40478 0
M  V30 15154 H 1480.38 5.49309 -0.544354 0
M  V30 15155 H 1482.86 4.08828 0.774498 0
M  V30 15156 H 1481.74 5.29273 1.45469 0
M  V30 15157 H 1482 3.77541 2.30033 0
M  V30 15158 N 1481.06 0.105248 1.57248 0
M  V30 15159 C 1481.99 -0.880221 2.11624 0
M  V30 15160 C 1483 -1.23924 1.05578 0
M  V30 15161 O 1484.19 -1.19059 1.32994 0
M  V30 15162 C 1481.29 -2.18628 2.5895 0
M  V30 15163 C 1480.46 -2.00105 3.88943 0
M  V30 15164 C 1479.52 -3.14315 4.2201 0
M  V30 15165 O 1478.55 -2.87832 4.91061 0
M  V30 15166 N 1479.75 -4.4037 3.78226 0
M  V30 15167 H 1482.52 -0.415742 2.96802 0
M  V30 15168 H 1480.08 -0.0795714 1.61704 0
M  V30 15169 H 1482.07 -2.94002 2.7811 0
M  V30 15170 H 1480.64 -2.56467 1.78727 0
M  V30 15171 H 1479.86 -1.09003 3.7883 0
M  V30 15172 H 1481.15 -1.85018 4.73968 0
M  V30 15173 H 1480.54 -4.64765 3.22506 0
M  V30 15174 H 1479.1 -5.1266 4.02521 0
M  V30 15175 N 1482.53 -1.56697 -0.168486 0
M  V30 15176 C 1483.95 -1.50879 -0.52036 0
M  V30 15177 C 1484.15 -0.810001 -1.84503 0
M  V30 15178 O 1483.21 -0.371549 -2.49751 0
M  V30 15179 C 1484.52 -2.95618 -0.550502 0
M  V30 15180 C 1486.07 -3.06439 -0.637508 0
M  V30 15181 C 1486.54 -4.52642 -0.698516 0
M  V30 15182 N 1488.03 -4.569 -0.761328 0
M  V30 15183 C 1488.77 -5.67373 -0.829155 0
M  V30 15184 N 1488.26 -6.87471 -0.857642 0
M  V30 15185 N 1490.06 -5.55352 -0.868392 0
M  V30 15186 H 1482.21 -2.00531 0.700087 0
M  V30 15187 H 1484.47 -0.913683 0.252759 0
M  V30 15188 H 1484.18 -3.49912 0.354222 0
M  V30 15189 H 1484.05 -3.50416 -1.396 0
M  V30 15190 H 1486.44 -2.52178 -1.53266 0
M  V30 15191 H 1486.52 -2.54721 0.234719 0
M  V30 15192 H 1486.16 -5.07535 0.192387 0
M  V30 15193 H 1486.09 -5.0212 -1.58693 0
M  V30 15194 H 1488.58 -3.70434 -0.747482 0
M  V30 15195 H 1488.9 -7.67416 -0.910648 0
M  V30 15196 H 1487.24 -6.90076 -0.825872 0
M  V30 15197 H 1490.43 -4.60444 -0.843158 0
M  V30 15198 H 1490.61 -6.41468 -0.917789 0
M  V30 15199 N 1484.01 0.437135 -1.51416 0
M  V30 15200 C 1484.94 1.538 -1.75692 0
M  V30 15201 C 1485.92 1.5891 -0.606759 0
M  V30 15202 O 1487.11 1.74635 -0.849492 0
M  V30 15203 C 1484.24 2.91877 -1.88215 0
M  V30 15204 C 1483.19 3.01628 -3.03652 0
M  V30 15205 C 1482.52 4.41687 -3.01358 0
M  V30 15206 C 1483.82 2.75691 -4.43612 0
M  V30 15207 H 1485.51 1.33737 -2.67871 0
M  V30 15208 H 1483.06 0.641936 -1.289 0
M  V30 15209 H 1485.01 3.68851 -2.03781 0
M  V30 15210 H 1483.74 3.13173 -0.926847 0
M  V30 15211 H 1482.39 2.27094 -2.87791 0
M  V30 15212 H 1482.04 4.5995 -2.03605 0
M  V30 15213 H 1481.74 4.49141 -3.78875 0
M  V30 15214 H 1483.27 5.20634 -3.19018 0
M  V30 15215 H 1484.68 3.42398 -4.59822 0
M  V30 15216 H 1483.08 2.94554 -5.22836 0
M  V30 15217 H 1484.15 1.71297 -4.53636 0
M  V30 15218 N 1485.49 1.41566 0.692592 0
M  V30 15219 C 1486.74 1.40805 1.44978 0
M  V30 15220 C 1487.06 0.0191039 1.94991 0
M  V30 15221 O 1486.33 -0.939544 1.71899 0
M  V30 15222 H 1484.91 0.518293 0.537942 0
M  V30 15223 H 1487.57 1.76831 0.81956 0
M  V30 15224 H 1486.67 2.09706 2.31149 0
M  V30 15225 N 1486.97 -0.927146 1.27443 0
M  V30 15226 C 1488.19 -1.71426 1.16739 0
M  V30 15227 C 1488.62 -1.86122 -0.272063 0
M  V30 15228 O 1487.98 -1.36165 -1.19703 0
M  V30 15229 C 1488.02 -3.09131 1.85661 0
M  V30 15230 O 1487.13 -3.95897 1.15495 0
M  V30 15231 H 1486.47 -0.525428 0.405983 0
M  V30 15232 H 1489 -1.16022 1.68523 0
M  V30 15233 H 1489.01 -3.59442 1.93042 0
M  V30 15234 H 1487.68 -2.97752 2.90373 0
M  V30 15235 H 1486.26 -3.54337 1.16187 0
M  V30 15236 N 1488.45 -1.09474 -1.13372 0
M  V30 15237 C 1489.41 -0.738173 -2.16988 0
M  V30 15238 C 1490.41 0.232488 -1.5911 0
M  V30 15239 O 1491.6 0.0106093 -1.74197 0
M  V30 15240 C 1488.73 -0.091724 -3.40777 0
M  V30 15241 H 1489.92 -1.65582 -2.50045 0
M  V30 15242 H 1487.48 -0.893994 -1.28209 0
M  V30 15243 H 1488.21 0.837129 -3.13309 0
M  V30 15244 H 1488 -0.790161 -3.84056 0
M  V30 15245 H 1489.49 0.142334 -4.17357 0
M  V30 15246 N 1489.92 1.30607 -0.882012 0
M  V30 15247 C 1491.17 1.96256 -0.498964 0
M  V30 15248 C 1491.5 1.69651 0.951259 0
M  V30 15249 O 1490.75 0.992303 1.68677 0
M  V30 15250 C 1491.05 3.50136 -0.716929 0
M  V30 15251 C 1490.72 3.96785 -2.14178 0
M  V30 15252 C 1489.38 4.09234 -2.53142 0
M  V30 15253 C 1491.73 4.21154 -3.07048 0
M  V30 15254 C 1489.06 4.43411 -3.84192 0
M  V30 15255 C 1491.41 4.56799 -4.37627 0
M  V30 15256 C 1490.08 4.67456 -4.76488 0
M  V30 15257 H 1489.35 0.718153 -0.182584 0
M  V30 15258 H 1491.99 1.55527 -1.1173 0
M  V30 15259 H 1490.3 3.91797 -0.0155388 0
M  V30 15260 H 1492 3.98998 -0.400196 0
M  V30 15261 H 1488.59 3.876 -1.82932 0
M  V30 15262 H 1492.77 4.1102 -2.78167 0
M  V30 15263 H 1488.03 4.49861 -4.14047 0
M  V30 15264 H 1492.2 4.74607 -5.09629 0
M  V30 15265 H 1489.83 4.93694 -5.78074 0
M  V30 15266 N 1491.4 0.642663 1.43901 0
M  V30 15267 C 1492.65 0.151478 2.01532 0
M  V30 15268 C 1492.97 -1.23519 1.50891 0
M  V30 15269 O 1492.24 -1.82299 0.717197 0
M  V30 15270 H 1490.82 0.0530091 0.745117 0
M  V30 15271 H 1493.48 0.831958 1.76251 0
M  V30 15272 H 1492.58 0.127995 3.11837 0
M  V30 15273 N 1492.88 -1.52852 0.383918 0
M  V30 15274 C 1493.84 -2.24904 -0.441687 0
M  V30 15275 C 1494.84 -1.26345 -0.99466 0
M  V30 15276 O 1496.03 -1.50484 -0.877513 0
M  V30 15277 C 1493.17 -2.99994 -1.61915 0
M  V30 15278 H 1494.36 -2.99304 0.189047 0
M  V30 15279 H 1491.91 -1.55708 0.135932 0
M  V30 15280 H 1492.65 -2.29882 -2.28746 0
M  V30 15281 H 1492.43 -3.72328 -1.2294 0
M  V30 15282 H 1493.92 -3.54716 -2.20378 0
M  V30 15283 N 1494.36 -0.113586 -1.5719 0
M  V30 15284 C 1495.61 0.544642 -1.94623 0
M  V30 15285 C 1495.93 1.6756 -0.997428 0
M  V30 15286 O 1495.2 1.95829 -0.0527521 0
M  V30 15287 H 1493.78 0.204186 -0.718552 0
M  V30 15288 H 1496.44 -0.181258 -1.94055 0
M  V30 15289 H 1495.54 0.942765 -2.9752 0
M  V30 15290 N 1495.84 1.56784 0.160173 0
M  V30 15291 C 1497.08 1.82621 0.874982 0
M  V30 15292 C 1497.41 0.692427 1.81757 0
M  V30 15293 O 1496.67 -0.319535 1.93074 0
M  V30 15294 C 1496.97 3.14703 1.69402 0
M  V30 15295 C 1496.63 4.41839 0.899373 0
M  V30 15296 C 1495.29 4.7637 0.680099 0
M  V30 15297 C 1497.65 5.20072 0.342747 0
M  V30 15298 C 1494.97 5.86603 -0.106723 0
M  V30 15299 C 1497.33 6.3113 -0.431044 0
M  V30 15300 C 1495.99 6.64219 -0.661017 0
M  V30 15301 H 1495.26 0.668256 0.320178 0
M  V30 15302 H 1497.91 1.90993 0.139305 0
M  V30 15303 H 1496.21 3.01723 2.49941 0
M  V30 15304 H 1497.91 3.31906 2.25032 0
M  V30 15305 H 1494.5 4.14761 1.08033 0
M  V30 15306 H 1498.68 4.9378 0.499467 0
M  V30 15307 H 1493.94 6.1069 -0.294528 0
M  V30 15308 H 1498.11 6.9095 -0.869557 0
M  V30 15309 H 1495.74 7.49473 -1.27257 0
M  V30 15310 N 1497.32 -0.429099 1.51646 0
M  V30 15311 C 1498.54 -1.20006 1.68541 0
M  V30 15312 C 1498.96 -1.84806 0.386264 0
M  V30 15313 O 1498.32 -1.7106 -0.635988 0
M  V30 15314 C 1498.37 -2.27801 2.80694 0
M  V30 15315 O 1498.09 -1.65649 4.05576 0
M  V30 15316 C 1499.59 -3.17927 3.08929 0
M  V30 15317 H 1496.81 -0.361388 0.565367 0
M  V30 15318 H 1499.35 -0.507432 1.98104 0
M  V30 15319 H 1497.51 -2.92766 2.53706 0
M  V30 15320 H 1497.92 -2.36955 4.67924 0
M  V30 15321 H 1499.4 -3.8968 3.90965 0
M  V30 15322 H 1499.87 -3.79157 2.21668 0
M  V30 15323 H 1500.48 -2.58654 3.37606 0
M  V30 15324 N 1498.79 -1.41931 -0.685074 0
M  V30 15325 C 1499.74 -1.44824 -1.82013 0
M  V30 15326 C 1500.74 -0.325083 -1.66252 0
M  V30 15327 O 1501.94 -0.497614 -1.72985 0
M  V30 15328 H 1498.32 -0.453362 -0.599972 0
M  V30 15329 H 1500.29 -2.40464 -1.76691 0
M  V30 15330 C 1499.04 -1.35753 -3.20104 0
M  V30 15331 H 1498.36 -2.21469 -3.32854 0
M  V30 15332 H 1499.8 -1.41838 -3.99572 0
M  V30 15333 C 1498.26 -0.0710816 -3.36825 0
M  V30 15334 O 1498.79 0.880155 -3.91939 0
M  V30 15335 N 1496.99 0.00842652 -2.90599 0
M  V30 15336 H 1496.54 -0.766427 -2.45934 0
M  V30 15337 H 1496.5 0.868559 -3.02165 0
M  V30 15338 N 1500.27 0.920374 -1.27933 0
M  V30 15339 C 1501.18 2.05525 -1.13123 0
M  V30 15340 C 1502.2 1.73899 -0.059421 0
M  V30 15341 O 1503.37 1.99617 -0.267386 0
M  V30 15342 C 1500.44 3.37637 -0.787551 0
M  V30 15343 C 1499.5 3.82914 -1.94101 0
M  V30 15344 C 1498.73 5.08721 -1.61364 0
M  V30 15345 O 1498.96 5.6798 -0.524918 0
M  V30 15346 O 1497.89 5.4955 -2.45517 0
M  V30 15347 H 1501.72 2.20935 -2.08378 0
M  V30 15348 H 1499.3 1.04071 -1.07189 0
M  V30 15349 H 1501.18 4.16968 -0.609544 0
M  V30 15350 H 1499.86 3.23417 0.135407 0
M  V30 15351 H 1498.76 3.04438 -2.17413 0
M  V30 15352 H 1500.1 4.01687 -2.84444 0
M  V30 15353 N 1501.75 1.10074 1.1279 0
M  V30 15354 C 1503 0.835715 1.83572 0
M  V30 15355 C 1503.31 -0.640831 1.84805 0
M  V30 15356 O 1504.52 -1.02162 2.51545 0
M  V30 15357 C 1502.97 1.44519 3.29609 0
M  V30 15358 C 1502.58 2.95476 3.36746 0
M  V30 15359 C 1504.33 1.2594 4.05388 0
M  V30 15360 C 1502.23 3.49477 4.77095 0
M  V30 15361 H 1501.16 0.308974 0.687787 0
M  V30 15362 H 1503.81 1.32427 1.27025 0
M  V30 15363 H 1502.2 0.884323 3.86 0
M  V30 15364 H 1503.37 3.57846 2.90315 0
M  V30 15365 H 1501.68 3.13166 2.74437 0
M  V30 15366 H 1504.28 1.63732 5.09015 0
M  V30 15367 H 1504.62 0.200633 4.15816 0
M  V30 15368 H 1505.16 1.78814 3.55346 0
M  V30 15369 H 1501.9 4.55003 4.7186 0
M  V30 15370 H 1501.42 2.91873 5.23995 0
M  V30 15371 H 1503.1 3.47077 5.46028 0
M  V30 15372 N 1503.23 -1.30138 0.888926 0
M  V30 15373 C 1504.19 -2.26299 0.363504 0
M  V30 15374 C 1505.19 -1.52951 -0.496244 0
M  V30 15375 O 1506.38 -1.71548 -0.302834 0
M  V30 15376 C 1503.51 -3.37482 -0.481544 0
M  V30 15377 H 1504.71 -2.7429 1.21265 0
M  V30 15378 H 1502.26 -1.41395 0.666124 0
M  V30 15379 H 1502.99 -2.94814 -1.35112 0
M  V30 15380 H 1502.78 -3.9187 0.134344 0
M  V30 15381 H 1504.27 -4.09048 -0.840816 0
M  V30 15382 N 1504.71 -0.650285 -1.43559 0
M  V30 15383 C 1505.62 0.0438076 -2.34559 0
M  V30 15384 C 1506.63 0.815316 -1.53716 0
M  V30 15385 O 1507.81 0.76323 -1.86378 0
M  V30 15386 C 1504.87 1.00028 -3.31957 0
M  V30 15387 C 1503.93 0.226027 -4.28705 0
M  V30 15388 C 1503.17 1.13694 -5.21449 0
M  V30 15389 O 1503.39 2.37614 -5.18551 0
M  V30 15390 O 1502.32 0.610924 -5.98792 0
M  V30 15391 H 1506.15 -0.705152 -2.954 0
M  V30 15392 H 1503.73 -0.410471 -1.43651 0
M  V30 15393 H 1505.62 1.55004 -3.91857 0
M  V30 15394 H 1504.29 1.72952 -2.73623 0
M  V30 15395 H 1503.2 -0.367244 -3.72293 0
M  V30 15396 H 1504.53 -0.463582 -4.90012 0
M  V30 15397 N 1506.18 1.52647 -0.392018 0
M  V30 15398 C 1507.13 2.26532 0.441819 0
M  V30 15399 C 1508.1 1.2825 1.05552 0
M  V30 15400 O 1509.29 1.57083 1.08303 0
M  V30 15401 C 1506.43 3.0774 1.56174 0
M  V30 15402 C 1505.54 4.20955 0.970632 0
M  V30 15403 C 1504.67 4.89553 2.06183 0
M  V30 15404 C 1503.71 5.94756 1.44676 0
M  V30 15405 N 1502.85 6.5694 2.47738 0
M  V30 15406 H 1507.69 2.97363 -0.194699 0
M  V30 15407 H 1505.23 1.46704 -0.107848 0
M  V30 15408 H 1507.18 3.53116 2.22183 0
M  V30 15409 H 1505.81 2.39112 2.16853 0
M  V30 15410 H 1504.87 3.79874 0.200067 0
M  V30 15411 H 1506.18 4.96474 0.481181 0
M  V30 15412 H 1505.33 5.38247 2.79956 0
M  V30 15413 H 1504.07 4.13564 2.58488 0
M  V30 15414 H 1503.08 5.45399 0.694288 0
M  V30 15415 H 1504.3 6.72679 0.931617 0
M  V30 15416 H 1502.25 5.8379 2.99208 0
M  V30 15417 H 1502.16 7.2808 2.03556 0
M  V30 15418 H 1503.43 7.10277 3.21133 0
M  V30 15419 N 1507.66 0.121921 1.57128 0
M  V30 15420 C 1508.89 -0.543012 1.99647 0
M  V30 15421 C 1509.31 -1.60038 1.00165 0
M  V30 15422 O 1508.66 -1.82499 -0.00504688 0
M  V30 15423 C 1508.71 -1.1665 3.42162 0
M  V30 15424 O 1508.43 -0.151385 4.37838 0
M  V30 15425 C 1509.94 -1.91447 3.99829 0
M  V30 15426 H 1507.16 -0.143524 0.655471 0
M  V30 15427 H 1509.7 0.20912 2.03428 0
M  V30 15428 H 1507.85 -1.86939 3.39312 0
M  V30 15429 H 1508.27 -0.604773 5.21002 0
M  V30 15430 H 1509.74 -2.30394 5.0162 0
M  V30 15431 H 1510.22 -2.7908 3.39133 0
M  V30 15432 H 1510.83 -1.25913 4.06234 0
M  V30 15433 N 1509.14 -1.56867 -0.151857 0
M  V30 15434 C 1510.07 -1.94494 -1.21263 0
M  V30 15435 C 1511.09 -0.84021 -1.39443 0
M  V30 15436 O 1512.27 -1.11863 -1.391 0
M  V30 15437 C 1509.37 -2.19952 -2.57826 0
M  V30 15438 C 1508.55 -3.51227 -2.60689 0
M  V30 15439 C 1507.61 -3.65282 -3.78756 0
M  V30 15440 O 1506.63 -4.3772 -3.63854 0
M  V30 15441 N 1507.83 -3.01582 -4.96012 0
M  V30 15442 H 1510.6 -2.86092 -0.892845 0
M  V30 15443 H 1508.16 -1.58258 -0.341463 0
M  V30 15444 H 1510.15 -2.266 -3.35312 0
M  V30 15445 H 1508.72 -1.34643 -2.82117 0
M  V30 15446 H 1507.94 -3.56062 -1.69155 0
M  V30 15447 H 1509.23 -4.37574 -2.59628 0
M  V30 15448 H 1508.63 -2.42637 -5.11022 0
M  V30 15449 H 1507.19 -3.13799 -5.71291 0
M  V30 15450 N 1510.62 0.421051 -1.51871 0
M  V30 15451 C 1511.55 1.53094 -1.70572 0
M  V30 15452 C 1512.56 1.5188 -0.586201 0
M  V30 15453 O 1513.75 1.56361 -0.861013 0
M  V30 15454 C 1510.85 2.92002 -1.72011 0
M  V30 15455 C 1510.03 3.17541 -3.0081 0
M  V30 15456 C 1509.08 4.36259 -2.94219 0
M  V30 15457 O 1508.11 4.34118 -3.68144 0
M  V30 15458 N 1509.31 5.40722 -2.11188 0
M  V30 15459 H 1512.08 1.3745 -2.66322 0
M  V30 15460 H 1509.64 0.610204 -1.4996 0
M  V30 15461 H 1511.63 3.6947 -1.65149 0
M  V30 15462 H 1510.2 3.01162 -0.837861 0
M  V30 15463 H 1509.42 2.28225 -3.21414 0
M  V30 15464 H 1510.71 3.3144 -3.86037 0
M  V30 15465 H 1510.11 5.45304 -1.50534 0
M  V30 15466 H 1508.66 6.16979 -2.10192 0
M  V30 15467 N 1512.1 1.42293 0.677538 0
M  V30 15468 C 1513.35 1.41909 1.43334 0
M  V30 15469 C 1513.66 0.037951 1.95563 0
M  V30 15470 O 1514.86 -0.0884836 2.71356 0
M  V30 15471 C 1513.32 2.49608 2.59275 0
M  V30 15472 C 1512.93 3.93716 2.13757 0
M  V30 15473 C 1514.67 2.58387 3.36803 0
M  V30 15474 C 1512.58 4.92929 3.26764 0
M  V30 15475 H 1511.51 0.527803 0.538461 0
M  V30 15476 H 1514.16 1.6819 0.733791 0
M  V30 15477 H 1512.54 2.16488 3.31585 0
M  V30 15478 H 1513.72 4.36176 1.48618 0
M  V30 15479 H 1512.03 3.88762 1.49175 0
M  V30 15480 H 1514.63 3.29691 4.20961 0
M  V30 15481 H 1514.97 1.62653 3.8321 0
M  V30 15482 H 1515.5 2.90688 2.71561 0
M  V30 15483 H 1512.24 5.90131 2.85352 0
M  V30 15484 H 1511.76 4.55103 3.90694 0
M  V30 15485 H 1513.44 5.1452 3.92273 0
M  V30 15486 N 1513.57 -0.913576 1.28419 0
M  V30 15487 C 1514.52 -2.01603 1.12361 0
M  V30 15488 C 1515.49 -1.66087 0.0206953 0
M  V30 15489 O 1516.68 -1.89895 0.185659 0
M  V30 15490 C 1513.82 -3.35897 0.791655 0
M  V30 15491 C 1512.93 -3.84281 1.97363 0
M  V30 15492 C 1512.06 -5.07087 1.58228 0
M  V30 15493 C 1511.1 -5.47804 2.73089 0
M  V30 15494 N 1510.24 -6.618 2.34446 0
M  V30 15495 H 1515.08 -2.1467 2.0669 0
M  V30 15496 H 1512.62 -1.05147 1.02871 0
M  V30 15497 H 1514.58 -4.13149 0.579943 0
M  V30 15498 H 1513.21 -3.22596 -0.114699 0
M  V30 15499 H 1512.26 -3.03184 2.29746 0
M  V30 15500 H 1513.57 -4.10417 2.83477 0
M  V30 15501 H 1512.72 -5.91883 1.33264 0
M  V30 15502 H 1511.46 -4.82759 0.692429 0
M  V30 15503 H 1510.47 -4.61549 2.98751 0
M  V30 15504 H 1511.69 -5.74119 3.62717 0
M  V30 15505 H 1509.64 -6.39103 1.4793 0
M  V30 15506 H 1509.56 -6.87663 3.14096 0
M  V30 15507 H 1510.82 -7.49901 2.12766 0
M  V30 15508 N 1515.05 -1.1067 -1.12204 0
M  V30 15509 C 1515.96 -0.770221 -2.21596 0
M  V30 15510 C 1516.98 0.233297 -1.72429 0
M  V30 15511 O 1518.15 0.0714493 -2.01273 0
M  V30 15512 C 1515.22 -0.209682 -3.46065 0
M  V30 15513 C 1514.28 -1.27079 -4.1006 0
M  V30 15514 C 1513.51 -0.736899 -5.28588 0
M  V30 15515 O 1513.74 0.435838 -5.68732 0
M  V30 15516 O 1512.67 -1.49797 -5.82962 0
M  V30 15517 H 1516.5 -1.6834 -2.52776 0
M  V30 15518 H 1514.08 -0.882012 -1.20586 0
M  V30 15519 H 1515.96 0.0989516 -4.21284 0
M  V30 15520 H 1514.64 0.676316 -3.16556 0
M  V30 15521 H 1513.55 -1.63231 -3.3661 0
M  V30 15522 H 1514.88 -2.12989 -4.4373 0
M  V30 15523 N 1516.53 1.29665 -0.895815 0
M  V30 15524 C 1517.46 2.26013 -0.315211 0
M  V30 15525 C 1518.44 1.52267 0.570404 0
M  V30 15526 O 1519.63 1.81241 0.518081 0
M  V30 15527 C 1516.75 3.34187 0.551068 0
M  V30 15528 C 1515.8 4.25665 -0.266698 0
M  V30 15529 S 1516.63 5.09056 -1.66198 0
M  V30 15530 C 1517.79 6.20734 -0.80252 0
M  V30 15531 H 1518.02 2.74911 -1.13187 0
M  V30 15532 H 1515.55 1.37827 -0.695913 0
M  V30 15533 H 1517.51 3.96973 1.04511 0
M  V30 15534 H 1516.17 2.83991 1.34193 0
M  V30 15535 H 1515.37 5.02451 0.394869 0
M  V30 15536 H 1514.97 3.6751 -0.69374 0
M  V30 15537 H 1517.26 6.77496 -0.0242039 0
M  V30 15538 H 1518.2 6.91099 -1.54233 0
M  V30 15539 H 1518.61 5.6336 -0.358625 0
M  V30 15540 N 1518.01 0.657889 1.43212 0
M  V30 15541 C 1518.94 -0.0172114 2.33494 0
M  V30 15542 C 1519.92 -0.807087 1.49733 0
M  V30 15543 O 1521.1 -0.767631 1.78385 0
M  V30 15544 C 1518.23 -0.981029 3.33156 0
M  V30 15545 C 1517.19 -0.30094 4.26941 0
M  V30 15546 C 1516.51 -1.37653 5.16678 0
M  V30 15547 C 1517.81 0.809572 5.15988 0
M  V30 15548 H 1519.51 0.736749 2.90194 0
M  V30 15549 H 1517.05 0.355744 1.39537 0
M  V30 15550 H 1519.01 -1.46226 3.95216 0
M  V30 15551 H 1517.73 -1.76621 2.74723 0
M  V30 15552 H 1516.39 0.159893 3.66251 0
M  V30 15553 H 1516.04 -2.15326 4.54581 0
M  V30 15554 H 1515.74 -0.926704 5.80246 0
M  V30 15555 H 1517.26 -1.85903 5.81612 0
M  V30 15556 H 1518.68 0.410297 5.7183 0
M  V30 15557 H 1517.07 1.18415 5.88301 0
M  V30 15558 H 1518.14 1.66558 4.55397 0
M  V30 15559 N 1519.49 -1.52437 0.400108 0
M  V30 15560 C 1520.74 -2.00896 -0.179909 0
M  V30 15561 C 1521.05 -1.29046 -1.46991 0
M  V30 15562 O 1522.25 -1.68274 -2.13063 0
M  V30 15563 C 1520.71 -3.57981 -0.371169 0
M  V30 15564 C 1520.32 -4.38739 0.906213 0
M  V30 15565 C 1522.06 -4.14698 -0.906965 0
M  V30 15566 C 1519.97 -5.87447 0.682637 0
M  V30 15567 H 1518.9 -0.750649 -0.071008 0
M  V30 15568 H 1521.55 -1.75854 0.524169 0
M  V30 15569 H 1519.93 -3.79315 -1.13736 0
M  V30 15570 H 1521.11 -4.29167 1.67785 0
M  V30 15571 H 1519.42 -3.93296 1.36776 0
M  V30 15572 H 1522.02 -5.2347 -1.09012 0
M  V30 15573 H 1522.36 -3.71477 -1.87911 0
M  V30 15574 H 1522.89 -3.97297 -0.200068 0
M  V30 15575 H 1519.63 -6.35011 1.62608 0
M  V30 15576 H 1519.15 -5.99779 -0.0498716 0
M  V30 15577 H 1520.83 -6.46202 0.321331 0
M  V30 15578 N 1520.96 -0.130252 -1.57061 0
M  V30 15579 C 1522.21 0.523969 -1.9519 0
M  V30 15580 C 1522.53 1.66493 -1.01514 0
M  V30 15581 O 1521.8 1.95762 -0.0735194 0
M  V30 15582 H 1520.38 0.196553 -0.720677 0
M  V30 15583 H 1523.05 -0.20183 -1.93852 0
M  V30 15584 H 1522.14 0.911156 -2.98504 0
M  V30 15585 N 1522.44 1.56945 0.143535 0
M  V30 15586 C 1523.38 1.95134 1.2023 0
M  V30 15587 C 1524.39 0.847593 1.38995 0
M  V30 15588 O 1525.58 1.12599 1.38505 0
M  V30 15589 C 1522.68 2.21316 2.56656 0
M  V30 15590 C 1521.85 3.52604 2.58822 0
M  V30 15591 C 1520.91 3.67285 3.76813 0
M  V30 15592 O 1519.94 4.39644 3.61527 0
M  V30 15593 N 1521.14 3.04208 4.94406 0
M  V30 15594 H 1523.9 2.86561 0.87766 0
M  V30 15595 H 1521.46 1.58437 0.333065 0
M  V30 15596 H 1523.46 2.28375 3.34106 0
M  V30 15597 H 1522.03 1.36137 2.81399 0
M  V30 15598 H 1521.25 3.56954 1.67264 0
M  V30 15599 H 1522.53 4.38944 2.57304 0
M  V30 15600 H 1521.93 2.45344 5.09728 0
M  V30 15601 H 1520.49 3.16824 5.69619 0
M  V30 15602 N 1523.92 -0.412991 1.52093 0
M  V30 15603 C 1525.2 -1.17304 1.56522 0
M  V30 15604 C 1525.58 -2.0828 0.343926 0
M  V30 15605 O 1524.93 -2.18473 -0.669475 0
M  V30 15606 C 1525.14 -1.95371 2.89191 0
M  V30 15607 C 1526.48 -2.51571 3.42048 0
M  V30 15608 O 1527.51 -2.05555 2.90905 0
M  V30 15609 O 1526.37 -3.35563 4.31347 0
M  V30 15610 H 1523.46 -0.535386 0.63031 0
M  V30 15611 H 1526.01 -0.420084 1.64418 0
M  V30 15612 H 1524.78 -1.28701 3.69529 0
M  V30 15613 H 1524.4 -2.7768 2.84569 0
M  V30 15614 N 1525.4 -1.4265 -0.669982 0
M  V30 15615 C 1526.62 -1.46992 -1.46315 0
M  V30 15616 C 1527.05 -0.0840655 -1.87912 0
M  V30 15617 O 1526.41 0.918554 -1.56308 0
M  V30 15618 C 1526.46 -2.40663 -2.6854 0
M  V30 15619 O 1525.56 -1.88132 -3.66988 0
M  V30 15620 H 1524.9 -0.497844 -0.439372 0
M  V30 15621 H 1527.43 -1.8739 -0.821348 0
M  V30 15622 H 1527.44 -2.57405 -3.16554 0
M  V30 15623 H 1526.12 -3.41346 -2.37604 0
M  V30 15624 H 1524.69 -1.80969 -3.26044 0
M  V30 15625 N 1526.88 0.906753 -1.28902 0
M  V30 15626 C 1528.12 1.65903 -1.16636 0
M  V30 15627 C 1528.46 1.92127 0.282981 0
M  V30 15628 O 1527.73 1.52666 1.20513 0
M  V30 15629 C 1528.01 3.01257 -1.97272 0
M  V30 15630 C 1527.87 2.82143 -3.50308 0
M  V30 15631 C 1529.19 4.01893 -1.7936 0
M  V30 15632 H 1526.31 0.602063 -0.425076 0
M  V30 15633 H 1528.95 1.05081 -1.58297 0
M  V30 15634 H 1527.1 3.53172 -1.61871 0
M  V30 15635 H 1528.77 2.37184 -3.95653 0
M  V30 15636 H 1527.01 2.17063 -3.75588 0
M  V30 15637 H 1527.68 3.78293 -4.01993 0
M  V30 15638 H 1530.16 3.59064 -2.10267 0
M  V30 15639 H 1529.04 4.9455 -2.38141 0
M  V30 15640 H 1529.3 4.35745 -0.746923 0
M  V30 15641 N 1528.36 1.11264 1.11616 0
M  V30 15642 C 1529.29 0.79149 2.19676 0
M  V30 15643 C 1530.27 -0.239351 1.68408 0
M  V30 15644 O 1531.45 -0.103228 1.93925 0
M  V30 15645 C 1528.58 0.231891 3.46525 0
M  V30 15646 C 1527.54 1.19439 4.10997 0
M  V30 15647 C 1526.86 0.495593 5.32398 0
M  V30 15648 C 1528.16 2.54437 4.56135 0
M  V30 15649 H 1529.86 1.69503 2.46797 0
M  V30 15650 H 1527.4 0.816433 1.18619 0
M  V30 15651 H 1529.35 -0.00497468 4.214 0
M  V30 15652 H 1528.08 -0.706938 3.18857 0
M  V30 15653 H 1526.74 1.41686 3.38113 0
M  V30 15654 H 1526.39 -0.447984 5.01001 0
M  V30 15655 H 1526.09 1.13753 5.76484 0
M  V30 15656 H 1527.61 0.267476 6.10014 0
M  V30 15657 H 1529.02 2.36289 5.22341 0
M  V30 15658 H 1527.42 3.14595 5.11028 0
M  V30 15659 H 1528.49 3.13795 3.69676 0
M  V30 15660 N 1529.83 -1.29188 0.902679 0
M  V30 15661 C 1530.74 -2.3138 0.387363 0
M  V30 15662 C 1531.76 -1.66067 -0.519396 0
M  V30 15663 O 1532.94 -1.97219 -0.408257 0
M  V30 15664 C 1530 -3.44675 -0.374137 0
M  V30 15665 C 1529.06 -4.25572 0.564503 0
M  V30 15666 C 1528.29 -5.33458 -0.160748 0
M  V30 15667 O 1528.52 -5.53349 -1.38423 0
M  V30 15668 O 1527.45 -5.99834 0.498259 0
M  V30 15669 H 1531.28 -2.77444 1.23525 0
M  V30 15670 H 1528.86 -1.33679 0.667106 0
M  V30 15671 H 1530.74 -4.13647 -0.80464 0
M  V30 15672 H 1529.42 -3.00714 -1.19804 0
M  V30 15673 H 1528.33 -3.59232 1.04418 0
M  V30 15674 H 1529.66 -4.73184 1.3549 0
M  V30 15675 N 1531.31 -0.665475 -1.42861 0
M  V30 15676 C 1532.26 0.0186204 -2.30792 0
M  V30 15677 C 1533.23 0.802249 -1.45441 0
M  V30 15678 O 1534.41 0.776383 -1.7429 0
M  V30 15679 C 1531.55 0.970499 -3.31173 0
M  V30 15680 C 1530.67 0.18168 -4.31618 0
M  V30 15681 C 1529.8 1.12846 -5.19075 0
M  V30 15682 C 1528.84 0.330788 -6.11206 0
M  V30 15683 N 1527.98 1.2298 -6.91246 0
M  V30 15684 H 1532.82 -0.737068 -2.88741 0
M  V30 15685 H 1530.35 -0.375225 -1.42234 0
M  V30 15686 H 1532.31 1.53611 -3.87891 0
M  V30 15687 H 1530.94 1.69292 -2.74845 0
M  V30 15688 H 1529.99 -0.500415 -3.77094 0
M  V30 15689 H 1531.31 -0.438041 -4.96873 0
M  V30 15690 H 1530.46 1.76431 -5.8048 0
M  V30 15691 H 1529.2 1.78208 -4.53975 0
M  V30 15692 H 1528.2 -0.318333 -5.48878 0
M  V30 15693 H 1529.43 -0.318599 -6.78352 0
M  V30 15694 H 1527.38 1.86999 -6.28783 0
M  V30 15695 H 1527.29 0.664933 -7.5307 0
M  V30 15696 H 1528.56 1.85341 -7.57145 0
M  V30 15697 N 1532.79 1.52222 -0.408187 0
M  V30 15698 C 1534.03 2.03713 0.167444 0
M  V30 15699 C 1534.39 1.28722 1.42459 0
M  V30 15700 O 1535.59 1.70434 2.0786 0
M  V30 15701 C 1533.87 3.55039 0.410146 0
M  V30 15702 S 1535.42 4.28318 0.953358 0
M  V30 15703 H 1532.24 0.709544 0.0454811 0
M  V30 15704 H 1534.84 1.87281 -0.560888 0
M  V30 15705 H 1533.55 4.07199 -0.511618 0
M  V30 15706 H 1533.08 3.75712 1.16638 0
M  V30 15707 H 1535.09 4.43066 2.23399 0
M  V30 15708 N 1534.27 0.138579 1.5699 0
M  V30 15709 C 1535.2 -0.800568 2.19347 0
M  V30 15710 C 1536.18 -1.26318 1.13921 0
M  V30 15711 O 1537.36 -1.32226 1.42232 0
M  V30 15712 C 1534.49 -2.04317 2.80842 0
M  V30 15713 C 1533.45 -1.71764 3.92022 0
M  V30 15714 C 1532.77 -3.03217 4.40413 0
M  V30 15715 C 1534.07 -0.970789 5.13199 0
M  V30 15716 H 1535.77 -0.280888 2.98079 0
M  V30 15717 H 1533.31 -0.133663 1.43378 0
M  V30 15718 H 1535.27 -2.70491 3.2313 0
M  V30 15719 H 1533.99 -2.58643 1.99428 0
M  V30 15720 H 1532.65 -1.07972 3.50339 0
M  V30 15721 H 1532.3 -3.55517 3.55832 0
M  V30 15722 H 1532 -2.82203 5.15398 0
M  V30 15723 H 1533.52 -3.70477 4.85365 0
M  V30 15724 H 1534.94 -1.53445 5.52384 0
M  V30 15725 H 1533.33 -0.860895 5.93893 0
M  V30 15726 H 1534.4 0.0390088 4.84884 0
M  V30 15727 N 1535.75 -1.57019 -0.13521 0
M  V30 15728 C 1536.69 -1.99148 -1.16657 0
M  V30 15729 C 1537.66 -0.860947 -1.42045 0
M  V30 15730 O 1538.85 -1.12393 -1.54183 0
M  V30 15731 C 1535.99 -2.3872 -2.49212 0
M  V30 15732 C 1535.1 -3.65117 -2.30898 0
M  V30 15733 C 1534.24 -3.9374 -3.5657 0
M  V30 15734 C 1533.27 -5.1337 -3.33343 0
M  V30 15735 N 1532.41 -5.37945 -4.51176 0
M  V30 15736 H 1537.25 -2.87052 -0.800312 0
M  V30 15737 H 1534.79 -1.42007 -0.383705 0
M  V30 15738 H 1536.75 -2.59695 -3.26518 0
M  V30 15739 H 1535.38 -1.53879 -2.83762 0
M  V30 15740 H 1534.43 -3.5185 -1.44588 0
M  V30 15741 H 1535.74 -4.52578 -2.09701 0
M  V30 15742 H 1534.89 -4.15277 -4.423 0
M  V30 15743 H 1533.63 -3.04723 -3.80782 0
M  V30 15744 H 1532.64 -4.91694 -2.46002 0
M  V30 15745 H 1533.86 -6.0395 -3.10517 0
M  V30 15746 H 1531.81 -4.51884 -4.75539 0
M  V30 15747 H 1531.73 -6.19698 -4.33025 0
M  V30 15748 H 1532.99 -5.63989 -5.38086 0
M  V30 15749 N 1537.22 0.404919 -1.52309 0
M  V30 15750 C 1538.19 1.47627 -1.75325 0
M  V30 15751 C 1539.19 1.48234 -0.623153 0
M  V30 15752 O 1540.38 1.49685 -0.891069 0
M  V30 15753 C 1537.51 2.87013 -1.83947 0
M  V30 15754 H 1538.7 1.2851 -2.70971 0
M  V30 15755 H 1536.26 0.635677 -1.42789 0
M  V30 15756 H 1536.99 3.11495 -0.902309 0
M  V30 15757 H 1536.78 2.87974 -2.66108 0
M  V30 15758 H 1538.27 3.64671 -2.03481 0
M  V30 15759 N 1538.7 1.43003 0.662408 0
M  V30 15760 C 1539.63 1.50248 1.78739 0
M  V30 15761 C 1540.61 0.357934 1.66291 0
M  V30 15762 O 1541.8 0.573919 1.85526 0
M  V30 15763 C 1538.93 1.41618 3.17114 0
M  V30 15764 C 1537.88 2.54228 3.44314 0
M  V30 15765 C 1537.21 2.30653 4.82393 0
M  V30 15766 C 1538.51 3.96505 3.39972 0
M  V30 15767 H 1540.2 2.44406 1.72934 0
M  V30 15768 H 1537.75 1.17633 0.830569 0
M  V30 15769 H 1539.7 1.45293 3.9556 0
M  V30 15770 H 1538.43 0.439605 3.23628 0
M  V30 15771 H 1537.08 2.49891 2.68235 0
M  V30 15772 H 1536.73 1.3126 4.85572 0
M  V30 15773 H 1536.43 3.06134 5.01554 0
M  V30 15774 H 1537.96 2.36096 5.63108 0
M  V30 15775 H 1539.37 4.02378 4.08368 0
M  V30 15776 H 1537.77 4.71937 3.70668 0
M  V30 15777 H 1538.84 4.22295 2.38318 0
M  V30 15778 N 1540.18 -0.899904 1.29381 0
M  V30 15779 C 1541.43 -1.64502 1.16713 0
M  V30 15780 C 1541.74 -1.93577 -0.280563 0
M  V30 15781 O 1542.95 -2.66305 -0.528563 0
M  V30 15782 C 1541.4 -2.96414 2.04125 0
M  V30 15783 C 1541.01 -2.74935 3.53716 0
M  V30 15784 C 1542.76 -3.74337 2.0018 0
M  V30 15785 C 1540.66 -4.02571 4.33232 0
M  V30 15786 H 1539.59 -0.617121 0.433218 0
M  V30 15787 H 1542.24 -0.997521 1.54019 0
M  V30 15788 H 1540.63 -3.62375 1.59687 0
M  V30 15789 H 1541.8 -2.17567 4.06203 0
M  V30 15790 H 1540.12 -2.10407 3.5933 0
M  V30 15791 H 1542.71 -4.6897 2.56849 0
M  V30 15792 H 1543.06 -4.04559 0.981735 0
M  V30 15793 H 1543.59 -3.15216 2.4266 0
M  V30 15794 H 1540.33 -3.77516 5.35875 0
M  V30 15795 H 1539.85 -4.59499 3.85514 0
M  V30 15796 H 1541.53 -4.70719 4.43884 0
M  V30 15797 N 1541.66 -1.11854 -1.11024 0
M  V30 15798 C 1542.61 -0.780825 -2.17191 0
M  V30 15799 C 1543.58 0.249657 -1.64213 0
M  V30 15800 O 1544.76 0.125603 -1.90386 0
M  V30 15801 C 1541.9 -0.23491 -3.443 0
M  V30 15802 C 1541.01 -1.32247 -4.1126 0
M  V30 15803 C 1540.15 -0.736638 -5.26068 0
M  V30 15804 C 1539.19 -1.80375 -5.8492 0
M  V30 15805 N 1538.32 -1.23709 -6.91115 0
M  V30 15806 H 1543.16 -1.69031 -2.45423 0
M  V30 15807 H 1540.7 -0.844041 -1.20476 0
M  V30 15808 H 1542.66 0.0996064 -4.17081 0
M  V30 15809 H 1541.29 0.637752 -3.16437 0
M  V30 15810 H 1540.34 -1.77387 -3.36509 0
M  V30 15811 H 1541.65 -2.12965 -4.51051 0
M  V30 15812 H 1540.81 -0.352432 -6.05675 0
M  V30 15813 H 1539.55 0.101811 -4.87594 0
M  V30 15814 H 1538.55 -2.19721 -5.03987 0
M  V30 15815 H 1539.78 -2.64531 -6.2546 0
M  V30 15816 H 1537.72 -0.420357 -6.54652 0
M  V30 15817 H 1537.64 -1.98093 -7.29586 0
M  V30 15818 H 1538.91 -0.879912 -7.74518 0
M  V30 15819 N 1543.14 1.28707 -0.909517 0
M  V30 15820 C 1544.39 1.94437 -0.536401 0
M  V30 15821 C 1544.7 1.72416 0.923685 0
M  V30 15822 O 1545.9 2.32333 1.40477 0
M  V30 15823 C 1544.36 3.48246 -0.908455 0
M  V30 15824 C 1543.97 3.79051 -2.38798 0
M  V30 15825 C 1545.71 4.20156 -0.605721 0
M  V30 15826 C 1543.62 5.2615 -2.70038 0
M  V30 15827 H 1542.55 0.727842 -0.196882 0
M  V30 15828 H 1545.2 1.46283 -1.10786 0
M  V30 15829 H 1543.58 3.95107 -0.265829 0
M  V30 15830 H 1544.76 3.43014 -3.07698 0
M  V30 15831 H 1543.07 3.20303 -2.66074 0
M  V30 15832 H 1545.67 5.28439 -0.815849 0
M  V30 15833 H 1546.01 4.13792 0.456266 0
M  V30 15834 H 1546.54 3.79059 -1.20662 0
M  V30 15835 H 1543.28 5.37587 -3.75073 0
M  V30 15836 H 1542.8 5.63399 -2.05771 0
M  V30 15837 H 1544.48 5.93846 -2.56819 0
M  V30 15838 N 1544.61 0.673042 1.42506 0
M  V30 15839 C 1545.86 0.194864 2.01862 0
M  V30 15840 C 1546.19 -1.19491 1.53087 0
M  V30 15841 O 1545.47 -1.80187 0.732322 0
M  V30 15842 C 1545.75 0.227559 3.5938 0
M  V30 15843 C 1545.6 1.65266 4.18338 0
M  V30 15844 C 1546.92 -0.425197 4.38041 0
M  V30 15845 H 1544.04 0.0722831 0.733447 0
M  V30 15846 H 1546.68 0.857493 1.6955 0
M  V30 15847 H 1544.83 -0.336658 3.87039 0
M  V30 15848 H 1546.51 2.26899 4.0164 0
M  V30 15849 H 1544.75 2.19388 3.74234 0
M  V30 15850 H 1545.42 1.62724 5.2747 0
M  V30 15851 H 1547.9 0.0550709 4.16064 0
M  V30 15852 H 1546.77 -0.371675 5.4764 0
M  V30 15853 H 1547.03 -1.50251 4.15785 0
M  V30 15854 N 1546.09 -1.52004 0.416254 0
M  V30 15855 C 1547.32 -2.0679 -0.158937 0
M  V30 15856 C 1547.74 -1.28366 -1.37491 0
M  V30 15857 O 1547.1 -0.315815 -1.78528 0
M  V30 15858 C 1547.15 -3.57381 -0.480717 0
M  V30 15859 O 1546.25 -3.81321 -1.5706 0
M  V30 15860 H 1545.59 -0.663907 -0.0110938 0
M  V30 15861 H 1548.12 -1.95863 0.591509 0
M  V30 15862 H 1548.13 -4.01283 -0.737297 0
M  V30 15863 H 1546.81 -4.13893 0.408137 0
M  V30 15864 H 1545.39 -3.49296 -1.30563 0
M  V30 15865 N 1547.57 -0.146903 -1.56914 0
M  V30 15866 C 1548.53 0.778709 -2.15566 0
M  V30 15867 C 1549.53 1.1753 -1.09742 0
M  V30 15868 O 1550.72 1.09624 -1.35382 0
M  V30 15869 C 1547.86 2.0567 -2.71869 0
M  V30 15870 H 1549.05 0.268506 -2.98696 0
M  V30 15871 H 1546.6 0.10254 -1.55963 0
M  V30 15872 H 1547.34 2.61057 -1.92405 0
M  V30 15873 H 1547.12 1.78154 -3.4929 0
M  V30 15874 H 1548.61 2.71779 -3.17059 0
M  V30 15875 N 1549.05 1.57088 0.126881 0
M  V30 15876 C 1549.98 1.94951 1.18614 0
M  V30 15877 C 1550.96 0.818067 1.40522 0
M  V30 15878 O 1552.14 1.07553 1.54805 0
M  V30 15879 C 1549.27 2.23893 2.54144 0
M  V30 15880 C 1548.32 3.46475 2.48712 0
M  V30 15881 S 1549.15 4.9934 1.93443 0
M  V30 15882 C 1550.31 5.31426 3.30662 0
M  V30 15883 H 1550.54 2.84492 0.863219 0
M  V30 15884 H 1548.07 1.50759 0.333323 0
M  V30 15885 H 1550.03 2.41247 3.3213 0
M  V30 15886 H 1548.69 1.3498 2.83618 0
M  V30 15887 H 1547.88 3.64067 3.48528 0
M  V30 15888 H 1547.49 3.28467 1.78844 0
M  V30 15889 H 1549.78 5.26125 4.26847 0
M  V30 15890 H 1550.72 6.32726 3.17905 0
M  V30 15891 H 1551.13 4.5891 3.28727 0
M  V30 15892 N 1550.53 -0.396836 1.52522 0
M  V30 15893 C 1551.77 -1.14432 1.67431 0
M  V30 15894 C 1552.11 -1.89842 0.409115 0
M  V30 15895 O 1551.38 -1.85244 -0.592863 0
M  V30 15896 C 1551.66 -2.12889 2.90431 0
M  V30 15897 C 1551.52 -1.41295 4.27031 0
M  V30 15898 C 1552.84 -3.13412 3.08967 0
M  V30 15899 H 1549.95 -0.414643 0.609295 0
M  V30 15900 H 1552.6 -0.428604 1.85103 0
M  V30 15901 H 1550.75 -2.73924 2.75495 0
M  V30 15902 H 1552.42 -0.832848 4.53719 0
M  V30 15903 H 1550.66 -0.714834 4.2787 0
M  V30 15904 H 1551.33 -2.13198 5.09167 0
M  V30 15905 H 1553.81 -2.62462 3.22883 0
M  V30 15906 H 1552.68 -3.79555 3.96522 0
M  V30 15907 H 1552.95 -3.81836 2.22831 0
M  V30 15908 N 1552.01 -1.43353 -0.654814 0
M  V30 15909 C 1553.25 -1.44172 -1.41058 0
M  V30 15910 C 1553.57 -0.0690586 -1.95478 0
M  V30 15911 O 1554.77 0.0453021 -2.71462 0
M  V30 15912 C 1553.23 -2.53701 -2.55272 0
M  V30 15913 C 1552.84 -3.97066 -2.07466 0
M  V30 15914 C 1554.58 -2.63713 -3.3265 0
M  V30 15915 C 1552.49 -4.98065 -3.18881 0
M  V30 15916 H 1551.42 -0.536303 -0.529995 0
M  V30 15917 H 1554.07 -1.69336 -0.706941 0
M  V30 15918 H 1552.45 -2.21736 -3.28099 0
M  V30 15919 H 1553.63 -4.38485 -1.4166 0
M  V30 15920 H 1551.94 -3.91086 -1.42972 0
M  V30 15921 H 1554.54 -3.36346 -4.15663 0
M  V30 15922 H 1554.88 -1.68729 -3.80574 0
M  V30 15923 H 1555.41 -2.94971 -2.66902 0
M  V30 15924 H 1552.15 -5.94596 -2.75927 0
M  V30 15925 H 1551.67 -4.61261 -3.83404 0
M  V30 15926 H 1553.35 -5.20696 -3.84037 0
M  V30 15927 N 1553.48 0.89303 -1.29857 0
M  V30 15928 C 1554.41 2.01422 -1.18117 0
M  V30 15929 C 1555.39 1.6994 -0.0737487 0
M  V30 15930 O 1556.58 1.92527 -0.254387 0
M  V30 15931 C 1553.71 3.36385 -0.863842 0
M  V30 15932 C 1552.66 3.821 -1.92831 0
M  V30 15933 C 1551.99 5.14263 -1.46415 0
M  V30 15934 C 1553.29 4.01699 -3.33819 0
M  V30 15935 H 1554.98 2.11502 -2.11913 0
M  V30 15936 H 1552.53 1.01622 -1.02024 0
M  V30 15937 H 1554.48 4.14335 -0.768397 0
M  V30 15938 H 1553.21 3.26415 0.109816 0
M  V30 15939 H 1551.87 3.06372 -2.01325 0
M  V30 15940 H 1551.51 5.00714 -0.478983 0
M  V30 15941 H 1551.21 5.45821 -2.17609 0
M  V30 15942 H 1552.74 5.94747 -1.38234 0
M  V30 15943 H 1554.15 4.70111 -3.28129 0
M  V30 15944 H 1552.55 4.44621 -4.03029 0
M  V30 15945 H 1553.62 3.05816 -3.76304 0
M  V30 15946 N 1554.96 1.12442 1.10429 0
M  V30 15947 C 1556.21 0.874466 1.81758 0
M  V30 15948 C 1556.52 -0.601487 1.86122 0
M  V30 15949 O 1557.73 -0.968037 2.53656 0
M  V30 15950 C 1556.19 1.51478 3.2647 0
M  V30 15951 C 1555.79 3.02552 3.30403 0
M  V30 15952 C 1557.54 1.34511 4.02625 0
M  V30 15953 C 1555.44 3.59518 4.69575 0
M  V30 15954 H 1554.37 0.323494 0.681078 0
M  V30 15955 H 1557.03 1.35091 1.24188 0
M  V30 15956 H 1555.41 0.966 3.84037 0
M  V30 15957 H 1556.58 3.63924 2.82659 0
M  V30 15958 H 1554.9 3.18917 2.67733 0
M  V30 15959 H 1557.49 1.74492 5.05427 0
M  V30 15960 H 1557.84 0.288788 4.15297 0
M  V30 15961 H 1558.37 1.86311 3.51473 0
M  V30 15962 H 1555.11 4.6491 4.62103 0
M  V30 15963 H 1554.63 3.02922 5.17686 0
M  V30 15964 H 1556.31 3.58581 5.38543 0
M  V30 15965 N 1556.44 -1.28223 0.91633 0
M  V30 15966 C 1557.86 -1.47281 0.614864 0
M  V30 15967 C 1558.06 -1.83197 -0.839111 0
M  V30 15968 O 1557.11 -1.9385 -1.61798 0
M  V30 15969 C 1558.42 -2.57373 1.55498 0
M  V30 15970 C 1559.97 -2.71241 1.56197 0
M  V30 15971 C 1560.45 -3.84479 2.48877 0
M  V30 15972 N 1561.94 -3.91837 2.47019 0
M  V30 15973 C 1562.67 -4.78846 3.15427 0
M  V30 15974 N 1562.17 -5.70427 3.93173 0
M  V30 15975 N 1563.96 -4.72478 3.04501 0
M  V30 15976 H 1556.11 -1.03191 1.85649 0
M  V30 15977 H 1558.38 -0.514213 0.796422 0
M  V30 15978 H 1558.08 -2.37747 2.5917 0
M  V30 15979 H 1557.96 -3.54527 1.28803 0
M  V30 15980 H 1560.34 -2.90254 0.532619 0
M  V30 15981 H 1560.42 -1.74609 1.86937 0
M  V30 15982 H 1560.07 -3.6622 3.51916 0
M  V30 15983 H 1560 -4.80514 2.15439 0
M  V30 15984 H 1562.49 -3.26344 1.90546 0
M  V30 15985 H 1562.8 -6.33653 4.42384 0
M  V30 15986 H 1561.15 -5.70259 3.97278 0
M  V30 15987 H 1564.34 -3.99925 2.43265 0
M  V30 15988 H 1564.51 -5.40073 3.58086 0
M  V30 15989 N 1557.92 -0.68059 -1.42147 0
M  V30 15990 C 1558.87 0.00572503 -2.32599 0
M  V30 15991 C 1559.86 0.784449 -1.50142 0
M  V30 15992 O 1561.07 0.69176 -1.66177 0
M  V30 15993 H 1557.44 0.0206483 -0.751716 0
M  V30 15994 H 1559.41 -0.774447 -2.88175 0
M  V30 15995 C 1558.16 0.939019 -3.3478 0
M  V30 15996 H 1557.48 0.349225 -3.98272 0
M  V30 15997 H 1558.92 1.38782 -4.00644 0
M  V30 15998 C 1557.38 2.04814 -2.67493 0
M  V30 15999 O 1557.91 3.13526 -2.51126 0
M  V30 16000 N 1556.12 1.82153 -2.26426 0
M  V30 16001 H 1555.67 0.93743 -2.39938 0
M  V30 16002 H 1555.62 2.56551 -1.81738 0
M  V30 16003 N 1559.4 1.51781 -0.424309 0
M  V30 16004 C 1560.35 2.24259 0.411339 0
M  V30 16005 C 1561.33 1.25976 1.00094 0
M  V30 16006 O 1562.52 1.51136 0.921238 0
M  V30 16007 C 1559.65 3.07858 1.51917 0
M  V30 16008 C 1558.74 4.13561 0.939599 0
M  V30 16009 N 1559.13 5.05723 0.08803 0
M  V30 16010 C 1557.43 4.29314 1.20855 0
M  V30 16011 C 1558.13 5.81221 -0.236076 0
M  V30 16012 N 1557.1 5.42291 0.376983 0
M  V30 16013 H 1560.9 2.92874 -0.2454 0
M  V30 16014 H 1558.42 1.60682 -0.235612 0
M  V30 16015 H 1560.42 3.58347 2.13056 0
M  V30 16016 H 1559.08 2.40784 2.17837 0
M  V30 16017 H 1560.09 5.17156 -0.277436 0
M  V30 16018 H 1556.76 3.73469 1.86621 0
M  V30 16019 H 1558.15 6.65457 -0.928241 0
M  V30 16020 N 1560.87 0.155222 1.56834 0
M  V30 16021 C 1561.78 -0.794179 2.20749 0
M  V30 16022 C 1562.8 -1.26546 1.19424 0
M  V30 16023 O 1563.98 -1.32094 1.5203 0
M  V30 16024 C 1561.04 -2.01261 2.82303 0
M  V30 16025 C 1560.1 -1.58976 3.98779 0
M  V30 16026 C 1559.33 -2.75011 4.57389 0
M  V30 16027 O 1559.56 -3.91449 4.14879 0
M  V30 16028 O 1558.49 -2.50011 5.4752 0
M  V30 16029 H 1562.32 -0.280064 3.02406 0
M  V30 16030 H 1559.9 -0.0722048 1.49225 0
M  V30 16031 H 1561.78 -2.72551 3.21394 0
M  V30 16032 H 1560.46 -2.51609 2.03653 0
M  V30 16033 H 1559.37 -0.846848 3.64389 0
M  V30 16034 H 1560.7 -1.13336 4.78974 0
M  V30 16035 N 1562.35 -1.57153 -0.118549 0
M  V30 16036 C 1563.63 -1.75846 -0.856587 0
M  V30 16037 C 1564.01 -0.730801 -1.98047 0
M  V30 16038 O 1563.36 0.245156 -2.27181 0
M  V30 16039 C 1563.57 -3.20864 -1.37286 0
M  V30 16040 C 1564.91 -3.83378 -1.82501 0
M  V30 16041 O 1565.94 -3.24469 -1.46964 0
M  V30 16042 O 1564.8 -4.86922 -2.48132 0
M  V30 16043 H 1561.89 -0.72002 -0.406817 0
M  V30 16044 H 1564.44 -1.69392 -0.102254 0
M  V30 16045 H 1563.21 -3.87177 -0.566531 0
M  V30 16046 H 1562.83 -3.31858 -2.18988 0
M  V30 16047 N 1563.83 0.388742 -1.5273 0
M  V30 16048 C 1564.76 1.48133 -1.80496 0
M  V30 16049 C 1565.74 1.56899 -0.657008 0
M  V30 16050 O 1566.93 1.71844 -0.904621 0
M  V30 16051 C 1564.06 2.85742 -1.97405 0
M  V30 16052 C 1563.01 2.91815 -3.13094 0
M  V30 16053 C 1562.34 4.31876 -3.15258 0
M  V30 16054 C 1563.64 2.61438 -4.52159 0
M  V30 16055 H 1565.33 1.25147 -2.7199 0
M  V30 16056 H 1562.88 0.600603 -1.30877 0
M  V30 16057 H 1564.83 3.62182 -2.15412 0
M  V30 16058 H 1563.55 3.10065 -1.02601 0
M  V30 16059 H 1562.21 2.17824 -2.9487 0
M  V30 16060 H 1561.86 4.53239 -2.18135 0
M  V30 16061 H 1561.56 4.3686 -3.92972 0
M  V30 16062 H 1563.08 5.10221 -3.3542 0
M  V30 16063 H 1564.5 3.27596 -4.70483 0
M  V30 16064 H 1562.89 2.77771 -5.31943 0
M  V30 16065 H 1563.96 1.56778 -4.58856 0
M  V30 16066 N 1565.31 1.43698 0.647203 0
M  V30 16067 C 1566.56 1.44918 1.40292 0
M  V30 16068 C 1566.87 0.0794243 1.95439 0
M  V30 16069 O 1568.08 -0.0309052 2.71482 0
M  V30 16070 C 1566.53 2.55052 2.53923 0
M  V30 16071 C 1566.14 3.98161 2.05357 0
M  V30 16072 C 1567.88 2.65473 3.31246 0
M  V30 16073 C 1565.79 4.99749 3.16235 0
M  V30 16074 H 1564.72 0.539106 0.527144 0
M  V30 16075 H 1567.37 1.69708 0.697951 0
M  V30 16076 H 1565.75 2.23473 3.26919 0
M  V30 16077 H 1566.93 4.3923 1.39333 0
M  V30 16078 H 1565.24 3.91839 1.40896 0
M  V30 16079 H 1567.84 3.38546 4.13873 0
M  V30 16080 H 1568.18 1.70745 3.79673 0
M  V30 16081 H 1568.72 2.96383 2.65334 0
M  V30 16082 H 1565.45 5.96051 2.7277 0
M  V30 16083 H 1564.97 4.63288 3.80952 0
M  V30 16084 H 1566.65 5.22725 3.81271 0
M  V30 16085 N 1566.79 -0.886131 1.30328 0
M  V30 16086 C 1568.01 -1.67099 1.22007 0
M  V30 16087 C 1568.43 -1.87546 -0.217255 0
M  V30 16088 O 1567.79 -1.42213 -1.14375 0
M  V30 16089 C 1567.84 -3.048 1.94368 0
M  V30 16090 O 1567.56 -2.85277 3.32489 0
M  V30 16091 C 1569.06 -3.99231 1.9269 0
M  V30 16092 H 1566.28 -0.521467 0.422271 0
M  V30 16093 H 1568.82 -1.1072 1.71934 0
M  V30 16094 H 1566.98 -3.57915 1.48242 0
M  V30 16095 H 1567.39 -3.72626 3.69121 0
M  V30 16096 H 1568.87 -4.93223 2.47861 0
M  V30 16097 H 1569.34 -4.29763 0.905558 0
M  V30 16098 H 1569.95 -3.52051 2.38621 0
M  V30 16099 N 1568.26 -1.13026 -1.09832 0
M  V30 16100 C 1569.51 -0.890736 -1.82191 0
M  V30 16101 C 1569.84 0.581818 -1.8528 0
M  V30 16102 O 1569.12 1.43037 -1.31798 0
M  V30 16103 C 1569.4 -1.47403 -3.28549 0
M  V30 16104 C 1569.25 -3.0154 -3.33757 0
M  V30 16105 C 1570.57 -1.13876 -4.25112 0
M  V30 16106 H 1567.69 -0.325028 -0.661457 0
M  V30 16107 H 1570.33 -1.39787 -1.28684 0
M  V30 16108 H 1568.48 -1.04272 -3.74245 0
M  V30 16109 H 1570.16 -3.53395 -2.96495 0
M  V30 16110 H 1568.4 -3.36746 -2.73467 0
M  V30 16111 H 1569.07 -3.37449 -4.36843 0
M  V30 16112 H 1571.55 -1.51139 -3.87681 0
M  V30 16113 H 1570.42 -1.57343 -5.25865 0
M  V30 16114 H 1570.68 -0.051854 -4.4207 0
M  V30 16115 N 1569.74 1.27735 -0.923117 0
M  V30 16116 C 1570.97 1.98682 -0.577317 0
M  V30 16117 C 1571.39 1.68904 0.843608 0
M  V30 16118 O 1570.74 0.947021 1.56006 0
M  V30 16119 C 1570.79 3.52804 -0.788144 0
M  V30 16120 O 1570.51 3.81537 -2.15316 0
M  V30 16121 C 1572.02 4.41006 -0.450437 0
M  V30 16122 H 1569.24 0.634186 -0.2192 0
M  V30 16123 H 1571.78 1.62702 -1.23888 0
M  V30 16124 H 1569.93 3.87012 -0.173441 0
M  V30 16125 H 1570.35 4.76142 -2.19976 0
M  V30 16126 H 1571.82 5.48175 -0.648674 0
M  V30 16127 H 1572.3 4.3489 0.613806 0
M  V30 16128 H 1572.91 4.1231 -1.04308 0
M  V30 16129 N 1571.22 0.688118 1.41784 0
M  V30 16130 C 1572.18 0.0271411 2.29184 0
M  V30 16131 C 1573.18 -0.715537 1.44002 0
M  V30 16132 O 1574.37 -0.551542 1.65238 0
M  V30 16133 C 1571.51 -0.97206 3.26747 0
M  V30 16134 H 1572.7 0.79658 2.89127 0
M  V30 16135 H 1570.25 0.451198 1.49646 0
M  V30 16136 H 1570.99 -1.76953 2.71769 0
M  V30 16137 H 1570.77 -0.442746 3.89592 0
M  V30 16138 H 1572.26 -1.43256 3.92259 0
M  V30 16139 N 1572.7 -1.51554 0.432352 0
M  V30 16140 C 1573.93 -2.06462 -0.1346 0
M  V30 16141 C 1574.34 -1.30027 -1.36889 0
M  V30 16142 O 1573.7 -0.358447 -1.78945 0
M  V30 16143 C 1573.75 -3.58538 -0.461822 0
M  V30 16144 O 1573.47 -4.32085 0.723471 0
M  V30 16145 C 1574.97 -4.29943 -1.07999 0
M  V30 16146 H 1572.19 -0.670923 -0.0101329 0
M  V30 16147 H 1574.74 -1.9519 0.609999 0
M  V30 16148 H 1572.89 -3.6974 -1.15632 0
M  V30 16149 H 1573.3 -5.22611 0.444757 0
M  V30 16150 H 1574.78 -5.37451 -1.25898 0
M  V30 16151 H 1575.26 -3.87912 -2.05963 0
M  V30 16152 H 1575.86 -4.23171 -0.425022 0
M  V30 16153 N 1574.18 -0.163538 -1.56749 0
M  V30 16154 C 1575.11 0.765571 -2.20593 0
M  V30 16155 C 1576.09 1.24489 -1.15916 0
M  V30 16156 O 1577.27 1.29946 -1.44318 0
M  V30 16157 C 1574.4 1.99823 -2.84057 0
M  V30 16158 C 1573.36 1.65506 -3.94705 0
M  V30 16159 C 1572.68 2.96172 -4.45181 0
M  V30 16160 C 1573.98 0.88902 -5.14678 0
M  V30 16161 H 1575.68 0.233431 -2.98489 0
M  V30 16162 H 1573.22 0.110836 -1.43573 0
M  V30 16163 H 1575.18 2.65316 -3.27392 0
M  V30 16164 H 1573.9 2.55437 -2.03517 0
M  V30 16165 H 1572.56 1.02384 -3.52013 0
M  V30 16166 H 1572.21 3.49811 -3.61443 0
M  V30 16167 H 1571.91 2.73968 -5.19823 0
M  V30 16168 H 1573.43 3.62708 -4.91198 0
M  V30 16169 H 1574.84 1.44637 -5.54755 0
M  V30 16170 H 1573.24 0.766302 -5.95187 0
M  V30 16171 H 1574.31 -0.116145 -4.84761 0
M  V30 16172 N 1575.65 1.57214 0.110213 0
M  V30 16173 C 1576.62 2.00034 1.11888 0
M  V30 16174 C 1577.62 0.891697 1.33811 0
M  V30 16175 O 1578.81 1.15754 1.3018 0
M  V30 16176 C 1575.94 2.34806 2.47142 0
M  V30 16177 H 1577.13 2.90354 0.750647 0
M  V30 16178 H 1574.69 1.5222 0.35479 0
M  V30 16179 H 1575.42 1.47393 2.8887 0
M  V30 16180 H 1575.21 3.15671 2.32581 0
M  V30 16181 H 1576.7 2.68644 3.19719 0
M  V30 16182 N 1577.13 -0.380637 1.52934 0
M  V30 16183 C 1578.06 -1.47174 1.81279 0
M  V30 16184 C 1579.04 -1.56549 0.665319 0
M  V30 16185 O 1580.23 -1.71362 0.913722 0
M  V30 16186 C 1577.36 -2.84691 1.98918 0
M  V30 16187 C 1576.31 -2.90151 3.14637 0
M  V30 16188 C 1575.64 -4.30198 3.17544 0
M  V30 16189 C 1576.94 -2.59037 4.53539 0
M  V30 16190 H 1578.63 -1.23703 2.7265 0
M  V30 16191 H 1576.18 -0.593654 1.31194 0
M  V30 16192 H 1578.13 -3.61034 2.1733 0
M  V30 16193 H 1576.86 -3.09517 1.04244 0
M  V30 16194 H 1575.51 -2.16257 2.96021 0
M  V30 16195 H 1575.16 -4.52076 2.20536 0
M  V30 16196 H 1574.86 -4.3477 3.95284 0
M  V30 16197 H 1576.39 -5.08435 3.38121 0
M  V30 16198 H 1577.8 -3.25096 4.72214 0
M  V30 16199 H 1576.2 -2.74946 5.33408 0
M  V30 16200 H 1577.27 -1.54342 4.59681 0
M  V30 16201 N 1578.61 -1.44039 -0.639573 0
M  V30 16202 C 1579.86 -1.4566 -1.39521 0
M  V30 16203 C 1580.17 -0.0897878 -1.95394 0
M  V30 16204 O 1581.38 0.0165074 -2.71495 0
M  V30 16205 C 1579.83 -2.56395 -2.52566 0
M  V30 16206 C 1579.44 -3.99245 -2.03243 0
M  V30 16207 C 1581.19 -2.67226 -3.29834 0
M  V30 16208 C 1579.09 -5.01419 -3.1358 0
M  V30 16209 H 1578.02 -0.541894 -0.524277 0
M  V30 16210 H 1580.67 -1.70076 -0.688941 0
M  V30 16211 H 1579.06 -2.25204 -3.25729 0
M  V30 16212 H 1580.23 -4.39963 -1.37002 0
M  V30 16213 H 1578.55 -3.9258 -1.38816 0
M  V30 16214 H 1581.14 -3.40736 -4.12072 0
M  V30 16215 H 1581.49 -1.72756 -3.78763 0
M  V30 16216 H 1582.02 -2.97786 -2.63758 0
M  V30 16217 H 1578.76 -5.97489 -2.69605 0
M  V30 16218 H 1578.28 -4.65301 -3.7849 0
M  V30 16219 H 1579.96 -5.2474 -3.78493 0
M  V30 16220 N 1580.09 0.879207 -1.30796 0
M  V30 16221 C 1581.34 1.62828 -1.19715 0
M  V30 16222 C 1581.66 1.93429 0.247031 0
M  V30 16223 O 1580.93 1.57478 1.16522 0
M  V30 16224 H 1579.51 0.603607 -0.440077 0
M  V30 16225 H 1582.17 1.05309 -1.64 0
M  V30 16226 H 1581.27 2.57591 -1.76219 0
M  V30 16227 N 1581.57 1.13606 1.09231 0
M  V30 16228 C 1582.81 0.909321 1.83059 0
M  V30 16229 C 1583.17 -0.554485 1.83819 0
M  V30 16230 O 1584.37 -0.898864 2.53326 0
M  V30 16231 C 1582.64 1.4835 3.25157 0
M  V30 16232 S 1584.2 1.3971 4.15964 0
M  V30 16233 H 1581.02 0.327715 0.630971 0
M  V30 16234 H 1583.62 1.44796 1.31355 0
M  V30 16235 H 1582.33 2.54219 3.22181 0
M  V30 16236 H 1581.86 0.942887 3.81934 0
M  V30 16237 H 1583.87 0.37691 4.94766 0
M  V30 16238 N 1583.05 -1.27244 0.929878 0
M  V30 16239 C 1584.27 -1.98912 0.587277 0
M  V30 16240 C 1584.7 -1.68888 -0.828168 0
M  V30 16241 O 1584.05 -0.930394 -1.55606 0
M  V30 16242 C 1584.1 -3.51097 0.822399 0
M  V30 16243 O 1583.21 -4.12251 -0.110968 0
M  V30 16244 H 1582.55 -0.624404 0.225867 0
M  V30 16245 H 1585.08 -1.61997 1.24973 0
M  V30 16246 H 1585.09 -4.01255 0.738824 0
M  V30 16247 H 1583.76 -3.72282 1.85416 0
M  V30 16248 H 1582.34 -3.72893 0.0227053 0
M  V30 16249 N 1584.52 -0.695628 -1.41417 0
M  V30 16250 C 1585.49 -0.0392949 -2.29166 0
M  V30 16251 C 1586.49 0.70789 -1.4438 0
M  V30 16252 O 1587.68 0.542771 -1.65528 0
M  V30 16253 C 1584.81 0.954719 -3.27258 0
M  V30 16254 H 1586 -0.811902 -2.88701 0
M  V30 16255 H 1583.55 -0.459128 -1.49405 0
M  V30 16256 H 1584.29 1.75509 -2.72703 0
M  V30 16257 H 1584.07 0.422079 -3.89822 0
M  V30 16258 H 1585.56 1.41174 -3.93014 0
M  V30 16259 N 1586 1.51322 -0.440383 0
M  V30 16260 C 1587.23 2.07017 0.126018 0
M  V30 16261 C 1587.65 1.30537 1.35431 0
M  V30 16262 O 1587.01 0.344178 1.78003 0
M  V30 16263 C 1587.06 3.58101 0.4238 0
M  V30 16264 O 1586.16 3.83772 1.50973 0
M  V30 16265 H 1585.5 0.664 0.000530178 0
M  V30 16266 H 1588.03 1.94897 -0.622594 0
M  V30 16267 H 1588.04 4.02405 0.673363 0
M  V30 16268 H 1586.72 4.13191 -0.473932 0
M  V30 16269 H 1585.29 3.51329 1.24989 0
M  V30 16270 N 1587.48 0.171848 1.5666 0
M  V30 16271 C 1588.89 -0.34479 1.83489 0
M  V30 16272 C 1589.24 -1.63025 1.09167 0
M  V30 16273 O 1588.37 -2.13634 0.34488 0
M  V30 16274 C 1588.96 -0.63234 3.32847 0
M  V30 16275 C 1587.52 -1.09342 3.60169 0
M  V30 16276 C 1586.67 -0.129569 2.76997 0
M  V30 16277 H 1589.62 0.396101 1.53677 0
M  V30 16278 H 1589.64 -1.48434 3.50354 0
M  V30 16279 H 1589.15 0.303409 3.86912 0
M  V30 16280 H 1587.25 -2.04425 3.11514 0
M  V30 16281 H 1587.37 -1.00221 4.685 0
M  V30 16282 H 1585.73 -0.627033 2.46861 0
M  V30 16283 H 1586.51 0.800211 3.33844 0
M  V30 16284 N 1588.96 -1.5727 -0.101874 0
M  V30 16285 C 1590.2 -1.8689 -0.802716 0
M  V30 16286 C 1590.56 -0.761823 -1.76675 0
M  V30 16287 O 1589.85 0.236765 -1.90131 0
M  V30 16288 C 1590.05 -3.20773 -1.57605 0
M  V30 16289 C 1589.87 -4.444 -0.688408 0
M  V30 16290 C 1588.64 -5.04177 -0.336714 0
M  V30 16291 C 1590.84 -5.143 0.00161589 0
M  V30 16292 N 1588.82 -6.11342 0.559799 0
M  V30 16293 C 1590.2 -6.15368 0.756459 0
M  V30 16294 C 1592.25 -4.97842 0.0762464 0
M  V30 16295 C 1590.95 -7.01756 1.57895 0
M  V30 16296 C 1592.98 -5.84731 0.885614 0
M  V30 16297 C 1592.34 -6.85315 1.6286 0
M  V30 16298 H 1588.44 -0.733867 -0.270118 0
M  V30 16299 H 1591.02 -1.9459 -0.0655739 0
M  V30 16300 H 1589.2 -3.14138 -2.28411 0
M  V30 16301 H 1590.93 -3.38142 -2.22356 0
M  V30 16302 H 1587.68 -4.68651 -0.682844 0
M  V30 16303 H 1588.11 -6.69568 1.00041 0
M  V30 16304 H 1592.75 -4.20023 -0.483829 0
M  V30 16305 H 1590.47 -7.78971 2.15012 0
M  V30 16306 H 1594.05 -5.74058 0.945944 0
M  V30 16307 H 1592.93 -7.51384 2.2448 0
M  V30 16308 N 1590.44 0.372521 -1.53134 0
M  V30 16309 C 1591.37 1.4759 -1.75357 0
M  V30 16310 C 1592.38 1.49938 -0.634223 0
M  V30 16311 O 1593.57 1.53543 -0.910322 0
M  V30 16312 C 1590.67 2.86382 -1.81214 0
M  V30 16313 C 1589.84 3.0781 -3.1076 0
M  V30 16314 C 1588.9 4.26677 -3.07949 0
M  V30 16315 O 1587.93 4.22186 -3.81769 0
M  V30 16316 N 1589.13 5.33729 -2.28283 0
M  V30 16317 H 1591.89 1.28908 -2.7056 0
M  V30 16318 H 1589.46 0.562186 -1.51826 0
M  V30 16319 H 1591.45 3.64029 -1.7682 0
M  V30 16320 H 1590.02 2.98344 -0.933249 0
M  V30 16321 H 1589.24 2.17884 -3.28512 0
M  V30 16322 H 1590.53 3.18991 -3.96386 0
M  V30 16323 H 1589.92 5.40238 -1.67806 0
M  V30 16324 H 1588.48 6.09979 -2.29714 0
M  V30 16325 N 1591.91 1.44376 0.631925 0
M  V30 16326 C 1593.16 1.48329 1.39176 0
M  V30 16327 C 1593.51 0.113879 1.92063 0
M  V30 16328 O 1592.81 -0.870764 1.7067 0
M  V30 16329 C 1593 2.47828 2.57519 0
M  V30 16330 C 1592.83 3.94309 2.16218 0
M  V30 16331 C 1591.6 4.62495 2.03534 0
M  V30 16332 C 1593.8 4.83546 1.75179 0
M  V30 16333 N 1591.78 5.93804 1.55788 0
M  V30 16334 C 1593.15 6.04293 1.38672 0
M  V30 16335 C 1595.21 4.70618 1.62553 0
M  V30 16336 C 1593.91 7.13546 0.908012 0
M  V30 16337 C 1595.94 5.79895 1.16086 0
M  V30 16338 C 1595.3 6.99782 0.805289 0
M  V30 16339 H 1591.4 0.597818 0.504121 0
M  V30 16340 H 1593.98 1.80697 0.725026 0
M  V30 16341 H 1592.15 2.17452 3.21822 0
M  V30 16342 H 1593.88 2.42082 3.24312 0
M  V30 16343 H 1590.64 4.17298 2.23963 0
M  V30 16344 H 1591.06 6.63562 1.34216 0
M  V30 16345 H 1595.7 3.78367 1.88675 0
M  V30 16346 H 1593.42 8.05607 0.634297 0
M  V30 16347 H 1597.01 5.71918 1.06776 0
M  V30 16348 H 1595.89 7.82901 0.451239 0
M  V30 16349 N 1593.39 -0.872258 1.31261 0
M  V30 16350 C 1594.32 -1.99517 1.21306 0
M  V30 16351 C 1595.3 -1.69801 0.100775 0
M  V30 16352 O 1596.49 -1.92098 0.284984 0
M  V30 16353 C 1593.62 -3.34968 0.917249 0
M  V30 16354 C 1592.57 -3.78984 1.98885 0
M  V30 16355 C 1591.9 -5.11869 1.54578 0
M  V30 16356 C 1593.2 -3.96338 3.40167 0
M  V30 16357 H 1594.89 -2.08104 2.15251 0
M  V30 16358 H 1592.44 -0.999865 1.03628 0
M  V30 16359 H 1594.39 -4.1306 0.834217 0
M  V30 16360 H 1593.11 -3.26549 -0.0578721 0
M  V30 16361 H 1591.77 -3.0313 2.06174 0
M  V30 16362 H 1591.42 -4.99889 0.558581 0
M  V30 16363 H 1591.12 -5.4229 2.26265 0
M  V30 16364 H 1592.65 -5.92472 1.47678 0
M  V30 16365 H 1594.06 -4.64831 3.35566 0
M  V30 16366 H 1592.46 -4.38153 4.10051 0
M  V30 16367 H 1593.53 -2.9979 3.81122 0
M  V30 16368 N 1594.87 -1.14184 -1.08627 0
M  V30 16369 C 1595.82 -0.826718 -2.15486 0
M  V30 16370 C 1596.79 0.214769 -1.64706 0
M  V30 16371 O 1597.97 0.0851909 -1.9061 0
M  V30 16372 C 1595.11 -0.307888 -3.43724 0
M  V30 16373 C 1594.22 -1.40941 -4.08362 0
M  V30 16374 C 1593.36 -0.848059 -5.24387 0
M  V30 16375 C 1592.4 -1.92741 -5.80962 0
M  V30 16376 N 1591.54 -1.3834 -6.88336 0
M  V30 16377 H 1596.38 -1.74198 -2.41783 0
M  V30 16378 H 1593.91 -0.869406 -1.18658 0
M  V30 16379 H 1595.87 0.0111149 -4.17199 0
M  V30 16380 H 1594.5 0.570488 -3.17719 0
M  V30 16381 H 1593.55 -1.84485 -3.3267 0
M  V30 16382 H 1594.86 -2.22485 -4.46433 0
M  V30 16383 H 1594.02 -0.480826 -6.04792 0
M  V30 16384 H 1592.76 -0.00163783 -4.877 0
M  V30 16385 H 1591.76 -2.30362 -4.99213 0
M  V30 16386 H 1592.99 -2.77738 -6.19708 0
M  V30 16387 H 1590.93 -0.559124 -6.53613 0
M  V30 16388 H 1590.85 -2.13524 -7.2522 0
M  V30 16389 H 1592.12 -1.044 -7.72477 0
M  V30 16390 N 1596.35 1.26749 -0.936613 0
M  V30 16391 C 1597.57 1.98597 -0.597817 0
M  V30 16392 C 1598 1.69324 0.8192 0
M  V30 16393 O 1597.36 0.938634 1.55111 0
M  V30 16394 C 1597.4 3.50656 -0.841007 0
M  V30 16395 O 1596.51 4.12304 0.0891038 0
M  V30 16396 H 1595.85 0.623197 -0.229176 0
M  V30 16397 H 1598.38 1.61332 -1.2583 0
M  V30 16398 H 1598.39 4.00857 -0.760093 0
M  V30 16399 H 1597.06 3.71293 -1.87388 0
M  V30 16400 H 1595.64 3.72876 -0.0424804 0
M  V30 16401 N 1597.83 0.703118 1.41046 0
M  V30 16402 C 1598.77 0.0425767 2.30761 0
M  V30 16403 C 1599.74 -0.763406 1.47517 0
M  V30 16404 O 1600.93 -0.7299 1.76287 0
M  V30 16405 C 1598.07 -0.882353 3.33629 0
M  V30 16406 C 1597.18 -0.0671799 4.31948 0
M  V30 16407 C 1596.32 -0.990443 5.21885 0
M  V30 16408 C 1595.36 -0.168622 6.11868 0
M  V30 16409 N 1594.49 -1.04609 6.94263 0
M  V30 16410 H 1599.33 0.813363 2.86685 0
M  V30 16411 H 1596.87 0.412804 1.41189 0
M  V30 16412 H 1598.83 -1.43273 3.91827 0
M  V30 16413 H 1597.46 -1.61946 2.79237 0
M  V30 16414 H 1596.51 0.600219 3.75635 0
M  V30 16415 H 1597.82 0.569624 4.95537 0
M  V30 16416 H 1596.98 -1.60979 5.84954 0
M  V30 16417 H 1595.71 -1.66109 4.5854 0
M  V30 16418 H 1594.72 0.463746 5.47841 0
M  V30 16419 H 1595.94 0.49834 6.77269 0
M  V30 16420 H 1593.89 -1.70262 6.33519 0
M  V30 16421 H 1593.81 -0.465036 7.54568 0
M  V30 16422 H 1595.08 -1.65201 7.61793 0
M  V30 16423 N 1599.3 -1.51086 0.448402 0
M  V30 16424 C 1600.55 -2.02476 -0.114511 0
M  V30 16425 C 1600.88 -1.33126 -1.4139 0
M  V30 16426 O 1600.16 -0.449665 -1.89231 0
M  V30 16427 C 1600.44 -3.58659 -0.321842 0
M  V30 16428 C 1600.29 -4.38612 0.996975 0
M  V30 16429 C 1601.61 -4.26473 -1.08667 0
M  V30 16430 H 1598.73 -0.735906 -0.0401431 0
M  V30 16431 H 1601.37 -1.80622 0.589563 0
M  V30 16432 H 1599.52 -3.77411 -0.92157 0
M  V30 16433 H 1601.2 -4.31484 1.63154 0
M  V30 16434 H 1599.44 -4.03255 1.599 0
M  V30 16435 H 1600.11 -5.46087 0.805817 0
M  V30 16436 H 1602.59 -4.12058 -0.578559 0
M  V30 16437 H 1601.46 -5.35611 -1.20051 0
M  V30 16438 H 1601.72 -3.88086 -2.11758 0
M  V30 16439 N 1600.78 -0.180154 -1.56567 0
M  V30 16440 C 1602.02 0.464869 -1.99044 0
M  V30 16441 C 1602.39 1.59822 -1.06399 0
M  V30 16442 O 1603.59 2.30641 -1.38052 0
M  V30 16443 C 1601.86 0.927227 -3.45163 0
M  V30 16444 S 1603.42 1.57219 -4.09668 0
M  V30 16445 H 1600.24 0.149215 -0.695166 0
M  V30 16446 H 1602.84 -0.279699 -1.93489 0
M  V30 16447 H 1601.54 0.0920814 -4.10297 0
M  V30 16448 H 1601.07 1.70562 -3.54503 0
M  V30 16449 H 1603.09 2.86059 -4.05444 0
M  V30 16450 N 1602.26 1.57322 0.0935319 0
M  V30 16451 C 1603.49 1.90754 0.814111 0
M  V30 16452 C 1603.91 0.774571 1.71412 0
M  V30 16453 O 1603.27 -0.273775 1.79221 0
M  V30 16454 C 1603.32 3.23055 1.60211 0
M  V30 16455 O 1602.42 3.10755 2.71118 0
M  V30 16456 H 1601.76 0.625237 0.223552 0
M  V30 16457 H 1604.29 2.04486 0.068288 0
M  V30 16458 H 1604.3 3.56401 1.986 0
M  V30 16459 H 1602.98 4.05101 0.941607 0
M  V30 16460 H 1601.55 2.88926 2.35745 0
M  V30 16461 N 1603.74 -0.364395 1.53329 0
M  V30 16462 C 1604.97 -1.12586 1.73228 0
M  V30 16463 C 1605.38 -1.83482 0.461614 0
M  V30 16464 O 1604.72 -1.74459 -0.575295 0
M  V30 16465 C 1604.78 -2.1994 2.84371 0
M  V30 16466 C 1604.45 -1.688 4.24683 0
M  V30 16467 C 1605.44 -1.15145 5.06989 0
M  V30 16468 C 1603.13 -1.74277 4.71097 0
M  V30 16469 C 1605.12 -0.676447 6.338 0
M  V30 16470 C 1602.81 -1.26389 5.97887 0
M  V30 16471 C 1603.81 -0.731632 6.7907 0
M  V30 16472 O 1603.49 -0.259825 8.0348 0
M  V30 16473 H 1603.23 -0.342514 0.582804 0
M  V30 16474 H 1605.78 -0.428832 2.00874 0
M  V30 16475 H 1604.01 -2.9314 2.52202 0
M  V30 16476 H 1605.7 -2.81489 2.92436 0
M  V30 16477 H 1606.47 -1.10251 4.72303 0
M  V30 16478 H 1602.34 -2.14647 4.0798 0
M  V30 16479 H 1605.89 -0.260327 6.97114 0
M  V30 16480 H 1601.79 -1.30977 6.32072 0
M  V30 16481 H 1602.55 -0.379044 8.17622 0
M  V30 16482 N 1605.22 -1.44709 -0.62426 0
M  V30 16483 C 1606.46 -1.47853 -1.38368 0
M  V30 16484 C 1606.79 -0.113769 -1.94167 0
M  V30 16485 O 1606.05 0.88538 -1.74527 0
M  V30 16486 C 1606.35 -2.4919 -2.56201 0
M  V30 16487 C 1606.01 -3.94339 -2.1865 0
M  V30 16488 C 1604.67 -4.33865 -2.08122 0
M  V30 16489 C 1607.03 -4.85689 -1.89091 0
M  V30 16490 C 1604.35 -5.62658 -1.66233 0
M  V30 16491 C 1606.71 -6.14877 -1.48693 0
M  V30 16492 C 1605.37 -6.5335 -1.36711 0
M  V30 16493 H 1604.64 -0.541034 -0.506324 0
M  V30 16494 H 1607.29 -1.77962 -0.707235 0
M  V30 16495 H 1605.59 -2.1259 -3.29109 0
M  V30 16496 H 1607.29 -2.48867 -3.1443 0
M  V30 16497 H 1603.88 -3.63072 -2.27764 0
M  V30 16498 H 1608.06 -4.55902 -1.96131 0
M  V30 16499 H 1603.32 -5.91278 -1.55565 0
M  V30 16500 H 1607.49 -6.85115 -1.24861 0
M  V30 16501 H 1605.12 -7.53049 -1.04025 0
M  V30 16502 N 1606.69 0.865285 -1.31722 0
M  V30 16503 C 1607.63 1.97919 -1.15588 0
M  V30 16504 C 1608.64 1.6253 -0.0936929 0
M  V30 16505 O 1609.83 1.752 -0.341639 0
M  V30 16506 C 1606.93 3.30614 -0.744814 0
M  V30 16507 C 1606.1 3.94314 -1.89301 0
M  V30 16508 C 1605.16 5.0533 -1.46724 0
M  V30 16509 O 1604.19 5.25898 -2.17762 0
M  V30 16510 N 1605.39 5.794 -0.357262 0
M  V30 16511 H 1608.15 2.12304 -2.11535 0
M  V30 16512 H 1605.71 1.03953 -1.24118 0
M  V30 16513 H 1607.71 4.02273 -0.442594 0
M  V30 16514 H 1606.28 3.12357 0.123186 0
M  V30 16515 H 1605.5 3.15577 -2.3623 0
M  V30 16516 H 1606.78 4.33609 -2.66196 0
M  V30 16517 H 1606.18 5.65215 0.23423 0
M  V30 16518 H 1604.74 6.51699 -0.114599 0
M  V30 16519 N 1608.17 1.14759 1.0802 0
M  V30 16520 C 1609.42 0.919609 1.80751 0
M  V30 16521 C 1609.75 -0.552268 1.86182 0
M  V30 16522 O 1609.03 -1.40922 1.34057 0
M  V30 16523 C 1609.31 1.52611 3.26162 0
M  V30 16524 C 1609.16 3.06811 3.28918 0
M  V30 16525 C 1610.48 1.20625 4.23246 0
M  V30 16526 H 1607.6 0.33551 0.656203 0
M  V30 16527 H 1610.24 1.41816 1.26444 0
M  V30 16528 H 1608.39 1.10213 3.72539 0
M  V30 16529 H 1610.06 3.58068 2.90835 0
M  V30 16530 H 1608.31 3.41055 2.68075 0
M  V30 16531 H 1608.98 3.44357 4.31419 0
M  V30 16532 H 1611.45 1.57287 3.85227 0
M  V30 16533 H 1610.33 1.65689 5.23296 0
M  V30 16534 H 1610.59 0.122177 4.41931 0
M  V30 16535 N 1609.65 -1.26251 0.943322 0
M  V30 16536 C 1611.06 -1.75591 0.634391 0
M  V30 16537 C 1611.41 -1.76812 -0.850406 0
M  V30 16538 O 1610.54 -1.38162 -1.66554 0
M  V30 16539 C 1611.13 -3.18871 1.14484 0
M  V30 16540 C 1609.69 -3.65817 0.886285 0
M  V30 16541 C 1608.84 -2.4523 1.2945 0
M  V30 16542 H 1611.79 -1.12297 1.12139 0
M  V30 16543 H 1611.81 -3.77205 0.499654 0
M  V30 16544 H 1611.32 -3.17951 2.22551 0
M  V30 16545 H 1609.42 -3.72165 -0.179913 0
M  V30 16546 H 1609.54 -4.54523 1.5148 0
M  V30 16547 H 1607.9 -2.44519 0.712919 0
M  V30 16548 H 1608.68 -2.47009 2.38415 0
M  V30 16549 N 1611.13 -0.710588 -1.40671 0
M  V30 16550 C 1612.06 -0.00399749 -2.282 0
M  V30 16551 C 1613.04 0.772757 -1.43064 0
M  V30 16552 O 1614.22 0.760441 -1.72481 0
M  V30 16553 C 1611.35 1.00173 -3.23548 0
M  V30 16554 C 1610.4 0.316378 -4.25325 0
M  V30 16555 S 1611.23 -0.952126 -5.26968 0
M  V30 16556 C 1612.39 0.0516252 -6.25879 0
M  V30 16557 H 1612.62 -0.746334 -2.8778 0
M  V30 16558 H 1610.15 -0.50142 -1.46031 0
M  V30 16559 H 1612.11 1.57679 -3.79009 0
M  V30 16560 H 1610.77 1.71674 -2.63034 0
M  V30 16561 H 1609.96 1.07649 -4.92369 0
M  V30 16562 H 1609.57 -0.185995 -3.73537 0
M  V30 16563 H 1611.86 0.900088 -6.71494 0
M  V30 16564 H 1612.8 -0.585297 -7.05677 0
M  V30 16565 H 1613.21 0.413117 -5.62986 0
M  V30 16566 N 1612.61 1.50847 -0.456408 0
M  V30 16567 C 1613.57 2.26755 0.33388 0
M  V30 16568 C 1614.57 1.30947 0.933247 0
M  V30 16569 O 1615.76 1.54499 0.804716 0
M  V30 16570 C 1612.89 3.07378 1.47417 0
M  V30 16571 H 1614.09 2.98061 -0.331634 0
M  V30 16572 H 1611.64 1.54882 -0.210067 0
M  V30 16573 H 1612.37 2.40534 2.17518 0
M  V30 16574 H 1612.16 3.7777 1.05036 0
M  V30 16575 H 1613.65 3.64826 2.03204 0
M  V30 16576 N 1614.09 0.188454 1.56469 0
M  V30 16577 C 1615.02 -0.766806 2.15992 0
M  V30 16578 C 1616.03 -1.18153 1.11998 0
M  V30 16579 O 1617.22 -1.11842 1.39118 0
M  V30 16580 C 1614.32 -2.04594 2.70175 0
M  V30 16581 C 1613.49 -1.79207 3.99003 0
M  V30 16582 C 1612.55 -2.91504 4.38078 0
M  V30 16583 O 1611.58 -2.61397 5.05628 0
M  V30 16584 N 1612.78 -4.19702 4.01037 0
M  V30 16585 H 1615.54 -0.257829 2.98589 0
M  V30 16586 H 1613.11 0.00625645 1.61899 0
M  V30 16587 H 1615.1 -2.78846 2.93303 0
M  V30 16588 H 1613.67 -2.46633 1.9207 0
M  V30 16589 H 1612.89 -0.88769 3.84075 0
M  V30 16590 H 1614.18 -1.59634 4.83109 0
M  V30 16591 H 1613.57 -4.47016 3.46689 0
M  V30 16592 H 1612.13 -4.90602 4.2913 0
M  V30 16593 N 1615.56 -1.5737 -0.0851874 0
M  V30 16594 C 1616.51 -2.02758 -1.10262 0
M  V30 16595 C 1617.48 -0.905702 -1.39235 0
M  V30 16596 O 1618.67 -1.17241 -1.50529 0
M  V30 16597 C 1615.81 -2.46528 -2.41492 0
M  V30 16598 C 1614.92 -3.72278 -2.19165 0
M  V30 16599 C 1614.05 -4.04885 -3.43863 0
M  V30 16600 C 1613.09 -5.23715 -3.16842 0
M  V30 16601 N 1612.23 -5.52026 -4.33833 0
M  V30 16602 H 1617.07 -2.89453 -0.708583 0
M  V30 16603 H 1614.61 -1.43156 -0.338332 0
M  V30 16604 H 1616.56 -2.69952 -3.18091 0
M  V30 16605 H 1615.19 -1.62829 -2.78723 0
M  V30 16606 H 1614.25 -3.56272 -1.33321 0
M  V30 16607 H 1615.56 -4.5902 -1.95197 0
M  V30 16608 H 1614.71 -4.29138 -4.28865 0
M  V30 16609 H 1613.45 -3.16683 -3.70895 0
M  V30 16610 H 1612.46 -4.99272 -2.30234 0
M  V30 16611 H 1613.68 -6.13523 -2.91146 0
M  V30 16612 H 1611.63 -4.66784 -4.60922 0
M  V30 16613 H 1611.54 -6.3316 -4.13091 0
M  V30 16614 H 1612.81 -5.80822 -5.19871 0
M  V30 16615 N 1617.04 0.356258 -1.53521 0
M  V30 16616 C 1617.97 1.45722 -1.76912 0
M  V30 16617 C 1618.99 1.49257 -0.650091 0
M  V30 16618 O 1620.18 1.52569 -0.926557 0
M  V30 16619 C 1617.28 2.84444 -1.84241 0
M  V30 16620 C 1616.45 3.04497 -3.14007 0
M  V30 16621 C 1615.51 4.23387 -3.12458 0
M  V30 16622 O 1614.53 4.18113 -3.86225 0
M  V30 16623 N 1615.74 5.31278 -2.33931 0
M  V30 16624 H 1618.5 1.26031 -2.71912 0
M  V30 16625 H 1616.06 0.546052 -1.52414 0
M  V30 16626 H 1618.05 3.62133 -1.80671 0
M  V30 16627 H 1616.62 2.97338 -0.96484 0
M  V30 16628 H 1615.84 2.14387 -3.30805 0
M  V30 16629 H 1617.13 3.14769 -3.99747 0
M  V30 16630 H 1616.53 5.38428 -1.73527 0
M  V30 16631 H 1615.09 6.07508 -2.36171 0
M  V30 16632 N 1618.52 1.45038 0.616577 0
M  V30 16633 C 1619.48 1.52647 1.70973 0
M  V30 16634 C 1620.48 0.406902 1.55567 0
M  V30 16635 O 1621.67 0.670062 1.60797 0
M  V30 16636 C 1618.8 1.41438 3.10174 0
M  V30 16637 H 1620 2.50036 1.65596 0
M  V30 16638 H 1617.55 1.32346 0.831524 0
M  V30 16639 H 1618.29 0.451991 3.21135 0
M  V30 16640 H 1618.07 2.22634 3.22764 0
M  V30 16641 H 1619.56 1.49776 3.89817 0
M  V30 16642 N 1620 -0.858287 1.32179 0
M  V30 16643 C 1621.27 -1.59548 1.13154 0
M  V30 16644 C 1621.65 -2.0882 -0.309439 0
M  V30 16645 O 1621 -1.87536 -1.30547 0
M  V30 16646 C 1621.21 -2.74443 2.15597 0
M  V30 16647 C 1622.56 -3.44115 2.48737 0
M  V30 16648 O 1623.58 -2.84664 2.14114 0
M  V30 16649 O 1622.44 -4.51389 3.08074 0
M  V30 16650 H 1619.54 -0.702481 0.436405 0
M  V30 16651 H 1622.08 -0.902731 1.43697 0
M  V30 16652 H 1620.86 -2.35533 3.12473 0
M  V30 16653 H 1620.48 -3.51397 1.86028 0
M  V30 16654 N 1621.48 -1.1533 -1.07409 0
M  V30 16655 C 1622.72 -0.925974 -1.79639 0
M  V30 16656 C 1623.04 0.548365 -1.87131 0
M  V30 16657 O 1622.31 1.39854 -1.37178 0
M  V30 16658 H 1620.89 -0.339599 -0.665343 0
M  V30 16659 H 1623.56 -1.45383 -1.29806 0
M  V30 16660 H 1622.65 -1.33484 -2.82114 0
M  V30 16661 N 1622.95 1.25748 -0.950004 0
M  V30 16662 C 1624.2 1.93951 -0.612734 0
M  V30 16663 C 1624.55 1.73078 0.840339 0
M  V30 16664 O 1623.85 1.06247 1.59443 0
M  V30 16665 C 1624.04 3.45843 -0.901521 0
M  V30 16666 C 1623.87 3.81488 -2.38111 0
M  V30 16667 C 1622.64 4.03786 -3.03785 0
M  V30 16668 C 1624.84 3.89355 -3.36017 0
M  V30 16669 N 1622.82 4.26386 -4.41665 0
M  V30 16670 C 1624.19 4.1659 -4.59187 0
M  V30 16671 C 1626.25 3.72017 -3.30919 0
M  V30 16672 C 1624.95 4.28291 -5.77892 0
M  V30 16673 C 1626.98 3.84955 -4.48958 0
M  V30 16674 C 1626.34 4.12598 -5.70913 0
M  V30 16675 H 1622.44 0.732147 -0.274745 0
M  V30 16676 H 1625.02 1.51638 -1.22123 0
M  V30 16677 H 1623.19 3.87063 -0.321997 0
M  V30 16678 H 1624.92 4.01285 -0.524624 0
M  V30 16679 H 1621.68 3.9949 -2.54372 0
M  V30 16680 H 1622.1 4.41701 -5.13059 0
M  V30 16681 H 1626.74 3.49667 -2.37682 0
M  V30 16682 H 1624.46 4.49459 -6.71574 0
M  V30 16683 H 1628.05 3.72933 -4.46556 0
M  V30 16684 H 1626.93 4.22385 -6.60727 0
M  V30 16685 N 1624.43 0.718038 1.40292 0
M  V30 16686 C 1625.36 0.0818367 2.33357 0
M  V30 16687 C 1626.34 -0.742854 1.53022 0
M  V30 16688 O 1627.53 -0.691281 1.8148 0
M  V30 16689 C 1624.66 -0.838843 3.37017 0
M  V30 16690 C 1623.61 -0.119589 4.27833 0
M  V30 16691 C 1622.94 -1.15615 5.22051 0
M  V30 16692 C 1624.24 1.02769 5.1209 0
M  V30 16693 H 1625.93 0.859167 2.86808 0
M  V30 16694 H 1623.48 0.414606 1.37902 0
M  V30 16695 H 1625.43 -1.29332 4.01063 0
M  V30 16696 H 1624.15 -1.6481 2.81967 0
M  V30 16697 H 1622.81 0.315088 3.65243 0
M  V30 16698 H 1622.46 -1.95852 4.63304 0
M  V30 16699 H 1622.16 -0.679767 5.83655 0
M  V30 16700 H 1623.69 -1.61068 5.88973 0
M  V30 16701 H 1625.1 0.652461 5.69575 0
M  V30 16702 H 1623.5 1.4326 5.82749 0
M  V30 16703 H 1624.57 1.85723 4.47923 0
M  V30 16704 N 1625.91 -1.50602 0.464402 0
M  V30 16705 C 1626.86 -2.28382 -0.333234 0
M  V30 16706 C 1627.83 -1.3314 -0.993125 0
M  V30 16707 O 1629.01 -1.62072 -1.00685 0
M  V30 16708 C 1626.15 -3.14841 -1.41313 0
M  V30 16709 C 1625.27 -4.25106 -0.768684 0
M  V30 16710 C 1624.4 -4.98833 -1.82591 0
M  V30 16711 C 1623.44 -6.00982 -1.16135 0
M  V30 16712 N 1622.58 -6.68012 -2.16112 0
M  V30 16713 H 1627.42 -2.96096 0.336354 0
M  V30 16714 H 1624.95 -1.46022 0.17772 0
M  V30 16715 H 1626.91 -3.63314 -2.05082 0
M  V30 16716 H 1625.54 -2.49186 -2.05197 0
M  V30 16717 H 1624.59 -3.80395 -0.0185964 0
M  V30 16718 H 1625.91 -4.98204 -0.243759 0
M  V30 16719 H 1625.06 -5.50991 -2.53957 0
M  V30 16720 H 1623.8 -4.25426 -2.38462 0
M  V30 16721 H 1622.8 -5.4809 -0.43328 0
M  V30 16722 H 1624.03 -6.76358 -0.609612 0
M  V30 16723 H 1621.97 -5.97401 -2.71013 0
M  V30 16724 H 1621.89 -7.36963 -1.68586 0
M  V30 16725 H 1623.16 -7.2479 -2.86879 0
M  V30 16726 N 1627.39 -0.19675 -1.56367 0
M  V30 16727 C 1628.34 0.723461 -2.19168 0
M  V30 16728 C 1629.31 1.20856 -1.13943 0
M  V30 16729 O 1630.49 1.27215 -1.42201 0
M  V30 16730 C 1627.63 1.93669 -2.85633 0
M  V30 16731 C 1626.74 1.49281 -4.05388 0
M  V30 16732 C 1625.88 2.66167 -4.59705 0
M  V30 16733 C 1624.92 2.18393 -5.71814 0
M  V30 16734 N 1624.05 3.28462 -6.20529 0
M  V30 16735 H 1628.89 0.181169 -2.97449 0
M  V30 16736 H 1626.43 0.0776802 -1.46895 0
M  V30 16737 H 1628.39 2.64865 -3.22339 0
M  V30 16738 H 1627.02 2.45227 -2.09913 0
M  V30 16739 H 1626.07 0.676658 -3.74333 0
M  V30 16740 H 1627.38 1.10231 -4.86467 0
M  V30 16741 H 1626.54 3.45483 -4.98725 0
M  V30 16742 H 1625.28 3.08491 -3.77736 0
M  V30 16743 H 1624.28 1.37531 -5.32321 0
M  V30 16744 H 1625.51 1.77097 -6.55602 0
M  V30 16745 H 1623.45 3.70315 -5.41482 0
M  V30 16746 H 1623.37 2.93587 -6.96665 0
M  V30 16747 H 1624.64 4.07988 -6.64204 0
M  V30 16748 N 1628.87 1.57413 0.0768405 0
M  V30 16749 C 1630.11 1.87002 0.776948 0
M  V30 16750 C 1630.44 0.787799 1.77831 0
M  V30 16751 O 1629.7 -0.216742 1.94496 0
M  V30 16752 C 1630 3.2324 1.52482 0
M  V30 16753 C 1629.66 4.45986 0.663899 0
M  V30 16754 C 1628.32 4.79305 0.426629 0
M  V30 16755 C 1630.68 5.21157 0.0665867 0
M  V30 16756 C 1628 5.85213 -0.417518 0
M  V30 16757 C 1630.36 6.27958 -0.764986 0
M  V30 16758 C 1629.02 6.59781 -1.01218 0
M  V30 16759 H 1628.29 0.684289 0.284306 0
M  V30 16760 H 1630.94 1.91463 0.0378686 0
M  V30 16761 H 1629.24 3.14547 2.33596 0
M  V30 16762 H 1630.94 3.43368 2.07123 0
M  V30 16763 H 1627.53 4.19905 0.858956 0
M  V30 16764 H 1631.71 4.95734 0.237022 0
M  V30 16765 H 1626.97 6.0827 -0.617827 0
M  V30 16766 H 1631.14 6.85369 -1.23459 0
M  V30 16767 H 1628.77 7.41674 -1.66806 0
M  V30 16768 N 1630.34 -0.348112 1.53707 0
M  V30 16769 C 1631.57 -1.10903 1.74666 0
M  V30 16770 C 1631.99 -1.82499 0.483683 0
M  V30 16771 O 1631.34 -1.74191 -0.544419 0
M  V30 16772 C 1631.4 -2.12602 2.92374 0
M  V30 16773 O 1631.12 -1.43918 4.13787 0
M  V30 16774 C 1632.62 -3.01105 3.25347 0
M  V30 16775 H 1629.84 -0.330911 0.583728 0
M  V30 16776 H 1632.38 -0.401707 2.00516 0
M  V30 16777 H 1630.54 -2.78906 2.68869 0
M  V30 16778 H 1630.95 -2.11818 4.79826 0
M  V30 16779 H 1632.42 -3.68408 4.11071 0
M  V30 16780 H 1632.9 -3.66874 2.41455 0
M  V30 16781 H 1633.51 -2.40395 3.50842 0
M  V30 16782 N 1631.82 -1.45363 -0.608876 0
M  V30 16783 C 1632.73 -1.56471 -1.74797 0
M  V30 16784 C 1633.75 -0.449225 -1.68101 0
M  V30 16785 O 1634.92 -0.709731 -1.8848 0
M  V30 16786 C 1631.99 -1.52714 -3.11254 0
M  V30 16787 C 1631.05 -2.75291 -3.29414 0
M  V30 16788 C 1630.28 -2.71704 -4.59361 0
M  V30 16789 O 1630.51 -1.78959 -5.41599 0
M  V30 16790 O 1629.44 -3.62886 -4.80205 0
M  V30 16791 H 1633.27 -2.52751 -1.68377 0
M  V30 16792 H 1630.85 -1.27859 -0.772808 0
M  V30 16793 H 1632.73 -1.53222 -3.92557 0
M  V30 16794 H 1631.41 -0.595858 -3.18169 0
M  V30 16795 H 1630.32 -2.80345 -2.47704 0
M  V30 16796 H 1631.65 -3.67541 -3.27375 0
M  V30 16797 N 1633.3 0.851265 -1.32632 0
M  V30 16798 C 1634.26 1.94168 -1.21785 0
M  V30 16799 C 1635.26 1.60189 -0.140023 0
M  V30 16800 O 1636.45 1.69763 -0.390671 0
M  V30 16801 C 1633.59 3.29513 -0.873717 0
M  V30 16802 H 1634.78 2.05214 -2.18695 0
M  V30 16803 H 1632.33 1.04186 -1.16512 0
M  V30 16804 H 1633.07 3.24165 0.0934202 0
M  V30 16805 H 1632.85 3.55552 -1.65302 0
M  V30 16806 H 1634.34 4.09425 -0.822231 0
M  V30 16807 N 1634.78 1.15898 1.06796 0
M  V30 16808 C 1636.01 0.961372 1.83208 0
M  V30 16809 C 1636.42 -0.490392 1.8232 0
M  V30 16810 O 1635.78 -1.34025 1.2387 0
M  V30 16811 C 1635.83 1.47486 3.30045 0
M  V30 16812 O 1635.55 2.86976 3.31023 0
M  V30 16813 C 1637.05 1.31955 4.23205 0
M  V30 16814 H 1634.27 0.34109 0.57784 0
M  V30 16815 H 1636.82 1.53805 1.34775 0
M  V30 16816 H 1634.97 0.940586 3.75808 0
M  V30 16817 H 1635.38 3.1038 4.22805 0
M  V30 16818 H 1636.86 1.72721 5.24282 0
M  V30 16819 H 1637.34 0.264439 4.38403 0
M  V30 16820 H 1637.94 1.84319 3.83284 0
M  V30 16821 N 1636.26 -1.25243 0.956659 0
M  V30 16822 C 1637.2 -2.2781 0.46963 0
M  V30 16823 C 1638.2 -1.63003 -0.461138 0
M  V30 16824 O 1639.4 -1.76805 -0.337644 0
M  V30 16825 H 1635.78 -0.740078 0.133374 0
M  V30 16826 H 1637.75 -2.66273 1.34689 0
M  V30 16827 C 1636.5 -3.46904 -0.235206 0
M  V30 16828 H 1635.82 -3.97006 0.471869 0
M  V30 16829 H 1637.26 -4.20548 -0.539969 0
M  V30 16830 C 1635.72 -3.03697 -1.45841 0
M  V30 16831 O 1636.25 -3.09887 -2.55603 0
M  V30 16832 N 1634.46 -2.58866 -1.32049 0
M  V30 16833 H 1634 -2.54029 -0.427428 0
M  V30 16834 H 1633.96 -2.30322 -2.14008 0
M  V30 16835 N 1637.73 -0.725468 -1.3991 0
M  V30 16836 C 1638.7 -0.0878956 -2.29031 0
M  V30 16837 C 1639.7 0.677105 -1.45849 0
M  V30 16838 O 1640.89 0.507538 -1.66642 0
M  V30 16839 C 1638.02 0.885087 -3.2921 0
M  V30 16840 H 1639.21 -0.872957 -2.86914 0
M  V30 16841 H 1636.77 -0.490715 -1.48397 0
M  V30 16842 H 1637.5 1.69685 -2.76365 0
M  V30 16843 H 1637.29 0.339297 -3.90629 0
M  V30 16844 H 1638.78 1.32806 -3.9592 0
M  V30 16845 N 1639.21 1.50354 -0.472382 0
M  V30 16846 C 1640.18 2.27096 0.30981 0
M  V30 16847 C 1641.18 1.3193 0.919306 0
M  V30 16848 O 1642.37 1.55344 0.788284 0
M  V30 16849 C 1639.5 3.08924 1.44149 0
M  V30 16850 H 1640.69 2.97692 -0.363228 0
M  V30 16851 H 1638.24 1.5465 -0.226483 0
M  V30 16852 H 1638.98 2.42828 2.14954 0
M  V30 16853 H 1638.76 3.78862 1.01023 0
M  V30 16854 H 1640.25 3.66961 1.99323 0
M  V30 16855 N 1640.69 0.205039 1.56261 0
M  V30 16856 C 1641.64 -0.711828 2.19549 0
M  V30 16857 C 1642.61 -1.2025 1.14582 0
M  V30 16858 O 1643.79 -1.26459 1.42873 0
M  V30 16859 C 1640.93 -1.92152 2.86656 0
M  V30 16860 C 1640.05 -1.47129 4.06174 0
M  V30 16861 C 1639.18 -2.63726 4.6111 0
M  V30 16862 C 1638.22 -2.15357 5.72964 0
M  V30 16863 N 1637.36 -3.25167 6.22263 0
M  V30 16864 H 1642.2 -0.165392 2.97541 0
M  V30 16865 H 1639.73 -0.0698889 1.46934 0
M  V30 16866 H 1641.69 -2.63152 3.23739 0
M  V30 16867 H 1640.32 -2.4411 2.11211 0
M  V30 16868 H 1639.37 -0.656797 3.74687 0
M  V30 16869 H 1640.69 -1.0765 4.87045 0
M  V30 16870 H 1639.84 -3.42833 5.0055 0
M  V30 16871 H 1638.58 -3.06484 3.79367 0
M  V30 16872 H 1637.58 -1.34706 5.33043 0
M  V30 16873 H 1638.81 -1.73618 6.56532 0
M  V30 16874 H 1636.76 -3.67438 5.43439 0
M  V30 16875 H 1636.67 -2.89888 6.98213 0
M  V30 16876 H 1637.94 -4.0446 6.66358 0
M  V30 16877 N 1642.17 -1.57451 -0.0684915 0
M  V30 16878 C 1643.42 -1.87041 -0.765505 0
M  V30 16879 C 1643.74 -0.797489 -1.77947 0
M  V30 16880 O 1643.01 0.17349 -1.9513 0
M  V30 16881 H 1641.59 -0.690203 -0.285708 0
M  V30 16882 H 1644.25 -1.94851 -0.0437957 0
M  V30 16883 H 1643.35 -2.8466 -1.27966 0
M  V30 16884 N 1643.65 0.339955 -1.5389 0
M  V30 16885 C 1644.58 1.42316 -1.85117 0
M  V30 16886 C 1645.56 1.5473 -0.706591 0
M  V30 16887 O 1646.74 1.68879 -0.958834 0
M  V30 16888 C 1643.87 2.79317 -2.06396 0
M  V30 16889 C 1642.83 2.81707 -3.22219 0
M  V30 16890 C 1642.15 4.21627 -3.28838 0
M  V30 16891 C 1643.45 2.46921 -4.60247 0
M  V30 16892 H 1645.15 1.16431 -2.75834 0
M  V30 16893 H 1642.69 0.558661 -1.32721 0
M  V30 16894 H 1644.65 3.55145 -2.26826 0
M  V30 16895 H 1643.37 3.06644 -1.12414 0
M  V30 16896 H 1642.03 2.08332 -3.01651 0
M  V30 16897 H 1641.68 4.4607 -2.32444 0
M  V30 16898 H 1641.38 4.24137 -4.06672 0
M  V30 16899 H 1642.9 4.99292 -3.51482 0
M  V30 16900 H 1644.32 3.12462 -4.80667 0
M  V30 16901 H 1642.71 2.60707 -5.40511 0
M  V30 16902 H 1643.78 1.421 -4.63611 0
M  V30 16903 N 1645.13 1.45684 0.601159 0
M  V30 16904 C 1646.04 1.57396 1.73965 0
M  V30 16905 C 1647.05 0.458133 1.6786 0
M  V30 16906 O 1648.23 0.719717 1.88101 0
M  V30 16907 C 1645.29 1.54363 3.1044 0
M  V30 16908 C 1644.35 2.77034 3.27949 0
M  V30 16909 C 1643.59 2.74136 4.57914 0
M  V30 16910 O 1643.81 1.81829 5.40643 0
M  V30 16911 O 1642.74 3.65428 4.78274 0
M  V30 16912 H 1646.57 2.5364 1.67034 0
M  V30 16913 H 1644.15 1.28267 0.766017 0
M  V30 16914 H 1646.04 1.55302 3.91739 0
M  V30 16915 H 1644.71 0.612723 3.17848 0
M  V30 16916 H 1643.62 2.81655 2.46214 0
M  V30 16917 H 1644.95 3.69272 3.25422 0
M  V30 16918 N 1646.6 -0.84422 1.33082 0
M  V30 16919 C 1647.85 -1.60123 1.25429 0
M  V30 16920 C 1648.2 -1.91559 -0.179646 0
M  V30 16921 O 1647.5 -1.55436 -1.12028 0
M  V30 16922 C 1647.69 -2.92225 2.05765 0
M  V30 16923 C 1647.52 -2.73691 3.56824 0
M  V30 16924 C 1646.29 -2.71528 4.26146 0
M  V30 16925 C 1648.49 -2.46706 4.51266 0
M  V30 16926 N 1646.47 -2.44314 5.63191 0
M  V30 16927 C 1647.84 -2.28994 5.76161 0
M  V30 16928 C 1649.9 -2.32259 4.40409 0
M  V30 16929 C 1648.6 -1.98301 6.91425 0
M  V30 16930 C 1650.63 -2.02959 5.55483 0
M  V30 16931 C 1649.99 -1.86055 6.79384 0
M  V30 16932 H 1646.09 -0.589203 0.514163 0
M  V30 16933 H 1648.67 -0.991494 1.67563 0
M  V30 16934 H 1646.84 -3.51158 1.65959 0
M  V30 16935 H 1648.57 -3.57367 1.89924 0
M  V30 16936 H 1645.33 -2.84843 3.78367 0
M  V30 16937 H 1645.75 -2.33606 6.35419 0
M  V30 16938 H 1650.39 -2.44043 3.45258 0
M  V30 16939 H 1648.11 -1.85254 7.86579 0
M  V30 16940 H 1651.7 -1.92543 5.49016 0
M  V30 16941 H 1650.58 -1.63707 7.66922 0
M  V30 16942 N 1648.08 -1.16463 -1.0618 0
M  V30 16943 C 1649.01 -0.895399 -2.1565 0
M  V30 16944 C 1649.99 0.158729 -1.69358 0
M  V30 16945 O 1651.18 0.010586 -1.94197 0
M  V30 16946 C 1648.31 -0.396959 -3.45024 0
M  V30 16947 C 1647.26 -1.38913 -4.0483 0
M  V30 16948 C 1646.59 -0.749043 -5.29427 0
M  V30 16949 C 1647.89 -2.7591 -4.43476 0
M  V30 16950 H 1649.58 -1.81085 -2.38429 0
M  V30 16951 H 1647.13 -0.872098 -1.14588 0
M  V30 16952 H 1649.08 -0.196086 -4.20944 0
M  V30 16953 H 1647.8 0.554002 -3.21867 0
M  V30 16954 H 1646.46 -1.57657 -3.30968 0
M  V30 16955 H 1646.11 0.208439 -5.02568 0
M  V30 16956 H 1645.81 -1.41128 -5.704 0
M  V30 16957 H 1647.34 -0.558217 -6.08043 0
M  V30 16958 H 1648.75 -2.60942 -5.10473 0
M  V30 16959 H 1647.15 -3.38618 -4.95437 0
M  V30 16960 H 1648.22 -3.31076 -3.54284 0
M  V30 16961 N 1649.56 1.24734 -0.963288 0
M  V30 16962 C 1650.52 2.23795 -0.494824 0
M  V30 16963 C 1651.52 1.55584 0.406225 0
M  V30 16964 O 1652.71 1.73021 0.202302 0
M  V30 16965 C 1649.84 3.39715 0.283963 0
M  V30 16966 H 1651.04 2.66753 -1.37051 0
M  V30 16967 H 1648.59 1.37271 -0.747428 0
M  V30 16968 H 1649.33 3.0219 1.17693 0
M  V30 16969 H 1649.11 3.9042 -0.362586 0
M  V30 16970 H 1650.6 4.13254 0.600899 0
M  V30 16971 N 1651.04 0.732878 1.39523 0
M  V30 16972 C 1651.99 0.0806066 2.3246 0
M  V30 16973 C 1652.98 -0.728184 1.5295 0
M  V30 16974 O 1654.19 -0.629608 1.6863 0
M  V30 16975 H 1650.56 0.00726537 0.751965 0
M  V30 16976 H 1652.53 0.880867 2.85102 0
M  V30 16977 C 1651.28 -0.81412 3.38035 0
M  V30 16978 H 1650.6 -0.201168 3.99294 0
M  V30 16979 H 1652.04 -1.23817 4.05519 0
M  V30 16980 C 1650.5 -1.94745 2.74911 0
M  V30 16981 O 1651.03 -3.03989 2.6259 0
M  V30 16982 N 1649.24 -1.73624 2.3303 0
M  V30 16983 H 1648.79 -0.847733 2.43251 0
M  V30 16984 H 1648.74 -2.49629 1.91135 0
M  V30 16985 N 1652.52 -1.50101 0.480349 0
M  V30 16986 C 1653.46 -2.28722 -0.308993 0
M  V30 16987 C 1654.43 -1.34186 -0.978948 0
M  V30 16988 O 1655.62 -1.6313 -0.989602 0
M  V30 16989 C 1652.76 -3.16322 -1.37966 0
M  V30 16990 C 1651.87 -4.25898 -0.723552 0
M  V30 16991 C 1651.01 -5.00741 -1.7729 0
M  V30 16992 C 1650.04 -6.0218 -1.09754 0
M  V30 16993 N 1649.18 -6.70266 -2.09015 0
M  V30 16994 H 1654.02 -2.95722 0.367739 0
M  V30 16995 H 1651.56 -1.45826 0.193197 0
M  V30 16996 H 1653.52 -3.65469 -2.01217 0
M  V30 16997 H 1652.15 -2.51349 -2.02543 0
M  V30 16998 H 1651.2 -3.80394 0.0217507 0
M  V30 16999 H 1652.51 -4.98435 -0.190905 0
M  V30 17000 H 1651.66 -5.53653 -2.48098 0
M  V30 17001 H 1650.4 -4.27931 -2.33937 0
M  V30 17002 H 1649.41 -5.48519 -0.375123 0
M  V30 17003 H 1650.63 -6.76967 -0.537841 0
M  V30 17004 H 1648.58 -6.00242 -2.64662 0
M  V30 17005 H 1648.5 -7.3871 -1.6076 0
M  V30 17006 H 1649.76 -7.27792 -2.79175 0
M  V30 17007 N 1653.99 -0.213323 -1.5615 0
M  V30 17008 C 1655.24 0.420909 -1.97259 0
M  V30 17009 C 1655.56 1.61483 -1.10375 0
M  V30 17010 O 1656.76 2.31804 -1.41347 0
M  V30 17011 C 1655.22 0.800243 -3.5089 0
M  V30 17012 C 1654.83 -0.370405 -4.46466 0
M  V30 17013 C 1656.57 1.40054 -4.00731 0
M  V30 17014 C 1654.48 0.0309052 -5.91392 0
M  V30 17015 H 1653.41 0.16103 -0.736604 0
M  V30 17016 H 1656.06 -0.308232 -1.80893 0
M  V30 17017 H 1654.44 1.58657 -3.62828 0
M  V30 17018 H 1655.61 -1.14796 -4.46272 0
M  V30 17019 H 1653.93 -0.883391 -4.06922 0
M  V30 17020 H 1656.53 1.71355 -5.06499 0
M  V30 17021 H 1656.87 2.31345 -3.461 0
M  V30 17022 H 1657.4 0.677813 -3.91983 0
M  V30 17023 H 1654.14 -0.848284 -6.49988 0
M  V30 17024 H 1653.66 0.772941 -5.94799 0
M  V30 17025 H 1655.34 0.460441 -6.4536 0
M  V30 17026 N 1655.47 1.57485 0.0601405 0
M  V30 17027 C 1656.7 1.92438 0.773466 0
M  V30 17028 C 1657.12 0.810755 1.6973 0
M  V30 17029 O 1656.48 -0.235697 1.79761 0
M  V30 17030 C 1656.53 3.26381 1.53323 0
M  V30 17031 O 1655.63 3.16436 2.64465 0
M  V30 17032 H 1654.97 0.629838 0.210239 0
M  V30 17033 H 1657.5 2.04585 0.0248981 0
M  V30 17034 H 1657.51 3.60534 1.90996 0
M  V30 17035 H 1656.19 4.07007 0.855468 0
M  V30 17036 H 1654.77 2.93862 2.29564 0
M  V30 17037 N 1656.95 -0.331789 1.54068 0
M  V30 17038 C 1657.9 -1.40798 1.82879 0
M  V30 17039 C 1658.87 -1.51753 0.675292 0
M  V30 17040 O 1660.05 -1.67105 0.920905 0
M  V30 17041 C 1657.19 -2.7728 2.0545 0
M  V30 17042 C 1656.31 -2.75022 3.33147 0
M  V30 17043 C 1655.44 -4.03297 3.45723 0
M  V30 17044 C 1654.48 -3.95314 4.67326 0
M  V30 17045 N 1653.62 -5.15303 4.76872 0
M  V30 17046 H 1658.46 -1.15529 2.74695 0
M  V30 17047 H 1655.99 -0.559411 1.36048 0
M  V30 17048 H 1657.95 -3.56611 2.16528 0
M  V30 17049 H 1656.58 -3.00875 1.16935 0
M  V30 17050 H 1655.63 -1.87729 3.30851 0
M  V30 17051 H 1656.95 -2.65003 4.22581 0
M  V30 17052 H 1656.1 -4.91057 3.56297 0
M  V30 17053 H 1654.84 -4.16112 2.54367 0
M  V30 17054 H 1653.84 -3.05939 4.56817 0
M  V30 17055 H 1655.07 -3.84072 5.60058 0
M  V30 17056 H 1653.01 -5.28639 3.88429 0
M  V30 17057 H 1652.93 -5.07588 5.60259 0
M  V30 17058 H 1654.2 -6.04801 4.91769 0
M  V30 17059 N 1658.43 -1.46001 -0.593424 0
M  V30 17060 C 1659.68 -1.50755 -1.352 0
M  V30 17061 C 1660 -0.154929 -1.93882 0
M  V30 17062 O 1659.26 0.848161 -1.76365 0
M  V30 17063 C 1659.56 -2.54568 -2.50858 0
M  V30 17064 C 1659.22 -3.98888 -2.10236 0
M  V30 17065 C 1657.89 -4.38182 -1.98872 0
M  V30 17066 C 1660.24 -4.89591 -1.78746 0
M  V30 17067 C 1657.57 -5.66057 -1.5426 0
M  V30 17068 C 1659.92 -6.17892 -1.35617 0
M  V30 17069 C 1658.58 -6.56103 -1.22822 0
M  V30 17070 H 1657.85 -0.551652 -0.494734 0
M  V30 17071 H 1660.5 -1.79422 -0.669327 0
M  V30 17072 H 1658.8 -2.19523 -3.24526 0
M  V30 17073 H 1660.5 -2.5548 -3.09081 0
M  V30 17074 H 1657.09 -3.67822 -2.20012 0
M  V30 17075 H 1661.27 -4.59959 -1.86416 0
M  V30 17076 H 1656.53 -5.94444 -1.42988 0
M  V30 17077 H 1660.7 -6.87609 -1.10301 0
M  V30 17078 H 1658.33 -7.55086 -0.880285 0
M  V30 17079 N 1659.91 0.83715 -1.33527 0
M  V30 17080 C 1661.16 1.58747 -1.24428 0
M  V30 17081 C 1661.47 1.94696 0.187885 0
M  V30 17082 O 1662.67 2.68524 0.400903 0
M  V30 17083 C 1661.13 2.86337 -2.18035 0
M  V30 17084 C 1660.74 2.57745 -3.66431 0
M  V30 17085 C 1662.48 3.6436 -2.17812 0
M  V30 17086 C 1660.39 3.81443 -4.51946 0
M  V30 17087 H 1659.32 0.595749 -0.462168 0
M  V30 17088 H 1661.97 0.922901 -1.58603 0
M  V30 17089 H 1660.35 3.54344 -1.76795 0
M  V30 17090 H 1661.53 1.97939 -4.16121 0
M  V30 17091 H 1659.84 1.93023 -3.68959 0
M  V30 17092 H 1662.44 4.56181 -2.78932 0
M  V30 17093 H 1662.78 3.99414 -1.17364 0
M  V30 17094 H 1663.31 3.03279 -2.57423 0
M  V30 17095 H 1660.05 3.51519 -5.53276 0
M  V30 17096 H 1659.57 4.40582 -4.06998 0
M  V30 17097 H 1661.25 4.49004 -4.65837 0
M  V30 17098 N 1661.38 1.17024 1.05561 0
M  V30 17099 C 1662.66 0.86635 1.75367 0
M  V30 17100 C 1663.04 -0.634217 2.01348 0
M  V30 17101 O 1662.39 -1.58434 1.64654 0
M  V30 17102 C 1662.6 1.69719 3.04953 0
M  V30 17103 C 1663.95 1.91482 3.78972 0
M  V30 17104 O 1664.97 1.66647 3.14813 0
M  V30 17105 O 1663.83 2.33197 4.94248 0
M  V30 17106 H 1660.92 0.320412 0.762407 0
M  V30 17107 H 1663.47 1.277 1.11763 0
M  V30 17108 H 1662.24 2.71512 2.81775 0
M  V30 17109 H 1661.87 1.28408 3.76294 0
M  V30 17110 N 1662.86 -1.24221 0.969889 0
M  V30 17111 C 1664.11 -1.92952 0.643512 0
M  V30 17112 C 1664.46 -1.74393 -0.812698 0
M  V30 17113 O 1663.76 -1.08771 -1.57732 0
M  V30 17114 C 1663.95 -3.44365 0.956427 0
M  V30 17115 C 1663.78 -3.77651 2.4415 0
M  V30 17116 C 1662.55 -3.98901 3.1017 0
M  V30 17117 C 1664.75 -3.8396 3.42169 0
M  V30 17118 N 1662.73 -4.19305 4.48393 0
M  V30 17119 C 1664.1 -4.09232 4.65756 0
M  V30 17120 C 1666.16 -3.66705 3.36796 0
M  V30 17121 C 1664.86 -4.19043 5.84633 0
M  V30 17122 C 1666.88 -3.77764 4.55026 0
M  V30 17123 C 1666.25 -4.03463 5.77405 0
M  V30 17124 H 1662.35 -0.727683 0.286359 0
M  V30 17125 H 1664.93 -1.49676 1.2452 0
M  V30 17126 H 1663.1 -3.86502 0.383535 0
M  V30 17127 H 1664.83 -4.004 0.588399 0
M  V30 17128 H 1661.59 -3.95392 2.60695 0
M  V30 17129 H 1662.01 -4.33483 5.20021 0
M  V30 17130 H 1666.65 -3.45841 2.43215 0
M  V30 17131 H 1664.37 -4.38718 6.7864 0
M  V30 17132 H 1667.96 -3.65781 4.52433 0
M  V30 17133 H 1666.84 -4.1182 6.67363 0
M  V30 17134 N 1664.34 -0.740267 -1.39132 0
M  V30 17135 C 1665.59 -0.290953 -2.00702 0
M  V30 17136 C 1665.92 1.12051 -1.58613 0
M  V30 17137 O 1665.19 1.76488 -0.817457 0
M  V30 17138 C 1665.48 -0.398765 -3.57885 0
M  V30 17139 C 1665.33 -1.85038 -4.09977 0
M  V30 17140 C 1666.65 0.215717 -4.39571 0
M  V30 17141 H 1663.77 -0.107194 -0.729163 0
M  V30 17142 H 1666.41 -0.937411 -1.65265 0
M  V30 17143 H 1664.56 0.151613 -3.88204 0
M  V30 17144 H 1666.23 -2.45804 -3.90357 0
M  V30 17145 H 1664.48 -2.36994 -3.63341 0
M  V30 17146 H 1665.15 -1.87705 -5.19106 0
M  V30 17147 H 1667.62 -0.253518 -4.15327 0
M  V30 17148 H 1666.5 0.109966 -5.4879 0
M  V30 17149 H 1666.76 1.30242 -4.2248 0
M  V30 17150 N 1665.82 1.49844 -0.488302 0
M  V30 17151 C 1666.77 2.28883 0.296859 0
M  V30 17152 C 1667.74 1.34703 0.971818 0
M  V30 17153 O 1668.92 1.63653 0.980937 0
M  V30 17154 C 1666.06 3.17049 1.36286 0
M  V30 17155 C 1665.17 4.26275 0.700956 0
M  V30 17156 C 1664.31 5.01674 1.74632 0
M  V30 17157 C 1663.35 6.02753 1.06559 0
M  V30 17158 N 1662.48 6.71366 2.05457 0
M  V30 17159 H 1667.32 2.95523 -0.383417 0
M  V30 17160 H 1664.86 1.45721 -0.200928 0
M  V30 17161 H 1666.82 3.66531 1.99276 0
M  V30 17162 H 1665.45 2.52419 2.01207 0
M  V30 17163 H 1664.5 3.80377 -0.0419236 0
M  V30 17164 H 1665.81 4.98529 0.164469 0
M  V30 17165 H 1664.97 5.54961 2.45159 0
M  V30 17166 H 1663.71 4.29166 2.31664 0
M  V30 17167 H 1662.71 5.4871 0.346029 0
M  V30 17168 H 1663.94 6.77243 0.501932 0
M  V30 17169 H 1661.88 6.01637 2.61475 0
M  V30 17170 H 1661.8 7.39552 1.56841 0
M  V30 17171 H 1663.07 7.29262 2.75312 0
M  V30 17172 N 1667.3 0.221601 1.56034 0
M  V30 17173 C 1668.52 -0.417979 2.03145 0
M  V30 17174 C 1668.95 -1.52556 1.10038 0
M  V30 17175 O 1668.3 -1.81084 0.0885729 0
M  V30 17176 C 1668.35 -0.926762 3.48487 0
M  V30 17177 O 1667.46 -2.03811 3.58518 0
M  V30 17178 H 1666.8 -0.0945778 0.65723 0
M  V30 17179 H 1669.33 0.340252 2.01751 0
M  V30 17180 H 1669.34 -1.23656 3.8881 0
M  V30 17181 H 1668.01 -0.116115 4.15738 0
M  V30 17182 H 1666.59 -1.73494 3.30082 0
M  V30 17183 N 1668.77 -1.57515 -0.0517878 0
M  V30 17184 C 1669.72 -2.05051 -1.05937 0
M  V30 17185 C 1670.69 -0.935032 -1.37282 0
M  V30 17186 O 1671.88 -1.20408 -1.48009 0
M  V30 17187 C 1669.02 -2.51594 -2.36208 0
M  V30 17188 C 1668.13 -3.76843 -2.11219 0
M  V30 17189 C 1667.26 -4.12088 -3.35197 0
M  V30 17190 C 1666.3 -5.30318 -3.05662 0
M  V30 17191 N 1665.44 -5.61104 -4.22026 0
M  V30 17192 H 1670.28 -2.90891 -0.647027 0
M  V30 17193 H 1667.82 -1.43842 -0.307891 0
M  V30 17194 H 1669.78 -2.76638 -3.12293 0
M  V30 17195 H 1668.41 -1.68704 -2.75207 0
M  V30 17196 H 1667.46 -3.5902 -1.25734 0
M  V30 17197 H 1668.77 -4.63057 -1.85416 0
M  V30 17198 H 1667.92 -4.38139 -4.19666 0
M  V30 17199 H 1666.66 -3.24479 -3.64094 0
M  V30 17200 H 1665.67 -5.04043 -2.19592 0
M  V30 17201 H 1666.89 -6.19561 -2.78067 0
M  V30 17202 H 1664.84 -4.76456 -4.50917 0
M  V30 17203 H 1664.76 -6.4178 -3.99568 0
M  V30 17204 H 1666.02 -5.91719 -5.07434 0
M  V30 17205 N 1670.25 0.323614 -1.54242 0
M  V30 17206 C 1671.5 1.05909 -1.71657 0
M  V30 17207 C 1671.82 1.89177 -0.497151 0
M  V30 17208 O 1673.02 2.65816 -0.552649 0
M  V30 17209 C 1671.48 1.93246 -3.03618 0
M  V30 17210 C 1671.09 1.1509 -4.32965 0
M  V30 17211 C 1672.83 2.6653 -3.30397 0
M  V30 17212 C 1670.74 2.01573 -5.55988 0
M  V30 17213 H 1669.67 0.399114 -0.639706 0
M  V30 17214 H 1672.32 0.317338 -1.80735 0
M  V30 17215 H 1670.7 2.71319 -2.88447 0
M  V30 17216 H 1671.87 0.417877 -4.58901 0
M  V30 17217 H 1670.19 0.534882 -4.1295 0
M  V30 17218 H 1672.79 3.31542 -4.19504 0
M  V30 17219 H 1673.13 3.34164 -2.48274 0
M  V30 17220 H 1673.66 1.95518 -3.46435 0
M  V30 17221 H 1670.4 1.38446 -6.40713 0
M  V30 17222 H 1669.92 2.72609 -5.3427 0
M  V30 17223 H 1671.6 2.60159 -5.9239 0
M  V30 17224 N 1671.73 1.46313 0.585673 0
M  V30 17225 C 1672.98 1.51694 1.34598 0
M  V30 17226 C 1673.31 0.166889 1.93482 0
M  V30 17227 O 1672.59 -0.821331 1.76308 0
M  V30 17228 C 1672.87 2.61322 2.47755 0
M  V30 17229 C 1672.72 4.05848 1.93926 0
M  V30 17230 C 1674.04 2.67058 3.49812 0
M  V30 17231 H 1671.16 0.552253 0.488043 0
M  V30 17232 H 1673.8 1.78235 0.658201 0
M  V30 17233 H 1671.95 2.38822 3.06425 0
M  V30 17234 H 1673.62 4.39626 1.39736 0
M  V30 17235 H 1671.87 4.15468 1.24775 0
M  V30 17236 H 1672.54 4.78279 2.75596 0
M  V30 17237 H 1675.01 2.87276 3.01018 0
M  V30 17238 H 1673.89 3.45589 4.2645 0
M  V30 17239 H 1674.15 1.72993 4.06849 0
M  V30 17240 N 1673.21 -0.830057 1.33969 0
M  V30 17241 C 1674.62 -1.40227 1.23261 0
M  V30 17242 C 1674.97 -1.95664 -0.144862 0
M  V30 17243 O 1674.1 -1.89503 -1.04488 0
M  V30 17244 C 1674.69 -2.54913 2.2317 0
M  V30 17245 C 1673.25 -3.08062 2.16274 0
M  V30 17246 C 1672.4 -1.809 2.10168 0
M  V30 17247 H 1675.35 -0.635062 1.4544 0
M  V30 17248 H 1675.37 -3.32801 1.84455 0
M  V30 17249 H 1674.88 -2.14534 3.23414 0
M  V30 17250 H 1672.98 -3.52964 1.19362 0
M  V30 17251 H 1673.1 -3.67637 3.07213 0
M  V30 17252 H 1671.46 -2.01508 1.55778 0
M  V30 17253 H 1672.24 -1.42705 3.12234 0
M  V30 17254 N 1674.69 -1.17582 -1.04939 0
M  V30 17255 C 1675.62 -0.852608 -2.12752 0
M  V30 17256 C 1676.63 0.14607 -1.62143 0
M  V30 17257 O 1677.82 -0.0805751 -1.78318 0
M  V30 17258 C 1674.92 -0.251083 -3.37969 0
M  V30 17259 C 1674.09 -1.29325 -4.17844 0
M  V30 17260 C 1673.15 -0.709025 -5.21401 0
M  V30 17261 O 1672.18 -1.38149 -5.52181 0
M  V30 17262 N 1673.38 0.497716 -5.78362 0
M  V30 17263 H 1676.15 -1.78054 -2.41074 0
M  V30 17264 H 1673.71 -1.07502 -1.21058 0
M  V30 17265 H 1675.7 0.15312 -4.0441 0
M  V30 17266 H 1674.27 0.580684 -3.07159 0
M  V30 17267 H 1673.49 -1.87311 -3.46855 0
M  V30 17268 H 1674.78 -1.99614 -4.68008 0
M  V30 17269 H 1674.18 1.06196 -5.55643 0
M  V30 17270 H 1672.73 0.843951 -6.46313 0
M  V30 17271 N 1676.17 1.23705 -0.976463 0
M  V30 17272 C 1677.41 1.92299 -0.64412 0
M  V30 17273 C 1677.74 1.7605 0.819767 0
M  V30 17274 O 1677.02 1.11902 1.59086 0
M  V30 17275 C 1677.3 3.45042 -1.03044 0
M  V30 17276 C 1677.16 3.70418 -2.55167 0
M  V30 17277 C 1678.47 4.36374 -0.571444 0
M  V30 17278 H 1675.59 0.698369 -0.235478 0
M  V30 17279 H 1678.24 1.45904 -1.21704 0
M  V30 17280 H 1676.39 3.84687 -0.54294 0
M  V30 17281 H 1678.06 3.40278 -3.11462 0
M  V30 17282 H 1676.3 3.15266 -2.97976 0
M  V30 17283 H 1676.97 4.77323 -2.77248 0
M  V30 17284 H 1679.45 4.04153 -0.989936 0
M  V30 17285 H 1678.32 5.41958 -0.870226 0
M  V30 17286 H 1678.58 4.38932 0.528318 0
M  V30 17287 N 1677.64 0.747635 1.38738 0
M  V30 17288 C 1678.59 0.11597 2.30508 0
M  V30 17289 C 1679.56 -0.716088 1.49871 0
M  V30 17290 O 1680.75 -0.673446 1.7852 0
M  V30 17291 C 1677.89 -0.775765 3.36268 0
M  V30 17292 C 1677 0.070275 4.31943 0
M  V30 17293 C 1676.13 -0.823908 5.24772 0
M  V30 17294 C 1675.17 0.0261249 6.12094 0
M  V30 17295 N 1674.31 -0.824688 6.9724 0
M  V30 17296 H 1679.15 0.904158 2.83952 0
M  V30 17297 H 1676.69 0.457513 1.39804 0
M  V30 17298 H 1678.64 -1.30735 3.96187 0
M  V30 17299 H 1677.27 -1.5298 2.84248 0
M  V30 17300 H 1676.33 0.719421 3.73535 0
M  V30 17301 H 1677.64 0.726987 4.93474 0
M  V30 17302 H 1676.79 -1.42287 5.89779 0
M  V30 17303 H 1675.53 -1.51437 4.63593 0
M  V30 17304 H 1674.54 0.637803 5.46088 0
M  V30 17305 H 1675.76 0.713556 6.75341 0
M  V30 17306 H 1673.71 -1.50021 6.38616 0
M  V30 17307 H 1673.62 -0.22474 7.55666 0
M  V30 17308 H 1674.89 -1.40882 7.66663 0
M  V30 17309 N 1679.12 -1.49583 0.496242 0
M  V30 17310 C 1680.03 -2.32808 -0.289404 0
M  V30 17311 C 1681.05 -1.44324 -0.971933 0
M  V30 17312 O 1682.22 -1.77352 -0.954366 0
M  V30 17313 C 1679.29 -3.19645 -1.34269 0
M  V30 17314 C 1678.35 -4.23975 -0.6741 0
M  V30 17315 C 1677.58 -5.06661 -1.6772 0
M  V30 17316 O 1677.81 -4.90792 -2.90654 0
M  V30 17317 O 1676.74 -5.89091 -1.23514 0
M  V30 17318 H 1680.57 -3.01164 0.391664 0
M  V30 17319 H 1678.15 -1.47162 0.257652 0
M  V30 17320 H 1680.03 -3.73453 -1.9522 0
M  V30 17321 H 1678.71 -2.53989 -2.00677 0
M  V30 17322 H 1677.61 -3.74092 -0.0249732 0
M  V30 17323 H 1678.95 -4.92172 -0.0525442 0
M  V30 17324 N 1680.6 -0.229873 -1.55915 0
M  V30 17325 C 1681.55 0.676809 -2.20653 0
M  V30 17326 C 1682.52 1.18412 -1.16481 0
M  V30 17327 O 1683.7 1.2417 -1.44867 0
M  V30 17328 C 1680.84 1.87567 -2.89677 0
M  V30 17329 C 1679.95 1.40648 -4.08463 0
M  V30 17330 C 1679.09 2.56356 -4.65247 0
M  V30 17331 C 1678.13 2.06215 -5.76318 0
M  V30 17332 N 1677.27 3.15226 -6.27357 0
M  V30 17333 H 1682.11 0.118035 -2.97766 0
M  V30 17334 H 1679.64 0.0465042 -1.47026 0
M  V30 17335 H 1681.6 2.57968 -3.27884 0
M  V30 17336 H 1680.23 2.40719 -2.15067 0
M  V30 17337 H 1679.28 0.597104 -3.75684 0
M  V30 17338 H 1680.59 0.998877 -4.88696 0
M  V30 17339 H 1679.75 3.34827 -5.05941 0
M  V30 17340 H 1678.49 3.0041 -3.84194 0
M  V30 17341 H 1677.49 1.26209 -5.35118 0
M  V30 17342 H 1678.72 1.63151 -6.59211 0
M  V30 17343 H 1676.66 3.58746 -5.49215 0
M  V30 17344 H 1676.58 2.78744 -7.02736 0
M  V30 17345 H 1677.85 3.93807 -6.72708 0
M  V30 17346 N 1682.08 1.5754 0.0434337 0
M  V30 17347 C 1683.01 2.08648 1.04824 0
M  V30 17348 C 1683.99 0.985894 1.38615 0
M  V30 17349 O 1685.17 1.2603 1.4775 0
M  V30 17350 C 1682.3 2.55399 2.35348 0
M  V30 17351 C 1681.26 3.69592 2.15837 0
M  V30 17352 C 1680.58 4.02497 3.51995 0
M  V30 17353 C 1681.88 4.98575 1.55629 0
M  V30 17354 H 1683.58 2.9285 0.622849 0
M  V30 17355 H 1681.12 1.40879 0.298158 0
M  V30 17356 H 1683.08 2.89771 3.05958 0
M  V30 17357 H 1681.8 1.68262 2.7992 0
M  V30 17358 H 1680.46 3.35546 1.47663 0
M  V30 17359 H 1680.11 3.12448 3.94189 0
M  V30 17360 H 1679.81 4.79406 3.39771 0
M  V30 17361 H 1681.33 4.39391 4.23991 0
M  V30 17362 H 1682.75 5.30996 2.16138 0
M  V30 17363 H 1681.14 5.79998 1.54021 0
M  V30 17364 H 1682.21 4.82098 0.520567 0
M  V30 17365 N 1683.56 -0.31543 1.54411 0
M  V30 17366 C 1684.83 -1.07113 1.63665 0
M  V30 17367 C 1685.21 -2.05671 0.475688 0
M  V30 17368 O 1684.56 -2.22288 -0.52918 0
M  V30 17369 C 1684.77 -1.76584 3.0103 0
M  V30 17370 C 1686.12 -2.29309 3.57355 0
M  V30 17371 O 1687.14 -1.86638 3.03388 0
M  V30 17372 O 1686 -3.07452 4.51814 0
M  V30 17373 H 1683.1 -0.494217 0.663083 0
M  V30 17374 H 1685.64 -0.31467 1.66757 0
M  V30 17375 H 1684.41 -1.0494 3.76966 0
M  V30 17376 H 1684.04 -2.5902 3.01653 0
M  V30 17377 N 1685.03 -1.46622 -0.577906 0
M  V30 17378 C 1686.28 -1.52181 -1.33594 0
M  V30 17379 C 1686.61 -0.175484 -1.93707 0
M  V30 17380 O 1685.86 0.829407 -1.77255 0
M  V30 17381 C 1686.16 -2.57215 -2.48144 0
M  V30 17382 C 1685.83 -4.01095 -2.05993 0
M  V30 17383 C 1684.49 -4.40267 -1.94213 0
M  V30 17384 C 1686.84 -4.91459 -1.73543 0
M  V30 17385 C 1684.17 -5.67661 -1.48248 0
M  V30 17386 C 1686.52 -6.19296 -1.29055 0
M  V30 17387 C 1685.19 -6.57369 -1.15856 0
M  V30 17388 H 1684.46 -0.556868 -0.488855 0
M  V30 17389 H 1687.1 -1.80122 -0.65026 0
M  V30 17390 H 1685.41 -2.22952 -3.22179 0
M  V30 17391 H 1687.11 -2.58744 -3.06354 0
M  V30 17392 H 1683.7 -3.70134 -2.16098 0
M  V30 17393 H 1687.88 -4.61911 -1.81527 0
M  V30 17394 H 1683.14 -5.95928 -1.36676 0
M  V30 17395 H 1687.31 -6.88741 -1.03001 0
M  V30 17396 H 1684.94 -7.55977 -0.800148 0
M  V30 17397 N 1686.51 0.822941 -1.34408 0
M  V30 17398 C 1687.44 1.94878 -1.28627 0
M  V30 17399 C 1688.42 1.6931 -0.163727 0
M  V30 17400 O 1689.61 1.90908 -0.356083 0
M  V30 17401 C 1686.74 3.31333 -1.04094 0
M  V30 17402 C 1685.69 3.71341 -2.12814 0
M  V30 17403 C 1685.02 5.05779 -1.73469 0
M  V30 17404 C 1686.32 3.83439 -3.54643 0
M  V30 17405 H 1688.01 1.99972 -2.22827 0
M  V30 17406 H 1685.56 0.960715 -1.07267 0
M  V30 17407 H 1687.51 4.0968 -0.986947 0
M  V30 17408 H 1686.24 3.26539 -0.0633642 0
M  V30 17409 H 1684.89 2.95269 -2.17282 0
M  V30 17410 H 1684.54 4.97471 -0.743727 0
M  V30 17411 H 1684.24 5.33518 -2.46236 0
M  V30 17412 H 1685.77 5.86583 -1.69566 0
M  V30 17413 H 1687.18 4.52057 -3.52587 0
M  V30 17414 H 1685.58 4.22632 -4.2603 0
M  V30 17415 H 1686.65 2.85439 -3.91986 0
M  V30 17416 N 1687.99 1.18137 1.04314 0
M  V30 17417 C 1689.22 1.00062 1.81666 0
M  V30 17418 C 1689.64 -0.446281 1.82729 0
M  V30 17419 O 1689 -1.32004 1.24277 0
M  V30 17420 C 1689.05 1.55698 3.25255 0
M  V30 17421 O 1688.15 0.776662 4.05021 0
M  V30 17422 H 1687.49 0.354651 0.561354 0
M  V30 17423 H 1690.02 1.56837 1.3139 0
M  V30 17424 H 1690.03 1.58303 3.76037 0
M  V30 17425 H 1688.71 2.61016 3.23795 0
M  V30 17426 H 1687.28 0.822723 3.63711 0
M  V30 17427 N 1689.47 -1.23186 0.98301 0
M  V30 17428 C 1690.42 -2.24748 0.525082 0
M  V30 17429 C 1691.39 -1.60237 -0.437411 0
M  V30 17430 O 1692.57 -1.87666 -0.344376 0
M  V30 17431 C 1689.71 -3.44711 -0.163809 0
M  V30 17432 C 1688.82 -4.23769 0.839254 0
M  V30 17433 C 1687.96 -5.31053 0.1249 0
M  V30 17434 C 1687 -6.01822 1.117 0
M  V30 17435 N 1686.13 -7.00772 0.431625 0
M  V30 17436 H 1690.97 -2.63283 1.39593 0
M  V30 17437 H 1688.51 -1.29407 0.699438 0
M  V30 17438 H 1690.47 -4.13148 -0.580046 0
M  V30 17439 H 1689.1 -3.06969 -0.998507 0
M  V30 17440 H 1688.15 -3.54724 1.37386 0
M  V30 17441 H 1689.46 -4.72606 1.59515 0
M  V30 17442 H 1688.62 -6.05698 -0.348569 0
M  V30 17443 H 1687.36 -4.83165 -0.663573 0
M  V30 17444 H 1686.36 -5.25967 1.6012 0
M  V30 17445 H 1687.59 -6.51799 1.90618 0
M  V30 17446 H 1685.53 -6.55131 -0.337592 0
M  V30 17447 H 1685.45 -7.47566 1.12613 0
M  V30 17448 H 1686.72 -7.79498 -0.0193703 0
M  V30 17449 N 1690.95 -0.754982 -1.38339 0
M  V30 17450 C 1691.88 -0.143678 -2.33058 0
M  V30 17451 C 1692.86 0.702022 -1.54938 0
M  V30 17452 O 1694.04 0.642922 -1.83249 0
M  V30 17453 C 1691.17 0.749194 -3.39123 0
M  V30 17454 C 1690.13 0.00611459 -4.28 0
M  V30 17455 C 1689.45 1.01733 -5.24933 0
M  V30 17456 C 1690.75 -1.1631 -5.09185 0
M  V30 17457 H 1692.45 -0.934907 -2.84429 0
M  V30 17458 H 1689.99 -0.451023 -1.36754 0
M  V30 17459 H 1691.95 1.18653 -4.04351 0
M  V30 17460 H 1690.67 1.57276 -2.86237 0
M  V30 17461 H 1689.33 -0.411816 -3.6428 0
M  V30 17462 H 1688.98 1.83499 -4.68334 0
M  V30 17463 H 1688.68 0.524783 -5.85252 0
M  V30 17464 H 1690.2 1.45395 -5.93037 0
M  V30 17465 H 1691.61 -0.803244 -5.67645 0
M  V30 17466 H 1690.01 -1.5866 -5.78746 0
M  V30 17467 H 1691.08 -1.97533 -4.42842 0
M  V30 17468 N 1692.42 1.49318 -0.504168 0
M  V30 17469 C 1693.37 2.29185 0.272566 0
M  V30 17470 C 1694.34 1.35726 0.957476 0
M  V30 17471 O 1695.53 1.64684 0.963524 0
M  V30 17472 C 1692.67 3.18477 1.32916 0
M  V30 17473 C 1691.78 4.26995 0.655704 0
M  V30 17474 C 1690.91 5.03498 1.69301 0
M  V30 17475 C 1689.95 6.0385 1.0016 0
M  V30 17476 N 1689.09 6.73507 1.98325 0
M  V30 17477 H 1693.93 2.951 -0.41474 0
M  V30 17478 H 1691.47 1.455 -0.216372 0
M  V30 17479 H 1693.43 3.68624 1.95377 0
M  V30 17480 H 1692.06 2.54539 1.98519 0
M  V30 17481 H 1691.11 3.80311 -0.0822653 0
M  V30 17482 H 1692.42 4.98675 0.111584 0
M  V30 17483 H 1691.57 5.5753 2.39259 0
M  V30 17484 H 1690.31 4.31599 2.27099 0
M  V30 17485 H 1689.32 5.49046 0.287811 0
M  V30 17486 H 1690.54 6.77737 0.430073 0
M  V30 17487 H 1688.49 6.04376 2.55079 0
M  V30 17488 H 1688.41 7.41174 1.48988 0
M  V30 17489 H 1689.67 7.32141 2.67561 0
M  V30 17490 N 1693.9 0.238138 1.5579 0
M  V30 17491 C 1694.83 -0.697701 2.18323 0
M  V30 17492 C 1695.85 -1.1453 1.15701 0
M  V30 17493 O 1697.04 -1.07359 1.42605 0
M  V30 17494 C 1694.14 -1.95895 2.76547 0
M  V30 17495 C 1693.31 -1.66422 4.04503 0
M  V30 17496 C 1692.37 -2.77419 4.4713 0
M  V30 17497 O 1691.39 -2.45179 5.13689 0
M  V30 17498 N 1692.6 -4.06731 4.14187 0
M  V30 17499 H 1695.36 -0.162705 2.99258 0
M  V30 17500 H 1692.92 0.0577602 1.61797 0
M  V30 17501 H 1694.91 -2.69374 3.02026 0
M  V30 17502 H 1693.48 -2.40398 1.99819 0
M  V30 17503 H 1692.7 -0.76505 3.86705 0
M  V30 17504 H 1693.99 -1.44183 4.87943 0
M  V30 17505 H 1693.39 -4.3576 3.60735 0
M  V30 17506 H 1691.95 -4.76701 4.44521 0
M  V30 17507 N 1695.38 -1.57561 -0.0350783 0
M  V30 17508 C 1696.31 -2.09201 -1.03716 0
M  V30 17509 C 1697.29 -0.993231 -1.3809 0
M  V30 17510 O 1698.48 -1.26812 -1.47079 0
M  V30 17511 C 1695.61 -2.56643 -2.3399 0
M  V30 17512 C 1694.56 -3.70731 -2.13874 0
M  V30 17513 C 1693.89 -4.04358 -3.49855 0
M  V30 17514 C 1695.19 -4.99393 -1.52982 0
M  V30 17515 H 1696.88 -2.93176 -0.60731 0
M  V30 17516 H 1694.43 -1.41036 -0.290683 0
M  V30 17517 H 1696.38 -2.9139 -3.04417 0
M  V30 17518 H 1695.1 -1.69744 -2.79024 0
M  V30 17519 H 1693.76 -3.36325 -1.45881 0
M  V30 17520 H 1693.41 -3.14534 -3.92527 0
M  V30 17521 H 1693.11 -4.81201 -3.37223 0
M  V30 17522 H 1694.63 -4.41633 -4.21654 0
M  V30 17523 H 1696.05 -5.32135 -2.13319 0
M  V30 17524 H 1694.45 -5.80807 -1.50943 0
M  V30 17525 H 1695.52 -4.82367 -0.494993 0
M  V30 17526 N 1696.86 0.307236 -1.54576 0
M  V30 17527 C 1698.27 0.88064 -1.64626 0
M  V30 17528 C 1698.62 1.88308 -0.550865 0
M  V30 17529 O 1697.75 2.14116 0.313553 0
M  V30 17530 C 1698.34 1.60405 -2.98422 0
M  V30 17531 C 1696.9 2.12595 -3.10613 0
M  V30 17532 C 1696.05 0.956593 -2.60278 0
M  V30 17533 H 1699 0.0843939 -1.58475 0
M  V30 17534 H 1699.02 2.46925 -2.89496 0
M  V30 17535 H 1698.53 0.874209 -3.78126 0
M  V30 17536 H 1696.63 2.88644 -2.35617 0
M  V30 17537 H 1696.74 2.36475 -4.16673 0
M  V30 17538 H 1695.11 1.3404 -2.16576 0
M  V30 17539 H 1695.89 0.24081 -3.42454 0
M  V30 17540 N 1698.34 1.46926 0.570122 0
M  V30 17541 C 1699.27 1.61311 1.68822 0
M  V30 17542 C 1700.25 0.462964 1.63678 0
M  V30 17543 O 1701.43 0.690745 1.815 0
M  V30 17544 C 1698.56 1.61499 3.07466 0
M  V30 17545 C 1697.52 2.7561 3.27449 0
M  V30 17546 C 1696.84 2.60865 4.66748 0
M  V30 17547 C 1698.14 4.17324 3.14067 0
M  V30 17548 H 1699.84 2.54909 1.5704 0
M  V30 17549 H 1697.38 1.22677 0.754077 0
M  V30 17550 H 1699.34 1.70155 3.8552 0
M  V30 17551 H 1698.06 0.64453 3.20177 0
M  V30 17552 H 1696.72 2.66444 2.51799 0
M  V30 17553 H 1696.37 1.61875 4.76241 0
M  V30 17554 H 1696.07 3.37411 4.81069 0
M  V30 17555 H 1697.59 2.7143 5.46954 0
M  V30 17556 H 1699 4.27534 3.81952 0
M  V30 17557 H 1697.4 4.94555 3.39905 0
M  V30 17558 H 1698.47 4.36596 2.10979 0
M  V30 17559 N 1699.82 -0.815801 1.34842 0
M  V30 17560 C 1700.75 -1.94193 1.29659 0
M  V30 17561 C 1701.73 -1.69221 0.172703 0
M  V30 17562 O 1702.91 -1.90716 0.366203 0
M  V30 17563 C 1700.04 -3.30777 1.0585 0
M  V30 17564 C 1699 -3.70207 2.1478 0
M  V30 17565 C 1698.32 -5.04852 1.76149 0
M  V30 17566 C 1699.62 -3.81553 3.56671 0
M  V30 17567 H 1701.32 -1.98787 2.23884 0
M  V30 17568 H 1698.86 -0.955013 1.07775 0
M  V30 17569 H 1700.81 -4.0915 1.00866 0
M  V30 17570 H 1699.54 -3.265 0.0806804 0
M  V30 17571 H 1698.2 -2.94113 2.18845 0
M  V30 17572 H 1697.85 -4.9707 0.770099 0
M  V30 17573 H 1697.55 -5.32205 2.49062 0
M  V30 17574 H 1699.07 -5.85676 1.72674 0
M  V30 17575 H 1700.48 -4.50181 3.54979 0
M  V30 17576 H 1698.88 -4.20367 4.28266 0
M  V30 17577 H 1699.95 -2.83356 3.93494 0
M  V30 17578 N 1701.29 -1.18689 -1.03686 0
M  V30 17579 C 1702.2 -0.932473 -2.15272 0
M  V30 17580 C 1703.22 0.104751 -1.73684 0
M  V30 17581 O 1704.4 -0.0780471 -2.01249 0
M  V30 17582 C 1701.46 -0.465807 -3.43557 0
M  V30 17583 C 1700.52 -1.57146 -3.99504 0
M  V30 17584 C 1699.75 -1.12696 -5.21666 0
M  V30 17585 O 1699.98 0.0127657 -5.70399 0
M  V30 17586 O 1698.91 -1.92627 -5.70244 0
M  V30 17587 H 1702.74 -1.86626 -2.39592 0
M  V30 17588 H 1700.32 -0.969029 -1.13711 0
M  V30 17589 H 1702.2 -0.213819 -4.20857 0
M  V30 17590 H 1700.88 0.43964 -3.20701 0
M  V30 17591 H 1699.79 -1.8775 -3.23575 0
M  V30 17592 H 1701.12 -2.45317 -4.26709 0
M  V30 17593 N 1702.77 1.22662 -0.989529 0
M  V30 17594 C 1704 1.95883 -0.681511 0
M  V30 17595 C 1704.42 1.72646 0.746646 0
M  V30 17596 O 1703.78 1.00358 1.5099 0
M  V30 17597 C 1703.83 3.46773 -0.988975 0
M  V30 17598 O 1702.93 4.12311 -0.0858485 0
M  V30 17599 H 1702.27 0.612916 -0.255401 0
M  V30 17600 H 1704.8 1.5585 -1.32559 0
M  V30 17601 H 1704.81 3.97273 -0.929426 0
M  V30 17602 H 1703.49 3.63011 -2.02967 0
M  V30 17603 H 1702.06 3.7236 -0.200592 0
M  V30 17604 N 1704.25 0.762308 1.37937 0
M  V30 17605 C 1705.18 0.100528 2.28979 0
M  V30 17606 C 1706.19 -0.674409 1.48174 0
M  V30 17607 O 1707.38 -0.514059 1.70938 0
M  V30 17608 C 1704.48 -0.881478 3.27236 0
M  V30 17609 C 1703.66 -0.162349 4.37099 0
M  V30 17610 C 1702.72 -1.05636 5.15488 0
M  V30 17611 O 1701.74 -0.523636 5.66786 0
M  V30 17612 N 1702.94 -2.3836 5.29306 0
M  V30 17613 H 1705.71 0.882451 2.86414 0
M  V30 17614 H 1703.27 0.613839 1.49812 0
M  V30 17615 H 1705.26 -1.48278 3.76558 0
M  V30 17616 H 1703.83 -1.56443 2.70637 0
M  V30 17617 H 1703.05 0.61976 3.89298 0
M  V30 17618 H 1704.34 0.334928 5.07696 0
M  V30 17619 H 1703.74 -2.84087 4.89194 0
M  V30 17620 H 1702.29 -2.9352 5.8197 0
M  V30 17621 N 1705.73 -1.49049 0.51208 0
M  V30 17622 C 1706.98 -2.01677 -0.0303931 0
M  V30 17623 C 1707.29 -1.39594 -1.37014 0
M  V30 17624 O 1708.5 -1.83615 -1.99994 0
M  V30 17625 C 1706.95 -3.59748 -0.104605 0
M  V30 17626 C 1706.56 -4.30808 1.22916 0
M  V30 17627 C 1708.3 -4.20283 -0.596854 0
M  V30 17628 C 1706.21 -5.80765 1.11651 0
M  V30 17629 H 1705.14 -0.753848 -0.015131 0
M  V30 17630 H 1707.79 -1.71482 0.653169 0
M  V30 17631 H 1706.17 -3.86707 -0.852859 0
M  V30 17632 H 1707.35 -4.15539 1.99158 0
M  V30 17633 H 1705.66 -3.82066 1.65573 0
M  V30 17634 H 1708.26 -5.30114 -0.698821 0
M  V30 17635 H 1708.6 -3.84392 -1.59838 0
M  V30 17636 H 1709.14 -3.97686 0.0951882 0
M  V30 17637 H 1705.87 -6.212 2.09264 0
M  V30 17638 H 1705.39 -5.98497 0.395167 0
M  V30 17639 H 1707.07 -6.42038 0.799782 0
M  V30 17640 N 1707.21 -0.246397 -1.55662 0
M  V30 17641 C 1708.17 0.640041 -2.20082 0
M  V30 17642 C 1709.17 1.10313 -1.16994 0
M  V30 17643 O 1710.36 1.00792 -1.42079 0
M  V30 17644 C 1707.49 1.87964 -2.84398 0
M  V30 17645 H 1708.68 0.0780034 -2.99799 0
M  V30 17646 H 1706.24 0.00314588 -1.563 0
M  V30 17647 H 1706.97 2.48292 -2.08618 0
M  V30 17648 H 1706.76 1.5558 -3.59913 0
M  V30 17649 H 1708.25 2.51065 -3.33701 0
M  V30 17650 N 1708.68 1.57577 0.026722 0
M  V30 17651 C 1709.91 1.9364 0.728771 0
M  V30 17652 C 1710.33 0.846352 1.68767 0
M  V30 17653 O 1709.68 -0.177038 1.81639 0
M  V30 17654 C 1709.73 3.29644 1.48381 0
M  V30 17655 O 1709.46 4.34462 0.563393 0
M  V30 17656 C 1710.96 3.80004 2.2828 0
M  V30 17657 H 1708.18 0.639025 0.204666 0
M  V30 17658 H 1710.72 2.04493 -0.016449 0
M  V30 17659 H 1708.88 3.20181 2.18089 0
M  V30 17660 H 1709.29 5.12982 1.09315 0
M  V30 17661 H 1710.76 4.77671 2.76649 0
M  V30 17662 H 1711.24 3.11319 3.09802 0
M  V30 17663 H 1711.85 3.92558 1.63642 0
M  V30 17664 N 1710.16 -0.299034 1.54737 0
M  V30 17665 C 1711.41 -1.03164 1.7332 0
M  V30 17666 C 1711.72 -1.88362 0.527184 0
M  V30 17667 O 1712.93 -2.64903 0.594868 0
M  V30 17668 C 1711.39 -1.88391 3.06654 0
M  V30 17669 C 1710.99 -1.08187 4.34741 0
M  V30 17670 C 1712.74 -2.6124 3.34595 0
M  V30 17671 C 1710.64 -1.92702 5.59124 0
M  V30 17672 H 1709.57 -0.388887 0.645975 0
M  V30 17673 H 1712.23 -0.288544 1.81217 0
M  V30 17674 H 1710.61 -2.66696 2.92727 0
M  V30 17675 H 1711.78 -0.344817 4.59508 0
M  V30 17676 H 1710.1 -0.469118 4.13749 0
M  V30 17677 H 1712.69 -3.24826 4.24726 0
M  V30 17678 H 1713.04 -3.30172 2.53559 0
M  V30 17679 H 1713.57 -1.89982 3.49502 0
M  V30 17680 H 1710.31 -1.28236 6.42834 0
M  V30 17681 H 1709.83 -2.64074 5.38539 0
M  V30 17682 H 1711.51 -2.50702 5.96454 0
M  V30 17683 N 1711.64 -1.47227 -0.562322 0
M  V30 17684 C 1712.55 -1.61953 -1.69731 0
M  V30 17685 C 1713.57 -0.502478 -1.66587 0
M  V30 17686 O 1714.74 -0.769335 -1.86127 0
M  V30 17687 C 1711.81 -1.62539 -3.06238 0
M  V30 17688 C 1710.87 -2.85632 -3.20489 0
M  V30 17689 C 1710.1 -2.86181 -4.50485 0
M  V30 17690 O 1710.32 -1.96099 -5.35632 0
M  V30 17691 O 1709.26 -3.7798 -4.68417 0
M  V30 17692 H 1713.08 -2.5798 -1.6025 0
M  V30 17693 H 1710.67 -1.30253 -0.73174 0
M  V30 17694 H 1712.55 -1.65634 -3.87483 0
M  V30 17695 H 1711.23 -0.696779 -3.16112 0
M  V30 17696 H 1710.13 -2.88084 -2.3866 0
M  V30 17697 H 1711.47 -3.7777 -3.15517 0
M  V30 17698 N 1713.12 0.808639 -1.35273 0
M  V30 17699 C 1714.07 1.90962 -1.24569 0
M  V30 17700 C 1715.05 1.60277 -0.141424 0
M  V30 17701 O 1716.24 1.73037 -0.372451 0
M  V30 17702 C 1713.37 3.27864 -1.01783 0
M  V30 17703 C 1712.46 3.64622 -2.16592 0
M  V30 17704 N 1712.85 3.72831 -3.41805 0
M  V30 17705 C 1711.15 3.94563 -2.07932 0
M  V30 17706 C 1711.85 4.05271 -4.1729 0
M  V30 17707 N 1710.82 4.19246 -3.46025 0
M  V30 17708 H 1714.63 1.95508 -2.1944 0
M  V30 17709 H 1712.14 1.00311 -1.27716 0
M  V30 17710 H 1714.14 4.06576 -0.922037 0
M  V30 17711 H 1712.8 3.24606 -0.0779494 0
M  V30 17712 H 1713.81 3.55961 -3.76181 0
M  V30 17713 H 1710.49 3.99342 -1.21787 0
M  V30 17714 H 1711.88 4.18707 -5.25485 0
M  V30 17715 N 1714.6 1.19237 1.03055 0
M  V30 17716 C 1715.82 1.01983 1.80594 0
M  V30 17717 C 1716.25 -0.426875 1.83192 0
M  V30 17718 O 1715.6 -1.30678 1.2567 0
M  V30 17719 C 1715.65 1.59139 3.23585 0
M  V30 17720 O 1714.76 0.819576 4.04174 0
M  V30 17721 H 1714.1 0.360585 0.557561 0
M  V30 17722 H 1716.63 1.58222 1.29719 0
M  V30 17723 H 1716.64 1.62283 3.74337 0
M  V30 17724 H 1715.31 2.64436 3.21009 0
M  V30 17725 H 1713.89 0.861253 3.62818 0
M  V30 17726 N 1716.07 -1.22136 0.99602 0
M  V30 17727 C 1717.04 -2.22404 0.553986 0
M  V30 17728 C 1718.04 -1.56607 -0.364832 0
M  V30 17729 O 1719.23 -1.73497 -0.156358 0
M  V30 17730 C 1716.36 -3.40349 -0.193794 0
M  V30 17731 H 1717.55 -2.63026 1.44075 0
M  V30 17732 H 1715.11 -1.35241 0.78356 0
M  V30 17733 H 1715.84 -3.05204 -1.0964 0
M  V30 17734 H 1715.63 -3.89321 0.465972 0
M  V30 17735 H 1717.12 -4.14702 -0.491121 0
M  V30 17736 N 1717.55 -0.769612 -1.37531 0
M  V30 17737 C 1718.96 -0.398644 -1.82394 0
M  V30 17738 C 1719.31 1.07493 -1.64133 0
M  V30 17739 O 1718.44 1.83234 -1.15127 0
M  V30 17740 C 1719.03 -0.716789 -3.31131 0
M  V30 17741 C 1717.59 -0.398903 -3.7428 0
M  V30 17742 C 1716.74 -0.96173 -2.60089 0
M  V30 17743 H 1719.69 -0.964441 -1.26033 0
M  V30 17744 H 1719.71 -0.00067688 -3.805 0
M  V30 17745 H 1719.22 -1.78933 -3.4439 0
M  V30 17746 H 1717.33 0.666412 -3.66592 0
M  V30 17747 H 1717.44 -0.90566 -4.70462 0
M  V30 17748 H 1715.8 -0.386103 -2.51757 0
M  V30 17749 H 1716.59 -2.03963 -2.76141 0
M  V30 17750 N 1719.03 1.48775 -0.519977 0
M  V30 17751 C 1720.26 2.07394 0.0161061 0
M  V30 17752 C 1720.68 1.37532 1.28322 0
M  V30 17753 O 1720.04 0.438049 1.75928 0
M  V30 17754 C 1720.09 3.59844 0.233382 0
M  V30 17755 O 1719.19 3.91235 1.30418 0
M  V30 17756 H 1718.53 0.663094 -0.0346678 0
M  V30 17757 H 1721.06 1.91323 -0.725029 0
M  V30 17758 H 1721.07 4.05409 0.45911 0
M  V30 17759 H 1719.75 4.10098 -0.69229 0
M  V30 17760 H 1718.32 3.5746 1.0619 0
M  V30 17761 N 1720.51 0.254649 1.55529 0
M  V30 17762 C 1721.44 -0.674506 2.1905 0
M  V30 17763 C 1722.45 -1.13297 1.16909 0
M  V30 17764 O 1723.64 -1.0584 1.43736 0
M  V30 17765 C 1720.74 -1.92951 2.78609 0
M  V30 17766 C 1719.92 -1.62123 4.06245 0
M  V30 17767 C 1718.97 -2.72661 4.50047 0
M  V30 17768 O 1718 -2.39717 5.1626 0
M  V30 17769 N 1719.2 -4.02315 4.18477 0
M  V30 17770 H 1721.97 -0.130956 2.99414 0
M  V30 17771 H 1719.53 0.0749176 1.61727 0
M  V30 17772 H 1721.52 -2.66155 3.04866 0
M  V30 17773 H 1720.09 -2.38265 2.02358 0
M  V30 17774 H 1719.31 -0.723991 3.87495 0
M  V30 17775 H 1720.6 -1.39 4.89445 0
M  V30 17776 H 1720 -4.3191 3.65336 0
M  V30 17777 H 1718.55 -4.7196 4.49552 0
M  V30 17778 N 1721.99 -1.57589 -0.0183649 0
M  V30 17779 C 1722.9 -2.10665 -1.03235 0
M  V30 17780 C 1723.91 -1.04767 -1.38924 0
M  V30 17781 O 1725.09 -1.36565 -1.48027 0
M  V30 17782 C 1722.15 -2.58432 -2.31114 0
M  V30 17783 C 1721.21 -3.78856 -2.01908 0
M  V30 17784 C 1720.45 -4.24335 -3.2369 0
M  V30 17785 O 1720.67 -3.69266 -4.3474 0
M  V30 17786 O 1719.6 -5.16671 -3.08763 0
M  V30 17787 H 1723.43 -2.97485 -0.611254 0
M  V30 17788 H 1721.02 -1.47524 -0.236035 0
M  V30 17789 H 1722.9 -2.89438 -3.06274 0
M  V30 17790 H 1721.57 -1.74718 -2.72498 0
M  V30 17791 H 1720.48 -3.52852 -1.24282 0
M  V30 17792 H 1721.81 -4.63587 -1.65373 0
M  V30 17793 N 1723.46 0.290824 -1.54893 0
M  V30 17794 C 1724.43 1.34215 -1.85793 0
M  V30 17795 C 1725.43 1.43204 -0.731393 0
M  V30 17796 O 1726.62 1.42663 -0.999647 0
M  V30 17797 C 1723.75 2.72577 -2.0473 0
M  V30 17798 H 1724.94 1.08056 -2.79757 0
M  V30 17799 H 1722.5 0.528008 -1.47111 0
M  V30 17800 H 1723.23 3.03943 -1.13088 0
M  V30 17801 H 1723.02 2.67442 -2.86736 0
M  V30 17802 H 1724.51 3.48573 -2.29971 0
M  V30 17803 N 1724.94 1.47523 0.554506 0
M  V30 17804 C 1725.87 1.56275 1.67663 0
M  V30 17805 C 1726.89 0.448743 1.56493 0
M  V30 17806 O 1728.08 0.718478 1.63402 0
M  V30 17807 C 1725.18 1.45348 3.06149 0
M  V30 17808 C 1724.35 2.71364 3.43046 0
M  V30 17809 C 1723.41 2.54237 4.60706 0
M  V30 17810 O 1722.43 3.28059 4.65152 0
M  V30 17811 N 1723.64 1.6224 5.57367 0
M  V30 17812 H 1726.4 2.53036 1.60601 0
M  V30 17813 H 1723.96 1.43936 0.741209 0
M  V30 17814 H 1725.95 1.31621 3.82698 0
M  V30 17815 H 1724.52 0.566583 3.07423 0
M  V30 17816 H 1723.74 2.99833 2.55917 0
M  V30 17817 H 1725.03 3.55017 3.64473 0
M  V30 17818 H 1724.43 1.01419 5.56534 0
M  V30 17819 H 1722.99 1.54463 6.33233 0
M  V30 17820 N 1726.42 -0.801453 1.357 0
M  V30 17821 C 1727.33 -1.94505 1.31167 0
M  V30 17822 C 1728.35 -1.72657 0.215747 0
M  V30 17823 O 1729.52 -1.96399 0.446022 0
M  V30 17824 C 1726.59 -3.29175 1.08834 0
M  V30 17825 C 1725.65 -3.63883 2.27788 0
M  V30 17826 C 1724.88 -4.92127 2.06511 0
M  V30 17827 O 1725.1 -5.60947 1.03416 0
M  V30 17828 O 1724.04 -5.25213 2.93998 0
M  V30 17829 H 1727.86 -2.01277 2.27423 0
M  V30 17830 H 1725.45 -0.939979 1.16124 0
M  V30 17831 H 1727.33 -4.09787 0.98248 0
M  V30 17832 H 1726.01 -3.23322 0.156326 0
M  V30 17833 H 1724.91 -2.83627 2.4394 0
M  V30 17834 H 1726.25 -3.74446 3.19454 0
M  V30 17835 N 1727.9 -1.19782 -1.02421 0
M  V30 17836 C 1729.13 -1.02871 -1.79514 0
M  V30 17837 C 1729.54 0.422387 -1.84014 0
M  V30 17838 O 1728.9 1.29335 -1.28758 0
M  V30 17839 C 1728.95 -1.59634 -3.24344 0
M  V30 17840 O 1728.67 -2.99064 -3.20144 0
M  V30 17841 C 1730.17 -1.47571 -4.18016 0
M  V30 17842 H 1727.39 -0.362301 -0.564782 0
M  V30 17843 H 1729.94 -1.58701 -1.28974 0
M  V30 17844 H 1728.09 -1.07942 -3.72058 0
M  V30 17845 H 1728.5 -3.25859 -4.10994 0
M  V30 17846 H 1729.98 -1.92061 -5.1751 0
M  V30 17847 H 1730.46 -0.426967 -4.3712 0
M  V30 17848 H 1731.06 -1.98417 -3.76179 0
M  V30 17849 N 1729.38 1.21606 -1.00248 0
M  V30 17850 C 1730.31 2.26159 -0.580911 0
M  V30 17851 C 1731.29 1.65402 0.397017 0
M  V30 17852 O 1732.47 1.92089 0.285552 0
M  V30 17853 C 1729.6 3.47168 0.0957564 0
M  V30 17854 C 1728.56 4.20425 -0.801695 0
M  V30 17855 C 1727.88 5.34699 0.00842241 0
M  V30 17856 C 1729.18 4.78086 -2.10311 0
M  V30 17857 H 1730.88 2.61675 -1.45487 0
M  V30 17858 H 1728.42 1.25786 -0.700995 0
M  V30 17859 H 1730.38 4.19477 0.402141 0
M  V30 17860 H 1729.1 3.10775 1.00433 0
M  V30 17861 H 1727.76 3.49963 -1.09187 0
M  V30 17862 H 1727.41 4.94548 0.918206 0
M  V30 17863 H 1727.11 5.84639 -0.589105 0
M  V30 17864 H 1728.63 6.09819 0.30868 0
M  V30 17865 H 1730.05 5.42287 -1.86004 0
M  V30 17866 H 1728.44 5.38405 -2.65028 0
M  V30 17867 H 1729.51 3.97607 -2.77555 0
M  V30 17868 N 1730.86 0.776895 1.37121 0
M  V30 17869 C 1732.09 0.354582 2.03534 0
M  V30 17870 C 1732.49 -1.02976 1.58722 0
M  V30 17871 O 1731.84 -1.66956 0.766255 0
M  V30 17872 C 1731.9 0.324836 3.58029 0
M  V30 17873 C 1731.56 1.65463 4.25994 0
M  V30 17874 C 1732.56 2.60797 4.49756 0
M  V30 17875 C 1730.24 1.93049 4.63721 0
M  V30 17876 C 1732.24 3.8192 5.1031 0
M  V30 17877 C 1729.93 3.14441 5.23995 0
M  V30 17878 C 1730.92 4.08695 5.47227 0
M  V30 17879 O 1730.61 5.27949 6.06238 0
M  V30 17880 H 1730.34 0.145861 0.660076 0
M  V30 17881 H 1732.9 1.05336 1.76334 0
M  V30 17882 H 1731.13 -0.43035 3.84298 0
M  V30 17883 H 1732.82 -0.0711053 4.05838 0
M  V30 17884 H 1733.58 2.40768 4.21017 0
M  V30 17885 H 1729.46 1.20509 4.4497 0
M  V30 17886 H 1733.01 4.55502 5.28359 0
M  V30 17887 H 1728.9 3.34352 5.52158 0
M  V30 17888 H 1729.67 5.28844 6.24713 0
M  V30 17889 N 1732.33 -1.48497 0.527859 0
M  V30 17890 C 1733.58 -2.02099 -0.00699772 0
M  V30 17891 C 1733.9 -1.40742 -1.34969 0
M  V30 17892 O 1733.17 -0.572059 -1.87361 0
M  V30 17893 H 1731.75 -0.746979 -0.00557445 0
M  V30 17894 H 1734.41 -1.82231 0.691209 0
M  V30 17895 H 1733.51 -3.11881 -0.116893 0
M  V30 17896 N 1733.81 -0.262893 -1.55392 0
M  V30 17897 C 1734.76 0.645946 -2.23451 0
M  V30 17898 C 1735.75 1.16753 -1.2274 0
M  V30 17899 O 1736.96 1.12257 -1.40706 0
M  V30 17900 H 1733.33 0.226829 -0.716975 0
M  V30 17901 H 1735.31 0.0489539 -2.9836 0
M  V30 17902 C 1734.05 1.82451 -2.95985 0
M  V30 17903 H 1733.38 1.43233 -3.73262 0
M  V30 17904 H 1734.82 2.43731 -3.46945 0
M  V30 17905 C 1733.28 2.7055 -2.0076 0
M  V30 17906 O 1733.81 3.70552 -1.55093 0
M  V30 17907 N 1732.01 2.37457 -1.67519 0
M  V30 17908 H 1731.56 1.56184 -2.04852 0
M  V30 17909 H 1731.52 2.96675 -1.04074 0
M  V30 17910 N 1735.29 1.57597 0.0100073 0
M  V30 17911 C 1736.54 1.90411 0.697968 0
M  V30 17912 C 1736.87 0.862924 1.73975 0
M  V30 17913 O 1736.14 -0.119646 1.94132 0
M  V30 17914 C 1736.43 3.33828 1.35022 0
M  V30 17915 C 1736.28 4.48656 0.320659 0
M  V30 17916 C 1737.6 3.7649 2.27911 0
M  V30 17917 H 1734.72 0.692482 0.252266 0
M  V30 17918 H 1737.36 1.89959 -0.0392325 0
M  V30 17919 H 1735.51 3.34343 1.97856 0
M  V30 17920 H 1737.18 4.60276 -0.30723 0
M  V30 17921 H 1735.42 4.32319 -0.358128 0
M  V30 17922 H 1736.1 5.45937 0.815891 0
M  V30 17923 H 1738.57 3.77463 1.75104 0
M  V30 17924 H 1737.45 4.77609 2.70519 0
M  V30 17925 H 1737.71 3.09801 3.15398 0
M  V30 17926 N 1736.77 -0.282606 1.55045 0
M  V30 17927 C 1737.7 -1.37115 1.83663 0
M  V30 17928 C 1738.71 -1.45985 0.720563 0
M  V30 17929 O 1739.9 -1.47974 0.998294 0
M  V30 17930 C 1737 -2.7533 1.97603 0
M  V30 17931 C 1736.17 -2.89168 3.28177 0
M  V30 17932 C 1735.23 -4.07997 3.32302 0
M  V30 17933 O 1734.26 -3.9921 4.05734 0
M  V30 17934 N 1735.46 -5.19512 2.59013 0
M  V30 17935 H 1738.23 -1.12914 2.77616 0
M  V30 17936 H 1735.79 -0.472711 1.54845 0
M  V30 17937 H 1737.78 -3.531 1.97743 0
M  V30 17938 H 1736.35 -2.92396 1.1056 0
M  V30 17939 H 1735.57 -1.9836 3.40657 0
M  V30 17940 H 1736.86 -2.95338 4.1431 0
M  V30 17941 H 1736.26 -5.29536 1.99018 0
M  V30 17942 H 1734.81 -5.95549 2.64887 0
M  V30 17943 N 1738.25 -1.47815 -0.546675 0
M  V30 17944 C 1739.48 -1.58384 -1.32658 0
M  V30 17945 C 1739.88 -0.236934 -1.87711 0
M  V30 17946 O 1739.23 0.781521 -1.66247 0
M  V30 17947 C 1739.29 -2.55766 -2.52634 0
M  V30 17948 C 1738.95 -4.01222 -2.18791 0
M  V30 17949 C 1739.95 -4.89399 -1.75455 0
M  V30 17950 C 1737.63 -4.46637 -2.29827 0
M  V30 17951 C 1739.63 -6.21014 -1.43598 0
M  V30 17952 C 1737.32 -5.78277 -1.97582 0
M  V30 17953 C 1738.31 -6.65288 -1.54536 0
M  V30 17954 O 1738 -7.9448 -1.22706 0
M  V30 17955 H 1737.73 -0.537236 -0.410309 0
M  V30 17956 H 1740.29 -1.94235 -0.667988 0
M  V30 17957 H 1738.52 -2.15003 -3.2142 0
M  V30 17958 H 1740.21 -2.56349 -3.14706 0
M  V30 17959 H 1740.97 -4.55556 -1.66414 0
M  V30 17960 H 1736.85 -3.79111 -2.62289 0
M  V30 17961 H 1740.4 -6.88885 -1.09926 0
M  V30 17962 H 1736.29 -6.1166 -2.06259 0
M  V30 17963 H 1737.06 -8.07081 -1.36246 0
M  V30 17964 N 1739.72 0.794246 -1.36123 0
M  V30 17965 C 1740.65 1.92105 -1.32732 0
M  V30 17966 C 1741.63 1.68925 -0.199603 0
M  V30 17967 O 1742.82 1.90109 -0.396498 0
M  V30 17968 C 1739.95 3.29051 -1.11098 0
M  V30 17969 C 1738.9 3.66743 -2.20643 0
M  V30 17970 C 1738.23 5.01986 -1.84159 0
M  V30 17971 C 1739.53 3.75831 -3.62696 0
M  V30 17972 H 1741.22 1.952 -2.27018 0
M  V30 17973 H 1738.77 0.937746 -1.09281 0
M  V30 17974 H 1740.72 4.07494 -1.07362 0
M  V30 17975 H 1739.45 3.26331 -0.132614 0
M  V30 17976 H 1738.11 2.90594 -2.23497 0
M  V30 17977 H 1737.75 4.95782 -0.849081 0
M  V30 17978 H 1737.45 5.28175 -2.57497 0
M  V30 17979 H 1738.98 5.82855 -1.8197 0
M  V30 17980 H 1740.39 4.44476 -3.62096 0
M  V30 17981 H 1738.79 4.135 -4.34899 0
M  V30 17982 H 1739.86 2.7706 -3.97952 0
M  V30 17983 N 1741.2 1.20323 1.01785 0
M  V30 17984 C 1742.16 0.9527 2.08462 0
M  V30 17985 C 1743.16 -0.0712564 1.60642 0
M  V30 17986 O 1744.35 0.164672 1.7342 0
M  V30 17987 C 1741.49 0.434052 3.38125 0
M  V30 17988 H 1742.68 1.89895 2.32121 0
M  V30 17989 H 1740.23 1.01843 1.18565 0
M  V30 17990 H 1740.97 -0.51772 3.20141 0
M  V30 17991 H 1740.75 1.17248 3.74159 0
M  V30 17992 H 1742.24 0.278215 4.16672 0
M  V30 17993 N 1742.68 -1.21073 1.00892 0
M  V30 17994 C 1743.63 -2.21426 0.543574 0
M  V30 17995 C 1744.61 -1.55927 -0.396938 0
M  V30 17996 O 1745.81 -1.75613 -0.221152 0
M  V30 17997 C 1742.93 -3.43074 -0.124494 0
M  V30 17998 C 1742.02 -4.15753 0.837269 0
M  V30 17999 N 1742.41 -4.64936 1.99168 0
M  V30 18000 C 1740.71 -4.41142 0.656473 0
M  V30 18001 C 1741.41 -5.20527 2.59666 0
M  V30 18002 N 1740.39 -5.10133 1.87792 0
M  V30 18003 H 1744.19 -2.5711 1.42378 0
M  V30 18004 H 1741.7 -1.36923 0.873254 0
M  V30 18005 H 1743.7 -4.14181 -0.475363 0
M  V30 18006 H 1742.36 -3.08897 -1.00064 0
M  V30 18007 H 1743.37 -4.60392 2.37191 0
M  V30 18008 H 1740.05 -4.17144 -0.172261 0
M  V30 18009 H 1741.44 -5.69011 3.57318 0
M  V30 18010 N 1744.16 -0.784156 -1.36707 0
M  V30 18011 C 1745.39 -0.365371 -2.03344 0
M  V30 18012 C 1745.8 1.02133 -1.59266 0
M  V30 18013 O 1745.14 1.66547 -0.775098 0
M  V30 18014 C 1745.2 -0.343819 -3.57852 0
M  V30 18015 C 1744.87 -1.6772 -4.25111 0
M  V30 18016 C 1745.86 -2.63179 -4.48367 0
M  V30 18017 C 1743.55 -1.95505 -4.62691 0
M  V30 18018 C 1745.54 -3.84621 -5.08277 0
M  V30 18019 C 1743.23 -3.17215 -5.2232 0
M  V30 18020 C 1744.23 -4.11592 -5.45052 0
M  V30 18021 O 1743.91 -5.31157 -6.0343 0
M  V30 18022 H 1743.65 -0.14936 -0.659293 0
M  V30 18023 H 1746.2 -1.06269 -1.75772 0
M  V30 18024 H 1744.43 0.409964 -3.84521 0
M  V30 18025 H 1746.12 0.0495818 -4.0587 0
M  V30 18026 H 1746.89 -2.42998 -4.19735 0
M  V30 18027 H 1742.76 -1.22867 -4.44325 0
M  V30 18028 H 1746.31 -4.58298 -5.25936 0
M  V30 18029 H 1742.21 -3.37276 -5.50377 0
M  V30 18030 H 1742.97 -5.32149 -6.219 0
M  V30 18031 N 1745.64 1.48215 -0.535727 0
M  V30 18032 C 1746.88 2.04399 -0.0058065 0
M  V30 18033 C 1747.24 1.40332 1.31037 0
M  V30 18034 O 1748.44 1.87437 1.92668 0
M  V30 18035 C 1746.71 3.57237 0.107773 0
M  V30 18036 S 1748.27 4.34857 0.586926 0
M  V30 18037 H 1745.09 0.710846 -0.0148167 0
M  V30 18038 H 1747.69 1.81854 -0.717592 0
M  V30 18039 H 1746.4 4.01398 -0.85488 0
M  V30 18040 H 1745.93 3.84245 0.843764 0
M  V30 18041 H 1747.94 4.60405 1.85045 0
M  V30 18042 N 1747.11 0.27113 1.5525 0
M  V30 18043 C 1748.53 -0.0831186 1.59383 0
M  V30 18044 C 1748.73 -1.54931 1.28835 0
M  V30 18045 O 1747.79 -2.29756 1.0473 0
M  V30 18046 C 1749.1 0.287921 2.99318 0
M  V30 18047 C 1750.65 0.234209 3.12123 0
M  V30 18048 C 1751.12 0.57963 4.54317 0
M  V30 18049 N 1752.61 0.531033 4.60146 0
M  V30 18050 C 1753.35 0.771156 5.68191 0
M  V30 18051 N 1752.84 1.07569 6.84398 0
M  V30 18052 N 1754.64 0.700223 5.57722 0
M  V30 18053 H 1746.79 1.22702 1.73373 0
M  V30 18054 H 1749.05 0.495424 0.808244 0
M  V30 18055 H 1748.76 1.30746 3.26494 0
M  V30 18056 H 1748.63 -0.373205 3.75349 0
M  V30 18057 H 1751.02 -0.776035 2.84713 0
M  V30 18058 H 1751.1 0.929535 2.38313 0
M  V30 18059 H 1750.74 1.58754 4.82452 0
M  V30 18060 H 1750.67 -0.137442 5.26421 0
M  V30 18061 H 1753.16 0.305377 3.76664 0
M  V30 18062 H 1753.48 1.24568 7.62694 0
M  V30 18063 H 1751.82 1.11342 6.86023 0
M  V30 18064 H 1755.01 0.462183 4.65813 0
M  V30 18065 H 1755.19 0.890744 6.41849 0
M  V30 18066 N 1748.59 -1.576 -0.00164943 0
M  V30 18067 C 1749.54 -2.08318 -0.993594 0
M  V30 18068 C 1750.51 -0.978234 -1.34238 0
M  V30 18069 O 1751.69 -1.25056 -1.44103 0
M  V30 18070 C 1748.83 -2.58982 -2.28084 0
M  V30 18071 C 1747.95 -3.83372 -1.99123 0
M  V30 18072 C 1747.08 -4.22543 -3.21917 0
M  V30 18073 C 1746.12 -5.39774 -2.88635 0
M  V30 18074 N 1745.26 -5.74247 -4.03962 0
M  V30 18075 H 1750.1 -2.92802 -0.554154 0
M  V30 18076 H 1747.64 -1.44748 -0.261973 0
M  V30 18077 H 1749.59 -2.86434 -3.03334 0
M  V30 18078 H 1748.22 -1.77374 -2.697 0
M  V30 18079 H 1747.28 -3.62838 -1.14248 0
M  V30 18080 H 1748.59 -4.68722 -1.70591 0
M  V30 18081 H 1747.74 -4.51268 -4.05514 0
M  V30 18082 H 1746.48 -3.35899 -3.53587 0
M  V30 18083 H 1745.49 -5.10774 -2.03445 0
M  V30 18084 H 1746.71 -6.28094 -2.58215 0
M  V30 18085 H 1744.66 -4.9056 -4.35531 0
M  V30 18086 H 1744.57 -6.54167 -3.78948 0
M  V30 18087 H 1745.84 -6.07563 -4.88352 0
M  V30 18088 N 1750.07 0.274379 -1.55193 0
M  V30 18089 C 1751.32 1.00617 -1.75734 0
M  V30 18090 C 1751.65 1.86334 -0.557679 0
M  V30 18091 O 1750.9 1.90221 0.459848 0
M  V30 18092 C 1751.2 1.91958 -3.01475 0
M  V30 18093 C 1750.87 1.22002 -4.34081 0
M  V30 18094 C 1749.53 1.02658 -4.70122 0
M  V30 18095 C 1751.88 0.722087 -5.16174 0
M  V30 18096 C 1749.21 0.322465 -5.85813 0
M  V30 18097 C 1751.56 0.0315683 -6.32592 0
M  V30 18098 C 1750.22 -0.173595 -6.67274 0
M  V30 18099 H 1749.49 0.368182 -0.643058 0
M  V30 18100 H 1752.14 0.278579 -1.89463 0
M  V30 18101 H 1750.45 2.71333 -2.8264 0
M  V30 18102 H 1752.14 2.48698 -3.14564 0
M  V30 18103 H 1748.73 1.3807 -4.05752 0
M  V30 18104 H 1752.92 0.859163 -4.88807 0
M  V30 18105 H 1748.17 0.152775 -6.11209 0
M  V30 18106 H 1752.35 -0.362033 -6.95458 0
M  V30 18107 H 1749.97 -0.721178 -7.56771 0
M  V30 18108 N 1751.55 1.48103 0.538828 0
M  V30 18109 C 1752.51 1.61495 1.62641 0
M  V30 18110 C 1753.51 0.488792 1.53191 0
M  V30 18111 O 1754.7 0.754355 1.57019 0
M  V30 18112 C 1751.83 1.57681 3.02241 0
M  V30 18113 H 1753.03 2.58462 1.5211 0
M  V30 18114 H 1750.58 1.36567 0.760201 0
M  V30 18115 H 1751.31 0.621583 3.18287 0
M  V30 18116 H 1751.1 2.3943 3.10509 0
M  V30 18117 H 1752.59 1.70228 3.81329 0
M  V30 18118 N 1753.03 -0.787016 1.36542 0
M  V30 18119 C 1754.44 -1.36234 1.2766 0
M  V30 18120 C 1754.79 -1.96026 -0.0825391 0
M  V30 18121 O 1753.91 -1.92731 -0.984059 0
M  V30 18122 C 1754.51 -2.47684 2.31167 0
M  V30 18123 C 1753.07 -3.01026 2.25966 0
M  V30 18124 C 1752.21 -1.74122 2.15816 0
M  V30 18125 H 1755.17 -0.58847 1.47386 0
M  V30 18126 H 1755.19 -3.26765 1.94949 0
M  V30 18127 H 1754.7 -2.04136 3.30076 0
M  V30 18128 H 1752.8 -3.48988 1.30531 0
M  V30 18129 H 1752.91 -3.57677 3.18754 0
M  V30 18130 H 1751.28 -1.9645 1.6211 0
M  V30 18131 H 1752.06 -1.32699 3.16616 0
M  V30 18132 N 1754.5 -1.20861 -1.01145 0
M  V30 18133 C 1755.43 -0.986058 -2.11658 0
M  V30 18134 C 1756.42 0.0867558 -1.69879 0
M  V30 18135 O 1757.6 -0.0717892 -1.94067 0
M  V30 18136 C 1754.73 -0.542938 -3.4303 0
M  V30 18137 C 1753.68 -1.55958 -3.98574 0
M  V30 18138 C 1753.01 -0.972917 -5.25774 0
M  V30 18139 C 1754.31 -2.94471 -4.31375 0
M  V30 18140 H 1756 -1.91035 -2.30534 0
M  V30 18141 H 1753.55 -0.919914 -1.10786 0
M  V30 18142 H 1755.5 -0.374446 -4.19733 0
M  V30 18143 H 1754.23 0.416988 -3.23927 0
M  V30 18144 H 1752.89 -1.71552 -3.23984 0
M  V30 18145 H 1752.53 -0.00490446 -5.03 0
M  V30 18146 H 1752.23 -1.65194 -5.63901 0
M  V30 18147 H 1753.76 -0.815607 -6.05128 0
M  V30 18148 H 1755.17 -2.82358 -4.98946 0
M  V30 18149 H 1753.57 -3.59327 -4.80629 0
M  V30 18150 H 1754.64 -3.45804 -3.39923 0
M  V30 18151 N 1755.98 1.20536 -1.01532 0
M  V30 18152 C 1757.21 1.93571 -0.722055 0
M  V30 18153 C 1757.62 1.74923 0.721011 0
M  V30 18154 O 1756.96 1.05961 1.5006 0
M  V30 18155 C 1757.03 3.45989 -0.97632 0
M  V30 18156 C 1756.69 3.88397 -2.40825 0
M  V30 18157 C 1757.69 3.94262 -3.38901 0
M  V30 18158 C 1755.37 4.20422 -2.74865 0
M  V30 18159 C 1757.37 4.3156 -4.69078 0
M  V30 18160 C 1755.05 4.57395 -4.05256 0
M  V30 18161 C 1756.05 4.62937 -5.02174 0
M  V30 18162 O 1755.74 4.99063 -6.30232 0
M  V30 18163 H 1755.47 0.622101 -0.264511 0
M  V30 18164 H 1758.02 1.5401 -1.35905 0
M  V30 18165 H 1756.25 3.85669 -0.282161 0
M  V30 18166 H 1757.94 4.00251 -0.674832 0
M  V30 18167 H 1758.71 3.69686 -3.13938 0
M  V30 18168 H 1754.59 4.153 -2.00117 0
M  V30 18169 H 1758.13 4.358 -5.44724 0
M  V30 18170 H 1754.03 4.81427 -4.29998 0
M  V30 18171 H 1754.8 5.1706 -6.34501 0
M  V30 18172 N 1757.46 0.791395 1.36289 0
M  V30 18173 C 1758.42 0.197069 2.28351 0
M  V30 18174 C 1759.42 -0.606748 1.48913 0
M  V30 18175 O 1760.61 -0.427453 1.68874 0
M  V30 18176 C 1757.75 -0.727009 3.33058 0
M  V30 18177 H 1758.94 1.00885 2.82422 0
M  V30 18178 H 1756.49 0.560959 1.45887 0
M  V30 18179 H 1757.23 -1.56306 2.84146 0
M  V30 18180 H 1757.01 -0.152537 3.91803 0
M  V30 18181 H 1758.5 -1.13765 4.01805 0
M  V30 18182 N 1758.94 -1.47929 0.54358 0
M  V30 18183 C 1759.9 -2.28316 -0.201107 0
M  V30 18184 C 1760.9 -1.36165 -0.855313 0
M  V30 18185 O 1762.09 -1.58928 -0.71327 0
M  V30 18186 C 1759.22 -3.1545 -1.29245 0
M  V30 18187 H 1760.42 -2.9562 0.504848 0
M  V30 18188 H 1757.97 -1.53394 0.300011 0
M  V30 18189 H 1758.71 -2.52807 -2.03124 0
M  V30 18190 H 1758.49 -3.83251 -0.82832 0
M  V30 18191 H 1759.98 -3.76053 -1.81587 0
M  V30 18192 N 1760.42 -0.27936 -1.55104 0
M  V30 18193 C 1761.33 0.616249 -2.26361 0
M  V30 18194 C 1762.34 1.16656 -1.29102 0
M  V30 18195 O 1763.52 1.19596 -1.62046 0
M  V30 18196 C 1760.58 1.78191 -2.97403 0
M  V30 18197 C 1759.65 1.26785 -4.10151 0
M  V30 18198 C 1758.88 2.37795 -4.77796 0
M  V30 18199 O 1759.1 3.57242 -4.44673 0
M  V30 18200 O 1758.04 2.05711 -5.65656 0
M  V30 18201 H 1761.86 0.0388715 -3.03675 0
M  V30 18202 H 1759.45 -0.0466058 -1.49327 0
M  V30 18203 H 1761.33 2.4615 -3.42036 0
M  V30 18204 H 1760 2.3463 -2.23003 0
M  V30 18205 H 1758.91 0.554608 -3.69966 0
M  V30 18206 H 1760.24 0.749157 -4.86465 0
M  V30 18207 N 1761.9 1.57599 -0.0067085 0
M  V30 18208 C 1762.86 2.07783 0.967417 0
M  V30 18209 C 1763.86 0.988498 1.26828 0
M  V30 18210 O 1765.05 1.25091 1.21235 0
M  V30 18211 C 1762.18 2.52491 2.29044 0
M  V30 18212 H 1763.37 2.95122 0.533201 0
M  V30 18213 H 1760.93 1.54432 0.2409 0
M  V30 18214 H 1761.66 1.68415 2.77141 0
M  V30 18215 H 1761.45 3.32054 2.08525 0
M  V30 18216 H 1762.94 2.9162 2.98911 0
M  V30 18217 N 1763.37 -0.266145 1.55336 0
M  V30 18218 C 1764.32 -1.32914 1.88686 0
M  V30 18219 C 1765.29 -1.48752 0.739048 0
M  V30 18220 O 1766.48 -1.63048 0.990951 0
M  V30 18221 C 1763.62 -2.68317 2.17026 0
M  V30 18222 C 1762.73 -2.60644 3.44512 0
M  V30 18223 C 1761.86 -3.88271 3.62517 0
M  V30 18224 C 1760.9 -3.75137 4.83672 0
M  V30 18225 N 1760.04 -4.94614 4.98299 0
M  V30 18226 H 1764.88 -1.03774 2.79347 0
M  V30 18227 H 1762.42 -0.501205 1.38298 0
M  V30 18228 H 1764.37 -3.47107 2.31458 0
M  V30 18229 H 1763 -2.95645 1.29591 0
M  V30 18230 H 1762.06 -1.73527 3.38515 0
M  V30 18231 H 1763.37 -2.46842 4.3344 0
M  V30 18232 H 1762.52 -4.75503 3.76804 0
M  V30 18233 H 1761.26 -4.04949 2.71787 0
M  V30 18234 H 1760.27 -2.86289 4.69381 0
M  V30 18235 H 1761.49 -3.59973 5.75844 0
M  V30 18236 H 1759.44 -5.11689 4.10501 0
M  V30 18237 H 1759.35 -4.83369 5.81284 0
M  V30 18238 H 1760.62 -5.83399 5.16978 0
M  V30 18239 N 1764.85 -1.48386 -0.530967 0
M  V30 18240 C 1766.27 -1.34485 -0.859412 0
M  V30 18241 C 1766.47 -0.355124 -1.98346 0
M  V30 18242 O 1765.52 0.224012 -2.51504 0
M  V30 18243 C 1766.84 -2.74488 -1.22787 0
M  V30 18244 C 1768.38 -2.82969 -1.33781 0
M  V30 18245 C 1768.86 -4.23673 -1.7397 0
M  V30 18246 N 1770.35 -4.26341 -1.81074 0
M  V30 18247 C 1771.09 -5.32149 -2.13554 0
M  V30 18248 N 1770.58 -6.48235 -2.44464 0
M  V30 18249 N 1772.37 -5.19542 -2.14551 0
M  V30 18250 H 1764.53 -2.11352 0.210713 0
M  V30 18251 H 1766.79 -0.947472 0.0316283 0
M  V30 18252 H 1766.49 -3.4847 -0.475552 0
M  V30 18253 H 1766.37 -3.0795 -2.17823 0
M  V30 18254 H 1768.76 -2.09244 -2.08089 0
M  V30 18255 H 1768.84 -2.53129 -0.368677 0
M  V30 18256 H 1768.48 -4.97914 -1.00222 0
M  V30 18257 H 1768.41 -4.50956 -2.71931 0
M  V30 18258 H 1770.9 -3.42606 -1.59467 0
M  V30 18259 H 1771.21 -7.24712 -2.6835 0
M  V30 18260 H 1769.56 -6.51512 -2.41986 0
M  V30 18261 H 1772.75 -4.27868 -1.89859 0
M  V30 18262 H 1772.92 -6.02103 -2.39532 0
M  V30 18263 N 1766.33 0.779763 -1.36958 0
M  V30 18264 C 1767.58 1.54031 -1.31918 0
M  V30 18265 C 1767.91 1.9395 0.0985685 0
M  V30 18266 O 1767.18 1.63458 1.05413 0
M  V30 18267 C 1767.47 2.81083 -2.25088 0
M  V30 18268 C 1767.32 2.47469 -3.75605 0
M  V30 18269 C 1768.64 3.82968 -2.1685 0
M  V30 18270 H 1765.76 0.558806 -0.480526 0
M  V30 18271 H 1768.4 0.895152 -1.67592 0
M  V30 18272 H 1766.55 3.36135 -1.94796 0
M  V30 18273 H 1768.22 1.98393 -4.16459 0
M  V30 18274 H 1766.46 1.80276 -3.94567 0
M  V30 18275 H 1767.14 3.38255 -4.3622 0
M  V30 18276 H 1769.61 3.37388 -2.43534 0
M  V30 18277 H 1768.49 4.69601 -2.84194 0
M  V30 18278 H 1768.75 4.26642 -1.15885 0
M  V30 18279 N 1767.81 1.21396 1.00503 0
M  V30 18280 C 1769.04 1.0556 1.77597 0
M  V30 18281 C 1769.45 -0.397591 1.84975 0
M  V30 18282 O 1768.79 -1.28764 1.31018 0
M  V30 18283 C 1768.85 1.57754 3.23039 0
M  V30 18284 C 1768.51 3.06214 3.39238 0
M  V30 18285 C 1769.51 4.03763 3.27523 0
M  V30 18286 C 1767.2 3.45418 3.6468 0
M  V30 18287 C 1769.19 5.38505 3.41015 0
M  V30 18288 C 1766.88 4.80312 3.77814 0
M  V30 18289 C 1767.88 5.76665 3.65988 0
M  V30 18290 O 1767.56 7.09111 3.78704 0
M  V30 18291 H 1767.3 0.371187 0.564975 0
M  V30 18292 H 1769.85 1.61186 1.27312 0
M  V30 18293 H 1768.08 0.965245 3.74459 0
M  V30 18294 H 1769.77 1.37762 3.81807 0
M  V30 18295 H 1770.53 3.74819 3.07791 0
M  V30 18296 H 1766.41 2.70954 3.72968 0
M  V30 18297 H 1769.96 6.13694 3.317 0
M  V30 18298 H 1765.85 5.08942 3.9705 0
M  V30 18299 H 1766.62 7.16521 3.95651 0
M  V30 18300 N 1769.29 -1.19996 1.0217 0
M  V30 18301 C 1770.24 -2.20837 0.567029 0
M  V30 18302 C 1771.22 -1.56339 -0.380377 0
M  V30 18303 O 1772.41 -1.75838 -0.202513 0
M  V30 18304 C 1769.54 -3.43187 -0.0880995 0
M  V30 18305 C 1768.63 -4.14842 0.881318 0
M  V30 18306 N 1769.02 -4.62798 2.04088 0
M  V30 18307 C 1767.32 -4.40421 0.703226 0
M  V30 18308 C 1768.02 -5.17744 2.65172 0
M  V30 18309 N 1766.99 -5.08112 1.93192 0
M  V30 18310 H 1770.79 -2.55586 1.45097 0
M  V30 18311 H 1768.31 -1.3599 0.887727 0
M  V30 18312 H 1770.31 -4.14662 -0.431407 0
M  V30 18313 H 1768.97 -3.09941 -0.967819 0
M  V30 18314 H 1769.98 -4.57851 2.42061 0
M  V30 18315 H 1766.65 -4.17304 -0.128008 0
M  V30 18316 H 1768.04 -5.65189 3.63333 0
M  V30 18317 N 1770.76 -0.798611 -1.35867 0
M  V30 18318 C 1771.69 -0.217751 -2.32482 0
M  V30 18319 C 1772.67 0.652374 -1.57093 0
M  V30 18320 O 1773.86 0.584297 -1.85202 0
M  V30 18321 C 1770.99 0.640925 -3.41335 0
M  V30 18322 C 1769.94 -0.130053 -4.27802 0
M  V30 18323 C 1769.27 0.849811 -5.27904 0
M  V30 18324 C 1770.57 -1.32451 -5.05227 0
M  V30 18325 H 1772.26 -1.02492 -2.81311 0
M  V30 18326 H 1769.81 -0.494302 -1.3525 0
M  V30 18327 H 1771.76 1.05729 -4.07921 0
M  V30 18328 H 1770.49 1.4809 -2.91096 0
M  V30 18329 H 1769.15 -0.5275 -3.62785 0
M  V30 18330 H 1768.79 1.68507 -4.73935 0
M  V30 18331 H 1768.49 0.338323 -5.86625 0
M  V30 18332 H 1770.02 1.26455 -5.97362 0
M  V30 18333 H 1771.43 -0.983429 -5.64802 0
M  V30 18334 H 1769.83 -1.76992 -5.73405 0
M  V30 18335 H 1770.9 -2.11522 -4.36333 0
M  V30 18336 N 1772.24 1.47639 -0.551417 0
M  V30 18337 C 1773.15 2.33722 0.202799 0
M  V30 18338 C 1774.17 1.47832 0.917699 0
M  V30 18339 O 1775.34 1.80772 0.887885 0
M  V30 18340 C 1772.41 3.24408 1.22313 0
M  V30 18341 C 1771.47 4.26184 0.51628 0
M  V30 18342 C 1770.7 5.12537 1.488 0
M  V30 18343 O 1770.93 5.01241 2.72238 0
M  V30 18344 O 1769.86 5.93269 1.01566 0
M  V30 18345 H 1773.69 2.99503 -0.50317 0
M  V30 18346 H 1771.27 1.46104 -0.312093 0
M  V30 18347 H 1773.15 3.80441 1.81225 0
M  V30 18348 H 1771.83 2.61262 1.91112 0
M  V30 18349 H 1770.73 3.73927 -0.113886 0
M  V30 18350 H 1772.07 4.92028 -0.130158 0
M  V30 18351 N 1773.72 0.287581 1.54954 0
M  V30 18352 C 1774.67 -0.594449 2.23013 0
M  V30 18353 C 1775.64 -1.14007 1.20795 0
M  V30 18354 O 1776.82 -1.18708 1.49376 0
M  V30 18355 C 1773.96 -1.76687 2.96439 0
M  V30 18356 C 1773.08 -1.25391 4.13402 0
M  V30 18357 C 1772.21 -2.38912 4.74441 0
M  V30 18358 C 1771.25 -1.84683 5.83574 0
M  V30 18359 N 1770.39 -2.91725 6.38624 0
M  V30 18360 H 1775.23 -0.00743921 2.97999 0
M  V30 18361 H 1772.76 0.00809578 1.47098 0
M  V30 18362 H 1774.72 -2.45621 3.37233 0
M  V30 18363 H 1773.35 -2.32571 2.23853 0
M  V30 18364 H 1772.4 -0.45726 3.77642 0
M  V30 18365 H 1773.72 -0.816813 4.92067 0
M  V30 18366 H 1772.87 -3.15818 5.18019 0
M  V30 18367 H 1771.61 -2.85943 3.95079 0
M  V30 18368 H 1770.61 -1.06261 5.39434 0
M  V30 18369 H 1771.84 -1.38572 6.64812 0
M  V30 18370 H 1769.78 -3.38115 5.62152 0
M  V30 18371 H 1769.7 -2.5247 7.12597 0
M  V30 18372 H 1770.97 -3.68569 6.86861 0
M  V30 18373 N 1775.2 -1.57593 0.0150662 0
M  V30 18374 C 1776.61 -1.5591 -0.341189 0
M  V30 18375 C 1776.81 -1.01927 -1.73819 0
M  V30 18376 O 1775.87 -0.659752 -2.43728 0
M  V30 18377 C 1777.18 -3.00016 -0.202639 0
M  V30 18378 C 1778.73 -3.11777 -0.276457 0
M  V30 18379 C 1779.21 -4.57696 -0.166859 0
M  V30 18380 N 1780.7 -4.62657 -0.224287 0
M  V30 18381 C 1781.43 -5.73168 -0.163053 0
M  V30 18382 N 1780.93 -6.92781 -0.0515442 0
M  V30 18383 N 1782.72 -5.61685 -0.216018 0
M  V30 18384 H 1774.87 -1.91018 0.92876 0
M  V30 18385 H 1777.14 -0.878048 0.3574 0
M  V30 18386 H 1776.84 -3.43409 0.759136 0
M  V30 18387 H 1776.72 -3.64285 -0.978599 0
M  V30 18388 H 1779.1 -2.68305 -1.22868 0
M  V30 18389 H 1779.18 -2.50257 0.529637 0
M  V30 18390 H 1778.83 -5.01846 0.781888 0
M  V30 18391 H 1778.76 -5.17179 -0.991635 0
M  V30 18392 H 1781.25 -3.76617 -0.311188 0
M  V30 18393 H 1781.56 -7.72799 -0.0111287 0
M  V30 18394 H 1779.91 -6.94998 -0.0169584 0
M  V30 18395 H 1783.1 -4.67128 -0.301435 0
M  V30 18396 H 1783.27 -6.4779 -0.164834 0
M  V30 18397 N 1776.68 0.257904 -1.55475 0
M  V30 18398 C 1777.61 1.34514 -1.8434 0
M  V30 18399 C 1778.59 1.46875 -0.697594 0
M  V30 18400 O 1779.77 1.63263 -0.942196 0
M  V30 18401 C 1776.9 2.71991 -2.01839 0
M  V30 18402 C 1775.94 2.76836 -3.24445 0
M  V30 18403 S 1776.78 2.34554 -4.81399 0
M  V30 18404 C 1777.93 3.73977 -5.01888 0
M  V30 18405 H 1778.17 1.09828 -2.7627 0
M  V30 18406 H 1775.7 0.458324 -1.47441 0
M  V30 18407 H 1777.66 3.51155 -2.12604 0
M  V30 18408 H 1776.32 2.9392 -1.10771 0
M  V30 18409 H 1775.51 3.77774 -3.33621 0
M  V30 18410 H 1775.11 2.05706 -3.12348 0
M  V30 18411 H 1777.41 4.69381 -4.88556 0
M  V30 18412 H 1778.35 3.69743 -6.03901 0
M  V30 18413 H 1778.76 3.6598 -4.29789 0
M  V30 18414 N 1778.15 1.48666 0.52309 0
M  V30 18415 C 1779.1 1.64155 1.6479 0
M  V30 18416 C 1780.1 0.507838 1.61609 0
M  V30 18417 O 1781.3 0.686784 1.66383 0
M  V30 18418 H 1777.68 0.517234 0.545869 0
M  V30 18419 H 1779.65 2.58611 1.48871 0
M  V30 18420 C 1778.4 1.70488 3.03033 0
M  V30 18421 H 1777.72 2.5709 3.06178 0
M  V30 18422 H 1779.16 1.85367 3.81333 0
M  V30 18423 C 1777.62 0.444984 3.33948 0
M  V30 18424 O 1778.15 -0.439107 3.99293 0
M  V30 18425 N 1776.36 0.314593 2.88892 0
M  V30 18426 H 1775.9 1.03501 2.35893 0
M  V30 18427 H 1775.86 -0.527357 3.09946 0
M  V30 18428 N 1779.63 -0.772489 1.37369 0
M  V30 18429 C 1780.58 -1.90713 1.33158 0
M  V30 18430 C 1781.57 -1.67959 0.220482 0
M  V30 18431 O 1782.78 -1.75758 0.388465 0
M  V30 18432 H 1779.16 -0.627149 0.414956 0
M  V30 18433 H 1781.13 -1.91382 2.28944 0
M  V30 18434 C 1779.88 -3.27966 1.1547 0
M  V30 18435 H 1779.2 -3.46052 2.00221 0
M  V30 18436 H 1780.64 -4.0766 1.16574 0
M  V30 18437 C 1779.1 -3.3661 -0.139688 0
M  V30 18438 O 1779.63 -3.85668 -1.12353 0
M  V30 18439 N 1777.83 -2.89977 -0.190134 0
M  V30 18440 H 1777.38 -2.50246 0.611134 0
M  V30 18441 H 1777.34 -2.96142 -1.05582 0
M  V30 18442 N 1781.11 -1.21927 -0.998575 0
M  V30 18443 C 1782.34 -1.06501 -1.77034 0
M  V30 18444 C 1782.75 0.387776 -1.85184 0
M  V30 18445 O 1782.09 1.28067 -1.31699 0
M  V30 18446 C 1782.15 -1.59465 -3.22198 0
M  V30 18447 C 1781.82 -3.08008 -3.37609 0
M  V30 18448 C 1782.81 -4.05495 -3.25377 0
M  V30 18449 C 1780.5 -3.47347 -3.62843 0
M  V30 18450 C 1782.49 -5.40306 -3.38154 0
M  V30 18451 C 1780.18 -4.82309 -3.75262 0
M  V30 18452 C 1781.18 -5.78597 -3.62924 0
M  V30 18453 O 1780.87 -7.1111 -3.74938 0
M  V30 18454 H 1780.6 -0.374178 -0.562998 0
M  V30 18455 H 1783.15 -1.61859 -1.26455 0
M  V30 18456 H 1781.38 -0.98509 -3.73942 0
M  V30 18457 H 1783.07 -1.39785 -3.81071 0
M  V30 18458 H 1783.84 -3.76446 -3.05799 0
M  V30 18459 H 1779.72 -2.72928 -3.71526 0
M  V30 18460 H 1783.26 -6.15445 -3.28441 0
M  V30 18461 H 1779.16 -5.1104 -3.94345 0
M  V30 18462 H 1779.93 -7.18609 -3.91846 0
M  V30 18463 N 1782.59 1.19452 -1.02805 0
M  V30 18464 C 1783.52 2.21405 -0.552712 0
M  V30 18465 C 1784.5 1.5745 0.405999 0
M  V30 18466 O 1785.68 1.85707 0.323296 0
M  V30 18467 C 1782.81 3.38143 0.194179 0
M  V30 18468 C 1781.86 4.2045 -0.715836 0
M  V30 18469 S 1782.69 4.88601 -2.19156 0
M  V30 18470 C 1783.85 6.08749 -1.45516 0
M  V30 18471 H 1784.08 2.61383 -1.41655 0
M  V30 18472 H 1781.61 1.29686 -0.837915 0
M  V30 18473 H 1783.57 4.05807 0.618972 0
M  V30 18474 H 1782.23 2.96602 1.03374 0
M  V30 18475 H 1781.42 5.03808 -0.139277 0
M  V30 18476 H 1781.03 3.581 -1.07891 0
M  V30 18477 H 1783.32 6.73432 -0.74131 0
M  V30 18478 H 1784.26 6.70887 -2.26531 0
M  V30 18479 H 1784.67 5.56397 -0.95302 0
M  V30 18480 N 1784.07 0.805805 1.35442 0
M  V30 18481 C 1785 0.173326 2.28544 0
M  V30 18482 C 1786.01 -0.626927 1.50245 0
M  V30 18483 O 1787.2 -0.459416 1.72487 0
M  V30 18484 C 1784.3 -0.776924 3.29874 0
M  V30 18485 C 1783.47 -0.0232073 4.37394 0
M  V30 18486 C 1782.53 -0.891823 5.18587 0
M  V30 18487 O 1781.56 -0.343052 5.68165 0
M  V30 18488 N 1782.76 -2.214 5.36621 0
M  V30 18489 H 1785.53 0.973125 2.83461 0
M  V30 18490 H 1783.09 0.66119 1.47783 0
M  V30 18491 H 1785.08 -1.36223 3.81085 0
M  V30 18492 H 1783.65 -1.47753 2.75477 0
M  V30 18493 H 1782.87 0.743298 3.87129 0
M  V30 18494 H 1784.16 0.496278 5.06374 0
M  V30 18495 H 1783.55 -2.6838 4.97985 0
M  V30 18496 H 1782.11 -2.74856 5.91014 0
M  V30 18497 N 1785.54 -1.47344 0.559239 0
M  V30 18498 C 1786.79 -2.02468 0.035943 0
M  V30 18499 C 1787.12 -1.43337 -1.31472 0
M  V30 18500 O 1786.37 -0.579355 -1.86928 0
M  V30 18501 C 1786.67 -3.57247 -0.104523 0
M  V30 18502 C 1786.34 -4.35307 1.17551 0
M  V30 18503 C 1785 -4.56354 1.52625 0
M  V30 18504 C 1787.35 -4.8031 2.02365 0
M  V30 18505 C 1784.68 -5.19653 2.72356 0
M  V30 18506 C 1787.03 -5.4493 3.213 0
M  V30 18507 C 1785.7 -5.64209 3.56685 0
M  V30 18508 H 1784.97 -0.740883 0.0131525 0
M  V30 18509 H 1787.61 -1.76992 0.73116 0
M  V30 18510 H 1785.92 -3.81727 -0.88272 0
M  V30 18511 H 1787.62 -3.97551 -0.5248 0
M  V30 18512 H 1784.21 -4.19206 0.892413 0
M  V30 18513 H 1788.39 -4.63827 1.76575 0
M  V30 18514 H 1783.65 -5.32773 2.99938 0
M  V30 18515 H 1787.82 -5.78764 3.87305 0
M  V30 18516 H 1785.45 -6.13028 4.49556 0
M  V30 18517 N 1787.02 -0.295795 -1.54799 0
M  V30 18518 C 1787.97 0.582614 -2.23325 0
M  V30 18519 C 1788.94 1.13365 -1.21398 0
M  V30 18520 O 1790.12 1.17914 -1.50003 0
M  V30 18521 C 1787.26 1.75112 -2.97371 0
M  V30 18522 C 1786.38 1.23197 -4.14061 0
M  V30 18523 C 1785.51 2.36393 -4.75701 0
M  V30 18524 C 1784.55 1.81585 -5.84545 0
M  V30 18525 N 1783.69 2.88334 -6.40162 0
M  V30 18526 H 1788.53 -0.00836451 -2.97999 0
M  V30 18527 H 1786.07 -0.0158966 -1.47091 0
M  V30 18528 H 1788.02 2.4383 -3.38531 0
M  V30 18529 H 1786.65 2.31381 -2.25084 0
M  V30 18530 H 1785.71 0.437226 -3.77879 0
M  V30 18531 H 1787.02 0.790706 -4.92493 0
M  V30 18532 H 1786.17 3.13067 -5.19687 0
M  V30 18533 H 1784.91 2.83844 -3.9659 0
M  V30 18534 H 1783.92 1.03399 -5.3999 0
M  V30 18535 H 1785.14 1.35045 -6.65537 0
M  V30 18536 H 1783.09 3.35129 -5.63937 0
M  V30 18537 H 1783 2.48687 -7.13926 0
M  V30 18538 H 1784.27 3.64921 -6.88805 0
M  V30 18539 N 1788.5 1.57583 -0.0234236 0
M  V30 18540 C 1789.73 1.95861 0.666797 0
M  V30 18541 C 1790.14 0.899616 1.65989 0
M  V30 18542 O 1789.5 -0.119162 1.82111 0
M  V30 18543 C 1789.55 3.34198 1.37818 0
M  V30 18544 O 1789.27 4.36035 0.424887 0
M  V30 18545 C 1790.77 3.87074 2.16075 0
M  V30 18546 H 1787.99 0.645213 0.184233 0
M  V30 18547 H 1790.54 2.04338 -0.0814987 0
M  V30 18548 H 1788.69 3.26958 2.07792 0
M  V30 18549 H 1789.11 5.162 0.929394 0
M  V30 18550 H 1790.58 4.8623 2.61312 0
M  V30 18551 H 1791.06 3.21017 2.99741 0
M  V30 18552 H 1791.66 3.97565 1.5107 0
M  V30 18553 N 1789.98 -0.249655 1.5561 0
M  V30 18554 C 1790.93 -1.30906 1.90085 0
M  V30 18555 C 1791.9 -1.4796 0.754784 0
M  V30 18556 O 1793.08 -1.61988 1.00819 0
M  V30 18557 C 1790.22 -2.66 2.19859 0
M  V30 18558 C 1789.33 -2.56976 3.47257 0
M  V30 18559 C 1788.47 -3.84404 3.66615 0
M  V30 18560 C 1787.51 -3.69986 4.87623 0
M  V30 18561 N 1786.65 -4.89301 5.03517 0
M  V30 18562 H 1791.49 -1.00805 2.80432 0
M  V30 18563 H 1789.02 -0.486509 1.38822 0
M  V30 18564 H 1790.98 -3.44632 2.35126 0
M  V30 18565 H 1789.61 -2.94254 1.32719 0
M  V30 18566 H 1788.66 -1.69927 3.40337 0
M  V30 18567 H 1789.97 -2.42231 4.36034 0
M  V30 18568 H 1789.13 -4.7148 3.81826 0
M  V30 18569 H 1787.87 -4.02043 2.76066 0
M  V30 18570 H 1786.87 -2.81294 4.72391 0
M  V30 18571 H 1788.1 -3.53845 5.7963 0
M  V30 18572 H 1786.04 -5.07306 4.15905 0
M  V30 18573 H 1785.96 -4.77176 5.86378 0
M  V30 18574 H 1787.23 -5.77883 5.23137 0
M  V30 18575 N 1791.46 -1.48941 -0.515198 0
M  V30 18576 C 1792.68 -1.61656 -1.29931 0
M  V30 18577 C 1793.11 -0.282529 -1.85966 0
M  V30 18578 O 1792.47 0.747914 -1.65154 0
M  V30 18579 C 1792.51 -2.6774 -2.41553 0
M  V30 18580 O 1791.62 -2.25926 -3.45009 0
M  V30 18581 H 1790.96 -0.541561 -0.384197 0
M  V30 18582 H 1793.49 -1.95032 -0.618349 0
M  V30 18583 H 1793.5 -2.89471 -2.87525 0
M  V30 18584 H 1792.17 -3.64582 -2.00131 0
M  V30 18585 H 1790.75 -2.14469 -3.05053 0
M  V30 18586 N 1792.94 0.765193 -1.37777 0
M  V30 18587 C 1794.35 1.06666 -1.1872 0
M  V30 18588 C 1794.55 2.01481 -0.0278636 0
M  V30 18589 O 1793.61 2.44514 0.630006 0
M  V30 18590 C 1794.92 1.65787 -2.50868 0
M  V30 18591 C 1796.47 1.78014 -2.57449 0
M  V30 18592 C 1796.94 2.40548 -3.89744 0
M  V30 18593 N 1798.43 2.47992 -3.91221 0
M  V30 18594 C 1799.17 2.97245 -4.9034 0
M  V30 18595 N 1798.67 3.46621 -5.99855 0
M  V30 18596 N 1800.46 2.96179 -4.77739 0
M  V30 18597 H 1792.61 0.135775 -2.11966 0
M  V30 18598 H 1794.87 0.122863 -0.940005 0
M  V30 18599 H 1794.58 1.03588 -3.36099 0
M  V30 18600 H 1794.45 2.65 -2.6843 0
M  V30 18601 H 1796.84 2.39345 -1.72621 0
M  V30 18602 H 1796.92 0.775388 -2.43765 0
M  V30 18603 H 1796.56 1.79855 -4.74989 0
M  V30 18604 H 1796.49 3.41643 -4.00734 0
M  V30 18605 H 1798.99 2.13056 -3.12114 0
M  V30 18606 H 1799.3 3.82625 -6.7143 0
M  V30 18607 H 1797.64 3.44709 -6.0349 0
M  V30 18608 H 1800.83 2.56909 -3.913 0
M  V30 18609 H 1801.01 3.34253 -5.55139 0
M  V30 18610 N 1794.41 1.22455 0.992094 0
M  V30 18611 C 1795.66 1.04373 1.72596 0
M  V30 18612 C 1795.98 -0.421349 1.91008 0
M  V30 18613 O 1797.18 -0.72186 2.61728 0
M  V30 18614 C 1795.64 1.81906 3.10545 0
M  V30 18615 C 1795.25 3.32667 3.00061 0
M  V30 18616 C 1796.99 1.72274 3.87972 0
M  V30 18617 C 1794.9 4.02638 4.3317 0
M  V30 18618 H 1793.83 0.386937 0.647144 0
M  V30 18619 H 1796.48 1.46313 1.10746 0
M  V30 18620 H 1794.86 1.32764 3.73081 0
M  V30 18621 H 1796.03 3.89208 2.46685 0
M  V30 18622 H 1794.35 3.42984 2.36117 0
M  V30 18623 H 1796.95 2.21872 4.86494 0
M  V30 18624 H 1797.29 0.68331 4.10654 0
M  V30 18625 H 1797.82 2.18963 3.32115 0
M  V30 18626 H 1794.56 5.06838 4.15687 0
M  V30 18627 H 1794.08 3.50885 4.86456 0
M  V30 18628 H 1795.76 4.08279 5.01914 0
M  V30 18629 N 1795.89 -1.18905 1.03437 0
M  V30 18630 C 1796.8 -2.25979 0.63014 0
M  V30 18631 C 1797.82 -1.70633 -0.340668 0
M  V30 18632 O 1798.99 -2.00432 -0.197174 0
M  V30 18633 C 1796.06 -3.46699 -0.00713795 0
M  V30 18634 C 1795.12 -4.17205 1.01187 0
M  V30 18635 C 1794.35 -5.32162 0.404909 0
M  V30 18636 O 1794.58 -5.64894 -0.790638 0
M  V30 18637 O 1793.51 -5.91188 1.13048 0
M  V30 18638 H 1797.34 -2.62808 1.52203 0
M  V30 18639 H 1794.92 -1.25865 0.804878 0
M  V30 18640 H 1796.8 -4.1984 -0.362204 0
M  V30 18641 H 1795.48 -3.11707 -0.872948 0
M  V30 18642 H 1794.38 -3.46159 1.41862 0
M  V30 18643 H 1795.72 -4.56181 1.84823 0
M  V30 18644 N 1797.37 -0.812977 -1.35013 0
M  V30 18645 C 1798.78 -0.45647 -1.81034 0
M  V30 18646 C 1799.13 1.02217 -1.6747 0
M  V30 18647 O 1798.26 1.79478 -1.20898 0
M  V30 18648 C 1798.85 -0.821773 -3.28683 0
M  V30 18649 C 1797.41 -0.517776 -3.72822 0
M  V30 18650 C 1796.56 -1.04399 -2.56897 0
M  V30 18651 H 1799.51 -1.00405 -1.22901 0
M  V30 18652 H 1799.53 -0.12173 -3.80305 0
M  V30 18653 H 1799.04 -1.89799 -3.38523 0
M  V30 18654 H 1797.14 0.549446 -3.68527 0
M  V30 18655 H 1797.26 -1.05488 -4.67343 0
M  V30 18656 H 1795.62 -0.466002 -2.50401 0
M  V30 18657 H 1796.4 -2.12645 -2.69512 0
M  V30 18658 N 1798.85 1.47045 -0.567045 0
M  V30 18659 C 1800.09 2.02746 -0.046749 0
M  V30 18660 C 1800.43 1.4394 1.30364 0
M  V30 18661 O 1799.7 0.598616 1.85059 0
M  V30 18662 C 1799.98 3.60082 0.0358156 0
M  V30 18663 C 1799.84 4.29302 -1.34237 0
M  V30 18664 C 1801.16 4.3376 0.744338 0
M  V30 18665 H 1798.28 0.736769 -0.0184627 0
M  V30 18666 H 1800.92 1.75365 -0.73123 0
M  V30 18667 H 1799.07 3.83541 0.618745 0
M  V30 18668 H 1800.74 4.17155 -1.96926 0
M  V30 18669 H 1798.98 3.89273 -1.91439 0
M  V30 18670 H 1799.65 5.37956 -1.23722 0
M  V30 18671 H 1802.13 4.15353 0.249287 0
M  V30 18672 H 1801.01 5.43457 0.771095 0
M  V30 18673 H 1801.27 4.03686 1.80249 0
M  V30 18674 N 1800.33 0.304 1.5464 0
M  V30 18675 C 1801.57 -0.305229 2.02108 0
M  V30 18676 C 1801.93 -1.50862 1.18763 0
M  V30 18677 O 1803.13 -2.18941 1.55943 0
M  V30 18678 C 1801.4 -0.65001 3.51439 0
M  V30 18679 S 1802.96 -1.24167 4.20866 0
M  V30 18680 H 1799.78 -0.0935021 0.704825 0
M  V30 18681 H 1802.38 0.432571 1.90654 0
M  V30 18682 H 1801.08 0.234253 4.09731 0
M  V30 18683 H 1800.62 -1.41852 3.66935 0
M  V30 18684 H 1802.63 -2.52936 4.26893 0
M  V30 18685 N 1801.8 -1.57568 0.0317802 0
M  V30 18686 C 1802.73 -2.13412 -0.947499 0
M  V30 18687 C 1803.71 -1.05091 -1.33753 0
M  V30 18688 O 1804.9 -1.32936 -1.41568 0
M  V30 18689 C 1802.03 -2.66337 -2.22895 0
M  V30 18690 C 1800.98 -3.79469 -1.97958 0
M  V30 18691 C 1800.31 -4.18833 -3.3239 0
M  V30 18692 C 1801.61 -5.05432 -1.31664 0
M  V30 18693 H 1803.3 -2.95488 -0.482417 0
M  V30 18694 H 1800.85 -1.42142 -0.230603 0
M  V30 18695 H 1802.8 -3.04039 -2.91784 0
M  V30 18696 H 1801.53 -1.81426 -2.71574 0
M  V30 18697 H 1800.19 -3.42209 -1.31485 0
M  V30 18698 H 1799.83 -3.30899 -3.78833 0
M  V30 18699 H 1799.53 -4.95071 -3.16511 0
M  V30 18700 H 1801.06 -4.5912 -4.02544 0
M  V30 18701 H 1802.47 -5.40704 -1.90558 0
M  V30 18702 H 1800.87 -5.86686 -1.26173 0
M  V30 18703 H 1801.94 -4.84032 -0.28996 0
M  V30 18704 N 1803.28 0.241399 -1.5574 0
M  V30 18705 C 1804.21 1.30255 -1.93793 0
M  V30 18706 C 1805.19 1.49923 -0.803563 0
M  V30 18707 O 1806.38 1.62439 -1.06429 0
M  V30 18708 C 1803.51 2.65625 -2.23742 0
M  V30 18709 C 1802.46 2.60645 -3.39483 0
M  V30 18710 C 1801.79 3.99861 -3.54986 0
M  V30 18711 C 1803.09 2.17151 -4.75019 0
M  V30 18712 H 1804.78 0.986532 -2.8268 0
M  V30 18713 H 1802.33 0.473125 -1.36006 0
M  V30 18714 H 1804.28 3.40001 -2.48953 0
M  V30 18715 H 1803.01 2.98874 -1.31688 0
M  V30 18716 H 1801.66 1.88727 -3.14289 0
M  V30 18717 H 1801.31 4.30385 -2.60342 0
M  V30 18718 H 1801.01 3.97415 -4.32822 0
M  V30 18719 H 1802.54 4.75928 -3.82524 0
M  V30 18720 H 1803.95 2.8126 -4.99565 0
M  V30 18721 H 1802.35 2.25805 -5.55996 0
M  V30 18722 H 1803.42 1.12329 -4.7171 0
M  V30 18723 N 1804.76 1.49212 0.507292 0
M  V30 18724 C 1806.01 1.5763 1.2584 0
M  V30 18725 C 1806.32 0.265343 1.93792 0
M  V30 18726 O 1807.53 0.227996 2.70541 0
M  V30 18727 C 1805.98 2.78093 2.28457 0
M  V30 18728 C 1805.59 4.15922 1.66472 0
M  V30 18729 C 1807.34 2.95837 3.04435 0
M  V30 18730 C 1805.24 5.27616 2.67162 0
M  V30 18731 H 1804.17 0.586896 0.47336 0
M  V30 18732 H 1806.82 1.75588 0.533018 0
M  V30 18733 H 1805.21 2.53616 3.0413 0
M  V30 18734 H 1806.38 4.50511 0.968337 0
M  V30 18735 H 1804.7 4.03484 1.02906 0
M  V30 18736 H 1807.29 3.76452 3.79721 0
M  V30 18737 H 1807.64 2.06156 3.61671 0
M  V30 18738 H 1808.17 3.20323 2.35877 0
M  V30 18739 H 1804.91 6.19336 2.14716 0
M  V30 18740 H 1804.43 4.97488 3.3506 0
M  V30 18741 H 1806.11 5.56686 3.29712 0
M  V30 18742 N 1806.24 -0.757876 1.38181 0
M  V30 18743 C 1807.19 -1.86207 1.31571 0
M  V30 18744 C 1808.17 -1.59642 0.200812 0
M  V30 18745 O 1809.36 -1.71535 0.436416 0
M  V30 18746 C 1806.49 -3.23861 1.13881 0
M  V30 18747 C 1805.58 -3.56332 2.29975 0
M  V30 18748 N 1805.97 -3.59889 3.55406 0
M  V30 18749 C 1804.27 -3.86574 2.22433 0
M  V30 18750 C 1804.97 -3.89504 4.32044 0
M  V30 18751 N 1803.95 -4.06115 3.61347 0
M  V30 18752 H 1807.75 -1.87229 2.26545 0
M  V30 18753 H 1805.26 -0.955018 1.31351 0
M  V30 18754 H 1807.26 -4.02874 1.0723 0
M  V30 18755 H 1805.92 -3.24093 0.198371 0
M  V30 18756 H 1806.93 -3.41754 3.89133 0
M  V30 18757 H 1803.61 -3.94547 1.36524 0
M  V30 18758 H 1805 -3.98915 5.40663 0
M  V30 18759 N 1807.72 -1.22979 -0.985586 0
M  V30 18760 C 1808.96 -1.05667 -1.72275 0
M  V30 18761 C 1809.29 0.408045 -1.90683 0
M  V30 18762 O 1808.56 1.29293 -1.47174 0
M  V30 18763 H 1807.14 -0.388017 -0.63832 0
M  V30 18764 H 1809.8 -1.54612 -1.18665 0
M  V30 18765 H 1808.89 -1.54043 -2.71436 0
M  V30 18766 N 1809.19 1.18355 -1.04066 0
M  V30 18767 C 1810.42 1.92816 -0.763979 0
M  V30 18768 C 1810.84 1.75658 0.672749 0
M  V30 18769 O 1810.2 1.06671 1.46598 0
M  V30 18770 C 1810.25 3.42267 -1.13516 0
M  V30 18771 O 1809.35 4.11576 -0.260646 0
M  V30 18772 H 1808.7 0.601532 -0.281167 0
M  V30 18773 H 1811.23 1.50087 -1.3905 0
M  V30 18774 H 1811.24 3.92973 -1.09709 0
M  V30 18775 H 1809.91 3.54076 -2.18181 0
M  V30 18776 H 1808.49 3.71174 -0.358342 0
M  V30 18777 N 1810.67 0.820125 1.3458 0
M  V30 18778 C 1812.08 0.466064 1.80789 0
M  V30 18779 C 1812.43 -1.01327 1.6801 0
M  V30 18780 O 1811.56 -1.78835 1.21849 0
M  V30 18781 C 1812.15 0.839192 3.28242 0
M  V30 18782 C 1810.71 0.53754 3.72542 0
M  V30 18783 C 1809.86 1.0576 2.5634 0
M  V30 18784 H 1812.81 1.01055 1.22366 0
M  V30 18785 H 1812.83 0.141897 3.80235 0
M  V30 18786 H 1812.34 1.91592 3.37512 0
M  V30 18787 H 1810.45 -0.529895 3.68813 0
M  V30 18788 H 1810.56 1.07964 4.66777 0
M  V30 18789 H 1808.92 0.479275 2.5015 0
M  V30 18790 H 1809.71 2.14072 2.68381 0
M  V30 18791 N 1812.15 -1.46743 0.574835 0
M  V30 18792 C 1813.4 -2.02019 0.057302 0
M  V30 18793 C 1813.72 -1.44965 -1.30423 0
M  V30 18794 O 1812.99 -0.631377 -1.85447 0
M  V30 18795 H 1811.57 -0.746778 0.018193 0
M  V30 18796 H 1814.23 -1.7994 0.748834 0
M  V30 18797 H 1813.33 -3.12095 -0.0176114 0
M  V30 18798 N 1813.63 -0.312197 -1.54477 0
M  V30 18799 C 1814.59 0.54612 -2.22599 0
M  V30 18800 C 1815.59 1.05252 -1.21568 0
M  V30 18801 O 1816.78 0.946756 -1.46226 0
M  V30 18802 C 1813.91 1.75733 -2.92114 0
M  V30 18803 H 1815.11 -0.0492216 -2.9986 0
M  V30 18804 H 1812.66 -0.063149 -1.56172 0
M  V30 18805 H 1813.39 2.39221 -2.18961 0
M  V30 18806 H 1813.18 1.40175 -3.66188 0
M  V30 18807 H 1814.67 2.36685 -3.44049 0
M  V30 18808 N 1815.11 1.57549 -0.040136 0
M  V30 18809 C 1816.35 1.9187 0.634838 0
M  V30 18810 C 1816.68 0.918178 1.7203 0
M  V30 18811 O 1815.95 -0.0386563 1.95862 0
M  V30 18812 H 1814.53 0.708245 0.237483 0
M  V30 18813 H 1817.19 1.9469 -0.0905369 0
M  V30 18814 H 1816.28 2.92799 1.08053 0
M  V30 18815 N 1816.58 -0.233136 1.55866 0
M  V30 18816 C 1817.53 -1.28882 1.91463 0
M  V30 18817 C 1818.5 -1.47151 0.770435 0
M  V30 18818 O 1819.69 -1.6091 1.02531 0
M  V30 18819 C 1816.83 -2.63653 2.22668 0
M  V30 18820 C 1815.94 -2.53278 3.49963 0
M  V30 18821 C 1815.07 -3.80494 3.70672 0
M  V30 18822 C 1814.11 -3.64794 4.9152 0
M  V30 18823 N 1813.25 -4.83933 5.08678 0
M  V30 18824 H 1818.09 -0.978251 2.81486 0
M  V30 18825 H 1815.63 -0.471757 1.3933 0
M  V30 18826 H 1817.59 -3.42119 2.38769 0
M  V30 18827 H 1816.22 -2.9283 1.35833 0
M  V30 18828 H 1815.27 -1.66308 3.4212 0
M  V30 18829 H 1816.58 -2.37592 4.38579 0
M  V30 18830 H 1815.73 -4.67404 3.86806 0
M  V30 18831 H 1814.47 -3.99092 2.80315 0
M  V30 18832 H 1813.48 -2.76268 4.75348 0
M  V30 18833 H 1814.7 -3.47677 5.8335 0
M  V30 18834 H 1812.65 -5.02866 4.21262 0
M  V30 18835 H 1812.57 -4.7093 5.91406 0
M  V30 18836 H 1813.83 -5.72302 5.29236 0
M  V30 18837 N 1818.06 -1.49479 -0.499372 0
M  V30 18838 C 1819.29 -1.63025 -1.28209 0
M  V30 18839 C 1819.71 -0.302238 -1.85656 0
M  V30 18840 O 1819.07 0.730355 -1.65938 0
M  V30 18841 C 1819.12 -2.70287 -2.38699 0
M  V30 18842 O 1818.22 -2.29573 -3.42593 0
M  V30 18843 H 1817.56 -0.545605 -0.378432 0
M  V30 18844 H 1820.09 -1.95677 -0.597628 0
M  V30 18845 H 1820.1 -2.92505 -2.84438 0
M  V30 18846 H 1818.78 -3.66684 -1.96253 0
M  V30 18847 H 1817.36 -2.17692 -3.02761 0
M  V30 18848 N 1819.54 0.750537 -1.38581 0
M  V30 18849 C 1820.79 1.51198 -1.35156 0
M  V30 18850 C 1821.12 1.94115 0.0574068 0
M  V30 18851 O 1820.4 1.65657 1.01922 0
M  V30 18852 C 1820.68 2.76245 -2.30999 0
M  V30 18853 C 1820.53 2.39446 -3.8077 0
M  V30 18854 C 1821.85 3.78282 -2.24924 0
M  V30 18855 H 1818.97 0.548488 -0.492271 0
M  V30 18856 H 1821.61 0.859402 -1.69453 0
M  V30 18857 H 1819.76 3.31928 -2.01882 0
M  V30 18858 H 1821.43 1.89515 -4.20573 0
M  V30 18859 H 1819.68 1.71866 -3.98302 0
M  V30 18860 H 1820.35 3.28926 -4.43296 0
M  V30 18861 H 1822.82 3.32146 -2.50636 0
M  V30 18862 H 1821.7 4.63467 -2.94091 0
M  V30 18863 H 1821.96 4.24088 -1.24908 0
M  V30 18864 N 1821.02 1.235 0.979051 0
M  V30 18865 C 1822.27 1.06949 1.72307 0
M  V30 18866 C 1822.6 -0.392491 1.90192 0
M  V30 18867 O 1821.87 -1.29054 1.45518 0
M  V30 18868 C 1822.16 1.79705 3.12055 0
M  V30 18869 C 1822.01 3.33583 3.01732 0
M  V30 18870 C 1823.33 1.56062 4.11501 0
M  V30 18871 H 1820.45 0.389917 0.625407 0
M  V30 18872 H 1823.09 1.52022 1.1397 0
M  V30 18873 H 1821.24 1.4139 3.61858 0
M  V30 18874 H 1822.91 3.81428 2.59443 0
M  V30 18875 H 1821.15 3.62547 2.38206 0
M  V30 18876 H 1821.83 3.79681 4.00683 0
M  V30 18877 H 1824.3 1.8937 3.70511 0
M  V30 18878 H 1823.18 2.09442 5.07371 0
M  V30 18879 H 1823.44 0.496276 4.39306 0
M  V30 18880 N 1822.5 -1.17802 1.04693 0
M  V30 18881 C 1823.72 -1.92408 0.774194 0
M  V30 18882 C 1824.15 -1.76012 -0.663424 0
M  V30 18883 O 1823.51 -1.07447 -1.4603 0
M  V30 18884 C 1823.55 -3.4166 1.1533 0
M  V30 18885 O 1822.66 -4.11431 0.282469 0
M  V30 18886 H 1822 -0.600033 0.284353 0
M  V30 18887 H 1824.53 -1.49348 1.39844 0
M  V30 18888 H 1824.54 -3.92386 1.11791 0
M  V30 18889 H 1823.21 -3.52914 2.20056 0
M  V30 18890 H 1821.79 -3.70979 0.378021 0
M  V30 18891 N 1823.98 -0.827251 -1.34143 0
M  V30 18892 C 1825.2 -0.429514 -2.02904 0
M  V30 18893 C 1825.63 0.958033 -1.61874 0
M  V30 18894 O 1824.98 1.62422 -0.805528 0
M  V30 18895 C 1825.03 -0.544592 -3.56464 0
M  V30 18896 O 1824.14 0.433849 -4.10112 0
M  V30 18897 H 1823.48 -0.176216 -0.64019 0
M  V30 18898 H 1826.01 -1.11887 -1.71297 0
M  V30 18899 H 1826.02 -0.421949 -4.05812 0
M  V30 18900 H 1824.69 -1.55657 -3.85673 0
M  V30 18901 H 1823.27 0.269729 -3.71923 0
M  V30 18902 N 1825.45 1.46436 -0.582609 0
M  V30 18903 C 1826.38 2.33089 0.138477 0
M  V30 18904 C 1827.36 1.45339 0.883777 0
M  V30 18905 O 1828.55 1.74156 0.859257 0
M  V30 18906 C 1825.68 3.27611 1.15276 0
M  V30 18907 C 1824.63 4.24801 0.522308 0
M  V30 18908 C 1823.96 5.0883 1.64306 0
M  V30 18909 C 1825.26 5.19496 -0.540449 0
M  V30 18910 H 1826.95 2.93629 -0.585013 0
M  V30 18911 H 1824.5 1.41196 -0.282781 0
M  V30 18912 H 1826.45 3.87087 1.66558 0
M  V30 18913 H 1825.18 2.65177 1.90653 0
M  V30 18914 H 1823.84 3.66587 0.0305728 0
M  V30 18915 H 1823.48 4.42782 2.38649 0
M  V30 18916 H 1823.18 5.74649 1.22686 0
M  V30 18917 H 1824.71 5.7117 2.15864 0
M  V30 18918 H 1826.12 5.73189 -0.112706 0
M  V30 18919 H 1824.52 5.93658 -0.876957 0
M  V30 18920 H 1825.59 4.63434 -1.42677 0
M  V30 18921 N 1826.93 0.320385 1.54309 0
M  V30 18922 C 1828.18 -0.283562 2.00808 0
M  V30 18923 C 1828.51 -1.52036 1.20826 0
M  V30 18924 O 1827.79 -1.9233 0.289721 0
M  V30 18925 C 1828.07 -0.620875 3.54707 0
M  V30 18926 C 1827.92 0.626403 4.45417 0
M  V30 18927 C 1829.24 -1.43978 4.15883 0
M  V30 18928 H 1826.36 -0.10159 0.729965 0
M  V30 18929 H 1829 0.436332 1.84922 0
M  V30 18930 H 1827.15 -1.23419 3.68375 0
M  V30 18931 H 1828.82 1.2647 4.43625 0
M  V30 18932 H 1827.07 1.2559 4.15222 0
M  V30 18933 H 1827.74 0.345969 5.50915 0
M  V30 18934 H 1830.21 -0.921381 4.05771 0
M  V30 18935 H 1829.09 -1.64456 5.23685 0
M  V30 18936 H 1829.35 -2.43494 3.69003 0
M  V30 18937 N 1828.41 -1.57525 0.0484906 0
M  V30 18938 C 1829.66 -1.92204 -0.624654 0
M  V30 18939 C 1829.98 -0.927289 -1.71541 0
M  V30 18940 O 1829.25 0.0282687 -1.9588 0
M  V30 18941 H 1827.83 -0.709494 -0.233724 0
M  V30 18942 H 1830.49 -1.94639 0.100861 0
M  V30 18943 H 1829.59 -2.93368 -1.06498 0
M  V30 18944 N 1829.89 0.224867 -1.55988 0
M  V30 18945 C 1831.3 0.574415 -1.48905 0
M  V30 18946 C 1831.5 1.87303 -0.74296 0
M  V30 18947 O 1830.56 2.50929 -0.28127 0
M  V30 18948 C 1831.87 0.656717 -2.93441 0
M  V30 18949 C 1833.42 0.747568 -3.03941 0
M  V30 18950 C 1833.9 0.861243 -4.4983 0
M  V30 18951 N 1835.39 0.92555 -4.53859 0
M  V30 18952 C 1836.12 1.03316 -5.64015 0
M  V30 18953 N 1835.62 1.10492 -6.83932 0
M  V30 18954 N 1837.41 1.06804 -5.5186 0
M  V30 18955 H 1829.56 -0.627339 -2.02924 0
M  V30 18956 H 1831.82 -0.219656 -0.922201 0
M  V30 18957 H 1831.53 -0.227845 -3.50961 0
M  V30 18958 H 1831.4 1.52142 -3.45156 0
M  V30 18959 H 1833.79 1.62257 -2.46489 0
M  V30 18960 H 1833.87 -0.142737 -2.55401 0
M  V30 18961 H 1833.52 -0.00929123 -5.07899 0
M  V30 18962 H 1833.45 1.76692 -4.96072 0
M  V30 18963 H 1835.94 0.880541 -3.67498 0
M  V30 18964 H 1836.25 1.18672 -7.63634 0
M  V30 18965 H 1834.6 1.07411 -6.8665 0
M  V30 18966 H 1837.79 1.0086 -4.57105 0
M  V30 18967 H 1837.96 1.14845 -6.37742 0
M  V30 18968 N 1831.37 1.49742 0.491438 0
M  V30 18969 C 1832.33 1.66587 1.57421 0
M  V30 18970 C 1833.33 0.537281 1.51558 0
M  V30 18971 O 1834.52 0.803928 1.5454 0
M  V30 18972 C 1831.65 1.67217 2.97071 0
M  V30 18973 H 1832.84 2.63171 1.4381 0
M  V30 18974 H 1830.4 1.38917 0.716368 0
M  V30 18975 H 1831.13 0.722529 3.16149 0
M  V30 18976 H 1830.92 2.49187 3.02734 0
M  V30 18977 H 1832.41 1.82274 3.75721 0
M  V30 18978 N 1832.84 -0.743177 1.38977 0
M  V30 18979 C 1834.09 -1.49798 1.35069 0
M  V30 18980 C 1834.41 -1.95527 -0.0533172 0
M  V30 18981 O 1835.61 -2.70648 -0.21497 0
M  V30 18982 C 1834.07 -2.70637 2.37242 0
M  V30 18983 C 1833.68 -2.3189 3.83316 0
M  V30 18984 C 1835.42 -3.4849 2.42395 0
M  V30 18985 C 1833.33 -3.49403 4.77149 0
M  V30 18986 H 1832.26 -0.562495 0.50211 0
M  V30 18987 H 1834.91 -0.81145 1.64584 0
M  V30 18988 H 1833.29 -3.41323 2.00785 0
M  V30 18989 H 1834.46 -1.68803 4.28768 0
M  V30 18990 H 1832.78 -1.67148 3.8138 0
M  V30 18991 H 1835.38 -4.35882 3.09694 0
M  V30 18992 H 1835.72 -3.9038 1.446 0
M  V30 18993 H 1836.25 -2.84825 2.77704 0
M  V30 18994 H 1832.99 -3.1257 5.76177 0
M  V30 18995 H 1832.51 -4.11498 4.36382 0
M  V30 18996 H 1834.19 -4.15847 4.95661 0
M  V30 18997 N 1834.32 -1.24018 -0.972487 0
M  V30 18998 C 1835.29 -1.02941 -2.04782 0
M  V30 18999 C 1836.29 0.0115861 -1.60796 0
M  V30 19000 O 1837.48 -0.228922 -1.72689 0
M  V30 19001 C 1834.61 -0.559246 -3.36282 0
M  V30 19002 H 1835.8 -1.98379 -2.24913 0
M  V30 19003 H 1833.35 -1.06173 -1.14704 0
M  V30 19004 H 1834.09 0.398545 -3.21842 0
M  V30 19005 H 1833.87 -1.31054 -3.6955 0
M  V30 19006 H 1835.36 -0.432669 -4.15353 0
M  V30 19007 N 1835.8 1.17245 -1.05316 0
M  V30 19008 C 1836.71 2.24948 -0.666011 0
M  V30 19009 C 1837.73 1.71153 0.313478 0
M  V30 19010 O 1838.9 2.00721 0.165262 0
M  V30 19011 C 1835.97 3.46667 -0.0480198 0
M  V30 19012 C 1835.03 4.15542 -1.07812 0
M  V30 19013 C 1834.26 5.3145 -0.48952 0
M  V30 19014 O 1834.48 5.6608 0.700668 0
M  V30 19015 O 1833.42 5.89315 -1.22439 0
M  V30 19016 H 1837.24 2.60353 -1.56365 0
M  V30 19017 H 1834.83 1.24569 -0.8248 0
M  V30 19018 H 1836.71 4.20364 0.295366 0
M  V30 19019 H 1835.39 3.13056 0.823248 0
M  V30 19020 H 1834.29 3.43858 -1.47351 0
M  V30 19021 H 1835.63 4.53183 -1.92057 0
M  V30 19022 N 1837.28 0.834353 1.33702 0
M  V30 19023 C 1838.23 0.26233 2.29304 0
M  V30 19024 C 1839.2 -0.619326 1.54122 0
M  V30 19025 O 1840.38 -0.558551 1.82441 0
M  V30 19026 C 1837.52 -0.560341 3.4052 0
M  V30 19027 C 1836.63 0.344832 4.30622 0
M  V30 19028 C 1835.77 -0.488505 5.28949 0
M  V30 19029 C 1834.81 0.415341 6.10689 0
M  V30 19030 N 1833.94 -0.3796 7.01073 0
M  V30 19031 H 1838.78 1.08291 2.77628 0
M  V30 19032 H 1836.32 0.545497 1.36612 0
M  V30 19033 H 1838.28 -1.05274 4.03699 0
M  V30 19034 H 1836.91 -1.34593 2.93402 0
M  V30 19035 H 1835.96 0.955519 3.68204 0
M  V30 19036 H 1837.27 1.03935 4.87851 0
M  V30 19037 H 1836.43 -1.04492 5.97634 0
M  V30 19038 H 1835.17 -1.21648 4.72285 0
M  V30 19039 H 1834.17 0.983803 5.40926 0
M  V30 19040 H 1835.4 1.1416 6.69436 0
M  V30 19041 H 1833.34 -1.09103 6.46864 0
M  V30 19042 H 1833.26 0.25629 7.55565 0
M  V30 19043 H 1834.53 -0.918394 7.74071 0
M  V30 19044 N 1838.76 -1.46125 0.590367 0
M  V30 19045 C 1839.69 -2.27433 -0.186997 0
M  V30 19046 C 1840.67 -1.36095 -0.889776 0
M  V30 19047 O 1841.85 -1.65511 -0.902123 0
M  V30 19048 C 1838.98 -3.14029 -1.26899 0
M  V30 19049 C 1838.02 -4.21185 -0.671223 0
M  V30 19050 S 1838.86 -5.33087 0.507766 0
M  V30 19051 C 1840.01 -6.23251 -0.575243 0
M  V30 19052 H 1840.25 -2.93016 0.502873 0
M  V30 19053 H 1837.78 -1.49715 0.377448 0
M  V30 19054 H 1839.74 -3.64483 -1.88845 0
M  V30 19055 H 1838.4 -2.47744 -1.93085 0
M  V30 19056 H 1837.59 -4.81633 -1.48478 0
M  V30 19057 H 1837.19 -3.73783 -0.127271 0
M  V30 19058 H 1839.49 -6.61606 -1.4589 0
M  V30 19059 H 1840.43 -7.081 -0.00733853 0
M  V30 19060 H 1840.84 -5.57554 -0.882831 0
M  V30 19061 N 1840.23 -0.328564 -1.54137 0
M  V30 19062 C 1841.18 0.550592 -2.25989 0
M  V30 19063 C 1842.18 1.11442 -1.27581 0
M  V30 19064 O 1843.38 1.06189 -1.45341 0
M  V30 19065 H 1839.76 0.196215 -0.72595 0
M  V30 19066 H 1841.73 -0.0776348 -2.98299 0
M  V30 19067 C 1840.48 1.69733 -3.03457 0
M  V30 19068 H 1839.8 1.27273 -3.79001 0
M  V30 19069 H 1841.24 2.28797 -3.56971 0
M  V30 19070 C 1839.7 2.61791 -2.12054 0
M  V30 19071 O 1840.23 3.63641 -1.7067 0
M  V30 19072 N 1838.44 2.30138 -1.7744 0
M  V30 19073 H 1837.98 1.47355 -2.11292 0
M  V30 19074 H 1837.94 2.91994 -1.16564 0
M  V30 19075 N 1841.71 1.57497 -0.0568439 0
M  V30 19076 C 1842.94 1.97645 0.628589 0
M  V30 19077 C 1843.36 0.934424 1.63249 0
M  V30 19078 O 1842.72 -0.101706 1.81015 0
M  V30 19079 C 1842.77 3.36855 1.2869 0
M  V30 19080 O 1841.87 3.35182 2.40264 0
M  V30 19081 H 1841.21 0.643698 0.16294 0
M  V30 19082 H 1843.74 2.04206 -0.126927 0
M  V30 19083 H 1843.75 3.73708 1.63726 0
M  V30 19084 H 1842.43 4.12231 0.551203 0
M  V30 19085 H 1841.01 3.10081 2.07133 0
M  V30 19086 N 1843.19 -0.216591 1.56105 0
M  V30 19087 C 1844.42 -0.961164 1.83784 0
M  V30 19088 C 1844.84 -1.76957 0.637792 0
M  V30 19089 O 1844.2 -1.76523 -0.413449 0
M  V30 19090 C 1844.25 -1.85047 3.095 0
M  V30 19091 O 1843.35 -2.94648 2.88542 0
M  V30 19092 H 1842.69 -0.271885 0.605784 0
M  V30 19093 H 1845.22 -0.228404 2.03321 0
M  V30 19094 H 1845.23 -2.25932 3.39733 0
M  V30 19095 H 1843.91 -1.25633 3.96471 0
M  V30 19096 H 1842.48 -2.57673 2.69554 0
M  V30 19097 N 1844.67 -1.5 -0.48349 0
M  V30 19098 C 1845.91 -1.60606 -1.23829 0
M  V30 19099 C 1846.25 -0.299778 -1.91872 0
M  V30 19100 O 1845.52 0.697925 -1.81547 0
M  V30 19101 C 1845.81 -2.77769 -2.29165 0
M  V30 19102 C 1845.66 -4.18243 -1.65507 0
M  V30 19103 C 1846.98 -2.90521 -3.30584 0
M  V30 19104 H 1844.1 -0.584561 -0.44884 0
M  V30 19105 H 1846.74 -1.82346 -0.533855 0
M  V30 19106 H 1844.89 -2.59364 -2.89245 0
M  V30 19107 H 1846.56 -4.48208 -1.09119 0
M  V30 19108 H 1844.8 -4.23077 -0.958577 0
M  V30 19109 H 1845.47 -4.96128 -2.41994 0
M  V30 19110 H 1847.95 -3.0733 -2.80513 0
M  V30 19111 H 1846.83 -3.74146 -4.0163 0
M  V30 19112 H 1847.09 -2.00609 -3.93965 0
M  V30 19113 N 1846.15 0.735796 -1.39369 0
M  V30 19114 C 1847.38 1.52283 -1.39619 0
M  V30 19115 C 1847.78 1.89197 0.0112732 0
M  V30 19116 O 1847.13 1.54562 0.992786 0
M  V30 19117 C 1847.19 2.83993 -2.20427 0
M  V30 19118 C 1846.85 2.69518 -3.69065 0
M  V30 19119 C 1847.85 2.38119 -4.62164 0
M  V30 19120 C 1845.54 2.86414 -4.12641 0
M  V30 19121 C 1847.53 2.23797 -5.9682 0
M  V30 19122 C 1845.22 2.7171 -5.47373 0
M  V30 19123 C 1846.21 2.40447 -6.39277 0
M  V30 19124 O 1845.9 2.25833 -7.71527 0
M  V30 19125 H 1845.63 0.477218 -0.478789 0
M  V30 19126 H 1848.19 0.916936 -1.83797 0
M  V30 19127 H 1846.42 3.46839 -1.70996 0
M  V30 19128 H 1848.11 3.45606 -2.12865 0
M  V30 19129 H 1848.87 2.24717 -4.29799 0
M  V30 19130 H 1844.75 3.0974 -3.41441 0
M  V30 19131 H 1848.3 1.99316 -6.6852 0
M  V30 19132 H 1844.19 2.8469 -5.79329 0
M  V30 19133 H 1844.96 2.40909 -7.82244 0
M  V30 19134 N 1847.63 1.24532 0.965897 0
M  V30 19135 C 1848.85 1.11412 1.74934 0
M  V30 19136 C 1849.28 -0.329168 1.85197 0
M  V30 19137 O 1848.63 -1.23833 1.3242 0
M  V30 19138 C 1848.68 1.76068 3.14694 0
M  V30 19139 O 1847.79 1.03267 3.99261 0
M  V30 19140 H 1847.13 0.389633 0.537663 0
M  V30 19141 H 1849.66 1.64875 1.2115 0
M  V30 19142 H 1849.67 1.81897 3.65209 0
M  V30 19143 H 1848.34 2.8108 3.0654 0
M  V30 19144 H 1846.92 1.05236 3.57743 0
M  V30 19145 N 1849.1 -1.16685 1.05936 0
M  V30 19146 C 1850.03 -2.23129 0.688153 0
M  V30 19147 C 1851.01 -1.67108 -0.31765 0
M  V30 19148 O 1852.2 -1.93233 -0.193578 0
M  V30 19149 C 1849.33 -3.47229 0.069991 0
M  V30 19150 C 1848.28 -4.16121 1.00137 0
M  V30 19151 C 1847.61 -5.34131 0.246699 0
M  V30 19152 C 1848.91 -4.67508 2.32882 0
M  V30 19153 H 1850.6 -2.54436 1.57806 0
M  V30 19154 H 1848.15 -1.22298 0.76021 0
M  V30 19155 H 1850.1 -4.20918 -0.201545 0
M  V30 19156 H 1848.83 -3.15212 -0.854909 0
M  V30 19157 H 1847.49 -3.44355 1.25759 0
M  V30 19158 H 1847.13 -4.98366 -0.681204 0
M  V30 19159 H 1846.83 -5.81163 0.867373 0
M  V30 19160 H 1848.36 -6.10598 -0.0173762 0
M  V30 19161 H 1849.77 -5.32795 2.11666 0
M  V30 19162 H 1848.17 -5.25147 2.90414 0
M  V30 19163 H 1849.24 -3.83912 2.96209 0
M  V30 19164 N 1850.58 -0.841432 -1.33258 0
M  V30 19165 C 1851.99 -0.494767 -1.80025 0
M  V30 19166 C 1852.34 0.986416 -1.696 0
M  V30 19167 O 1851.47 1.76874 -1.24678 0
M  V30 19168 C 1852.06 -0.891306 -3.26866 0
M  V30 19169 C 1850.62 -0.59674 -3.7164 0
M  V30 19170 C 1849.77 -1.09825 -2.54625 0
M  V30 19171 H 1852.72 -1.02989 -1.20743 0
M  V30 19172 H 1852.74 -0.202371 -3.79961 0
M  V30 19173 H 1852.25 -1.96937 -3.34421 0
M  V30 19174 H 1850.35 0.471153 -3.69609 0
M  V30 19175 H 1850.47 -1.15377 -4.65 0
M  V30 19176 H 1848.83 -0.519011 -2.49356 0
M  V30 19177 H 1849.61 -2.18314 -2.64941 0
M  V30 19178 N 1852.06 1.4581 -0.598108 0
M  V30 19179 C 1853.47 1.85871 -0.175736 0
M  V30 19180 C 1853.82 1.49969 1.26505 0
M  V30 19181 O 1852.95 0.921857 1.95782 0
M  V30 19182 C 1853.54 3.37359 -0.312157 0
M  V30 19183 C 1852.1 3.76359 0.0554534 0
M  V30 19184 C 1851.25 2.6979 -0.640999 0
M  V30 19185 H 1854.2 1.36745 -0.805383 0
M  V30 19186 H 1854.22 3.7773 0.458274 0
M  V30 19187 H 1853.73 3.63458 -1.36088 0
M  V30 19188 H 1851.83 3.55878 1.10372 0
M  V30 19189 H 1851.95 4.77951 -0.331592 0
M  V30 19190 H 1850.31 2.54576 -0.0796238 0
M  V30 19191 H 1851.09 2.98726 -1.69167 0
M  V30 19192 N 1853.54 0.336733 1.53961 0
M  V30 19193 C 1854.81 -0.316794 1.93018 0
M  V30 19194 C 1855.19 -1.68802 1.26764 0
M  V30 19195 O 1854.54 -2.2468 0.416094 0
M  V30 19196 C 1854.75 -0.395878 3.46747 0
M  V30 19197 C 1856.1 -0.649946 4.19596 0
M  V30 19198 O 1857.12 -0.47827 3.52975 0
M  V30 19199 O 1855.98 -0.982035 5.37604 0
M  V30 19200 H 1853.08 -0.183442 0.806398 0
M  V30 19201 H 1855.62 0.387412 1.65219 0
M  V30 19202 H 1854.4 0.56665 3.87175 0
M  V30 19203 H 1854.02 -1.14714 3.80692 0
M  V30 19204 N 1855.02 -1.57465 0.0651956 0
M  V30 19205 C 1856.43 -1.80728 -0.468449 0
M  V30 19206 C 1856.78 -0.978581 -1.70054 0
M  V30 19207 O 1855.9 -0.199186 -2.15481 0
M  V30 19208 C 1856.5 -3.27791 -0.856641 0
M  V30 19209 C 1855.06 -3.51923 -1.33519 0
M  V30 19210 C 1854.2 -2.7548 -0.317147 0
M  V30 19211 H 1857.15 -1.5601 0.290955 0
M  V30 19212 H 1857.18 -3.39479 -1.71855 0
M  V30 19213 H 1856.69 -3.88079 0.0402823 0
M  V30 19214 H 1854.79 -2.96932 -2.25083 0
M  V30 19215 H 1854.9 -4.60624 -1.31767 0
M  V30 19216 H 1853.27 -2.4204 -0.793026 0
M  V30 19217 H 1854.05 -3.38502 0.571935 0
M  V30 19218 N 1856.49 0.20831 -1.56217 0
M  V30 19219 C 1857.77 0.955838 -1.70655 0
M  V30 19220 C 1858.15 2.01905 -0.61624 0
M  V30 19221 O 1857.5 2.25405 0.374793 0
M  V30 19222 C 1857.71 1.55427 -3.1248 0
M  V30 19223 C 1859.06 2.04147 -3.72303 0
M  V30 19224 O 1860.08 1.65295 -3.15525 0
M  V30 19225 O 1858.94 2.75597 -4.7192 0
M  V30 19226 H 1856.03 0.447364 -0.695553 0
M  V30 19227 H 1858.58 0.199047 -1.68529 0
M  V30 19228 H 1857.35 0.787224 -3.83299 0
M  V30 19229 H 1856.97 2.37625 -3.18779 0
M  V30 19230 N 1857.97 1.50255 0.475528 0
M  V30 19231 C 1858.92 1.65183 1.57158 0
M  V30 19232 C 1859.91 0.506578 1.52717 0
M  V30 19233 O 1861.1 0.760774 1.59816 0
M  V30 19234 C 1858.23 1.74523 2.95629 0
M  V30 19235 C 1857.31 2.94709 3.04971 0
M  V30 19236 N 1857.7 4.1845 2.84137 0
M  V30 19237 C 1856 2.93175 3.36102 0
M  V30 19238 C 1856.7 4.99375 2.98328 0
M  V30 19239 N 1855.68 4.33242 3.28333 0
M  V30 19240 H 1859.48 2.58552 1.39743 0
M  V30 19241 H 1856.99 1.47378 0.682172 0
M  V30 19242 H 1858.99 1.8332 3.74432 0
M  V30 19243 H 1857.65 0.823089 3.14094 0
M  V30 19244 H 1858.66 4.48019 2.59806 0
M  V30 19245 H 1855.34 2.10443 3.60583 0
M  V30 19246 H 1856.73 6.07757 2.86497 0
M  V30 19247 N 1859.45 -0.728395 1.39758 0
M  V30 19248 C 1860.7 -1.48808 1.37341 0
M  V30 19249 C 1861.02 -1.94479 -0.0285032 0
M  V30 19250 O 1860.28 -1.67586 -1.01062 0
M  V30 19251 C 1860.58 -2.73735 2.29791 0
M  V30 19252 C 1860.24 -2.46897 3.77296 0
M  V30 19253 C 1858.91 -2.39287 4.17487 0
M  V30 19254 C 1861.26 -2.24097 4.70564 0
M  V30 19255 C 1858.59 -2.06927 5.48997 0
M  V30 19256 C 1860.94 -1.93252 6.02359 0
M  V30 19257 C 1859.6 -1.84115 6.41606 0
M  V30 19258 H 1858.87 -0.544527 0.502565 0
M  V30 19259 H 1861.52 -0.835461 1.72315 0
M  V30 19260 H 1859.82 -3.43772 1.87957 0
M  V30 19261 H 1861.52 -3.31785 2.2521 0
M  V30 19262 H 1858.11 -2.53701 3.45447 0
M  V30 19263 H 1862.3 -2.28939 4.40341 0
M  V30 19264 H 1857.55 -1.98381 5.78321 0
M  V30 19265 H 1861.73 -1.7462 6.74152 0
M  V30 19266 H 1859.35 -1.58807 7.43427 0
M  V30 19267 N 1860.93 -1.25042 -0.959279 0
M  V30 19268 C 1862.2 -1.00297 -1.67928 0
M  V30 19269 C 1862.58 0.47221 -2.05751 0
M  V30 19270 O 1861.93 1.44849 -1.76723 0
M  V30 19271 C 1862.14 -1.93416 -2.90502 0
M  V30 19272 C 1863.49 -2.20992 -3.62557 0
M  V30 19273 O 1864.51 -1.91136 -3.00575 0
M  V30 19274 O 1863.37 -2.71735 -4.74154 0
M  V30 19275 H 1860.47 -0.379984 -0.734535 0
M  V30 19276 H 1863.01 -1.36177 -1.01262 0
M  V30 19277 H 1861.79 -2.93045 -2.59308 0
M  V30 19278 H 1861.41 -1.57904 -3.649 0
M  V30 19279 N 1862.41 1.16121 -1.06553 0
M  V30 19280 C 1863.65 1.86346 -0.782279 0
M  V30 19281 C 1863.98 1.82255 0.693395 0
M  V30 19282 O 1863.25 1.2579 1.50179 0
M  V30 19283 H 1861.83 0.689921 -0.286388 0
M  V30 19284 H 1864.49 1.40805 -1.34758 0
M  V30 19285 H 1863.58 2.91712 -1.10954 0
M  V30 19286 N 1863.88 0.848487 1.3281 0
M  V30 19287 C 1865.11 0.461973 2.01369 0
M  V30 19288 C 1865.52 -0.944176 1.63957 0
M  V30 19289 O 1864.87 -1.62659 0.853677 0
M  V30 19290 C 1864.93 0.514163 3.55804 0
M  V30 19291 C 1864.59 1.87812 4.16624 0
M  V30 19292 C 1865.59 2.84271 4.353 0
M  V30 19293 C 1863.27 2.17358 4.52836 0
M  V30 19294 C 1865.27 4.08433 4.89348 0
M  V30 19295 C 1862.95 3.41774 5.0659 0
M  V30 19296 C 1863.95 4.37128 5.24793 0
M  V30 19297 O 1863.64 5.59342 5.774 0
M  V30 19298 H 1863.37 0.180645 0.651416 0
M  V30 19299 H 1865.93 1.14535 1.70502 0
M  V30 19300 H 1864.16 -0.226037 3.86039 0
M  V30 19301 H 1865.85 0.14412 4.05644 0
M  V30 19302 H 1866.61 2.62747 4.07663 0
M  V30 19303 H 1862.49 1.43927 4.37957 0
M  V30 19304 H 1866.03 4.82869 5.03471 0
M  V30 19305 H 1861.93 3.63151 5.33659 0
M  V30 19306 H 1862.7 5.61215 5.95802 0
M  V30 19307 N 1865.36 -1.4549 0.605832 0
M  V30 19308 C 1866.31 -2.30518 -0.114038 0
M  V30 19309 C 1867.28 -1.42 -0.861703 0
M  V30 19310 O 1868.46 -1.7093 -0.847788 0
M  V30 19311 C 1865.6 -3.26876 -1.10661 0
M  V30 19312 C 1864.72 -4.30497 -0.359999 0
M  V30 19313 C 1863.85 -5.13965 -1.34214 0
M  V30 19314 C 1862.89 -6.09315 -0.58324 0
M  V30 19315 N 1862.03 -6.85569 -1.51457 0
M  V30 19316 H 1866.87 -2.91542 0.617043 0
M  V30 19317 H 1864.41 -1.43664 0.31609 0
M  V30 19318 H 1866.36 -3.81207 -1.69519 0
M  V30 19319 H 1864.99 -2.6761 -1.80512 0
M  V30 19320 H 1864.05 -3.78841 0.344058 0
M  V30 19321 H 1865.36 -4.98259 0.232208 0
M  V30 19322 H 1864.51 -5.72688 -2.00283 0
M  V30 19323 H 1863.25 -4.46218 -1.96828 0
M  V30 19324 H 1862.26 -5.49725 0.0910986 0
M  V30 19325 H 1863.48 -6.79089 0.0378268 0
M  V30 19326 H 1861.43 -6.20512 -2.12839 0
M  V30 19327 H 1861.34 -7.49677 -0.97576 0
M  V30 19328 H 1862.61 -7.48834 -2.1649 0
M  V30 19329 N 1866.84 -0.344893 -1.5378 0
M  V30 19330 C 1867.77 0.545646 -2.2261 0
M  V30 19331 C 1868.79 1.06288 -1.23315 0
M  V30 19332 O 1869.97 0.972802 -1.49662 0
M  V30 19333 C 1867.07 1.76379 -2.89385 0
M  V30 19334 C 1866.25 1.38162 -4.15006 0
M  V30 19335 C 1865.31 2.45958 -4.65179 0
M  V30 19336 O 1864.33 2.0921 -5.29358 0
M  V30 19337 N 1865.53 3.77232 -4.41221 0
M  V30 19338 H 1868.3 -0.043834 -2.99668 0
M  V30 19339 H 1865.86 -0.169081 -1.61015 0
M  V30 19340 H 1867.85 2.47928 -3.19865 0
M  V30 19341 H 1866.42 2.26061 -2.15905 0
M  V30 19342 H 1865.64 0.496839 -3.91056 0
M  V30 19343 H 1866.93 1.10227 -4.96717 0
M  V30 19344 H 1866.33 4.09875 -3.89896 0
M  V30 19345 H 1864.89 4.44947 -4.76304 0
M  V30 19346 N 1868.32 1.57428 -0.0735454 0
M  V30 19347 C 1869.25 2.09808 0.922679 0
M  V30 19348 C 1870.26 1.0306 1.26026 0
M  V30 19349 O 1871.45 1.30568 1.21714 0
M  V30 19350 C 1868.55 2.54492 2.23801 0
M  V30 19351 C 1867.73 3.84832 2.07901 0
M  V30 19352 C 1866.78 4.15592 3.22754 0
M  V30 19353 O 1865.81 4.85163 2.97667 0
M  V30 19354 N 1867.01 3.69277 4.47901 0
M  V30 19355 H 1869.78 2.95905 0.475456 0
M  V30 19356 H 1867.34 1.61511 0.112135 0
M  V30 19357 H 1869.33 2.7213 2.99545 0
M  V30 19358 H 1867.9 1.73523 2.60016 0
M  V30 19359 H 1867.12 3.76557 1.16614 0
M  V30 19360 H 1868.41 4.70144 1.9453 0
M  V30 19361 H 1867.81 3.13076 4.71168 0
M  V30 19362 H 1866.36 3.92111 5.20665 0
M  V30 19363 N 1869.8 -0.200022 1.56326 0
M  V30 19364 C 1870.76 -1.23155 1.93302 0
M  V30 19365 C 1871.76 -1.38696 0.81364 0
M  V30 19366 O 1872.95 -1.36592 1.08112 0
M  V30 19367 C 1870.08 -2.60177 2.20274 0
M  V30 19368 H 1871.27 -0.915616 2.85581 0
M  V30 19369 H 1868.83 -0.44134 1.4994 0
M  V30 19370 H 1869.56 -2.96833 1.30617 0
M  V30 19371 H 1869.35 -2.50269 3.01841 0
M  V30 19372 H 1870.84 -3.34572 2.49903 0
M  V30 19373 N 1871.27 -1.50505 -0.467553 0
M  V30 19374 C 1872.52 -1.6191 -1.22118 0
M  V30 19375 C 1872.85 -0.320112 -1.91544 0
M  V30 19376 O 1872.13 0.678631 -1.82277 0
M  V30 19377 C 1872.41 -2.80184 -2.26206 0
M  V30 19378 C 1872.26 -4.19975 -1.61062 0
M  V30 19379 C 1873.58 -2.94011 -3.27484 0
M  V30 19380 H 1870.7 -0.589289 -0.442615 0
M  V30 19381 H 1873.34 -1.82902 -0.514484 0
M  V30 19382 H 1871.49 -2.62417 -2.86478 0
M  V30 19383 H 1873.17 -4.4934 -1.04359 0
M  V30 19384 H 1871.41 -4.24069 -0.91365 0
M  V30 19385 H 1872.08 -4.98667 -2.36718 0
M  V30 19386 H 1874.56 -3.10288 -2.77238 0
M  V30 19387 H 1873.43 -3.78384 -3.97639 0
M  V30 19388 H 1873.69 -2.04777 -3.91815 0
M  V30 19389 N 1872.75 0.720973 -1.40142 0
M  V30 19390 C 1874 1.48297 -1.38332 0
M  V30 19391 C 1874.33 1.94193 0.0162191 0
M  V30 19392 O 1873.61 1.67781 0.983853 0
M  V30 19393 C 1873.89 2.71283 -2.36807 0
M  V30 19394 C 1873.74 2.31316 -3.85763 0
M  V30 19395 C 1875.06 3.73426 -2.32897 0
M  V30 19396 H 1872.18 0.537922 -0.503794 0
M  V30 19397 H 1874.82 0.823265 -1.71238 0
M  V30 19398 H 1872.97 3.27571 -2.08877 0
M  V30 19399 H 1874.64 1.80551 -4.24499 0
M  V30 19400 H 1872.89 1.63379 -4.01858 0
M  V30 19401 H 1873.56 3.19449 -4.50174 0
M  V30 19402 H 1876.03 3.26755 -2.57624 0
M  V30 19403 H 1874.91 4.57124 -3.03856 0
M  V30 19404 H 1875.17 4.21343 -1.33876 0
M  V30 19405 N 1874.23 1.25549 0.952634 0
M  V30 19406 C 1875.48 1.09811 1.69188 0
M  V30 19407 C 1875.79 -0.360368 1.92252 0
M  V30 19408 O 1877 -0.638228 2.63892 0
M  V30 19409 C 1875.45 1.91693 3.04601 0
M  V30 19410 C 1875.06 3.42045 2.89326 0
M  V30 19411 C 1876.81 1.8453 3.82294 0
M  V30 19412 C 1874.71 4.16216 4.20141 0
M  V30 19413 H 1873.64 0.40733 0.634507 0
M  V30 19414 H 1876.29 1.49762 1.06035 0
M  V30 19415 H 1874.68 1.44566 3.68669 0
M  V30 19416 H 1875.85 3.96859 2.34178 0
M  V30 19417 H 1874.17 3.50322 2.25085 0
M  V30 19418 H 1876.76 2.37237 4.79189 0
M  V30 19419 H 1877.11 0.81361 4.08272 0
M  V30 19420 H 1877.64 2.29418 3.2498 0
M  V30 19421 H 1874.38 5.19806 3.99352 0
M  V30 19422 H 1873.9 3.66184 4.75047 0
M  V30 19423 H 1875.58 4.2404 4.88671 0
M  V30 19424 N 1875.71 -1.15554 1.07168 0
M  V30 19425 C 1876.64 -2.19201 0.634504 0
M  V30 19426 C 1877.62 -1.58848 -0.347283 0
M  V30 19427 O 1878.8 -1.86779 -0.25415 0
M  V30 19428 C 1875.93 -3.38631 -0.0685456 0
M  V30 19429 C 1874.98 -4.17503 0.87139 0
M  V30 19430 S 1875.81 -4.8013 2.37139 0
M  V30 19431 C 1876.97 -6.02929 1.68009 0
M  V30 19432 H 1877.2 -2.55946 1.51259 0
M  V30 19433 H 1874.73 -1.26486 0.88547 0
M  V30 19434 H 1876.69 -4.07824 -0.467933 0
M  V30 19435 H 1875.35 -3.00234 -0.922944 0
M  V30 19436 H 1874.54 -5.02943 0.326166 0
M  V30 19437 H 1874.15 -3.53849 1.21107 0
M  V30 19438 H 1876.44 -6.70217 0.990739 0
M  V30 19439 H 1877.38 -6.62017 2.51274 0
M  V30 19440 H 1877.79 -5.52477 1.15887 0
M  V30 19441 N 1877.19 -0.855519 -1.32358 0
M  V30 19442 C 1878.46 -0.380575 -1.91862 0
M  V30 19443 C 1878.84 1.13593 -1.77932 0
M  V30 19444 O 1878.19 1.95797 -1.17796 0
M  V30 19445 C 1878.4 -0.845902 -3.38593 0
M  V30 19446 C 1879.75 -0.863586 -4.15725 0
M  V30 19447 O 1880.77 -0.790597 -3.47315 0
M  V30 19448 O 1879.63 -0.966658 -5.37883 0
M  V30 19449 H 1876.73 -0.111156 -0.819496 0
M  V30 19450 H 1879.27 -0.942476 -1.41122 0
M  V30 19451 H 1878.05 -1.88909 -3.42679 0
M  V30 19452 H 1877.67 -0.2615 -3.96739 0
M  V30 19453 N 1878.67 1.45167 -0.61354 0
M  V30 19454 C 1879.94 1.95553 -0.042781 0
M  V30 19455 C 1880.32 1.55588 1.42673 0
M  V30 19456 O 1879.67 0.821325 2.13229 0
M  V30 19457 C 1879.88 3.48124 -0.247141 0
M  V30 19458 C 1881.23 4.24398 -0.131068 0
M  V30 19459 O 1882.25 3.55757 -0.177576 0
M  V30 19460 O 1881.11 5.46496 -0.0211683 0
M  V30 19461 H 1878.21 0.826367 0.0323494 0
M  V30 19462 H 1880.75 1.55304 -0.684017 0
M  V30 19463 H 1879.52 3.70202 -1.26751 0
M  V30 19464 H 1879.15 3.95278 0.429074 0
M  V30 19465 N 1880.14 0.353044 1.53595 0
M  V30 19466 C 1881.07 -0.491481 2.28269 0
M  V30 19467 C 1882.05 -1.0946 1.30201 0
M  V30 19468 O 1883.24 -1.11421 1.59056 0
M  V30 19469 C 1880.37 -1.63776 3.06259 0
M  V30 19470 C 1879.32 -1.16251 4.1191 0
M  V30 19471 C 1878.65 -2.39805 4.7791 0
M  V30 19472 C 1879.95 -0.256191 5.21671 0
M  V30 19473 H 1881.64 0.131483 2.99111 0
M  V30 19474 H 1879.19 0.0646771 1.43855 0
M  V30 19475 H 1881.14 -2.2351 3.57241 0
M  V30 19476 H 1879.87 -2.28777 2.33085 0
M  V30 19477 H 1878.53 -0.587934 3.61855 0
M  V30 19478 H 1878.17 -3.03234 4.0132 0
M  V30 19479 H 1877.87 -2.08684 5.49295 0
M  V30 19480 H 1879.4 -3.00248 5.3168 0
M  V30 19481 H 1880.81 -0.760642 5.68232 0
M  V30 19482 H 1879.21 -0.0364273 6.00089 0
M  V30 19483 H 1880.28 0.705105 4.79746 0
M  V30 19484 N 1881.62 -1.57387 0.0818932 0
M  V30 19485 C 1882.86 -1.95747 -0.58843 0
M  V30 19486 C 1883.23 -0.961967 -1.66163 0
M  V30 19487 O 1884.43 -1.23358 -2.38822 0
M  V30 19488 C 1882.7 -3.38689 -1.14126 0
M  V30 19489 S 1884.26 -3.99034 -1.8253 0
M  V30 19490 H 1881.07 -0.684474 -0.192395 0
M  V30 19491 H 1883.68 -1.94859 0.158155 0
M  V30 19492 H 1882.38 -4.08918 -0.348477 0
M  V30 19493 H 1881.91 -3.43143 -1.92397 0
M  V30 19494 H 1883.93 -3.86762 -3.10854 0
M  V30 19495 N 1883.1 0.191729 -1.56429 0
M  V30 19496 C 1884.03 1.26174 -1.91345 0
M  V30 19497 C 1885.04 1.41536 -0.804451 0
M  V30 19498 O 1886.23 1.41902 -1.08287 0
M  V30 19499 C 1883.33 2.63341 -2.13319 0
M  V30 19500 C 1882.51 2.69543 -3.44479 0
M  V30 19501 C 1881.57 3.87929 -3.55524 0
M  V30 19502 O 1880.59 3.74875 -4.28319 0
M  V30 19503 N 1881.79 5.03527 -2.88861 0
M  V30 19504 H 1884.56 0.965364 -2.83727 0
M  V30 19505 H 1882.12 0.381628 -1.57338 0
M  V30 19506 H 1884.11 3.40971 -2.17993 0
M  V30 19507 H 1882.68 2.85452 -1.2742 0
M  V30 19508 H 1881.9 1.78161 -3.51642 0
M  V30 19509 H 1883.19 2.7068 -4.30824 0
M  V30 19510 H 1882.59 5.17032 -2.29553 0
M  V30 19511 H 1881.14 5.79092 -2.99159 0
M  V30 19512 N 1884.58 1.50751 0.459565 0
M  V30 19513 C 1885.53 1.70997 1.57679 0
M  V30 19514 C 1886.52 0.575925 1.59309 0
M  V30 19515 O 1887.73 0.756735 1.6332 0
M  V30 19516 H 1884.1 0.539921 0.52344 0
M  V30 19517 H 1886.07 2.64693 1.37769 0
M  V30 19518 C 1884.82 1.83187 2.9553 0
M  V30 19519 H 1884.14 2.69844 2.94998 0
M  V30 19520 H 1885.58 2.01374 3.73128 0
M  V30 19521 C 1884.04 0.586222 3.31761 0
M  V30 19522 O 1884.57 -0.269358 4.00796 0
M  V30 19523 N 1882.78 0.436839 2.87298 0
M  V30 19524 H 1882.33 1.13413 2.31291 0
M  V30 19525 H 1882.28 -0.395424 3.11903 0
M  V30 19526 N 1886.06 -0.713531 1.40522 0
M  V30 19527 C 1887.47 -1.29276 1.34702 0
M  V30 19528 C 1887.82 -1.96188 0.0214862 0
M  V30 19529 O 1886.94 -1.97676 -0.880513 0
M  V30 19530 C 1887.54 -2.35082 2.43971 0
M  V30 19531 C 1886.1 -2.88624 2.41605 0
M  V30 19532 C 1885.24 -1.62437 2.24743 0
M  V30 19533 H 1888.19 -0.509517 1.50298 0
M  V30 19534 H 1888.22 -3.15971 2.11996 0
M  V30 19535 H 1887.73 -1.86353 3.40432 0
M  V30 19536 H 1885.83 -3.41578 1.48847 0
M  V30 19537 H 1885.94 -3.40278 3.37265 0
M  V30 19538 H 1884.31 -1.8758 1.72296 0
M  V30 19539 H 1885.09 -1.1573 3.23205 0
M  V30 19540 N 1887.53 -1.26053 -0.945962 0
M  V30 19541 C 1888.81 -1.02072 -1.66855 0
M  V30 19542 C 1889.19 0.45036 -2.0624 0
M  V30 19543 O 1888.54 1.42966 -1.7825 0
M  V30 19544 C 1888.75 -1.96486 -2.88434 0
M  V30 19545 C 1890.1 -2.24825 -3.60193 0
M  V30 19546 O 1891.12 -1.94314 -2.98531 0
M  V30 19547 O 1889.98 -2.76749 -4.71245 0
M  V30 19548 H 1887.07 -0.387753 -0.730463 0
M  V30 19549 H 1889.62 -1.37243 -0.998117 0
M  V30 19550 H 1888.39 -2.95779 -2.56185 0
M  V30 19551 H 1888.01 -1.61765 -3.63205 0
M  V30 19552 N 1889.01 1.14984 -1.07779 0
M  V30 19553 C 1890.26 1.85506 -0.802 0
M  V30 19554 C 1890.58 1.82981 0.674026 0
M  V30 19555 O 1889.85 1.27376 1.48836 0
M  V30 19556 H 1888.43 0.686845 -0.293689 0
M  V30 19557 H 1891.09 1.39368 -1.36244 0
M  V30 19558 H 1890.19 2.90518 -1.14042 0
M  V30 19559 N 1890.49 0.862526 1.31902 0
M  V30 19560 C 1891.44 0.31091 2.28696 0
M  V30 19561 C 1892.41 -0.586495 1.55401 0
M  V30 19562 O 1893.59 -0.519727 1.83585 0
M  V30 19563 C 1890.73 -0.487986 3.41632 0
M  V30 19564 C 1889.84 0.436096 4.29793 0
M  V30 19565 C 1888.98 -0.376197 5.29866 0
M  V30 19566 C 1888.02 0.544784 6.09671 0
M  V30 19567 N 1887.16 -0.230806 7.01721 0
M  V30 19568 H 1892 1.14156 2.75268 0
M  V30 19569 H 1889.53 0.574352 1.35424 0
M  V30 19570 H 1891.49 -0.966875 4.05842 0
M  V30 19571 H 1890.12 -1.28339 2.96191 0
M  V30 19572 H 1889.17 1.03341 3.66094 0
M  V30 19573 H 1890.48 1.14259 4.85537 0
M  V30 19574 H 1889.64 -0.917915 5.99716 0
M  V30 19575 H 1888.38 -1.11602 4.74759 0
M  V30 19576 H 1887.38 1.09832 5.38718 0
M  V30 19577 H 1888.61 1.28334 6.66864 0
M  V30 19578 H 1886.55 -0.95358 6.49032 0
M  V30 19579 H 1886.47 0.416499 7.54852 0
M  V30 19580 H 1887.74 -0.753996 7.75845 0
M  V30 19581 N 1891.97 -1.4484 0.62123 0
M  V30 19582 C 1893.25 -1.95528 0.0531511 0
M  V30 19583 C 1893.63 -1.56342 -1.41846 0
M  V30 19584 O 1892.97 -0.832621 -2.1279 0
M  V30 19585 C 1893.18 -3.47988 0.2656 0
M  V30 19586 C 1894.53 -4.24322 0.153573 0
M  V30 19587 O 1895.56 -3.55658 0.19644 0
M  V30 19588 O 1894.41 -5.46477 0.05015 0
M  V30 19589 H 1891.51 -0.826527 -0.0279665 0
M  V30 19590 H 1894.05 -1.54939 0.692243 0
M  V30 19591 H 1892.83 -3.69525 1.28713 0
M  V30 19592 H 1892.45 -3.955 -0.408105 0
M  V30 19593 N 1893.45 -0.361184 -1.53405 0
M  V30 19594 C 1894.69 0.230222 -2.01489 0
M  V30 19595 C 1895.03 1.48779 -1.24814 0
M  V30 19596 O 1894.3 1.91494 -0.340612 0
M  V30 19597 C 1894.58 0.526613 -3.56229 0
M  V30 19598 C 1894.44 -0.744277 -4.436 0
M  V30 19599 C 1895.76 1.32901 -4.19554 0
M  V30 19600 H 1892.87 0.0822009 -0.732402 0
M  V30 19601 H 1895.52 -0.485208 -1.837 0
M  V30 19602 H 1893.67 1.13609 -3.71517 0
M  V30 19603 H 1895.34 -1.38188 -4.40116 0
M  V30 19604 H 1893.58 -1.36555 -4.11747 0
M  V30 19605 H 1894.25 -0.491913 -5.49804 0
M  V30 19606 H 1896.73 0.813474 -4.08071 0
M  V30 19607 H 1895.6 1.50513 -5.27861 0
M  V30 19608 H 1895.87 2.33625 -3.75329 0
M  V30 19609 N 1894.92 1.57341 -0.0902386 0
M  V30 19610 C 1896.15 1.98934 0.586524 0
M  V30 19611 C 1896.57 0.968841 1.6123 0
M  V30 19612 O 1895.93 -0.0632868 1.8119 0
M  V30 19613 C 1895.98 3.39509 1.21516 0
M  V30 19614 O 1895.08 3.40203 2.331 0
M  V30 19615 H 1894.43 0.647009 0.14925 0
M  V30 19616 H 1896.96 2.03891 -0.170213 0
M  V30 19617 H 1896.97 3.77097 1.55762 0
M  V30 19618 H 1895.64 4.13308 0.463639 0
M  V30 19619 H 1894.22 3.14405 2.0051 0
M  V30 19620 N 1896.4 -0.183431 1.56529 0
M  V30 19621 C 1897.33 -1.22973 1.98494 0
M  V30 19622 C 1898.31 -1.46837 0.858653 0
M  V30 19623 O 1899.5 -1.58377 1.12385 0
M  V30 19624 C 1896.63 -2.57138 2.33446 0
M  V30 19625 C 1895.58 -2.47865 3.48922 0
M  V30 19626 C 1894.91 -3.8641 3.69582 0
M  V30 19627 C 1896.21 -1.99371 4.82751 0
M  V30 19628 H 1897.9 -0.880938 2.86147 0
M  V30 19629 H 1895.45 -0.422321 1.37668 0
M  V30 19630 H 1897.4 -3.30527 2.614 0
M  V30 19631 H 1896.13 -2.93781 1.42689 0
M  V30 19632 H 1894.78 -1.76932 3.21077 0
M  V30 19633 H 1894.43 -4.20426 2.76136 0
M  V30 19634 H 1894.13 -3.81077 4.47274 0
M  V30 19635 H 1895.66 -4.61403 3.99924 0
M  V30 19636 H 1897.07 -2.62526 5.0966 0
M  V30 19637 H 1895.47 -2.05014 5.63994 0
M  V30 19638 H 1896.54 -0.947442 4.75554 0
M  V30 19639 N 1897.88 -1.50992 -0.451564 0
M  V30 19640 C 1898.81 -1.74216 -1.5547 0
M  V30 19641 C 1899.79 -0.591568 -1.59482 0
M  V30 19642 O 1900.98 -0.83279 -1.75437 0
M  V30 19643 C 1898.11 -1.85421 -2.9366 0
M  V30 19644 C 1897.06 -3.0076 -3.04512 0
M  V30 19645 C 1896.39 -2.9713 -4.44542 0
M  V30 19646 C 1897.69 -4.40961 -2.79911 0
M  V30 19647 H 1899.38 -2.66582 -1.36287 0
M  V30 19648 H 1896.93 -1.28281 -0.654207 0
M  V30 19649 H 1898.88 -2.00252 -3.70779 0
M  V30 19650 H 1897.6 -0.896921 -3.14043 0
M  V30 19651 H 1896.26 -2.85611 -2.2983 0
M  V30 19652 H 1895.91 -1.99207 -4.61872 0
M  V30 19653 H 1895.61 -3.74572 -4.52736 0
M  V30 19654 H 1897.13 -3.14035 -5.23655 0
M  V30 19655 H 1898.55 -4.56534 -3.4677 0
M  V30 19656 H 1896.95 -5.20002 -2.9953 0
M  V30 19657 H 1898.02 -4.51981 -1.75618 0
M  V30 19658 N 1899.36 0.706069 -1.40899 0
M  V30 19659 C 1900.6 1.47839 -1.41149 0
M  V30 19660 C 1900.96 1.91993 -0.0158488 0
M  V30 19661 O 1902.16 2.68588 0.106807 0
M  V30 19662 C 1900.43 2.66503 -2.38141 0
M  V30 19663 S 1901.99 3.55785 -2.56831 0
M  V30 19664 H 1898.81 0.505332 -0.50016 0
M  V30 19665 H 1901.41 0.824818 -1.77248 0
M  V30 19666 H 1900.12 2.32251 -3.3836 0
M  V30 19667 H 1899.65 3.36763 -2.03358 0
M  V30 19668 H 1901.66 4.61307 -1.82785 0
M  V30 19669 N 1900.84 1.26553 0.939264 0
M  V30 19670 C 1901.77 1.04069 2.04211 0
M  V30 19671 C 1902.78 0.000506291 1.628 0
M  V30 19672 O 1903.97 0.240794 1.76868 0
M  V30 19673 C 1901.07 0.554348 3.34335 0
M  V30 19674 C 1900.24 1.6642 4.04503 0
M  V30 19675 C 1899.3 1.17558 5.129 0
M  V30 19676 O 1898.33 1.87303 5.375 0
M  V30 19677 N 1899.53 0.0250252 5.80495 0
M  V30 19678 H 1902.3 1.99036 2.24065 0
M  V30 19679 H 1899.86 1.17964 1.10888 0
M  V30 19680 H 1901.85 0.211606 4.04146 0
M  V30 19681 H 1900.42 -0.301779 3.1114 0
M  V30 19682 H 1899.64 2.17779 3.28582 0
M  V30 19683 H 1900.93 2.4094 4.48136 0
M  V30 19684 H 1900.32 -0.557378 5.62947 0
M  V30 19685 H 1898.88 -0.258625 6.51287 0
M  V30 19686 N 1902.31 -1.14411 1.08387 0
M  V30 19687 C 1903.25 -2.18516 0.657718 0
M  V30 19688 C 1904.23 -1.59207 -0.330415 0
M  V30 19689 O 1905.41 -1.87038 -0.234325 0
M  V30 19690 C 1902.54 -3.38684 -0.0326254 0
M  V30 19691 C 1901.58 -4.16556 0.915623 0
M  V30 19692 S 1902.42 -4.77588 2.42218 0
M  V30 19693 C 1903.57 -6.01113 1.74395 0
M  V30 19694 H 1903.8 -2.54327 1.53965 0
M  V30 19695 H 1901.34 -1.2554 0.898836 0
M  V30 19696 H 1903.3 -4.08298 -0.424651 0
M  V30 19697 H 1901.96 -3.01196 -0.891048 0
M  V30 19698 H 1901.15 -5.02569 0.379492 0
M  V30 19699 H 1900.75 -3.52544 1.24854 0
M  V30 19700 H 1903.04 -6.69128 1.06177 0
M  V30 19701 H 1903.99 -6.59315 2.58281 0
M  V30 19702 H 1904.39 -5.51217 1.2174 0
M  V30 19703 N 1903.79 -0.869509 -1.31443 0
M  V30 19704 C 1905.04 -0.480925 -1.97015 0
M  V30 19705 C 1905.37 0.964227 -1.68571 0
M  V30 19706 O 1904.65 1.67893 -0.981953 0
M  V30 19707 C 1904.93 -0.738064 -3.52455 0
M  V30 19708 C 1904.78 -2.23272 -3.90474 0
M  V30 19709 C 1906.1 -0.204237 -4.39626 0
M  V30 19710 H 1903.22 -0.176206 -0.715626 0
M  V30 19711 H 1905.86 -1.09066 -1.55578 0
M  V30 19712 H 1904.01 -0.21909 -3.87882 0
M  V30 19713 H 1905.68 -2.81891 -3.65151 0
M  V30 19714 H 1903.93 -2.70546 -3.39098 0
M  V30 19715 H 1904.6 -2.36328 -4.98852 0
M  V30 19716 H 1907.07 -0.648228 -4.1102 0
M  V30 19717 H 1905.95 -0.413608 -5.47339 0
M  V30 19718 H 1906.21 0.893807 -4.32971 0
M  V30 19719 N 1905.27 1.44508 -0.628902 0
M  V30 19720 C 1906.5 2.06942 -0.137778 0
M  V30 19721 C 1906.92 1.46672 1.17766 0
M  V30 19722 O 1906.28 0.567342 1.72194 0
M  V30 19723 C 1906.33 3.60584 -0.0341843 0
M  V30 19724 O 1905.43 3.99831 1.01038 0
M  V30 19725 H 1904.77 0.658696 -0.083759 0
M  V30 19726 H 1907.3 1.85418 -0.864951 0
M  V30 19727 H 1907.31 4.07697 0.157123 0
M  V30 19728 H 1905.99 4.03833 -0.994583 0
M  V30 19729 H 1904.56 3.64353 0.793824 0
M  V30 19730 N 1906.75 0.369315 1.53212 0
M  V30 19731 C 1907.98 -0.219858 2.05729 0
M  V30 19732 C 1908.39 -1.42148 1.24255 0
M  V30 19733 O 1907.75 -1.80274 0.284146 0
M  V30 19734 C 1907.8 -0.609683 3.56322 0
M  V30 19735 O 1907.52 0.544184 4.34707 0
M  V30 19736 C 1909.02 -1.25685 4.2511 0
M  V30 19737 H 1906.24 -0.037867 0.669931 0
M  V30 19738 H 1908.79 0.528765 1.97546 0
M  V30 19739 H 1906.94 -1.30822 3.64643 0
M  V30 19740 H 1907.36 0.228276 5.24003 0
M  V30 19741 H 1908.83 -1.48014 5.31785 0
M  V30 19742 H 1909.31 -2.21827 3.79064 0
M  V30 19743 H 1909.91 -0.59964 4.21052 0
M  V30 19744 N 1908.23 -1.57291 0.0985816 0
M  V30 19745 C 1909.47 -1.94767 -0.56514 0
M  V30 19746 C 1909.81 -0.980722 -1.67617 0
M  V30 19747 O 1909.08 -0.0143714 -1.94495 0
M  V30 19748 C 1909.36 -3.42336 -1.11704 0
M  V30 19749 C 1909.22 -4.49799 -0.0108284 0
M  V30 19750 C 1910.54 -3.91296 -2.01434 0
M  V30 19751 H 1907.66 -0.708215 -0.203963 0
M  V30 19752 H 1910.3 -1.89238 0.169998 0
M  V30 19753 H 1908.45 -3.47179 -1.74354 0
M  V30 19754 H 1910.12 -4.57066 0.623574 0
M  V30 19755 H 1908.36 -4.28825 0.655093 0
M  V30 19756 H 1909.03 -5.50261 -0.437868 0
M  V30 19757 H 1911.51 -3.88628 -1.48685 0
M  V30 19758 H 1910.39 -4.9511 -2.36975 0
M  V30 19759 H 1910.65 -3.30792 -2.93307 0
M  V30 19760 N 1909.71 0.175127 -1.56624 0
M  V30 19761 C 1910.98 0.919424 -1.72644 0
M  V30 19762 C 1911.36 2.00553 -0.658929 0
M  V30 19763 O 1910.71 2.2615 0.326897 0
M  V30 19764 C 1910.92 1.48764 -3.15706 0
M  V30 19765 C 1912.27 1.96204 -3.76549 0
M  V30 19766 O 1913.29 1.58565 -3.1896 0
M  V30 19767 O 1912.15 2.65525 -4.7766 0
M  V30 19768 H 1909.25 0.43251 -0.704886 0
M  V30 19769 H 1911.79 0.163255 -1.68913 0
M  V30 19770 H 1910.56 0.705743 -3.84883 0
M  V30 19771 H 1910.19 2.3081 -3.23748 0
M  V30 19772 N 1911.18 1.5123 0.44355 0
M  V30 19773 C 1912.43 1.6359 1.1935 0
M  V30 19774 C 1912.76 0.349172 1.9134 0
M  V30 19775 O 1912.01 -0.66645 1.84003 0
M  V30 19776 C 1912.31 2.78511 2.23978 0
M  V30 19777 C 1911.98 4.18013 1.69045 0
M  V30 19778 C 1910.64 4.55964 1.53786 0
M  V30 19779 C 1912.99 5.05088 1.28591 0
M  V30 19780 C 1910.32 5.78703 0.965374 0
M  V30 19781 C 1912.67 6.284 0.72774 0
M  V30 19782 C 1911.34 6.6513 0.562001 0
M  V30 19783 H 1910.61 0.59862 0.436733 0
M  V30 19784 H 1913.25 1.85245 0.485449 0
M  V30 19785 H 1911.56 2.51054 3.00798 0
M  V30 19786 H 1913.26 2.85275 2.81814 0
M  V30 19787 H 1909.85 3.88087 1.81896 0
M  V30 19788 H 1914.03 4.76378 1.39202 0
M  V30 19789 H 1909.29 6.05813 0.824671 0
M  V30 19790 H 1913.46 6.95217 0.405735 0
M  V30 19791 H 1911.09 7.60111 0.116266 0
M  V30 19792 N 1912.66 -0.698586 1.41271 0
M  V30 19793 C 1913.91 -1.45425 1.39766 0
M  V30 19794 C 1914.22 -1.95598 0.00891528 0
M  V30 19795 O 1915.43 -2.71195 -0.128757 0
M  V30 19796 C 1913.89 -2.62952 2.45732 0
M  V30 19797 C 1913.49 -2.19578 3.90499 0
M  V30 19798 C 1915.24 -3.40602 2.53359 0
M  V30 19799 C 1913.14 -3.34046 4.88024 0
M  V30 19800 H 1912.07 -0.546236 0.519752 0
M  V30 19801 H 1914.73 -0.758678 1.67082 0
M  V30 19802 H 1913.11 -3.34762 2.11542 0
M  V30 19803 H 1914.28 -1.55077 4.33921 0
M  V30 19804 H 1912.6 -1.5493 3.86504 0
M  V30 19805 H 1915.19 -4.25809 3.23405 0
M  V30 19806 H 1915.54 -3.85582 1.56946 0
M  V30 19807 H 1916.07 -2.75846 2.86625 0
M  V30 19808 H 1912.81 -2.94081 5.8583 0
M  V30 19809 H 1912.33 -3.97407 4.49253 0
M  V30 19810 H 1914.01 -3.99867 5.0864 0
M  V30 19811 N 1914.14 -1.27049 -0.93254 0
M  V30 19812 C 1915.55 -1.11887 -1.49459 0
M  V30 19813 C 1915.9 0.297825 -1.93926 0
M  V30 19814 O 1915.03 1.19024 -1.80727 0
M  V30 19815 C 1915.62 -2.02497 -2.71626 0
M  V30 19816 C 1914.18 -1.91455 -3.24071 0
M  V30 19817 C 1913.33 -1.95337 -1.96821 0
M  V30 19818 H 1916.28 -1.40013 -0.747138 0
M  V30 19819 H 1916.3 -1.57794 -3.46239 0
M  V30 19820 H 1915.81 -3.05598 -2.39231 0
M  V30 19821 H 1913.91 -0.913212 -3.61236 0
M  V30 19822 H 1914.03 -2.77443 -3.90592 0
M  V30 19823 H 1912.39 -1.395 -2.13101 0
M  V30 19824 H 1913.17 -3.00084 -1.66746 0
M  V30 19825 N 1915.62 1.13835 -1.08993 0
M  V30 19826 C 1917.03 1.66568 -0.843325 0
M  V30 19827 C 1917.38 1.85846 0.628955 0
M  V30 19828 O 1916.5 1.57401 1.48506 0
M  V30 19829 C 1917.1 3.02573 -1.52431 0
M  V30 19830 C 1915.66 3.52315 -1.3248 0
M  V30 19831 C 1914.81 2.27658 -1.58326 0
M  V30 19832 H 1917.76 0.978181 -1.24969 0
M  V30 19833 H 1917.78 3.68323 -0.954898 0
M  V30 19834 H 1917.29 2.8851 -2.59584 0
M  V30 19835 H 1915.39 3.71589 -0.274248 0
M  V30 19836 H 1915.5 4.32715 -2.05657 0
M  V30 19837 H 1913.87 2.34028 -1.00514 0
M  V30 19838 H 1914.65 2.16165 -2.66698 0
M  V30 19839 N 1917.1 0.876467 1.3098 0
M  V30 19840 C 1918.03 0.281625 2.26456 0
M  V30 19841 C 1919.01 -0.592945 1.51403 0
M  V30 19842 O 1920.19 -0.544929 1.80452 0
M  V30 19843 C 1917.32 -0.600618 3.33332 0
M  V30 19844 C 1916.36 0.203478 4.26014 0
M  V30 19845 S 1917.2 1.58623 5.11468 0
M  V30 19846 C 1918.35 0.710283 6.21857 0
M  V30 19847 H 1918.59 1.09094 2.76561 0
M  V30 19848 H 1916.12 0.675375 1.38845 0
M  V30 19849 H 1918.08 -1.10392 3.95378 0
M  V30 19850 H 1916.74 -1.38394 2.81968 0
M  V30 19851 H 1915.93 -0.469415 5.01809 0
M  V30 19852 H 1915.53 0.639107 3.68499 0
M  V30 19853 H 1917.82 -0.0763736 6.77457 0
M  V30 19854 H 1918.77 1.43957 6.93312 0
M  V30 19855 H 1919.18 0.274955 5.6383 0
M  V30 19856 N 1918.57 -1.44173 0.636557 0
M  V30 19857 C 1919.54 -2.29133 -0.0554994 0
M  V30 19858 C 1920.54 -1.41329 -0.766986 0
M  V30 19859 O 1921.73 -1.63142 -0.610753 0
M  V30 19860 C 1918.86 -3.23031 -1.08922 0
M  V30 19861 H 1920.05 -2.91811 0.691829 0
M  V30 19862 H 1917.6 -1.51175 0.396956 0
M  V30 19863 H 1918.34 -2.65213 -1.86635 0
M  V30 19864 H 1918.12 -3.87743 -0.58291 0
M  V30 19865 H 1919.61 -3.8684 -1.57304 0
M  V30 19866 N 1920.05 -0.377435 -1.53014 0
M  V30 19867 C 1921.28 0.211512 -2.06319 0
M  V30 19868 C 1921.7 1.40713 -1.24825 0
M  V30 19869 O 1921.06 1.79274 -0.270279 0
M  V30 19870 C 1921.11 0.571512 -3.56042 0
M  V30 19871 O 1920.21 1.66713 -3.77201 0
M  V30 19872 H 1919.55 0.0279862 -0.66341 0
M  V30 19873 H 1922.08 -0.541471 -1.97305 0
M  V30 19874 H 1922.09 0.839182 -3.99277 0
M  V30 19875 H 1920.77 -0.302672 -4.14797 0
M  V30 19876 H 1919.34 1.3941 -3.4586 0
M  V30 19877 N 1921.53 1.57237 -0.106922 0
M  V30 19878 C 1922.46 2.1769 0.844599 0
M  V30 19879 C 1923.44 1.11352 1.28587 0
M  V30 19880 O 1924.63 1.39539 1.35065 0
M  V30 19881 C 1921.76 2.76668 2.09933 0
M  V30 19882 C 1920.71 3.88482 1.79627 0
M  V30 19883 C 1920.04 4.34214 3.12029 0
M  V30 19884 C 1921.34 5.11139 1.07399 0
M  V30 19885 H 1923.03 2.97453 0.340887 0
M  V30 19886 H 1920.58 1.4308 0.162523 0
M  V30 19887 H 1922.53 3.17614 2.76946 0
M  V30 19888 H 1921.25 1.94176 2.62608 0
M  V30 19889 H 1919.91 3.48093 1.15008 0
M  V30 19890 H 1919.56 3.48597 3.62614 0
M  V30 19891 H 1919.26 5.09608 2.9253 0
M  V30 19892 H 1920.78 4.77803 3.8018 0
M  V30 19893 H 1922.2 5.4918 1.64543 0
M  V30 19894 H 1920.6 5.92038 0.980375 0
M  V30 19895 H 1921.67 4.84864 0.0586914 0
M  V30 19896 N 1923.01 -0.166818 1.56715 0
M  V30 19897 C 1923.92 -1.22632 1.99996 0
M  V30 19898 C 1924.93 -1.4818 0.912068 0
M  V30 19899 O 1926.11 -1.6024 1.22005 0
M  V30 19900 C 1923.18 -2.54444 2.35498 0
M  V30 19901 C 1922.24 -2.36718 3.58138 0
M  V30 19902 C 1921.47 -3.62244 3.91937 0
M  V30 19903 O 1921.69 -4.67609 3.26646 0
M  V30 19904 O 1920.63 -3.56087 4.85269 0
M  V30 19905 H 1924.45 -0.888926 2.90399 0
M  V30 19906 H 1922.04 -0.374032 1.44642 0
M  V30 19907 H 1923.92 -3.32191 2.59281 0
M  V30 19908 H 1922.59 -2.87753 1.48256 0
M  V30 19909 H 1921.5 -1.56987 3.39567 0
M  V30 19910 H 1922.83 -2.08332 4.45936 0
M  V30 19911 N 1924.49 -1.51463 -0.435524 0
M  V30 19912 C 1925.4 -1.75755 -1.55394 0
M  V30 19913 C 1926.41 -0.641853 -1.61729 0
M  V30 19914 O 1927.59 -0.924311 -1.78937 0
M  V30 19915 C 1924.65 -1.87908 -2.91361 0
M  V30 19916 C 1923.71 -3.11766 -2.95128 0
M  V30 19917 C 1922.95 -3.2333 -4.2461 0
M  V30 19918 O 1923.17 -2.40789 -5.17085 0
M  V30 19919 O 1922.1 -4.16319 -4.34698 0
M  V30 19920 H 1925.93 -2.70633 -1.3781 0
M  V30 19921 H 1923.52 -1.35986 -0.618717 0
M  V30 19922 H 1925.4 -1.97877 -3.72052 0
M  V30 19923 H 1924.07 -0.962179 -3.09069 0
M  V30 19924 H 1922.98 -3.07274 -2.13386 0
M  V30 19925 H 1924.31 -4.03151 -2.82365 0
M  V30 19926 N 1925.96 0.691085 -1.4164 0
M  V30 19927 C 1926.91 1.80495 -1.43841 0
M  V30 19928 C 1927.88 1.63509 -0.292237 0
M  V30 19929 O 1929.07 1.84296 -0.493941 0
M  V30 19930 C 1926.21 3.18412 -1.33072 0
M  V30 19931 C 1925.32 3.46799 -2.57594 0
M  V30 19932 C 1924.45 4.74354 -2.39085 0
M  V30 19933 C 1923.49 4.95723 -3.59061 0
M  V30 19934 N 1922.63 6.14507 -3.39596 0
M  V30 19935 H 1927.47 1.77949 -2.39036 0
M  V30 19936 H 1925.01 0.86893 -1.18693 0
M  V30 19937 H 1926.97 3.98087 -1.24829 0
M  V30 19938 H 1925.6 3.20124 -0.414814 0
M  V30 19939 H 1924.65 2.61496 -2.76268 0
M  V30 19940 H 1925.96 3.58489 -3.46824 0
M  V30 19941 H 1925.11 5.62092 -2.28336 0
M  V30 19942 H 1923.85 4.64918 -1.47319 0
M  V30 19943 H 1922.86 4.06432 -3.70261 0
M  V30 19944 H 1924.08 5.07015 -4.51788 0
M  V30 19945 H 1922.03 6.06275 -2.50532 0
M  V30 19946 H 1921.95 6.26985 -4.22405 0
M  V30 19947 H 1923.21 7.04968 -3.32627 0
M  V30 19948 N 1927.44 1.27542 0.925789 0
M  V30 19949 C 1928.69 1.13767 1.67038 0
M  V30 19950 C 1929.01 -0.316603 1.92413 0
M  V30 19951 O 1928.28 -1.22124 1.53175 0
M  V30 19952 H 1926.86 0.41803 0.61908 0
M  V30 19953 H 1929.52 1.60097 1.11153 0
M  V30 19954 H 1928.62 1.66818 2.63777 0
M  V30 19955 N 1928.92 -1.13255 1.09595 0
M  V30 19956 C 1930.17 -1.83925 0.827926 0
M  V30 19957 C 1930.48 -1.84531 -0.64866 0
M  V30 19958 O 1931.69 -2.5111 -1.03228 0
M  V30 19959 C 1930.14 -3.30219 1.43121 0
M  V30 19960 C 1929.75 -3.37996 2.94046 0
M  V30 19961 C 1931.5 -4.05918 1.24221 0
M  V30 19962 C 1929.4 -4.78572 3.47451 0
M  V30 19963 H 1928.33 -0.689091 0.306056 0
M  V30 19964 H 1930.98 -1.27586 1.31887 0
M  V30 19965 H 1929.37 -3.86371 0.867952 0
M  V30 19966 H 1930.54 -2.91829 3.56612 0
M  V30 19967 H 1928.86 -2.75762 3.12 0
M  V30 19968 H 1931.45 -5.09704 1.61573 0
M  V30 19969 H 1931.8 -4.15898 0.183004 0
M  V30 19970 H 1932.33 -3.561 1.77306 0
M  V30 19971 H 1929.07 -4.73785 4.52999 0
M  V30 19972 H 1928.59 -5.25227 2.89649 0
M  V30 19973 H 1930.27 -5.47495 3.44759 0
M  V30 19974 N 1930.4 -0.883401 -1.30514 0
M  V30 19975 C 1931.33 -0.36516 -2.30627 0
M  V30 19976 C 1932.31 0.551149 -1.60923 0
M  V30 19977 O 1933.49 0.465333 -1.88543 0
M  V30 19978 C 1930.62 0.422552 -3.4472 0
M  V30 19979 C 1929.58 -0.401856 -4.26109 0
M  V30 19980 C 1928.9 0.512363 -5.3224 0
M  V30 19981 C 1930.2 -1.64313 -4.95781 0
M  V30 19982 H 1931.9 -1.20175 -2.74223 0
M  V30 19983 H 1929.44 -0.579315 -1.31833 0
M  V30 19984 H 1931.4 0.795726 -4.13819 0
M  V30 19985 H 1930.12 1.29278 -2.99925 0
M  V30 19986 H 1928.78 -0.75715 -3.58696 0
M  V30 19987 H 1928.43 1.38025 -4.83692 0
M  V30 19988 H 1928.13 -0.0354331 -5.87589 0
M  V30 19989 H 1929.65 0.882088 -6.04195 0
M  V30 19990 H 1931.07 -1.34063 -5.57405 0
M  V30 19991 H 1929.46 -2.13101 -5.60989 0
M  V30 19992 H 1930.53 -2.38843 -4.21998 0
M  V30 19993 N 1931.88 1.43833 -0.644194 0
M  V30 19994 C 1933.11 2.0597 -0.161163 0
M  V30 19995 C 1933.51 1.48309 1.17478 0
M  V30 19996 O 1932.86 0.60548 1.73435 0
M  V30 19997 C 1932.92 3.59497 0.014069 0
M  V30 19998 C 1932.58 4.39693 -1.24575 0
M  V30 19999 C 1933.58 4.72336 -2.17244 0
M  V30 20000 C 1931.27 4.79853 -1.48481 0
M  V30 20001 C 1933.26 5.44036 -3.3212 0
M  V30 20002 C 1930.95 5.51299 -2.63652 0
M  V30 20003 C 1931.94 5.83312 -3.55297 0
M  V30 20004 O 1931.63 6.53301 -4.68458 0
M  V30 20005 H 1931.36 0.670886 -0.0829965 0
M  V30 20006 H 1933.92 1.85477 -0.882467 0
M  V30 20007 H 1932.15 3.78531 0.790652 0
M  V30 20008 H 1933.84 4.03361 0.453309 0
M  V30 20009 H 1934.6 4.41836 -2.00014 0
M  V30 20010 H 1930.48 4.54348 -0.780324 0
M  V30 20011 H 1934.03 5.6894 -4.03674 0
M  V30 20012 H 1929.92 5.81214 -2.80821 0
M  V30 20013 H 1930.69 6.71778 -4.67607 0
M  V30 20014 N 1933.35 0.385544 1.52811 0
M  V30 20015 C 1934.58 -0.198025 2.0595 0
M  V30 20016 C 1935 -1.40822 1.25756 0
M  V30 20017 O 1934.35 -1.79963 0.303251 0
M  V30 20018 C 1934.41 -0.571856 3.56948 0
M  V30 20019 O 1934.13 0.59026 4.34105 0
M  V30 20020 C 1935.63 -1.21169 4.26419 0
M  V30 20021 H 1932.85 -0.0307594 0.670295 0
M  V30 20022 H 1935.39 0.549688 1.96974 0
M  V30 20023 H 1933.55 -1.26947 3.6601 0
M  V30 20024 H 1933.96 0.28384 5.23731 0
M  V30 20025 H 1935.43 -1.42366 5.33325 0
M  V30 20026 H 1935.91 -2.17794 3.81395 0
M  V30 20027 H 1936.52 -0.554949 4.21664 0
M  V30 20028 N 1934.83 -1.57178 0.115259 0
M  V30 20029 C 1936.06 -1.99842 -0.554802 0
M  V30 20030 C 1936.48 -0.994368 -1.59668 0
M  V30 20031 O 1935.84 0.0344531 -1.81267 0
M  V30 20032 C 1935.89 -3.41399 -1.16099 0
M  V30 20033 O 1934.99 -3.43868 -2.27659 0
M  V30 20034 H 1934.33 -0.649301 -0.138937 0
M  V30 20035 H 1936.86 -2.03594 0.202629 0
M  V30 20036 H 1936.87 -3.79527 -1.49743 0
M  V30 20037 H 1935.55 -4.13993 -0.397827 0
M  V30 20038 H 1934.13 -3.17555 -1.95482 0
M  V30 20039 N 1936.31 0.158505 -1.56801 0
M  V30 20040 C 1937.72 0.71972 -1.7227 0
M  V30 20041 C 1938.07 1.822 -0.72784 0
M  V30 20042 O 1937.2 2.1613 0.108043 0
M  V30 20043 C 1937.79 1.31231 -3.12352 0
M  V30 20044 C 1936.35 1.82021 -3.29462 0
M  V30 20045 C 1935.5 0.704157 -2.68211 0
M  V30 20046 H 1938.45 -0.0670395 -1.58558 0
M  V30 20047 H 1938.47 2.18208 -3.11714 0
M  V30 20048 H 1937.98 0.509823 -3.84737 0
M  V30 20049 H 1936.08 2.64873 -2.62056 0
M  V30 20050 H 1936.2 1.95684 -4.37315 0
M  V30 20051 H 1934.56 1.12787 -2.28366 0
M  V30 20052 H 1935.34 -0.0866929 -3.43191 0
M  V30 20053 N 1937.79 1.51692 0.427485 0
M  V30 20054 C 1939.04 1.64847 1.17608 0
M  V30 20055 C 1939.36 0.369447 1.90959 0
M  V30 20056 O 1938.62 -0.646897 1.84699 0
M  V30 20057 C 1938.92 2.80871 2.21011 0
M  V30 20058 C 1938.58 4.19782 1.64602 0
M  V30 20059 C 1937.25 4.5757 1.48941 0
M  V30 20060 C 1939.6 5.06423 1.23226 0
M  V30 20061 C 1936.93 5.79695 0.903941 0
M  V30 20062 C 1939.28 6.29137 0.661048 0
M  V30 20063 C 1937.94 6.65689 0.491424 0
M  V30 20064 H 1937.21 0.603218 0.430359 0
M  V30 20065 H 1939.86 1.85749 0.465774 0
M  V30 20066 H 1938.16 2.5423 2.98118 0
M  V30 20067 H 1939.86 2.88248 2.78772 0
M  V30 20068 H 1936.45 3.89995 1.7777 0
M  V30 20069 H 1940.64 4.77828 1.34142 0
M  V30 20070 H 1935.89 6.06653 0.76037 0
M  V30 20071 H 1940.07 6.95608 0.331975 0
M  V30 20072 H 1937.69 7.60192 0.0356395 0
M  V30 20073 N 1939.27 -0.683564 1.42004 0
M  V30 20074 C 1940.2 -1.80812 1.39221 0
M  V30 20075 C 1941.18 -1.60545 0.25771 0
M  V30 20076 O 1942.36 -1.83135 0.446539 0
M  V30 20077 C 1939.49 -3.17679 1.17463 0
M  V30 20078 C 1938.54 -3.56713 2.33791 0
M  V30 20079 S 1939.37 -3.60144 3.96304 0
M  V30 20080 C 1940.52 -4.99718 3.76872 0
M  V30 20081 H 1940.76 -1.82897 2.34384 0
M  V30 20082 H 1938.29 -0.853409 1.28671 0
M  V30 20083 H 1940.25 -3.96686 1.05597 0
M  V30 20084 H 1938.91 -3.13189 0.239001 0
M  V30 20085 H 1938.1 -4.56174 2.14292 0
M  V30 20086 H 1937.7 -2.85045 2.42127 0
M  V30 20087 H 1940 -5.87555 3.37321 0
M  V30 20088 H 1940.94 -5.24261 4.75979 0
M  V30 20089 H 1941.35 -4.71823 3.09909 0
M  V30 20090 N 1940.75 -1.28031 -0.919012 0
M  V30 20091 C 1941.99 -1.14258 -1.66217 0
M  V30 20092 C 1942.31 0.309269 -1.9314 0
M  V30 20093 O 1943.51 0.568038 -2.65491 0
M  V30 20094 C 1941.97 -1.99702 -2.99411 0
M  V30 20095 C 1941.58 -3.49596 -2.80155 0
M  V30 20096 C 1943.32 -1.94601 -3.77267 0
M  V30 20097 C 1941.23 -4.27209 -4.08958 0
M  V30 20098 H 1940.16 -0.424009 -0.623484 0
M  V30 20099 H 1942.81 -1.52521 -1.02028 0
M  V30 20100 H 1941.19 -1.5429 -3.64706 0
M  V30 20101 H 1942.37 -4.02929 -2.23574 0
M  V30 20102 H 1940.68 -3.56167 -2.15718 0
M  V30 20103 H 1943.28 -2.49859 -4.72731 0
M  V30 20104 H 1943.62 -0.92157 -4.05971 0
M  V30 20105 H 1944.15 -2.37954 -3.18783 0
M  V30 20106 H 1940.89 -5.30212 -3.8543 0
M  V30 20107 H 1940.41 -3.7865 -4.65171 0
M  V30 20108 H 1942.09 -4.36847 -4.77256 0
M  V30 20109 N 1942.22 1.12672 -1.10194 0
M  V30 20110 C 1943.19 2.16513 -0.751974 0
M  V30 20111 C 1944.19 1.59255 0.222352 0
M  V30 20112 O 1945.38 1.742 -0.000482744 0
M  V30 20113 C 1942.51 3.40711 -0.113421 0
M  V30 20114 H 1943.7 2.48986 -1.67171 0
M  V30 20115 H 1941.25 1.27637 -0.90214 0
M  V30 20116 H 1941.99 3.13836 0.817162 0
M  V30 20117 H 1941.77 3.83545 -0.814599 0
M  V30 20118 H 1943.26 4.1744 0.115756 0
M  V30 20119 N 1943.7 0.89031 1.30043 0
M  V30 20120 C 1944.93 0.525833 2.00623 0
M  V30 20121 C 1945.35 -0.87971 1.66261 0
M  V30 20122 O 1944.71 -1.58394 0.882105 0
M  V30 20123 C 1944.76 0.714046 3.5346 0
M  V30 20124 O 1943.86 -0.237685 4.11714 0
M  V30 20125 H 1943.2 0.20656 0.631054 0
M  V30 20126 H 1945.73 1.19932 1.65763 0
M  V30 20127 H 1945.74 0.615086 4.03337 0
M  V30 20128 H 1944.42 1.73881 3.77807 0
M  V30 20129 H 1942.99 -0.0919722 3.72787 0
M  V30 20130 N 1945.18 -1.43489 0.651812 0
M  V30 20131 C 1946.41 -2.06181 0.172334 0
M  V30 20132 C 1946.82 -1.48848 -1.16145 0
M  V30 20133 O 1946.18 -0.619246 -1.71673 0
M  V30 20134 C 1946.23 -3.61425 0.0737039 0
M  V30 20135 O 1945.95 -4.16627 1.35476 0
M  V30 20136 C 1947.45 -4.4119 -0.432019 0
M  V30 20137 H 1944.67 -0.665039 0.0892394 0
M  V30 20138 H 1947.22 -1.84018 0.892063 0
M  V30 20139 H 1945.37 -3.82779 -0.596577 0
M  V30 20140 H 1945.79 -5.1028 1.21305 0
M  V30 20141 H 1947.26 -5.50163 -0.449989 0
M  V30 20142 H 1947.74 -4.14115 -1.46306 0
M  V30 20143 H 1948.34 -4.24802 0.205721 0
M  V30 20144 N 1946.66 -0.393643 -1.52605 0
M  V30 20145 C 1947.61 0.454246 -2.28121 0
M  V30 20146 C 1948.6 1.05931 -1.32193 0
M  V30 20147 O 1949.81 0.999286 -1.49714 0
M  V30 20148 H 1946.18 0.165249 -0.733619 0
M  V30 20149 H 1948.15 -0.204084 -2.97701 0
M  V30 20150 C 1946.9 1.5671 -3.10383 0
M  V30 20151 H 1946.22 1.11084 -3.84058 0
M  V30 20152 H 1947.66 2.13451 -3.66353 0
M  V30 20153 C 1946.12 2.52562 -2.22967 0
M  V30 20154 O 1946.65 3.56075 -1.85939 0
M  V30 20155 N 1944.86 2.22405 -1.87041 0
M  V30 20156 H 1944.41 1.38261 -2.17351 0
M  V30 20157 H 1944.36 2.86787 -1.28843 0
M  V30 20158 N 1948.14 1.57115 -0.123593 0
M  V30 20159 C 1949.09 2.12114 0.836157 0
M  V30 20160 C 1950.07 1.04305 1.22512 0
M  V30 20161 O 1951.26 1.3053 1.19545 0
M  V30 20162 C 1948.39 2.72776 2.08442 0
M  V30 20163 C 1947.48 3.87673 1.71962 0
M  V30 20164 N 1947.87 4.9453 1.0618 0
M  V30 20165 C 1946.17 3.97942 2.0139 0
M  V30 20166 C 1946.87 5.74861 0.889393 0
M  V30 20167 N 1945.84 5.24838 1.41586 0
M  V30 20168 H 1949.64 2.92108 0.324092 0
M  V30 20169 H 1947.16 1.62209 0.0787292 0
M  V30 20170 H 1949.16 3.10525 2.78172 0
M  V30 20171 H 1947.82 1.94247 2.60188 0
M  V30 20172 H 1948.83 5.12797 0.725245 0
M  V30 20173 H 1945.5 3.30461 2.5515 0
M  V30 20174 H 1946.89 6.70866 0.372697 0
M  V30 20175 N 1949.61 -0.150187 1.56883 0
M  V30 20176 C 1950.86 -0.86163 1.82812 0
M  V30 20177 C 1951.18 -1.81849 0.703977 0
M  V30 20178 O 1950.45 -1.93966 -0.274616 0
M  V30 20179 H 1949.03 -0.321175 0.67443 0
M  V30 20180 H 1951.69 -0.144952 1.9436 0
M  V30 20181 H 1950.79 -1.4258 2.77628 0
M  V30 20182 N 1951.09 -1.51916 -0.419434 0
M  V30 20183 C 1952.32 -1.69592 -1.19387 0
M  V30 20184 C 1952.74 -0.400225 -1.83793 0
M  V30 20185 O 1952.1 0.641368 -1.69576 0
M  V30 20186 C 1952.15 -2.8256 -2.24036 0
M  V30 20187 O 1951.25 -2.4741 -3.29942 0
M  V30 20188 H 1950.59 -0.564898 -0.348978 0
M  V30 20189 H 1953.12 -1.9857 -0.493064 0
M  V30 20190 H 1953.13 -3.07171 -2.68533 0
M  V30 20191 H 1951.81 -3.76572 -1.7654 0
M  V30 20192 H 1950.39 -2.33435 -2.90796 0
M  V30 20193 N 1952.57 0.676023 -1.42365 0
M  V30 20194 C 1953.82 1.43183 -1.42062 0
M  V30 20195 C 1954.13 1.95559 -0.0400321 0
M  V30 20196 O 1955.34 2.71365 0.0855959 0
M  V30 20197 C 1953.79 2.5901 -2.49884 0
M  V30 20198 C 1953.4 2.13338 -3.93943 0
M  V30 20199 C 1955.15 3.36528 -2.58746 0
M  V30 20200 C 1953.05 3.2624 -4.93276 0
M  V30 20201 H 1951.98 0.537899 -0.528376 0
M  V30 20202 H 1954.63 0.732001 -1.68268 0
M  V30 20203 H 1953.02 3.31355 -2.16841 0
M  V30 20204 H 1954.19 1.48154 -4.36334 0
M  V30 20205 H 1952.51 1.48761 -3.8892 0
M  V30 20206 H 1955.1 4.2061 -3.30138 0
M  V30 20207 H 1955.45 3.83036 -1.63061 0
M  V30 20208 H 1955.98 2.71252 -2.90977 0
M  V30 20209 H 1952.72 2.84724 -5.90434 0
M  V30 20210 H 1952.24 3.90209 -4.55518 0
M  V30 20211 H 1953.92 3.91725 -5.14938 0
M  V30 20212 N 1954.05 1.28517 0.912209 0
M  V30 20213 C 1955.27 1.18732 1.70052 0
M  V30 20214 C 1955.7 -0.250323 1.86427 0
M  V30 20215 O 1955.06 -1.18105 1.37553 0
M  V30 20216 C 1955.1 1.89256 3.06944 0
M  V30 20217 O 1954.21 1.20108 3.94522 0
M  V30 20218 H 1953.55 0.412087 0.520654 0
M  V30 20219 H 1956.08 1.69866 1.14048 0
M  V30 20220 H 1956.09 1.97223 3.57165 0
M  V30 20221 H 1954.76 2.93829 2.94343 0
M  V30 20222 H 1953.34 1.20315 3.52957 0
M  V30 20223 N 1955.53 -1.12086 1.1079 0
M  V30 20224 C 1956.49 -2.16111 0.763446 0
M  V30 20225 C 1957.49 -1.59371 -0.213903 0
M  V30 20226 O 1958.68 -1.74197 0.00972099 0
M  V30 20227 C 1955.81 -3.40646 0.131488 0
M  V30 20228 H 1957 -2.48096 1.68489 0
M  V30 20229 H 1954.56 -1.27156 0.908896 0
M  V30 20230 H 1955.29 -3.14265 -0.800507 0
M  V30 20231 H 1955.08 -3.83108 0.834928 0
M  V30 20232 H 1956.57 -4.17495 -0.0936165 0
M  V30 20233 N 1957 -0.897194 -1.29569 0
M  V30 20234 C 1958.42 -0.570676 -1.77764 0
M  V30 20235 C 1958.77 0.913595 -1.73631 0
M  V30 20236 O 1957.89 1.71426 -1.32068 0
M  V30 20237 C 1958.49 -1.02914 -3.22791 0
M  V30 20238 C 1957.05 -0.753828 -3.68774 0
M  V30 20239 C 1956.19 -1.20525 -2.49738 0
M  V30 20240 H 1959.14 -1.08018 -1.16266 0
M  V30 20241 H 1959.16 -0.363343 -3.78761 0
M  V30 20242 H 1958.68 -2.10944 -3.25767 0
M  V30 20243 H 1956.78 0.313965 -3.71275 0
M  V30 20244 H 1956.89 -1.34995 -4.59688 0
M  V30 20245 H 1955.25 -0.624304 -2.4693 0
M  V30 20246 H 1956.04 -2.29355 -2.55443 0
M  V30 20247 N 1958.48 1.43142 -0.659413 0
M  V30 20248 C 1959.71 2.06087 -0.183265 0
M  V30 20249 C 1960.13 1.49462 1.15354 0
M  V30 20250 O 1959.48 0.628341 1.71342 0
M  V30 20251 C 1959.53 3.61381 -0.0928701 0
M  V30 20252 O 1959.25 4.15902 -1.37684 0
M  V30 20253 C 1960.76 4.41413 0.408616 0
M  V30 20254 H 1957.98 0.664557 -0.092765 0
M  V30 20255 H 1960.52 1.83542 -0.901809 0
M  V30 20256 H 1958.67 3.8309 0.576268 0
M  V30 20257 H 1959.09 5.09629 -1.24009 0
M  V30 20258 H 1960.56 5.50394 0.420806 0
M  V30 20259 H 1961.04 4.14885 1.44108 0
M  V30 20260 H 1961.65 4.24687 -0.228247 0
M  V30 20261 N 1959.96 0.40173 1.52394 0
M  V30 20262 C 1961.21 -0.177771 2.00915 0
M  V30 20263 C 1961.52 -1.46854 1.29203 0
M  V30 20264 O 1962.73 -2.12884 1.68501 0
M  V30 20265 C 1961.18 -0.367359 3.5802 0
M  V30 20266 C 1960.79 0.910882 4.38642 0
M  V30 20267 C 1962.54 -0.902552 4.14794 0
M  V30 20268 C 1960.44 0.688888 5.87374 0
M  V30 20269 H 1959.37 -0.0702091 0.750724 0
M  V30 20270 H 1962.02 0.52604 1.75798 0
M  V30 20271 H 1960.41 -1.13332 3.79436 0
M  V30 20272 H 1961.58 1.68242 4.28989 0
M  V30 20273 H 1959.9 1.37194 3.9315 0
M  V30 20274 H 1962.49 -1.08455 5.23585 0
M  V30 20275 H 1962.84 -1.87515 3.71677 0
M  V30 20276 H 1963.37 -0.19584 3.97318 0
M  V30 20277 H 1960.11 1.63284 6.34837 0
M  V30 20278 H 1959.63 -0.0434889 5.99784 0
M  V30 20279 H 1961.31 0.328207 6.46167 0
M  V30 20280 N 1961.44 -1.57047 0.131923 0
M  V30 20281 C 1962.66 -2.00419 -0.533574 0
M  V30 20282 C 1963.09 -1.01125 -1.58605 0
M  V30 20283 O 1962.45 0.0152254 -1.81294 0
M  V30 20284 C 1962.49 -3.42611 -1.12472 0
M  V30 20285 O 1961.6 -3.46263 -2.23999 0
M  V30 20286 H 1960.94 -0.650739 -0.132043 0
M  V30 20287 H 1963.47 -2.03368 0.224211 0
M  V30 20288 H 1963.48 -3.81094 -1.45709 0
M  V30 20289 H 1962.15 -4.14392 -0.353895 0
M  V30 20290 H 1960.73 -3.1961 -1.92103 0
M  V30 20291 N 1962.92 0.141865 -1.5696 0
M  V30 20292 C 1964.19 0.882597 -1.74555 0
M  V30 20293 C 1964.57 1.9911 -0.701321 0
M  V30 20294 O 1963.92 2.26792 0.278854 0
M  V30 20295 C 1964.13 1.42034 -3.18791 0
M  V30 20296 C 1965.48 1.88172 -3.80626 0
M  V30 20297 O 1966.5 1.51764 -3.22252 0
M  V30 20298 O 1965.36 2.55333 -4.83185 0
M  V30 20299 H 1962.46 0.417461 -0.713902 0
M  V30 20300 H 1965 0.127389 -1.69221 0
M  V30 20301 H 1963.77 0.623945 -3.86293 0
M  V30 20302 H 1963.4 2.2389 -3.28571 0
M  V30 20303 N 1964.39 1.52136 0.411372 0
M  V30 20304 C 1965.62 1.70223 1.18486 0
M  V30 20305 C 1966.04 0.409966 1.83578 0
M  V30 20306 O 1965.4 -0.632366 1.69914 0
M  V30 20307 C 1965.45 2.83744 2.22535 0
M  V30 20308 O 1964.55 2.49157 3.28625 0
M  V30 20309 H 1963.9 0.566741 0.345978 0
M  V30 20310 H 1966.43 1.98829 0.482526 0
M  V30 20311 H 1966.44 3.08591 2.669 0
M  V30 20312 H 1965.11 3.77503 1.74541 0
M  V30 20313 H 1963.69 2.34974 2.89554 0
M  V30 20314 N 1965.87 -0.668464 1.42721 0
M  V30 20315 C 1967.29 -0.982344 1.25786 0
M  V30 20316 C 1967.49 -2.0081 0.166593 0
M  V30 20317 O 1966.55 -2.48273 -0.460069 0
M  V30 20318 C 1967.86 -1.48112 2.61693 0
M  V30 20319 C 1969.41 -1.59856 2.691 0
M  V30 20320 C 1969.88 -2.13128 4.05389 0
M  V30 20321 N 1971.37 -2.20452 4.07376 0
M  V30 20322 C 1972.11 -2.62761 5.09651 0
M  V30 20323 N 1971.6 -3.04475 6.22308 0
M  V30 20324 N 1973.4 -2.62565 4.97007 0
M  V30 20325 H 1965.55 0.0105662 2.12397 0
M  V30 20326 H 1967.81 -0.0578161 0.946235 0
M  V30 20327 H 1967.52 -0.801884 3.42436 0
M  V30 20328 H 1967.39 -2.45879 2.86048 0
M  V30 20329 H 1969.78 -2.26885 1.88699 0
M  V30 20330 H 1969.86 -0.605621 2.48527 0
M  V30 20331 H 1969.5 -1.46707 4.8625 0
M  V30 20332 H 1969.43 -3.13225 4.23317 0
M  V30 20333 H 1971.92 -1.91049 3.2605 0
M  V30 20334 H 1972.24 -3.35463 6.96193 0
M  V30 20335 H 1970.58 -3.02317 6.25803 0
M  V30 20336 H 1973.77 -2.29343 4.08068 0
M  V30 20337 H 1973.95 -2.95217 5.76846 0
M  V30 20338 N 1967.35 -1.28999 -0.905381 0
M  V30 20339 C 1968.31 -1.13652 -1.99038 0
M  V30 20340 C 1969.31 -0.0736646 -1.60631 0
M  V30 20341 O 1970.5 -0.320139 -1.71233 0
M  V30 20342 C 1967.64 -0.736715 -3.32844 0
M  V30 20343 H 1968.83 -2.10022 -2.14081 0
M  V30 20344 H 1966.38 -1.12104 -1.08915 0
M  V30 20345 H 1967.12 0.227383 -3.23502 0
M  V30 20346 H 1966.9 -1.50459 -3.62084 0
M  V30 20347 H 1968.39 -0.65223 -4.12475 0
M  V30 20348 N 1968.83 1.11497 -1.11383 0
M  V30 20349 C 1969.76 2.19592 -0.793827 0
M  V30 20350 C 1970.74 1.68433 0.237559 0
M  V30 20351 O 1971.93 1.93936 0.101164 0
M  V30 20352 C 1969.06 3.465 -0.235579 0
M  V30 20353 C 1968.01 4.10869 -1.19877 0
M  V30 20354 C 1967.34 5.32345 -0.501259 0
M  V30 20355 C 1968.64 4.55864 -2.54922 0
M  V30 20356 H 1970.33 2.46617 -1.69766 0
M  V30 20357 H 1967.88 1.18532 -0.817695 0
M  V30 20358 H 1969.83 4.214 0.000490272 0
M  V30 20359 H 1968.55 3.18932 0.703544 0
M  V30 20360 H 1967.21 3.37962 -1.42046 0
M  V30 20361 H 1966.86 5.01048 0.442652 0
M  V30 20362 H 1966.56 5.76363 -1.14367 0
M  V30 20363 H 1968.08 6.09985 -0.273968 0
M  V30 20364 H 1969.5 5.22089 -2.36845 0
M  V30 20365 H 1967.89 5.10693 -3.15139 0
M  V30 20366 H 1968.96 3.69342 -3.14189 0
M  V30 20367 N 1970.31 0.904053 1.29092 0
M  V30 20368 C 1971.27 0.389889 2.25859 0
M  V30 20369 C 1972.27 -0.47836 1.5352 0
M  V30 20370 O 1973.46 -0.282793 1.71889 0
M  V30 20371 C 1970.59 -0.442126 3.38021 0
M  V30 20372 H 1971.79 1.24458 2.72856 0
M  V30 20373 H 1969.34 0.68258 1.40608 0
M  V30 20374 H 1970.07 -1.31662 2.96371 0
M  V30 20375 H 1969.86 0.180067 3.91686 0
M  V30 20376 H 1971.35 -0.793021 4.10001 0
M  V30 20377 N 1971.79 -1.4279 0.666995 0
M  V30 20378 C 1973.2 -1.56027 0.335817 0
M  V30 20379 C 1973.4 -1.64812 -1.15928 0
M  V30 20380 O 1972.46 -1.61074 -1.94451 0
M  V30 20381 C 1973.77 -2.81425 1.05928 0
M  V30 20382 C 1975.32 -2.95187 1.04085 0
M  V30 20383 C 1975.79 -4.23435 1.74548 0
M  V30 20384 N 1977.28 -4.3033 1.71379 0
M  V30 20385 C 1978.02 -5.2836 2.22762 0
M  V30 20386 N 1977.52 -6.32589 2.82494 0
M  V30 20387 N 1979.31 -5.20106 2.13182 0
M  V30 20388 H 1971.46 -1.35332 1.63704 0
M  V30 20389 H 1973.72 -0.650895 0.689231 0
M  V30 20390 H 1973.43 -2.81044 2.1144 0
M  V30 20391 H 1973.3 -3.72077 0.619546 0
M  V30 20392 H 1975.69 -2.95099 -0.00591289 0
M  V30 20393 H 1975.77 -2.05786 1.5194 0
M  V30 20394 H 1975.41 -4.24283 2.79189 0
M  V30 20395 H 1975.34 -5.11756 1.24149 0
M  V30 20396 H 1977.84 -3.55633 1.27803 0
M  V30 20397 H 1978.15 -7.03733 3.19343 0
M  V30 20398 H 1976.49 -6.33173 2.86561 0
M  V30 20399 H 1979.68 -4.37597 1.66211 0
M  V30 20400 H 1979.86 -5.96343 2.53534 0
M  V30 20401 N 1973.26 -0.409806 -1.52179 0
M  V30 20402 C 1974.68 -0.0607174 -1.59484 0
M  V30 20403 C 1974.88 1.42703 -1.42261 0
M  V30 20404 O 1973.94 2.19394 -1.24991 0
M  V30 20405 C 1975.25 -0.556238 -2.95511 0
M  V30 20406 C 1976.8 -0.514272 -3.08746 0
M  V30 20407 C 1977.27 -0.986314 -4.47254 0
M  V30 20408 N 1978.76 -0.943162 -4.53496 0
M  V30 20409 C 1979.5 -1.27959 -5.5894 0
M  V30 20410 N 1978.99 -1.6875 -6.71934 0
M  V30 20411 N 1980.79 -1.19951 -5.49152 0
M  V30 20412 H 1972.94 -1.37813 -1.61621 0
M  V30 20413 H 1975.2 -0.566181 -0.760357 0
M  V30 20414 H 1974.91 -1.5961 -3.13397 0
M  V30 20415 H 1974.78 0.033749 -3.77185 0
M  V30 20416 H 1977.17 0.516546 -2.90544 0
M  V30 20417 H 1977.25 -1.14032 -2.28977 0
M  V30 20418 H 1976.89 -2.01546 -4.66199 0
M  V30 20419 H 1976.82 -0.337071 -5.2552 0
M  V30 20420 H 1979.31 -0.64326 -3.72385 0
M  V30 20421 H 1979.63 -1.9273 -7.48381 0
M  V30 20422 H 1977.97 -1.72654 -6.73213 0
M  V30 20423 H 1981.16 -0.879693 -4.5976 0
M  V30 20424 H 1981.34 -1.465 -6.31222 0
M  V30 20425 N 1974.74 1.56975 -0.14025 0
M  V30 20426 C 1975.99 1.95906 0.512543 0
M  V30 20427 C 1976.32 1.02475 1.65315 0
M  V30 20428 O 1975.57 0.0526473 1.95629 0
M  V30 20429 C 1975.87 3.4113 1.06606 0
M  V30 20430 C 1975.54 4.50878 0.044598 0
M  V30 20431 C 1974.2 4.8062 -0.236217 0
M  V30 20432 C 1976.55 5.17126 -0.650368 0
M  V30 20433 C 1973.88 5.73919 -1.21792 0
M  V30 20434 C 1976.23 6.11483 -1.62084 0
M  V30 20435 C 1974.89 6.39607 -1.90943 0
M  V30 20436 H 1974.16 0.716872 0.187553 0
M  V30 20437 H 1976.81 1.90166 -0.225653 0
M  V30 20438 H 1975.12 3.43669 1.88145 0
M  V30 20439 H 1976.81 3.68577 1.57961 0
M  V30 20440 H 1973.4 4.27726 0.273651 0
M  V30 20441 H 1977.59 4.94286 -0.446606 0
M  V30 20442 H 1972.84 5.94005 -1.44802 0
M  V30 20443 H 1977.02 6.61895 -2.1649 0
M  V30 20444 H 1974.64 7.11707 -2.67165 0
M  V30 20445 N 1976.22 -0.133539 1.57033 0
M  V30 20446 C 1977.47 -0.843859 1.8408 0
M  V30 20447 C 1977.79 -1.80556 0.723177 0
M  V30 20448 O 1977.05 -1.93588 -0.286718 0
M  V30 20449 C 1977.35 -1.64036 3.17533 0
M  V30 20450 C 1977.01 -0.82425 4.43302 0
M  V30 20451 C 1975.68 -0.599146 4.77455 0
M  V30 20452 C 1978.03 -0.254425 5.20579 0
M  V30 20453 C 1975.36 0.206272 5.86337 0
M  V30 20454 C 1977.71 0.538105 6.30307 0
M  V30 20455 C 1976.37 0.773661 6.63001 0
M  V30 20456 H 1975.64 -0.30879 0.673595 0
M  V30 20457 H 1978.29 -0.106868 1.91202 0
M  V30 20458 H 1976.59 -2.44784 3.05921 0
M  V30 20459 H 1978.29 -2.19367 3.35677 0
M  V30 20460 H 1974.88 -1.00978 4.16535 0
M  V30 20461 H 1979.07 -0.415584 4.94557 0
M  V30 20462 H 1974.32 0.398139 6.10102 0
M  V30 20463 H 1978.5 0.986708 6.89374 0
M  V30 20464 H 1976.12 1.3996 7.47205 0
M  V30 20465 N 1977.7 -1.52352 -0.403298 0
M  V30 20466 C 1978.63 -1.79074 -1.49849 0
M  V30 20467 C 1979.61 -0.642006 -1.57519 0
M  V30 20468 O 1980.79 -0.888182 -1.72699 0
M  V30 20469 C 1977.92 -1.9467 -2.87612 0
M  V30 20470 C 1976.88 -3.10295 -2.9479 0
M  V30 20471 C 1976.2 -3.11122 -4.34864 0
M  V30 20472 C 1977.5 -4.49643 -2.65741 0
M  V30 20473 H 1979.2 -2.70783 -1.27737 0
M  V30 20474 H 1976.74 -1.30298 -0.613064 0
M  V30 20475 H 1978.7 -2.11947 -3.64221 0
M  V30 20476 H 1977.42 -0.996377 -3.1103 0
M  V30 20477 H 1976.08 -2.92778 -2.20627 0
M  V30 20478 H 1975.73 -2.13801 -4.553 0
M  V30 20479 H 1975.43 -3.88786 -4.4059 0
M  V30 20480 H 1976.95 -3.30536 -5.13399 0
M  V30 20481 H 1978.37 -4.67335 -3.3207 0
M  V30 20482 H 1976.76 -5.29268 -2.82835 0
M  V30 20483 H 1977.83 -4.57339 -1.61149 0
M  V30 20484 N 1979.18 0.660885 -1.43074 0
M  V30 20485 C 1980.45 1.41768 -1.34764 0
M  V30 20486 C 1980.83 2.11098 0.00828719 0
M  V30 20487 O 1980.18 2.04246 1.02449 0
M  V30 20488 C 1980.39 2.40869 -2.52553 0
M  V30 20489 C 1981.74 3.05098 -2.95297 0
M  V30 20490 O 1982.76 2.51196 -2.52545 0
M  V30 20491 O 1981.62 4.02808 -3.69335 0
M  V30 20492 H 1978.72 0.633017 -0.532182 0
M  V30 20493 H 1981.26 0.688438 -1.55108 0
M  V30 20494 H 1980.03 1.88533 -3.42886 0
M  V30 20495 H 1979.66 3.21254 -2.34268 0
M  V30 20496 N 1980.65 1.29477 0.898527 0
M  V30 20497 C 1981.9 1.1769 1.65157 0
M  V30 20498 C 1982.23 -0.270742 1.92303 0
M  V30 20499 O 1981.51 -1.19538 1.5343 0
M  V30 20500 C 1981.79 1.99186 2.99995 0
M  V30 20501 C 1981.64 3.52097 2.79906 0
M  V30 20502 C 1982.96 1.81916 4.00743 0
M  V30 20503 H 1980.08 0.428901 0.599344 0
M  V30 20504 H 1982.72 1.58963 1.04071 0
M  V30 20505 H 1980.87 1.64116 3.52134 0
M  V30 20506 H 1982.55 3.97155 2.3466 0
M  V30 20507 H 1980.79 3.76962 2.14667 0
M  V30 20508 H 1981.46 4.04394 3.75725 0
M  V30 20509 H 1983.94 2.12549 3.57718 0
M  V30 20510 H 1982.81 2.41285 4.93024 0
M  V30 20511 H 1983.07 0.774654 4.3526 0
M  V30 20512 N 1982.13 -1.10905 1.11972 0
M  V30 20513 C 1983.41 -1.79218 0.783601 0
M  V30 20514 C 1983.79 -1.9817 -0.727451 0
M  V30 20515 O 1983.14 -1.57084 -1.65942 0
M  V30 20516 C 1983.35 -3.12538 1.55309 0
M  V30 20517 C 1984.7 -3.87492 1.73595 0
M  V30 20518 O 1985.72 -3.22244 1.5178 0
M  V30 20519 O 1984.58 -5.04588 2.09887 0
M  V30 20520 H 1981.67 -0.776524 0.284498 0
M  V30 20521 H 1984.22 -1.17598 1.22347 0
M  V30 20522 H 1982.99 -2.94133 2.58072 0
M  V30 20523 H 1982.61 -3.81874 1.10714 0
M  V30 20524 N 1983.61 -0.910886 -1.2861 0
M  V30 20525 C 1984.86 -0.53847 -1.94379 0
M  V30 20526 C 1985.17 0.92185 -1.72515 0
M  V30 20527 O 1986.38 1.40229 -2.32482 0
M  V30 20528 C 1984.83 -0.91216 -3.48149 0
M  V30 20529 C 1984.44 -2.39201 -3.78796 0
M  V30 20530 C 1986.19 -0.610192 -4.20092 0
M  V30 20531 C 1984.09 -2.70598 -5.25862 0
M  V30 20532 H 1983.02 -0.197657 -0.727632 0
M  V30 20533 H 1985.67 -1.10941 -1.46165 0
M  V30 20534 H 1984.06 -0.270034 -3.95078 0
M  V30 20535 H 1985.23 -3.08063 -3.42686 0
M  V30 20536 H 1983.55 -2.66414 -3.20019 0
M  V30 20537 H 1986.14 -0.821472 -5.28352 0
M  V30 20538 H 1986.49 0.451862 -4.1384 0
M  V30 20539 H 1987.02 -1.21066 -3.7893 0
M  V30 20540 H 1983.76 -3.75645 -5.37188 0
M  V30 20541 H 1983.28 -2.0637 -5.6318 0
M  V30 20542 H 1984.96 -2.57451 -5.93572 0
M  V30 20543 N 1985.09 1.42434 -0.674558 0
M  V30 20544 C 1986.02 2.33498 -0.0100395 0
M  V30 20545 C 1987 1.50665 0.789558 0
M  V30 20546 O 1988.18 1.79268 0.74676 0
M  V30 20547 C 1985.31 3.34279 0.942081 0
M  V30 20548 C 1984.27 4.27263 0.251094 0
M  V30 20549 C 1983.59 5.18249 1.31614 0
M  V30 20550 C 1984.89 5.15008 -0.869735 0
M  V30 20551 H 1986.59 2.89314 -0.770566 0
M  V30 20552 H 1984.13 1.39112 -0.372004 0
M  V30 20553 H 1986.09 3.96896 1.41604 0
M  V30 20554 H 1984.81 2.76765 1.73403 0
M  V30 20555 H 1983.47 3.6604 -0.202625 0
M  V30 20556 H 1983.12 4.57063 2.10006 0
M  V30 20557 H 1982.82 5.81288 0.858923 0
M  V30 20558 H 1984.34 5.83742 1.79103 0
M  V30 20559 H 1985.76 5.71312 -0.477004 0
M  V30 20560 H 1984.15 5.86879 -1.25273 0
M  V30 20561 H 1985.22 4.53422 -1.71861 0
M  V30 20562 N 1986.57 0.417871 1.51959 0
M  V30 20563 C 1987.82 -0.156451 2.01092 0
M  V30 20564 C 1988.13 -1.45475 1.30753 0
M  V30 20565 O 1989.33 -2.11085 1.70749 0
M  V30 20566 C 1987.79 -0.329366 3.5839 0
M  V30 20567 C 1987.4 0.957354 4.37651 0
M  V30 20568 C 1989.14 -0.858507 4.15728 0
M  V30 20569 C 1987.05 0.751148 5.8661 0
M  V30 20570 H 1985.98 -0.0622427 0.751427 0
M  V30 20571 H 1988.63 0.544656 1.75231 0
M  V30 20572 H 1987.01 -1.09301 3.80617 0
M  V30 20573 H 1988.19 1.72783 4.2718 0
M  V30 20574 H 1986.5 1.41356 3.91673 0
M  V30 20575 H 1989.1 -1.02896 5.24706 0
M  V30 20576 H 1989.44 -1.83563 3.73645 0
M  V30 20577 H 1989.97 -0.153688 3.97503 0
M  V30 20578 H 1986.71 1.70008 6.3307 0
M  V30 20579 H 1986.23 0.0201287 5.99797 0
M  V30 20580 H 1987.91 0.396724 6.45783 0
M  V30 20581 N 1988.04 -1.56898 0.148573 0
M  V30 20582 C 1988.99 -2.13418 -0.802306 0
M  V30 20583 C 1989.98 -1.06241 -1.20837 0
M  V30 20584 O 1991.17 -1.32415 -1.17453 0
M  V30 20585 C 1988.3 -2.76057 -2.04076 0
M  V30 20586 C 1987.39 -3.90359 -1.65772 0
M  V30 20587 N 1987.78 -4.96156 -0.982988 0
M  V30 20588 C 1986.07 -4.01096 -1.95033 0
M  V30 20589 C 1986.78 -5.76203 -0.797825 0
M  V30 20590 N 1985.75 -5.27024 -1.33218 0
M  V30 20591 H 1989.55 -2.92586 -0.277579 0
M  V30 20592 H 1987.07 -1.62314 -0.0529132 0
M  V30 20593 H 1989.06 -3.14911 -2.73197 0
M  V30 20594 H 1987.72 -1.98362 -2.57065 0
M  V30 20595 H 1988.74 -5.13886 -0.643572 0
M  V30 20596 H 1985.41 -3.34479 -2.4986 0
M  V30 20597 H 1986.8 -6.71374 -0.265921 0
M  V30 20598 N 1989.52 0.125209 -1.57102 0
M  V30 20599 C 1990.8 0.864033 -1.75482 0
M  V30 20600 C 1991.18 1.98355 -0.722399 0
M  V30 20601 O 1990.53 2.27075 0.254784 0
M  V30 20602 C 1990.74 1.38644 -3.20279 0
M  V30 20603 C 1992.09 1.84125 -3.82601 0
M  V30 20604 O 1993.11 1.48338 -3.23843 0
M  V30 20605 O 1991.97 2.50194 -4.85866 0
M  V30 20606 H 1989.06 0.409865 -0.718289 0
M  V30 20607 H 1991.61 0.109434 -1.69347 0
M  V30 20608 H 1990.38 0.582938 -3.86933 0
M  V30 20609 H 1990 2.20393 -3.30927 0
M  V30 20610 N 1991 1.52564 0.395213 0
M  V30 20611 C 1992.28 1.5788 1.1547 0
M  V30 20612 C 1992.66 0.36821 2.07864 0
M  V30 20613 O 1992.01 -0.643933 2.19239 0
M  V30 20614 C 1992.22 2.91451 1.91982 0
M  V30 20615 C 1993.56 3.44961 2.47562 0
M  V30 20616 O 1994.59 2.93284 2.02146 0
M  V30 20617 O 1993.45 4.35233 3.30506 0
M  V30 20618 H 1990.54 0.636516 0.527993 0
M  V30 20619 H 1993.09 1.64897 0.400867 0
M  V30 20620 H 1991.86 3.71006 1.2438 0
M  V30 20621 H 1991.48 2.8779 2.7434 0
M  V30 20622 N 1992.48 -0.653289 1.43422 0
M  V30 20623 C 1993.71 -1.43884 1.4826 0
M  V30 20624 C 1994.12 -1.88941 0.099053 0
M  V30 20625 O 1993.46 -1.60087 -0.900983 0
M  V30 20626 C 1993.52 -2.70658 2.3661 0
M  V30 20627 C 1993.19 -2.47542 3.84151 0
M  V30 20628 C 1994.18 -2.10769 4.75261 0
M  V30 20629 C 1991.87 -2.61868 4.28638 0
M  V30 20630 C 1993.86 -1.8862 6.08853 0
M  V30 20631 C 1991.55 -2.39334 5.62283 0
M  V30 20632 C 1992.55 -2.02766 6.52208 0
M  V30 20633 O 1992.23 -1.80467 7.83382 0
M  V30 20634 H 1991.97 -0.448491 0.505798 0
M  V30 20635 H 1994.52 -0.808217 1.88831 0
M  V30 20636 H 1992.75 -3.3628 1.90927 0
M  V30 20637 H 1994.44 -3.32607 2.32652 0
M  V30 20638 H 1995.21 -1.99277 4.42169 0
M  V30 20639 H 1991.08 -2.89306 3.58919 0
M  V30 20640 H 1994.63 -1.60001 6.79003 0
M  V30 20641 H 1990.53 -2.50429 5.94942 0
M  V30 20642 H 1991.29 -1.94893 7.94959 0
M  V30 20643 N 1993.96 -1.29952 -0.891648 0
M  V30 20644 C 1994.9 -1.15767 -1.99667 0
M  V30 20645 C 1995.87 -0.0488826 -1.66028 0
M  V30 20646 O 1997.06 -0.217864 -1.89552 0
M  V30 20647 C 1994.2 -0.848553 -3.34505 0
M  V30 20648 C 1993.31 -2.03857 -3.80876 0
M  V30 20649 C 1992.45 -1.66812 -5.04328 0
M  V30 20650 C 1991.49 -2.82348 -5.4309 0
M  V30 20651 N 1990.62 -2.45645 -6.57726 0
M  V30 20652 H 1995.46 -2.10304 -2.11131 0
M  V30 20653 H 1993 -1.04641 -1.03386 0
M  V30 20654 H 1994.96 -0.649983 -4.12106 0
M  V30 20655 H 1993.59 0.059928 -3.22744 0
M  V30 20656 H 1992.64 -2.34859 -2.99241 0
M  V30 20657 H 1993.95 -2.90402 -4.05547 0
M  V30 20658 H 1993.11 -1.43291 -5.89536 0
M  V30 20659 H 1991.84 -0.774269 -4.81515 0
M  V30 20660 H 1990.85 -3.06542 -4.56412 0
M  V30 20661 H 1992.07 -3.72409 -5.6788 0
M  V30 20662 H 1990.02 -1.58757 -6.365 0
M  V30 20663 H 1989.94 -3.25722 -6.82232 0
M  V30 20664 H 1991.21 -2.25463 -7.46181 0
M  V30 20665 N 1995.44 1.1031 -1.12559 0
M  V30 20666 C 1996.66 1.86078 -0.90458 0
M  V30 20667 C 1997.08 1.80726 0.546224 0
M  V30 20668 O 1996.44 1.1969 1.3777 0
M  V30 20669 C 1996.49 3.34425 -1.37268 0
M  V30 20670 O 1996.21 3.39691 -2.76661 0
M  V30 20671 C 1997.71 4.27063 -1.18879 0
M  V30 20672 H 1994.93 0.588055 -0.32316 0
M  V30 20673 H 1997.47 1.39441 -1.49588 0
M  V30 20674 H 1995.63 3.78523 -0.824578 0
M  V30 20675 H 1996.04 4.3215 -2.97232 0
M  V30 20676 H 1997.52 5.29345 -1.56518 0
M  V30 20677 H 1997.99 4.39009 -0.129502 0
M  V30 20678 H 1998.6 3.88771 -1.72445 0
M  V30 20679 N 1996.91 0.917694 1.28125 0
M  V30 20680 C 1997.82 0.414339 2.30912 0
M  V30 20681 C 1998.84 -0.49998 1.66662 0
M  V30 20682 O 2000.02 -0.385213 1.97682 0
M  V30 20683 C 1997.08 -0.333886 3.45089 0
M  V30 20684 C 1996.14 0.614131 4.24885 0
M  V30 20685 C 1995.37 -0.0984806 5.33609 0
M  V30 20686 O 1995.6 -1.31956 5.54927 0
M  V30 20687 O 1994.53 0.568228 5.99212 0
M  V30 20688 H 1998.36 1.26755 2.75984 0
M  V30 20689 H 1995.94 0.682661 1.32891 0
M  V30 20690 H 1997.82 -0.756311 4.14557 0
M  V30 20691 H 1996.5 -1.16286 3.02091 0
M  V30 20692 H 1995.41 1.08603 3.57989 0
M  V30 20693 H 1996.74 1.41003 4.71571 0
M  V30 20694 N 1998.39 -1.42074 0.682102 0
M  V30 20695 C 1999.62 -2.05769 0.216029 0
M  V30 20696 C 2000.03 -1.51278 -1.12962 0
M  V30 20697 O 1999.39 -0.655521 -1.70321 0
M  V30 20698 C 1999.44 -3.61187 0.150351 0
M  V30 20699 O 1999.16 -4.13659 1.44283 0
M  V30 20700 C 2000.66 -4.42007 -0.338339 0
M  V30 20701 H 1997.88 -0.662997 0.103326 0
M  V30 20702 H 2000.43 -1.82084 0.930895 0
M  V30 20703 H 1998.58 -3.83958 -0.515249 0
M  V30 20704 H 1999 -5.07592 1.32101 0
M  V30 20705 H 2000.47 -5.50994 -0.33319 0
M  V30 20706 H 2000.95 -4.17125 -1.37489 0
M  V30 20707 H 2001.55 -4.2427 0.295782 0
M  V30 20708 N 1999.87 -0.425924 -1.51735 0
M  V30 20709 C 2001.12 0.144058 -2.01586 0
M  V30 20710 C 2001.44 1.44204 -1.31264 0
M  V30 20711 O 2000.71 1.9081 -0.443661 0
M  V30 20712 H 1999.29 0.0562264 -0.744881 0
M  V30 20713 H 2001.95 -0.566016 -1.865 0
M  V30 20714 H 2001.05 0.328161 -3.1037 0
M  V30 20715 N 2001.35 1.56817 -0.156891 0
M  V30 20716 C 2002.76 1.58349 0.199431 0
M  V30 20717 C 2002.96 1.17163 1.63937 0
M  V30 20718 O 2002.02 0.87651 2.36799 0
M  V30 20719 C 2003.33 3.00622 -0.0682996 0
M  V30 20720 C 2004.88 3.13 -0.00536951 0
M  V30 20721 C 2005.36 4.57339 -0.245899 0
M  V30 20722 N 2006.85 4.62797 -0.19317 0
M  V30 20723 C 2007.58 5.72308 -0.353652 0
M  V30 20724 N 2007.08 6.90431 -0.5724 0
M  V30 20725 N 2008.87 5.61349 -0.290563 0
M  V30 20726 H 2001.02 1.8188 -1.09697 0
M  V30 20727 H 2003.28 0.842304 -0.435002 0
M  V30 20728 H 2002.99 3.3518 -1.06524 0
M  V30 20729 H 2002.86 3.71616 0.646647 0
M  V30 20730 H 2005.25 2.78277 0.98213 0
M  V30 20731 H 2005.33 2.44472 -0.752801 0
M  V30 20732 H 2004.98 4.92768 -1.23054 0
M  V30 20733 H 2004.91 5.24007 0.521974 0
M  V30 20734 H 2007.4 3.77889 -0.0291566 0
M  V30 20735 H 2007.71 7.69761 -0.684694 0
M  V30 20736 H 2006.06 6.92328 -0.608841 0
M  V30 20737 H 2009.25 4.67945 -0.120361 0
M  V30 20738 H 2009.42 6.46644 -0.419064 0
M  V30 20739 N 2002.83 -0.116876 1.57166 0
M  V30 20740 C 2003.76 -1.14443 2.03531 0
M  V30 20741 C 2004.74 -1.43063 0.920159 0
M  V30 20742 O 2005.92 -1.53468 1.19001 0
M  V30 20743 C 2003.05 -2.47006 2.44142 0
M  V30 20744 C 2002.01 -2.32843 3.59121 0
M  V30 20745 C 2001.33 -3.70388 3.85639 0
M  V30 20746 C 2002.63 -1.78717 4.90772 0
M  V30 20747 H 2004.33 -0.75878 2.89625 0
M  V30 20748 H 2001.87 -0.363551 1.39335 0
M  V30 20749 H 2003.82 -3.19143 2.75184 0
M  V30 20750 H 2002.55 -2.87465 1.55021 0
M  V30 20751 H 2001.21 -1.63155 3.28293 0
M  V30 20752 H 2000.86 -4.08335 2.9372 0
M  V30 20753 H 2000.56 -3.61764 4.63034 0
M  V30 20754 H 2002.08 -4.44026 4.19134 0
M  V30 20755 H 2003.49 -2.40673 5.20336 0
M  V30 20756 H 2001.89 -1.80909 5.72182 0
M  V30 20757 H 2002.96 -0.744891 4.79144 0
M  V30 20758 N 2004.3 -1.52772 -0.387116 0
M  V30 20759 C 2005.25 -1.78325 -1.49341 0
M  V30 20760 C 2006.25 -0.651278 -1.5638 0
M  V30 20761 O 2007.45 -0.833795 -1.59524 0
M  V30 20762 H 2003.83 -0.56428 -0.497084 0
M  V30 20763 H 2005.8 -2.70965 -1.24983 0
M  V30 20764 C 2004.55 -1.97079 -2.86453 0
M  V30 20765 H 2003.87 -2.83612 -2.81788 0
M  V30 20766 H 2005.31 -2.18947 -3.63095 0
M  V30 20767 C 2003.77 -0.743842 -3.28586 0
M  V30 20768 O 2004.3 0.0778266 -4.01625 0
M  V30 20769 N 2002.5 -0.573415 -2.84886 0
M  V30 20770 H 2002.05 -1.24319 -2.25616 0
M  V30 20771 H 2002.01 0.24616 -3.13435 0
M  V30 20772 N 2005.78 0.645673 -1.43767 0
M  V30 20773 C 2006.71 1.77057 -1.43966 0
M  V30 20774 C 2007.69 1.59805 -0.300185 0
M  V30 20775 O 2008.88 1.81886 -0.494937 0
M  V30 20776 C 2006 3.14453 -1.25845 0
M  V30 20777 C 2005.05 3.50389 -2.43166 0
M  V30 20778 S 2005.88 3.4951 -4.05713 0
M  V30 20779 C 2007.04 4.8955 -3.89989 0
M  V30 20780 H 2007.27 1.76619 -2.39151 0
M  V30 20781 H 2004.8 0.818994 -1.30889 0
M  V30 20782 H 2006.76 3.93747 -1.16077 0
M  V30 20783 H 2005.42 3.12446 -0.321954 0
M  V30 20784 H 2004.62 4.50332 -2.26312 0
M  V30 20785 H 2004.22 2.78525 -2.49599 0
M  V30 20786 H 2006.51 5.78405 -3.5278 0
M  V30 20787 H 2007.45 5.11457 -4.89711 0
M  V30 20788 H 2007.86 4.6344 -3.2231 0
M  V30 20789 N 2007.26 1.30423 0.884744 0
M  V30 20790 C 2008.67 1.17357 1.45204 0
M  V30 20791 C 2009.02 -0.225645 1.94898 0
M  V30 20792 O 2008.15 -1.12234 1.8502 0
M  V30 20793 C 2008.74 2.12438 2.63923 0
M  V30 20794 C 2007.3 2.03351 3.16742 0
M  V30 20795 C 2006.45 2.02508 1.89436 0
M  V30 20796 H 2009.4 1.42689 0.694659 0
M  V30 20797 H 2009.42 1.70535 3.40144 0
M  V30 20798 H 2008.93 3.14267 2.27724 0
M  V30 20799 H 2007.03 1.04665 3.57597 0
M  V30 20800 H 2007.15 2.91748 3.80026 0
M  V30 20801 H 2005.51 1.47312 2.07777 0
M  V30 20802 H 2006.29 3.06066 1.55494 0
M  V30 20803 N 2008.74 -1.09711 1.13142 0
M  V30 20804 C 2009.7 -2.14443 0.809114 0
M  V30 20805 C 2010.7 -1.59789 -0.18005 0
M  V30 20806 O 2011.89 -1.74137 0.0466686 0
M  V30 20807 C 2009.02 -3.40291 0.203714 0
M  V30 20808 H 2010.22 -2.44466 1.73713 0
M  V30 20809 H 2007.77 -1.252 0.935663 0
M  V30 20810 H 2008.5 -3.15892 -0.733667 0
M  V30 20811 H 2008.29 -3.8125 0.916003 0
M  V30 20812 H 2009.78 -4.176 -0.00503851 0
M  V30 20813 N 2010.22 -0.924476 -1.27637 0
M  V30 20814 C 2011.18 -0.425772 -2.25211 0
M  V30 20815 C 2012.18 0.453876 -1.54261 0
M  V30 20816 O 2013.37 0.255412 -1.72317 0
M  V30 20817 C 2010.5 0.388294 -3.38681 0
M  V30 20818 H 2011.69 -1.28783 -2.70841 0
M  V30 20819 H 2009.25 -0.704863 -1.39504 0
M  V30 20820 H 2009.98 1.2693 -2.98428 0
M  V30 20821 H 2009.77 -0.242358 -3.9135 0
M  V30 20822 H 2011.26 0.727693 -4.11211 0
M  V30 20823 N 2011.69 1.41711 -0.689627 0
M  V30 20824 C 2012.93 2.03189 -0.222164 0
M  V30 20825 C 2013.3 1.53416 1.15445 0
M  V30 20826 O 2014.5 2.06781 1.71742 0
M  V30 20827 C 2012.77 3.56371 -0.271028 0
M  V30 20828 S 2014.33 4.38627 0.12326 0
M  V30 20829 H 2011.15 0.705282 -0.0899882 0
M  V30 20830 H 2013.75 1.73235 -0.906082 0
M  V30 20831 H 2012.45 3.90091 -1.27502 0
M  V30 20832 H 2011.98 3.91018 0.432235 0
M  V30 20833 H 2014 4.77408 1.35264 0
M  V30 20834 N 2013.17 0.433965 1.51507 0
M  V30 20835 C 2014.11 -0.424335 2.2422 0
M  V30 20836 C 2015.08 -1.02751 1.26019 0
M  V30 20837 O 2016.27 -1.07062 1.55145 0
M  V30 20838 C 2013.39 -1.59113 2.98999 0
M  V30 20839 C 2012.44 -1.10896 4.1183 0
M  V30 20840 S 2013.27 -0.0537502 5.35473 0
M  V30 20841 C 2014.43 -1.22529 6.13789 0
M  V30 20842 H 2014.66 0.192998 2.96673 0
M  V30 20843 H 2012.2 0.218455 1.52847 0
M  V30 20844 H 2014.15 -2.26006 3.42683 0
M  V30 20845 H 2012.81 -2.17987 2.26143 0
M  V30 20846 H 2012.01 -1.9814 4.63419 0
M  V30 20847 H 2011.61 -0.518327 3.70391 0
M  V30 20848 H 2013.9 -2.14429 6.42671 0
M  V30 20849 H 2014.84 -0.749446 7.04123 0
M  V30 20850 H 2015.25 -1.46233 5.4523 0
M  V30 20851 N 2014.65 -1.56732 0.165206 0
M  V30 20852 C 2015.6 -2.14257 -0.779625 0
M  V30 20853 C 2016.58 -1.07517 -1.19704 0
M  V30 20854 O 2017.78 -1.33654 -1.16042 0
M  V30 20855 C 2014.91 -2.78206 -2.01137 0
M  V30 20856 C 2013.99 -3.92096 -1.61623 0
M  V30 20857 N 2014.38 -4.97171 -0.930308 0
M  V30 20858 C 2012.68 -4.03142 -1.90768 0
M  V30 20859 C 2013.38 -5.77017 -0.736666 0
M  V30 20860 N 2012.36 -5.28407 -1.27621 0
M  V30 20861 H 2016.16 -2.92864 -0.246531 0
M  V30 20862 H 2013.67 -1.62361 -0.0356946 0
M  V30 20863 H 2015.67 -3.17791 -2.69842 0
M  V30 20864 H 2014.33 -2.01078 -2.54947 0
M  V30 20865 H 2015.34 -5.14539 -0.589031 0
M  V30 20866 H 2012.02 -3.3711 -2.46299 0
M  V30 20867 H 2013.41 -6.71618 -0.194698 0
M  V30 20868 N 2016.13 0.10854 -1.57226 0
M  V30 20869 C 2017.37 0.820237 -1.8722 0
M  V30 20870 C 2017.73 1.76553 -0.754524 0
M  V30 20871 O 2018.93 2.51958 -0.936519 0
M  V30 20872 C 2017.2 1.54144 -3.22451 0
M  V30 20873 S 2018.76 2.29327 -3.74105 0
M  V30 20874 H 2015.58 0.273549 -0.656271 0
M  V30 20875 H 2018.18 0.0780325 -1.95344 0
M  V30 20876 H 2016.89 0.839156 -4.01729 0
M  V30 20877 H 2016.42 2.32381 -3.17431 0
M  V30 20878 H 2018.43 3.55234 -3.46444 0
M  V30 20879 N 2017.61 1.52975 0.379009 0
M  V30 20880 C 2018.83 1.72396 1.144 0
M  V30 20881 C 2019.25 0.446816 1.83437 0
M  V30 20882 O 2018.61 -0.579403 1.73058 0
M  V30 20883 C 2018.66 2.88032 2.18449 0
M  V30 20884 O 2018.38 4.10803 1.52225 0
M  V30 20885 C 2019.88 3.19215 3.07599 0
M  V30 20886 H 2017.1 0.576943 0.342605 0
M  V30 20887 H 2019.64 1.99666 0.442025 0
M  V30 20888 H 2017.8 2.63195 2.84266 0
M  V30 20889 H 2018.21 4.75461 2.21443 0
M  V30 20890 H 2019.69 4.03565 3.76615 0
M  V30 20891 H 2020.16 2.34014 3.71664 0
M  V30 20892 H 2020.77 3.45928 2.47415 0
M  V30 20893 N 2019.08 -0.63804 1.44107 0
M  V30 20894 C 2020.31 -1.43004 1.50215 0
M  V30 20895 C 2020.73 -1.87678 0.125903 0
M  V30 20896 O 2020.09 -1.58316 -0.883508 0
M  V30 20897 C 2020.14 -2.63112 2.46585 0
M  V30 20898 O 2019.24 -3.62706 1.9626 0
M  V30 20899 H 2018.59 -0.428173 0.507508 0
M  V30 20900 H 2021.12 -0.779402 1.89173 0
M  V30 20901 H 2021.13 -3.10742 2.64393 0
M  V30 20902 H 2019.8 -2.29941 3.46554 0
M  V30 20903 H 2018.38 -3.21932 1.88186 0
M  V30 20904 N 2020.56 -1.3089 -0.877815 0
M  V30 20905 C 2021.8 -1.21417 -1.6443 0
M  V30 20906 C 2022.17 0.225958 -1.90666 0
M  V30 20907 O 2023.37 0.444054 -2.65107 0
M  V30 20908 C 2021.64 -2.02699 -2.9436 0
M  V30 20909 S 2023.2 -2.10002 -3.85285 0
M  V30 20910 H 2020.02 -0.432571 -0.564272 0
M  V30 20911 H 2022.62 -1.65456 -1.04138 0
M  V30 20912 H 2021.32 -3.06433 -2.72996 0
M  V30 20913 H 2020.85 -1.59349 -3.59682 0
M  V30 20914 H 2022.87 -1.23262 -4.80646 0
M  V30 20915 N 2022.04 1.0911 -1.13723 0
M  V30 20916 C 2023.32 1.77949 -0.812014 0
M  V30 20917 C 2023.7 1.99302 0.695832 0
M  V30 20918 O 2023.05 1.59704 1.63422 0
M  V30 20919 C 2023.26 3.10028 -1.60262 0
M  V30 20920 C 2024.6 3.84681 -1.79738 0
M  V30 20921 O 2025.63 3.19789 -1.56887 0
M  V30 20922 O 2024.49 5.01185 -2.17888 0
M  V30 20923 H 2021.58 0.7719 -0.296816 0
M  V30 20924 H 2024.13 1.15637 -1.24202 0
M  V30 20925 H 2022.9 2.8999 -2.62719 0
M  V30 20926 H 2022.52 3.80065 -1.16776 0
M  V30 20927 N 2023.52 0.931232 1.27145 0
M  V30 20928 C 2024.93 0.617607 1.76189 0
M  V30 20929 C 2025.28 -0.867239 1.75993 0
M  V30 20930 O 2024.41 -1.67865 1.36567 0
M  V30 20931 C 2025 1.11436 3.19949 0
M  V30 20932 C 2023.56 0.851337 3.66646 0
M  V30 20933 C 2022.71 1.27104 2.46454 0
M  V30 20934 H 2025.66 1.11062 1.13362 0
M  V30 20935 H 2025.68 0.463637 3.77665 0
M  V30 20936 H 2025.19 2.19507 3.2006 0
M  V30 20937 H 2023.29 -0.215418 3.71977 0
M  V30 20938 H 2023.4 1.47136 4.55947 0
M  V30 20939 H 2021.77 0.689554 2.45188 0
M  V30 20940 H 2022.55 2.36047 2.49273 0
M  V30 20941 N 2025 -1.41343 0.697132 0
M  V30 20942 C 2025.96 -2.29162 0.0417336 0
M  V30 20943 C 2026.96 -1.44455 -0.706353 0
M  V30 20944 O 2028.15 -1.65586 -0.54101 0
M  V30 20945 C 2025.28 -3.2736 -0.951235 0
M  V30 20946 H 2026.48 -2.88614 0.814974 0
M  V30 20947 H 2024.03 -1.49356 0.460717 0
M  V30 20948 H 2024.76 -2.7289 -1.75218 0
M  V30 20949 H 2024.55 -3.89866 -0.417931 0
M  V30 20950 H 2026.04 -3.93164 -1.40756 0
M  V30 20951 N 2026.48 -0.441993 -1.51275 0
M  V30 20952 C 2027.42 0.381441 -2.29451 0
M  V30 20953 C 2028.42 1.01672 -1.35496 0
M  V30 20954 O 2029.62 0.95115 -1.52817 0
M  V30 20955 H 2026 0.141826 -0.738505 0
M  V30 20956 H 2027.97 -0.298692 -2.96901 0
M  V30 20957 C 2026.72 1.46756 -3.15211 0
M  V30 20958 H 2026.04 0.988092 -3.87397 0
M  V30 20959 H 2027.48 2.01687 -3.72959 0
M  V30 20960 C 2025.94 2.4534 -2.30889 0
M  V30 20961 O 2026.47 3.49979 -1.97173 0
M  V30 20962 N 2024.68 2.16342 -1.94022 0
M  V30 20963 H 2024.22 1.31276 -2.2164 0
M  V30 20964 H 2024.18 2.82543 -1.37902 0
M  V30 20965 N 2027.95 1.56642 -0.173515 0
M  V30 20966 C 2029.2 1.96949 0.470873 0
M  V30 20967 C 2029.53 1.05958 1.63105 0
M  V30 20968 O 2028.78 0.0941313 1.95473 0
M  V30 20969 C 2029.08 3.43315 0.993457 0
M  V30 20970 C 2028.75 4.50871 -0.05105 0
M  V30 20971 C 2027.41 4.80011 -0.338111 0
M  V30 20972 C 2029.76 5.1563 -0.759912 0
M  V30 20973 C 2027.09 5.71207 -1.33938 0
M  V30 20974 C 2029.44 6.07907 -1.75018 0
M  V30 20975 C 2028.11 6.35413 -2.04467 0
M  V30 20976 H 2027.38 0.720689 0.172305 0
M  V30 20977 H 2030.02 1.89644 -0.265939 0
M  V30 20978 H 2028.33 3.47583 1.80813 0
M  V30 20979 H 2030.03 3.71845 1.50108 0
M  V30 20980 H 2026.62 4.2821 0.182862 0
M  V30 20981 H 2030.8 4.93228 -0.551351 0
M  V30 20982 H 2026.06 5.908 -1.57369 0
M  V30 20983 H 2030.23 6.57154 -2.30481 0
M  V30 20984 H 2027.86 7.0588 -2.82201 0
M  V30 20985 N 2029.43 -0.1002 1.57281 0
M  V30 20986 C 2030.38 -1.12192 2.01697 0
M  V30 20987 C 2031.35 -1.40092 0.892374 0
M  V30 20988 O 2032.53 -1.51641 1.158 0
M  V30 20989 C 2029.67 -2.43833 2.44212 0
M  V30 20990 C 2028.79 -2.22707 3.70169 0
M  V30 20991 C 2027.92 -3.47711 4.01585 0
M  V30 20992 C 2026.96 -3.21825 5.20668 0
M  V30 20993 N 2026.1 -4.39081 5.47862 0
M  V30 20994 H 2030.94 -0.736171 2.88764 0
M  V30 20995 H 2028.47 -0.351977 1.42827 0
M  V30 20996 H 2030.43 -3.20652 2.66904 0
M  V30 20997 H 2029.06 -2.80264 1.60162 0
M  V30 20998 H 2028.11 -1.36715 3.54983 0
M  V30 20999 H 2029.43 -1.99568 4.57137 0
M  V30 21000 H 2028.58 -4.3294 4.25027 0
M  V30 21001 H 2027.32 -3.739 3.1313 0
M  V30 21002 H 2026.32 -2.34988 4.97052 0
M  V30 21003 H 2027.55 -2.96987 6.10717 0
M  V30 21004 H 2025.5 -4.65355 4.62364 0
M  V30 21005 H 2025.41 -4.19114 6.2919 0
M  V30 21006 H 2026.68 -5.2539 5.75835 0
M  V30 21007 N 2030.91 -1.53174 -0.370891 0
M  V30 21008 C 2032.33 -1.42828 -0.712207 0
M  V30 21009 C 2032.53 -0.563111 -1.93472 0
M  V30 21010 O 2031.58 -0.0435062 -2.52463 0
M  V30 21011 C 2032.89 -2.85945 -0.930375 0
M  V30 21012 C 2034.44 -2.95542 -1.03072 0
M  V30 21013 C 2034.92 -4.39709 -1.28139 0
M  V30 21014 N 2036.41 -4.43115 -1.34921 0
M  V30 21015 C 2037.14 -5.51766 -1.56017 0
M  V30 21016 N 2036.64 -6.70473 -1.74464 0
M  V30 21017 N 2038.43 -5.39336 -1.58344 0
M  V30 21018 H 2030.58 -2.07934 0.433281 0
M  V30 21019 H 2032.85 -0.938799 0.131756 0
M  V30 21020 H 2032.55 -3.51546 -0.103966 0
M  V30 21021 H 2032.43 -3.29279 -1.83997 0
M  V30 21022 H 2034.81 -2.30098 -1.84768 0
M  V30 21023 H 2034.89 -2.5561 -0.0986256 0
M  V30 21024 H 2034.54 -5.05726 -0.469468 0
M  V30 21025 H 2034.47 -4.7721 -2.22662 0
M  V30 21026 H 2036.96 -3.57563 -1.223 0
M  V30 21027 H 2037.27 -7.49049 -1.90119 0
M  V30 21028 H 2035.62 -6.73469 -1.71653 0
M  V30 21029 H 2038.81 -4.45563 -1.43496 0
M  V30 21030 H 2038.98 -6.24078 -1.74443 0
M  V30 21031 N 2032.39 0.630389 -1.44443 0
M  V30 21032 C 2033.63 1.40149 -1.48787 0
M  V30 21033 C 2033.99 1.9164 -0.117598 0
M  V30 21034 O 2035.19 2.68776 -0.0357153 0
M  V30 21035 C 2033.46 2.53505 -2.51933 0
M  V30 21036 S 2035.02 3.41671 -2.7533 0
M  V30 21037 H 2031.84 0.478109 -0.526244 0
M  V30 21038 H 2034.44 0.729702 -1.81371 0
M  V30 21039 H 2033.15 2.13989 -3.50196 0
M  V30 21040 H 2032.68 3.25509 -2.20923 0
M  V30 21041 H 2034.69 4.50969 -2.06981 0
M  V30 21042 N 2033.87 1.31354 0.870861 0
M  V30 21043 C 2035.11 1.22287 1.63784 0
M  V30 21044 C 2035.47 -0.215843 1.90783 0
M  V30 21045 O 2036.67 -0.429989 2.65339 0
M  V30 21046 C 2034.94 2.04257 2.93281 0
M  V30 21047 S 2036.5 2.12043 3.84166 0
M  V30 21048 H 2033.32 0.435557 0.56197 0
M  V30 21049 H 2035.92 1.66006 1.03259 0
M  V30 21050 H 2034.62 3.07876 2.71367 0
M  V30 21051 H 2034.16 1.61254 3.58832 0
M  V30 21052 H 2036.17 1.25809 4.79986 0
M  V30 21053 N 2035.34 -1.08505 1.143 0
M  V30 21054 C 2036.75 -1.62355 0.921836 0
M  V30 21055 C 2037.11 -1.88635 -0.539569 0
M  V30 21056 O 2036.23 -1.64307 -1.40827 0
M  V30 21057 C 2036.83 -2.94955 1.66694 0
M  V30 21058 C 2035.38 -3.45593 1.49139 0
M  V30 21059 C 2034.53 -2.19845 1.69008 0
M  V30 21060 H 2037.48 -0.917442 1.29494 0
M  V30 21061 H 2037.5 -3.63348 1.12954 0
M  V30 21062 H 2037.02 -2.75796 2.73053 0
M  V30 21063 H 2035.12 -3.69858 0.451226 0
M  V30 21064 H 2035.23 -4.2241 2.26068 0
M  V30 21065 H 2033.59 -2.28966 1.11565 0
M  V30 21066 H 2034.38 -2.03194 2.76707 0
M  V30 21067 N 2036.82 -0.937962 -1.26649 0
M  V30 21068 C 2038.07 -0.57958 -1.93194 0
M  V30 21069 C 2038.38 0.88505 -1.74431 0
M  V30 21070 O 2039.59 1.35267 -2.35404 0
M  V30 21071 C 2038.05 -0.985803 -3.46136 0
M  V30 21072 C 2037.65 -2.47182 -3.73637 0
M  V30 21073 C 2039.4 -0.699162 -4.18703 0
M  V30 21074 C 2037.3 -2.81691 -5.20004 0
M  V30 21075 H 2036.23 -0.213046 -0.723275 0
M  V30 21076 H 2038.89 -1.14017 -1.43779 0
M  V30 21077 H 2037.27 -0.353775 -3.94417 0
M  V30 21078 H 2038.44 -3.15263 -3.36075 0
M  V30 21079 H 2036.76 -2.73143 -3.14296 0
M  V30 21080 H 2039.35 -0.933359 -5.26491 0
M  V30 21081 H 2039.7 0.363979 -4.14706 0
M  V30 21082 H 2040.23 -1.29076 -3.76277 0
M  V30 21083 H 2036.97 -3.86955 -5.29099 0
M  V30 21084 H 2036.49 -2.1827 -5.58675 0
M  V30 21085 H 2038.17 -2.69984 -5.87978 0
M  V30 21086 N 2038.3 1.40971 -0.704618 0
M  V30 21087 C 2039.55 2.00309 -0.236478 0
M  V30 21088 C 2039.86 1.56482 1.17358 0
M  V30 21089 O 2041.07 2.08442 1.73966 0
M  V30 21090 C 2039.52 3.57974 -0.371877 0
M  V30 21091 C 2039.13 4.10779 -1.78788 0
M  V30 21092 C 2040.88 4.24485 0.0360284 0
M  V30 21093 C 2038.78 5.60909 -1.87445 0
M  V30 21094 H 2037.71 0.749233 -0.0846557 0
M  V30 21095 H 2040.36 1.61342 -0.874125 0
M  V30 21096 H 2038.75 3.94587 0.334172 0
M  V30 21097 H 2039.92 3.85565 -2.52342 0
M  V30 21098 H 2038.23 3.56826 -2.14626 0
M  V30 21099 H 2040.83 5.34699 -0.00808813 0
M  V30 21100 H 2041.17 4.02149 1.07621 0
M  V30 21101 H 2041.71 3.92938 -0.620069 0
M  V30 21102 H 2038.45 5.88084 -2.89546 0
M  V30 21103 H 2037.97 5.88021 -1.18287 0
M  V30 21104 H 2039.65 6.25831 -1.6415 0
M  V30 21105 N 2039.78 0.45001 1.51039 0
M  V30 21106 C 2041.02 -0.111202 2.04097 0
M  V30 21107 C 2041.38 -1.38855 1.32602 0
M  V30 21108 O 2042.58 -2.03081 1.76101 0
M  V30 21109 C 2040.85 -0.312081 3.56035 0
M  V30 21110 S 2042.41 -0.834878 4.30784 0
M  V30 21111 H 2039.23 -0.0258967 0.710528 0
M  V30 21112 H 2041.83 0.612321 1.85663 0
M  V30 21113 H 2040.54 0.623717 4.05633 0
M  V30 21114 H 2040.07 -1.06232 3.78785 0
M  V30 21115 H 2042.08 -2.11096 4.49058 0
M  V30 21116 N 2041.26 -1.56548 0.18182 0
M  V30 21117 C 2042.5 -1.96807 -0.459512 0
M  V30 21118 C 2042.83 -1.06933 -1.63065 0
M  V30 21119 O 2042.1 -0.137842 -1.95414 0
M  V30 21120 H 2040.68 -0.72675 -0.172753 0
M  V30 21121 H 2043.34 -1.93084 0.265455 0
M  V30 21122 H 2042.43 -3.01338 -0.812522 0
M  V30 21123 N 2042.73 0.0918577 -1.57332 0
M  V30 21124 C 2043.68 1.11121 -2.02289 0
M  V30 21125 C 2044.65 1.39617 -0.899791 0
M  V30 21126 O 2045.84 1.51025 -1.16602 0
M  V30 21127 C 2042.98 2.42534 -2.45502 0
M  V30 21128 C 2042.09 2.20741 -3.71345 0
M  V30 21129 C 2041.22 3.45576 -4.03424 0
M  V30 21130 C 2040.26 3.19059 -5.22368 0
M  V30 21131 N 2039.4 4.36169 -5.50182 0
M  V30 21132 H 2044.24 0.720847 -2.8915 0
M  V30 21133 H 2041.78 0.344398 -1.43012 0
M  V30 21134 H 2043.74 3.19232 -2.68601 0
M  V30 21135 H 2042.37 2.79411 -1.61646 0
M  V30 21136 H 2041.42 1.3483 -3.55704 0
M  V30 21137 H 2042.73 1.97141 -4.58189 0
M  V30 21138 H 2041.88 4.3068 -4.27317 0
M  V30 21139 H 2040.62 3.72234 -3.15108 0
M  V30 21140 H 2039.63 2.32349 -4.98291 0
M  V30 21141 H 2040.85 2.93744 -6.12284 0
M  V30 21142 H 2038.8 4.62896 -4.64826 0
M  V30 21143 H 2038.72 4.15771 -6.31404 0
M  V30 21144 H 2039.98 5.22328 -5.78613 0
M  V30 21145 N 2044.21 1.53368 0.362763 0
M  V30 21146 C 2045.18 1.7933 1.42736 0
M  V30 21147 C 2046.18 0.663794 1.4646 0
M  V30 21148 O 2047.37 0.932009 1.47171 0
M  V30 21149 C 2044.5 1.91792 2.81831 0
M  V30 21150 H 2045.69 2.74412 1.20989 0
M  V30 21151 H 2043.24 1.44488 0.596058 0
M  V30 21152 H 2043.98 0.987867 3.08888 0
M  V30 21153 H 2043.76 2.73948 2.80526 0
M  V30 21154 H 2045.25 2.13461 3.58921 0
M  V30 21155 N 2045.69 -0.62272 1.44776 0
M  V30 21156 C 2046.62 -1.74528 1.5512 0
M  V30 21157 C 2047.6 -1.65241 0.403656 0
M  V30 21158 O 2048.79 -1.83873 0.624863 0
M  V30 21159 C 2045.92 -3.13088 1.5031 0
M  V30 21160 C 2044.87 -3.37172 2.63626 0
M  V30 21161 C 2044.2 -4.75849 2.43868 0
M  V30 21162 C 2045.5 -3.28908 4.0573 0
M  V30 21163 H 2047.19 -1.66128 2.49082 0
M  V30 21164 H 2044.74 -0.797813 1.19879 0
M  V30 21165 H 2046.69 -3.91403 1.56146 0
M  V30 21166 H 2045.41 -3.22293 0.528684 0
M  V30 21167 H 2044.07 -2.61241 2.57194 0
M  V30 21168 H 2043.72 -4.81767 1.446 0
M  V30 21169 H 2043.42 -4.92921 3.19849 0
M  V30 21170 H 2044.94 -5.56383 2.51535 0
M  V30 21171 H 2046.36 -3.97117 4.13487 0
M  V30 21172 H 2044.76 -3.57513 4.8198 0
M  V30 21173 H 2045.83 -2.26581 4.28706 0
M  V30 21174 N 2047.17 -1.31814 -0.863883 0
M  V30 21175 C 2048.1 -1.14307 -1.97507 0
M  V30 21176 C 2049.08 -0.0449482 -1.62538 0
M  V30 21177 O 2050.26 -0.202523 -1.87409 0
M  V30 21178 C 2047.39 -0.74789 -3.3034 0
M  V30 21179 C 2046.44 -1.84993 -3.84291 0
M  V30 21180 S 2047.27 -3.45653 -4.09004 0
M  V30 21181 C 2048.43 -3.08085 -5.44825 0
M  V30 21182 H 2048.66 -2.08375 -2.12054 0
M  V30 21183 H 2046.19 -1.16369 -1.01478 0
M  V30 21184 H 2048.15 -0.52664 -4.07108 0
M  V30 21185 H 2046.81 0.173775 -3.13619 0
M  V30 21186 H 2046 -1.5262 -4.80337 0
M  V30 21187 H 2045.61 -2.02655 -3.14336 0
M  V30 21188 H 2047.9 -2.57356 -6.26717 0
M  V30 21189 H 2048.84 -4.03117 -5.82153 0
M  V30 21190 H 2049.25 -2.45359 -5.08389 0
M  V30 21191 N 2048.65 1.07897 -1.14873 0
M  V30 21192 C 2049.89 1.80386 -0.920169 0
M  V30 21193 C 2050.22 1.86473 0.553002 0
M  V30 21194 O 2049.48 1.3404 1.4259 0
M  V30 21195 C 2049.78 3.25649 -1.47267 0
M  V30 21196 C 2049.44 3.39671 -2.96537 0
M  V30 21197 C 2048.1 3.43205 -3.37288 0
M  V30 21198 C 2050.46 3.42923 -3.92496 0
M  V30 21199 C 2047.78 3.47589 -4.72651 0
M  V30 21200 C 2050.14 3.48843 -5.27723 0
M  V30 21201 C 2048.8 3.50652 -5.67978 0
M  V30 21202 H 2048.07 0.66008 -0.336714 0
M  V30 21203 H 2050.72 1.27004 -1.43326 0
M  V30 21204 H 2049.02 3.81775 -0.880635 0
M  V30 21205 H 2050.72 3.80301 -1.2717 0
M  V30 21206 H 2047.31 3.37615 -2.64034 0
M  V30 21207 H 2051.49 3.39419 -3.62089 0
M  V30 21208 H 2046.75 3.47285 -5.03193 0
M  V30 21209 H 2050.92 3.50305 -6.0188 0
M  V30 21210 H 2048.55 3.53802 -6.72851 0
M  V30 21211 N 2050.12 0.944665 1.2615 0
M  V30 21212 C 2051.35 0.610451 1.98213 0
M  V30 21213 C 2051.77 -0.808401 1.69843 0
M  V30 21214 O 2051.13 -1.5451 0.948491 0
M  V30 21215 C 2051.18 0.863318 3.50113 0
M  V30 21216 O 2050.28 -0.062849 4.12352 0
M  V30 21217 H 2049.63 0.233139 0.621725 0
M  V30 21218 H 2052.16 1.26855 1.60527 0
M  V30 21219 H 2052.17 0.785602 4.00365 0
M  V30 21220 H 2050.84 1.89748 3.70092 0
M  V30 21221 H 2049.42 0.066222 3.72841 0
M  V30 21222 N 2051.6 -1.40596 0.712085 0
M  V30 21223 C 2052.88 -1.94794 0.177392 0
M  V30 21224 C 2053.26 -1.65047 -1.31616 0
M  V30 21225 O 2052.61 -0.966262 -2.07064 0
M  V30 21226 C 2052.82 -3.45594 0.486369 0
M  V30 21227 C 2054.17 -4.22487 0.423115 0
M  V30 21228 O 2055.19 -3.53689 0.422227 0
M  V30 21229 O 2054.05 -5.45052 0.397587 0
M  V30 21230 H 2051.14 -0.826632 0.0246541 0
M  V30 21231 H 2053.69 -1.50223 0.789377 0
M  V30 21232 H 2052.46 -3.60591 1.51953 0
M  V30 21233 H 2052.08 -3.97295 -0.155756 0
M  V30 21234 N 2053.08 -0.458013 -1.50798 0
M  V30 21235 C 2054.5 -0.111425 -1.59211 0
M  V30 21236 C 2054.7 1.38104 -1.46729 0
M  V30 21237 O 2053.75 2.15306 -1.31907 0
M  V30 21238 C 2055.07 -0.649971 -2.93591 0
M  V30 21239 C 2056.61 -0.612237 -3.06954 0
M  V30 21240 C 2057.09 -1.1281 -4.43889 0
M  V30 21241 N 2058.58 -1.08696 -4.50266 0
M  V30 21242 C 2059.31 -1.45676 -5.54586 0
M  V30 21243 N 2058.81 -1.90042 -6.66225 0
M  V30 21244 N 2060.6 -1.37362 -5.45058 0
M  V30 21245 H 2052.75 -1.42885 -1.57155 0
M  V30 21246 H 2055.02 -0.590085 -0.741959 0
M  V30 21247 H 2054.72 -1.695 -3.0816 0
M  V30 21248 H 2054.6 -0.0862666 -3.77101 0
M  V30 21249 H 2056.98 0.42385 -2.9204 0
M  V30 21250 H 2057.07 -1.21259 -2.25233 0
M  V30 21251 H 2056.71 -2.16276 -4.59551 0
M  V30 21252 H 2056.64 -0.50409 -5.24182 0
M  V30 21253 H 2059.13 -0.761406 -3.7015 0
M  V30 21254 H 2059.44 -2.16442 -7.41871 0
M  V30 21255 H 2057.79 -1.93985 -6.67379 0
M  V30 21256 H 2060.98 -1.02552 -4.56728 0
M  V30 21257 H 2061.15 -1.66508 -6.26242 0
M  V30 21258 N 2054.56 1.56449 -0.190119 0
M  V30 21259 C 2055.98 1.58736 0.165798 0
M  V30 21260 C 2056.18 1.20613 1.61414 0
M  V30 21261 O 2055.23 0.926541 2.34886 0
M  V30 21262 C 2056.54 3.0041 -0.132051 0
M  V30 21263 C 2058.09 3.12918 -0.0717601 0
M  V30 21264 C 2058.57 4.56715 -0.342852 0
M  V30 21265 N 2060.06 4.62283 -0.291293 0
M  V30 21266 C 2060.79 5.71429 -0.474968 0
M  V30 21267 N 2060.29 6.89062 -0.718722 0
M  V30 21268 N 2062.08 5.60606 -0.409568 0
M  V30 21269 H 2054.23 1.79512 -1.1353 0
M  V30 21270 H 2056.5 0.832888 -0.452771 0
M  V30 21271 H 2056.2 3.32845 -1.13609 0
M  V30 21272 H 2056.08 3.72904 0.567676 0
M  V30 21273 H 2058.46 2.80298 0.922882 0
M  V30 21274 H 2058.54 2.4282 -0.804488 0
M  V30 21275 H 2058.19 4.90047 -1.33479 0
M  V30 21276 H 2058.12 5.24996 0.410707 0
M  V30 21277 H 2060.61 3.77742 -0.109306 0
M  V30 21278 H 2060.92 7.68135 -0.847818 0
M  V30 21279 H 2059.27 6.90881 -0.755557 0
M  V30 21280 H 2062.46 4.67585 -0.219592 0
M  V30 21281 H 2062.63 6.45609 -0.556132 0
M  V30 21282 N 2056.04 -0.0835127 1.57379 0
M  V30 21283 C 2057.27 -0.798106 1.90887 0
M  V30 21284 C 2057.68 -1.71709 0.78496 0
M  V30 21285 O 2057.04 -1.80883 -0.242406 0
M  V30 21286 C 2057.09 -1.60168 3.24081 0
M  V30 21287 O 2056.81 -0.719655 4.32149 0
M  V30 21288 C 2058.31 -2.41831 3.71527 0
M  V30 21289 H 2055.53 -0.227571 0.631231 0
M  V30 21290 H 2058.07 -0.0572834 2.0442 0
M  V30 21291 H 2056.23 -2.2949 3.12111 0
M  V30 21292 H 2056.64 -1.27737 5.08708 0
M  V30 21293 H 2058.12 -2.93689 4.67387 0
M  V30 21294 H 2058.59 -3.20824 2.99948 0
M  V30 21295 H 2059.2 -1.77687 3.86403 0
M  V30 21296 N 2057.52 -1.53558 -0.354624 0
M  V30 21297 C 2058.74 -1.74503 -1.12087 0
M  V30 21298 C 2059.17 -0.477817 -1.8193 0
M  V30 21299 O 2058.52 0.568868 -1.72144 0
M  V30 21300 C 2058.57 -2.91808 -2.1185 0
M  V30 21301 O 2057.68 -2.61182 -3.19152 0
M  V30 21302 H 2057.02 -0.579191 -0.324705 0
M  V30 21303 H 2059.55 -2.00483 -0.4084 0
M  V30 21304 H 2059.56 -3.18284 -2.55263 0
M  V30 21305 H 2058.23 -3.83721 -1.6041 0
M  V30 21306 H 2056.81 -2.45558 -2.80634 0
M  V30 21307 N 2058.99 0.615033 -1.45104 0
M  V30 21308 C 2060.24 1.37627 -1.48952 0
M  V30 21309 C 2060.57 1.93779 -0.127873 0
M  V30 21310 O 2059.85 1.74617 0.856686 0
M  V30 21311 C 2060.13 2.5297 -2.56278 0
M  V30 21312 C 2059.98 2.02063 -4.01859 0
M  V30 21313 C 2061.3 3.55121 -2.59956 0
M  V30 21314 H 2058.42 0.49907 -0.542308 0
M  V30 21315 H 2061.06 0.693977 -1.76873 0
M  V30 21316 H 2059.21 3.11174 -2.326 0
M  V30 21317 H 2060.89 1.48565 -4.36722 0
M  V30 21318 H 2059.13 1.3312 -4.1287 0
M  V30 21319 H 2059.8 2.85176 -4.72629 0
M  V30 21320 H 2062.28 3.06745 -2.81153 0
M  V30 21321 H 2061.15 4.33326 -3.36927 0
M  V30 21322 H 2061.41 4.10251 -1.64761 0
M  V30 21323 N 2060.47 1.3227 0.85688 0
M  V30 21324 C 2061.89 1.11212 1.14473 0
M  V30 21325 C 2062.09 -0.108857 2.01206 0
M  V30 21326 O 2061.14 -0.7944 2.39678 0
M  V30 21327 C 2062.46 2.39046 1.82421 0
M  V30 21328 C 2064 2.44782 1.95066 0
M  V30 21329 C 2064.48 3.72531 2.66429 0
M  V30 21330 N 2065.97 3.735 2.73956 0
M  V30 21331 C 2066.71 4.69049 3.29819 0
M  V30 21332 N 2066.2 5.74963 3.86509 0
M  V30 21333 N 2067.99 4.5655 3.27901 0
M  V30 21334 H 2060.15 2.10557 0.279231 0
M  V30 21335 H 2062.41 0.929507 0.186337 0
M  V30 21336 H 2062.11 3.28299 1.26145 0
M  V30 21337 H 2061.99 2.49838 2.82596 0
M  V30 21338 H 2064.38 1.5599 2.50502 0
M  V30 21339 H 2064.46 2.37944 0.938939 0
M  V30 21340 H 2064.1 4.61696 2.11658 0
M  V30 21341 H 2064.03 3.76639 3.68036 0
M  V30 21342 H 2066.52 2.96945 2.33735 0
M  V30 21343 H 2066.83 6.43931 4.27285 0
M  V30 21344 H 2065.18 5.7872 3.84848 0
M  V30 21345 H 2068.37 3.72973 2.82858 0
M  V30 21346 H 2068.54 5.31189 3.71136 0
M  V30 21347 N 2061.95 -1.07287 1.15444 0
M  V30 21348 C 2063.18 -1.83348 0.952215 0
M  V30 21349 C 2063.59 -1.82396 -0.50282 0
M  V30 21350 O 2062.93 -1.23432 -1.36052 0
M  V30 21351 C 2062.99 -3.31539 1.39004 0
M  V30 21352 C 2062.66 -3.56209 2.86293 0
M  V30 21353 C 2063.65 -3.50097 3.84354 0
M  V30 21354 C 2061.34 -3.83854 3.23977 0
M  V30 21355 C 2063.33 -3.7128 5.18102 0
M  V30 21356 C 2061.02 -4.04688 4.57898 0
M  V30 21357 C 2062.02 -3.98396 5.5477 0
M  V30 21358 O 2061.71 -4.18672 6.86271 0
M  V30 21359 H 2061.44 -0.585295 0.338239 0
M  V30 21360 H 2063.99 -1.36329 1.53634 0
M  V30 21361 H 2062.22 -3.79371 0.74932 0
M  V30 21362 H 2063.91 -3.89066 1.15682 0
M  V30 21363 H 2064.68 -3.28741 3.56587 0
M  V30 21364 H 2060.56 -3.87866 2.49161 0
M  V30 21365 H 2064.1 -3.66284 5.93702 0
M  V30 21366 H 2060 -4.25531 4.8538 0
M  V30 21367 H 2060.76 -4.36016 6.92699 0
M  V30 21368 N 2063.43 -0.951342 -1.25647 0
M  V30 21369 C 2064.66 -0.621431 -1.97347 0
M  V30 21370 C 2065.07 0.805774 -1.70742 0
M  V30 21371 O 2064.43 1.53857 -0.981537 0
M  V30 21372 C 2064.48 -0.866537 -3.50961 0
M  V30 21373 O 2064.2 -2.23762 -3.76646 0
M  V30 21374 C 2065.7 -0.548561 -4.39893 0
M  V30 21375 H 2062.92 -0.233273 -0.629146 0
M  V30 21376 H 2065.46 -1.27482 -1.59902 0
M  V30 21377 H 2063.62 -0.259607 -3.86529 0
M  V30 21378 H 2064.03 -2.30528 -4.71123 0
M  V30 21379 H 2065.51 -0.770622 -5.46594 0
M  V30 21380 H 2065.98 0.51678 -4.36149 0
M  V30 21381 H 2066.59 -1.13467 -4.09885 0
M  V30 21382 N 2064.91 1.40216 -0.719531 0
M  V30 21383 C 2066.13 2.05124 -0.270509 0
M  V30 21384 C 2066.55 1.5422 1.08911 0
M  V30 21385 O 2065.91 0.700448 1.68523 0
M  V30 21386 C 2065.96 3.60662 -0.24606 0
M  V30 21387 O 2065.68 4.09688 -1.552 0
M  V30 21388 C 2067.18 4.42749 0.22103 0
M  V30 21389 H 2064.4 0.660024 -0.120868 0
M  V30 21390 H 2066.94 1.79552 -0.978844 0
M  V30 21391 H 2065.1 3.85189 0.413268 0
M  V30 21392 H 2065.51 5.03911 -1.45513 0
M  V30 21393 H 2066.99 5.51683 0.186986 0
M  V30 21394 H 2067.46 4.20624 1.26382 0
M  V30 21395 H 2068.07 4.23337 -0.408166 0
M  V30 21396 N 2066.38 0.466004 1.50553 0
M  V30 21397 C 2067.66 -0.152071 1.95008 0
M  V30 21398 C 2068.04 -1.57451 1.40614 0
M  V30 21399 O 2067.39 -2.20345 0.605014 0
M  V30 21400 C 2067.6 -0.100584 3.48855 0
M  V30 21401 C 2068.95 -0.291998 4.23595 0
M  V30 21402 O 2069.97 -0.177401 3.55758 0
M  V30 21403 O 2068.83 -0.52288 5.43993 0
M  V30 21404 H 2065.92 -0.114439 0.819044 0
M  V30 21405 H 2068.47 0.526042 1.61341 0
M  V30 21406 H 2067.24 0.892745 3.8098 0
M  V30 21407 H 2066.86 -0.820375 3.89044 0
M  V30 21408 N 2067.86 -1.56346 0.198413 0
M  V30 21409 C 2068.79 -2.15154 -0.760519 0
M  V30 21410 C 2069.77 -1.0892 -1.20728 0
M  V30 21411 O 2070.96 -1.37051 -1.29419 0
M  V30 21412 C 2068.08 -2.71312 -2.0275 0
M  V30 21413 C 2067.13 -3.90165 -1.7226 0
M  V30 21414 S 2067.96 -5.28422 -0.86778 0
M  V30 21415 C 2069.12 -5.88003 -2.14483 0
M  V30 21416 H 2069.35 -2.96156 -0.2606 0
M  V30 21417 H 2066.88 -1.54391 -0.0166257 0
M  V30 21418 H 2068.84 -3.0431 -2.7551 0
M  V30 21419 H 2067.5 -1.90346 -2.49854 0
M  V30 21420 H 2066.7 -4.2788 -2.66336 0
M  V30 21421 H 2066.3 -3.58194 -1.0758 0
M  V30 21422 H 2068.59 -6.02568 -3.09707 0
M  V30 21423 H 2069.53 -6.84524 -1.81196 0
M  V30 21424 H 2069.94 -5.16636 -2.27481 0
M  V30 21425 N 2069.34 0.0751653 -1.57421 0
M  V30 21426 C 2070.27 1.09007 -2.06494 0
M  V30 21427 C 2071.25 1.40573 -0.957766 0
M  V30 21428 O 2072.44 1.50259 -1.23028 0
M  V30 21429 C 2069.57 2.40446 -2.50605 0
M  V30 21430 C 2068.52 2.2324 -3.65168 0
M  V30 21431 C 2067.85 3.60033 -3.95323 0
M  V30 21432 C 2069.15 1.65642 -4.95338 0
M  V30 21433 H 2070.84 0.681725 -2.91535 0
M  V30 21434 H 2068.39 0.326481 -1.4025 0
M  V30 21435 H 2070.34 3.11734 -2.83548 0
M  V30 21436 H 2069.06 2.83254 -1.62588 0
M  V30 21437 H 2067.72 1.54393 -3.32503 0
M  V30 21438 H 2067.37 4.00404 -3.04443 0
M  V30 21439 H 2067.07 3.4936 -4.72463 0
M  V30 21440 H 2068.59 4.32757 -4.30759 0
M  V30 21441 H 2070.01 2.26793 -5.26534 0
M  V30 21442 H 2068.41 1.65675 -5.76777 0
M  V30 21443 H 2069.48 0.617593 -4.80951 0
M  V30 21444 N 2070.82 1.53744 0.346476 0
M  V30 21445 C 2072.06 1.71103 1.08866 0
M  V30 21446 C 2072.4 0.47131 1.88394 0
M  V30 21447 O 2071.67 -0.531638 1.87093 0
M  V30 21448 C 2071.96 2.97273 2.03225 0
M  V30 21449 C 2071.81 4.31446 1.27179 0
M  V30 21450 C 2073.13 3.19105 3.03084 0
M  V30 21451 H 2070.25 0.622598 0.394387 0
M  V30 21452 H 2072.89 1.86412 0.367514 0
M  V30 21453 H 2071.04 2.84352 2.64719 0
M  V30 21454 H 2072.71 4.56212 0.683225 0
M  V30 21455 H 2070.95 4.29989 0.573773 0
M  V30 21456 H 2071.62 5.15901 1.96343 0
M  V30 21457 H 2074.1 3.31337 2.51704 0
M  V30 21458 H 2072.98 4.08786 3.66313 0
M  V30 21459 H 2073.24 2.35265 3.74303 0
M  V30 21460 N 2072.3 -0.607329 1.45428 0
M  V30 21461 C 2073.52 -1.39786 1.53214 0
M  V30 21462 C 2073.95 -1.87369 0.165684 0
M  V30 21463 O 2073.3 -1.60154 -0.849728 0
M  V30 21464 C 2073.35 -2.57823 2.52111 0
M  V30 21465 O 2072.46 -3.58462 2.03909 0
M  V30 21466 H 2071.8 -0.417312 0.516476 0
M  V30 21467 H 2074.33 -0.739101 1.90784 0
M  V30 21468 H 2074.34 -3.05064 2.70925 0
M  V30 21469 H 2073.01 -2.22539 3.51354 0
M  V30 21470 H 2071.59 -3.17868 1.94973 0
M  V30 21471 N 2073.77 -1.32722 -0.849853 0
M  V30 21472 C 2074.68 -1.2407 -1.99108 0
M  V30 21473 C 2075.7 -0.153362 -1.73323 0
M  V30 21474 O 2076.88 -0.374928 -1.97879 0
M  V30 21475 C 2073.94 -0.96896 -3.32884 0
M  V30 21476 C 2073 -2.14522 -3.71859 0
M  V30 21477 C 2072.24 -1.88635 -4.99252 0
M  V30 21478 O 2072.46 -0.831259 -5.6431 0
M  V30 21479 O 2071.39 -2.74872 -5.35471 0
M  V30 21480 H 2075.22 -2.20019 -2.09345 0
M  V30 21481 H 2072.8 -1.1266 -0.981232 0
M  V30 21482 H 2074.69 -0.834109 -4.13062 0
M  V30 21483 H 2073.36 -0.0396635 -3.23676 0
M  V30 21484 H 2072.27 -2.33556 -2.92237 0
M  V30 21485 H 2073.6 -3.05747 -3.8572 0
M  V30 21486 N 2075.25 1.06673 -1.16011 0
M  V30 21487 C 2076.19 2.13466 -0.806686 0
M  V30 21488 C 2077.16 1.61105 0.219956 0
M  V30 21489 O 2078.35 1.88208 0.104922 0
M  V30 21490 C 2075.47 3.38104 -0.200765 0
M  V30 21491 C 2074.52 4.09259 -1.2004 0
M  V30 21492 S 2075.35 4.59768 -2.74543 0
M  V30 21493 C 2076.51 5.87672 -2.1539 0
M  V30 21494 H 2076.74 2.43116 -1.71119 0
M  V30 21495 H 2074.28 1.1905 -0.983182 0
M  V30 21496 H 2076.23 4.10253 0.142375 0
M  V30 21497 H 2074.89 3.06619 0.681444 0
M  V30 21498 H 2074.09 4.98761 -0.7248 0
M  V30 21499 H 2073.69 3.43106 -1.48843 0
M  V30 21500 H 2075.98 6.60224 -1.52019 0
M  V30 21501 H 2076.92 6.39956 -3.03087 0
M  V30 21502 H 2077.33 5.41521 -1.59423 0
M  V30 21503 N 2076.73 0.957992 1.25141 0
M  V30 21504 C 2077.98 0.614592 1.92948 0
M  V30 21505 C 2078.31 -0.848868 1.74999 0
M  V30 21506 O 2077.56 -1.62488 1.09069 0
M  V30 21507 C 2077.86 0.923523 3.45262 0
M  V30 21508 C 2077.53 2.37356 3.83371 0
M  V30 21509 C 2076.19 2.7699 3.93484 0
M  V30 21510 C 2078.54 3.31508 4.02184 0
M  V30 21511 C 2075.87 4.09838 4.19821 0
M  V30 21512 C 2078.22 4.63973 4.30014 0
M  V30 21513 C 2076.88 5.03398 4.38345 0
M  V30 21514 H 2076.15 0.224895 0.706048 0
M  V30 21515 H 2078.8 1.20766 1.4862 0
M  V30 21516 H 2077.11 0.248102 3.91014 0
M  V30 21517 H 2078.8 0.636357 3.95919 0
M  V30 21518 H 2075.39 2.05619 3.76057 0
M  V30 21519 H 2079.58 3.02076 3.93781 0
M  V30 21520 H 2074.83 4.40023 4.24488 0
M  V30 21521 H 2079.01 5.36905 4.43516 0
M  V30 21522 H 2076.63 6.06363 4.58506 0
M  V30 21523 N 2078.21 -1.39832 0.726957 0
M  V30 21524 C 2079.62 -1.54462 0.401692 0
M  V30 21525 C 2079.82 -1.6958 -1.08834 0
M  V30 21526 O 2078.88 -1.69177 -1.87444 0
M  V30 21527 C 2080.19 -2.76679 1.17769 0
M  V30 21528 C 2081.74 -2.90507 1.16511 0
M  V30 21529 C 2082.22 -4.1565 1.9235 0
M  V30 21530 N 2083.71 -4.22674 1.89476 0
M  V30 21531 C 2084.44 -5.18437 2.44971 0
M  V30 21532 N 2083.94 -6.20038 3.0907 0
M  V30 21533 N 2085.73 -5.10596 2.3505 0
M  V30 21534 H 2077.88 -1.28266 1.69297 0
M  V30 21535 H 2080.15 -0.621077 0.716217 0
M  V30 21536 H 2079.85 -2.71823 2.2317 0
M  V30 21537 H 2079.73 -3.69115 0.776799 0
M  V30 21538 H 2082.11 -2.94859 0.119254 0
M  V30 21539 H 2082.19 -1.99157 1.60531 0
M  V30 21540 H 2081.84 -4.1206 2.96933 0
M  V30 21541 H 2081.77 -5.0603 1.45743 0
M  V30 21542 H 2084.26 -3.49892 1.42772 0
M  V30 21543 H 2084.57 -6.89555 3.48903 0
M  V30 21544 H 2082.92 -6.20449 3.13158 0
M  V30 21545 H 2086.11 -4.30154 1.84622 0
M  V30 21546 H 2086.28 -5.85053 2.78599 0
M  V30 21547 N 2079.69 -0.473982 -1.50304 0
M  V30 21548 C 2080.6 0.323933 -2.32353 0
M  V30 21549 C 2081.61 0.993251 -1.42865 0
M  V30 21550 O 2082.79 0.980589 -1.75916 0
M  V30 21551 C 2079.85 1.38999 -3.17616 0
M  V30 21552 C 2078.91 0.736965 -4.22927 0
M  V30 21553 C 2078.15 1.75223 -5.04116 0
M  V30 21554 O 2078.37 2.97908 -4.86423 0
M  V30 21555 O 2077.3 1.32246 -5.87192 0
M  V30 21556 H 2081.13 -0.346913 -3.01712 0
M  V30 21557 H 2078.72 -0.235777 -1.47528 0
M  V30 21558 H 2080.6 2.00742 -3.70514 0
M  V30 21559 H 2079.27 2.04425 -2.50982 0
M  V30 21560 H 2078.18 0.0805047 -3.74013 0
M  V30 21561 H 2079.51 0.125602 -4.9204 0
M  V30 21562 N 2081.16 1.56239 -0.206702 0
M  V30 21563 C 2082.39 2.01998 0.433638 0
M  V30 21564 C 2082.8 1.08593 1.54933 0
M  V30 21565 O 2082.15 0.0850804 1.83503 0
M  V30 21566 C 2082.21 3.4413 1.03993 0
M  V30 21567 C 2081.87 4.56959 0.0615327 0
M  V30 21568 C 2082.87 5.14701 -0.733387 0
M  V30 21569 C 2080.55 5.02272 -0.0529169 0
M  V30 21570 C 2082.55 6.16216 -1.62961 0
M  V30 21571 C 2080.23 6.03628 -0.952684 0
M  V30 21572 C 2081.23 6.60475 -1.73959 0
M  V30 21573 O 2080.92 7.59861 -2.62425 0
M  V30 21574 H 2080.65 0.666655 0.112011 0
M  V30 21575 H 2083.21 2.02952 -0.316153 0
M  V30 21576 H 2081.44 3.40198 1.83853 0
M  V30 21577 H 2083.13 3.73627 1.58612 0
M  V30 21578 H 2083.89 4.80552 -0.655335 0
M  V30 21579 H 2079.77 4.57714 0.549424 0
M  V30 21580 H 2083.31 6.60514 -2.24425 0
M  V30 21581 H 2079.21 6.372 -1.03181 0
M  V30 21582 H 2079.98 7.77326 -2.56334 0
M  V30 21583 N 2082.64 -0.0668159 1.57458 0
M  V30 21584 C 2083.87 -0.781616 1.92108 0
M  V30 21585 C 2084.29 -1.70072 0.803553 0
M  V30 21586 O 2083.65 -1.7966 -0.243316 0
M  V30 21587 C 2083.7 -1.54705 3.25728 0
M  V30 21588 O 2082.8 -2.65804 3.15312 0
M  V30 21589 H 2082.14 -0.212907 0.628941 0
M  V30 21590 H 2084.67 -0.0335704 2.04572 0
M  V30 21591 H 2084.68 -1.92522 3.59721 0
M  V30 21592 H 2083.36 -0.872713 4.06641 0
M  V30 21593 H 2081.94 -2.30807 2.92886 0
M  V30 21594 N 2084.12 -1.53926 -0.338317 0
M  V30 21595 C 2085.07 -1.78661 -1.41648 0
M  V30 21596 C 2086.06 -0.642018 -1.47536 0
M  V30 21597 O 2087.25 -0.901572 -1.52318 0
M  V30 21598 C 2084.38 -2.0043 -2.78716 0
M  V30 21599 C 2083.46 -3.2097 -2.77198 0
M  V30 21600 N 2083.85 -4.42332 -2.45308 0
M  V30 21601 C 2082.15 -3.22245 -3.08341 0
M  V30 21602 C 2082.85 -5.24206 -2.52156 0
M  V30 21603 N 2081.83 -4.61043 -2.87994 0
M  V30 21604 H 2085.63 -2.70083 -1.15897 0
M  V30 21605 H 2083.14 -1.52921 -0.546712 0
M  V30 21606 H 2085.14 -2.16287 -3.56407 0
M  V30 21607 H 2083.8 -1.10254 -3.05408 0
M  V30 21608 H 2084.81 -4.69591 -2.18414 0
M  V30 21609 H 2081.49 -2.42053 -3.40171 0
M  V30 21610 H 2082.88 -6.31083 -2.30615 0
M  V30 21611 N 2085.6 0.599608 -1.45748 0
M  V30 21612 C 2087.02 0.921212 -1.3033 0
M  V30 21613 C 2087.22 1.99787 -0.262213 0
M  V30 21614 O 2086.27 2.50186 0.34109 0
M  V30 21615 C 2087.58 1.35457 -2.68462 0
M  V30 21616 C 2089.13 1.46835 -2.76421 0
M  V30 21617 C 2089.61 1.93544 -4.15096 0
M  V30 21618 N 2091.1 2.00765 -4.1743 0
M  V30 21619 C 2091.83 2.38145 -5.21608 0
M  V30 21620 N 2091.33 2.74437 -6.36126 0
M  V30 21621 N 2093.12 2.38554 -5.08968 0
M  V30 21622 H 2085.27 -0.111892 -2.12105 0
M  V30 21623 H 2087.54 0.0126042 -0.947916 0
M  V30 21624 H 2087.24 0.63759 -3.45872 0
M  V30 21625 H 2087.12 2.31951 -2.97453 0
M  V30 21626 H 2089.5 2.17623 -1.99309 0
M  V30 21627 H 2089.58 0.486356 -2.51134 0
M  V30 21628 H 2089.23 1.2334 -4.92696 0
M  V30 21629 H 2089.16 2.92672 -4.3778 0
M  V30 21630 H 2091.65 1.75275 -3.34794 0
M  V30 21631 H 2091.96 3.01865 -7.11405 0
M  V30 21632 H 2090.31 2.72115 -6.39514 0
M  V30 21633 H 2093.5 2.09612 -4.18546 0
M  V30 21634 H 2093.67 2.67359 -5.90274 0
M  V30 21635 N 2087.08 1.33171 0.842803 0
M  V30 21636 C 2088.03 1.23072 1.97373 0
M  V30 21637 C 2089.02 0.132938 1.68878 0
M  V30 21638 O 2090.23 0.296643 1.77539 0
M  V30 21639 H 2086.6 0.381819 0.647857 0
M  V30 21640 H 2088.57 2.18694 2.03016 0
M  V30 21641 C 2087.32 0.982778 3.33522 0
M  V30 21642 H 2086.64 1.81975 3.55985 0
M  V30 21643 H 2088.08 0.952404 4.13165 0
M  V30 21644 C 2086.54 -0.314352 3.3543 0
M  V30 21645 O 2087.07 -1.32235 3.79311 0
M  V30 21646 N 2085.28 -0.340506 2.88598 0
M  V30 21647 H 2084.83 0.480318 2.53082 0
M  V30 21648 H 2084.78 -1.20822 2.90257 0
M  V30 21649 N 2088.56 -1.06056 1.16576 0
M  V30 21650 C 2089.78 -1.83131 0.973539 0
M  V30 21651 C 2090.21 -1.82047 -0.473358 0
M  V30 21652 O 2089.56 -1.22303 -1.33834 0
M  V30 21653 C 2089.61 -3.2753 1.50852 0
M  V30 21654 O 2088.72 -4.06129 0.716451 0
M  V30 21655 H 2088.06 -0.566557 0.346279 0
M  V30 21656 H 2090.59 -1.33704 1.54869 0
M  V30 21657 H 2090.6 -3.78346 1.52704 0
M  V30 21658 H 2089.27 -3.27634 2.56181 0
M  V30 21659 H 2087.85 -3.64892 0.768639 0
M  V30 21660 N 2090.03 -0.964615 -1.24631 0
M  V30 21661 C 2091.28 -0.620429 -1.91921 0
M  V30 21662 C 2091.6 0.847851 -1.76269 0
M  V30 21663 O 2092.8 1.30243 -2.38221 0
M  V30 21664 C 2091.26 -1.059 -3.43967 0
M  V30 21665 C 2090.87 -2.55052 -3.6831 0
M  V30 21666 C 2092.61 -0.787818 -4.17126 0
M  V30 21667 C 2090.52 -2.92658 -5.13912 0
M  V30 21668 H 2089.45 -0.22834 -0.718594 0
M  V30 21669 H 2092.1 -1.17041 -1.41328 0
M  V30 21670 H 2090.48 -0.437357 -3.93577 0
M  V30 21671 H 2091.65 -3.2232 -3.29312 0
M  V30 21672 H 2089.97 -2.79748 -3.08432 0
M  V30 21673 H 2092.57 -1.04483 -5.24392 0
M  V30 21674 H 2092.91 0.275932 -4.15385 0
M  V30 21675 H 2093.44 -1.37028 -3.73454 0
M  V30 21676 H 2090.18 -3.98091 -5.20772 0
M  V30 21677 H 2089.7 -2.30071 -5.5392 0
M  V30 21678 H 2091.38 -2.82395 -5.82119 0
M  V30 21679 N 2091.51 1.39445 -0.734362 0
M  V30 21680 C 2092.76 2.0013 -0.281468 0
M  V30 21681 C 2093.08 1.58562 1.13504 0
M  V30 21682 O 2092.35 0.833568 1.77281 0
M  V30 21683 H 2090.93 0.74013 -0.101076 0
M  V30 21684 H 2093.59 1.70503 -0.944178 0
M  V30 21685 H 2092.69 3.10357 -0.329356 0
M  V30 21686 N 2092.99 0.481946 1.5005 0
M  V30 21687 C 2093.94 -0.320472 2.30382 0
M  V30 21688 C 2094.93 -0.980434 1.38144 0
M  V30 21689 O 2096.14 -0.910298 1.55285 0
M  V30 21690 H 2092.51 -0.122196 0.742006 0
M  V30 21691 H 2094.48 0.377305 2.96005 0
M  V30 21692 C 2093.23 -1.38347 3.18991 0
M  V30 21693 H 2092.56 -0.885033 3.89881 0
M  V30 21694 H 2094 -1.91728 3.78175 0
M  V30 21695 C 2092.45 -2.39133 2.37313 0
M  V30 21696 O 2092.98 -3.44629 2.06383 0
M  V30 21697 N 2091.19 -2.11122 1.9969 0
M  V30 21698 H 2090.74 -1.25354 2.25043 0
M  V30 21699 H 2090.7 -2.78787 1.45345 0
M  V30 21700 N 2094.47 -1.56127 0.214985 0
M  V30 21701 C 2095.71 -1.98422 -0.41911 0
M  V30 21702 C 2096.05 -1.10235 -1.59881 0
M  V30 21703 O 2095.32 -0.158603 -1.93852 0
M  V30 21704 C 2095.6 -3.49679 -0.86003 0
M  V30 21705 C 2095.46 -4.4864 0.322851 0
M  V30 21706 C 2096.78 -4.0516 -1.71854 0
M  V30 21707 H 2093.9 -0.721393 -0.150867 0
M  V30 21708 H 2096.54 -1.87456 0.309902 0
M  V30 21709 H 2094.69 -3.59155 -1.48121 0
M  V30 21710 H 2096.36 -4.51181 0.960896 0
M  V30 21711 H 2094.6 -4.22784 0.97138 0
M  V30 21712 H 2095.27 -5.51993 -0.028492 0
M  V30 21713 H 2097.75 -3.98587 -1.19448 0
M  V30 21714 H 2096.63 -5.11324 -1.99596 0
M  V30 21715 H 2096.89 -3.51638 -2.67962 0
M  V30 21716 N 2095.95 0.0584645 -1.57492 0
M  V30 21717 C 2096.88 1.0681 -2.07639 0
M  V30 21718 C 2097.86 1.3955 -0.972622 0
M  V30 21719 O 2099.04 1.48946 -1.24615 0
M  V30 21720 C 2096.17 2.37774 -2.53142 0
M  V30 21721 C 2095.13 2.19354 -3.67516 0
M  V30 21722 C 2094.45 3.5582 -3.9912 0
M  V30 21723 C 2095.75 1.60379 -4.97067 0
M  V30 21724 H 2097.45 0.650765 -2.92242 0
M  V30 21725 H 2094.99 0.311587 -1.40589 0
M  V30 21726 H 2096.94 3.08709 -2.86839 0
M  V30 21727 H 2095.67 2.81513 -1.65583 0
M  V30 21728 H 2094.33 1.50858 -3.34122 0
M  V30 21729 H 2093.98 3.97153 -3.08672 0
M  V30 21730 H 2093.68 3.4433 -4.76142 0
M  V30 21731 H 2095.2 4.28164 -4.35325 0
M  V30 21732 H 2096.61 2.21195 -5.2891 0
M  V30 21733 H 2095.01 1.59548 -5.78502 0
M  V30 21734 H 2096.08 0.566547 -4.81579 0
M  V30 21735 N 2097.42 1.54103 0.330149 0
M  V30 21736 C 2098.33 1.86042 1.42918 0
M  V30 21737 C 2099.35 0.75174 1.56923 0
M  V30 21738 O 2100.53 1.04538 1.72145 0
M  V30 21739 C 2097.59 2.07533 2.77724 0
M  V30 21740 C 2096.65 3.31356 2.7295 0
M  V30 21741 C 2095.88 3.51812 4.01328 0
M  V30 21742 O 2096.11 2.75838 4.99269 0
M  V30 21743 O 2095.04 4.45275 4.04986 0
M  V30 21744 H 2098.87 2.79483 1.18839 0
M  V30 21745 H 2096.45 1.39925 0.523569 0
M  V30 21746 H 2098.33 2.23037 3.57537 0
M  V30 21747 H 2097.01 1.1728 3.01707 0
M  V30 21748 H 2095.92 3.21243 1.91712 0
M  V30 21749 H 2097.25 4.21645 2.53922 0
M  V30 21750 N 2098.9 -0.59187 1.46064 0
M  V30 21751 C 2099.87 -1.68357 1.55526 0
M  V30 21752 C 2100.87 -1.54854 0.433247 0
M  V30 21753 O 2102.06 -1.59637 0.697258 0
M  V30 21754 C 2099.19 -3.07729 1.46683 0
M  V30 21755 H 2100.38 -1.61328 2.5281 0
M  V30 21756 H 2097.93 -0.808941 1.33738 0
M  V30 21757 H 2098.67 -3.20321 0.506433 0
M  V30 21758 H 2098.45 -3.18939 2.2808 0
M  V30 21759 H 2099.94 -3.87218 1.5637 0
M  V30 21760 N 2100.38 -1.33616 -0.835729 0
M  V30 21761 C 2101.31 -1.26762 -1.96096 0
M  V30 21762 C 2102.29 -0.147563 -1.69459 0
M  V30 21763 O 2103.48 -0.33785 -1.91239 0
M  V30 21764 C 2100.61 -1.00927 -3.32312 0
M  V30 21765 C 2099.56 -2.09261 -3.73355 0
M  V30 21766 C 2098.89 -1.68635 -5.07411 0
M  V30 21767 C 2100.19 -3.50968 -3.86806 0
M  V30 21768 H 2101.88 -2.20908 -2.02089 0
M  V30 21769 H 2099.43 -1.06346 -0.970907 0
M  V30 21770 H 2101.38 -0.947809 -4.10603 0
M  V30 21771 H 2100.1 -0.0322023 -3.26584 0
M  V30 21772 H 2098.76 -2.14455 -2.97329 0
M  V30 21773 H 2098.41 -0.696223 -4.98158 0
M  V30 21774 H 2098.11 -2.41134 -5.35844 0
M  V30 21775 H 2099.63 -1.63961 -5.88175 0
M  V30 21776 H 2101.05 -3.48257 -4.55401 0
M  V30 21777 H 2099.45 -4.21978 -4.26678 0
M  V30 21778 H 2100.52 -3.89244 -2.89166 0
M  V30 21779 N 2101.86 1.05436 -1.17136 0
M  V30 21780 C 2103.11 1.78394 -0.958224 0
M  V30 21781 C 2103.43 1.87604 0.513324 0
M  V30 21782 O 2102.69 1.37034 1.39715 0
M  V30 21783 C 2102.99 3.22452 -1.54141 0
M  V30 21784 C 2102.65 3.33305 -3.03675 0
M  V30 21785 C 2101.32 3.35974 -3.44492 0
M  V30 21786 C 2103.67 3.34521 -3.99681 0
M  V30 21787 C 2101 3.37485 -4.79918 0
M  V30 21788 C 2103.35 3.37571 -5.35004 0
M  V30 21789 C 2102.01 3.38526 -5.75288 0
M  V30 21790 H 2101.28 0.652789 -0.350639 0
M  V30 21791 H 2103.93 1.23935 -1.45988 0
M  V30 21792 H 2102.23 3.79821 -0.961417 0
M  V30 21793 H 2103.93 3.77518 -1.35208 0
M  V30 21794 H 2100.52 3.31939 -2.71136 0
M  V30 21795 H 2104.7 3.31662 -3.69207 0
M  V30 21796 H 2099.96 3.36533 -5.10446 0
M  V30 21797 H 2104.13 3.3746 -6.09175 0
M  V30 21798 H 2101.76 3.3945 -6.80204 0
M  V30 21799 N 2103.34 0.971211 1.24118 0
M  V30 21800 C 2104.27 0.462026 2.24495 0
M  V30 21801 C 2105.28 -0.431143 1.56987 0
M  V30 21802 O 2106.47 -0.236754 1.76923 0
M  V30 21803 C 2103.57 -0.351913 3.37068 0
M  V30 21804 C 2102.74 0.532187 4.3415 0
M  V30 21805 C 2101.8 -0.22634 5.25713 0
M  V30 21806 O 2100.83 0.380923 5.67924 0
M  V30 21807 N 2102.03 -1.51493 5.60384 0
M  V30 21808 H 2104.8 1.32507 2.68816 0
M  V30 21809 H 2102.36 0.843431 1.38195 0
M  V30 21810 H 2104.35 -0.867478 3.95293 0
M  V30 21811 H 2102.92 -1.1159 2.92004 0
M  V30 21812 H 2102.14 1.22869 3.74562 0
M  V30 21813 H 2103.43 1.13503 4.95978 0
M  V30 21814 H 2102.82 -2.02997 5.28023 0
M  V30 21815 H 2101.38 -1.97612 6.21122 0
M  V30 21816 N 2104.81 -1.39054 0.741747 0
M  V30 21817 C 2106.06 -1.99978 0.292077 0
M  V30 21818 C 2106.38 -1.59162 -1.12662 0
M  V30 21819 O 2105.65 -0.842958 -1.76836 0
M  V30 21820 H 2104.23 -0.739584 0.105 0
M  V30 21821 H 2106.9 -1.7 0.953207 0
M  V30 21822 H 2105.99 -3.10178 0.34581 0
M  V30 21823 N 2106.29 -0.489897 -1.49792 0
M  V30 21824 C 2107.7 -0.0393634 -1.86658 0
M  V30 21825 C 2108.05 1.37132 -1.40318 0
M  V30 21826 O 2107.18 2.01999 -0.776241 0
M  V30 21827 C 2107.77 -0.0646571 -3.38738 0
M  V30 21828 C 2106.33 0.330485 -3.74946 0
M  V30 21829 C 2105.48 -0.442023 -2.73754 0
M  V30 21830 H 2108.43 -0.703245 -1.42268 0
M  V30 21831 H 2108.45 0.73323 -3.73368 0
M  V30 21832 H 2107.96 -1.09149 -3.72435 0
M  V30 21833 H 2106.07 1.36097 -3.46855 0
M  V30 21834 H 2106.18 0.0187552 -4.79096 0
M  V30 21835 H 2104.54 0.106725 -2.54476 0
M  V30 21836 H 2105.33 -1.46872 -3.10296 0
M  V30 21837 N 2107.77 1.56011 -0.223262 0
M  V30 21838 C 2109.18 1.84523 0.284276 0
M  V30 21839 C 2109.53 1.14468 1.59347 0
M  V30 21840 O 2108.66 0.414932 2.12385 0
M  V30 21841 C 2109.25 3.34746 0.522566 0
M  V30 21842 C 2107.81 3.63569 0.974409 0
M  V30 21843 C 2106.96 2.77273 0.038428 0
M  V30 21844 H 2109.91 1.52292 -0.446413 0
M  V30 21845 H 2109.93 3.55044 1.36835 0
M  V30 21846 H 2109.44 3.85705 -0.430453 0
M  V30 21847 H 2107.54 3.18067 1.94073 0
M  V30 21848 H 2107.66 4.71542 0.847634 0
M  V30 21849 H 2106.02 2.48789 0.545532 0
M  V30 21850 H 2106.8 3.31032 -0.909539 0
M  V30 21851 N 2109.25 -0.0501116 1.5752 0
M  V30 21852 C 2110.49 -0.7462 1.88573 0
M  V30 21853 C 2110.83 -1.76115 0.818369 0
M  V30 21854 O 2110.1 -1.93764 -0.169013 0
M  V30 21855 C 2110.39 -1.43474 3.30284 0
M  V30 21856 C 2110.24 -0.434736 4.47694 0
M  V30 21857 C 2111.56 -2.37419 3.70568 0
M  V30 21858 H 2108.68 -0.269807 0.685838 0
M  V30 21859 H 2111.32 -0.00912382 1.89998 0
M  V30 21860 H 2109.47 -2.06301 3.29199 0
M  V30 21861 H 2111.14 0.189992 4.60909 0
M  V30 21862 H 2109.38 0.24799 4.33091 0
M  V30 21863 H 2110.05 -0.954564 5.43684 0
M  V30 21864 H 2112.53 -1.84653 3.72884 0
M  V30 21865 H 2111.41 -2.82587 4.7057 0
M  V30 21866 H 2111.67 -3.2318 3.01674 0
M  V30 21867 N 2110.73 -1.54276 -0.321972 0
M  V30 21868 C 2111.68 -1.80154 -1.39745 0
M  V30 21869 C 2112.66 -0.65763 -1.46847 0
M  V30 21870 O 2113.85 -0.917677 -1.51353 0
M  V30 21871 C 2110.98 -2.03375 -2.76574 0
M  V30 21872 C 2110.07 -3.23892 -2.73779 0
M  V30 21873 N 2110.46 -4.44909 -2.40603 0
M  V30 21874 C 2108.76 -3.25497 -3.04906 0
M  V30 21875 C 2109.46 -5.26851 -2.46582 0
M  V30 21876 N 2108.43 -4.64072 -2.83087 0
M  V30 21877 H 2112.24 -2.71297 -1.13026 0
M  V30 21878 H 2109.75 -1.53492 -0.530462 0
M  V30 21879 H 2111.75 -2.20055 -3.54092 0
M  V30 21880 H 2110.41 -1.13487 -3.04222 0
M  V30 21881 H 2111.42 -4.71881 -2.13421 0
M  V30 21882 H 2108.09 -2.45648 -3.37585 0
M  V30 21883 H 2109.48 -6.33494 -2.23909 0
M  V30 21884 N 2112.2 0.584116 -1.46376 0
M  V30 21885 C 2113.15 1.69328 -1.56833 0
M  V30 21886 C 2114.12 1.60891 -0.412719 0
M  V30 21887 O 2115.31 1.80124 -0.629286 0
M  V30 21888 C 2112.45 3.07663 -1.56324 0
M  V30 21889 C 2111.56 3.26736 -2.82609 0
M  V30 21890 C 2110.69 4.55312 -2.73613 0
M  V30 21891 C 2109.73 4.67723 -3.94844 0
M  V30 21892 N 2108.87 5.87624 -3.84243 0
M  V30 21893 H 2113.71 1.59727 -2.51577 0
M  V30 21894 H 2111.25 0.778493 -1.24811 0
M  V30 21895 H 2113.21 3.87731 -1.54014 0
M  V30 21896 H 2111.84 3.16165 -0.651131 0
M  V30 21897 H 2110.89 2.40283 -2.94904 0
M  V30 21898 H 2112.2 3.31775 -3.72461 0
M  V30 21899 H 2111.35 5.43606 -2.69401 0
M  V30 21900 H 2110.09 4.52709 -1.81399 0
M  V30 21901 H 2109.1 3.77847 -3.99389 0
M  V30 21902 H 2110.32 4.72106 -4.88152 0
M  V30 21903 H 2108.27 5.86021 -2.94814 0
M  V30 21904 H 2108.19 5.93925 -4.67749 0
M  V30 21905 H 2109.45 6.78352 -3.84003 0
M  V30 21906 N 2113.68 1.34058 0.828631 0
M  V30 21907 C 2114.96 1.1668 1.56988 0
M  V30 21908 C 2115.34 -0.262846 2.09457 0
M  V30 21909 O 2114.69 -1.26337 1.90398 0
M  V30 21910 C 2114.9 2.21657 2.69572 0
M  V30 21911 C 2116.25 2.56341 3.38489 0
M  V30 21912 O 2117.27 2.20402 2.79824 0
M  V30 21913 O 2116.13 3.18053 4.44415 0
M  V30 21914 H 2113.22 0.451944 0.692586 0
M  V30 21915 H 2115.77 1.45672 0.870498 0
M  V30 21916 H 2114.54 3.17643 2.28515 0
M  V30 21917 H 2114.16 1.93809 3.47166 0
M  V30 21918 N 2115.16 -1.04814 1.17694 0
M  V30 21919 C 2116.09 -2.1459 0.920505 0
M  V30 21920 C 2117.07 -1.69531 -0.138953 0
M  V30 21921 O 2118.26 -1.94196 0.0120784 0
M  V30 21922 C 2115.39 -3.44537 0.437198 0
M  V30 21923 C 2114.34 -4.03181 1.43628 0
M  V30 21924 C 2113.67 -5.28517 0.810779 0
M  V30 21925 C 2114.97 -4.40226 2.81066 0
M  V30 21926 H 2116.66 -2.363 1.83856 0
M  V30 21927 H 2114.21 -1.13563 0.885411 0
M  V30 21928 H 2116.16 -4.20686 0.245199 0
M  V30 21929 H 2114.88 -3.22492 -0.516401 0
M  V30 21930 H 2113.54 -3.29106 1.61508 0
M  V30 21931 H 2113.19 -5.02777 -0.149773 0
M  V30 21932 H 2112.89 -5.68714 1.47776 0
M  V30 21933 H 2114.42 -6.0735 0.62914 0
M  V30 21934 H 2115.83 -5.07393 2.66881 0
M  V30 21935 H 2114.23 -4.91451 3.44377 0
M  V30 21936 H 2115.3 -3.50396 3.35188 0
M  V30 21937 N 2116.64 -0.977779 -1.23601 0
M  V30 21938 C 2117.59 -0.51555 -2.24968 0
M  V30 21939 C 2118.56 0.4442 -1.6005 0
M  V30 21940 O 2119.74 0.352328 -1.87519 0
M  V30 21941 C 2116.88 0.17842 -3.44638 0
M  V30 21942 C 2115.99 -0.821283 -4.24121 0
M  V30 21943 C 2115.13 -0.102387 -5.31101 0
M  V30 21944 C 2114.17 -1.09148 -6.0229 0
M  V30 21945 N 2113.31 -0.401914 -7.00949 0
M  V30 21946 H 2118.15 -1.38475 -2.63872 0
M  V30 21947 H 2115.68 -0.693946 -1.29703 0
M  V30 21948 H 2117.64 0.597555 -4.12898 0
M  V30 21949 H 2116.27 1.01151 -3.06543 0
M  V30 21950 H 2115.32 -1.35882 -3.55303 0
M  V30 21951 H 2116.63 -1.5751 -4.73278 0
M  V30 21952 H 2115.79 0.374242 -6.05545 0
M  V30 21953 H 2114.53 0.684048 -4.82879 0
M  V30 21954 H 2113.53 -1.57889 -5.26641 0
M  V30 21955 H 2114.76 -1.87853 -6.52601 0
M  V30 21956 H 2112.7 0.365361 -6.54982 0
M  V30 21957 H 2112.62 -1.09443 -7.48036 0
M  V30 21958 H 2113.89 0.0524137 -7.79482 0
M  V30 21959 N 2118.12 1.38658 -0.749111 0
M  V30 21960 C 2119.37 1.99455 -0.300085 0
M  V30 21961 C 2119.68 1.60136 1.1232 0
M  V30 21962 O 2120.89 2.13871 1.67247 0
M  V30 21963 C 2119.34 3.56609 -0.485575 0
M  V30 21964 C 2118.95 4.04883 -1.91766 0
M  V30 21965 C 2120.69 4.24384 -0.0990364 0
M  V30 21966 C 2118.6 5.54661 -2.05195 0
M  V30 21967 H 2117.53 0.74616 -0.108449 0
M  V30 21968 H 2120.18 1.5848 -0.925012 0
M  V30 21969 H 2118.56 3.95451 0.208468 0
M  V30 21970 H 2119.74 3.77342 -2.6448 0
M  V30 21971 H 2118.05 3.49817 -2.2587 0
M  V30 21972 H 2120.65 5.34403 -0.178195 0
M  V30 21973 H 2120.99 4.05369 0.947724 0
M  V30 21974 H 2121.53 3.90766 -0.744765 0
M  V30 21975 H 2118.26 5.78575 -3.08109 0
M  V30 21976 H 2117.78 5.8396 -1.36935 0
M  V30 21977 H 2119.46 6.20291 -1.83977 0
M  V30 21978 N 2119.6 0.497834 1.49531 0
M  V30 21979 C 2120.82 -0.0468921 2.07347 0
M  V30 21980 C 2121.25 -1.30349 1.35612 0
M  V30 21981 O 2120.6 -1.76559 0.411884 0
M  V30 21982 C 2120.65 -0.286776 3.59458 0
M  V30 21983 O 2119.76 -1.36212 3.89256 0
M  V30 21984 H 2119.1 0.0248202 0.663536 0
M  V30 21985 H 2121.63 0.696547 1.92378 0
M  V30 21986 H 2121.64 -0.519243 4.04682 0
M  V30 21987 H 2120.31 0.631334 4.1108 0
M  V30 21988 H 2118.89 -1.11485 3.55845 0
M  V30 21989 N 2121.07 -1.5589 0.231532 0
M  V30 21990 C 2122.32 -1.98855 -0.398041 0
M  V30 21991 C 2122.65 -1.11925 -1.58702 0
M  V30 21992 O 2121.93 -0.179155 -1.93673 0
M  V30 21993 C 2122.21 -3.50572 -0.822893 0
M  V30 21994 C 2122.06 -4.48272 0.370417 0
M  V30 21995 C 2123.38 -4.0696 -1.67547 0
M  V30 21996 H 2120.5 -0.722953 -0.143207 0
M  V30 21997 H 2123.14 -1.87116 0.329767 0
M  V30 21998 H 2121.29 -3.60706 -1.44303 0
M  V30 21999 H 2122.97 -4.50137 1.0087 0
M  V30 22000 H 2121.21 -4.2173 1.01617 0
M  V30 22001 H 2121.88 -5.51992 0.0300558 0
M  V30 22002 H 2124.36 -3.99831 -1.15214 0
M  V30 22003 H 2123.23 -5.13412 -1.94162 0
M  V30 22004 H 2123.49 -3.5446 -2.64217 0
M  V30 22005 N 2122.55 0.0417572 -1.57545 0
M  V30 22006 C 2123.51 1.03085 -2.0471 0
M  V30 22007 C 2124.51 1.29808 -0.94903 0
M  V30 22008 O 2125.7 1.25024 -1.21304 0
M  V30 22009 C 2122.84 2.367 -2.45329 0
M  V30 22010 H 2124.03 0.623701 -2.93343 0
M  V30 22011 H 2121.58 0.288275 -1.53619 0
M  V30 22012 H 2122.32 2.82188 -1.59813 0
M  V30 22013 H 2122.1 2.18637 -3.25485 0
M  V30 22014 H 2123.59 3.07737 -2.8229 0
M  V30 22015 N 2124.03 1.54445 0.313786 0
M  V30 22016 C 2124.94 1.87547 1.40937 0
M  V30 22017 C 2125.96 0.768341 1.56117 0
M  V30 22018 O 2127.13 1.06358 1.71026 0
M  V30 22019 C 2124.2 2.10467 2.75508 0
M  V30 22020 C 2123.26 3.34232 2.69421 0
M  V30 22021 C 2122.49 3.56049 3.97574 0
M  V30 22022 O 2122.71 2.81118 4.96316 0
M  V30 22023 O 2121.65 4.49546 4.0024 0
M  V30 22024 H 2125.47 2.80728 1.15868 0
M  V30 22025 H 2123.06 1.40473 0.508698 0
M  V30 22026 H 2124.94 2.26817 3.55151 0
M  V30 22027 H 2123.62 1.20474 3.00446 0
M  V30 22028 H 2122.52 3.23259 1.88294 0
M  V30 22029 H 2123.86 4.24314 2.49436 0
M  V30 22030 N 2125.51 -0.576345 1.46683 0
M  V30 22031 C 2126.42 -1.71268 1.60326 0
M  V30 22032 C 2127.43 -1.67059 0.486559 0
M  V30 22033 O 2128.61 -1.86852 0.75154 0
M  V30 22034 C 2125.67 -3.07775 1.5961 0
M  V30 22035 C 2124.74 -3.232 2.8256 0
M  V30 22036 C 2123.97 -4.53195 2.81869 0
M  V30 22037 O 2124.19 -5.37478 1.90979 0
M  V30 22038 O 2123.13 -4.72003 3.73493 0
M  V30 22039 H 2126.95 -1.62705 2.56439 0
M  V30 22040 H 2124.54 -0.744135 1.29549 0
M  V30 22041 H 2126.42 -3.89046 1.61929 0
M  V30 22042 H 2125.09 -3.16762 0.666583 0
M  V30 22043 H 2124 -2.41398 2.85793 0
M  V30 22044 H 2125.33 -3.19107 3.74742 0
M  V30 22045 N 2126.99 -1.34495 -0.82151 0
M  V30 22046 C 2128.23 -1.27119 -1.58014 0
M  V30 22047 C 2128.56 0.158163 -1.93555 0
M  V30 22048 O 2127.84 1.10389 -1.60139 0
M  V30 22049 C 2128.12 -2.16338 -2.87871 0
M  V30 22050 C 2127.98 -3.67818 -2.58902 0
M  V30 22051 C 2129.29 -2.04971 -3.89455 0
M  V30 22052 H 2126.41 -0.463115 -0.573318 0
M  V30 22053 H 2129.06 -1.6476 -0.946264 0
M  V30 22054 H 2127.21 -1.84367 -3.41966 0
M  V30 22055 H 2128.88 -4.10161 -2.11106 0
M  V30 22056 H 2127.12 -3.88837 -1.92324 0
M  V30 22057 H 2127.79 -4.25612 -3.51509 0
M  V30 22058 H 2130.27 -2.33044 -3.44717 0
M  V30 22059 H 2129.14 -2.6962 -4.78118 0
M  V30 22060 H 2129.4 -1.02711 -4.30003 0
M  V30 22061 N 2128.46 1.04188 -1.18248 0
M  V30 22062 C 2129.88 1.58822 -0.981458 0
M  V30 22063 C 2130.23 1.90507 0.469187 0
M  V30 22064 O 2129.35 1.6942 1.34632 0
M  V30 22065 C 2129.95 2.88565 -1.77526 0
M  V30 22066 C 2128.51 3.3982 -1.61862 0
M  V30 22067 C 2127.65 2.13421 -1.77051 0
M  V30 22068 H 2130.6 0.868749 -1.3281 0
M  V30 22069 H 2130.62 3.58905 -1.26362 0
M  V30 22070 H 2130.14 2.65472 -2.83101 0
M  V30 22071 H 2128.24 3.67928 -0.588186 0
M  V30 22072 H 2128.35 4.13728 -2.4159 0
M  V30 22073 H 2126.71 2.24667 -1.19986 0
M  V30 22074 H 2127.5 1.92785 -2.84058 0
M  V30 22075 N 2129.94 0.98432 1.23081 0
M  V30 22076 C 2131.35 0.691779 1.73411 0
M  V30 22077 C 2131.7 -0.791814 1.79513 0
M  V30 22078 O 2130.83 -1.61921 1.43563 0
M  V30 22079 C 2131.42 1.24906 3.14935 0
M  V30 22080 C 2129.98 1.00608 3.62705 0
M  V30 22081 C 2129.13 1.37443 2.40842 0
M  V30 22082 H 2132.08 1.1577 1.08549 0
M  V30 22083 H 2132.1 0.623401 3.75358 0
M  V30 22084 H 2131.61 2.32884 3.10462 0
M  V30 22085 H 2129.72 -0.0574556 3.72556 0
M  V30 22086 H 2129.83 1.66341 4.49296 0
M  V30 22087 H 2128.19 0.792926 2.42043 0
M  V30 22088 H 2128.98 2.46407 2.39037 0
M  V30 22089 N 2131.42 -1.38259 0.756453 0
M  V30 22090 C 2132.83 -1.82766 0.381221 0
M  V30 22091 C 2133.18 -1.631 -1.09054 0
M  V30 22092 O 2132.31 -1.13374 -1.84324 0
M  V30 22093 C 2132.9 -3.318 0.685159 0
M  V30 22094 C 2131.46 -3.74644 0.36317 0
M  V30 22095 C 2130.61 -2.60994 0.936868 0
M  V30 22096 H 2133.56 -1.26947 0.952371 0
M  V30 22097 H 2133.58 -3.80483 -0.0356313 0
M  V30 22098 H 2133.09 -3.46082 1.75639 0
M  V30 22099 H 2131.19 -3.65939 -0.701363 0
M  V30 22100 H 2131.31 -4.71305 0.860726 0
M  V30 22101 H 2129.67 -2.52113 0.362062 0
M  V30 22102 H 2130.45 -2.78075 2.01319 0
M  V30 22103 N 2132.9 -0.505757 -1.49264 0
M  V30 22104 C 2134.31 -0.0591588 -1.86606 0
M  V30 22105 C 2134.66 1.35636 -1.41765 0
M  V30 22106 O 2133.79 2.01164 -0.797622 0
M  V30 22107 C 2134.38 -0.100581 -3.38651 0
M  V30 22108 C 2132.94 0.290698 -3.75276 0
M  V30 22109 C 2132.09 -0.471033 -2.7327 0
M  V30 22110 H 2135.04 -0.718294 -1.41514 0
M  V30 22111 H 2135.06 0.693588 -3.74125 0
M  V30 22112 H 2134.57 -1.13093 -3.71257 0
M  V30 22113 H 2132.67 1.3241 -3.48279 0
M  V30 22114 H 2132.78 -0.0320604 -4.79089 0
M  V30 22115 H 2131.15 0.0797288 -2.54575 0
M  V30 22116 H 2131.93 -1.50155 -3.0872 0
M  V30 22117 N 2134.38 1.55765 -0.239796 0
M  V30 22118 C 2135.34 2.19809 0.649364 0
M  V30 22119 C 2136.34 1.16526 1.10808 0
M  V30 22120 O 2137.53 1.41651 1.01394 0
M  V30 22121 C 2134.66 2.83599 1.89168 0
M  V30 22122 H 2135.85 2.99763 0.0907114 0
M  V30 22123 H 2133.41 1.56297 0.00977153 0
M  V30 22124 H 2134.14 2.07564 2.49174 0
M  V30 22125 H 2133.93 3.5925 1.57104 0
M  V30 22126 H 2135.42 3.32634 2.52477 0
M  V30 22127 N 2135.85 -0.0334016 1.57565 0
M  V30 22128 C 2137.1 -0.724102 1.88254 0
M  V30 22129 C 2137.42 -1.76752 0.837737 0
M  V30 22130 O 2138.62 -2.51051 1.03372 0
M  V30 22131 C 2137.08 -1.33894 3.34067 0
M  V30 22132 C 2136.69 -0.332091 4.46767 0
M  V30 22133 C 2138.43 -2.00977 3.7391 0
M  V30 22134 C 2136.34 -0.955024 5.83638 0
M  V30 22135 H 2135.27 -0.274201 0.702375 0
M  V30 22136 H 2137.92 0.0216608 1.83487 0
M  V30 22137 H 2136.3 -2.13426 3.33565 0
M  V30 22138 H 2137.47 0.436205 4.58731 0
M  V30 22139 H 2135.79 0.236407 4.15728 0
M  V30 22140 H 2138.39 -2.48428 4.73485 0
M  V30 22141 H 2138.73 -2.82605 3.05679 0
M  V30 22142 H 2139.26 -1.28225 3.76568 0
M  V30 22143 H 2136 -0.178244 6.55258 0
M  V30 22144 H 2135.52 -1.69326 5.75403 0
M  V30 22145 H 2137.2 -1.46364 6.30227 0
M  V30 22146 N 2137.33 -1.54609 -0.305591 0
M  V30 22147 C 2138.3 -1.84504 -1.35982 0
M  V30 22148 C 2139.3 -0.717695 -1.43895 0
M  V30 22149 O 2140.49 -0.985988 -1.4361 0
M  V30 22150 C 2137.62 -2.0212 -2.74518 0
M  V30 22151 H 2138.81 -2.78713 -1.10721 0
M  V30 22152 H 2136.36 -1.46601 -0.542022 0
M  V30 22153 H 2137.1 -1.10183 -3.05009 0
M  V30 22154 H 2136.88 -2.84171 -2.70166 0
M  V30 22155 H 2138.37 -2.26635 -3.50751 0
M  V30 22156 N 2138.81 0.568558 -1.46987 0
M  V30 22157 C 2140.09 1.3291 -1.43507 0
M  V30 22158 C 2140.47 2.10724 -0.12598 0
M  V30 22159 O 2139.82 2.10348 0.892528 0
M  V30 22160 C 2140.03 2.2432 -2.6736 0
M  V30 22161 C 2141.37 2.85701 -3.14102 0
M  V30 22162 O 2142.4 2.34627 -2.68009 0
M  V30 22163 O 2141.26 3.78504 -3.94204 0
M  V30 22164 H 2138.35 0.597891 -0.571363 0
M  V30 22165 H 2140.9 0.588401 -1.59173 0
M  V30 22166 H 2139.67 1.66345 -3.54182 0
M  V30 22167 H 2139.29 3.05705 -2.54224 0
M  V30 22168 N 2140.29 1.34929 0.814366 0
M  V30 22169 C 2141.22 1.29866 1.94055 0
M  V30 22170 C 2142.2 0.174504 1.69203 0
M  V30 22171 O 2143.38 0.368232 1.90677 0
M  V30 22172 C 2140.51 1.06201 3.30664 0
M  V30 22173 C 2139.47 2.15174 3.69978 0
M  V30 22174 C 2138.79 1.76686 5.04664 0
M  V30 22175 C 2140.09 3.57077 3.81174 0
M  V30 22176 H 2141.79 2.24095 1.98549 0
M  V30 22177 H 2139.33 1.07877 0.953865 0
M  V30 22178 H 2141.29 1.01301 4.09043 0
M  V30 22179 H 2140.01 0.0841549 3.26492 0
M  V30 22180 H 2138.67 2.19158 2.9388 0
M  V30 22181 H 2138.32 0.775388 4.96988 0
M  V30 22182 H 2138.02 2.49628 5.3194 0
M  V30 22183 H 2139.54 1.73297 5.85492 0
M  V30 22184 H 2140.96 3.55458 4.49803 0
M  V30 22185 H 2139.35 4.28713 4.19911 0
M  V30 22186 H 2140.42 3.93795 2.82937 0
M  V30 22187 N 2141.77 -1.0356 1.18799 0
M  V30 22188 C 2142.7 -2.13602 0.943213 0
M  V30 22189 C 2143.68 -1.69669 -0.120965 0
M  V30 22190 O 2144.86 -1.94173 0.0326748 0
M  V30 22191 C 2141.99 -3.44054 0.473716 0
M  V30 22192 C 2140.95 -4.01635 1.47896 0
M  V30 22193 C 2140.27 -5.27628 0.866789 0
M  V30 22194 C 2141.57 -4.3722 2.8572 0
M  V30 22195 H 2143.27 -2.34336 1.86351 0
M  V30 22196 H 2140.81 -1.12617 0.897406 0
M  V30 22197 H 2142.77 -4.20402 0.289804 0
M  V30 22198 H 2141.49 -3.23021 -0.482167 0
M  V30 22199 H 2140.15 -3.27374 1.6499 0
M  V30 22200 H 2139.8 -5.02908 -0.0964386 0
M  V30 22201 H 2139.5 -5.67115 1.53799 0
M  V30 22202 H 2141.02 -6.06649 0.693523 0
M  V30 22203 H 2142.43 -5.04533 2.72248 0
M  V30 22204 H 2140.83 -4.87771 3.49571 0
M  V30 22205 H 2141.9 -3.46821 3.38885 0
M  V30 22206 N 2143.25 -0.990834 -1.22557 0
M  V30 22207 C 2144.19 -0.539382 -2.24409 0
M  V30 22208 C 2145.16 0.427199 -1.60512 0
M  V30 22209 O 2146.35 0.332419 -1.87882 0
M  V30 22210 C 2143.49 0.141857 -3.44808 0
M  V30 22211 C 2142.6 -0.86622 -4.23226 0
M  V30 22212 C 2141.74 -0.158712 -5.30963 0
M  V30 22213 C 2140.77 -1.1553 -6.01098 0
M  V30 22214 N 2139.91 -0.476237 -7.00483 0
M  V30 22215 H 2144.75 -1.41266 -2.62389 0
M  V30 22216 H 2142.29 -0.707664 -1.28959 0
M  V30 22217 H 2144.25 0.553728 -4.13509 0
M  V30 22218 H 2142.88 0.978941 -3.07598 0
M  V30 22219 H 2141.93 -1.39642 -3.53842 0
M  V30 22220 H 2143.24 -1.62521 -4.71581 0
M  V30 22221 H 2142.39 0.309995 -6.05908 0
M  V30 22222 H 2141.13 0.632794 -4.83577 0
M  V30 22223 H 2140.14 -1.63465 -5.24937 0
M  V30 22224 H 2141.36 -1.94764 -6.50572 0
M  V30 22225 H 2139.31 0.295871 -6.55332 0
M  V30 22226 H 2139.23 -1.1737 -7.46833 0
M  V30 22227 H 2140.49 -0.0302638 -7.79494 0
M  V30 22228 N 2144.72 1.37856 -0.763775 0
M  V30 22229 C 2145.95 2.04686 -0.334395 0
M  V30 22230 C 2146.37 1.57229 1.0325 0
M  V30 22231 O 2145.73 0.728884 1.66003 0
M  V30 22232 C 2145.78 3.58616 -0.377715 0
M  V30 22233 O 2144.88 4.07641 0.624687 0
M  V30 22234 H 2144.22 0.647714 -0.146161 0
M  V30 22235 H 2146.75 1.76329 -1.03774 0
M  V30 22236 H 2146.76 4.07339 -0.232185 0
M  V30 22237 H 2145.44 3.92514 -1.37496 0
M  V30 22238 H 2144.02 3.7026 0.442931 0
M  V30 22239 N 2146.2 0.513665 1.48994 0
M  V30 22240 C 2147.45 -0.0263732 2.02783 0
M  V30 22241 C 2147.78 -1.35469 1.39147 0
M  V30 22242 O 2147.06 -1.87097 0.531511 0
M  V30 22243 C 2147.34 -0.165605 3.59719 0
M  V30 22244 C 2147.19 1.18673 4.33863 0
M  V30 22245 C 2148.51 -0.900228 4.30794 0
M  V30 22246 H 2145.63 -0.00811043 0.736955 0
M  V30 22247 H 2148.27 0.667534 1.77888 0
M  V30 22248 H 2146.42 -0.756613 3.81061 0
M  V30 22249 H 2148.09 1.81759 4.23983 0
M  V30 22250 H 2146.34 1.77281 3.95922 0
M  V30 22251 H 2147.01 1.04247 5.42067 0
M  V30 22252 H 2149.48 -0.398863 4.14184 0
M  V30 22253 H 2148.36 -0.966514 5.40324 0
M  V30 22254 H 2148.62 -1.94685 3.96926 0
M  V30 22255 N 2147.68 -1.55636 0.248053 0
M  V30 22256 C 2148.96 -1.90888 -0.426759 0
M  V30 22257 C 2149.34 -1.16894 -1.75781 0
M  V30 22258 O 2148.68 -0.286804 -2.26693 0
M  V30 22259 C 2148.89 -3.43913 -0.593709 0
M  V30 22260 C 2150.24 -4.15188 -0.889059 0
M  V30 22261 O 2151.27 -3.49658 -0.67953 0
M  V30 22262 O 2150.13 -5.31102 -1.28815 0
M  V30 22263 H 2147.22 -0.794576 -0.2293 0
M  V30 22264 H 2149.77 -1.67165 0.292205 0
M  V30 22265 H 2148.54 -3.89784 0.3441 0
M  V30 22266 H 2148.16 -3.73502 -1.36317 0
M  V30 22267 N 2149.16 0.0250451 -1.5758 0
M  V30 22268 C 2150.38 0.730408 -1.94113 0
M  V30 22269 C 2150.81 1.67882 -0.848362 0
M  V30 22270 O 2150.17 1.80242 0.195596 0
M  V30 22271 C 2150.21 1.46014 -3.29715 0
M  V30 22272 O 2149.32 2.57351 -3.22249 0
M  V30 22273 H 2148.66 0.196157 -0.634365 0
M  V30 22274 H 2151.19 -0.0206802 -2.0459 0
M  V30 22275 H 2151.2 1.82917 -3.64699 0
M  V30 22276 H 2149.87 0.764593 -4.08811 0
M  V30 22277 H 2148.45 2.22961 -2.98903 0
M  V30 22278 N 2150.64 1.54769 0.297388 0
M  V30 22279 C 2151.55 1.89032 1.38939 0
M  V30 22280 C 2152.56 0.784856 1.55293 0
M  V30 22281 O 2153.74 1.08166 1.69888 0
M  V30 22282 C 2150.8 2.13378 2.7326 0
M  V30 22283 C 2149.86 3.37071 2.6586 0
M  V30 22284 C 2149.1 3.60246 3.93775 0
M  V30 22285 O 2149.32 2.86366 4.93306 0
M  V30 22286 O 2148.25 4.53765 3.9545 0
M  V30 22287 H 2152.08 2.81941 1.12884 0
M  V30 22288 H 2149.66 1.41004 0.493771 0
M  V30 22289 H 2151.55 2.30571 3.52725 0
M  V30 22290 H 2150.22 1.23654 2.99151 0
M  V30 22291 H 2149.13 3.25238 1.84855 0
M  V30 22292 H 2150.46 4.26936 2.44921 0
M  V30 22293 N 2152.11 -0.560755 1.47286 0
M  V30 22294 C 2153.02 -1.69558 1.62133 0
M  V30 22295 C 2154.04 -1.66533 0.50425 0
M  V30 22296 O 2155.22 -1.86045 0.771315 0
M  V30 22297 C 2152.28 -3.06065 1.62865 0
M  V30 22298 C 2151.34 -3.20185 2.85972 0
M  V30 22299 C 2150.57 -4.5018 2.8666 0
M  V30 22300 O 2150.8 -5.35423 1.96669 0
M  V30 22301 O 2149.73 -4.68015 3.78478 0
M  V30 22302 H 2153.56 -1.59976 2.5815 0
M  V30 22303 H 2151.14 -0.730353 1.30331 0
M  V30 22304 H 2153.02 -3.87307 1.66046 0
M  V30 22305 H 2151.7 -3.16037 0.700143 0
M  V30 22306 H 2150.61 -2.38353 2.88337 0
M  V30 22307 H 2151.94 -3.15114 3.78106 0
M  V30 22308 N 2153.59 -1.35359 -0.807199 0
M  V30 22309 C 2154.84 -1.28788 -1.56657 0
M  V30 22310 C 2155.17 0.137625 -1.93712 0
M  V30 22311 O 2154.45 1.08685 -1.61301 0
M  V30 22312 C 2154.73 -2.19379 -2.85561 0
M  V30 22313 C 2154.58 -3.70543 -2.54986 0
M  V30 22314 C 2155.9 -2.0909 -3.87259 0
M  V30 22315 H 2153.02 -0.469169 -0.568374 0
M  V30 22316 H 2155.66 -1.65754 -0.928736 0
M  V30 22317 H 2153.81 -1.87984 -3.39992 0
M  V30 22318 H 2155.48 -4.12377 -2.06743 0
M  V30 22319 H 2153.73 -3.90855 -1.88189 0
M  V30 22320 H 2154.4 -4.29316 -3.46975 0
M  V30 22321 H 2156.87 -2.36687 -3.42226 0
M  V30 22322 H 2155.75 -2.74675 -4.75231 0
M  V30 22323 H 2156.01 -1.07265 -4.2889 0
M  V30 22324 N 2155.07 1.02928 -1.19346 0
M  V30 22325 C 2156.49 1.28572 -0.945592 0
M  V30 22326 C 2156.69 1.97841 0.382273 0
M  V30 22327 O 2155.74 2.26603 1.11388 0
M  V30 22328 C 2157.05 2.13321 -2.11931 0
M  V30 22329 C 2158.6 2.2663 -2.15889 0
M  V30 22330 C 2159.08 3.14751 -3.3271 0
M  V30 22331 N 2160.57 3.22339 -3.32644 0
M  V30 22332 C 2161.3 3.90712 -4.19681 0
M  V30 22333 N 2160.8 4.61319 -5.16872 0
M  V30 22334 N 2162.59 3.87107 -4.07559 0
M  V30 22335 H 2154.74 0.563808 -2.0478 0
M  V30 22336 H 2157.01 0.311375 -0.895405 0
M  V30 22337 H 2156.71 1.69745 -3.08025 0
M  V30 22338 H 2156.59 3.14032 -2.08959 0
M  V30 22339 H 2158.97 2.69437 -1.20365 0
M  V30 22340 H 2159.05 1.25471 -2.22914 0
M  V30 22341 H 2158.7 2.72652 -4.28513 0
M  V30 22342 H 2158.63 4.15968 -3.22921 0
M  V30 22343 H 2161.12 2.72052 -2.6229 0
M  V30 22344 H 2161.43 5.1112 -5.79634 0
M  V30 22345 H 2159.78 4.60185 -5.20821 0
M  V30 22346 H 2162.97 3.31086 -3.30908 0
M  V30 22347 H 2163.14 4.40119 -4.75604 0
M  V30 22348 N 2156.55 0.997319 1.2203 0
M  V30 22349 C 2157.5 0.544275 2.26142 0
M  V30 22350 C 2158.49 -0.407297 1.64431 0
M  V30 22351 O 2159.7 -0.279332 1.77819 0
M  V30 22352 H 2156.07 0.157634 0.735293 0
M  V30 22353 H 2158.04 1.43371 2.61701 0
M  V30 22354 C 2156.79 -0.121025 3.47489 0
M  V30 22355 H 2156.11 0.602141 3.9524 0
M  V30 22356 H 2157.55 -0.40141 4.22096 0
M  V30 22357 C 2156.01 -1.35777 3.08328 0
M  V30 22358 O 2156.54 -2.45277 3.18123 0
M  V30 22359 N 2154.75 -1.23466 2.63067 0
M  V30 22360 H 2154.3 -0.343678 2.55297 0
M  V30 22361 H 2154.25 -2.06319 2.37233 0
M  V30 22362 N 2158.03 -1.37449 0.771075 0
M  V30 22363 C 2159.26 -2.03683 0.345951 0
M  V30 22364 C 2159.66 -1.58284 -1.03648 0
M  V30 22365 O 2159.01 -0.759171 -1.67279 0
M  V30 22366 C 2159.07 -3.58164 0.309656 0
M  V30 22367 C 2158.73 -4.26692 1.63656 0
M  V30 22368 C 2159.73 -4.50858 2.58888 0
M  V30 22369 C 2157.42 -4.64536 1.91081 0
M  V30 22370 C 2159.41 -5.11924 3.79753 0
M  V30 22371 C 2157.1 -5.25323 3.12217 0
M  V30 22372 C 2158.09 -5.48954 4.06372 0
M  V30 22373 O 2157.78 -6.08471 5.25375 0
M  V30 22374 H 2157.51 -0.660689 0.143062 0
M  V30 22375 H 2160.07 -1.76778 1.04587 0
M  V30 22376 H 2158.3 -3.84112 -0.446637 0
M  V30 22377 H 2159.99 -4.05804 -0.0883085 0
M  V30 22378 H 2160.75 -4.22034 2.38982 0
M  V30 22379 H 2156.63 -4.45477 1.18622 0
M  V30 22380 H 2160.18 -5.30285 4.53258 0
M  V30 22381 H 2156.07 -5.53571 3.32009 0
M  V30 22382 H 2156.84 -6.26949 5.26191 0
M  V30 22383 N 2159.5 -0.52156 -1.4872 0
M  V30 22384 C 2160.74 0.013698 -2.04395 0
M  V30 22385 C 2161.11 1.32371 -1.39076 0
M  V30 22386 O 2162.31 1.94448 -1.8559 0
M  V30 22387 C 2160.58 0.141856 -3.57118 0
M  V30 22388 S 2162.14 0.628395 -4.34277 0
M  V30 22389 H 2158.96 -0.00803298 -0.710955 0
M  V30 22390 H 2161.56 -0.700206 -1.8253 0
M  V30 22391 H 2160.26 -0.816539 -4.02195 0
M  V30 22392 H 2159.79 0.880391 -3.83422 0
M  V30 22393 H 2161.81 1.8943 -4.58618 0
M  V30 22394 N 2160.98 1.55502 -0.256304 0
M  V30 22395 C 2161.89 2.25422 0.649785 0
M  V30 22396 C 2162.91 1.27356 1.1856 0
M  V30 22397 O 2164.08 1.60253 1.21988 0
M  V30 22398 C 2161.15 2.94725 1.82587 0
M  V30 22399 C 2160.21 4.08224 1.32859 0
M  V30 22400 C 2159.44 4.74213 2.44862 0
M  V30 22401 O 2159.67 4.39321 3.63804 0
M  V30 22402 O 2158.6 5.6254 2.14086 0
M  V30 22403 H 2162.43 3.03584 0.083948 0
M  V30 22404 H 2160.01 1.4938 -0.0244329 0
M  V30 22405 H 2161.89 3.38344 2.512 0
M  V30 22406 H 2160.57 2.19495 2.37915 0
M  V30 22407 H 2159.48 3.69102 0.609468 0
M  V30 22408 H 2160.81 4.853 0.82129 0
M  V30 22409 N 2162.46 -0.0166879 1.57591 0
M  V30 22410 C 2163.69 -0.720103 1.94497 0
M  V30 22411 C 2164.11 -1.6743 0.857254 0
M  V30 22412 O 2163.47 -1.80343 -0.186035 0
M  V30 22413 C 2163.52 -1.44264 3.30485 0
M  V30 22414 O 2162.62 -2.55638 3.23609 0
M  V30 22415 H 2161.96 -0.19279 0.635396 0
M  V30 22416 H 2164.49 0.0315297 2.04576 0
M  V30 22417 H 2164.5 -1.80981 3.65664 0
M  V30 22418 H 2163.18 -0.742902 4.09211 0
M  V30 22419 H 2161.75 -2.21373 3.00081 0
M  V30 22420 N 2163.94 -1.54924 -0.289176 0
M  V30 22421 C 2164.89 -1.86692 -1.35701 0
M  V30 22422 C 2165.86 -0.716885 -1.49833 0
M  V30 22423 O 2167.04 -0.966637 -1.64502 0
M  V30 22424 C 2164.18 -2.13019 -2.71509 0
M  V30 22425 C 2163.29 -3.40605 -2.6573 0
M  V30 22426 C 2162.43 -3.56714 -3.9361 0
M  V30 22427 C 2161.47 -4.78049 -3.82276 0
M  V30 22428 N 2160.6 -4.90901 -5.01957 0
M  V30 22429 H 2165.44 -2.77776 -1.07909 0
M  V30 22430 H 2162.98 -1.37539 -0.52168 0
M  V30 22431 H 2164.94 -2.2628 -3.50504 0
M  V30 22432 H 2163.57 -1.25188 -2.97536 0
M  V30 22433 H 2162.62 -3.35902 -1.78533 0
M  V30 22434 H 2163.93 -4.29728 -2.53249 0
M  V30 22435 H 2163.09 -3.69704 -4.81045 0
M  V30 22436 H 2161.83 -2.65745 -4.08939 0
M  V30 22437 H 2160.83 -4.6508 -2.93225 0
M  V30 22438 H 2162.06 -5.70437 -3.68482 0
M  V30 22439 H 2160 -4.02859 -5.17726 0
M  V30 22440 H 2159.92 -5.74044 -4.91945 0
M  V30 22441 H 2161.19 -5.0826 -5.91009 0
M  V30 22442 N 2165.42 0.552936 -1.47582 0
M  V30 22443 C 2166.66 1.30733 -1.54121 0
M  V30 22444 C 2166.99 1.93899 -0.206934 0
M  V30 22445 O 2166.26 1.80154 0.769505 0
M  V30 22446 H 2164.84 0.485489 -0.567723 0
M  V30 22447 H 2167.5 0.645327 -1.83906 0
M  V30 22448 H 2166.59 2.09863 -2.31006 0
M  V30 22449 N 2166.89 1.35785 0.800009 0
M  V30 22450 C 2168.14 1.30625 1.55912 0
M  V30 22451 C 2168.5 -0.116568 1.92047 0
M  V30 22452 O 2167.79 -1.06857 1.59035 0
M  V30 22453 C 2167.98 2.15261 2.85302 0
M  V30 22454 C 2167.81 3.6563 2.61811 0
M  V30 22455 C 2166.58 4.34843 2.57371 0
M  V30 22456 C 2168.78 4.59133 2.31736 0
M  V30 22457 N 2166.76 5.70919 2.25666 0
M  V30 22458 C 2168.13 5.83379 2.09927 0
M  V30 22459 C 2170.19 4.47807 2.17654 0
M  V30 22460 C 2168.89 6.97571 1.75461 0
M  V30 22461 C 2170.92 5.61856 1.84586 0
M  V30 22462 C 2170.28 6.85134 1.63617 0
M  V30 22463 H 2166.38 0.533257 0.57198 0
M  V30 22464 H 2168.96 1.70733 0.935867 0
M  V30 22465 H 2167.13 1.77415 3.45512 0
M  V30 22466 H 2168.86 2.01571 3.50929 0
M  V30 22467 H 2165.62 3.87528 2.72249 0
M  V30 22468 H 2166.04 6.42756 2.12589 0
M  V30 22469 H 2170.69 3.53095 2.3256 0
M  V30 22470 H 2168.4 7.92244 1.59293 0
M  V30 22471 H 2171.99 5.55049 1.74389 0
M  V30 22472 H 2170.87 7.7189 1.38404 0
M  V30 22473 N 2168.37 -1.02294 1.19891 0
M  V30 22474 C 2169.62 -1.75196 0.999463 0
M  V30 22475 C 2169.93 -1.89874 -0.469823 0
M  V30 22476 O 2171.14 -2.59806 -0.788235 0
M  V30 22477 C 2169.6 -3.15074 1.73944 0
M  V30 22478 C 2169.2 -3.0843 3.24923 0
M  V30 22479 C 2170.95 -3.9223 1.62345 0
M  V30 22480 C 2168.86 -4.43277 3.91484 0
M  V30 22481 H 2167.79 -0.656782 0.370342 0
M  V30 22482 H 2170.44 -1.14434 1.43447 0
M  V30 22483 H 2168.82 -3.76339 1.23227 0
M  V30 22484 H 2169.99 -2.5651 3.82804 0
M  V30 22485 H 2168.31 -2.44769 3.36864 0
M  V30 22486 H 2170.9 -4.91983 2.09419 0
M  V30 22487 H 2171.25 -4.1226 0.578579 0
M  V30 22488 H 2171.78 -3.37579 2.1044 0
M  V30 22489 H 2168.52 -4.28451 4.96095 0
M  V30 22490 H 2168.04 -4.95228 3.38392 0
M  V30 22491 H 2169.72 -5.12142 3.95373 0
M  V30 22492 N 2169.85 -1.00378 -1.21499 0
M  V30 22493 C 2171.1 -0.686796 -1.90817 0
M  V30 22494 C 2171.43 0.780348 -1.77832 0
M  V30 22495 O 2170.7 1.56554 -1.15418 0
M  V30 22496 C 2170.99 -1.10705 -3.42661 0
M  V30 22497 C 2170.84 -2.63355 -3.64642 0
M  V30 22498 C 2172.16 -0.668506 -4.34993 0
M  V30 22499 H 2169.28 -0.250976 -0.69295 0
M  V30 22500 H 2171.92 -1.24924 -1.43157 0
M  V30 22501 H 2170.07 -0.628496 -3.83383 0
M  V30 22502 H 2171.74 -3.18964 -3.33256 0
M  V30 22503 H 2169.99 -3.04925 -3.0855 0
M  V30 22504 H 2170.66 -2.87812 -4.71029 0
M  V30 22505 H 2173.13 -1.07972 -4.01847 0
M  V30 22506 H 2172.01 -0.990733 -5.39885 0
M  V30 22507 H 2172.27 0.430413 -4.4 0
M  V30 22508 N 2171.33 1.37038 -0.778354 0
M  V30 22509 C 2172.74 1.82137 -0.41025 0
M  V30 22510 C 2173.09 1.64814 1.06446 0
M  V30 22511 O 2172.22 1.16292 1.82497 0
M  V30 22512 C 2172.81 3.30668 -0.737859 0
M  V30 22513 C 2171.37 3.74019 -0.422727 0
M  V30 22514 C 2170.52 2.59471 -0.978272 0
M  V30 22515 H 2173.47 1.25416 -0.972446 0
M  V30 22516 H 2173.49 3.80492 -0.0249048 0
M  V30 22517 H 2173 3.43244 -1.81123 0
M  V30 22518 H 2171.1 3.67009 0.643056 0
M  V30 22519 H 2171.21 4.69876 -0.935598 0
M  V30 22520 H 2169.58 2.51506 -0.402125 0
M  V30 22521 H 2170.36 2.74837 -2.05717 0
M  V30 22522 N 2172.81 0.529439 1.48441 0
M  V30 22523 C 2173.77 -0.222884 2.28114 0
M  V30 22524 C 2174.77 -0.868268 1.35343 0
M  V30 22525 O 2175.96 -0.728402 1.5824 0
M  V30 22526 C 2173.09 -1.3225 3.14202 0
M  V30 22527 H 2174.29 0.476616 2.96088 0
M  V30 22528 H 2171.84 0.28536 1.53673 0
M  V30 22529 H 2172.57 -2.05527 2.50857 0
M  V30 22530 H 2172.36 -0.864853 3.82443 0
M  V30 22531 H 2173.85 -1.85168 3.74303 0
M  V30 22532 N 2174.29 -1.55364 0.264547 0
M  V30 22533 C 2175.22 -2.18186 -0.66858 0
M  V30 22534 C 2176.2 -1.13943 -1.15999 0
M  V30 22535 O 2177.38 -1.42416 -1.2349 0
M  V30 22536 C 2174.51 -2.79667 -1.9106 0
M  V30 22537 C 2173.55 -3.9712 -1.55557 0
M  V30 22538 S 2174.39 -5.31627 -0.642877 0
M  V30 22539 C 2175.54 -5.96571 -1.89351 0
M  V30 22540 H 2175.78 -2.96994 -0.134756 0
M  V30 22541 H 2173.31 -1.54323 0.0488718 0
M  V30 22542 H 2175.27 -3.15721 -2.62355 0
M  V30 22543 H 2173.93 -2.00772 -2.41556 0
M  V30 22544 H 2173.12 -4.38791 -2.47949 0
M  V30 22545 H 2172.72 -3.62434 -0.922906 0
M  V30 22546 H 2175.01 -6.15161 -2.83871 0
M  V30 22547 H 2175.96 -6.91594 -1.52 0
M  V30 22548 H 2176.37 -5.25819 -2.05364 0
M  V30 22549 N 2175.76 0.00833021 -1.57598 0
M  V30 22550 C 2176.67 1.01892 -2.11318 0
M  V30 22551 C 2177.69 1.38254 -1.0565 0
M  V30 22552 O 2178.87 1.47155 -1.37505 0
M  V30 22553 C 2175.93 2.29464 -2.59899 0
M  V30 22554 C 2174.99 1.99492 -3.80134 0
M  V30 22555 C 2174.22 3.20981 -4.26388 0
M  V30 22556 O 2174.45 4.3238 -3.72027 0
M  V30 22557 O 2173.38 3.05467 -5.18627 0
M  V30 22558 H 2177.21 0.592299 -2.97868 0
M  V30 22559 H 2174.79 0.226636 -1.47671 0
M  V30 22560 H 2176.67 3.04425 -2.91382 0
M  V30 22561 H 2175.35 2.7138 -1.76449 0
M  V30 22562 H 2174.26 1.22033 -3.53636 0
M  V30 22563 H 2175.59 1.62418 -4.6463 0
M  V30 22564 N 2177.24 1.55075 0.280956 0
M  V30 22565 C 2178.49 1.74513 1.01135 0
M  V30 22566 C 2178.8 0.549131 1.87734 0
M  V30 22567 O 2180.01 0.625743 2.64191 0
M  V30 22568 C 2178.47 3.08832 1.848 0
M  V30 22569 C 2178.07 4.35974 1.03106 0
M  V30 22570 C 2179.82 3.37621 2.57317 0
M  V30 22571 C 2177.72 5.61335 1.86163 0
M  V30 22572 H 2176.65 0.650469 0.381321 0
M  V30 22573 H 2179.31 1.81542 0.267376 0
M  V30 22574 H 2177.69 2.9582 2.63262 0
M  V30 22575 H 2178.86 4.59879 0.291167 0
M  V30 22576 H 2177.18 4.14268 0.4208 0
M  V30 22577 H 2179.77 4.28488 3.19847 0
M  V30 22578 H 2180.12 2.57395 3.27191 0
M  V30 22579 H 2180.65 3.51695 1.8589 0
M  V30 22580 H 2177.39 6.44287 1.20725 0
M  V30 22581 H 2176.91 5.41585 2.57771 0
M  V30 22582 H 2178.59 5.99339 2.43724 0
M  V30 22583 N 2178.72 -0.545102 1.47873 0
M  V30 22584 C 2179.67 -1.67209 1.61691 0
M  V30 22585 C 2180.66 -1.62345 0.483792 0
M  V30 22586 O 2181.87 -1.67384 0.662009 0
M  V30 22587 H 2178.24 -0.553487 0.509073 0
M  V30 22588 H 2180.21 -1.52694 2.56373 0
M  V30 22589 C 2178.96 -3.05531 1.65971 0
M  V30 22590 H 2178.29 -3.09961 2.52516 0
M  V30 22591 H 2179.73 -3.84043 1.79686 0
M  V30 22592 C 2178.18 -3.34572 0.39536 0
M  V30 22593 O 2178.71 -3.98597 -0.498334 0
M  V30 22594 N 2176.92 -2.89327 0.271672 0
M  V30 22595 H 2176.47 -2.37403 0.999874 0
M  V30 22596 H 2176.43 -3.09129 -0.573311 0
M  V30 22597 N 2180.2 -1.36208 -0.792797 0
M  V30 22598 C 2181.44 -1.30442 -1.55282 0
M  V30 22599 C 2181.78 0.117071 -1.93847 0
M  V30 22600 O 2181.05 1.06968 -1.62444 0
M  V30 22601 C 2181.33 -2.22396 -2.83218 0
M  V30 22602 C 2181.19 -3.73227 -2.51042 0
M  V30 22603 C 2182.51 -2.13185 -3.85019 0
M  V30 22604 H 2179.63 -0.475171 -0.563366 0
M  V30 22605 H 2182.27 -1.6673 -0.911103 0
M  V30 22606 H 2180.42 -1.9158 -3.37979 0
M  V30 22607 H 2182.09 -4.14547 -2.02358 0
M  V30 22608 H 2180.33 -3.92829 -1.84033 0
M  V30 22609 H 2181 -4.32972 -3.42402 0
M  V30 22610 H 2183.48 -2.40303 -3.39696 0
M  V30 22611 H 2182.36 -2.797 -4.72291 0
M  V30 22612 H 2182.62 -1.11808 -4.27728 0
M  V30 22613 N 2181.68 1.01656 -1.20431 0
M  V30 22614 C 2182.59 2.13658 -0.968877 0
M  V30 22615 C 2183.6 1.73837 0.075256 0
M  V30 22616 O 2184.78 2.01087 -0.112194 0
M  V30 22617 C 2181.84 3.42716 -0.524052 0
M  V30 22618 C 2180.9 3.9678 -1.63904 0
M  V30 22619 C 2180.14 5.19678 -1.21534 0
M  V30 22620 O 2180.36 5.70338 -0.0840508 0
M  V30 22621 O 2179.29 5.66893 -2.02278 0
M  V30 22622 H 2183.12 2.3639 -1.90666 0
M  V30 22623 H 2180.7 1.1205 -0.98819 0
M  V30 22624 H 2182.59 4.20434 -0.285221 0
M  V30 22625 H 2181.26 3.21401 0.385143 0
M  V30 22626 H 2180.17 3.20341 -1.93215 0
M  V30 22627 H 2181.5 4.22484 -2.52524 0
M  V30 22628 N 2183.15 1.01021 1.20965 0
M  V30 22629 C 2184.57 0.723934 1.42237 0
M  V30 22630 C 2184.77 -0.698897 1.88991 0
M  V30 22631 O 2183.83 -1.46754 2.05474 0
M  V30 22632 C 2185.14 1.74422 2.44944 0
M  V30 22633 C 2186.69 1.76162 2.5872 0
M  V30 22634 C 2187.16 2.771 3.64664 0
M  V30 22635 N 2188.65 2.758 3.72141 0
M  V30 22636 C 2189.39 3.5056 4.53757 0
M  V30 22637 N 2188.88 4.34977 5.39228 0
M  V30 22638 N 2190.68 3.39187 4.48229 0
M  V30 22639 H 2182.83 1.92886 0.889301 0
M  V30 22640 H 2185.09 0.832854 0.452834 0
M  V30 22641 H 2184.8 2.76323 2.17574 0
M  V30 22642 H 2184.67 1.55112 3.43831 0
M  V30 22643 H 2187.06 0.749493 2.85424 0
M  V30 22644 H 2187.14 1.99544 1.60049 0
M  V30 22645 H 2186.78 3.78473 3.38705 0
M  V30 22646 H 2186.71 2.50982 4.62942 0
M  V30 22647 H 2189.2 2.1456 3.11083 0
M  V30 22648 H 2189.52 4.88805 5.98573 0
M  V30 22649 H 2187.86 4.39057 5.38752 0
M  V30 22650 H 2191.05 2.72665 3.80488 0
M  V30 22651 H 2191.23 3.97705 5.116 0
M  V30 22652 N 2184.63 -1.36623 0.78561 0
M  V30 22653 C 2185.58 -2.27475 0.154576 0
M  V30 22654 C 2186.57 -1.46775 -0.659246 0
M  V30 22655 O 2187.76 -1.69191 -0.519944 0
M  V30 22656 C 2184.89 -3.35819 -0.712793 0
M  V30 22657 C 2183.97 -4.23958 0.109612 0
M  V30 22658 N 2184.36 -4.92266 1.16221 0
M  V30 22659 C 2182.66 -4.45859 -0.112163 0
M  V30 22660 C 2183.36 -5.57436 1.66254 0
M  V30 22661 N 2182.34 -5.34832 0.972395 0
M  V30 22662 H 2186.14 -2.77769 0.960279 0
M  V30 22663 H 2183.65 -1.49904 0.624702 0
M  V30 22664 H 2185.65 -3.9983 -1.18075 0
M  V30 22665 H 2184.31 -2.87079 -1.51708 0
M  V30 22666 H 2185.32 -4.94331 1.54459 0
M  V30 22667 H 2182 -4.07963 -0.887264 0
M  V30 22668 H 2183.39 -6.21995 2.54111 0
M  V30 22669 N 2186.11 -0.537304 -1.48158 0
M  V30 22670 C 2187.36 -0.00384223 -2.017 0
M  V30 22671 C 2187.67 1.34625 -1.419 0
M  V30 22672 O 2188.88 1.96849 -1.86983 0
M  V30 22673 C 2187.33 0.0435291 -3.59874 0
M  V30 22674 C 2186.94 -1.30211 -4.2866 0
M  V30 22675 C 2188.69 0.525433 -4.21236 0
M  V30 22676 C 2186.59 -1.21492 -5.78786 0
M  V30 22677 H 2185.52 0.00233368 -0.753996 0
M  V30 22678 H 2188.17 -0.682181 -1.70348 0
M  V30 22679 H 2186.56 0.7871 -3.88099 0
M  V30 22680 H 2187.73 -2.06182 -4.12099 0
M  V30 22681 H 2186.04 -1.72034 -3.79201 0
M  V30 22682 H 2188.64 0.608744 -5.31223 0
M  V30 22683 H 2188.98 1.5329 -3.8705 0
M  V30 22684 H 2189.52 -0.162674 -3.97467 0
M  V30 22685 H 2186.26 -2.19778 -6.17558 0
M  V30 22686 H 2185.78 -0.496694 -5.9774 0
M  V30 22687 H 2187.46 -0.908641 -6.40588 0
M  V30 22688 N 2187.59 1.55221 -0.272782 0
M  V30 22689 C 2188.54 2.23858 0.631705 0
M  V30 22690 C 2189.53 1.23481 1.15969 0
M  V30 22691 O 2190.74 1.41418 1.11359 0
M  V30 22692 H 2187.11 0.718404 0.222259 0
M  V30 22693 H 2189.08 2.98385 0.0299551 0
M  V30 22694 C 2187.83 2.9714 1.80563 0
M  V30 22695 H 2187.15 3.74166 1.40854 0
M  V30 22696 H 2188.59 3.4849 2.41517 0
M  V30 22697 C 2187.05 2.02478 2.69266 0
M  V30 22698 O 2187.58 1.57449 3.69557 0
M  V30 22699 N 2185.79 1.69028 2.36385 0
M  V30 22700 H 2185.34 2.05842 1.54877 0
M  V30 22701 H 2185.29 1.05961 2.96006 0
M  V30 22702 N 2189.07 2.77022e-05 1.576 0
M  V30 22703 C 2190.48 -0.35605 1.55578 0
M  V30 22704 C 2190.68 -1.74784 1.00264 0
M  V30 22705 O 2189.74 -2.44347 0.636465 0
M  V30 22706 C 2191.05 -0.231258 2.99809 0
M  V30 22707 C 2192.6 -0.306194 3.11499 0
M  V30 22708 C 2193.07 -0.210525 4.57516 0
M  V30 22709 N 2194.57 -0.268424 4.62422 0
M  V30 22710 C 2195.3 -0.217739 5.72986 0
M  V30 22711 N 2194.8 -0.117649 6.927 0
M  V30 22712 N 2196.59 -0.269606 5.61453 0
M  V30 22713 H 2188.74 0.91049 1.91895 0
M  V30 22714 H 2191 0.349005 0.881419 0
M  V30 22715 H 2190.71 0.726333 3.44118 0
M  V30 22716 H 2190.58 -1.01332 3.63334 0
M  V30 22717 H 2192.97 -1.25423 2.6712 0
M  V30 22718 H 2193.05 0.505733 2.50751 0
M  V30 22719 H 2192.7 0.733965 5.02569 0
M  V30 22720 H 2192.63 -1.04094 5.16209 0
M  V30 22721 H 2195.12 -0.347112 3.76302 0
M  V30 22722 H 2195.43 -0.0848705 7.72753 0
M  V30 22723 H 2193.77 -0.0832758 6.9495 0
M  V30 22724 H 2196.97 -0.345996 4.6682 0
M  V30 22725 H 2197.14 -0.22664 6.47604 0
M  V30 22726 N 2190.54 -1.55222 -0.272728 0
M  V30 22727 C 2191.51 -1.87346 -1.32038 0
M  V30 22728 C 2192.51 -0.748055 -1.4234 0
M  V30 22729 O 2193.7 -1.01623 -1.41487 0
M  V30 22730 C 2190.83 -2.07898 -2.70169 0
M  V30 22731 H 2192.02 -2.80999 -1.04784 0
M  V30 22732 H 2189.58 -1.47718 -0.510804 0
M  V30 22733 H 2190.31 -1.16628 -3.02603 0
M  V30 22734 H 2190.1 -2.89837 -2.64077 0
M  V30 22735 H 2191.59 -2.34024 -3.45865 0
M  V30 22736 N 2192.02 0.537252 -1.4816 0
M  V30 22737 C 2192.96 1.6589 -1.56703 0
M  V30 22738 C 2193.93 1.57138 -0.417898 0
M  V30 22739 O 2195.12 1.77714 -0.628493 0
M  V30 22740 C 2192.24 3.04252 -1.48824 0
M  V30 22741 C 2191.29 3.31386 -2.68487 0
M  V30 22742 S 2192.12 3.18452 -4.30521 0
M  V30 22743 C 2193.28 4.59273 -4.25228 0
M  V30 22744 H 2193.51 1.58392 -2.51593 0
M  V30 22745 H 2191.05 0.719648 -1.36603 0
M  V30 22746 H 2193 3.84051 -1.44964 0
M  V30 22747 H 2191.66 3.09197 -0.552832 0
M  V30 22748 H 2190.86 4.32304 -2.59093 0
M  V30 22749 H 2190.46 2.59243 -2.69572 0
M  V30 22750 H 2192.75 5.50643 -3.94713 0
M  V30 22751 H 2193.69 4.73723 -5.26301 0
M  V30 22752 H 2194.1 4.38255 -3.55799 0
M  V30 22753 N 2193.5 1.36626 0.785562 0
M  V30 22754 C 2194.73 1.34233 1.57446 0
M  V30 22755 C 2195.14 -0.0755322 1.88649 0
M  V30 22756 O 2194.5 -1.03351 1.50416 0
M  V30 22757 C 2194.55 2.1675 2.89312 0
M  V30 22758 O 2194.27 3.5301 2.59452 0
M  V30 22759 C 2195.77 2.22181 3.83602 0
M  V30 22760 H 2192.99 0.460309 0.488218 0
M  V30 22761 H 2195.54 1.79777 0.974701 0
M  V30 22762 H 2193.69 1.74751 3.45747 0
M  V30 22763 H 2194.11 3.96111 3.43797 0
M  V30 22764 H 2195.58 2.84268 4.73176 0
M  V30 22765 H 2196.06 1.22634 4.21732 0
M  V30 22766 H 2196.66 2.64433 3.331 0
M  V30 22767 N 2194.98 -1.01016 1.20969 0
M  V30 22768 C 2196.23 -1.74126 1.01799 0
M  V30 22769 C 2196.54 -1.90361 -0.449657 0
M  V30 22770 O 2197.75 -2.60627 -0.760634 0
M  V30 22771 C 2196.2 -3.13211 1.77276 0
M  V30 22772 C 2195.81 -3.04967 3.28176 0
M  V30 22773 C 2197.55 -3.90486 1.66496 0
M  V30 22774 C 2195.46 -4.391 3.96164 0
M  V30 22775 H 2194.39 -0.652817 0.377288 0
M  V30 22776 H 2197.04 -1.12906 1.44653 0
M  V30 22777 H 2195.42 -3.75011 1.27211 0
M  V30 22778 H 2196.6 -2.52436 3.85503 0
M  V30 22779 H 2194.91 -2.41182 3.39441 0
M  V30 22780 H 2197.51 -4.89734 2.14626 0
M  V30 22781 H 2197.85 -4.11623 0.622272 0
M  V30 22782 H 2198.39 -3.35328 2.14009 0
M  V30 22783 H 2195.13 -4.23165 5.00611 0
M  V30 22784 H 2194.65 -4.91611 3.43625 0
M  V30 22785 H 2196.32 -5.07919 4.00783 0
M  V30 22786 N 2196.46 -1.01661 -1.20428 0
M  V30 22787 C 2197.39 -0.607265 -2.25465 0
M  V30 22788 C 2198.37 0.377687 -1.65854 0
M  V30 22789 O 2199.55 0.263115 -1.92409 0
M  V30 22790 C 2196.68 0.0552339 -3.47256 0
M  V30 22791 C 2195.64 -0.850705 -4.1946 0
M  V30 22792 C 2194.96 -0.0539799 -5.34673 0
M  V30 22793 C 2196.26 -2.15876 -4.75599 0
M  V30 22794 H 2197.96 -1.48531 -2.5996 0
M  V30 22795 H 2195.5 -0.715627 -1.24959 0
M  V30 22796 H 2197.46 0.353159 -4.19918 0
M  V30 22797 H 2196.18 0.967991 -3.11925 0
M  V30 22798 H 2194.84 -1.13263 -3.48665 0
M  V30 22799 H 2194.49 0.860427 -4.95586 0
M  V30 22800 H 2194.19 -0.657295 -5.83912 0
M  V30 22801 H 2195.71 0.237491 -6.10138 0
M  V30 22802 H 2197.12 -1.9232 -5.40079 0
M  V30 22803 H 2195.52 -2.71293 -5.35276 0
M  V30 22804 H 2196.59 -2.82176 -3.94341 0
M  V30 22805 N 2197.93 1.36205 -0.792844 0
M  V30 22806 C 2198.87 2.28699 -0.15151 0
M  V30 22807 C 2199.88 1.4964 0.641235 0
M  V30 22808 O 2201.07 1.7204 0.475854 0
M  V30 22809 C 2198.17 3.29118 0.808366 0
M  V30 22810 C 2197.34 4.37352 0.0649434 0
M  V30 22811 C 2196.4 5.17713 0.941267 0
M  V30 22812 O 2195.43 5.67812 0.397252 0
M  V30 22813 N 2196.63 5.34484 2.26511 0
M  V30 22814 H 2199.39 2.84377 -0.946032 0
M  V30 22815 H 2196.95 1.48407 -0.647058 0
M  V30 22816 H 2198.95 3.79767 1.39853 0
M  V30 22817 H 2197.52 2.74055 1.50375 0
M  V30 22818 H 2196.74 3.8782 -0.706324 0
M  V30 22819 H 2198.02 5.06824 -0.447936 0
M  V30 22820 H 2197.42 4.95401 2.73119 0
M  V30 22821 H 2195.98 5.88364 2.80483 0
M  V30 22822 N 2199.41 0.545154 1.47871 0
M  V30 22823 C 2200.38 -0.198677 2.28337 0
M  V30 22824 C 2201.38 -0.853864 1.36256 0
M  V30 22825 O 2202.57 -0.711578 1.59004 0
M  V30 22826 C 2199.7 -1.2891 3.15587 0
M  V30 22827 H 2200.89 0.507993 2.95566 0
M  V30 22828 H 2198.44 0.301643 1.53362 0
M  V30 22829 H 2199.18 -2.02855 2.53023 0
M  V30 22830 H 2198.96 -0.824241 3.83339 0
M  V30 22831 H 2200.45 -1.81187 3.76246 0
M  V30 22832 N 2200.89 -1.55074 0.28101 0
M  V30 22833 C 2202.14 -2.00021 -0.334575 0
M  V30 22834 C 2202.47 -1.16917 -1.55061 0
M  V30 22835 O 2201.74 -0.24068 -1.93005 0
M  V30 22836 C 2202.03 -3.53012 -0.710945 0
M  V30 22837 C 2201.88 -4.46867 0.512844 0
M  V30 22838 C 2203.2 -4.12084 -1.54515 0
M  V30 22839 H 2200.32 -0.727143 -0.120135 0
M  V30 22840 H 2202.96 -1.85973 0.38913 0
M  V30 22841 H 2201.11 -3.65114 -1.32754 0
M  V30 22842 H 2202.78 -4.467 1.15139 0
M  V30 22843 H 2201.03 -4.18284 1.14982 0
M  V30 22844 H 2201.7 -5.51617 0.205653 0
M  V30 22845 H 2204.17 -4.03294 -1.02435 0
M  V30 22846 H 2203.05 -5.1933 -1.7773 0
M  V30 22847 H 2203.31 -3.62686 -2.52806 0
M  V30 22848 N 2202.37 -0.00838561 -1.57598 0
M  V30 22849 C 2203.59 0.689069 -1.95619 0
M  V30 22850 C 2204.02 1.66045 -0.883782 0
M  V30 22851 O 2203.38 1.80616 0.15732 0
M  V30 22852 C 2203.43 1.38988 -3.32738 0
M  V30 22853 O 2202.53 2.50458 -3.27635 0
M  V30 22854 H 2201.87 0.182657 -0.638383 0
M  V30 22855 H 2204.4 -0.064072 -2.045 0
M  V30 22856 H 2204.41 1.7514 -3.68497 0
M  V30 22857 H 2203.09 0.677706 -4.10341 0
M  V30 22858 H 2201.66 2.16571 -3.03565 0
M  V30 22859 N 2203.85 1.55365 0.264492 0
M  V30 22860 C 2205.08 1.80407 1.01297 0
M  V30 22861 C 2205.49 0.581654 1.79617 0
M  V30 22862 O 2204.85 -0.449437 1.76879 0
M  V30 22863 C 2204.9 3.03442 1.96482 0
M  V30 22864 O 2204.62 4.20963 1.21334 0
M  V30 22865 C 2206.12 3.41152 2.83073 0
M  V30 22866 H 2203.34 0.600767 0.298865 0
M  V30 22867 H 2205.88 2.02394 0.2927 0
M  V30 22868 H 2204.04 2.83556 2.6396 0
M  V30 22869 H 2204.45 4.90577 1.85564 0
M  V30 22870 H 2205.93 4.3039 3.45642 0
M  V30 22871 H 2206.4 2.60938 3.53282 0
M  V30 22872 H 2207.01 3.63327 2.21073 0
M  V30 22873 N 2205.33 -0.529387 1.48443 0
M  V30 22874 C 2206.57 -1.28518 1.56491 0
M  V30 22875 C 2206.9 -1.93025 0.239076 0
M  V30 22876 O 2206.16 -1.79886 -0.770681 0
M  V30 22877 C 2206.45 -2.39553 2.65234 0
M  V30 22878 C 2206.12 -1.92695 4.07651 0
M  V30 22879 C 2204.78 -1.79633 4.46414 0
M  V30 22880 C 2207.13 -1.57291 4.96899 0
M  V30 22881 C 2204.46 -1.29504 5.72229 0
M  V30 22882 C 2206.81 -1.08625 6.23204 0
M  V30 22883 C 2205.48 -0.941803 6.60822 0
M  V30 22884 H 2204.75 -0.470282 0.572639 0
M  V30 22885 H 2207.4 -0.590688 1.82162 0
M  V30 22886 H 2205.7 -3.14675 2.33425 0
M  V30 22887 H 2207.4 -2.97681 2.68676 0
M  V30 22888 H 2203.99 -2.03812 3.77039 0
M  V30 22889 H 2208.17 -1.66242 4.67629 0
M  V30 22890 H 2203.43 -1.17009 6.00099 0
M  V30 22891 H 2207.6 -0.803015 6.91755 0
M  V30 22892 H 2205.23 -0.551167 7.58199 0
M  V30 22893 N 2206.8 -1.37041 -0.778305 0
M  V30 22894 C 2208.05 -1.32082 -1.5389 0
M  V30 22895 C 2208.38 0.0965045 -1.9396 0
M  V30 22896 O 2207.66 1.05239 -1.6357 0
M  V30 22897 C 2207.94 -2.25387 -2.80843 0
M  V30 22898 C 2207.79 -3.75868 -2.47069 0
M  V30 22899 C 2209.11 -2.17257 -3.82737 0
M  V30 22900 H 2206.23 -0.48112 -0.558294 0
M  V30 22901 H 2208.87 -1.67687 -0.893368 0
M  V30 22902 H 2207.02 -1.95153 -3.35928 0
M  V30 22903 H 2208.7 -4.1667 -1.9795 0
M  V30 22904 H 2206.94 -3.94758 -1.79856 0
M  V30 22905 H 2207.61 -4.36579 -3.3779 0
M  V30 22906 H 2210.09 -2.43893 -3.37128 0
M  V30 22907 H 2208.96 -2.84694 -4.69298 0
M  V30 22908 H 2209.22 -1.16339 -4.26518 0
M  V30 22909 N 2208.28 1.00373 -1.21503 0
M  V30 22910 C 2209.24 2.07336 -0.976963 0
M  V30 22911 C 2210.24 1.60714 0.052504 0
M  V30 22912 O 2211.43 1.73216 -0.1849 0
M  V30 22913 C 2208.57 3.37596 -0.473483 0
M  V30 22914 H 2209.76 2.29889 -1.92591 0
M  V30 22915 H 2207.31 1.17369 -1.03219 0
M  V30 22916 H 2208.05 3.20723 0.480323 0
M  V30 22917 H 2207.83 3.72766 -1.21607 0
M  V30 22918 H 2209.32 4.16319 -0.326824 0
M  V30 22919 N 2209.76 1.02298 1.19887 0
M  V30 22920 C 2211.01 0.717066 1.897 0
M  V30 22921 C 2211.34 -0.751958 1.79051 0
M  V30 22922 O 2210.61 -1.54698 1.17894 0
M  V30 22923 C 2210.9 1.16142 3.40856 0
M  V30 22924 C 2210.75 2.69123 3.60407 0
M  V30 22925 C 2212.07 0.737625 4.33875 0
M  V30 22926 H 2209.19 0.261969 0.68887 0
M  V30 22927 H 2211.83 1.27186 1.41152 0
M  V30 22928 H 2209.98 0.689409 3.82334 0
M  V30 22929 H 2211.65 3.24226 3.28139 0
M  V30 22930 H 2209.89 3.09795 3.0366 0
M  V30 22931 H 2210.57 2.95269 4.66391 0
M  V30 22932 H 2213.04 1.14351 4.00079 0
M  V30 22933 H 2211.92 1.0765 5.3824 0
M  V30 22934 H 2212.18 -0.360359 4.40629 0
M  V30 22935 N 2211.24 -1.35782 0.800057 0
M  V30 22936 C 2212.2 -2.28221 0.211605 0
M  V30 22937 C 2213.2 -1.49297 -0.597254 0
M  V30 22938 O 2214.39 -1.69143 -0.416692 0
M  V30 22939 C 2211.52 -3.33514 -0.705787 0
M  V30 22940 H 2212.72 -2.81774 1.02682 0
M  V30 22941 H 2210.27 -1.45527 0.570236 0
M  V30 22942 H 2211 -2.85136 -1.54493 0
M  V30 22943 H 2210.79 -3.91892 -0.127586 0
M  V30 22944 H 2212.28 -4.02521 -1.11204 0
M  V30 22945 N 2212.72 -0.552988 -1.4758 0
M  V30 22946 C 2213.96 -0.0273058 -2.02082 0
M  V30 22947 C 2214.28 1.32561 -1.43013 0
M  V30 22948 O 2213.55 1.86363 -0.603778 0
M  V30 22949 H 2212.13 -0.00710495 -0.746966 0
M  V30 22950 H 2214.8 -0.72204 -1.81032 0
M  V30 22951 H 2213.89 0.0639403 -3.12034 0
M  V30 22952 N 2214.19 1.54923 -0.28923 0
M  V30 22953 C 2215.43 2.01808 0.324501 0
M  V30 22954 C 2215.8 1.17318 1.51988 0
M  V30 22955 O 2217 1.53847 2.20419 0
M  V30 22956 C 2215.27 3.50803 0.683516 0
M  V30 22957 S 2216.83 4.19662 1.28178 0
M  V30 22958 H 2213.65 0.703901 0.100223 0
M  V30 22959 H 2216.25 1.91058 -0.414358 0
M  V30 22960 H 2214.95 4.09936 -0.195145 0
M  V30 22961 H 2214.48 3.65565 1.45347 0
M  V30 22962 H 2216.5 4.2446 2.56998 0
M  V30 22963 N 2215.67 0.0167433 1.57591 0
M  V30 22964 C 2216.92 -0.665548 1.91568 0
M  V30 22965 C 2217.25 -1.72485 0.892329 0
M  V30 22966 O 2216.53 -1.94307 -0.0866785 0
M  V30 22967 C 2216.81 -1.29336 3.36072 0
M  V30 22968 C 2216.66 -0.244462 4.49135 0
M  V30 22969 C 2217.98 -2.21488 3.80304 0
M  V30 22970 H 2215.1 -0.240476 0.696664 0
M  V30 22971 H 2217.74 0.071469 1.89866 0
M  V30 22972 H 2215.89 -1.92153 3.37653 0
M  V30 22973 H 2217.56 0.385309 4.59688 0
M  V30 22974 H 2215.81 0.431455 4.31649 0
M  V30 22975 H 2216.48 -0.723111 5.47243 0
M  V30 22976 H 2218.95 -1.68672 3.8038 0
M  V30 22977 H 2217.83 -2.62374 4.82132 0
M  V30 22978 H 2218.09 -3.10094 3.1511 0
M  V30 22979 N 2217.15 -1.55503 -0.256249 0
M  V30 22980 C 2218.4 -1.76897 -0.985588 0
M  V30 22981 C 2218.73 -0.579387 -1.8567 0
M  V30 22982 O 2217.98 0.437617 -1.90744 0
M  V30 22983 C 2218.28 -3.03694 -1.88427 0
M  V30 22984 C 2217.95 -4.35475 -1.16928 0
M  V30 22985 C 2216.61 -4.71288 -0.971647 0
M  V30 22986 C 2218.96 -5.16981 -0.661798 0
M  V30 22987 C 2216.29 -5.8615 -0.254076 0
M  V30 22988 C 2218.64 -6.32586 0.0422602 0
M  V30 22989 C 2217.3 -6.67026 0.251457 0
M  V30 22990 H 2216.57 -0.647311 -0.360652 0
M  V30 22991 H 2219.22 -1.89775 -0.256449 0
M  V30 22992 H 2217.53 -2.85788 -2.68016 0
M  V30 22993 H 2219.22 -3.17445 -2.4501 0
M  V30 22994 H 2215.81 -4.07336 -1.33325 0
M  V30 22995 H 2220 -4.89776 -0.802059 0
M  V30 22996 H 2215.25 -6.11346 -0.0814334 0
M  V30 22997 H 2219.43 -6.94988 0.443171 0
M  V30 22998 H 2217.05 -7.55878 0.809447 0
M  V30 22999 N 2218.63 0.521507 -1.48721 0
M  V30 23000 C 2219.87 1.27876 -1.57403 0
M  V30 23001 C 2220.21 1.92573 -0.25085 0
M  V30 23002 O 2219.48 1.79712 0.743902 0
M  V30 23003 C 2219.77 2.36159 -2.71847 0
M  V30 23004 C 2219.62 1.76098 -4.13896 0
M  V30 23005 C 2220.94 3.3787 -2.82014 0
M  V30 23006 H 2218.06 0.463571 -0.572949 0
M  V30 23007 H 2220.7 0.580088 -1.80928 0
M  V30 23008 H 2218.85 2.95752 -2.51919 0
M  V30 23009 H 2220.52 1.20491 -4.45286 0
M  V30 23010 H 2218.76 1.06594 -4.205 0
M  V30 23011 H 2219.43 2.54541 -4.89809 0
M  V30 23012 H 2221.91 2.88244 -3.00091 0
M  V30 23013 H 2220.79 4.11021 -3.63803 0
M  V30 23014 H 2221.05 3.98943 -1.90518 0
M  V30 23015 N 2220.11 1.37452 0.771027 0
M  V30 23016 C 2221.35 1.32896 1.53187 0
M  V30 23017 C 2221.69 -0.086217 1.94009 0
M  V30 23018 O 2220.96 -1.0437 1.64125 0
M  V30 23019 C 2221.24 2.26873 2.79644 0
M  V30 23020 C 2221.1 3.77173 2.45072 0
M  V30 23021 C 2222.42 2.19284 3.81579 0
M  V30 23022 H 2219.53 0.484074 0.555735 0
M  V30 23023 H 2222.18 1.68158 0.884463 0
M  V30 23024 H 2220.33 1.96932 3.34888 0
M  V30 23025 H 2222 4.17714 1.95737 0
M  V30 23026 H 2220.24 3.95707 1.7776 0
M  V30 23027 H 2220.91 4.38365 3.3547 0
M  V30 23028 H 2223.39 2.45677 3.3583 0
M  V30 23029 H 2222.26 2.87179 4.67782 0
M  V30 23030 H 2222.53 1.18599 4.25895 0
M  V30 23031 N 2221.58 -0.997276 1.22033 0
M  V30 23032 C 2222.81 -1.76921 1.06689 0
M  V30 23033 C 2223.22 -1.85225 -0.385805 0
M  V30 23034 O 2222.57 -1.31835 -1.27927 0
M  V30 23035 C 2222.63 -3.22028 1.59807 0
M  V30 23036 C 2222.29 -3.37281 3.08367 0
M  V30 23037 C 2223.29 -3.24945 4.05841 0
M  V30 23038 C 2220.97 -3.62474 3.47733 0
M  V30 23039 C 2222.97 -3.37579 5.40666 0
M  V30 23040 C 2220.65 -3.74748 4.82708 0
M  V30 23041 C 2221.65 -3.62309 5.78983 0
M  V30 23042 O 2221.34 -3.74181 7.11508 0
M  V30 23043 H 2221.07 -0.5626 0.374777 0
M  V30 23044 H 2223.63 -1.26283 1.61993 0
M  V30 23045 H 2221.86 -3.73837 0.989069 0
M  V30 23046 H 2223.55 -3.80922 1.40191 0
M  V30 23047 H 2224.31 -3.05398 3.76772 0
M  V30 23048 H 2220.19 -3.71235 2.73323 0
M  V30 23049 H 2223.73 -3.27786 6.15794 0
M  V30 23050 H 2219.63 -3.93801 5.1146 0
M  V30 23051 H 2220.4 -3.91081 7.19026 0
M  V30 23052 N 2223.06 -1.02932 -1.19343 0
M  V30 23053 C 2224.01 -0.610503 -2.22579 0
M  V30 23054 C 2224.98 0.375917 -1.6179 0
M  V30 23055 O 2226.16 0.272478 -1.88844 0
M  V30 23056 C 2223.3 0.0320867 -3.45085 0
M  V30 23057 C 2222.42 -1.00043 -4.20256 0
M  V30 23058 C 2221.55 -0.327553 -5.30189 0
M  V30 23059 C 2220.59 -1.34595 -5.97119 0
M  V30 23060 N 2219.73 -0.698849 -6.98613 0
M  V30 23061 H 2224.57 -1.49542 -2.57762 0
M  V30 23062 H 2222.11 -0.748333 -1.26643 0
M  V30 23063 H 2224.06 0.421893 -4.15061 0
M  V30 23064 H 2222.69 0.880585 -3.10557 0
M  V30 23065 H 2221.75 -1.50829 -3.4922 0
M  V30 23066 H 2223.06 -1.77441 -4.66172 0
M  V30 23067 H 2222.21 0.117073 -6.06587 0
M  V30 23068 H 2220.95 0.478627 -4.85346 0
M  V30 23069 H 2219.96 -1.80083 -5.19471 0
M  V30 23070 H 2221.18 -2.15363 -6.44046 0
M  V30 23071 H 2219.13 0.0872318 -6.55942 0
M  V30 23072 H 2219.04 -1.41071 -7.42721 0
M  V30 23073 H 2220.31 -0.278239 -7.79003 0
M  V30 23074 N 2224.54 1.35356 -0.807246 0
M  V30 23075 C 2225.47 2.32339 -0.23255 0
M  V30 23076 C 2226.45 1.57505 0.642358 0
M  V30 23077 O 2227.64 1.8557 0.572493 0
M  V30 23078 C 2224.77 3.41736 0.619178 0
M  V30 23079 C 2223.72 4.27711 -0.157291 0
M  V30 23080 C 2223.05 5.28434 0.81618 0
M  V30 23081 C 2224.35 5.04373 -1.35665 0
M  V30 23082 H 2226.04 2.80652 -1.04281 0
M  V30 23083 H 2223.59 1.34933 -0.502904 0
M  V30 23084 H 2225.54 4.08586 1.03129 0
M  V30 23085 H 2224.26 2.92033 1.46233 0
M  V30 23086 H 2222.92 3.62442 -0.550589 0
M  V30 23087 H 2222.57 4.74998 1.65486 0
M  V30 23088 H 2222.27 5.86829 0.300964 0
M  V30 23089 H 2223.79 5.98155 1.22649 0
M  V30 23090 H 2225.21 5.64165 -1.01937 0
M  V30 23091 H 2223.61 5.72267 -1.8064 0
M  V30 23092 H 2224.68 4.34977 -2.14296 0
M  V30 23093 N 2226.02 0.560807 1.47284 0
M  V30 23094 C 2227.27 0.0380976 2.02464 0
M  V30 23095 C 2227.59 -1.31319 1.43477 0
M  V30 23096 O 2226.85 -1.86866 0.581344 0
M  V30 23097 C 2227.15 -0.100721 3.57258 0
M  V30 23098 C 2226.81 1.18014 4.35182 0
M  V30 23099 C 2225.48 1.53111 4.56191 0
M  V30 23100 C 2227.83 2.02876 4.80095 0
M  V30 23101 C 2225.16 2.72909 5.19363 0
M  V30 23102 C 2227.51 3.2188 5.44588 0
M  V30 23103 C 2226.17 3.57286 5.63829 0
M  V30 23104 H 2225.44 0.0139409 0.740869 0
M  V30 23105 H 2228.09 0.733043 1.76914 0
M  V30 23106 H 2226.39 -0.878657 3.8182 0
M  V30 23107 H 2228.09 -0.52057 3.97607 0
M  V30 23108 H 2224.68 0.896874 4.19111 0
M  V30 23109 H 2228.86 1.77068 4.63638 0
M  V30 23110 H 2224.12 3.00505 5.32454 0
M  V30 23111 H 2228.29 3.87921 5.78351 0
M  V30 23112 H 2225.92 4.50208 6.1255 0
M  V30 23113 N 2227.5 -1.54768 0.297442 0
M  V30 23114 C 2228.46 -2.22067 -0.567336 0
M  V30 23115 C 2229.46 -1.20558 -1.06407 0
M  V30 23116 O 2230.65 -1.45316 -0.960666 0
M  V30 23117 C 2227.78 -2.90424 -1.78512 0
M  V30 23118 H 2228.97 -2.99893 0.0206061 0
M  V30 23119 H 2226.53 -1.56226 0.0482438 0
M  V30 23120 H 2227.26 -2.16668 -2.41299 0
M  V30 23121 H 2227.05 -3.64834 -1.43663 0
M  V30 23122 H 2228.54 -3.41775 -2.39958 0
M  V30 23123 N 2228.97 -0.0251005 -1.5758 0
M  V30 23124 C 2230.22 0.653118 -1.91256 0
M  V30 23125 C 2230.54 1.72899 -0.901721 0
M  V30 23126 O 2229.81 1.95816 0.0573441 0
M  V30 23127 H 2228.39 0.24423 -0.705947 0
M  V30 23128 H 2231.06 -0.0719551 -1.94767 0
M  V30 23129 H 2230.15 1.10842 -2.91754 0
M  V30 23130 N 2230.45 1.55637 0.247999 0
M  V30 23131 C 2231.7 1.77417 0.976193 0
M  V30 23132 C 2232.03 0.589226 1.8536 0
M  V30 23133 O 2231.28 -0.427495 1.90974 0
M  V30 23134 C 2231.58 3.04689 1.86813 0
M  V30 23135 C 2231.25 4.36089 1.14617 0
M  V30 23136 C 2229.91 4.71797 0.94664 0
M  V30 23137 C 2232.26 5.17325 0.634372 0
M  V30 23138 C 2229.59 5.86276 0.222988 0
M  V30 23139 C 2231.94 6.32555 -0.0758071 0
M  V30 23140 C 2230.61 6.66883 -0.286828 0
M  V30 23141 H 2229.88 0.649214 0.357214 0
M  V30 23142 H 2232.52 1.89908 0.246381 0
M  V30 23143 H 2230.83 2.87205 2.66497 0
M  V30 23144 H 2232.52 3.1874 2.43323 0
M  V30 23145 H 2229.11 4.08037 1.31163 0
M  V30 23146 H 2233.3 4.90195 0.776074 0
M  V30 23147 H 2228.55 6.1138 0.0490111 0
M  V30 23148 H 2232.73 6.94744 -0.480022 0
M  V30 23149 H 2230.36 7.55438 -0.849522 0
M  V30 23150 N 2231.93 -0.513613 1.48996 0
M  V30 23151 C 2232.86 -1.6329 1.60839 0
M  V30 23152 C 2233.88 -1.55196 0.491728 0
M  V30 23153 O 2235.07 -1.61358 0.763266 0
M  V30 23154 C 2232.17 -3.02024 1.53736 0
M  V30 23155 C 2231.34 -3.35432 2.80721 0
M  V30 23156 C 2230.4 -4.5352 2.66845 0
M  V30 23157 O 2229.42 -4.55928 3.40761 0
M  V30 23158 N 2230.63 -5.52681 1.77549 0
M  V30 23159 H 2233.39 -1.53562 2.57369 0
M  V30 23160 H 2230.95 -0.701234 1.45926 0
M  V30 23161 H 2232.94 -3.78923 1.42125 0
M  V30 23162 H 2231.51 -3.05743 0.651145 0
M  V30 23163 H 2230.73 -2.47551 3.06777 0
M  V30 23164 H 2232.02 -3.54544 3.64933 0
M  V30 23165 H 2231.42 -5.53526 1.16728 0
M  V30 23166 H 2229.98 -6.28733 1.71867 0
M  V30 23167 N 2233.41 -1.37859 -0.763727 0
M  V30 23168 C 2234.66 -1.33245 -1.51954 0
M  V30 23169 C 2234.98 0.0801367 -1.94835 0
M  V30 23170 O 2234.25 1.02579 -1.66896 0
M  V30 23171 H 2232.83 -0.49025 -0.563617 0
M  V30 23172 H 2235.49 -1.72432 -0.908474 0
M  V30 23173 H 2234.59 -1.97673 -2.4152 0
M  V30 23174 N 2234.89 0.990791 -1.22561 0
M  V30 23175 C 2235.85 2.06288 -0.998899 0
M  V30 23176 C 2236.85 1.60761 0.0354551 0
M  V30 23177 O 2238.04 1.7301 -0.203261 0
M  V30 23178 C 2235.17 3.37075 -0.509263 0
M  V30 23179 H 2236.37 2.27833 -1.95018 0
M  V30 23180 H 2233.92 1.16267 -1.04459 0
M  V30 23181 H 2234.65 3.21215 0.446279 0
M  V30 23182 H 2234.44 3.71455 -1.25554 0
M  V30 23183 H 2235.93 4.15949 -0.370961 0
M  V30 23184 N 2236.37 1.03564 1.18795 0
M  V30 23185 C 2237.6 0.754807 1.92318 0
M  V30 23186 C 2238 -0.691217 1.76122 0
M  V30 23187 O 2237.35 -1.48239 1.08493 0
M  V30 23188 C 2237.41 1.0349 3.44282 0
M  V30 23189 C 2237.07 2.47383 3.84253 0
M  V30 23190 C 2238.07 3.45544 3.88453 0
M  V30 23191 C 2235.75 2.81962 4.15696 0
M  V30 23192 C 2237.75 4.76336 4.23536 0
M  V30 23193 C 2235.44 4.12961 4.50451 0
M  V30 23194 C 2236.43 5.09959 4.54347 0
M  V30 23195 O 2236.12 6.38611 4.88294 0
M  V30 23196 H 2235.85 0.275032 0.617522 0
M  V30 23197 H 2238.41 1.385 1.51681 0
M  V30 23198 H 2236.64 0.347581 3.85135 0
M  V30 23199 H 2238.33 0.74267 3.99048 0
M  V30 23200 H 2239.09 3.20168 3.64304 0
M  V30 23201 H 2234.97 2.07137 4.11844 0
M  V30 23202 H 2238.52 5.52042 4.26492 0
M  V30 23203 H 2234.41 4.38108 4.74059 0
M  V30 23204 H 2235.18 6.43186 5.06216 0
M  V30 23205 N 2237.84 -1.34926 0.814413 0
M  V30 23206 C 2239.07 -2.02773 0.411172 0
M  V30 23207 C 2239.49 -1.61356 -0.980288 0
M  V30 23208 O 2238.84 -0.814876 -1.63297 0
M  V30 23209 C 2238.89 -3.5811 0.493928 0
M  V30 23210 O 2238.62 -3.98024 1.83054 0
M  V30 23211 C 2240.12 -4.43219 0.0844953 0
M  V30 23212 H 2237.34 -0.65013 0.166048 0
M  V30 23213 H 2239.88 -1.72382 1.10021 0
M  V30 23214 H 2238.04 -3.87121 -0.146938 0
M  V30 23215 H 2238.45 -4.9269 1.7988 0
M  V30 23216 H 2239.92 -5.51661 0.193501 0
M  V30 23217 H 2240.4 -4.28331 -0.971054 0
M  V30 23218 H 2241.01 -4.19519 0.698824 0
M  V30 23219 N 2239.32 -0.56861 -1.46985 0
M  V30 23220 C 2240.57 -0.0487377 -2.02041 0
M  V30 23221 C 2240.89 1.31037 -1.44411 0
M  V30 23222 O 2240.16 1.85713 -0.62351 0
M  V30 23223 H 2238.74 -0.0150271 -0.746849 0
M  V30 23224 H 2241.4 -0.7412 -1.80256 0
M  V30 23225 H 2240.5 0.0308412 -3.12085 0
M  V30 23226 N 2240.8 1.54608 -0.305646 0
M  V30 23227 C 2241.73 2.2665 0.561442 0
M  V30 23228 C 2242.71 1.26774 1.13412 0
M  V30 23229 O 2243.9 1.55555 1.1626 0
M  V30 23230 C 2241.03 3.01078 1.73116 0
M  V30 23231 C 2239.98 4.0814 1.28863 0
M  V30 23232 C 2239.31 4.70309 2.54388 0
M  V30 23233 C 2240.61 5.20637 0.416487 0
M  V30 23234 H 2242.3 2.99374 -0.0394428 0
M  V30 23235 H 2239.85 1.43986 -0.0204103 0
M  V30 23236 H 2241.8 3.50199 2.34389 0
M  V30 23237 H 2240.52 2.2594 2.35836 0
M  V30 23238 H 2239.18 3.59876 0.698928 0
M  V30 23239 H 2238.83 3.91806 3.15432 0
M  V30 23240 H 2238.53 5.42618 2.25476 0
M  V30 23241 H 2240.05 5.22196 3.16455 0
M  V30 23242 H 2241.47 5.65624 0.935017 0
M  V30 23243 H 2239.86 5.99693 0.220941 0
M  V30 23244 H 2240.93 4.81687 -0.557246 0
M  V30 23245 N 2242.28 0.033457 1.57564 0
M  V30 23246 C 2243.69 -0.504766 1.79747 0
M  V30 23247 C 2244.04 -1.71991 0.944121 0
M  V30 23248 O 2243.16 -2.15839 0.155732 0
M  V30 23249 C 2243.76 -0.922509 3.25999 0
M  V30 23250 C 2242.32 -1.40582 3.49161 0
M  V30 23251 C 2241.47 -0.372585 2.74786 0
M  V30 23252 H 2244.42 0.259464 1.56565 0
M  V30 23253 H 2244.44 -1.7866 3.35948 0
M  V30 23254 H 2243.95 -0.0379142 3.88081 0
M  V30 23255 H 2242.05 -2.3102 2.92336 0
M  V30 23256 H 2242.16 -1.4102 4.57876 0
M  V30 23257 H 2240.53 -0.84163 2.40393 0
M  V30 23258 H 2241.31 0.503619 3.39586 0
M  V30 23259 N 2243.76 -1.55766 -0.239741 0
M  V30 23260 C 2245 -1.77932 -0.96677 0
M  V30 23261 C 2245.33 -0.599047 -1.85045 0
M  V30 23262 O 2244.59 0.417362 -1.91198 0
M  V30 23263 C 2244.88 -3.05676 -1.85195 0
M  V30 23264 C 2244.55 -4.36691 -1.12303 0
M  V30 23265 C 2243.21 -4.72292 -0.921606 0
M  V30 23266 C 2245.56 -5.17654 -0.606928 0
M  V30 23267 C 2242.89 -5.86386 -0.191893 0
M  V30 23268 C 2245.24 -6.32505 0.109352 0
M  V30 23269 C 2243.91 -6.66722 0.32219 0
M  V30 23270 H 2243.18 -0.651099 -0.353766 0
M  V30 23271 H 2245.83 -1.90036 -0.236307 0
M  V30 23272 H 2244.13 -2.88614 -2.6497 0
M  V30 23273 H 2245.83 -3.20026 -2.41629 0
M  V30 23274 H 2242.42 -4.08727 -1.28997 0
M  V30 23275 H 2246.6 -4.90599 -0.750067 0
M  V30 23276 H 2241.86 -6.11398 -0.0165874 0
M  V30 23277 H 2246.03 -6.94479 0.516859 0
M  V30 23278 H 2243.66 -7.54977 0.889573 0
M  V30 23279 N 2245.23 0.505704 -1.49266 0
M  V30 23280 C 2246.46 1.28426 -1.62217 0
M  V30 23281 C 2246.88 1.86533 -0.29173 0
M  V30 23282 O 2246.23 1.67602 0.722204 0
M  V30 23283 C 2246.28 2.41788 -2.68739 0
M  V30 23284 O 2246.01 1.86071 -3.96622 0
M  V30 23285 C 2247.51 3.33235 -2.92352 0
M  V30 23286 H 2244.73 0.389687 -0.546246 0
M  V30 23287 H 2247.27 0.607575 -1.95266 0
M  V30 23288 H 2245.43 3.05296 -2.38481 0
M  V30 23289 H 2245.84 2.60457 -4.55261 0
M  V30 23290 H 2247.31 4.09068 -3.70631 0
M  V30 23291 H 2247.79 3.89945 -2.02088 0
M  V30 23292 H 2248.4 2.75498 -3.24008 0
M  V30 23293 N 2246.71 1.38262 0.756405 0
M  V30 23294 C 2247.66 1.35264 1.87009 0
M  V30 23295 C 2248.63 0.215645 1.64694 0
M  V30 23296 O 2249.81 0.407432 1.86399 0
M  V30 23297 C 2246.95 1.18073 3.24273 0
M  V30 23298 C 2246.07 2.41136 3.58438 0
M  V30 23299 C 2245.2 2.16697 4.8499 0
M  V30 23300 C 2244.24 3.35546 5.11933 0
M  V30 23301 N 2243.38 3.10561 6.2968 0
M  V30 23302 H 2248.22 2.30475 1.88906 0
M  V30 23303 H 2245.76 1.1451 0.923353 0
M  V30 23304 H 2247.71 1.06123 4.03477 0
M  V30 23305 H 2246.34 0.26503 3.2171 0
M  V30 23306 H 2245.4 2.63769 2.74099 0
M  V30 23307 H 2246.71 3.29724 3.74278 0
M  V30 23308 H 2245.86 2.01867 5.72132 0
M  V30 23309 H 2244.6 1.25471 4.71284 0
M  V30 23310 H 2243.61 3.50898 4.23262 0
M  V30 23311 H 2244.83 4.27645 5.27539 0
M  V30 23312 H 2242.78 2.21978 6.17302 0
M  V30 23313 H 2242.69 3.92697 6.46007 0
M  V30 23314 H 2243.96 2.99379 7.19717 0
M  V30 23315 N 2248.19 -0.984277 1.23084 0
M  V30 23316 C 2249.6 -1.53958 1.05612 0
M  V30 23317 C 2249.95 -1.92529 -0.377759 0
M  V30 23318 O 2249.08 -1.75651 -1.26395 0
M  V30 23319 C 2249.67 -2.79767 1.91092 0
M  V30 23320 C 2248.23 -3.3171 1.77891 0
M  V30 23321 C 2247.38 -2.0473 1.87032 0
M  V30 23322 H 2250.33 -0.804395 1.36803 0
M  V30 23323 H 2250.35 -3.52468 1.43342 0
M  V30 23324 H 2249.86 -2.51663 2.95445 0
M  V30 23325 H 2247.96 -3.64703 0.763059 0
M  V30 23326 H 2248.08 -4.0173 2.61055 0
M  V30 23327 H 2246.44 -2.18687 1.30568 0
M  V30 23328 H 2247.22 -1.79012 2.92933 0
M  V30 23329 N 2249.67 -1.04192 -1.18244 0
M  V30 23330 C 2250.62 -0.634076 -2.21919 0
M  V30 23331 C 2251.59 0.358736 -1.6218 0
M  V30 23332 O 2252.77 0.252433 -1.89123 0
M  V30 23333 C 2249.91 -0.00451601 -3.451 0
M  V30 23334 C 2249.02 -1.04495 -4.19172 0
M  V30 23335 C 2248.16 -0.383769 -5.29812 0
M  V30 23336 C 2247.2 -1.40921 -5.95657 0
M  V30 23337 N 2246.33 -0.772907 -6.97833 0
M  V30 23338 H 2251.17 -1.52268 -2.56161 0
M  V30 23339 H 2248.71 -0.761723 -1.25842 0
M  V30 23340 H 2250.67 0.377846 -4.15485 0
M  V30 23341 H 2249.3 0.847597 -3.11473 0
M  V30 23342 H 2248.35 -1.54524 -3.47601 0
M  V30 23343 H 2249.66 -1.82376 -4.64263 0
M  V30 23344 H 2248.82 0.05273 -6.06677 0
M  V30 23345 H 2247.56 0.427123 -4.85826 0
M  V30 23346 H 2246.56 -1.85583 -5.17532 0
M  V30 23347 H 2247.79 -2.22182 -6.41726 0
M  V30 23348 H 2245.73 0.0176555 -6.55998 0
M  V30 23349 H 2245.65 -1.48941 -7.41183 0
M  V30 23350 H 2246.92 -0.360847 -7.78664 0
M  V30 23351 N 2251.15 1.34492 -0.821557 0
M  V30 23352 C 2252.39 1.98621 -0.409587 0
M  V30 23353 C 2252.73 1.64986 1.02437 0
M  V30 23354 O 2252 0.920788 1.71324 0
M  V30 23355 C 2252.28 3.54887 -0.610521 0
M  V30 23356 C 2252.14 3.98269 -2.0905 0
M  V30 23357 C 2253.46 4.40076 -0.0456153 0
M  V30 23358 H 2250.57 0.721513 -0.150292 0
M  V30 23359 H 2253.22 1.59409 -1.03387 0
M  V30 23360 H 2251.37 3.88419 -0.0791123 0
M  V30 23361 H 2253.04 3.75076 -2.68544 0
M  V30 23362 H 2251.28 3.48631 -2.58146 0
M  V30 23363 H 2251.95 5.07047 -2.18191 0
M  V30 23364 H 2254.43 4.13089 -0.49963 0
M  V30 23365 H 2253.3 5.48475 -0.216018 0
M  V30 23366 H 2253.57 4.29467 1.04932 0
M  V30 23367 N 2252.62 0.576397 1.46681 0
M  V30 23368 C 2254.04 0.148124 1.86111 0
M  V30 23369 C 2254.39 -1.28718 1.48075 0
M  V30 23370 O 2253.51 -1.97129 0.892691 0
M  V30 23371 C 2254.11 0.262041 3.37785 0
M  V30 23372 C 2252.67 -0.111318 3.76235 0
M  V30 23373 C 2251.81 0.600878 2.70712 0
M  V30 23374 H 2254.76 0.784995 1.37926 0
M  V30 23375 H 2254.78 -0.514298 3.77008 0
M  V30 23376 H 2254.3 1.30677 3.65438 0
M  V30 23377 H 2252.4 -1.15643 3.542 0
M  V30 23378 H 2252.51 0.260604 4.78391 0
M  V30 23379 H 2250.87 0.0418231 2.54666 0
M  V30 23380 H 2251.66 1.64714 3.01205 0
M  V30 23381 N 2254.1 -1.54444 0.313841 0
M  V30 23382 C 2255.33 -2.04802 -0.293882 0
M  V30 23383 C 2255.75 -1.1905 -1.46535 0
M  V30 23384 O 2255.1 -0.218971 -1.81182 0
M  V30 23385 C 2255.15 -3.53892 -0.737744 0
M  V30 23386 O 2254.87 -4.36386 0.387115 0
M  V30 23387 C 2256.38 -4.20302 -1.40929 0
M  V30 23388 H 2253.6 -0.66813 -0.061994 0
M  V30 23389 H 2256.14 -1.99324 0.457205 0
M  V30 23390 H 2254.29 -3.5969 -1.43883 0
M  V30 23391 H 2254.71 -5.24485 0.0392196 0
M  V30 23392 H 2256.18 -5.26104 -1.67089 0
M  V30 23393 H 2256.66 -3.7082 -2.35348 0
M  V30 23394 H 2257.27 -4.18616 -0.751043 0
M  V30 23395 N 2255.58 -0.0418125 -1.57545 0
M  V30 23396 C 2256.83 0.633458 -1.91495 0
M  V30 23397 C 2257.14 1.72554 -0.921114 0
M  V30 23398 O 2258.35 2.45833 -1.15232 0
M  V30 23399 C 2256.8 1.17803 -3.40074 0
M  V30 23400 C 2256.41 0.118554 -4.47843 0
M  V30 23401 C 2258.16 1.82908 -3.83073 0
M  V30 23402 C 2256.06 0.675475 -5.8753 0
M  V30 23403 H 2254.99 0.240377 -0.714657 0
M  V30 23404 H 2257.64 -0.10918 -1.83175 0
M  V30 23405 H 2256.03 1.97268 -3.43368 0
M  V30 23406 H 2257.2 -0.654575 -4.56127 0
M  V30 23407 H 2255.52 -0.434487 -4.14127 0
M  V30 23408 H 2258.11 2.25554 -4.84798 0
M  V30 23409 H 2258.46 2.67699 -3.18815 0
M  V30 23410 H 2258.99 1.10112 -3.82257 0
M  V30 23411 H 2255.73 -0.13459 -6.55362 0
M  V30 23412 H 2255.25 1.4168 -5.82827 0
M  V30 23413 H 2256.93 1.16129 -6.36493 0
M  V30 23414 N 2257.06 1.55891 0.231477 0
M  V30 23415 C 2258.47 1.4866 0.580722 0
M  V30 23416 C 2258.67 0.735013 1.87616 0
M  V30 23417 O 2257.73 0.27063 2.51045 0
M  V30 23418 C 2259.04 2.9316 0.669151 0
M  V30 23419 C 2260.59 3.03622 0.760445 0
M  V30 23420 C 2261.07 4.4946 0.880304 0
M  V30 23421 N 2262.56 4.53462 0.944781 0
M  V30 23422 C 2263.29 5.63572 1.05706 0
M  V30 23423 N 2262.79 6.83458 1.13391 0
M  V30 23424 N 2264.58 5.51402 1.09142 0
M  V30 23425 H 2256.73 2.03188 -0.618731 0
M  V30 23426 H 2259 0.923124 -0.215744 0
M  V30 23427 H 2258.7 3.51055 -0.212966 0
M  V30 23428 H 2258.58 3.44508 1.53604 0
M  V30 23429 H 2260.96 2.45798 1.63301 0
M  V30 23430 H 2261.04 2.5546 -0.131909 0
M  V30 23431 H 2260.69 5.07899 0.0122391 0
M  V30 23432 H 2260.62 4.95319 1.78793 0
M  V30 23433 H 2263.11 3.67122 0.896111 0
M  V30 23434 H 2263.42 7.63124 1.21908 0
M  V30 23435 H 2261.77 6.86188 1.10321 0
M  V30 23436 H 2264.96 4.56673 1.02797 0
M  V30 23437 H 2265.13 6.37249 1.17547 0
M  V30 23438 N 2258.54 -0.497781 1.49532 0
M  V30 23439 C 2259.47 -1.61575 1.62562 0
M  V30 23440 C 2260.48 -1.54666 0.508161 0
M  V30 23441 O 2261.67 -1.6054 0.780338 0
M  V30 23442 C 2258.77 -3.00376 1.56931 0
M  V30 23443 C 2257.94 -3.32435 2.84263 0
M  V30 23444 C 2257 -4.50664 2.7164 0
M  V30 23445 O 2256.03 -4.52288 3.45578 0
M  V30 23446 N 2257.23 -5.50767 1.83401 0
M  V30 23447 H 2260 -1.50823 2.58983 0
M  V30 23448 H 2257.56 -0.685717 1.46661 0
M  V30 23449 H 2259.55 -3.77394 1.46136 0
M  V30 23450 H 2258.12 -3.05035 0.683537 0
M  V30 23451 H 2257.34 -2.44284 3.09385 0
M  V30 23452 H 2258.63 -3.50654 3.68673 0
M  V30 23453 H 2258.02 -5.52257 1.22593 0
M  V30 23454 H 2256.58 -6.26874 1.78526 0
M  V30 23455 N 2260.01 -1.38661 -0.749062 0
M  V30 23456 C 2260.98 -1.36048 -1.84455 0
M  V30 23457 C 2261.98 -0.26015 -1.58682 0
M  V30 23458 O 2263.17 -0.517291 -1.66342 0
M  V30 23459 C 2260.3 -1.11916 -3.22006 0
M  V30 23460 H 2261.49 -2.33515 -1.88178 0
M  V30 23461 H 2259.05 -1.2402 -0.951244 0
M  V30 23462 H 2259.78 -0.150743 -3.23949 0
M  V30 23463 H 2259.57 -1.91585 -3.42108 0
M  V30 23464 H 2261.06 -1.12795 -4.02078 0
M  V30 23465 N 2261.49 0.977736 -1.23605 0
M  V30 23466 C 2262.44 2.07059 -1.01957 0
M  V30 23467 C 2263.41 1.65977 0.0638405 0
M  V30 23468 O 2264.6 1.90593 -0.0887959 0
M  V30 23469 C 2261.74 3.3949 -0.619717 0
M  V30 23470 C 2260.85 3.93826 -1.77554 0
M  V30 23471 C 2259.98 5.14481 -1.32221 0
M  V30 23472 C 2259.02 5.60989 -2.44862 0
M  V30 23473 N 2258.16 6.72872 -2.00468 0
M  V30 23474 H 2263 2.24909 -1.95499 0
M  V30 23475 H 2260.54 1.10245 -0.973881 0
M  V30 23476 H 2262.49 4.15565 -0.368971 0
M  V30 23477 H 2261.12 3.21595 0.278695 0
M  V30 23478 H 2260.18 3.14482 -2.14022 0
M  V30 23479 H 2261.49 4.2431 -2.62227 0
M  V30 23480 H 2260.64 5.97897 -1.02975 0
M  V30 23481 H 2259.38 4.85657 -0.445893 0
M  V30 23482 H 2258.39 4.76153 -2.74879 0
M  V30 23483 H 2259.61 5.91832 -3.33035 0
M  V30 23484 H 2257.56 6.45802 -1.1522 0
M  V30 23485 H 2257.47 7.02754 -2.78699 0
M  V30 23486 H 2258.74 7.59755 -1.74334 0
M  V30 23487 N 2262.97 1.04818 1.1769 0
M  V30 23488 C 2264.22 0.757143 1.88136 0
M  V30 23489 C 2264.55 -0.713809 1.80606 0
M  V30 23490 O 2263.83 -1.52162 1.21149 0
M  V30 23491 C 2264.11 1.23346 3.38316 0
M  V30 23492 C 2263.96 2.76707 3.54617 0
M  V30 23493 C 2265.28 0.829491 4.32212 0
M  V30 23494 H 2262.4 0.276522 0.683158 0
M  V30 23495 H 2265.04 1.30151 1.38422 0
M  V30 23496 H 2263.19 0.770352 3.80786 0
M  V30 23497 H 2264.86 3.31113 3.21188 0
M  V30 23498 H 2263.11 3.16167 2.9702 0
M  V30 23499 H 2263.78 3.05096 4.60022 0
M  V30 23500 H 2266.25 1.22812 3.97563 0
M  V30 23501 H 2265.13 1.19043 5.35836 0
M  V30 23502 H 2265.39 -0.266814 4.41294 0
M  V30 23503 N 2264.45 -1.34055 0.828678 0
M  V30 23504 C 2265.38 -2.28217 0.212092 0
M  V30 23505 C 2266.39 -1.51287 -0.601336 0
M  V30 23506 O 2267.58 -1.73241 -0.430074 0
M  V30 23507 C 2264.68 -3.31146 -0.720822 0
M  V30 23508 C 2263.86 -4.3737 0.0510356 0
M  V30 23509 C 2262.92 -5.20026 -0.803674 0
M  V30 23510 O 2261.94 -5.68666 -0.246567 0
M  V30 23511 N 2263.14 -5.40302 -2.1226 0
M  V30 23512 H 2265.91 -2.81769 1.0211 0
M  V30 23513 H 2263.47 -1.4664 0.686179 0
M  V30 23514 H 2265.46 -3.83342 -1.29735 0
M  V30 23515 H 2264.03 -2.77945 -1.43056 0
M  V30 23516 H 2263.25 -3.85811 0.808899 0
M  V30 23517 H 2264.54 -5.05459 0.582154 0
M  V30 23518 H 2263.94 -5.02468 -2.59889 0
M  V30 23519 H 2262.49 -5.95594 -2.64785 0
M  V30 23520 N 2265.93 -0.584167 -1.46374 0
M  V30 23521 C 2267.18 -0.0701642 -2.01978 0
M  V30 23522 C 2267.5 1.29497 -1.45792 0
M  V30 23523 O 2266.77 1.85041 -0.643172 0
M  V30 23524 H 2265.35 -0.0229476 -0.746647 0
M  V30 23525 H 2268.01 -0.760277 -1.7946 0
M  V30 23526 H 2267.1 -0.00226126 -3.121 0
M  V30 23527 N 2267.41 1.54275 -0.322027 0
M  V30 23528 C 2268.82 1.85957 0.166351 0
M  V30 23529 C 2269.17 1.2437 1.51745 0
M  V30 23530 O 2268.29 0.549161 2.09316 0
M  V30 23531 C 2268.89 3.37391 0.308622 0
M  V30 23532 C 2267.45 3.6903 0.741221 0
M  V30 23533 C 2266.59 2.76956 -0.137985 0
M  V30 23534 H 2269.54 1.49145 -0.542361 0
M  V30 23535 H 2269.57 3.63028 1.13978 0
M  V30 23536 H 2269.08 3.82187 -0.674876 0
M  V30 23537 H 2267.18 3.29765 1.73452 0
M  V30 23538 H 2267.29 4.75978 0.546035 0
M  V30 23539 H 2265.66 2.51755 0.386207 0
M  V30 23540 H 2266.44 3.24578 -1.11822 0
M  V30 23541 N 2268.88 0.0501669 1.5752 0
M  V30 23542 C 2269.83 -0.942421 2.12653 0
M  V30 23543 C 2270.83 -1.32291 1.05809 0
M  V30 23544 O 2272.03 -1.30268 1.24219 0
M  V30 23545 H 2268.41 -0.321777 0.679679 0
M  V30 23546 H 2270.38 -0.452304 2.94952 0
M  V30 23547 C 2269.13 -2.20831 2.68568 0
M  V30 23548 H 2268.45 -1.92433 3.50442 0
M  V30 23549 H 2269.89 -2.88444 3.10767 0
M  V30 23550 C 2268.35 -2.95231 1.62297 0
M  V30 23551 O 2268.88 -3.88133 1.03515 0
M  V30 23552 N 2267.08 -2.57944 1.33841 0
M  V30 23553 H 2266.63 -1.82472 1.81829 0
M  V30 23554 H 2266.59 -3.0803 0.629649 0
M  V30 23555 N 2270.36 -1.56011 -0.223207 0
M  V30 23556 C 2271.61 -1.78947 -0.947844 0
M  V30 23557 C 2271.94 -0.61864 -1.84399 0
M  V30 23558 O 2271.19 0.397059 -1.9163 0
M  V30 23559 C 2271.49 -3.07623 -1.81942 0
M  V30 23560 C 2271.16 -4.37857 -1.07665 0
M  V30 23561 C 2269.82 -4.73243 -0.871461 0
M  V30 23562 C 2272.17 -5.18269 -0.55199 0
M  V30 23563 C 2269.5 -5.86557 -0.129688 0
M  V30 23564 C 2271.85 -6.32354 0.176431 0
M  V30 23565 C 2270.51 -6.66343 0.392887 0
M  V30 23566 H 2269.78 -0.654815 -0.346841 0
M  V30 23567 H 2272.43 -1.90276 -0.216137 0
M  V30 23568 H 2270.74 -2.91408 -2.61894 0
M  V30 23569 H 2272.43 -3.2257 -2.38221 0
M  V30 23570 H 2269.02 -4.10072 -1.24655 0
M  V30 23571 H 2273.21 -4.91367 -0.69799 0
M  V30 23572 H 2268.46 -6.11381 0.0482604 0
M  V30 23573 H 2272.64 -6.93892 0.590489 0
M  V30 23574 H 2270.26 -7.53991 0.969598 0
M  V30 23575 N 2271.84 0.489844 -1.49794 0
M  V30 23576 C 2272.75 1.6163 -1.70038 0
M  V30 23577 C 2273.77 1.63938 -0.583131 0
M  V30 23578 O 2274.94 1.82153 -0.859201 0
M  V30 23579 C 2272.01 2.97946 -1.77282 0
M  V30 23580 C 2271.07 3.06176 -3.00923 0
M  V30 23581 C 2270.3 4.3599 -3.07812 0
M  V30 23582 O 2270.52 5.2543 -2.21991 0
M  V30 23583 O 2269.46 4.49424 -4.00377 0
M  V30 23584 H 2273.28 1.47477 -2.65489 0
M  V30 23585 H 2270.87 0.667339 -1.33667 0
M  V30 23586 H 2272.75 3.78944 -1.84336 0
M  V30 23587 H 2271.43 3.12337 -0.850131 0
M  V30 23588 H 2270.33 2.24325 -2.99381 0
M  V30 23589 H 2271.67 2.96716 -3.92709 0
M  V30 23590 N 2273.32 1.39056 0.741698 0
M  V30 23591 C 2274.56 1.35914 1.50112 0
M  V30 23592 C 2274.89 -0.0470596 1.94443 0
M  V30 23593 O 2274.15 -1.02656 1.66614 0
M  V30 23594 C 2274.45 2.27168 2.75916 0
M  V30 23595 C 2274.11 3.74923 2.50486 0
M  V30 23596 C 2272.77 4.15184 2.4326 0
M  V30 23597 C 2275.13 4.68404 2.28577 0
M  V30 23598 C 2272.45 5.46998 2.12156 0
M  V30 23599 C 2274.81 6.00488 1.98991 0
M  V30 23600 C 2273.47 6.3982 1.90229 0
M  V30 23601 H 2272.74 0.497346 0.549298 0
M  V30 23602 H 2275.39 1.71509 0.851866 0
M  V30 23603 H 2273.69 1.84669 3.4555 0
M  V30 23604 H 2275.39 2.22034 3.33919 0
M  V30 23605 H 2271.98 3.4301 2.56986 0
M  V30 23606 H 2276.16 4.38137 2.33131 0
M  V30 23607 H 2271.42 5.76401 2.0389 0
M  V30 23608 H 2275.59 6.72455 1.81045 0
M  V30 23609 H 2273.22 7.41878 1.65894 0
M  V30 23610 N 2274.8 -0.971167 1.24121 0
M  V30 23611 C 2275.76 -2.04673 1.03159 0
M  V30 23612 C 2276.76 -1.60797 -0.00987496 0
M  V30 23613 O 2277.95 -1.72665 0.23076 0
M  V30 23614 C 2275.08 -3.36222 0.562824 0
M  V30 23615 H 2276.27 -2.24702 1.98618 0
M  V30 23616 H 2273.83 -1.14591 1.06295 0
M  V30 23617 H 2274.56 -3.21884 -0.39512 0
M  V30 23618 H 2274.35 -3.6941 1.31447 0
M  V30 23619 H 2275.84 -4.15306 0.437088 0
M  V30 23620 N 2276.27 -1.05441 -1.17133 0
M  V30 23621 C 2277.52 -0.76711 -1.87732 0
M  V30 23622 C 2277.85 0.704221 -1.80982 0
M  V30 23623 O 2277.13 1.51517 -1.21954 0
M  V30 23624 C 2277.41 -1.25139 -3.37657 0
M  V30 23625 C 2277.26 -2.78584 -3.53145 0
M  V30 23626 C 2278.58 -0.8524 -4.31766 0
M  V30 23627 H 2275.7 -0.280141 -0.681682 0
M  V30 23628 H 2278.34 -1.30883 -1.3773 0
M  V30 23629 H 2276.49 -0.790536 -3.80372 0
M  V30 23630 H 2278.17 -3.32812 -3.19428 0
M  V30 23631 H 2276.41 -3.17737 -2.9534 0
M  V30 23632 H 2277.08 -3.07531 -4.58398 0
M  V30 23633 H 2279.56 -1.24918 -3.96906 0
M  V30 23634 H 2278.43 -1.21883 -5.35197 0
M  V30 23635 H 2278.69 0.243407 -4.41429 0
M  V30 23636 N 2277.75 1.33613 -0.835776 0
M  V30 23637 C 2278.72 2.2758 -0.27204 0
M  V30 23638 C 2279.72 1.50828 0.55746 0
M  V30 23639 O 2280.91 1.70188 0.3717 0
M  V30 23640 C 2278.04 3.35268 0.617114 0
M  V30 23641 H 2279.23 2.78952 -1.10116 0
M  V30 23642 H 2276.78 1.43964 -0.60862 0
M  V30 23643 H 2277.52 2.89131 1.46879 0
M  V30 23644 H 2277.3 3.92093 0.0236377 0
M  V30 23645 H 2278.79 4.05328 1.00493 0
M  V30 23646 N 2279.23 0.591922 1.46062 0
M  V30 23647 C 2280.16 -0.184577 2.27452 0
M  V30 23648 C 2281.14 -0.888327 1.36189 0
M  V30 23649 O 2282.33 -0.900361 1.65607 0
M  V30 23650 C 2279.45 -1.26565 3.14164 0
M  V30 23651 C 2278.5 -0.66674 4.21256 0
M  V30 23652 S 2279.33 0.513439 5.33033 0
M  V30 23653 C 2280.49 -0.56861 6.23312 0
M  V30 23654 H 2280.72 0.50599 2.92963 0
M  V30 23655 H 2278.25 0.379041 1.49675 0
M  V30 23656 H 2280.21 -1.88457 3.64684 0
M  V30 23657 H 2278.87 -1.92821 2.47949 0
M  V30 23658 H 2278.07 -1.47966 4.81791 0
M  V30 23659 H 2277.67 -0.123294 3.73797 0
M  V30 23660 H 2279.96 -1.45186 6.61761 0
M  V30 23661 H 2280.9 0.000196849 7.081 0
M  V30 23662 H 2281.31 -0.876898 5.57648 0
M  V30 23663 N 2280.71 -1.54102 0.330204 0
M  V30 23664 C 2281.64 -2.20826 -0.575438 0
M  V30 23665 C 2282.62 -1.1876 -1.11062 0
M  V30 23666 O 2283.8 -1.47526 -1.17339 0
M  V30 23667 C 2280.93 -2.87519 -1.79027 0
M  V30 23668 C 2279.98 -4.0336 -1.38574 0
M  V30 23669 S 2280.81 -5.33875 -0.416817 0
M  V30 23670 C 2281.97 -6.04065 -1.63878 0
M  V30 23671 H 2282.2 -2.97299 -0.00866888 0
M  V30 23672 H 2279.73 -1.53976 0.114281 0
M  V30 23673 H 2281.69 -3.26565 -2.48728 0
M  V30 23674 H 2280.35 -2.10836 -2.32823 0
M  V30 23675 H 2279.54 -4.48912 -2.29115 0
M  V30 23676 H 2279.15 -3.66022 -0.768355 0
M  V30 23677 H 2281.44 -6.26648 -2.57525 0
M  V30 23678 H 2282.38 -6.97418 -1.2253 0
M  V30 23679 H 2282.79 -5.34056 -1.82877 0
M  V30 23680 N 2282.19 -0.0585199 -1.57491 0
M  V30 23681 C 2283.13 0.913338 -2.11959 0
M  V30 23682 C 2284.1 1.30405 -1.02877 0
M  V30 23683 O 2285.29 1.39224 -1.30466 0
M  V30 23684 C 2282.43 2.18031 -2.67501 0
M  V30 23685 C 2281.54 1.84342 -3.90694 0
M  V30 23686 C 2280.68 3.05551 -4.34525 0
M  V30 23687 C 2279.72 2.67817 -5.504 0
M  V30 23688 N 2278.85 3.81744 -5.89251 0
M  V30 23689 H 2283.69 0.441965 -2.94704 0
M  V30 23690 H 2281.23 0.20652 -1.45643 0
M  V30 23691 H 2283.19 2.92178 -2.97805 0
M  V30 23692 H 2281.82 2.62732 -1.87542 0
M  V30 23693 H 2280.87 1.00313 -3.66935 0
M  V30 23694 H 2282.18 1.52571 -4.74893 0
M  V30 23695 H 2281.34 3.8799 -4.66421 0
M  V30 23696 H 2280.07 3.40505 -3.49153 0
M  V30 23697 H 2279.08 1.83797 -5.18169 0
M  V30 23698 H 2280.3 2.34048 -6.37494 0
M  V30 23699 H 2278.25 4.16485 -5.0683 0
M  V30 23700 H 2278.17 3.53697 -6.68158 0
M  V30 23701 H 2279.44 4.648 -6.25764 0
M  V30 23702 N 2283.66 1.56128 0.21493 0
M  V30 23703 C 2285.08 1.49268 0.564922 0
M  V30 23704 C 2285.28 0.754871 1.86826 0
M  V30 23705 O 2284.34 0.297242 2.50744 0
M  V30 23706 C 2285.65 2.93853 0.638019 0
M  V30 23707 C 2287.2 3.04411 0.7282 0
M  V30 23708 C 2287.67 4.50369 0.832584 0
M  V30 23709 N 2289.16 4.54439 0.896632 0
M  V30 23710 C 2289.9 5.64662 0.997225 0
M  V30 23711 N 2289.39 6.84622 1.06135 0
M  V30 23712 N 2291.19 5.52529 1.03288 0
M  V30 23713 H 2283.34 2.02521 -0.640247 0
M  V30 23714 H 2285.6 0.920784 -0.225523 0
M  V30 23715 H 2285.31 3.50809 -0.250188 0
M  V30 23716 H 2285.18 3.46118 1.49941 0
M  V30 23717 H 2287.57 2.47517 1.60685 0
M  V30 23718 H 2287.65 2.55305 -0.158997 0
M  V30 23719 H 2287.29 5.07883 -0.041631 0
M  V30 23720 H 2287.22 4.97187 1.73529 0
M  V30 23721 H 2289.71 3.68051 0.857123 0
M  V30 23722 H 2290.03 7.64374 1.13807 0
M  V30 23723 H 2288.37 6.8732 1.03037 0
M  V30 23724 H 2291.56 4.57738 0.979478 0
M  V30 23725 H 2291.74 6.3846 1.10782 0
M  V30 23726 N 2285.14 -0.481893 1.50052 0
M  V30 23727 C 2286.09 -1.602 1.68637 0
M  V30 23728 C 2287.08 -1.60147 0.552212 0
M  V30 23729 O 2288.29 -1.64426 0.732406 0
M  V30 23730 H 2284.67 -0.531398 0.53209 0
M  V30 23731 H 2286.64 -1.41683 2.62619 0
M  V30 23732 C 2285.39 -2.98216 1.7878 0
M  V30 23733 H 2284.71 -2.98972 2.65435 0
M  V30 23734 H 2286.15 -3.76076 1.95813 0
M  V30 23735 C 2284.61 -3.32594 0.536907 0
M  V30 23736 O 2285.14 -4.00352 -0.328827 0
M  V30 23737 N 2283.34 -2.87915 0.394141 0
M  V30 23738 H 2282.89 -2.32949 1.09967 0
M  V30 23739 H 2282.85 -3.11282 -0.441683 0
M  V30 23740 N 2286.62 -1.39448 -0.734313 0
M  V30 23741 C 2287.85 -1.4017 -1.52864 0
M  V30 23742 C 2288.27 0.00168206 -1.881 0
M  V30 23743 O 2287.63 0.988853 -1.51959 0
M  V30 23744 C 2287.68 -2.28171 -2.79231 0
M  V30 23745 O 2286.78 -1.71207 -3.75182 0
M  V30 23746 H 2286.12 -0.477298 -0.461609 0
M  V30 23747 H 2288.65 -1.83451 -0.905916 0
M  V30 23748 H 2288.66 -2.42708 -3.27959 0
M  V30 23749 H 2287.34 -3.3016 -2.52917 0
M  V30 23750 H 2285.91 -1.65918 -3.33955 0
M  V30 23751 N 2288.1 0.964571 -1.24635 0
M  V30 23752 C 2289.34 1.72287 -1.09984 0
M  V30 23753 C 2289.7 1.88694 0.354759 0
M  V30 23754 O 2290.9 2.61484 0.622844 0
M  V30 23755 C 2289.17 3.0743 -1.82267 0
M  V30 23756 S 2290.73 3.98641 -1.83386 0
M  V30 23757 H 2287.55 0.592313 -0.393302 0
M  V30 23758 H 2290.15 1.1512 -1.58011 0
M  V30 23759 H 2288.86 2.93152 -2.87211 0
M  V30 23760 H 2288.39 3.69662 -1.34586 0
M  V30 23761 H 2290.4 4.879 -0.903777 0
M  V30 23762 N 2289.58 1.0606 1.16572 0
M  V30 23763 C 2290.83 0.770977 1.86384 0
M  V30 23764 C 2291.14 -0.705097 1.82449 0
M  V30 23765 O 2292.34 -1.10901 2.47817 0
M  V30 23766 C 2290.8 1.32899 3.34464 0
M  V30 23767 C 2290.41 2.83513 3.46878 0
M  V30 23768 C 2292.15 1.1168 4.09546 0
M  V30 23769 C 2290.06 3.32571 4.8903 0
M  V30 23770 H 2288.99 0.284721 0.698176 0
M  V30 23771 H 2291.64 1.27901 1.31581 0
M  V30 23772 H 2290.02 0.748731 3.88857 0
M  V30 23773 H 2291.2 3.4747 3.02657 0
M  V30 23774 H 2289.51 3.03373 2.85226 0
M  V30 23775 H 2292.11 1.45823 5.14431 0
M  V30 23776 H 2292.45 0.0550267 4.16264 0
M  V30 23777 H 2292.98 1.66272 3.61384 0
M  V30 23778 H 2289.72 4.38216 4.87491 0
M  V30 23779 H 2289.24 2.73361 5.33886 0
M  V30 23780 H 2290.92 3.2776 5.57837 0
M  V30 23781 N 2291.06 -1.33168 0.84285 0
M  V30 23782 C 2292.02 -2.27432 0.284105 0
M  V30 23783 C 2293.02 -1.51121 -0.549454 0
M  V30 23784 O 2294.21 -1.70383 -0.362669 0
M  V30 23785 C 2291.34 -3.3559 -0.599325 0
M  V30 23786 H 2292.53 -2.78364 1.11594 0
M  V30 23787 H 2290.09 -1.43639 0.616246 0
M  V30 23788 H 2290.82 -2.89906 -1.45344 0
M  V30 23789 H 2290.61 -3.921 -0.00284374 0
M  V30 23790 H 2292.1 -4.05855 -0.983417 0
M  V30 23791 N 2292.53 -0.599659 -1.45746 0
M  V30 23792 C 2293.48 0.123808 -2.30468 0
M  V30 23793 C 2294.45 0.867715 -1.41633 0
M  V30 23794 O 2295.64 0.855026 -1.70569 0
M  V30 23795 C 2292.78 1.12046 -3.26404 0
M  V30 23796 C 2291.89 0.378245 -4.30341 0
M  V30 23797 C 2291.02 1.36391 -5.13392 0
M  V30 23798 C 2290.06 0.609064 -6.09062 0
M  V30 23799 N 2289.2 1.54362 -6.84921 0
M  V30 23800 H 2294.04 -0.604678 -2.91801 0
M  V30 23801 H 2291.58 -0.309997 -1.43796 0
M  V30 23802 H 2293.53 1.71134 -3.80485 0
M  V30 23803 H 2292.16 1.81645 -2.66842 0
M  V30 23804 H 2291.22 -0.327996 -3.78983 0
M  V30 23805 H 2292.53 -0.211084 -4.98353 0
M  V30 23806 H 2291.68 2.02709 -5.71834 0
M  V30 23807 H 2290.42 1.98717 -4.45379 0
M  V30 23808 H 2289.43 -0.0677945 -5.49758 0
M  V30 23809 H 2290.65 -0.00903928 -6.79099 0
M  V30 23810 H 2288.6 2.15467 -6.19605 0
M  V30 23811 H 2288.51 1.00753 -7.49256 0
M  V30 23812 H 2289.78 2.19663 -7.47909 0
M  V30 23813 N 2294.01 1.53925 -0.338371 0
M  V30 23814 C 2295.24 2.05244 0.261262 0
M  V30 23815 C 2295.65 1.21366 1.44623 0
M  V30 23816 O 2295.01 0.247768 1.8081 0
M  V30 23817 C 2295.06 3.55021 0.68135 0
M  V30 23818 O 2294.78 4.35715 -0.456491 0
M  V30 23819 C 2296.28 4.22491 1.34224 0
M  V30 23820 H 2293.5 0.669032 0.0513568 0
M  V30 23821 H 2296.05 1.98571 -0.488857 0
M  V30 23822 H 2294.2 3.61933 1.38142 0
M  V30 23823 H 2294.62 5.24357 -0.122656 0
M  V30 23824 H 2296.09 5.28695 1.58698 0
M  V30 23825 H 2296.57 3.74518 2.29419 0
M  V30 23826 H 2297.17 4.19758 0.68435 0
M  V30 23827 N 2295.49 0.0668712 1.57458 0
M  V30 23828 C 2296.74 -0.60218 1.9292 0
M  V30 23829 C 2297.06 -1.70447 0.947245 0
M  V30 23830 O 2296.33 -1.95899 -0.00540674 0
M  V30 23831 H 2294.91 -0.225428 0.712174 0
M  V30 23832 H 2297.57 0.123569 1.94508 0
M  V30 23833 H 2296.67 -1.03067 2.9459 0
M  V30 23834 N 2296.97 -1.56239 -0.206647 0
M  V30 23835 C 2297.9 -1.90132 -1.27994 0
M  V30 23836 C 2298.91 -0.790908 -1.42297 0
M  V30 23837 O 2300.1 -1.06928 -1.42929 0
M  V30 23838 C 2297.2 -2.10796 -2.65364 0
M  V30 23839 C 2296.37 -3.41891 -2.72818 0
M  V30 23840 C 2295.43 -3.51806 -3.91304 0
M  V30 23841 O 2294.46 -4.24722 -3.78946 0
M  V30 23842 N 2295.66 -2.84043 -5.0626 0
M  V30 23843 H 2298.43 -2.82793 -0.992394 0
M  V30 23844 H 2295.99 -1.56967 -0.396624 0
M  V30 23845 H 2297.98 -2.1473 -3.43035 0
M  V30 23846 H 2296.55 -1.2469 -2.86655 0
M  V30 23847 H 2295.77 -3.49926 -1.81509 0
M  V30 23848 H 2297.06 -4.28222 -2.74779 0
M  V30 23849 H 2296.46 -2.24609 -5.19199 0
M  V30 23850 H 2295.01 -2.93619 -5.8192 0
M  V30 23851 N 2298.45 0.473929 -1.50305 0
M  V30 23852 C 2299.69 1.2238 -1.60834 0
M  V30 23853 C 2300.01 1.92529 -0.309424 0
M  V30 23854 O 2299.28 1.8398 0.672928 0
M  V30 23855 H 2297.86 0.454712 -0.59266 0
M  V30 23856 H 2300.53 0.546935 -1.87069 0
M  V30 23857 H 2299.62 1.97323 -2.41806 0
M  V30 23858 N 2299.92 1.39835 0.726907 0
M  V30 23859 C 2300.83 1.41492 1.87128 0
M  V30 23860 C 2301.85 0.308787 1.71238 0
M  V30 23861 O 2303.03 0.551563 1.937 0
M  V30 23862 C 2300.09 1.26473 3.22809 0
M  V30 23863 C 2299.15 2.4713 3.51034 0
M  V30 23864 C 2298.38 2.32818 4.80241 0
M  V30 23865 O 2298.61 1.33595 5.54534 0
M  V30 23866 O 2297.54 3.21966 5.08548 0
M  V30 23867 H 2301.37 2.37974 1.88686 0
M  V30 23868 H 2298.95 1.21037 0.875815 0
M  V30 23869 H 2300.83 1.20262 4.03875 0
M  V30 23870 H 2299.51 0.330919 3.22004 0
M  V30 23871 H 2298.42 2.58919 2.70022 0
M  V30 23872 H 2299.75 3.39233 3.56626 0
M  V30 23873 N 2301.4 -0.957948 1.25144 0
M  V30 23874 C 2302.65 -1.70215 1.09695 0
M  V30 23875 C 2302.98 -1.9109 -0.362621 0
M  V30 23876 O 2302.23 -1.47703 -1.28383 0
M  V30 23877 C 2302.53 -3.09183 1.79277 0
M  V30 23878 C 2302.2 -3.08119 3.29201 0
M  V30 23879 C 2300.86 -3.07536 3.70101 0
M  V30 23880 C 2303.21 -3.01702 4.25 0
M  V30 23881 C 2300.54 -2.98281 5.05218 0
M  V30 23882 C 2302.89 -2.93989 5.60137 0
M  V30 23883 C 2301.55 -2.9174 6.0037 0
M  V30 23884 H 2300.82 -0.622861 0.401404 0
M  V30 23885 H 2303.47 -1.11942 1.55374 0
M  V30 23886 H 2301.78 -3.7098 1.2602 0
M  V30 23887 H 2303.47 -3.6558 1.6478 0
M  V30 23888 H 2300.06 -3.09343 2.96656 0
M  V30 23889 H 2304.25 -3.01274 3.94395 0
M  V30 23890 H 2299.5 -2.94906 5.35575 0
M  V30 23891 H 2303.68 -2.87984 6.34065 0
M  V30 23892 H 2301.3 -2.84324 7.05028 0
M  V30 23893 N 2302.88 -1.06677 -1.16008 0
M  V30 23894 C 2304.11 -0.806701 -1.90525 0
M  V30 23895 C 2304.52 0.639365 -1.77644 0
M  V30 23896 O 2303.88 1.43802 -1.12372 0
M  V30 23897 C 2303.93 -1.19711 -3.41104 0
M  V30 23898 O 2303.65 -2.58643 -3.53604 0
M  V30 23899 C 2305.15 -0.965343 -4.32662 0
M  V30 23900 H 2302.37 -0.292177 -0.604048 0
M  V30 23901 H 2304.92 -1.42142 -1.47023 0
M  V30 23902 H 2303.07 -0.626841 -3.82295 0
M  V30 23903 H 2303.49 -2.74383 -4.47006 0
M  V30 23904 H 2304.96 -1.28809 -5.36761 0
M  V30 23905 H 2305.44 0.0987165 -4.39089 0
M  V30 23906 H 2306.04 -1.52018 -3.97204 0
M  V30 23907 N 2304.36 1.32719 -0.8499 0
M  V30 23908 C 2305.29 2.26977 -0.235943 0
M  V30 23909 C 2306.27 1.50178 0.623329 0
M  V30 23910 O 2307.45 1.79317 0.581175 0
M  V30 23911 C 2304.58 3.32054 0.667654 0
M  V30 23912 C 2303.63 4.26338 -0.117605 0
M  V30 23913 S 2304.46 5.1456 -1.48286 0
M  V30 23914 C 2305.61 6.23162 -0.58485 0
M  V30 23915 H 2305.85 2.78703 -1.035 0
M  V30 23916 H 2303.38 1.40178 -0.647264 0
M  V30 23917 H 2305.34 3.93074 1.18336 0
M  V30 23918 H 2304 2.79122 1.44047 0
M  V30 23919 H 2303.19 5.00762 0.570422 0
M  V30 23920 H 2302.79 3.69712 -0.564733 0
M  V30 23921 H 2305.09 6.77166 0.212849 0
M  V30 23922 H 2306.03 6.96072 -1.29959 0
M  V30 23923 H 2306.44 5.6427 -0.161301 0
M  V30 23924 N 2305.84 0.60738 1.45426 0
M  V30 23925 C 2306.77 -0.0988942 2.3329 0
M  V30 23926 C 2307.75 -0.858981 1.46818 0
M  V30 23927 O 2308.93 -0.829573 1.7559 0
M  V30 23928 C 2306.06 -1.09699 3.2952 0
M  V30 23929 C 2305.02 -0.450131 4.25626 0
M  V30 23930 C 2304.34 -1.55646 5.11545 0
M  V30 23931 C 2305.64 0.628546 5.18504 0
M  V30 23932 H 2307.34 0.634767 2.92594 0
M  V30 23933 H 2304.88 0.306706 1.40696 0
M  V30 23934 H 2306.84 -1.59964 3.89858 0
M  V30 23935 H 2305.56 -1.86124 2.68375 0
M  V30 23936 H 2304.22 0.0316531 3.66586 0
M  V30 23937 H 2303.87 -2.31099 4.46769 0
M  V30 23938 H 2303.57 -1.12915 5.76649 0
M  V30 23939 H 2305.09 -2.06138 5.74752 0
M  V30 23940 H 2306.5 0.209978 5.72915 0
M  V30 23941 H 2304.9 0.977593 5.92084 0
M  V30 23942 H 2305.97 1.50522 4.60946 0
M  V30 23943 N 2307.31 -1.53743 0.34653 0
M  V30 23944 C 2308.56 -2.00565 -0.248577 0
M  V30 23945 C 2308.88 -1.23596 -1.50828 0
M  V30 23946 O 2308.15 -0.343946 -1.92857 0
M  V30 23947 H 2306.73 -0.740955 -0.0948434 0
M  V30 23948 H 2309.4 -1.89188 0.468375 0
M  V30 23949 H 2308.49 -3.08246 -0.48894 0
M  V30 23950 N 2308.79 -0.0752207 -1.5742 0
M  V30 23951 C 2310.04 0.592697 -1.92795 0
M  V30 23952 C 2310.35 1.70561 -0.957508 0
M  V30 23953 O 2311.56 2.43333 -1.20421 0
M  V30 23954 C 2310.02 1.10563 -3.42497 0
M  V30 23955 C 2309.62 0.0235334 -4.47994 0
M  V30 23956 C 2311.37 1.74741 -3.86867 0
M  V30 23957 C 2309.28 0.550699 -5.8883 0
M  V30 23958 H 2308.21 0.225164 -0.719595 0
M  V30 23959 H 2310.86 -0.14801 -1.82902 0
M  V30 23960 H 2309.24 1.8994 -3.47475 0
M  V30 23961 H 2310.41 -0.751179 -4.54636 0
M  V30 23962 H 2308.73 -0.522232 -4.13112 0
M  V30 23963 H 2311.32 2.1522 -4.89474 0
M  V30 23964 H 2311.67 2.60876 -3.24421 0
M  V30 23965 H 2312.2 1.01979 -3.84506 0
M  V30 23966 H 2308.94 -0.273572 -6.54929 0
M  V30 23967 H 2308.46 1.29286 -5.85701 0
M  V30 23968 H 2310.14 1.02602 -6.38813 0
M  V30 23969 N 2310.27 1.56347 0.198358 0
M  V30 23970 C 2311.52 1.81603 0.916083 0
M  V30 23971 C 2311.87 0.651776 1.81024 0
M  V30 23972 O 2311.16 -0.353196 1.88316 0
M  V30 23973 C 2311.36 3.10478 1.77025 0
M  V30 23974 C 2311.19 4.39327 0.960287 0
M  V30 23975 C 2309.96 5.01154 0.646005 0
M  V30 23976 C 2312.16 5.13337 0.314538 0
M  V30 23977 N 2310.14 6.13627 -0.182935 0
M  V30 23978 C 2311.51 6.18854 -0.376748 0
M  V30 23979 C 2313.56 4.97369 0.229931 0
M  V30 23980 C 2312.27 7.10135 -1.14458 0
M  V30 23981 C 2314.29 5.8907 -0.524493 0
M  V30 23982 C 2313.65 6.9403 -1.20424 0
M  V30 23983 H 2309.75 0.715874 0.31472 0
M  V30 23984 H 2312.34 1.93818 0.185068 0
M  V30 23985 H 2310.51 2.99503 2.4729 0
M  V30 23986 H 2312.24 3.23834 2.42721 0
M  V30 23987 H 2309 4.63568 0.969642 0
M  V30 23988 H 2309.42 6.74451 -0.586921 0
M  V30 23989 H 2314.06 4.16254 0.741111 0
M  V30 23990 H 2311.78 7.90715 -1.6672 0
M  V30 23991 H 2315.37 5.78788 -0.591269 0
M  V30 23992 H 2314.25 7.63763 -1.77866 0
M  V30 23993 N 2311.75 -0.465951 1.50554 0
M  V30 23994 C 2313.03 -1.22709 1.52322 0
M  V30 23995 C 2313.41 -2.09355 0.270844 0
M  V30 23996 O 2312.75 -2.15997 -0.745503 0
M  V30 23997 C 2312.96 -2.05369 2.82178 0
M  V30 23998 C 2314.31 -2.63384 3.33037 0
M  V30 23999 O 2315.34 -2.15607 2.83535 0
M  V30 24000 O 2314.19 -3.50449 4.19342 0
M  V30 24001 H 2311.29 -0.557111 0.611193 0
M  V30 24002 H 2313.83 -0.477353 1.62848 0
M  V30 24003 H 2312.61 -1.41551 3.648 0
M  V30 24004 H 2312.23 -2.87466 2.7468 0
M  V30 24005 N 2313.23 -1.40218 -0.719481 0
M  V30 24006 C 2314.17 -1.40175 -1.83357 0
M  V30 24007 C 2315.14 -0.259235 -1.64065 0
M  V30 24008 O 2316.33 -0.456709 -1.85253 0
M  V30 24009 C 2313.47 -1.26629 -3.21028 0
M  V30 24010 C 2312.58 -2.50554 -3.51918 0
M  V30 24011 C 2311.72 -2.2948 -4.79075 0
M  V30 24012 C 2310.76 -3.49001 -5.02857 0
M  V30 24013 N 2309.89 -3.27146 -6.21224 0
M  V30 24014 H 2314.73 -2.35402 -1.82729 0
M  V30 24015 H 2312.27 -1.16918 -0.892668 0
M  V30 24016 H 2314.23 -1.16783 -4.00522 0
M  V30 24017 H 2312.86 -0.350232 -3.20894 0
M  V30 24018 H 2311.91 -2.70944 -2.67009 0
M  V30 24019 H 2313.22 -3.39531 -3.65404 0
M  V30 24020 H 2312.38 -2.16965 -5.66578 0
M  V30 24021 H 2311.11 -1.37922 -4.67792 0
M  V30 24022 H 2310.12 -3.61997 -4.13809 0
M  V30 24023 H 2311.34 -4.41481 -5.16015 0
M  V30 24024 H 2309.29 -2.38267 -6.112 0
M  V30 24025 H 2309.21 -4.09687 -6.35368 0
M  V30 24026 H 2310.48 -3.18356 -7.11526 0
M  V30 24027 N 2314.7 0.951297 -1.25651 0
M  V30 24028 C 2315.95 1.69939 -1.11769 0
M  V30 24029 C 2316.31 1.8942 0.337317 0
M  V30 24030 O 2315.6 1.45647 1.24489 0
M  V30 24031 C 2315.79 3.08228 -1.80915 0
M  V30 24032 C 2315.62 3.02239 -3.32989 0
M  V30 24033 C 2314.39 3.05812 -4.02253 0
M  V30 24034 C 2316.59 2.8315 -4.29337 0
M  V30 24035 N 2314.57 2.90015 -5.41077 0
M  V30 24036 C 2315.94 2.75819 -5.55269 0
M  V30 24037 C 2318 2.67856 -4.19712 0
M  V30 24038 C 2316.7 2.54755 -6.72675 0
M  V30 24039 C 2318.73 2.48164 -5.36813 0
M  V30 24040 C 2318.09 2.41556 -6.61687 0
M  V30 24041 H 2314.19 0.629673 -0.463719 0
M  V30 24042 H 2316.77 1.12656 -1.58798 0
M  V30 24043 H 2314.94 3.63671 -1.36376 0
M  V30 24044 H 2316.67 3.71838 -1.59745 0
M  V30 24045 H 2313.43 3.15133 -3.53537 0
M  V30 24046 H 2313.85 2.85312 -6.13943 0
M  V30 24047 H 2318.5 2.71737 -3.23912 0
M  V30 24048 H 2316.21 2.49616 -7.68582 0
M  V30 24049 H 2319.8 2.3725 -5.31229 0
M  V30 24050 H 2318.68 2.26518 -7.50772 0
M  V30 24051 N 2316.18 1.07291 1.1544 0
M  V30 24052 C 2317.15 0.696629 2.18357 0
M  V30 24053 C 2318.15 -0.262809 1.58638 0
M  V30 24054 O 2319.34 -0.0438503 1.74145 0
M  V30 24055 C 2316.47 0.026675 3.4089 0
M  V30 24056 H 2317.66 1.6078 2.5316 0
M  V30 24057 H 2315.21 0.869365 1.29891 0
M  V30 24058 H 2315.95 -0.896767 3.11655 0
M  V30 24059 H 2315.73 0.716725 3.85494 0
M  V30 24060 H 2317.22 -0.221954 4.1701 0
M  V30 24061 N 2317.66 -1.32267 0.856927 0
M  V30 24062 C 2318.91 -1.97465 0.462104 0
M  V30 24063 C 2319.24 -1.67644 -0.980269 0
M  V30 24064 O 2318.51 -0.965888 -1.68822 0
M  V30 24065 C 2318.8 -3.53143 0.704398 0
M  V30 24066 C 2318.65 -3.92587 2.19536 0
M  V30 24067 C 2319.97 -4.39801 0.162278 0
M  V30 24068 H 2317.09 -0.717275 0.169369 0
M  V30 24069 H 2319.73 -1.56612 1.07577 0
M  V30 24070 H 2317.88 -3.88073 0.182067 0
M  V30 24071 H 2319.55 -3.67824 2.78394 0
M  V30 24072 H 2317.8 -3.41664 2.67298 0
M  V30 24073 H 2318.47 -5.01084 2.31557 0
M  V30 24074 H 2320.94 -4.1162 0.608978 0
M  V30 24075 H 2319.82 -5.47709 0.361361 0
M  V30 24076 H 2320.08 -4.32098 -0.935082 0
M  V30 24077 N 2319.14 -0.615084 -1.45102 0
M  V30 24078 C 2320.07 0.0865209 -2.3334 0
M  V30 24079 C 2321.05 0.851183 -1.47271 0
M  V30 24080 O 2322.23 0.82025 -1.76027 0
M  V30 24081 C 2319.36 1.0795 -3.30097 0
M  V30 24082 C 2318.32 0.427553 -4.25859 0
M  V30 24083 C 2317.64 1.52931 -5.12363 0
M  V30 24084 C 2318.94 -0.656035 -5.18164 0
M  V30 24085 H 2320.64 -0.650275 -2.92253 0
M  V30 24086 H 2318.18 -0.314163 -1.40531 0
M  V30 24087 H 2320.14 1.57894 -3.90701 0
M  V30 24088 H 2318.86 1.84699 -2.69359 0
M  V30 24089 H 2317.52 -0.0510936 -3.66564 0
M  V30 24090 H 2317.17 2.28726 -4.47988 0
M  V30 24091 H 2316.87 1.09855 -5.7724 0
M  V30 24092 H 2318.39 2.03087 -5.75837 0
M  V30 24093 H 2319.81 -0.240358 -5.72796 0
M  V30 24094 H 2318.2 -1.00898 -5.91557 0
M  V30 24095 H 2319.27 -1.52965 -4.60141 0
M  V30 24096 N 2320.62 1.53557 -0.354678 0
M  V30 24097 C 2322.03 1.86268 0.126869 0
M  V30 24098 C 2322.38 1.27561 1.49073 0
M  V30 24099 O 2321.5 0.593437 2.08104 0
M  V30 24100 C 2322.1 3.3797 0.236987 0
M  V30 24101 C 2320.66 3.70519 0.662777 0
M  V30 24102 C 2319.81 2.76601 -0.196701 0
M  V30 24103 H 2322.76 1.47961 -0.573875 0
M  V30 24104 H 2322.78 3.65364 1.06252 0
M  V30 24105 H 2322.29 3.8067 -0.755792 0
M  V30 24106 H 2320.39 3.3337 1.66418 0
M  V30 24107 H 2320.5 4.77029 0.44495 0
M  V30 24108 H 2318.87 2.52517 0.332719 0
M  V30 24109 H 2319.65 3.22133 -1.18682 0
M  V30 24110 N 2322.1 0.083568 1.57378 0
M  V30 24111 C 2323.51 -0.273081 1.57246 0
M  V30 24112 C 2323.71 -1.69224 1.09388 0
M  V30 24113 O 2322.77 -2.4063 0.765093 0
M  V30 24114 C 2324.08 -0.07201 3.00614 0
M  V30 24115 C 2325.63 -0.140645 3.12684 0
M  V30 24116 C 2326.1 0.0322899 4.57989 0
M  V30 24117 N 2327.59 -0.0229271 4.63194 0
M  V30 24118 C 2328.33 0.0862949 5.73335 0
M  V30 24119 N 2327.83 0.249702 6.9235 0
M  V30 24120 N 2329.62 0.0283874 5.62093 0
M  V30 24121 H 2321.77 1.01093 1.86799 0
M  V30 24122 H 2324.03 0.395237 0.86168 0
M  V30 24123 H 2323.74 0.907721 3.39784 0
M  V30 24124 H 2323.61 -0.819296 3.68195 0
M  V30 24125 H 2326 -1.11087 2.73393 0
M  V30 24126 H 2326.08 0.63794 2.47718 0
M  V30 24127 H 2325.72 0.999334 4.97972 0
M  V30 24128 H 2325.65 -0.765846 5.21001 0
M  V30 24129 H 2328.15 -0.147154 3.77613 0
M  V30 24130 H 2328.46 0.324869 7.72117 0
M  V30 24131 H 2326.8 0.285219 6.94415 0
M  V30 24132 H 2329.99 -0.0980586 4.67997 0
M  V30 24133 H 2330.17 0.116959 6.47894 0
M  V30 24134 N 2323.57 -1.5645 -0.190064 0
M  V30 24135 C 2324.52 -1.91349 -1.23974 0
M  V30 24136 C 2325.51 -0.779717 -1.40745 0
M  V30 24137 O 2326.7 -1.04265 -1.43031 0
M  V30 24138 C 2323.83 -2.26083 -2.58343 0
M  V30 24139 C 2322.91 -3.4593 -2.45344 0
M  V30 24140 N 2323.31 -4.63699 -2.02031 0
M  V30 24141 C 2321.6 -3.50167 -2.76223 0
M  V30 24142 C 2322.3 -5.45854 -2.01044 0
M  V30 24143 N 2321.28 -4.86394 -2.42739 0
M  V30 24144 H 2325.08 -2.799 -0.896269 0
M  V30 24145 H 2322.6 -1.57436 -0.398468 0
M  V30 24146 H 2324.59 -2.49273 -3.34169 0
M  V30 24147 H 2323.25 -1.38861 -2.93509 0
M  V30 24148 H 2324.26 -4.88271 -1.72661 0
M  V30 24149 H 2320.94 -2.73374 -3.15552 0
M  V30 24150 H 2322.33 -6.50191 -1.69414 0
M  V30 24151 N 2325.05 0.45796 -1.50799 0
M  V30 24152 C 2326.01 1.53671 -1.70053 0
M  V30 24153 C 2327.01 1.50324 -0.570908 0
M  V30 24154 O 2328.2 1.52711 -0.838153 0
M  V30 24155 C 2325.34 2.93273 -1.73793 0
M  V30 24156 H 2326.53 1.37912 -2.66309 0
M  V30 24157 H 2324.08 0.685246 -1.40478 0
M  V30 24158 H 2324.82 3.14461 -0.792773 0
M  V30 24159 H 2324.6 2.97108 -2.55869 0
M  V30 24160 H 2326.09 3.71567 -1.90598 0
M  V30 24161 N 2326.53 1.40598 0.712035 0
M  V30 24162 C 2327.48 1.41145 1.82611 0
M  V30 24163 C 2328.45 0.267932 1.63925 0
M  V30 24164 O 2329.63 0.466527 1.85009 0
M  V30 24165 C 2326.77 1.2833 3.20352 0
M  V30 24166 C 2325.88 2.52417 3.50585 0
M  V30 24167 C 2325.02 2.32017 4.77851 0
M  V30 24168 C 2324.06 3.51663 5.00999 0
M  V30 24169 N 2323.2 3.30436 6.19481 0
M  V30 24170 H 2328.04 2.36368 1.81478 0
M  V30 24171 H 2325.57 1.1739 0.886455 0
M  V30 24172 H 2327.53 1.18906 3.99897 0
M  V30 24173 H 2326.16 0.367245 3.20704 0
M  V30 24174 H 2325.21 2.72356 2.65568 0
M  V30 24175 H 2326.52 3.41464 3.63598 0
M  V30 24176 H 2325.68 2.19966 5.6542 0
M  V30 24177 H 2324.42 1.40401 4.67054 0
M  V30 24178 H 2323.42 3.64187 4.11884 0
M  V30 24179 H 2324.65 4.44211 5.13666 0
M  V30 24180 H 2322.59 2.41505 6.09927 0
M  V30 24181 H 2322.51 4.1305 6.33187 0
M  V30 24182 H 2323.78 3.22125 7.09828 0
M  V30 24183 N 2328.01 -0.94462 1.26153 0
M  V30 24184 C 2329.42 -1.5052 1.10456 0
M  V30 24185 C 2329.77 -1.93633 -0.316316 0
M  V30 24186 O 2328.89 -1.79583 -1.20743 0
M  V30 24187 C 2329.49 -2.73546 1.99896 0
M  V30 24188 C 2328.05 -3.25883 1.88354 0
M  V30 24189 C 2327.2 -1.98676 1.9345 0
M  V30 24190 H 2330.15 -0.760465 1.39293 0
M  V30 24191 H 2330.17 -3.47729 1.54483 0
M  V30 24192 H 2329.68 -2.42136 3.03301 0
M  V30 24193 H 2327.78 -3.62091 0.8787 0
M  V30 24194 H 2327.89 -3.93222 2.73703 0
M  V30 24195 H 2326.26 -2.14422 1.3746 0
M  V30 24196 H 2327.04 -1.69602 2.98479 0
M  V30 24197 N 2329.49 -1.07901 -1.1487 0
M  V30 24198 C 2330.73 -0.803973 -1.8542 0
M  V30 24199 C 2331.05 0.672078 -1.83052 0
M  V30 24200 O 2330.32 1.487 -1.27534 0
M  V30 24201 H 2328.9 -0.29442 -0.686532 0
M  V30 24202 H 2331.57 -1.36393 -1.39223 0
M  V30 24203 H 2330.66 -1.14351 -2.90397 0
M  V30 24204 N 2330.96 1.31811 -0.863929 0
M  V30 24205 C 2332.24 1.91616 -0.392784 0
M  V30 24206 C 2332.62 1.78652 1.12458 0
M  V30 24207 O 2331.97 1.1904 1.95043 0
M  V30 24208 C 2332.18 3.38048 -0.867445 0
M  V30 24209 C 2333.53 4.15167 -0.890039 0
M  V30 24210 O 2334.55 3.46805 -0.812696 0
M  V30 24211 O 2333.41 5.37256 -1.00089 0
M  V30 24212 H 2330.5 0.818771 -0.116372 0
M  V30 24213 H 2333.05 1.40519 -0.951443 0
M  V30 24214 H 2331.82 3.4147 -1.91087 0
M  V30 24215 H 2331.44 3.96565 -0.286757 0
M  V30 24216 N 2332.44 0.62277 1.44773 0
M  V30 24217 C 2333.39 -0.0994274 2.32387 0
M  V30 24218 C 2334.38 -0.8443 1.4686 0
M  V30 24219 O 2335.59 -0.758146 1.63255 0
M  V30 24220 H 2331.96 -0.0509159 0.750274 0
M  V30 24221 H 2333.94 0.657721 2.91061 0
M  V30 24222 C 2332.68 -1.07313 3.30725 0
M  V30 24223 H 2332.01 -0.509393 3.96542 0
M  V30 24224 H 2333.45 -1.5481 3.94728 0
M  V30 24225 C 2331.91 -2.15425 2.59025 0
M  V30 24226 O 2332.44 -3.23388 2.38291 0
M  V30 24227 N 2330.64 -1.91127 2.18904 0
M  V30 24228 H 2330.19 -1.03333 2.35966 0
M  V30 24229 H 2330.15 -2.63665 1.71255 0
M  V30 24230 N 2333.92 -1.53367 0.362817 0
M  V30 24231 C 2335.17 -2.00398 -0.228845 0
M  V30 24232 C 2335.48 -1.25424 -1.50094 0
M  V30 24233 O 2336.69 -1.63029 -2.17103 0
M  V30 24234 C 2335.14 -3.56969 -0.458354 0
M  V30 24235 C 2334.75 -4.40818 0.798955 0
M  V30 24236 C 2336.5 -4.12363 -1.00782 0
M  V30 24237 C 2334.4 -5.88937 0.539182 0
M  V30 24238 H 2333.33 -0.748694 -0.0892919 0
M  V30 24239 H 2335.98 -1.7708 0.48113 0
M  V30 24240 H 2334.37 -3.76429 -1.22952 0
M  V30 24241 H 2335.54 -4.33131 1.5727 0
M  V30 24242 H 2333.85 -3.96514 1.27144 0
M  V30 24243 H 2336.45 -5.20656 -1.21745 0
M  V30 24244 H 2336.79 -3.66784 -1.96914 0
M  V30 24245 H 2337.33 -3.96691 -0.296891 0
M  V30 24246 H 2334.07 -6.38787 1.47075 0
M  V30 24247 H 2333.59 -5.99479 -0.196116 0
M  V30 24248 H 2335.27 -6.46793 0.163655 0
M  V30 24249 N 2335.4 -0.091913 -1.57332 0
M  V30 24250 C 2336.65 0.572215 -1.93413 0
M  V30 24251 C 2336.96 1.69536 -0.975545 0
M  V30 24252 O 2338.17 2.42042 -1.22995 0
M  V30 24253 C 2336.62 1.06924 -3.4365 0
M  V30 24254 C 2336.23 -0.0239837 -4.47994 0
M  V30 24255 C 2337.97 1.70628 -3.88698 0
M  V30 24256 C 2335.88 0.488215 -5.89381 0
M  V30 24257 H 2334.81 0.217519 -0.721943 0
M  V30 24258 H 2337.46 -0.167401 -1.82735 0
M  V30 24259 H 2335.84 1.86244 -3.4947 0
M  V30 24260 H 2337.02 -0.799357 -4.53814 0
M  V30 24261 H 2335.33 -0.566018 -4.12535 0
M  V30 24262 H 2337.93 2.10016 -4.91729 0
M  V30 24263 H 2338.27 2.57421 -3.2717 0
M  V30 24264 H 2338.81 0.978955 -3.85566 0
M  V30 24265 H 2335.55 -0.343021 -6.54602 0
M  V30 24266 H 2335.07 1.23066 -5.87039 0
M  V30 24267 H 2336.74 0.958205 -6.39865 0
M  V30 24268 N 2336.88 1.56548 0.181765 0
M  V30 24269 C 2338.13 1.80591 0.898316 0
M  V30 24270 C 2338.44 0.667411 1.83861 0
M  V30 24271 O 2339.64 0.792491 2.59676 0
M  V30 24272 C 2338.1 3.19959 1.64785 0
M  V30 24273 C 2337.71 4.41648 0.751711 0
M  V30 24274 C 2339.45 3.53302 2.35325 0
M  V30 24275 C 2337.36 5.72038 1.50088 0
M  V30 24276 H 2336.29 0.673403 0.339182 0
M  V30 24277 H 2338.94 1.82875 0.151381 0
M  V30 24278 H 2337.32 3.11963 2.43916 0
M  V30 24279 H 2338.5 4.608 -0.0018886 0
M  V30 24280 H 2336.81 4.16106 0.156489 0
M  V30 24281 H 2339.41 4.47961 2.9195 0
M  V30 24282 H 2339.75 2.77682 3.10159 0
M  V30 24283 H 2340.28 3.62805 1.63147 0
M  V30 24284 H 2337.02 6.5066 0.795061 0
M  V30 24285 H 2336.54 5.56882 2.22807 0
M  V30 24286 H 2338.22 6.13626 2.05115 0
M  V30 24287 N 2338.35 -0.449957 1.5104 0
M  V30 24288 C 2339.63 -1.21086 1.53615 0
M  V30 24289 C 2340.01 -2.09056 0.293034 0
M  V30 24290 O 2339.36 -2.16775 -0.722552 0
M  V30 24291 C 2339.57 -2.02365 2.84341 0
M  V30 24292 C 2340.92 -2.59837 3.35812 0
M  V30 24293 O 2341.94 -2.12588 2.85806 0
M  V30 24294 O 2340.8 -3.45982 4.23035 0
M  V30 24295 H 2337.89 -0.550597 0.617067 0
M  V30 24296 H 2340.44 -0.460054 1.63345 0
M  V30 24297 H 2339.21 -1.37674 3.66281 0
M  V30 24298 H 2338.84 -2.84537 2.77713 0
M  V30 24299 N 2339.83 -1.40974 -0.704569 0
M  V30 24300 C 2341.11 -1.3034 -1.45845 0
M  V30 24301 C 2341.49 0.0731973 -2.10973 0
M  V30 24302 O 2340.84 1.08682 -2.00999 0
M  V30 24303 C 2341.05 -2.45027 -2.48521 0
M  V30 24304 C 2342.4 -2.85775 -3.14035 0
M  V30 24305 O 2343.42 -2.44701 -2.58844 0
M  V30 24306 O 2342.28 -3.56773 -4.13975 0
M  V30 24307 H 2339.37 -0.512465 -0.649083 0
M  V30 24308 H 2341.92 -1.52918 -0.735809 0
M  V30 24309 H 2340.69 -3.36926 -1.98988 0
M  V30 24310 H 2340.31 -2.24278 -3.28306 0
M  V30 24311 N 2341.31 0.937917 -1.26653 0
M  V30 24312 C 2342.56 1.68698 -1.12556 0
M  V30 24313 C 2342.89 1.9138 0.329748 0
M  V30 24314 O 2342.16 1.49682 1.242 0
M  V30 24315 C 2342.45 3.05978 -1.89867 0
M  V30 24316 C 2342.3 2.90601 -3.43323 0
M  V30 24317 C 2343.62 4.06147 -1.69506 0
M  V30 24318 H 2340.74 0.612249 -0.410268 0
M  V30 24319 H 2343.38 1.0891 -1.55687 0
M  V30 24320 H 2341.53 3.57014 -1.5321 0
M  V30 24321 H 2343.2 2.46762 -3.89752 0
M  V30 24322 H 2341.45 2.26158 -3.70183 0
M  V30 24323 H 2342.12 3.87983 -3.92649 0
M  V30 24324 H 2344.59 3.64085 -2.01449 0
M  V30 24325 H 2343.47 5.0021 -2.2601 0
M  V30 24326 H 2343.73 4.37437 -0.640442 0
M  V30 24327 N 2342.79 1.08509 1.14296 0
M  V30 24328 C 2343.7 0.727792 2.23025 0
M  V30 24329 C 2344.71 -0.26616 1.71952 0
M  V30 24330 O 2345.89 -0.109846 2.011 0
M  V30 24331 C 2342.96 0.143602 3.46402 0
M  V30 24332 C 2342.02 1.1923 4.12411 0
M  V30 24333 C 2341.25 0.635892 5.29898 0
M  V30 24334 O 2341.47 -0.544293 5.67797 0
M  V30 24335 O 2340.41 1.38644 5.85714 0
M  V30 24336 H 2344.23 1.63485 2.55942 0
M  V30 24337 H 2341.82 0.858839 1.22247 0
M  V30 24338 H 2343.7 -0.17933 4.21018 0
M  V30 24339 H 2342.37 -0.736603 3.15208 0
M  V30 24340 H 2341.28 1.56778 3.39664 0
M  V30 24341 H 2342.61 2.04482 4.47714 0
M  V30 24342 N 2344.27 -1.31351 0.870907 0
M  V30 24343 C 2345.51 -1.96964 0.483022 0
M  V30 24344 C 2345.85 -1.68674 -0.962433 0
M  V30 24345 O 2345.12 -0.983739 -1.67788 0
M  V30 24346 C 2345.4 -3.52376 0.741814 0
M  V30 24347 C 2345.26 -3.90236 2.23687 0
M  V30 24348 C 2346.58 -4.39604 0.208915 0
M  V30 24349 H 2343.69 -0.715438 0.176967 0
M  V30 24350 H 2346.34 -1.55462 1.09232 0
M  V30 24351 H 2344.49 -3.87858 0.223217 0
M  V30 24352 H 2346.16 -3.64851 2.82279 0
M  V30 24353 H 2344.4 -3.38809 2.70907 0
M  V30 24354 H 2345.07 -4.986 2.36859 0
M  V30 24355 H 2347.55 -4.10951 0.652601 0
M  V30 24356 H 2346.42 -5.47295 0.419432 0
M  V30 24357 H 2346.69 -4.33065 -0.889199 0
M  V30 24358 N 2345.74 -0.630439 -1.44441 0
M  V30 24359 C 2347.16 -0.217096 -1.85434 0
M  V30 24360 C 2347.51 1.23133 -1.5275 0
M  V30 24361 O 2346.63 1.9368 -0.965239 0
M  V30 24362 C 2347.23 -0.387227 -3.3658 0
M  V30 24363 C 2345.79 -0.0283959 -3.76389 0
M  V30 24364 C 2344.93 -0.700937 -2.68295 0
M  V30 24365 H 2347.88 -0.835644 -1.34917 0
M  V30 24366 H 2347.9 0.37402 -3.78657 0
M  V30 24367 H 2347.42 -1.4415 -3.60336 0
M  V30 24368 H 2345.52 1.02417 -3.58248 0
M  V30 24369 H 2345.63 -0.437976 -4.77094 0
M  V30 24370 H 2343.99 -0.136312 -2.54335 0
M  V30 24371 H 2344.78 -1.75779 -2.94884 0
M  V30 24372 N 2347.22 1.53172 -0.370945 0
M  V30 24373 C 2348.47 2.01632 0.217388 0
M  V30 24374 C 2348.8 1.25759 1.47981 0
M  V30 24375 O 2348.08 0.352798 1.91274 0
M  V30 24376 C 2348.36 3.56557 0.503919 0
M  V30 24377 C 2348.21 4.43117 -0.772508 0
M  V30 24378 C 2349.53 4.20392 1.30226 0
M  V30 24379 H 2346.65 0.73291 0.0775357 0
M  V30 24380 H 2349.29 1.83387 -0.496895 0
M  V30 24381 H 2347.44 3.72233 1.11241 0
M  V30 24382 H 2349.11 4.39227 -1.40987 0
M  V30 24383 H 2347.36 4.10869 -1.39174 0
M  V30 24384 H 2348.03 5.49479 -0.526911 0
M  V30 24385 H 2350.5 4.08581 0.787474 0
M  V30 24386 H 2349.38 5.28808 1.47149 0
M  V30 24387 H 2349.64 3.76809 2.31231 0
M  V30 24388 N 2348.7 0.100255 1.57281 0
M  V30 24389 C 2349.61 -0.870927 2.17835 0
M  V30 24390 C 2350.63 -1.30647 1.14923 0
M  V30 24391 O 2351.8 -1.37333 1.47315 0
M  V30 24392 C 2348.87 -2.11015 2.75088 0
M  V30 24393 C 2347.93 -1.72831 3.92973 0
M  V30 24394 C 2347.16 -2.90846 4.47487 0
M  V30 24395 O 2347.38 -4.05724 4.00929 0
M  V30 24396 O 2346.32 -2.69014 5.38438 0
M  V30 24397 H 2350.14 -0.385697 3.01241 0
M  V30 24398 H 2347.73 -0.124371 1.48881 0
M  V30 24399 H 2349.61 -2.83629 3.11661 0
M  V30 24400 H 2348.29 -2.5858 1.94725 0
M  V30 24401 H 2347.19 -0.97382 3.61203 0
M  V30 24402 H 2348.53 -1.30024 4.74715 0
M  V30 24403 N 2350.18 -1.56643 -0.17346 0
M  V30 24404 C 2351.46 -1.72742 -0.917586 0
M  V30 24405 C 2351.84 -0.661062 -2.00482 0
M  V30 24406 O 2351.18 0.32449 -2.26184 0
M  V30 24407 C 2351.39 -3.15864 -1.48428 0
M  V30 24408 C 2352.74 -3.76758 -1.95803 0
M  V30 24409 O 2353.77 -3.19129 -1.58226 0
M  V30 24410 O 2352.63 -4.77942 -2.65016 0
M  V30 24411 H 2349.72 -0.705346 -0.431759 0
M  V30 24412 H 2352.27 -1.6893 -0.161457 0
M  V30 24413 H 2351.04 -3.84958 -0.701647 0
M  V30 24414 H 2350.66 -3.23993 -2.30465 0
M  V30 24415 N 2351.66 0.44194 -1.51277 0
M  V30 24416 C 2352.62 1.51859 -1.71673 0
M  V30 24417 C 2353.62 1.4971 -0.58682 0
M  V30 24418 O 2354.81 1.51813 -0.854303 0
M  V30 24419 C 2351.94 2.91413 -1.76894 0
M  V30 24420 H 2353.14 1.3508 -2.67756 0
M  V30 24421 H 2350.69 0.670308 -1.41197 0
M  V30 24422 H 2351.42 3.13602 -0.826081 0
M  V30 24423 H 2351.21 2.94378 -2.59006 0
M  V30 24424 H 2352.7 3.69525 -1.94528 0
M  V30 24425 N 2353.14 1.41345 0.697083 0
M  V30 24426 C 2354.08 1.43074 1.81103 0
M  V30 24427 C 2355.05 0.285303 1.63631 0
M  V30 24428 O 2356.24 0.486124 1.84503 0
M  V30 24429 C 2353.38 1.31721 3.18973 0
M  V30 24430 C 2352.49 2.56121 3.47888 0
M  V30 24431 C 2351.63 2.37072 4.75363 0
M  V30 24432 C 2350.66 3.56957 4.97241 0
M  V30 24433 N 2349.8 3.36988 6.15941 0
M  V30 24434 H 2354.64 2.3828 1.7896 0
M  V30 24435 H 2352.18 1.18324 0.873954 0
M  V30 24436 H 2354.14 1.2314 3.98613 0
M  V30 24437 H 2352.77 0.40124 3.20297 0
M  V30 24438 H 2351.82 2.75157 2.62665 0
M  V30 24439 H 2353.13 3.45301 3.59956 0
M  V30 24440 H 2352.28 2.25951 5.63055 0
M  V30 24441 H 2351.02 1.45346 4.65538 0
M  V30 24442 H 2350.03 3.68535 4.07998 0
M  V30 24443 H 2351.25 4.49634 5.08926 0
M  V30 24444 H 2349.2 2.4796 6.07332 0
M  V30 24445 H 2349.12 4.19743 6.2877 0
M  V30 24446 H 2350.38 3.29636 7.06371 0
M  V30 24447 N 2354.61 -0.931187 1.27148 0
M  V30 24448 C 2355.52 -2.06476 1.11376 0
M  V30 24449 C 2356.54 -1.73943 0.0446756 0
M  V30 24450 O 2357.72 -1.99837 0.250452 0
M  V30 24451 C 2354.78 -3.38292 0.758897 0
M  V30 24452 C 2353.84 -3.84546 1.90848 0
M  V30 24453 C 2353.07 -5.10071 1.57045 0
M  V30 24454 O 2353.3 -5.68404 0.476745 0
M  V30 24455 O 2352.23 -5.51612 2.40849 0
M  V30 24456 H 2356.06 -2.22694 2.06497 0
M  V30 24457 H 2353.64 -1.04976 1.06303 0
M  V30 24458 H 2355.52 -4.1747 0.574171 0
M  V30 24459 H 2354.2 -3.2329 -0.162822 0
M  V30 24460 H 2353.11 -3.0627 2.14824 0
M  V30 24461 H 2354.44 -4.04084 2.81028 0
M  V30 24462 N 2356.09 -1.09114 -1.13719 0
M  V30 24463 C 2357.02 -0.749423 -2.21147 0
M  V30 24464 C 2358 0.271446 -1.6792 0
M  V30 24465 O 2359.19 0.140217 -1.93693 0
M  V30 24466 C 2356.32 -0.16572 -3.46904 0
M  V30 24467 C 2355.27 -1.11574 -4.13201 0
M  V30 24468 C 2354.6 -0.393903 -5.33247 0
M  V30 24469 C 2355.9 -2.45686 -4.60908 0
M  V30 24470 H 2357.59 -1.64763 -2.49987 0
M  V30 24471 H 2355.14 -0.793647 -1.20155 0
M  V30 24472 H 2357.09 0.0853919 -4.21313 0
M  V30 24473 H 2355.81 0.767658 -3.1745 0
M  V30 24474 H 2354.47 -1.35208 -3.40756 0
M  V30 24475 H 2354.12 0.543511 -5.00055 0
M  V30 24476 H 2353.82 -1.02731 -5.7855 0
M  V30 24477 H 2355.35 -0.151015 -6.10413 0
M  V30 24478 H 2356.76 -2.26278 -5.26755 0
M  V30 24479 H 2355.16 -3.04785 -5.16939 0
M  V30 24480 H 2356.23 -3.06684 -3.75597 0
M  V30 24481 N 2357.57 1.30887 -0.877861 0
M  V30 24482 C 2358.82 1.95687 -0.488827 0
M  V30 24483 C 2359.13 1.70113 0.965455 0
M  V30 24484 O 2360.34 2.28838 1.461 0
M  V30 24485 C 2358.79 3.50358 -0.823263 0
M  V30 24486 C 2358.4 3.84761 -2.29484 0
M  V30 24487 C 2360.15 4.21508 -0.503083 0
M  V30 24488 C 2358.05 5.32578 -2.57127 0
M  V30 24489 H 2356.98 0.732426 -0.179075 0
M  V30 24490 H 2359.63 1.48941 -1.07185 0
M  V30 24491 H 2358.02 3.95638 -0.169401 0
M  V30 24492 H 2359.19 3.50415 -2.99242 0
M  V30 24493 H 2357.5 3.26696 -2.58184 0
M  V30 24494 H 2360.1 5.30272 -0.686744 0
M  V30 24495 H 2360.44 4.12556 0.557036 0
M  V30 24496 H 2360.98 3.81888 -1.11383 0
M  V30 24497 H 2357.72 5.46574 -3.61853 0
M  V30 24498 H 2357.24 5.68249 -1.91971 0
M  V30 24499 H 2358.92 5.99932 -2.42262 0
M  V30 24500 N 2359.05 0.638091 1.44105 0
M  V30 24501 C 2360.32 0.0759664 1.95452 0
M  V30 24502 C 2360.7 -1.40012 1.57987 0
M  V30 24503 O 2360.05 -2.11804 0.857398 0
M  V30 24504 C 2360.26 0.306193 3.47654 0
M  V30 24505 C 2361.61 0.203083 4.24114 0
M  V30 24506 O 2362.63 0.237933 3.55404 0
M  V30 24507 O 2361.49 0.113923 5.46381 0
M  V30 24508 H 2358.59 -0.0183187 0.826797 0
M  V30 24509 H 2361.13 0.710278 1.54121 0
M  V30 24510 H 2359.91 1.33016 3.67998 0
M  V30 24511 H 2359.53 -0.361921 3.95949 0
M  V30 24512 N 2360.53 -1.52973 0.379063 0
M  V30 24513 C 2361.75 -2.06341 -0.209317 0
M  V30 24514 C 2362.18 -1.24975 -1.4058 0
M  V30 24515 O 2361.53 -0.272186 -1.79245 0
M  V30 24516 C 2361.58 -3.56103 -0.567723 0
M  V30 24517 O 2360.69 -3.77378 -1.66312 0
M  V30 24518 H 2360.03 -0.663439 -0.0272802 0
M  V30 24519 H 2362.56 -1.97247 0.54357 0
M  V30 24520 H 2362.57 -3.99366 -0.834933 0
M  V30 24521 H 2361.24 -4.14765 0.307086 0
M  V30 24522 H 2359.82 -3.46008 -1.39042 0
M  V30 24523 N 2362 -0.108595 -1.57225 0
M  V30 24524 C 2362.91 0.859363 -2.18294 0
M  V30 24525 C 2363.93 1.30036 -1.15614 0
M  V30 24526 O 2365.11 1.36549 -1.48041 0
M  V30 24527 C 2362.17 2.09553 -2.76204 0
M  V30 24528 C 2361.23 1.70745 -3.93884 0
M  V30 24529 C 2360.46 2.88469 -4.49023 0
M  V30 24530 O 2360.69 4.03592 -4.03075 0
M  V30 24531 O 2359.62 2.66155 -5.39857 0
M  V30 24532 H 2363.45 0.369716 -3.01441 0
M  V30 24533 H 2361.03 0.116473 -1.48945 0
M  V30 24534 H 2362.91 2.81972 -3.13161 0
M  V30 24535 H 2361.59 2.57544 -1.96094 0
M  V30 24536 H 2360.5 0.95465 -3.61714 0
M  V30 24537 H 2361.83 1.27505 -4.75398 0
M  V30 24538 N 2363.48 1.56732 0.16515 0
M  V30 24539 C 2364.73 1.81982 0.879036 0
M  V30 24540 C 2365.05 0.686593 1.82513 0
M  V30 24541 O 2364.32 -0.293112 1.93695 0
M  V30 24542 H 2362.9 0.671334 0.327596 0
M  V30 24543 H 2365.56 1.94213 0.163492 0
M  V30 24544 H 2364.66 2.76255 1.45223 0
M  V30 24545 N 2364.96 -0.433911 1.51509 0
M  V30 24546 C 2366.21 -1.18481 1.64591 0
M  V30 24547 C 2366.54 -1.90783 0.362699 0
M  V30 24548 O 2365.81 -1.83743 -0.637859 0
M  V30 24549 C 2366.1 -2.19908 2.85153 0
M  V30 24550 C 2365.95 -1.51667 4.23459 0
M  V30 24551 C 2367.27 -3.20853 3.01233 0
M  V30 24552 H 2364.39 -0.429378 0.599002 0
M  V30 24553 H 2367.03 -0.473615 1.84002 0
M  V30 24554 H 2365.18 -2.80561 2.68733 0
M  V30 24555 H 2366.85 -0.943243 4.51554 0
M  V30 24556 H 2365.1 -0.81896 4.25999 0
M  V30 24557 H 2365.77 -2.25551 5.03816 0
M  V30 24558 H 2368.24 -2.70257 3.16386 0
M  V30 24559 H 2367.12 -3.89111 3.87148 0
M  V30 24560 H 2367.38 -3.87156 2.13454 0
M  V30 24561 N 2366.44 -1.41713 -0.689577 0
M  V30 24562 C 2367.39 -1.44245 -1.82472 0
M  V30 24563 C 2368.38 -0.319803 -1.66354 0
M  V30 24564 O 2369.59 -0.492119 -1.73142 0
M  V30 24565 H 2365.96 -0.451455 -0.601409 0
M  V30 24566 H 2367.93 -2.39902 -1.77453 0
M  V30 24567 C 2366.68 -1.34736 -3.20533 0
M  V30 24568 H 2366 -2.20411 -3.33555 0
M  V30 24569 H 2367.44 -1.40569 -4.0002 0
M  V30 24570 C 2365.9 -0.0603873 -3.36846 0
M  V30 24571 O 2366.43 0.892594 -3.91658 0
M  V30 24572 N 2364.64 0.0176528 -2.90595 0
M  V30 24573 H 2364.19 -0.758615 -2.46176 0
M  V30 24574 H 2364.14 0.878148 -3.01887 0
M  V30 24575 N 2367.92 0.924431 -1.2764 0
M  V30 24576 C 2368.85 2.04242 -1.1317 0
M  V30 24577 C 2369.83 1.70069 -0.0322859 0
M  V30 24578 O 2371.01 1.9309 -0.207362 0
M  V30 24579 C 2368.14 3.38392 -0.781556 0
M  V30 24580 C 2367.1 3.86688 -1.83456 0
M  V30 24581 C 2366.42 5.17681 -1.33831 0
M  V30 24582 C 2367.72 4.0972 -3.23924 0
M  V30 24583 H 2369.42 2.16607 -2.06693 0
M  V30 24584 H 2366.96 1.0408 -0.995155 0
M  V30 24585 H 2368.92 4.16086 -0.66713 0
M  V30 24586 H 2367.64 3.2605 0.189381 0
M  V30 24587 H 2366.3 3.1119 -1.93794 0
M  V30 24588 H 2365.95 5.01733 -0.356738 0
M  V30 24589 H 2365.65 5.50965 -2.04234 0
M  V30 24590 H 2367.17 5.97941 -1.23689 0
M  V30 24591 H 2368.58 4.77973 -3.16567 0
M  V30 24592 H 2366.98 4.54317 -3.92067 0
M  V30 24593 H 2368.05 3.14901 -3.68735 0
M  V30 24594 N 2369.39 1.09715 1.13139 0
M  V30 24595 C 2370.3 0.751406 2.22241 0
M  V30 24596 C 2371.32 -0.247907 1.72225 0
M  V30 24597 O 2372.5 -0.0885109 2.01205 0
M  V30 24598 C 2369.56 0.180334 3.46231 0
M  V30 24599 C 2368.62 1.23597 4.11123 0
M  V30 24600 C 2367.86 0.692059 5.29194 0
M  V30 24601 O 2368.08 -0.48404 5.68343 0
M  V30 24602 O 2367.01 1.44849 5.84211 0
M  V30 24603 H 2370.84 1.6619 2.54194 0
M  V30 24604 H 2368.42 0.871757 1.21329 0
M  V30 24605 H 2370.31 -0.134665 4.21185 0
M  V30 24606 H 2368.98 -0.70313 3.15971 0
M  V30 24607 H 2367.89 1.60371 3.37982 0
M  V30 24608 H 2369.22 2.09219 4.4552 0
M  V30 24609 N 2370.87 -1.30419 0.88479 0
M  V30 24610 C 2371.8 -2.30588 0.367614 0
M  V30 24611 C 2372.78 -1.60982 -0.549436 0
M  V30 24612 O 2373.97 -1.88592 -0.463327 0
M  V30 24613 C 2371.1 -3.44765 -0.418883 0
M  V30 24614 C 2370.05 -4.26066 0.406391 0
M  V30 24615 C 2369.38 -5.32294 -0.506699 0
M  V30 24616 C 2370.68 -4.95606 1.64841 0
M  V30 24617 H 2372.37 -2.74095 1.20467 0
M  V30 24618 H 2369.92 -1.31771 0.580718 0
M  V30 24619 H 2371.87 -4.13903 -0.791322 0
M  V30 24620 H 2370.6 -3.00062 -1.28958 0
M  V30 24621 H 2369.25 -3.58615 0.760967 0
M  V30 24622 H 2368.9 -4.83839 -1.3751 0
M  V30 24623 H 2368.6 -5.87585 0.041686 0
M  V30 24624 H 2370.13 -6.04288 -0.875658 0
M  V30 24625 H 2371.54 -5.57262 1.34656 0
M  V30 24626 H 2369.94 -5.60761 2.13698 0
M  V30 24627 H 2371.01 -4.21743 2.39292 0
M  V30 24628 N 2372.35 -0.645724 -1.43764 0
M  V30 24629 C 2373.58 -0.163592 -2.06252 0
M  V30 24630 C 2373.99 1.16775 -1.48354 0
M  V30 24631 O 2373.35 1.71934 -0.611963 0
M  V30 24632 C 2373.4 -0.0583822 -3.61453 0
M  V30 24633 O 2373.12 -1.33709 -4.17197 0
M  V30 24634 C 2374.62 0.450718 -4.41003 0
M  V30 24635 H 2371.84 -0.0864194 -0.665412 0
M  V30 24636 H 2374.39 -0.884254 -1.84394 0
M  V30 24637 H 2372.54 0.612798 -3.82523 0
M  V30 24638 H 2372.96 -1.1914 -5.10789 0
M  V30 24639 H 2374.43 0.473306 -5.49967 0
M  V30 24640 H 2374.91 1.4806 -4.13491 0
M  V30 24641 H 2375.51 -0.187712 -4.24886 0
M  V30 24642 N 2373.83 1.5277 -0.38717 0
M  V30 24643 C 2374.76 2.29307 0.440511 0
M  V30 24644 C 2375.74 1.32607 1.06533 0
M  V30 24645 O 2376.92 1.61499 1.0785 0
M  V30 24646 C 2374.05 3.09831 1.56914 0
M  V30 24647 C 2373.01 4.14397 1.07047 0
M  V30 24648 C 2372.33 4.83133 2.291 0
M  V30 24649 C 2373.63 5.22113 0.139923 0
M  V30 24650 H 2375.33 2.98744 -0.198079 0
M  V30 24651 H 2372.87 1.43675 -0.0967052 0
M  V30 24652 H 2374.83 3.62131 2.15497 0
M  V30 24653 H 2373.55 2.38123 2.23528 0
M  V30 24654 H 2372.21 3.63075 0.507183 0
M  V30 24655 H 2371.86 4.07975 2.94219 0
M  V30 24656 H 2371.56 5.53807 1.96396 0
M  V30 24657 H 2373.08 5.38236 2.8833 0
M  V30 24658 H 2374.5 5.69785 0.633878 0
M  V30 24659 H 2372.89 6.00021 -0.097254 0
M  V30 24660 H 2373.96 4.78056 -0.811795 0
M  V30 24661 N 2375.31 0.116931 1.57166 0
M  V30 24662 C 2376.56 -0.541372 1.94299 0
M  V30 24663 C 2376.87 -1.67963 1.00239 0
M  V30 24664 O 2378.07 -2.40055 1.2683 0
M  V30 24665 C 2376.53 -1.01443 3.45308 0
M  V30 24666 C 2376.14 0.0952525 4.47899 0
M  V30 24667 C 2377.88 -1.64423 3.91364 0
M  V30 24668 C 2375.79 -0.394388 5.90084 0
M  V30 24669 H 2374.72 -0.206006 0.725312 0
M  V30 24670 H 2377.37 0.196451 1.82445 0
M  V30 24671 H 2375.75 -1.80661 3.52388 0
M  V30 24672 H 2376.93 0.871453 4.52485 0
M  V30 24673 H 2375.24 0.631577 4.11582 0
M  V30 24674 H 2377.84 -2.02167 4.95008 0
M  V30 24675 H 2378.18 -2.52183 3.31224 0
M  V30 24676 H 2378.71 -0.917491 3.87075 0
M  V30 24677 H 2375.45 0.447119 6.53973 0
M  V30 24678 H 2374.97 -1.13711 5.88923 0
M  V30 24679 H 2376.65 -0.856287 6.41309 0
M  V30 24680 N 2376.78 -1.56818 -0.156836 0
M  V30 24681 C 2377.73 -1.97521 -1.1939 0
M  V30 24682 C 2378.7 -0.84129 -1.43218 0
M  V30 24683 O 2379.89 -1.10258 -1.55717 0
M  V30 24684 C 2377.03 -2.35263 -2.52479 0
M  V30 24685 C 2376.14 -3.619 -2.35907 0
M  V30 24686 C 2375.27 -3.88789 -3.61962 0
M  V30 24687 C 2374.31 -5.08728 -3.40386 0
M  V30 24688 N 2373.45 -5.31676 -4.58547 0
M  V30 24689 H 2378.29 -2.85922 -0.839795 0
M  V30 24690 H 2375.83 -1.41465 -0.403239 0
M  V30 24691 H 2377.79 -2.55171 -3.30066 0
M  V30 24692 H 2376.42 -1.49954 -2.85856 0
M  V30 24693 H 2375.47 -3.49824 -1.49423 0
M  V30 24694 H 2376.78 -4.49645 -2.15918 0
M  V30 24695 H 2375.93 -4.09142 -4.47981 0
M  V30 24696 H 2374.67 -2.99447 -3.84945 0
M  V30 24697 H 2373.68 -4.88257 -2.52754 0
M  V30 24698 H 2374.9 -5.99613 -3.18811 0
M  V30 24699 H 2372.85 -4.45287 -4.81721 0
M  V30 24700 H 2372.77 -6.13671 -4.41524 0
M  V30 24701 H 2374.03 -5.5652 -5.45807 0
M  V30 24702 N 2378.26 0.425871 -1.51737 0
M  V30 24703 C 2379.19 1.52491 -1.7683 0
M  V30 24704 C 2380.17 1.58455 -0.618551 0
M  V30 24705 O 2381.36 1.73999 -0.862447 0
M  V30 24706 C 2378.49 2.90471 -1.90379 0
M  V30 24707 C 2377.44 2.99363 -3.05885 0
M  V30 24708 C 2376.77 4.39435 -3.04632 0
M  V30 24709 C 2378.07 2.72387 -4.45649 0
M  V30 24710 H 2379.76 1.31743 -2.68857 0
M  V30 24711 H 2377.31 0.632339 -1.29373 0
M  V30 24712 H 2379.26 3.67327 -2.06516 0
M  V30 24713 H 2377.99 3.12475 -0.950095 0
M  V30 24714 H 2376.64 2.24949 -2.89471 0
M  V30 24715 H 2376.29 4.58424 -2.07018 0
M  V30 24716 H 2375.99 4.46313 -3.82202 0
M  V30 24717 H 2377.52 5.18249 -3.22878 0
M  V30 24718 H 2378.93 3.38971 -4.62354 0
M  V30 24719 H 2377.33 2.90661 -5.25011 0
M  V30 24720 H 2378.4 1.67921 -4.54896 0
M  V30 24721 N 2379.74 1.42077 0.682052 0
M  V30 24722 C 2381.16 1.24843 0.994302 0
M  V30 24723 C 2381.36 0.147424 2.0096 0
M  V30 24724 O 2380.41 -0.483739 2.47823 0
M  V30 24725 C 2381.73 2.60268 1.50602 0
M  V30 24726 C 2383.27 2.67563 1.62417 0
M  V30 24727 C 2383.75 4.03337 2.16987 0
M  V30 24728 N 2385.24 4.05254 2.2433 0
M  V30 24729 C 2385.97 5.07121 2.67612 0
M  V30 24730 N 2385.47 6.19374 3.104 0
M  V30 24731 N 2387.26 4.94479 2.67296 0
M  V30 24732 H 2379.41 2.12398 0.00970174 0
M  V30 24733 H 2381.68 0.945641 0.0668427 0
M  V30 24734 H 2381.38 3.41656 0.834523 0
M  V30 24735 H 2381.26 2.83689 2.48597 0
M  V30 24736 H 2383.64 1.86525 2.28675 0
M  V30 24737 H 2383.73 2.47938 0.629309 0
M  V30 24738 H 2383.37 4.84828 1.5134 0
M  V30 24739 H 2383.3 4.20309 3.1725 0
M  V30 24740 H 2385.79 3.24212 1.94152 0
M  V30 24741 H 2386.1 6.9296 3.42091 0
M  V30 24742 H 2384.45 6.2289 3.08275 0
M  V30 24743 H 2387.64 4.05861 2.33226 0
M  V30 24744 H 2387.81 5.74002 3.00708 0
M  V30 24745 N 2381.22 -0.917649 1.28129 0
M  V30 24746 C 2382.64 -1.19536 1.05751 0
M  V30 24747 C 2382.84 -2.00479 -0.202598 0
M  V30 24748 O 2381.89 -2.35711 -0.905341 0
M  V30 24749 C 2383.2 -1.93374 2.30276 0
M  V30 24750 C 2384.75 -2.06272 2.35416 0
M  V30 24751 C 2385.23 -2.83517 3.59697 0
M  V30 24752 N 2386.72 -2.91081 3.60314 0
M  V30 24753 C 2387.45 -3.5134 4.53153 0
M  V30 24754 N 2386.95 -4.12909 5.56307 0
M  V30 24755 N 2388.74 -3.48841 4.40757 0
M  V30 24756 H 2380.89 -0.377148 2.09025 0
M  V30 24757 H 2383.16 -0.229494 0.919802 0
M  V30 24758 H 2382.86 -1.41323 3.22057 0
M  V30 24759 H 2382.74 -2.93943 2.36384 0
M  V30 24760 H 2385.12 -2.57506 1.44134 0
M  V30 24761 H 2385.2 -1.04891 2.33305 0
M  V30 24762 H 2384.85 -2.32965 4.5132 0
M  V30 24763 H 2384.78 -3.85205 3.59061 0
M  V30 24764 H 2387.27 -2.47333 2.85718 0
M  V30 24765 H 2387.58 -4.56858 6.23298 0
M  V30 24766 H 2385.93 -4.11425 5.60138 0
M  V30 24767 H 2389.12 -2.99948 3.59373 0
M  V30 24768 H 2389.29 -3.95511 5.13298 0
M  V30 24769 N 2382.7 -1.10314 -1.12555 0
M  V30 24770 C 2383.65 -0.745668 -2.20324 0
M  V30 24771 C 2384.64 0.257601 -1.6743 0
M  V30 24772 O 2385.85 0.118101 -1.79612 0
M  V30 24773 H 2382.22 -0.223195 -0.718114 0
M  V30 24774 H 2384.19 -1.66351 -2.4773 0
M  V30 24775 C 2382.94 -0.192323 -3.47168 0
M  V30 24776 H 2382.26 -0.955543 -3.88213 0
M  V30 24777 H 2383.7 0.0197529 -4.23995 0
M  V30 24778 C 2382.16 1.07466 -3.193 0
M  V30 24779 O 2382.69 2.15639 -3.38914 0
M  V30 24780 N 2380.9 0.992799 -2.73115 0
M  V30 24781 H 2380.45 0.112429 -2.57355 0
M  V30 24782 H 2380.4 1.84122 -2.54846 0
M  V30 24783 N 2384.18 1.29948 -0.891694 0
M  V30 24784 C 2385.09 2.317 -0.367732 0
M  V30 24785 C 2386.1 1.65621 0.533457 0
M  V30 24786 O 2387.28 1.96866 0.424963 0
M  V30 24787 C 2384.34 3.44346 0.403345 0
M  V30 24788 C 2383.4 4.26036 -0.528403 0
M  V30 24789 C 2382.64 5.33302 0.20597 0
M  V30 24790 O 2382.86 5.52156 1.43109 0
M  V30 24791 O 2381.79 6.00235 -0.447386 0
M  V30 24792 H 2385.62 2.78481 -1.21168 0
M  V30 24793 H 2383.2 1.3424 -0.655748 0
M  V30 24794 H 2385.09 4.1295 0.83968 0
M  V30 24795 H 2383.76 2.99687 1.22349 0
M  V30 24796 H 2382.67 3.60104 -1.01369 0
M  V30 24797 H 2384 4.74316 -1.31474 0
M  V30 24798 N 2385.65 0.653339 1.4342 0
M  V30 24799 C 2386.6 -0.0381866 2.30768 0
M  V30 24800 C 2387.57 -0.814551 1.44756 0
M  V30 24801 O 2388.76 -0.791131 1.73625 0
M  V30 24802 C 2385.9 -0.998541 3.30338 0
M  V30 24803 C 2385.01 -0.218266 4.31448 0
M  V30 24804 C 2384.14 -1.17243 5.181 0
M  V30 24805 C 2383.18 -0.382595 6.10903 0
M  V30 24806 N 2382.32 -1.28836 6.90178 0
M  V30 24807 H 2387.16 0.712562 2.89355 0
M  V30 24808 H 2384.7 0.363153 1.42547 0
M  V30 24809 H 2386.65 -1.56894 3.86575 0
M  V30 24810 H 2385.28 -1.71616 2.734 0
M  V30 24811 H 2384.34 0.468427 3.77505 0
M  V30 24812 H 2385.65 0.395899 4.97226 0
M  V30 24813 H 2384.8 -1.81346 5.78963 0
M  V30 24814 H 2383.54 -1.8205 4.52448 0
M  V30 24815 H 2382.55 0.271787 5.49128 0
M  V30 24816 H 2383.77 0.261076 6.78598 0
M  V30 24817 H 2381.72 -1.92323 6.27175 0
M  V30 24818 H 2381.63 -0.728755 7.52479 0
M  V30 24819 H 2382.9 -1.91753 7.55547 0
M  V30 24820 N 2387.13 -1.52563 0.395266 0
M  V30 24821 C 2388.38 -2.01653 -0.185008 0
M  V30 24822 C 2388.71 -1.28149 -1.46315 0
M  V30 24823 O 2387.96 -0.372108 -1.9213 0
M  V30 24824 C 2388.26 -3.53978 -0.493382 0
M  V30 24825 C 2387.93 -4.45528 0.693918 0
M  V30 24826 C 2386.59 -4.70273 1.01962 0
M  V30 24827 C 2388.94 -4.9951 1.48794 0
M  V30 24828 C 2386.27 -5.46248 2.14079 0
M  V30 24829 C 2388.62 -5.76711 2.59975 0
M  V30 24830 C 2387.28 -5.99733 2.93047 0
M  V30 24831 H 2386.55 -0.737901 -0.0676994 0
M  V30 24832 H 2389.2 -1.83909 0.533839 0
M  V30 24833 H 2387.51 -3.69828 -1.29363 0
M  V30 24834 H 2389.2 -3.8946 -0.955095 0
M  V30 24835 H 2385.79 -4.26437 0.430062 0
M  V30 24836 H 2389.98 -4.80313 1.24954 0
M  V30 24837 H 2385.23 -5.62297 2.40066 0
M  V30 24838 H 2389.41 -6.17539 3.21898 0
M  V30 24839 H 2387.03 -6.58386 3.80042 0
M  V30 24840 N 2388.61 -0.125265 -1.57101 0
M  V30 24841 C 2390.03 0.231294 -1.57915 0
M  V30 24842 C 2390.23 1.66264 -1.13836 0
M  V30 24843 O 2389.28 2.38516 -0.828623 0
M  V30 24844 C 2390.59 -0.00771775 -3.00699 0
M  V30 24845 C 2392.14 0.0576933 -3.12947 0
M  V30 24846 C 2392.62 -0.153706 -4.57742 0
M  V30 24847 N 2394.11 -0.0998887 -4.63092 0
M  V30 24848 C 2394.84 -0.238274 -5.72905 0
M  V30 24849 N 2394.34 -0.433179 -6.91444 0
M  V30 24850 N 2396.13 -0.177406 -5.6182 0
M  V30 24851 H 2388.28 -1.0601 -1.84053 0
M  V30 24852 H 2390.55 -0.417944 -0.850898 0
M  V30 24853 H 2390.25 -0.99749 -3.37258 0
M  V30 24854 H 2390.13 0.721387 -3.70238 0
M  V30 24855 H 2392.51 1.038 -2.76242 0
M  V30 24856 H 2392.59 -0.703393 -2.45939 0
M  V30 24857 H 2392.24 -1.13101 -4.95147 0
M  V30 24858 H 2392.17 0.627442 -5.22849 0
M  V30 24859 H 2394.66 0.0469846 -3.77871 0
M  V30 24860 H 2394.97 -0.529468 -7.70984 0
M  V30 24861 H 2393.32 -0.469231 -6.93414 0
M  V30 24862 H 2396.51 -0.0260571 -4.68093 0
M  V30 24863 H 2396.68 -0.288696 -6.47357 0
M  V30 24864 N 2390.09 1.56899 0.148518 0
M  V30 24865 C 2391.36 1.7418 0.889988 0
M  V30 24866 C 2391.74 0.692874 1.99405 0
M  V30 24867 O 2391.09 -0.288465 2.26672 0
M  V30 24868 C 2391.3 3.18186 1.43384 0
M  V30 24869 C 2392.65 3.79825 1.89784 0
M  V30 24870 O 2393.67 3.21605 1.53129 0
M  V30 24871 O 2392.53 4.82098 2.57379 0
M  V30 24872 H 2389.63 0.712126 0.420483 0
M  V30 24873 H 2392.17 1.69166 0.134561 0
M  V30 24874 H 2390.95 3.86025 0.640315 0
M  V30 24875 H 2390.57 3.27619 2.25281 0
M  V30 24876 N 2391.57 -0.417818 1.51961 0
M  V30 24877 C 2392.81 -1.16261 1.64822 0
M  V30 24878 C 2393.13 -1.91875 0.37992 0
M  V30 24879 O 2394.33 -2.6871 0.388201 0
M  V30 24880 C 2392.79 -2.11545 2.91165 0
M  V30 24881 C 2392.4 -1.41487 4.25071 0
M  V30 24882 C 2394.14 -2.86336 3.13388 0
M  V30 24883 C 2392.05 -2.35369 5.42545 0
M  V30 24884 H 2390.98 -0.437684 0.613962 0
M  V30 24885 H 2393.63 -0.427839 1.78443 0
M  V30 24886 H 2392.01 -2.88538 2.71223 0
M  V30 24887 H 2393.19 -0.699183 4.55465 0
M  V30 24888 H 2391.5 -0.78772 4.08881 0
M  V30 24889 H 2394.1 -3.56703 3.9833 0
M  V30 24890 H 2394.44 -3.48794 2.27263 0
M  V30 24891 H 2394.97 -2.16445 3.33761 0
M  V30 24892 H 2391.71 -1.7757 6.3099 0
M  V30 24893 H 2391.23 -3.04936 5.16502 0
M  V30 24894 H 2392.91 -2.96083 5.75277 0
M  V30 24895 N 2393.04 -1.42436 -0.674508 0
M  V30 24896 C 2394.46 -1.25369 -0.987668 0
M  V30 24897 C 2394.66 -0.158079 -2.00879 0
M  V30 24898 O 2393.72 0.470589 -2.48076 0
M  V30 24899 C 2395.03 -2.61063 -1.4922 0
M  V30 24900 C 2396.58 -2.6842 -1.60996 0
M  V30 24901 C 2397.05 -4.04482 -2.14845 0
M  V30 24902 N 2398.54 -4.06438 -2.22177 0
M  V30 24903 C 2399.28 -5.08533 -2.64919 0
M  V30 24904 N 2398.77 -6.21011 -3.07111 0
M  V30 24905 N 2400.57 -4.95889 -2.6467 0
M  V30 24906 H 2392.72 -2.124 0.00156237 0
M  V30 24907 H 2394.98 -0.945982 -0.0618268 0
M  V30 24908 H 2394.69 -3.42093 -0.816393 0
M  V30 24909 H 2394.56 -2.85003 -2.47089 0
M  V30 24910 H 2396.95 -1.87736 -2.27683 0
M  V30 24911 H 2397.03 -2.48268 -0.616151 0
M  V30 24912 H 2396.67 -4.85624 -1.48767 0
M  V30 24913 H 2396.6 -4.21986 -3.15017 0
M  V30 24914 H 2399.09 -3.25237 -1.9243 0
M  V30 24915 H 2399.41 -6.94765 -3.38411 0
M  V30 24916 H 2397.75 -6.24516 -3.04967 0
M  V30 24917 H 2400.94 -4.07092 -2.3107 0
M  V30 24918 H 2401.12 -5.75589 -2.97659 0
M  V30 24919 N 2394.52 0.910841 -1.28614 0
M  V30 24920 C 2395.77 1.65699 -1.15708 0
M  V30 24921 C 2396.09 1.92769 0.294126 0
M  V30 24922 O 2395.36 1.5459 1.20328 0
M  V30 24923 H 2393.94 0.614159 -0.425227 0
M  V30 24924 H 2396.6 1.09277 -1.61383 0
M  V30 24925 H 2395.7 2.61812 -1.69885 0
M  V30 24926 N 2396 1.10909 1.11969 0
M  V30 24927 C 2397.25 0.85454 1.83586 0
M  V30 24928 C 2397.58 -0.619867 1.84358 0
M  V30 24929 O 2396.83 -1.47329 1.28812 0
M  V30 24930 C 2397.13 1.35431 3.30746 0
M  V30 24931 C 2396.8 2.84099 3.50141 0
M  V30 24932 C 2395.46 3.24696 3.55142 0
M  V30 24933 C 2397.81 3.79878 3.5685 0
M  V30 24934 C 2395.14 4.59813 3.64402 0
M  V30 24935 C 2397.49 5.14804 3.67641 0
M  V30 24936 C 2396.15 5.54968 3.709 0
M  V30 24937 H 2395.42 0.312698 0.671789 0
M  V30 24938 H 2398.07 1.38654 1.32088 0
M  V30 24939 H 2396.38 0.742429 3.84701 0
M  V30 24940 H 2398.07 1.13377 3.84638 0
M  V30 24941 H 2394.66 2.51691 3.46914 0
M  V30 24942 H 2398.85 3.49617 3.52252 0
M  V30 24943 H 2394.1 4.90346 3.652 0
M  V30 24944 H 2398.28 5.8886 3.71776 0
M  V30 24945 H 2395.9 6.59659 3.77828 0
M  V30 24946 N 2397.48 -1.29474 0.898573 0
M  V30 24947 C 2398.73 -1.94884 0.519898 0
M  V30 24948 C 2399.04 -1.71627 -0.93827 0
M  V30 24949 O 2400.25 -2.31134 -1.42441 0
M  V30 24950 C 2398.7 -3.49003 0.878898 0
M  V30 24951 C 2398.31 -3.81062 2.35576 0
M  V30 24952 C 2400.05 -4.20655 0.570078 0
M  V30 24953 C 2397.96 -5.2842 2.65568 0
M  V30 24954 H 2396.89 -0.729485 0.190704 0
M  V30 24955 H 2399.54 -1.47217 1.09541 0
M  V30 24956 H 2397.92 -3.95318 0.232322 0
M  V30 24957 H 2399.1 -3.4561 3.04779 0
M  V30 24958 H 2397.41 -3.22547 2.63349 0
M  V30 24959 H 2400.01 -5.29112 0.771018 0
M  V30 24960 H 2400.35 -4.1339 -0.491331 0
M  V30 24961 H 2400.89 -3.80068 1.17444 0
M  V30 24962 H 2397.63 -5.40748 3.70502 0
M  V30 24963 H 2397.15 -5.65123 2.00987 0
M  V30 24964 H 2398.82 -5.96002 2.51775 0
M  V30 24965 N 2398.96 -0.660936 -1.43071 0
M  V30 24966 C 2400.37 -0.25638 -1.84931 0
M  V30 24967 C 2400.72 1.19866 -1.55328 0
M  V30 24968 O 2399.84 1.91589 -1.0061 0
M  V30 24969 C 2400.44 -0.458534 -3.35683 0
M  V30 24970 C 2399 -0.108227 -3.76244 0
M  V30 24971 C 2398.14 -0.757688 -2.66748 0
M  V30 24972 H 2401.1 -0.864074 -1.33114 0
M  V30 24973 H 2401.12 0.293617 -3.79365 0
M  V30 24974 H 2400.63 -1.51761 -3.57198 0
M  V30 24975 H 2398.73 0.94795 -3.6034 0
M  V30 24976 H 2398.84 -0.539076 -4.76058 0
M  V30 24977 H 2397.21 -0.190229 -2.53989 0
M  V30 24978 H 2397.99 -1.81995 -2.91089 0
M  V30 24979 N 2400.43 1.52351 -0.403352 0
M  V30 24980 C 2401.66 2.06648 0.176463 0
M  V30 24981 C 2402.08 1.27196 1.38574 0
M  V30 24982 O 2401.44 0.300668 1.78789 0
M  V30 24983 C 2401.49 3.56961 0.510999 0
M  V30 24984 O 2400.59 3.79976 1.60287 0
M  V30 24985 H 2399.94 0.663789 0.016722 0
M  V30 24986 H 2402.47 1.96357 -0.574882 0
M  V30 24987 H 2402.48 4.00643 0.771291 0
M  V30 24988 H 2401.15 4.14224 -0.373033 0
M  V30 24989 H 2399.73 3.48177 1.3352 0
M  V30 24990 N 2401.91 0.133594 1.57033 0
M  V30 24991 C 2402.82 -0.824525 2.19633 0
M  V30 24992 C 2403.84 -1.2818 1.17668 0
M  V30 24993 O 2405.01 -1.34177 1.50195 0
M  V30 24994 C 2402.08 -2.05132 2.79502 0
M  V30 24995 C 2401.14 -1.64457 3.96551 0
M  V30 24996 C 2400.37 -2.81289 4.53555 0
M  V30 24997 O 2400.6 -3.97129 4.09445 0
M  V30 24998 O 2399.53 -2.57532 5.44023 0
M  V30 24999 H 2403.36 -0.321712 3.01991 0
M  V30 25000 H 2400.94 -0.0927627 1.49112 0
M  V30 25001 H 2402.82 -2.76954 3.17607 0
M  V30 25002 H 2401.5 -2.54392 2.00166 0
M  V30 25003 H 2400.41 -0.896984 3.63187 0
M  V30 25004 H 2401.74 -1.19926 4.77366 0
M  V30 25005 N 2403.39 -1.56975 -0.140195 0
M  V30 25006 C 2404.35 -1.97863 -1.15685 0
M  V30 25007 C 2405.35 -0.865998 -1.35488 0
M  V30 25008 O 2406.54 -1.13248 -1.32365 0
M  V30 25009 C 2403.68 -2.30047 -2.51578 0
M  V30 25010 H 2404.87 -2.88868 -0.80592 0
M  V30 25011 H 2402.42 -1.51515 -0.383775 0
M  V30 25012 H 2403.16 -1.41854 -2.9163 0
M  V30 25013 H 2402.94 -3.11175 -2.38563 0
M  V30 25014 H 2404.43 -2.62494 -3.24787 0
M  V30 25015 N 2404.87 0.409753 -1.5218 0
M  V30 25016 C 2406.12 1.15448 -1.6588 0
M  V30 25017 C 2406.44 1.91044 -0.390804 0
M  V30 25018 O 2405.71 1.86668 0.59429 0
M  V30 25019 H 2404.29 0.429166 -0.611412 0
M  V30 25020 H 2406.95 0.467101 -1.8922 0
M  V30 25021 H 2406.05 1.86889 -2.49958 0
M  V30 25022 N 2406.35 1.42792 0.666944 0
M  V30 25023 C 2407.26 1.49302 1.80959 0
M  V30 25024 C 2408.27 0.381138 1.69774 0
M  V30 25025 O 2409.45 0.633222 1.91186 0
M  V30 25026 C 2406.51 1.40051 3.17154 0
M  V30 25027 C 2405.57 2.61796 3.40237 0
M  V30 25028 C 2404.81 2.52977 4.69934 0
M  V30 25029 O 2405.03 1.56995 5.48369 0
M  V30 25030 O 2403.96 3.43246 4.94435 0
M  V30 25031 H 2407.79 2.45762 1.78423 0
M  V30 25032 H 2405.38 1.24642 0.823691 0
M  V30 25033 H 2407.26 1.37283 3.98411 0
M  V30 25034 H 2405.93 0.467194 3.20311 0
M  V30 25035 H 2404.84 2.70138 2.58798 0
M  V30 25036 H 2406.17 3.54053 3.41917 0
M  V30 25037 N 2407.82 -0.904008 1.29095 0
M  V30 25038 C 2409.07 -1.64872 1.1619 0
M  V30 25039 C 2409.39 -1.93487 -0.286708 0
M  V30 25040 O 2410.59 -2.66136 -0.537015 0
M  V30 25041 C 2409.05 -2.9706 2.03183 0
M  V30 25042 C 2408.66 -2.76056 3.52841 0
M  V30 25043 C 2410.4 -3.74971 1.98991 0
M  V30 25044 C 2408.31 -4.03945 4.31952 0
M  V30 25045 H 2407.24 -0.618493 0.431257 0
M  V30 25046 H 2409.89 -1.00241 1.53701 0
M  V30 25047 H 2408.27 -3.62881 1.58536 0
M  V30 25048 H 2409.44 -2.18856 4.0551 0
M  V30 25049 H 2407.76 -2.11547 3.5866 0
M  V30 25050 H 2410.36 -4.69783 2.55359 0
M  V30 25051 H 2410.7 -4.04868 0.968886 0
M  V30 25052 H 2411.23 -3.15985 2.41658 0
M  V30 25053 H 2407.97 -3.79215 5.34674 0
M  V30 25054 H 2407.49 -4.6072 3.84053 0
M  V30 25055 H 2409.17 -4.72126 4.42387 0
M  V30 25056 N 2409.3 -1.11501 -1.11379 0
M  V30 25057 C 2410.25 -0.768994 -2.1952 0
M  V30 25058 C 2411.24 0.239828 -1.67694 0
M  V30 25059 O 2412.45 0.0990439 -1.79727 0
M  V30 25060 H 2408.83 -0.230799 -0.715707 0
M  V30 25061 H 2410.8 -1.68969 -2.45951 0
M  V30 25062 C 2409.55 -0.229134 -3.46944 0
M  V30 25063 H 2408.87 -0.996664 -3.87178 0
M  V30 25064 H 2410.31 -0.0252186 -4.23993 0
M  V30 25065 C 2408.77 1.04074 -3.20422 0
M  V30 25066 O 2409.3 2.12032 -3.41182 0
M  V30 25067 N 2407.5 0.963775 -2.74153 0
M  V30 25068 H 2407.05 0.0851269 -2.57459 0
M  V30 25069 H 2407.01 1.81409 -2.56784 0
M  V30 25070 N 2410.78 1.28995 -0.905426 0
M  V30 25071 C 2411.69 2.31297 -0.392286 0
M  V30 25072 C 2412.71 1.66177 0.51586 0
M  V30 25073 O 2413.88 1.97305 0.404059 0
M  V30 25074 C 2410.95 3.44754 0.3668 0
M  V30 25075 C 2410.01 4.25451 -0.57356 0
M  V30 25076 C 2409.24 5.33491 0.149394 0
M  V30 25077 O 2409.47 5.53643 1.37245 0
M  V30 25078 O 2408.4 5.99727 -0.511024 0
M  V30 25079 H 2412.23 2.77181 -1.24115 0
M  V30 25080 H 2409.81 1.33537 -0.669949 0
M  V30 25081 H 2411.69 4.13817 0.795834 0
M  V30 25082 H 2410.37 3.00968 1.19163 0
M  V30 25083 H 2409.27 3.59009 -1.05182 0
M  V30 25084 H 2410.61 4.72895 -1.36497 0
M  V30 25085 N 2412.26 0.668514 1.42719 0
M  V30 25086 C 2413.22 -0.00444538 2.292 0
M  V30 25087 C 2414.22 -0.735314 1.43003 0
M  V30 25088 O 2415.41 -0.574261 1.64462 0
M  V30 25089 C 2412.54 -1.017 3.25377 0
M  V30 25090 H 2413.74 0.756659 2.90198 0
M  V30 25091 H 2411.29 0.430532 1.50253 0
M  V30 25092 H 2412.03 -1.80681 2.69304 0
M  V30 25093 H 2411.81 -0.496394 3.88945 0
M  V30 25094 H 2413.3 -1.48648 3.90248 0
M  V30 25095 N 2413.74 -1.52135 0.411426 0
M  V30 25096 C 2414.98 -2.02137 -0.163852 0
M  V30 25097 C 2415.32 -1.29638 -1.44595 0
M  V30 25098 O 2414.59 -0.403387 -1.90271 0
M  V30 25099 C 2414.87 -3.57767 -0.409208 0
M  V30 25100 C 2414.73 -4.40913 0.889721 0
M  V30 25101 C 2416.05 -4.23697 -1.19035 0
M  V30 25102 H 2413.17 -0.734708 -0.0580766 0
M  V30 25103 H 2415.81 -1.82006 0.545342 0
M  V30 25104 H 2413.96 -3.75052 -1.01333 0
M  V30 25105 H 2415.63 -4.35334 1.52583 0
M  V30 25106 H 2413.87 -4.07034 1.50018 0
M  V30 25107 H 2414.54 -5.47889 0.672411 0
M  V30 25108 H 2417.02 -4.10525 -0.67887 0
M  V30 25109 H 2415.9 -5.32524 -1.33077 0
M  V30 25110 H 2416.16 -3.82807 -2.21159 0
M  V30 25111 N 2415.22 -0.14192 -1.5696 0
M  V30 25112 C 2416.15 0.795898 -2.19517 0
M  V30 25113 C 2417.13 1.26075 -1.14189 0
M  V30 25114 O 2418.31 1.31923 -1.42513 0
M  V30 25115 C 2415.44 2.03718 -2.81276 0
M  V30 25116 C 2414.4 1.70929 -3.92387 0
M  V30 25117 C 2413.72 3.02279 -4.41057 0
M  V30 25118 C 2415.02 0.959864 -5.13404 0
M  V30 25119 H 2416.72 0.274543 -2.98139 0
M  V30 25120 H 2414.26 0.130611 -1.43406 0
M  V30 25121 H 2416.21 2.69802 -3.23705 0
M  V30 25122 H 2414.94 2.58218 -1.99978 0
M  V30 25123 H 2413.6 1.07226 -3.50568 0
M  V30 25124 H 2413.25 3.54759 -3.56588 0
M  V30 25125 H 2412.95 2.81105 -5.15998 0
M  V30 25126 H 2414.47 3.69443 -4.86153 0
M  V30 25127 H 2415.88 1.52269 -5.52709 0
M  V30 25128 H 2414.28 0.848253 -5.94075 0
M  V30 25129 H 2415.35 -0.0493287 -4.84875 0
M  V30 25130 N 2416.69 1.57047 0.131868 0
M  V30 25131 C 2417.66 1.98473 1.14634 0
M  V30 25132 C 2418.66 0.873171 1.35027 0
M  V30 25133 O 2419.85 1.13949 1.31762 0
M  V30 25134 C 2416.98 2.31378 2.50354 0
M  V30 25135 H 2418.17 2.89292 0.790589 0
M  V30 25136 H 2415.72 1.51717 0.375734 0
M  V30 25137 H 2416.46 1.43398 2.90873 0
M  V30 25138 H 2416.24 3.12436 2.3691 0
M  V30 25139 H 2417.73 2.64213 3.23391 0
M  V30 25140 N 2418.17 -0.401677 1.52395 0
M  V30 25141 C 2419.42 -1.14506 1.66046 0
M  V30 25142 C 2419.73 -1.91461 0.400249 0
M  V30 25143 O 2420.94 -2.68283 0.41668 0
M  V30 25144 C 2419.4 -2.08444 2.93392 0
M  V30 25145 C 2419 -1.36971 4.26548 0
M  V30 25146 C 2420.75 -2.82996 3.16407 0
M  V30 25147 C 2418.65 -2.29601 5.45011 0
M  V30 25148 H 2417.58 -0.431147 0.618569 0
M  V30 25149 H 2420.24 -0.408889 1.78886 0
M  V30 25150 H 2418.62 -2.85645 2.74268 0
M  V30 25151 H 2419.79 -0.650836 4.56181 0
M  V30 25152 H 2418.11 -0.744308 4.09694 0
M  V30 25153 H 2420.7 -3.52458 4.02091 0
M  V30 25154 H 2421.05 -3.46364 2.30949 0
M  V30 25155 H 2421.58 -2.12892 3.36038 0
M  V30 25156 H 2418.32 -1.70868 6.32838 0
M  V30 25157 H 2417.84 -2.9944 5.19707 0
M  V30 25158 H 2419.52 -2.89964 5.78385 0
M  V30 25159 N 2419.65 -1.43144 -0.659362 0
M  V30 25160 C 2420.6 -1.48083 -1.79371 0
M  V30 25161 C 2421.59 -0.355017 -1.65638 0
M  V30 25162 O 2422.8 -0.528734 -1.72059 0
M  V30 25163 H 2419.17 -0.46411 -0.591697 0
M  V30 25164 H 2421.14 -2.43612 -1.72325 0
M  V30 25165 C 2419.89 -1.41505 -3.17603 0
M  V30 25166 H 2419.22 -2.27437 -3.28805 0
M  V30 25167 H 2420.66 -1.49022 -3.96949 0
M  V30 25168 C 2419.11 -0.131824 -3.36642 0
M  V30 25169 O 2419.64 0.809317 -3.93463 0
M  V30 25170 N 2417.85 -0.0439906 -2.90567 0
M  V30 25171 H 2417.4 -0.810662 -2.44512 0
M  V30 25172 H 2417.36 0.813916 -3.03682 0
M  V30 25173 N 2421.13 0.897149 -1.29572 0
M  V30 25174 C 2422.36 1.68127 -1.20585 0
M  V30 25175 C 2422.77 1.87355 0.233148 0
M  V30 25176 O 2422.13 1.41238 1.15577 0
M  V30 25177 C 2422.18 3.06437 -1.91777 0
M  V30 25178 O 2421.9 2.88086 -3.30058 0
M  V30 25179 C 2423.4 4.00851 -1.89298 0
M  V30 25180 H 2420.62 0.525029 -0.417835 0
M  V30 25181 H 2423.16 1.12174 -1.70989 0
M  V30 25182 H 2421.32 3.59159 -1.45202 0
M  V30 25183 H 2421.73 3.75742 -3.65948 0
M  V30 25184 H 2423.21 4.95306 -2.43671 0
M  V30 25185 H 2423.68 4.30515 -0.869089 0
M  V30 25186 H 2424.29 3.54061 -2.35628 0
M  V30 25187 N 2422.61 1.1209 1.10786 0
M  V30 25188 C 2423.83 0.896981 1.87 0
M  V30 25189 C 2424.26 -0.548229 1.79933 0
M  V30 25190 O 2423.61 -1.38777 1.16665 0
M  V30 25191 C 2423.66 1.3718 3.33488 0
M  V30 25192 O 2422.77 0.547903 4.08744 0
M  V30 25193 H 2422.11 0.322555 0.580391 0
M  V30 25194 H 2424.64 1.49208 1.39993 0
M  V30 25195 H 2424.65 1.36928 3.84337 0
M  V30 25196 H 2423.32 2.42414 3.37947 0
M  V30 25197 H 2421.9 0.617098 3.67758 0
M  V30 25198 N 2424.08 -1.28513 0.912254 0
M  V30 25199 C 2425.03 -2.27343 0.397994 0
M  V30 25200 C 2426 -1.57527 -0.526738 0
M  V30 25201 O 2427.19 -1.85435 -0.449259 0
M  V30 25202 C 2424.33 -3.43246 -0.357202 0
M  V30 25203 C 2423.44 -4.27815 0.599863 0
M  V30 25204 C 2422.57 -5.30916 -0.173632 0
M  V30 25205 C 2421.61 -6.07146 0.777146 0
M  V30 25206 N 2420.75 -7.0209 0.0372632 0
M  V30 25207 H 2425.59 -2.70709 1.24582 0
M  V30 25208 H 2423.13 -1.33132 0.625635 0
M  V30 25209 H 2425.08 -4.09237 -0.811228 0
M  V30 25210 H 2423.71 -3.00874 -1.16938 0
M  V30 25211 H 2422.77 -3.61882 1.17242 0
M  V30 25212 H 2424.08 -4.80821 1.32713 0
M  V30 25213 H 2423.23 -6.02783 -0.688288 0
M  V30 25214 H 2421.97 -4.78674 -0.933957 0
M  V30 25215 H 2420.98 -5.34132 1.30319 0
M  V30 25216 H 2422.2 -6.61478 1.537 0
M  V30 25217 H 2420.15 -6.522 -0.705099 0
M  V30 25218 H 2420.06 -7.52711 0.704381 0
M  V30 25219 H 2421.33 -7.78158 -0.457246 0
M  V30 25220 N 2425.56 -0.676073 -1.42362 0
M  V30 25221 C 2426.81 -0.198866 -2.01521 0
M  V30 25222 C 2427.14 1.19502 -1.53458 0
M  V30 25223 O 2426.39 1.81655 -0.727999 0
M  V30 25224 C 2426.69 -0.183493 -3.56929 0
M  V30 25225 C 2426.36 -1.52223 -4.24428 0
M  V30 25226 C 2425.02 -1.88878 -4.42582 0
M  V30 25227 C 2427.37 -2.40385 -4.62455 0
M  V30 25228 C 2424.7 -3.13317 -4.96033 0
M  V30 25229 C 2427.05 -3.64138 -5.17287 0
M  V30 25230 C 2425.72 -4.0096 -5.33654 0
M  V30 25231 H 2424.99 -0.0727701 -0.737418 0
M  V30 25232 H 2427.63 -0.871311 -1.7053 0
M  V30 25233 H 2425.94 0.572464 -3.87595 0
M  V30 25234 H 2427.63 0.202965 -4.00486 0
M  V30 25235 H 2424.22 -1.22709 -4.10659 0
M  V30 25236 H 2428.41 -2.13351 -4.48102 0
M  V30 25237 H 2423.66 -3.41866 -5.0689 0
M  V30 25238 H 2427.84 -4.32653 -5.45696 0
M  V30 25239 H 2425.47 -4.9746 -5.74837 0
M  V30 25240 N 2427.04 1.51915 -0.419488 0
M  V30 25241 C 2428.45 1.86639 0.0477525 0
M  V30 25242 C 2428.8 1.33769 1.43528 0
M  V30 25243 O 2427.93 0.681167 2.054 0
M  V30 25244 C 2428.52 3.38671 0.0934289 0
M  V30 25245 C 2427.08 3.72997 0.505031 0
M  V30 25246 C 2426.23 2.75518 -0.31384 0
M  V30 25247 H 2429.18 1.45394 -0.636113 0
M  V30 25248 H 2429.2 3.69542 0.906602 0
M  V30 25249 H 2428.71 3.77122 -0.916567 0
M  V30 25250 H 2426.81 3.40129 1.52129 0
M  V30 25251 H 2426.93 4.78487 0.242225 0
M  V30 25252 H 2425.29 2.53701 0.225318 0
M  V30 25253 H 2426.07 3.16809 -1.32238 0
M  V30 25254 N 2428.52 0.150242 1.56882 0
M  V30 25255 C 2429.47 -0.805274 2.18216 0
M  V30 25256 C 2430.46 -1.25294 1.14008 0
M  V30 25257 O 2431.67 -1.22104 1.32252 0
M  V30 25258 H 2428.04 -0.277901 0.698767 0
M  V30 25259 H 2430.01 -0.26381 2.97232 0
M  V30 25260 C 2428.76 -2.03304 2.82069 0
M  V30 25261 H 2428.08 -1.69756 3.61971 0
M  V30 25262 H 2429.52 -2.68097 3.28481 0
M  V30 25263 C 2427.98 -2.84312 1.80744 0
M  V30 25264 O 2428.51 -3.80764 1.27989 0
M  V30 25265 N 2426.72 -2.4891 1.49974 0
M  V30 25266 H 2426.27 -1.70539 1.93065 0
M  V30 25267 H 2426.22 -3.03403 0.82427 0
M  V30 25268 N 2430 -1.57115 -0.123538 0
M  V30 25269 C 2430.93 -1.95203 -1.18199 0
M  V30 25270 C 2431.91 -0.821056 -1.40348 0
M  V30 25271 O 2433.09 -1.07882 -1.54576 0
M  V30 25272 C 2430.22 -2.24434 -2.53667 0
M  V30 25273 C 2429.26 -3.47003 -2.47974 0
M  V30 25274 S 2430.1 -4.9975 -1.9238 0
M  V30 25275 C 2431.25 -5.32128 -3.2953 0
M  V30 25276 H 2431.49 -2.84675 -0.857162 0
M  V30 25277 H 2429.02 -1.5083 -0.330113 0
M  V30 25278 H 2430.98 -2.41953 -3.31616 0
M  V30 25279 H 2429.64 -1.35584 -2.8333 0
M  V30 25280 H 2428.83 -3.64807 -3.47752 0
M  V30 25281 H 2428.43 -3.28847 -1.78145 0
M  V30 25282 H 2430.73 -5.27032 -4.25727 0
M  V30 25283 H 2431.67 -6.33401 -3.16558 0
M  V30 25284 H 2432.08 -4.59609 -3.2775 0
M  V30 25285 N 2431.47 0.393589 -1.52606 0
M  V30 25286 C 2432.72 1.13907 -1.67426 0
M  V30 25287 C 2433.05 1.90089 -0.411892 0
M  V30 25288 O 2432.3 1.86094 0.605594 0
M  V30 25289 C 2432.6 2.147 -2.85725 0
M  V30 25290 C 2432.27 1.5521 -4.23345 0
M  V30 25291 C 2430.93 1.38712 -4.60774 0
M  V30 25292 C 2433.28 1.11915 -5.09043 0
M  V30 25293 C 2430.61 0.774587 -5.81564 0
M  V30 25294 C 2432.96 0.520742 -6.30453 0
M  V30 25295 C 2431.63 0.343017 -6.66618 0
M  V30 25296 H 2430.9 0.416815 -0.612655 0
M  V30 25297 H 2433.54 0.424282 -1.86741 0
M  V30 25298 H 2431.85 2.92381 -2.60808 0
M  V30 25299 H 2433.55 2.72282 -2.94386 0
M  V30 25300 H 2430.14 1.69038 -3.93858 0
M  V30 25301 H 2434.32 1.23465 -4.80698 0
M  V30 25302 H 2429.58 0.625047 -6.08197 0
M  V30 25303 H 2433.75 0.176943 -6.96175 0
M  V30 25304 H 2431.38 -0.133705 -7.60082 0
M  V30 25305 N 2432.95 1.43492 0.651762 0
M  V30 25306 C 2434.2 1.44472 1.40751 0
M  V30 25307 C 2434.51 0.0732189 1.95463 0
M  V30 25308 O 2435.72 -0.0395244 2.71471 0
M  V30 25309 C 2434.18 2.54244 2.54731 0
M  V30 25310 C 2433.78 3.97507 2.06621 0
M  V30 25311 C 2435.53 2.6442 3.32088 0
M  V30 25312 C 2433.44 4.98743 3.1782 0
M  V30 25313 H 2432.37 0.53743 0.528853 0
M  V30 25314 H 2435.02 1.69486 0.703335 0
M  V30 25315 H 2433.4 2.22434 3.27626 0
M  V30 25316 H 2434.57 4.38785 1.40727 0
M  V30 25317 H 2432.89 3.91389 1.42139 0
M  V30 25318 H 2435.48 3.3723 4.14946 0
M  V30 25319 H 2435.83 1.69538 3.80214 0
M  V30 25320 H 2436.36 2.95539 2.66274 0
M  V30 25321 H 2433.1 5.95182 2.74661 0
M  V30 25322 H 2432.62 4.62076 3.82421 0
M  V30 25323 H 2434.3 5.21512 3.82928 0
M  V30 25324 N 2434.43 -0.890264 1.30046 0
M  V30 25325 C 2435.84 -1.457 1.16741 0
M  V30 25326 C 2436.19 -1.94801 -0.233905 0
M  V30 25327 O 2435.32 -1.84543 -1.13018 0
M  V30 25328 C 2435.91 -2.64821 2.11318 0
M  V30 25329 C 2434.47 -3.17601 2.02007 0
M  V30 25330 C 2433.62 -1.90293 2.01703 0
M  V30 25331 H 2436.57 -0.700701 1.42393 0
M  V30 25332 H 2436.59 -3.40864 1.69092 0
M  V30 25333 H 2436.1 -2.29054 3.13298 0
M  V30 25334 H 2434.2 -3.58038 1.03148 0
M  V30 25335 H 2434.32 -3.81259 2.90135 0
M  V30 25336 H 2432.68 -2.08399 1.4643 0
M  V30 25337 H 2433.46 -1.5679 3.05404 0
M  V30 25338 N 2435.91 -1.12676 -1.1019 0
M  V30 25339 C 2437.15 -0.884947 -1.82473 0
M  V30 25340 C 2437.49 0.587698 -1.85094 0
M  V30 25341 O 2436.76 1.43455 -1.31343 0
M  V30 25342 C 2437.05 -1.46359 -3.29015 0
M  V30 25343 C 2436.9 -3.00479 -3.34713 0
M  V30 25344 C 2438.22 -1.12526 -4.25471 0
M  V30 25345 H 2435.34 -0.322926 -0.662486 0
M  V30 25346 H 2437.98 -1.39378 -1.29127 0
M  V30 25347 H 2436.13 -1.03084 -3.74574 0
M  V30 25348 H 2437.8 -3.52452 -2.97616 0
M  V30 25349 H 2436.04 -3.35877 -2.74535 0
M  V30 25350 H 2436.71 -3.36061 -4.37912 0
M  V30 25351 H 2439.19 -1.49907 -3.88159 0
M  V30 25352 H 2438.07 -1.55672 -5.26362 0
M  V30 25353 H 2438.33 -0.0378184 -4.42084 0
M  V30 25354 N 2437.39 1.28028 -0.919057 0
M  V30 25355 C 2438.63 1.94362 -0.553872 0
M  V30 25356 C 2438.96 1.72658 0.906326 0
M  V30 25357 O 2438.23 1.06933 1.64141 0
M  V30 25358 H 2436.81 0.719213 -0.201847 0
M  V30 25359 H 2439.47 1.55907 -1.16957 0
M  V30 25360 H 2438.56 3.02885 -0.752811 0
M  V30 25361 N 2438.86 0.683613 1.42002 0
M  V30 25362 C 2439.81 0.0107714 2.30797 0
M  V30 25363 C 2440.78 -0.783662 1.46451 0
M  V30 25364 O 2441.97 -0.754125 1.75264 0
M  V30 25365 C 2439.11 -0.928247 3.32382 0
M  V30 25366 C 2438.22 -0.1267 4.31814 0
M  V30 25367 C 2437.35 -1.06227 5.2047 0
M  V30 25368 C 2436.39 -0.252927 6.11577 0
M  V30 25369 N 2435.53 -1.14167 6.92756 0
M  V30 25370 H 2440.37 0.773778 2.87779 0
M  V30 25371 H 2437.91 0.393307 1.41744 0
M  V30 25372 H 2439.87 -1.48659 3.89816 0
M  V30 25373 H 2438.5 -1.65778 2.76979 0
M  V30 25374 H 2437.55 0.548396 3.76426 0
M  V30 25375 H 2438.86 0.501279 4.96275 0
M  V30 25376 H 2438.01 -1.69025 5.8268 0
M  V30 25377 H 2436.75 -1.72412 4.56207 0
M  V30 25378 H 2435.76 0.388204 5.48428 0
M  V30 25379 H 2436.98 0.404958 6.77892 0
M  V30 25380 H 2434.93 -1.78976 6.31113 0
M  V30 25381 H 2434.85 -0.568979 7.53856 0
M  V30 25382 H 2436.11 -1.75684 7.59444 0
M  V30 25383 N 2440.34 -1.5169 0.427538 0
M  V30 25384 C 2441.59 -2.02299 -0.142404 0
M  V30 25385 C 2441.92 -1.31164 -1.43211 0
M  V30 25386 O 2441.2 -0.423545 -1.89832 0
M  V30 25387 C 2441.48 -3.58181 -0.371238 0
M  V30 25388 C 2441.33 -4.39944 0.936436 0
M  V30 25389 C 2442.65 -4.24935 -1.14534 0
M  V30 25390 H 2439.77 -0.735283 -0.0502808 0
M  V30 25391 H 2442.41 -1.81417 0.564616 0
M  V30 25392 H 2440.56 -3.76106 -0.973493 0
M  V30 25393 H 2442.24 -4.33692 1.57192 0
M  V30 25394 H 2440.48 -4.0542 1.54327 0
M  V30 25395 H 2441.15 -5.47145 0.730484 0
M  V30 25396 H 2443.63 -4.11222 -0.63529 0
M  V30 25397 H 2442.5 -5.33905 -1.27421 0
M  V30 25398 H 2442.76 -3.85131 -2.17086 0
M  V30 25399 N 2441.82 -0.15856 -1.568 0
M  V30 25400 C 2442.77 0.7887 -2.13924 0
M  V30 25401 C 2443.76 1.20158 -1.07008 0
M  V30 25402 O 2444.95 1.16607 -1.33161 0
M  V30 25403 C 2442.08 2.02315 -2.77351 0
M  V30 25404 C 2441.16 1.63283 -3.91407 0
M  V30 25405 N 2441.55 0.951375 -4.96772 0
M  V30 25406 C 2439.85 1.92475 -4.0233 0
M  V30 25407 C 2440.55 0.76112 -5.76699 0
M  V30 25408 N 2439.53 1.29859 -5.27861 0
M  V30 25409 H 2443.33 0.258943 -2.92757 0
M  V30 25410 H 2440.84 0.0425769 -1.62344 0
M  V30 25411 H 2442.84 2.71186 -3.16644 0
M  V30 25412 H 2441.5 2.55797 -1.99995 0
M  V30 25413 H 2442.51 0.610838 -5.14285 0
M  V30 25414 H 2439.19 2.47726 -3.36063 0
M  V30 25415 H 2440.58 0.223166 -6.71529 0
M  V30 25416 N 2443.3 1.57178 0.115204 0
M  V30 25417 C 2444.21 2.0392 1.1599 0
M  V30 25418 C 2445.23 0.960293 1.45101 0
M  V30 25419 O 2446.4 1.27207 1.56142 0
M  V30 25420 C 2443.47 2.43736 2.46563 0
M  V30 25421 C 2442.53 3.65727 2.24815 0
M  V30 25422 C 2441.76 4.03635 3.49163 0
M  V30 25423 O 2441.98 3.41843 4.56617 0
M  V30 25424 O 2440.92 4.96714 3.3994 0
M  V30 25425 H 2444.74 2.93165 0.792968 0
M  V30 25426 H 2442.33 1.45794 0.326274 0
M  V30 25427 H 2444.21 2.70063 3.23487 0
M  V30 25428 H 2442.89 1.57636 2.82723 0
M  V30 25429 H 2441.79 3.44545 1.45738 0
M  V30 25430 H 2443.13 4.52544 1.93558 0
M  V30 25431 N 2444.78 -0.38549 1.52813 0
M  V30 25432 C 2446.01 -1.14963 1.7166 0
M  V30 25433 C 2446.42 -1.84101 0.436285 0
M  V30 25434 O 2445.76 -1.7365 -0.599282 0
M  V30 25435 C 2445.82 -2.23838 2.81313 0
M  V30 25436 C 2445.48 -1.74637 4.22316 0
M  V30 25437 C 2446.48 -1.2212 5.05354 0
M  V30 25438 C 2444.17 -1.80753 4.68651 0
M  V30 25439 C 2446.16 -0.763727 6.32808 0
M  V30 25440 C 2443.85 -1.34617 5.96089 0
M  V30 25441 C 2444.85 -0.825145 6.77997 0
M  V30 25442 O 2444.53 -0.370528 8.03046 0
M  V30 25443 H 2444.27 -0.350513 0.578028 0
M  V30 25444 H 2446.82 -0.456474 2.00264 0
M  V30 25445 H 2445.05 -2.96588 2.48138 0
M  V30 25446 H 2446.74 -2.85492 2.88529 0
M  V30 25447 H 2447.5 -1.16749 4.70738 0
M  V30 25448 H 2443.38 -2.20249 4.04983 0
M  V30 25449 H 2446.93 -0.356372 6.96689 0
M  V30 25450 H 2442.82 -1.39675 6.30207 0
M  V30 25451 H 2443.59 -0.491685 8.17022 0
M  V30 25452 N 2446.26 -1.43835 -0.644143 0
M  V30 25453 C 2447.5 -1.45644 -1.40115 0
M  V30 25454 C 2447.82 -0.0852755 -1.94813 0
M  V30 25455 O 2447.09 0.880657 -1.74989 0
M  V30 25456 H 2445.67 -0.536253 -0.520041 0
M  V30 25457 H 2448.34 -1.79511 -0.759069 0
M  V30 25458 H 2447.43 -2.17431 -2.23898 0
M  V30 25459 N 2447.73 0.883355 -1.30517 0
M  V30 25460 C 2448.98 1.6353 -1.19433 0
M  V30 25461 C 2449.31 1.92879 0.250593 0
M  V30 25462 O 2448.56 1.54937 1.19553 0
M  V30 25463 C 2448.86 2.98205 -1.96999 0
M  V30 25464 C 2448.53 2.88402 -3.46605 0
M  V30 25465 C 2447.19 2.85435 -3.87402 0
M  V30 25466 C 2449.54 2.7641 -4.41867 0
M  V30 25467 C 2446.87 2.68318 -5.21749 0
M  V30 25468 C 2449.22 2.60831 -5.76324 0
M  V30 25469 C 2447.89 2.5624 -6.16358 0
M  V30 25470 H 2447.16 0.598398 -0.437036 0
M  V30 25471 H 2449.8 1.02693 -1.61637 0
M  V30 25472 H 2448.11 3.63002 -1.47435 0
M  V30 25473 H 2449.81 3.55351 -1.85814 0
M  V30 25474 H 2446.4 2.91521 -3.14187 0
M  V30 25475 H 2450.58 2.77767 -4.11289 0
M  V30 25476 H 2445.84 2.63179 -5.51857 0
M  V30 25477 H 2450.01 2.50527 -6.49776 0
M  V30 25478 H 2447.64 2.42735 -7.20405 0
M  V30 25479 N 2449.21 1.13259 1.09591 0
M  V30 25480 C 2450.14 0.830984 2.18213 0
M  V30 25481 C 2451.12 -0.208936 1.68812 0
M  V30 25482 O 2452.31 -0.0682324 1.9408 0
M  V30 25483 C 2449.44 0.294357 3.4605 0
M  V30 25484 C 2448.39 1.26833 4.08775 0
M  V30 25485 C 2447.72 0.591542 5.31418 0
M  V30 25486 C 2449.02 2.62623 4.51472 0
M  V30 25487 H 2450.71 1.73927 2.437 0
M  V30 25488 H 2448.26 0.837695 1.17127 0
M  V30 25489 H 2450.21 0.0710347 4.2134 0
M  V30 25490 H 2448.93 -0.64931 3.20081 0
M  V30 25491 H 2447.59 1.47762 3.35503 0
M  V30 25492 H 2447.24 -0.357544 5.01728 0
M  V30 25493 H 2446.94 1.24133 5.74339 0
M  V30 25494 H 2448.47 0.377462 6.09432 0
M  V30 25495 H 2449.88 2.45672 5.17994 0
M  V30 25496 H 2448.28 3.23761 5.05271 0
M  V30 25497 H 2449.35 3.20412 3.63956 0
M  V30 25498 N 2450.69 -1.27539 0.925834 0
M  V30 25499 C 2451.64 -2.28887 0.413937 0
M  V30 25500 C 2452.63 -1.6183 -0.50075 0
M  V30 25501 O 2453.84 -1.75929 -0.380659 0
M  V30 25502 H 2450.21 -0.74311 0.115287 0
M  V30 25503 H 2452.18 -2.69478 1.28156 0
M  V30 25504 C 2450.93 -3.46227 -0.319731 0
M  V30 25505 H 2450.26 -3.98038 0.374916 0
M  V30 25506 H 2451.7 -4.19106 -0.642362 0
M  V30 25507 C 2450.15 -3.0005 -1.53204 0
M  V30 25508 O 2450.68 -3.03562 -2.63084 0
M  V30 25509 N 2448.89 -2.55569 -1.38322 0
M  V30 25510 H 2448.44 -2.52911 -0.489248 0
M  V30 25511 H 2448.4 -2.25035 -2.1956 0
M  V30 25512 N 2452.17 -0.691135 -1.41637 0
M  V30 25513 C 2453.1 -0.037289 -2.3347 0
M  V30 25514 C 2454.08 0.771921 -1.51576 0
M  V30 25515 O 2455.26 0.725788 -1.80128 0
M  V30 25516 C 2452.39 0.903005 -3.35355 0
M  V30 25517 C 2451.35 0.201213 -4.27527 0
M  V30 25518 C 2450.67 1.25556 -5.1975 0
M  V30 25519 C 2451.97 -0.92978 -5.13958 0
M  V30 25520 H 2453.67 -0.804278 -2.88395 0
M  V30 25521 H 2451.21 -0.388214 -1.38668 0
M  V30 25522 H 2453.17 1.36962 -3.98521 0
M  V30 25523 H 2451.89 1.70161 -2.7877 0
M  V30 25524 H 2450.55 -0.24533 -3.65778 0
M  V30 25525 H 2450.2 2.04658 -4.59483 0
M  V30 25526 H 2449.9 0.791026 -5.82251 0
M  V30 25527 H 2451.42 1.72278 -5.85792 0
M  V30 25528 H 2452.84 -0.543647 -5.70717 0
M  V30 25529 H 2451.23 -1.32113 -5.85377 0
M  V30 25530 H 2452.3 -1.77141 -4.51386 0
M  V30 25531 N 2453.65 1.51461 -0.435577 0
M  V30 25532 C 2454.87 2.06976 0.13259 0
M  V30 25533 C 2455.3 1.30106 1.35845 0
M  V30 25534 O 2454.65 0.338524 1.78111 0
M  V30 25535 C 2454.7 3.57965 0.435167 0
M  V30 25536 O 2453.81 3.83291 1.52191 0
M  V30 25537 H 2453.15 0.663995 0.00263832 0
M  V30 25538 H 2455.68 1.95094 -0.616403 0
M  V30 25539 H 2455.69 4.02189 0.686135 0
M  V30 25540 H 2454.36 4.13339 -0.460812 0
M  V30 25541 H 2452.94 3.5093 1.26104 0
M  V30 25542 N 2455.12 0.166873 1.56714 0
M  V30 25543 C 2456.37 -0.478271 1.96359 0
M  V30 25544 C 2456.69 -1.64078 1.05373 0
M  V30 25545 O 2455.96 -1.95537 0.119189 0
M  V30 25546 H 2454.54 -0.17968 0.725068 0
M  V30 25547 H 2457.21 0.247018 1.93328 0
M  V30 25548 H 2456.3 -0.84124 3.00549 0
M  V30 25549 N 2456.6 -1.57237 -0.106866 0
M  V30 25550 C 2457.83 -1.89681 -0.826356 0
M  V30 25551 C 2458.25 -0.759383 -1.72855 0
M  V30 25552 O 2457.6 0.269231 -1.80503 0
M  V30 25553 C 2457.65 -3.21667 -1.64961 0
M  V30 25554 O 2457.37 -4.31033 -0.783728 0
M  V30 25555 C 2458.88 -3.67896 -2.4732 0
M  V30 25556 H 2456.1 -0.627783 -0.236916 0
M  V30 25557 H 2458.64 -2.04312 -0.0876234 0
M  V30 25558 H 2456.79 -3.0867 -2.34098 0
M  V30 25559 H 2457.21 -5.06755 -1.35275 0
M  V30 25560 H 2458.68 -4.62976 -3.00595 0
M  V30 25561 H 2459.16 -2.95152 -3.25241 0
M  V30 25562 H 2459.77 -3.83723 -1.83404 0
M  V30 25563 N 2458.08 0.377381 -1.53015 0
M  V30 25564 C 2459.49 0.95477 -1.6044 0
M  V30 25565 C 2459.84 1.90623 -0.464451 0
M  V30 25566 O 2458.97 2.12464 0.410833 0
M  V30 25567 C 2459.56 1.73842 -2.908 0
M  V30 25568 C 2458.12 2.26533 -3.00599 0
M  V30 25569 C 2457.27 1.07425 -2.55647 0
M  V30 25570 H 2460.22 0.156548 -1.57926 0
M  V30 25571 H 2460.24 2.59865 -2.77939 0
M  V30 25572 H 2459.75 1.04567 -3.73748 0
M  V30 25573 H 2457.85 2.99085 -2.22214 0
M  V30 25574 H 2457.97 2.55223 -4.0546 0
M  V30 25575 H 2456.33 1.43773 -2.10241 0
M  V30 25576 H 2457.11 0.396669 -3.41001 0
M  V30 25577 N 2459.56 1.44175 0.636506 0
M  V30 25578 C 2460.79 1.50147 1.4235 0
M  V30 25579 C 2461.2 0.124608 1.88388 0
M  V30 25580 O 2460.56 -0.868461 1.60512 0
M  V30 25581 C 2460.61 2.46161 2.6474 0
M  V30 25582 O 2460.33 3.78494 2.20622 0
M  V30 25583 C 2461.83 2.61543 3.57925 0
M  V30 25584 H 2459.05 0.509408 0.436743 0
M  V30 25585 H 2461.6 1.89086 0.7789 0
M  V30 25586 H 2459.75 2.10372 3.25303 0
M  V30 25587 H 2460.16 4.30281 2.99931 0
M  V30 25588 H 2461.64 3.32764 4.40422 0
M  V30 25589 H 2462.12 1.66592 4.06379 0
M  V30 25590 H 2462.72 2.98211 3.03233 0
M  V30 25591 N 2461.04 -0.876421 1.30983 0
M  V30 25592 C 2461.99 -1.97053 1.14692 0
M  V30 25593 C 2462.97 -1.60789 0.0596876 0
M  V30 25594 O 2464.16 -1.74708 0.283923 0
M  V30 25595 C 2461.29 -3.32619 0.849686 0
M  V30 25596 C 2460.38 -3.7517 1.97758 0
M  V30 25597 N 2460.77 -3.8974 3.22391 0
M  V30 25598 C 2459.07 -4.04632 1.87587 0
M  V30 25599 C 2459.77 -4.25978 3.96128 0
M  V30 25600 N 2458.74 -4.3631 3.24245 0
M  V30 25601 H 2462.55 -2.0642 2.09208 0
M  V30 25602 H 2460.06 -1.0668 1.22447 0
M  V30 25603 H 2462.06 -4.10741 0.713967 0
M  V30 25604 H 2460.72 -3.24583 -0.0873189 0
M  V30 25605 H 2461.73 -3.74641 3.57582 0
M  V30 25606 H 2458.4 -4.05022 1.0131 0
M  V30 25607 H 2459.79 -4.44902 5.03499 0
M  V30 25608 N 2462.51 -1.13839 -1.08989 0
M  V30 25609 C 2463.93 -0.877529 -1.3331 0
M  V30 25610 C 2464.13 0.484526 -1.95588 0
M  V30 25611 O 2463.19 1.23009 -2.20511 0
M  V30 25612 C 2464.5 -2.00564 -2.24042 0
M  V30 25613 C 2466.05 -2.03825 -2.37538 0
M  V30 25614 C 2466.52 -3.15911 -3.31608 0
M  V30 25615 N 2468.01 -3.15451 -3.39183 0
M  V30 25616 C 2468.75 -3.98818 -4.11985 0
M  V30 25617 N 2468.24 -4.92211 -4.87545 0
M  V30 25618 N 2470.04 -3.86901 -4.07755 0
M  V30 25619 H 2462.19 -2.01575 -0.66942 0
M  V30 25620 H 2464.45 -0.878021 -0.357466 0
M  V30 25621 H 2464.16 -2.98792 -1.85516 0
M  V30 25622 H 2464.03 -1.92364 -3.24462 0
M  V30 25623 H 2466.42 -1.06207 -2.75326 0
M  V30 25624 H 2466.5 -2.16096 -1.36881 0
M  V30 25625 H 2466.14 -4.13771 -2.94543 0
M  V30 25626 H 2466.07 -3.00878 -4.32181 0
M  V30 25627 H 2468.56 -2.47804 -2.8531 0
M  V30 25628 H 2468.88 -5.52302 -5.40539 0
M  V30 25629 H 2467.22 -4.96214 -4.86618 0
M  V30 25630 H 2470.41 -3.13263 -3.47828 0
M  V30 25631 H 2470.59 -4.521 -4.6423 0
M  V30 25632 N 2463.99 1.27046 -0.932584 0
M  V30 25633 C 2464.93 2.25017 -0.379814 0
M  V30 25634 C 2465.9 1.53838 0.52656 0
M  V30 25635 O 2467.09 1.8265 0.46596 0
M  V30 25636 C 2464.21 3.35628 0.455128 0
M  V30 25637 C 2463.26 4.24727 -0.388502 0
M  V30 25638 S 2464.09 5.04088 -1.8071 0
M  V30 25639 C 2465.25 6.18181 -0.979974 0
M  V30 25640 H 2465.48 2.71556 -1.21015 0
M  V30 25641 H 2463.02 1.35778 -0.735102 0
M  V30 25642 H 2464.97 3.99804 0.930982 0
M  V30 25643 H 2463.63 2.87718 1.26004 0
M  V30 25644 H 2462.83 5.03376 0.250802 0
M  V30 25645 H 2462.43 3.65372 -0.798713 0
M  V30 25646 H 2464.72 6.77148 -0.218234 0
M  V30 25647 H 2465.66 6.86398 -1.73963 0
M  V30 25648 H 2466.07 5.62101 -0.519829 0
M  V30 25649 N 2465.47 0.698636 1.41269 0
M  V30 25650 C 2466.4 0.04967 2.33447 0
M  V30 25651 C 2467.38 -0.763871 1.51984 0
M  V30 25652 O 2468.57 -0.716225 1.8051 0
M  V30 25653 C 2465.7 -0.885208 3.35829 0
M  V30 25654 C 2464.65 -0.178537 4.27627 0
M  V30 25655 C 2463.98 -1.22798 5.20408 0
M  V30 25656 C 2465.28 0.957023 5.13457 0
M  V30 25657 H 2466.97 0.819561 2.87965 0
M  V30 25658 H 2464.52 0.395562 1.3846 0
M  V30 25659 H 2466.47 -1.34847 3.99242 0
M  V30 25660 H 2465.19 -1.6868 2.79669 0
M  V30 25661 H 2463.85 0.264724 3.65643 0
M  V30 25662 H 2463.5 -2.02218 4.60561 0
M  V30 25663 H 2463.2 -0.760136 5.82663 0
M  V30 25664 H 2464.72 -1.69169 5.86698 0
M  V30 25665 H 2466.14 0.573905 5.7042 0
M  V30 25666 H 2464.54 1.35216 5.84668 0
M  V30 25667 H 2465.61 1.79532 4.5044 0
M  V30 25668 N 2466.95 -1.51228 0.443603 0
M  V30 25669 C 2467.88 -2.24486 -0.41005 0
M  V30 25670 C 2468.86 -1.26671 -1.01947 0
M  V30 25671 O 2470.04 -1.55823 -1.06072 0
M  V30 25672 C 2467.17 -3.00006 -1.57206 0
M  V30 25673 C 2466.22 -4.12528 -1.08272 0
M  V30 25674 S 2467.05 -5.35496 -0.0196535 0
M  V30 25675 C 2468.21 -6.14557 -1.18619 0
M  V30 25676 H 2468.44 -2.96544 0.211884 0
M  V30 25677 H 2465.97 -1.52705 0.228182 0
M  V30 25678 H 2467.93 -3.44115 -2.23819 0
M  V30 25679 H 2466.59 -2.27526 -2.16543 0
M  V30 25680 H 2465.78 -4.64671 -1.95185 0
M  V30 25681 H 2465.39 -3.70713 -0.494732 0
M  V30 25682 H 2467.68 -6.44024 -2.10332 0
M  V30 25683 H 2468.62 -7.04586 -0.704596 0
M  V30 25684 H 2469.03 -5.4615 -1.42759 0
M  V30 25685 N 2468.43 -0.175182 -1.56623 0
M  V30 25686 C 2469.66 0.474247 -2.01083 0
M  V30 25687 C 2470.06 1.57089 -1.05449 0
M  V30 25688 O 2469.41 1.83637 -0.0480918 0
M  V30 25689 C 2469.47 1.10905 -3.41965 0
M  V30 25690 C 2469.13 0.153586 -4.56742 0
M  V30 25691 C 2470.13 -0.629538 -5.16074 0
M  V30 25692 C 2467.82 0.0482894 -5.02277 0
M  V30 25693 C 2469.81 -1.50512 -6.19375 0
M  V30 25694 C 2467.5 -0.830875 -6.05425 0
M  V30 25695 C 2468.49 -1.60616 -6.63846 0
M  V30 25696 O 2468.18 -2.47063 -7.64994 0
M  V30 25697 H 2467.91 0.12542 -0.664263 0
M  V30 25698 H 2470.47 -0.275199 -2.03548 0
M  V30 25699 H 2468.7 1.9067 -3.36425 0
M  V30 25700 H 2470.39 1.66108 -3.70355 0
M  V30 25701 H 2471.15 -0.558382 -4.81775 0
M  V30 25702 H 2467.03 0.641531 -4.56514 0
M  V30 25703 H 2470.58 -2.11072 -6.64902 0
M  V30 25704 H 2466.47 -0.903219 -6.3915 0
M  V30 25705 H 2467.24 -2.40621 -7.82332 0
M  V30 25706 N 2469.91 1.57292 0.0985263 0
M  V30 25707 C 2470.85 2.02823 1.13866 0
M  V30 25708 C 2471.85 0.928691 1.41675 0
M  V30 25709 O 2473.05 1.11387 1.41396 0
M  V30 25710 H 2469.43 0.646324 0.384408 0
M  V30 25711 H 2471.4 2.89376 0.728296 0
M  V30 25712 C 2470.15 2.46558 2.45162 0
M  V30 25713 H 2469.47 3.30744 2.24607 0
M  V30 25714 H 2470.91 2.82196 3.16451 0
M  V30 25715 C 2469.37 1.33747 3.09214 0
M  V30 25716 O 2469.9 0.66471 3.96162 0
M  V30 25717 N 2468.11 1.08932 2.69411 0
M  V30 25718 H 2467.65 1.63821 1.98798 0
M  V30 25719 H 2467.61 0.336513 3.12594 0
M  V30 25720 N 2471.38 -0.369261 1.53213 0
M  V30 25721 C 2472.63 -1.11229 1.69217 0
M  V30 25722 C 2472.96 -1.89409 0.442081 0
M  V30 25723 O 2472.21 -1.87034 -0.575911 0
M  V30 25724 C 2472.51 -2.10127 2.89104 0
M  V30 25725 C 2472.18 -1.48455 4.2576 0
M  V30 25726 C 2470.84 -1.31363 4.62922 0
M  V30 25727 C 2473.19 -1.03802 5.10759 0
M  V30 25728 C 2470.52 -0.681967 5.82723 0
M  V30 25729 C 2472.87 -0.420376 6.31202 0
M  V30 25730 C 2471.54 -0.23692 6.67079 0
M  V30 25731 H 2470.81 -0.407016 0.619209 0
M  V30 25732 H 2473.45 -0.394519 1.87392 0
M  V30 25733 H 2471.76 -2.88195 2.65426 0
M  V30 25734 H 2473.46 -2.67564 2.98681 0
M  V30 25735 H 2470.05 -1.62751 3.96497 0
M  V30 25736 H 2474.23 -1.15802 4.82601 0
M  V30 25737 H 2469.49 -0.528209 6.09114 0
M  V30 25738 H 2473.66 -0.066165 6.96369 0
M  V30 25739 H 2471.29 0.254611 7.59774 0
M  V30 25740 N 2472.86 -1.4451 -0.628851 0
M  V30 25741 C 2474.27 -1.42139 -1.21051 0
M  V30 25742 C 2474.62 -0.137916 -1.95715 0
M  V30 25743 O 2473.75 0.761609 -2.02555 0
M  V30 25744 C 2474.34 -2.57496 -2.20184 0
M  V30 25745 C 2472.9 -2.58313 -2.73773 0
M  V30 25746 C 2472.05 -2.3399 -1.48809 0
M  V30 25747 H 2475 -1.53058 -0.419393 0
M  V30 25748 H 2475.02 -2.3038 -3.02829 0
M  V30 25749 H 2474.53 -3.50895 -1.65814 0
M  V30 25750 H 2472.63 -1.68862 -3.32139 0
M  V30 25751 H 2472.75 -3.56871 -3.19656 0
M  V30 25752 H 2471.11 -1.83127 -1.77021 0
M  V30 25753 H 2471.89 -3.29505 -0.963384 0
M  V30 25754 N 2474.34 0.869463 -1.31446 0
M  V30 25755 C 2475.57 1.65532 -1.24125 0
M  V30 25756 C 2475.98 1.87807 0.193354 0
M  V30 25757 O 2475.34 1.43658 1.12555 0
M  V30 25758 C 2475.39 3.023 -1.98234 0
M  V30 25759 O 2475.11 2.8102 -3.36094 0
M  V30 25760 C 2476.61 3.96745 -1.97758 0
M  V30 25761 H 2473.83 0.516048 -0.428878 0
M  V30 25762 H 2476.38 1.08522 -1.7333 0
M  V30 25763 H 2474.53 3.55998 -1.52788 0
M  V30 25764 H 2474.95 3.67895 -3.73836 0
M  V30 25765 H 2476.42 4.90026 -2.54122 0
M  V30 25766 H 2476.9 4.28575 -0.960212 0
M  V30 25767 H 2477.5 3.48984 -2.43085 0
M  V30 25768 N 2475.82 1.14415 1.08383 0
M  V30 25769 C 2476.76 0.831303 2.15309 0
M  V30 25770 C 2477.73 -0.211263 1.64751 0
M  V30 25771 O 2478.92 -0.0811339 1.90627 0
M  V30 25772 C 2476.06 0.315203 3.43658 0
M  V30 25773 C 2475.17 1.4181 4.08061 0
M  V30 25774 C 2474.31 0.859218 5.24205 0
M  V30 25775 C 2473.35 1.93977 5.80551 0
M  V30 25776 N 2472.48 1.39805 6.8804 0
M  V30 25777 H 2477.32 1.74713 2.41411 0
M  V30 25778 H 2474.86 0.871929 1.18473 0
M  V30 25779 H 2476.82 -0.0022355 4.172 0
M  V30 25780 H 2475.45 -0.563724 3.1784 0
M  V30 25781 H 2474.5 1.85193 3.32277 0
M  V30 25782 H 2475.81 2.23434 4.45958 0
M  V30 25783 H 2474.97 0.493697 6.04688 0
M  V30 25784 H 2473.71 0.0120177 4.87699 0
M  V30 25785 H 2472.71 2.31424 4.98721 0
M  V30 25786 H 2473.94 2.79057 6.19116 0
M  V30 25787 H 2471.88 0.573034 6.53492 0
M  V30 25788 H 2471.8 2.15067 7.24764 0
M  V30 25789 H 2473.07 1.06044 7.72253 0
M  V30 25790 N 2477.3 -1.26549 0.939309 0
M  V30 25791 C 2478.52 -1.9847 0.602043 0
M  V30 25792 C 2478.95 -1.69498 -0.815594 0
M  V30 25793 O 2478.3 -0.941933 -1.54911 0
M  V30 25794 C 2478.35 -3.50476 0.848468 0
M  V30 25795 O 2477.46 -4.12322 -0.0803284 0
M  V30 25796 H 2476.8 -0.622708 0.230501 0
M  V30 25797 H 2479.33 -1.61064 1.26173 0
M  V30 25798 H 2479.34 -4.00695 0.768623 0
M  V30 25799 H 2478.01 -3.70894 1.88178 0
M  V30 25800 H 2476.59 -3.72866 0.0504164 0
M  V30 25801 N 2478.77 -0.706118 -1.40896 0
M  V30 25802 C 2480.02 -0.241089 -2.00657 0
M  V30 25803 C 2480.34 1.16676 -1.56243 0
M  V30 25804 O 2479.61 1.78924 -0.797681 0
M  V30 25805 H 2478.19 -0.0861438 -0.742016 0
M  V30 25806 H 2480.85 -0.909635 -1.72371 0
M  V30 25807 H 2479.95 -0.266759 -3.10958 0
M  V30 25808 N 2480.25 1.50991 -0.451617 0
M  V30 25809 C 2481.18 2.25882 0.388595 0
M  V30 25810 C 2482.2 1.30448 0.974018 0
M  V30 25811 O 2483.39 1.561 0.865731 0
M  V30 25812 C 2480.49 3.01014 1.55705 0
M  V30 25813 C 2479.66 4.23654 1.08794 0
M  V30 25814 C 2478.72 4.81244 2.12817 0
M  V30 25815 O 2477.74 5.42696 1.71669 0
M  V30 25816 N 2478.95 4.66528 3.45445 0
M  V30 25817 H 2481.71 2.98627 -0.253343 0
M  V30 25818 H 2479.27 1.59438 -0.281296 0
M  V30 25819 H 2481.26 3.36424 2.24946 0
M  V30 25820 H 2479.83 2.31189 2.10405 0
M  V30 25821 H 2479.05 3.93574 0.22208 0
M  V30 25822 H 2480.34 5.0321 0.752124 0
M  V30 25823 H 2479.74 4.17612 3.81598 0
M  V30 25824 H 2478.3 5.06261 4.1054 0
M  V30 25825 N 2481.73 0.183486 1.56528 0
M  V30 25826 C 2482.97 -0.460632 1.99142 0
M  V30 25827 C 2483.33 -1.59596 1.06739 0
M  V30 25828 O 2484.53 -2.30347 1.38542 0
M  V30 25829 C 2482.81 -0.919878 3.45359 0
M  V30 25830 S 2484.36 -1.56347 4.10001 0
M  V30 25831 H 2481.18 -0.147736 0.695482 0
M  V30 25832 H 2483.78 0.283816 1.93429 0
M  V30 25833 H 2482.49 -0.0833487 4.10315 0
M  V30 25834 H 2482.02 -1.69807 3.54865 0
M  V30 25835 H 2484.03 -2.85196 4.06051 0
M  V30 25836 N 2483.21 -1.57342 -0.0901833 0
M  V30 25837 C 2484.46 -1.85969 -0.791209 0
M  V30 25838 C 2484.78 -0.77289 -1.79029 0
M  V30 25839 O 2484.05 0.200364 -1.94873 0
M  V30 25840 H 2482.63 -0.6862 -0.295193 0
M  V30 25841 H 2485.29 -1.94772 -0.070644 0
M  V30 25842 H 2484.38 -2.82869 -1.31877 0
M  V30 25843 N 2484.69 0.36113 -1.53407 0
M  V30 25844 C 2485.93 1.10112 -1.69469 0
M  V30 25845 C 2486.26 1.89704 -0.451385 0
M  V30 25846 O 2485.53 1.88464 0.534602 0
M  V30 25847 H 2484.11 0.409498 -0.624757 0
M  V30 25848 H 2486.77 0.406666 -1.9061 0
M  V30 25849 H 2485.86 1.78843 -2.55777 0
M  V30 25850 N 2486.16 1.44842 0.621179 0
M  V30 25851 C 2487.41 1.47425 1.37655 0
M  V30 25852 C 2487.73 0.114663 1.95264 0
M  V30 25853 O 2488.93 0.0180676 2.71494 0
M  V30 25854 C 2487.39 2.5959 2.49281 0
M  V30 25855 C 2487 4.018 1.98142 0
M  V30 25856 C 2488.74 2.71405 3.26404 0
M  V30 25857 C 2486.65 5.05372 3.0717 0
M  V30 25858 H 2485.58 0.548527 0.517334 0
M  V30 25859 H 2488.23 1.7094 0.667227 0
M  V30 25860 H 2486.61 2.29333 3.22835 0
M  V30 25861 H 2487.78 4.41672 1.31388 0
M  V30 25862 H 2486.1 3.94316 1.33805 0
M  V30 25863 H 2488.7 3.45956 4.07699 0
M  V30 25864 H 2489.04 1.77565 3.76532 0
M  V30 25865 H 2489.57 3.0112 2.59945 0
M  V30 25866 H 2486.31 6.00874 2.61975 0
M  V30 25867 H 2485.83 4.70084 3.72534 0
M  V30 25868 H 2487.51 5.29517 3.7178 0
M  V30 25869 N 2487.64 -0.862479 1.31905 0
M  V30 25870 C 2488.57 -1.9861 1.22785 0
M  V30 25871 C 2489.55 -1.69722 0.113391 0
M  V30 25872 O 2490.74 -1.9188 0.299252 0
M  V30 25873 C 2487.87 -3.34278 0.942117 0
M  V30 25874 C 2486.82 -3.77495 2.01696 0
M  V30 25875 C 2486.15 -5.10706 1.58378 0
M  V30 25876 C 2487.45 -3.93799 3.43103 0
M  V30 25877 H 2489.14 -2.06498 2.16792 0
M  V30 25878 H 2486.69 -0.992136 1.04368 0
M  V30 25879 H 2488.64 -4.12429 0.86489 0
M  V30 25880 H 2487.37 -3.26583 -0.0336029 0
M  V30 25881 H 2486.02 -3.01589 2.08421 0
M  V30 25882 H 2485.67 -4.9946 0.595715 0
M  V30 25883 H 2485.37 -5.40593 2.30289 0
M  V30 25884 H 2486.9 -5.91359 1.52077 0
M  V30 25885 H 2488.31 -4.62325 3.39011 0
M  V30 25886 H 2486.71 -4.35094 4.13296 0
M  V30 25887 H 2487.78 -2.9695 3.83339 0
M  V30 25888 N 2489.12 -1.14988 -1.07775 0
M  V30 25889 C 2490.05 -0.78628 -2.14226 0
M  V30 25890 C 2491.03 0.235319 -1.60888 0
M  V30 25891 O 2492.22 0.122876 -1.88099 0
M  V30 25892 C 2489.34 -0.168493 -3.38281 0
M  V30 25893 C 2488.39 -1.1613 -4.10385 0
M  V30 25894 S 2489.22 -2.70143 -4.62367 0
M  V30 25895 C 2490.38 -2.09772 -5.897 0
M  V30 25896 H 2490.61 -1.68791 -2.44738 0
M  V30 25897 H 2488.14 -0.971778 -1.19983 0
M  V30 25898 H 2490.1 0.181515 -4.10098 0
M  V30 25899 H 2488.76 0.710671 -3.05955 0
M  V30 25900 H 2487.96 -0.677174 -4.9943 0
M  V30 25901 H 2487.56 -1.45562 -3.44511 0
M  V30 25902 H 2489.85 -1.45713 -6.61645 0
M  V30 25903 H 2490.79 -2.96966 -6.42819 0
M  V30 25904 H 2491.2 -1.54248 -5.43017 0
M  V30 25905 N 2490.6 1.26049 -0.946007 0
M  V30 25906 C 2491.56 2.24456 -0.463936 0
M  V30 25907 C 2492.56 1.5501 0.427627 0
M  V30 25908 O 2493.75 1.72726 0.226127 0
M  V30 25909 C 2490.88 3.39292 0.330753 0
M  V30 25910 H 2492.08 2.68616 -1.33361 0
M  V30 25911 H 2489.63 1.38288 -0.72844 0
M  V30 25912 H 2490.36 3.00539 1.21847 0
M  V30 25913 H 2490.15 3.90883 -0.308748 0
M  V30 25914 H 2491.64 4.12387 0.657793 0
M  V30 25915 N 2492.08 0.71358 1.4052 0
M  V30 25916 C 2493.3 0.261811 2.05237 0
M  V30 25917 C 2493.72 -1.09564 1.53757 0
M  V30 25918 O 2493.08 -1.68818 0.693298 0
M  V30 25919 C 2493.13 0.230769 3.60763 0
M  V30 25920 O 2492.85 1.53462 4.10343 0
M  V30 25921 C 2494.35 -0.239796 4.42651 0
M  V30 25922 H 2491.57 0.118069 0.660531 0
M  V30 25923 H 2494.11 0.971224 1.79965 0
M  V30 25924 H 2492.27 -0.429593 3.85011 0
M  V30 25925 H 2492.68 1.43375 5.04523 0
M  V30 25926 H 2494.16 -0.210371 5.51599 0
M  V30 25927 H 2494.63 -1.28163 4.20084 0
M  V30 25928 H 2495.24 0.390216 4.23506 0
M  V30 25929 N 2493.55 -1.50749 0.459618 0
M  V30 25930 C 2494.8 -2.01857 -0.0991177 0
M  V30 25931 C 2495.12 -1.34443 -1.41245 0
M  V30 25932 O 2494.39 -0.486055 -1.89774 0
M  V30 25933 H 2492.97 -0.745949 -0.0396199 0
M  V30 25934 H 2495.64 -1.85193 0.60742 0
M  V30 25935 H 2494.73 -3.11024 -0.258943 0
M  V30 25936 N 2495.03 -0.191784 -1.56429 0
M  V30 25937 C 2495.98 0.730416 -2.18937 0
M  V30 25938 C 2496.95 1.21217 -1.13559 0
M  V30 25939 O 2498.13 1.27666 -1.41796 0
M  V30 25940 C 2495.27 1.94575 -2.85017 0
M  V30 25941 C 2494.39 1.50567 -4.04912 0
M  V30 25942 C 2493.52 2.67625 -4.58857 0
M  V30 25943 C 2492.56 2.20207 -5.71118 0
M  V30 25944 N 2491.7 3.30431 -6.19484 0
M  V30 25945 H 2496.54 0.190611 -2.9739 0
M  V30 25946 H 2494.08 0.0823436 -1.46869 0
M  V30 25947 H 2496.03 2.65887 -3.21496 0
M  V30 25948 H 2494.66 2.45892 -2.09133 0
M  V30 25949 H 2493.72 0.688539 -3.74117 0
M  V30 25950 H 2495.03 1.11775 -4.86115 0
M  V30 25951 H 2494.18 3.47065 -4.97625 0
M  V30 25952 H 2492.92 3.09689 -3.76755 0
M  V30 25953 H 2491.93 1.3922 -5.31881 0
M  V30 25954 H 2493.15 1.79178 -6.55036 0
M  V30 25955 H 2491.1 3.72032 -5.40304 0
M  V30 25956 H 2491.01 2.95797 -6.9573 0
M  V30 25957 H 2492.28 4.10094 -6.62905 0
M  V30 25958 N 2496.51 1.57387 0.0818378 0
M  V30 25959 C 2497.76 1.87031 0.784041 0
M  V30 25960 C 2498.09 0.78272 1.77728 0
M  V30 25961 O 2497.36 -0.208017 1.93384 0
M  V30 25962 C 2497.65 3.27326 1.50099 0
M  V30 25963 C 2497.5 4.46727 0.524847 0
M  V30 25964 C 2498.82 3.65709 2.44837 0
M  V30 25965 H 2495.94 0.680262 0.28357 0
M  V30 25966 H 2498.58 1.89941 0.0474019 0
M  V30 25967 H 2496.73 3.24976 2.12891 0
M  V30 25968 H 2498.4 4.61198 -0.0970922 0
M  V30 25969 H 2496.65 4.33502 -0.160682 0
M  V30 25970 H 2497.32 5.4165 1.06391 0
M  V30 25971 H 2499.79 3.69088 1.92128 0
M  V30 25972 H 2498.67 4.64781 2.9201 0
M  V30 25973 H 2498.93 2.95101 3.29192 0
M  V30 25974 N 2497.99 -0.35299 1.53596 0
M  V30 25975 C 2498.92 -1.4388 1.83904 0
M  V30 25976 C 2499.9 -1.55323 0.693448 0
M  V30 25977 O 2501.08 -1.69686 0.944482 0
M  V30 25978 C 2498.21 -2.81057 2.04021 0
M  V30 25979 C 2497.17 -2.84428 3.19819 0
M  V30 25980 C 2496.49 -4.244 3.25252 0
M  V30 25981 C 2497.79 -2.50814 4.58137 0
M  V30 25982 H 2499.49 -1.18765 2.74837 0
M  V30 25983 H 2497.03 -0.569894 1.32243 0
M  V30 25984 H 2498.99 -3.57055 2.23807 0
M  V30 25985 H 2497.71 -3.07586 1.0981 0
M  V30 25986 H 2496.37 -2.10882 2.99874 0
M  V30 25987 H 2496.02 -4.48025 2.28654 0
M  V30 25988 H 2495.72 -4.27569 4.03061 0
M  V30 25989 H 2497.24 -5.02254 3.47237 0
M  V30 25990 H 2498.66 -3.16526 4.78001 0
M  V30 25991 H 2497.05 -2.65281 5.38281 0
M  V30 25992 H 2498.12 -1.46026 4.6239 0
M  V30 25993 N 2499.47 -1.45169 -0.613489 0
M  V30 25994 C 2500.72 -1.48583 -1.36994 0
M  V30 25995 C 2501.04 -0.126579 -1.94589 0
M  V30 25996 O 2500.31 0.843341 -1.76818 0
M  V30 25997 H 2498.89 -0.547163 -0.508549 0
M  V30 25998 H 2501.55 -1.81081 -0.720821 0
M  V30 25999 H 2500.64 -2.22131 -2.19236 0
M  V30 26000 N 2500.95 0.855472 -1.32361 0
M  V30 26001 C 2502.19 1.60446 -1.22229 0
M  V30 26002 C 2502.51 1.94418 0.214698 0
M  V30 26003 O 2503.71 2.67946 0.43787 0
M  V30 26004 C 2502.17 2.89315 -2.14068 0
M  V30 26005 C 2501.78 2.62771 -3.62844 0
M  V30 26006 C 2503.52 3.67327 -2.1277 0
M  V30 26007 C 2501.43 3.87635 -4.46647 0
M  V30 26008 H 2500.36 0.602061 -0.453915 0
M  V30 26009 H 2503.01 0.94467 -1.57316 0
M  V30 26010 H 2501.39 3.56747 -1.71895 0
M  V30 26011 H 2502.57 2.03655 -4.13354 0
M  V30 26012 H 2500.88 1.9809 -3.66264 0
M  V30 26013 H 2503.48 4.59982 -2.72619 0
M  V30 26014 H 2503.82 4.00993 -1.11848 0
M  V30 26015 H 2504.35 3.06798 -2.53219 0
M  V30 26016 H 2501.09 3.5911 -5.4838 0
M  V30 26017 H 2500.61 4.46149 -4.00888 0
M  V30 26018 H 2502.29 4.55381 -4.59605 0
M  V30 26019 N 2502.42 1.15558 1.07164 0
M  V30 26020 C 2503.37 0.822507 2.12647 0
M  V30 26021 C 2504.36 -0.194101 1.59725 0
M  V30 26022 O 2505.55 0.00543513 1.76999 0
M  V30 26023 C 2502.68 0.315632 3.41846 0
M  V30 26024 C 2501.76 1.36251 4.01617 0
M  V30 26025 N 2502.16 2.57038 4.35621 0
M  V30 26026 C 2500.45 1.21569 4.29112 0
M  V30 26027 C 2501.15 3.24153 4.83011 0
M  V30 26028 N 2500.13 2.51539 4.81901 0
M  V30 26029 H 2503.93 1.74115 2.36772 0
M  V30 26030 H 2501.45 1.04132 1.2462 0
M  V30 26031 H 2503.44 0.0586588 4.16859 0
M  V30 26032 H 2502.1 -0.597049 3.19164 0
M  V30 26033 H 2503.11 2.94166 4.26247 0
M  V30 26034 H 2499.79 0.363061 4.15918 0
M  V30 26035 H 2501.18 4.27208 5.18597 0
M  V30 26036 N 2503.9 -1.25546 0.952678 0
M  V30 26037 C 2505.15 -1.93493 0.607306 0
M  V30 26038 C 2505.48 -1.74453 -0.853214 0
M  V30 26039 O 2504.76 -1.08845 -1.61192 0
M  V30 26040 C 2505.04 -3.46945 0.964411 0
M  V30 26041 C 2504.89 -3.7522 2.48052 0
M  V30 26042 C 2506.21 -4.37385 0.488064 0
M  V30 26043 H 2503.33 -0.702735 0.222108 0
M  V30 26044 H 2505.97 -1.482 1.18898 0
M  V30 26045 H 2504.12 -3.85653 0.469429 0
M  V30 26046 H 2505.79 -3.4616 3.04911 0
M  V30 26047 H 2504.04 -3.20895 2.91906 0
M  V30 26048 H 2504.71 -4.82527 2.68089 0
M  V30 26049 H 2507.18 -4.05968 0.912629 0
M  V30 26050 H 2506.06 -5.4352 0.766643 0
M  V30 26051 H 2506.32 -4.37844 -0.611986 0
M  V30 26052 N 2505.38 -0.721022 -1.40139 0
M  V30 26053 C 2506.63 -0.262358 -2.0039 0
M  V30 26054 C 2506.95 1.15012 -1.57471 0
M  V30 26055 O 2506.22 1.78068 -0.816614 0
M  V30 26056 H 2504.8 -0.094009 -0.741061 0
M  V30 26057 H 2507.46 -0.927866 -1.71396 0
M  V30 26058 H 2506.56 -0.299726 -3.10657 0
M  V30 26059 N 2506.86 1.50503 -0.467606 0
M  V30 26060 C 2508.11 2.01907 0.0884114 0
M  V30 26061 C 2508.43 1.3519 1.4053 0
M  V30 26062 O 2507.7 0.496112 1.89514 0
M  V30 26063 H 2506.28 0.746148 0.0356634 0
M  V30 26064 H 2508.94 1.84868 -0.617232 0
M  V30 26065 H 2508.03 3.11157 0.242445 0
M  V30 26066 N 2508.34 0.200077 1.56325 0
M  V30 26067 C 2509.28 -0.735443 2.20667 0
M  V30 26068 C 2510.28 -1.21603 1.17937 0
M  V30 26069 O 2511.48 -1.17835 1.3607 0
M  V30 26070 H 2507.86 -0.255529 0.707254 0
M  V30 26071 H 2509.83 -0.169114 2.9792 0
M  V30 26072 C 2508.58 -1.94227 2.88394 0
M  V30 26073 H 2507.9 -1.58155 3.67188 0
M  V30 26074 H 2509.34 -2.57511 3.36844 0
M  V30 26075 C 2507.8 -2.78418 1.89697 0
M  V30 26076 O 2508.33 -3.765 1.40038 0
M  V30 26077 N 2506.54 -2.44013 1.57817 0
M  V30 26078 H 2506.08 -1.6431 1.98393 0
M  V30 26079 H 2506.04 -3.00627 0.920378 0
M  V30 26080 N 2509.81 -1.57429 -0.0734901 0
M  V30 26081 C 2511.06 -1.86797 -0.77144 0
M  V30 26082 C 2511.38 -0.791835 -1.78199 0
M  V30 26083 O 2510.65 0.179684 -1.95074 0
M  V30 26084 H 2509.23 -0.689292 -0.287898 0
M  V30 26085 H 2511.89 -1.94836 -0.0499818 0
M  V30 26086 H 2510.99 -2.84252 -1.28869 0
M  V30 26087 N 2511.29 0.344839 -1.53781 0
M  V30 26088 C 2512.24 1.42404 -1.78059 0
M  V30 26089 C 2513.23 1.47807 -0.635758 0
M  V30 26090 O 2514.42 1.52699 -0.895107 0
M  V30 26091 C 2511.55 2.79563 -1.99247 0
M  V30 26092 C 2510.63 2.78557 -3.19792 0
M  V30 26093 N 2511.02 2.47181 -4.41288 0
M  V30 26094 C 2509.32 3.09704 -3.20935 0
M  V30 26095 C 2510.02 2.54376 -5.23133 0
M  V30 26096 N 2509 2.89945 -4.59818 0
M  V30 26097 H 2512.8 1.17041 -2.6959 0
M  V30 26098 H 2510.31 0.55319 -1.52688 0
M  V30 26099 H 2512.31 3.5732 -2.14774 0
M  V30 26100 H 2510.97 3.05873 -1.08958 0
M  V30 26101 H 2511.98 2.20403 -4.68661 0
M  V30 26102 H 2508.66 3.41194 -2.40609 0
M  V30 26103 H 2510.05 2.33288 -6.301 0
M  V30 26104 N 2512.77 1.45492 0.605781 0
M  V30 26105 C 2513.7 1.50313 1.73028 0
M  V30 26106 C 2514.71 0.393715 1.57967 0
M  V30 26107 O 2515.9 0.660868 1.65816 0
M  V30 26108 C 2513 1.34548 3.11047 0
M  V30 26109 C 2512.18 2.59196 3.5233 0
M  V30 26110 C 2511.24 2.37962 4.69319 0
M  V30 26111 O 2510.26 3.11583 4.76345 0
M  V30 26112 N 2511.46 1.4264 5.62703 0
M  V30 26113 H 2514.23 2.47263 1.69356 0
M  V30 26114 H 2511.79 1.41255 0.791115 0
M  V30 26115 H 2513.78 1.18151 3.87069 0
M  V30 26116 H 2512.35 0.458677 3.09217 0
M  V30 26117 H 2511.57 2.90696 2.66251 0
M  V30 26118 H 2512.86 3.42047 3.76671 0
M  V30 26119 H 2512.26 0.818856 5.59742 0
M  V30 26120 H 2510.81 1.32214 6.3825 0
M  V30 26121 N 2514.25 -0.848441 1.32813 0
M  V30 26122 C 2515.5 -1.59989 1.23482 0
M  V30 26123 C 2515.82 -1.93953 -0.201819 0
M  V30 26124 O 2515.09 -1.60155 -1.12815 0
M  V30 26125 H 2513.67 -0.593172 0.454045 0
M  V30 26126 H 2516.33 -1.01452 1.66413 0
M  V30 26127 H 2515.43 -2.53408 1.82183 0
M  V30 26128 N 2515.73 -1.16125 -1.06549 0
M  V30 26129 C 2516.97 -0.941158 -1.793 0
M  V30 26130 C 2517.3 0.531202 -1.87106 0
M  V30 26131 O 2516.56 1.41016 -1.35695 0
M  V30 26132 C 2516.86 -1.51057 -3.23908 0
M  V30 26133 C 2516.52 -3.00481 -3.36187 0
M  V30 26134 C 2515.18 -3.41271 -3.39246 0
M  V30 26135 C 2517.54 -3.96471 -3.38319 0
M  V30 26136 C 2514.86 -4.76675 -3.42049 0
M  V30 26137 C 2517.22 -5.31758 -3.4266 0
M  V30 26138 C 2515.88 -5.72032 -3.44 0
M  V30 26139 H 2515.15 -0.344394 -0.656105 0
M  V30 26140 H 2517.8 -1.44798 -1.25322 0
M  V30 26141 H 2516.1 -0.925129 -3.80721 0
M  V30 26142 H 2517.8 -1.31599 -3.78791 0
M  V30 26143 H 2514.39 -2.67956 -3.34511 0
M  V30 26144 H 2518.57 -3.66026 -3.3517 0
M  V30 26145 H 2513.83 -5.07212 -3.41389 0
M  V30 26146 H 2518 -6.05927 -3.43257 0
M  V30 26147 H 2515.63 -6.76934 -3.45925 0
M  V30 26148 N 2517.2 1.25039 -0.959323 0
M  V30 26149 C 2518.17 2.23951 -0.487717 0
M  V30 26150 C 2519.17 1.55454 0.411162 0
M  V30 26151 O 2520.36 1.72956 0.207794 0
M  V30 26152 C 2517.49 3.39623 0.294748 0
M  V30 26153 H 2518.68 2.67187 -1.36203 0
M  V30 26154 H 2516.24 1.37507 -0.743066 0
M  V30 26155 H 2516.97 3.01815 1.18652 0
M  V30 26156 H 2516.76 3.90533 -0.350189 0
M  V30 26157 H 2518.25 4.13061 0.614017 0
M  V30 26158 N 2518.68 0.728444 1.39755 0
M  V30 26159 C 2519.65 0.09277 2.29012 0
M  V30 26160 C 2520.65 -0.674 1.45993 0
M  V30 26161 O 2521.84 -0.50399 1.6675 0
M  V30 26162 C 2518.97 -0.878079 3.29397 0
M  V30 26163 H 2520.16 0.879061 2.86727 0
M  V30 26164 H 2517.71 0.493873 1.48292 0
M  V30 26165 H 2518.45 -1.69096 2.76725 0
M  V30 26166 H 2518.23 -0.330983 3.90701 0
M  V30 26167 H 2519.72 -1.31963 3.96201 0
M  V30 26168 N 2520.16 -1.50253 0.475581 0
M  V30 26169 C 2521.39 -2.06763 -0.0754129 0
M  V30 26170 C 2521.8 -1.33894 -1.33109 0
M  V30 26171 O 2521.16 -0.409551 -1.77845 0
M  V30 26172 C 2521.21 -3.59714 -0.358945 0
M  V30 26173 O 2520.93 -4.29836 0.846927 0
M  V30 26174 C 2522.43 -4.3286 -0.956408 0
M  V30 26175 H 2519.65 -0.670938 0.00908704 0
M  V30 26176 H 2522.2 -1.93363 0.665652 0
M  V30 26177 H 2520.35 -3.72901 -1.04995 0
M  V30 26178 H 2520.77 -5.21123 0.594254 0
M  V30 26179 H 2522.24 -5.40836 -1.10454 0
M  V30 26180 H 2522.72 -3.93652 -1.94768 0
M  V30 26181 H 2523.32 -4.24215 -0.303648 0
M  V30 26182 N 2521.64 -0.208365 -1.56217 0
M  V30 26183 C 2522.57 0.702077 -2.22695 0
M  V30 26184 C 2523.55 1.21118 -1.19434 0
M  V30 26185 O 2524.73 1.2576 -1.4798 0
M  V30 26186 C 2521.86 1.91605 -2.89663 0
M  V30 26187 C 2520.82 1.54133 -3.99283 0
M  V30 26188 C 2520.14 2.833 -4.53481 0
M  V30 26189 C 2521.44 0.741248 -5.17013 0
M  V30 26190 H 2523.14 0.147846 -2.99035 0
M  V30 26191 H 2520.68 0.0696698 -1.43831 0
M  V30 26192 H 2522.64 2.5583 -3.34857 0
M  V30 26193 H 2521.36 2.49504 -2.1075 0
M  V30 26194 H 2520.02 0.922606 -3.54801 0
M  V30 26195 H 2519.67 3.39316 -3.71314 0
M  V30 26196 H 2519.37 2.58967 -5.27456 0
M  V30 26197 H 2520.89 3.48491 -5.01385 0
M  V30 26198 H 2522.31 1.2869 -5.5867 0
M  V30 26199 H 2520.7 0.595522 -5.97138 0
M  V30 26200 H 2521.77 -0.254936 -4.84229 0
M  V30 26201 N 2523.12 1.57465 0.0651402 0
M  V30 26202 C 2524.05 2.07184 1.0769 0
M  V30 26203 C 2525.03 0.966697 1.39961 0
M  V30 26204 O 2526.21 1.23982 1.49472 0
M  V30 26205 C 2523.34 2.52131 2.38845 0
M  V30 26206 C 2522.3 3.66582 2.2091 0
M  V30 26207 C 2521.62 3.97608 3.57508 0
M  V30 26208 C 2522.92 4.96383 1.62485 0
M  V30 26209 H 2524.62 2.91964 0.663148 0
M  V30 26210 H 2522.16 1.40455 0.317544 0
M  V30 26211 H 2524.12 2.85528 3.09923 0
M  V30 26212 H 2522.84 1.64389 2.82213 0
M  V30 26213 H 2521.5 3.33479 1.52273 0
M  V30 26214 H 2521.15 3.06986 3.98458 0
M  V30 26215 H 2520.85 4.74678 3.46345 0
M  V30 26216 H 2522.37 4.33506 4.30006 0
M  V30 26217 H 2523.78 5.27967 2.23435 0
M  V30 26218 H 2522.18 5.7782 1.61999 0
M  V30 26219 H 2523.25 4.81334 0.586956 0
M  V30 26220 N 2524.59 -0.336679 1.53962 0
M  V30 26221 C 2526.01 -0.680215 1.44379 0
M  V30 26222 C 2526.21 -1.92169 0.606068 0
M  V30 26223 O 2525.27 -2.52303 0.0997324 0
M  V30 26224 C 2526.58 -0.866449 2.87946 0
M  V30 26225 C 2528.13 -0.964629 2.97765 0
M  V30 26226 C 2528.6 -1.18313 4.42455 0
M  V30 26227 N 2530.09 -1.25017 4.4601 0
M  V30 26228 C 2530.83 -1.43687 5.55105 0
M  V30 26229 N 2530.32 -1.59486 6.74193 0
M  V30 26230 N 2532.12 -1.4629 5.4273 0
M  V30 26231 H 2524.27 0.479491 2.06917 0
M  V30 26232 H 2526.53 0.152636 0.935632 0
M  V30 26233 H 2526.24 -0.0256319 3.51691 0
M  V30 26234 H 2526.11 -1.76617 3.33296 0
M  V30 26235 H 2528.5 -1.79596 2.34156 0
M  V30 26236 H 2528.58 -0.041663 2.55766 0
M  V30 26237 H 2528.22 -0.356699 5.06646 0
M  V30 26238 H 2528.15 -2.11977 4.82051 0
M  V30 26239 H 2530.64 -1.14305 3.60198 0
M  V30 26240 H 2530.96 -1.73387 7.53098 0
M  V30 26241 H 2529.3 -1.56609 6.77125 0
M  V30 26242 H 2532.49 -1.33535 4.48649 0
M  V30 26243 H 2532.67 -1.60499 6.27809 0
M  V30 26244 N 2526.07 -1.45812 -0.598057 0
M  V30 26245 C 2527.3 -1.54101 -1.38808 0
M  V30 26246 C 2527.72 -0.177611 -1.8726 0
M  V30 26247 O 2527.08 0.839513 -1.60692 0
M  V30 26248 C 2527.13 -2.53747 -2.56212 0
M  V30 26249 O 2526.23 -2.06188 -3.57156 0
M  V30 26250 H 2525.57 -0.519122 -0.414015 0
M  V30 26251 H 2528.1 -1.91251 -0.726938 0
M  V30 26252 H 2528.11 -2.72862 -3.03332 0
M  V30 26253 H 2526.79 -3.52763 -2.20297 0
M  V30 26254 H 2525.37 -1.96993 -3.1662 0
M  V30 26255 N 2527.55 0.841385 -1.33261 0
M  V30 26256 C 2528.78 1.62625 -1.27423 0
M  V30 26257 C 2529.19 1.88543 0.157571 0
M  V30 26258 O 2528.53 1.46421 1.10936 0
M  V30 26259 C 2528.59 3.00191 -1.97802 0
M  V30 26260 C 2528.26 2.97255 -3.47114 0
M  V30 26261 C 2529.25 2.73151 -4.42362 0
M  V30 26262 C 2526.94 3.17471 -3.89253 0
M  V30 26263 C 2528.93 2.69286 -5.77723 0
M  V30 26264 C 2526.62 3.13232 -5.24718 0
M  V30 26265 C 2527.62 2.8917 -6.18765 0
M  V30 26266 O 2527.31 2.84829 -7.5175 0
M  V30 26267 H 2527.04 0.51282 -0.440445 0
M  V30 26268 H 2529.59 1.05634 -1.76155 0
M  V30 26269 H 2527.82 3.59025 -1.43658 0
M  V30 26270 H 2529.51 3.61034 -1.85497 0
M  V30 26271 H 2530.28 2.57286 -4.11131 0
M  V30 26272 H 2526.16 3.35221 -3.16462 0
M  V30 26273 H 2529.7 2.50425 -6.51101 0
M  V30 26274 H 2525.6 3.28644 -5.55575 0
M  V30 26275 H 2526.37 3.00689 -7.61268 0
M  V30 26276 N 2529.03 1.16688 1.05932 0
M  V30 26277 C 2530.28 0.950653 1.78798 0
M  V30 26278 C 2530.6 -0.521272 1.87385 0
M  V30 26279 O 2529.86 -1.40294 1.36441 0
M  V30 26280 C 2530.16 1.52773 3.23102 0
M  V30 26281 C 2529.82 3.0226 3.34589 0
M  V30 26282 C 2528.49 3.43065 3.37431 0
M  V30 26283 C 2530.84 3.9826 3.36212 0
M  V30 26284 C 2528.17 4.78483 3.39516 0
M  V30 26285 C 2530.52 5.33568 3.39835 0
M  V30 26286 C 2529.18 5.73848 3.40961 0
M  V30 26287 H 2528.45 0.347869 0.654269 0
M  V30 26288 H 2531.1 1.45461 1.24553 0
M  V30 26289 H 2529.4 0.945307 3.80225 0
M  V30 26290 H 2531.1 1.33606 3.78088 0
M  V30 26291 H 2527.69 2.69726 3.33085 0
M  V30 26292 H 2531.88 3.67798 3.33224 0
M  V30 26293 H 2527.13 5.09015 3.38694 0
M  V30 26294 H 2531.31 6.07739 3.40039 0
M  V30 26295 H 2528.93 6.78759 3.4233 0
M  V30 26296 N 2530.51 -1.24529 0.96594 0
M  V30 26297 C 2531.73 -1.97148 0.644006 0
M  V30 26298 C 2532.16 -1.7119 -0.779457 0
M  V30 26299 O 2531.52 -0.97458 -1.52878 0
M  V30 26300 C 2531.56 -3.48597 0.922618 0
M  V30 26301 O 2530.67 -4.12399 0.00714921 0
M  V30 26302 H 2530.01 -0.617678 0.243658 0
M  V30 26303 H 2532.54 -1.58351 1.29561 0
M  V30 26304 H 2532.55 -3.98974 0.853443 0
M  V30 26305 H 2531.22 -3.66819 1.96002 0
M  V30 26306 H 2529.8 -3.72675 0.129495 0
M  V30 26307 N 2531.99 -0.735845 -1.39367 0
M  V30 26308 C 2532.9 -0.0980105 -2.34395 0
M  V30 26309 C 2533.91 0.72094 -1.58362 0
M  V30 26310 O 2535.09 0.649211 -1.90649 0
M  V30 26311 C 2532.15 0.797857 -3.37395 0
M  V30 26312 C 2531.21 -0.0334417 -4.29287 0
M  V30 26313 C 2530.45 0.819761 -5.27367 0
M  V30 26314 O 2530.67 2.05845 -5.31962 0
M  V30 26315 O 2529.6 0.247973 -6.01389 0
M  V30 26316 H 2533.43 -0.882366 -2.90599 0
M  V30 26317 H 2531.01 -0.496525 -1.40908 0
M  V30 26318 H 2532.9 1.31041 -4.00507 0
M  V30 26319 H 2531.57 1.56101 -2.83574 0
M  V30 26320 H 2530.48 -0.59154 -3.69394 0
M  V30 26321 H 2531.81 -0.758837 -4.86315 0
M  V30 26322 N 2533.46 1.49999 -0.483543 0
M  V30 26323 C 2534.37 2.32554 0.309131 0
M  V30 26324 C 2535.39 1.43495 0.984134 0
M  V30 26325 O 2536.57 1.76537 0.969367 0
M  V30 26326 C 2533.63 3.18495 1.36974 0
M  V30 26327 C 2532.69 4.23388 0.710021 0
M  V30 26328 C 2531.92 5.05221 1.72009 0
M  V30 26329 O 2532.15 4.8831 2.94805 0
M  V30 26330 O 2531.08 5.88022 1.28504 0
M  V30 26331 H 2534.91 3.01485 -0.366117 0
M  V30 26332 H 2532.49 1.47375 -0.245166 0
M  V30 26333 H 2534.37 3.71785 1.98379 0
M  V30 26334 H 2533.05 2.52279 2.02823 0
M  V30 26335 H 2531.96 3.74057 0.0566881 0
M  V30 26336 H 2533.29 4.9211 0.0942692 0
M  V30 26337 N 2534.94 0.216646 1.56104 0
M  V30 26338 C 2535.87 -0.727722 2.1734 0
M  V30 26339 C 2536.89 -1.16114 1.14111 0
M  V30 26340 O 2538.08 -1.09314 1.41112 0
M  V30 26341 C 2535.18 -1.99688 2.73821 0
M  V30 26342 C 2534.35 -1.71981 4.02171 0
M  V30 26343 C 2533.41 -2.83554 4.43264 0
M  V30 26344 O 2532.43 -2.52235 5.10261 0
M  V30 26345 N 2533.64 -4.124 4.08542 0
M  V30 26346 H 2536.4 -0.20393 2.99005 0
M  V30 26347 H 2533.96 0.0354574 1.61861 0
M  V30 26348 H 2535.95 -2.73511 2.98285 0
M  V30 26349 H 2534.52 -2.43128 1.96487 0
M  V30 26350 H 2533.74 -0.818269 3.85614 0
M  V30 26351 H 2535.03 -1.50894 4.8591 0
M  V30 26352 H 2534.43 -4.4069 3.54695 0
M  V30 26353 H 2532.99 -4.82782 4.3791 0
M  V30 26354 N 2536.42 -1.57498 -0.0567885 0
M  V30 26355 C 2537.67 -1.87605 -0.751584 0
M  V30 26356 C 2537.99 -0.810691 -1.77349 0
M  V30 26357 O 2537.26 0.158984 -1.95254 0
M  V30 26358 H 2535.84 -0.692307 -0.280571 0
M  V30 26359 H 2538.5 -1.94878 -0.0293141 0
M  V30 26360 H 2537.6 -2.85603 -1.25847 0
M  V30 26361 N 2537.9 0.328509 -1.54138 0
M  V30 26362 C 2538.81 1.4272 -1.86194 0
M  V30 26363 C 2539.82 1.56843 -0.753409 0
M  V30 26364 O 2541 1.72033 -1.04721 0
M  V30 26365 C 2538.06 2.77503 -2.07829 0
M  V30 26366 C 2537.13 2.72598 -3.31646 0
M  V30 26367 C 2536.36 4.00953 -3.52239 0
M  V30 26368 O 2536.58 4.98975 -2.76369 0
M  V30 26369 O 2535.52 4.04512 -4.45706 0
M  V30 26370 H 2539.34 1.18542 -2.7961 0
M  V30 26371 H 2536.93 0.522079 -1.39981 0
M  V30 26372 H 2538.81 3.57299 -2.23417 0
M  V30 26373 H 2537.48 3.01582 -1.17601 0
M  V30 26374 H 2536.39 1.9137 -3.21447 0
M  V30 26375 H 2537.72 2.53473 -4.21915 0
M  V30 26376 N 2539.38 1.46127 0.590316 0
M  V30 26377 C 2540.62 1.50311 1.34497 0
M  V30 26378 C 2540.94 0.156055 1.94976 0
M  V30 26379 O 2542.14 0.0756514 2.71395 0
M  V30 26380 C 2540.6 2.64819 2.43718 0
M  V30 26381 C 2540.21 4.05913 1.89575 0
M  V30 26382 C 2541.95 2.78267 3.20574 0
M  V30 26383 C 2539.86 5.11774 2.96381 0
M  V30 26384 H 2538.79 0.559377 0.505583 0
M  V30 26385 H 2541.44 1.72316 0.630818 0
M  V30 26386 H 2539.82 2.3613 3.17897 0
M  V30 26387 H 2541 4.44359 1.2199 0
M  V30 26388 H 2539.31 3.97066 1.25411 0
M  V30 26389 H 2541.91 3.54526 4.00269 0
M  V30 26390 H 2542.25 1.85512 3.72681 0
M  V30 26391 H 2542.78 3.06566 2.53499 0
M  V30 26392 H 2539.52 6.06296 2.4917 0
M  V30 26393 H 2539.04 4.7788 3.62479 0
M  V30 26394 H 2540.72 5.37284 3.60465 0
M  V30 26395 N 2540.85 -0.834306 1.33705 0
M  V30 26396 C 2541.76 -1.97646 1.26385 0
M  V30 26397 C 2542.78 -1.73132 0.173579 0
M  V30 26398 O 2543.96 -1.97428 0.397996 0
M  V30 26399 C 2541.02 -3.31731 1.00774 0
M  V30 26400 C 2540.08 -3.6933 2.18847 0
M  V30 26401 C 2539.31 -4.97017 1.94448 0
M  V30 26402 O 2539.54 -5.63302 0.89706 0
M  V30 26403 O 2538.47 -5.32226 2.81103 0
M  V30 26404 H 2542.3 -2.06763 2.22447 0
M  V30 26405 H 2539.88 -0.968017 1.13797 0
M  V30 26406 H 2541.76 -4.12061 0.882259 0
M  V30 26407 H 2540.44 -3.23607 0.0774352 0
M  V30 26408 H 2539.35 -2.89491 2.36951 0
M  V30 26409 H 2540.68 -3.82125 3.10228 0
M  V30 26410 N 2542.33 -1.17248 -1.05312 0
M  V30 26411 C 2543.58 -0.971545 -1.78697 0
M  V30 26412 C 2543.93 0.494659 -1.85932 0
M  V30 26413 O 2543.23 1.36241 -1.34718 0
M  V30 26414 C 2543.42 -1.54484 -3.22288 0
M  V30 26415 C 2543.25 -3.06527 -3.29046 0
M  V30 26416 C 2542.02 -3.75248 -3.38404 0
M  V30 26417 C 2544.22 -4.04134 -3.18088 0
M  V30 26418 N 2542.2 -5.14908 -3.3428 0
M  V30 26419 C 2543.57 -5.30238 -3.21322 0
M  V30 26420 C 2545.62 -3.95822 -3.02042 0
M  V30 26421 C 2544.33 -6.48995 -3.10158 0
M  V30 26422 C 2546.35 -5.14161 -2.92219 0
M  V30 26423 C 2545.72 -6.3915 -2.96085 0
M  V30 26424 H 2541.81 -0.409395 -0.666273 0
M  V30 26425 H 2544.4 -1.48812 -1.25551 0
M  V30 26426 H 2542.57 -1.05462 -3.73808 0
M  V30 26427 H 2544.3 -1.28066 -3.83903 0
M  V30 26428 H 2541.06 -3.25923 -3.43615 0
M  V30 26429 H 2541.48 -5.87912 -3.35692 0
M  V30 26430 H 2546.12 -3.00034 -2.97892 0
M  V30 26431 H 2543.84 -7.44995 -3.13063 0
M  V30 26432 H 2547.43 -5.09509 -2.80876 0
M  V30 26433 H 2546.31 -7.29181 -2.88555 0
M  V30 26434 N 2543.81 1.24015 -0.972531 0
M  V30 26435 C 2544.74 2.23695 -0.451209 0
M  V30 26436 C 2545.72 1.55435 0.477351 0
M  V30 26437 O 2546.91 1.8404 0.407615 0
M  V30 26438 C 2544.03 3.36906 0.34812 0
M  V30 26439 C 2543.08 4.23276 -0.523429 0
M  V30 26440 S 2543.91 4.98083 -1.96655 0
M  V30 26441 C 2545.07 6.1475 -1.17615 0
M  V30 26442 H 2545.3 2.67569 -1.29593 0
M  V30 26443 H 2542.83 1.3337 -0.777927 0
M  V30 26444 H 2544.79 4.02563 0.803316 0
M  V30 26445 H 2543.45 2.91581 1.16787 0
M  V30 26446 H 2542.65 5.03919 0.0905295 0
M  V30 26447 H 2542.25 3.62646 -0.914549 0
M  V30 26448 H 2544.54 6.76111 -0.433553 0
M  V30 26449 H 2545.48 6.80516 -1.95712 0
M  V30 26450 H 2545.89 5.60163 -0.698394 0
M  V30 26451 N 2545.29 0.743226 1.38974 0
M  V30 26452 C 2546.2 0.11044 2.3434 0
M  V30 26453 C 2547.21 -0.712531 1.58742 0
M  V30 26454 O 2548.39 -0.639092 1.90991 0
M  V30 26455 C 2545.46 -0.779953 3.37813 0
M  V30 26456 C 2544.52 0.0562073 4.29263 0
M  V30 26457 C 2543.75 -0.791782 5.27794 0
M  V30 26458 O 2543.97 -2.03021 5.33046 0
M  V30 26459 O 2542.91 -0.216077 6.01512 0
M  V30 26460 H 2546.73 0.897765 2.90127 0
M  V30 26461 H 2544.32 0.503991 1.40642 0
M  V30 26462 H 2546.2 -1.28916 4.01197 0
M  V30 26463 H 2544.87 -1.54595 2.84398 0
M  V30 26464 H 2543.78 0.611121 3.69075 0
M  V30 26465 H 2545.11 0.784617 4.85906 0
M  V30 26466 N 2546.77 -1.4974 0.491491 0
M  V30 26467 C 2547.99 -2.06831 -0.0534788 0
M  V30 26468 C 2548.41 -1.35298 -1.31681 0
M  V30 26469 O 2547.77 -0.428391 -1.77401 0
M  V30 26470 C 2547.82 -3.60074 -0.320772 0
M  V30 26471 O 2547.54 -4.28913 0.892469 0
M  V30 26472 C 2549.04 -4.3385 -0.910443 0
M  V30 26473 H 2546.26 -0.670804 0.0162027 0
M  V30 26474 H 2548.8 -1.92646 0.686124 0
M  V30 26475 H 2546.96 -3.73993 -1.01034 0
M  V30 26476 H 2547.37 -5.20463 0.649493 0
M  V30 26477 H 2548.85 -5.41977 -1.04711 0
M  V30 26478 H 2549.32 -3.95696 -1.90582 0
M  V30 26479 H 2549.93 -4.24513 -0.258638 0
M  V30 26480 N 2548.24 -0.224922 -1.55987 0
M  V30 26481 C 2549.19 0.700244 -2.21809 0
M  V30 26482 C 2550.19 1.19712 -1.19856 0
M  V30 26483 O 2551.39 1.15655 -1.37927 0
M  V30 26484 H 2547.77 0.244245 -0.71123 0
M  V30 26485 H 2549.74 0.121696 -2.98152 0
M  V30 26486 C 2548.49 1.89615 -2.91447 0
M  V30 26487 H 2547.81 1.52293 -3.69658 0
M  V30 26488 H 2549.25 2.52119 -3.40899 0
M  V30 26489 C 2547.71 2.75365 -1.94103 0
M  V30 26490 O 2548.24 3.74224 -1.4601 0
M  V30 26491 N 2546.45 2.41471 -1.61679 0
M  V30 26492 H 2545.99 1.61133 -2.00982 0
M  V30 26493 H 2545.95 2.99124 -0.968089 0
M  V30 26494 N 2549.72 1.57526 0.0484352 0
M  V30 26495 C 2550.67 2.05276 1.055 0
M  V30 26496 C 2551.64 0.937951 1.37083 0
M  V30 26497 O 2552.82 1.20723 1.47752 0
M  V30 26498 C 2549.96 2.52097 2.35672 0
M  V30 26499 C 2549.08 3.77292 2.10417 0
M  V30 26500 C 2548.21 4.128 3.3432 0
M  V30 26501 C 2547.25 5.30968 3.04532 0
M  V30 26502 N 2546.39 5.62001 4.20831 0
M  V30 26503 H 2551.23 2.91028 0.640834 0
M  V30 26504 H 2548.77 1.43907 0.304828 0
M  V30 26505 H 2550.72 2.77302 3.11704 0
M  V30 26506 H 2549.35 1.6929 2.74847 0
M  V30 26507 H 2548.41 3.59286 1.2497 0
M  V30 26508 H 2549.72 4.63451 1.8443 0
M  V30 26509 H 2548.87 4.39031 4.18732 0
M  V30 26510 H 2547.61 3.25254 3.63403 0
M  V30 26511 H 2546.62 5.04509 2.18519 0
M  V30 26512 H 2547.84 6.20151 2.76748 0
M  V30 26513 H 2545.79 4.77414 4.49902 0
M  V30 26514 H 2545.7 6.42629 3.98201 0
M  V30 26515 H 2546.97 5.92797 5.06173 0
M  V30 26516 N 2551.2 -0.32033 1.5431 0
M  V30 26517 C 2552.11 -1.4173 1.86948 0
M  V30 26518 C 2553.13 -1.56441 0.761717 0
M  V30 26519 O 2554.3 -1.71475 1.05632 0
M  V30 26520 C 2551.37 -2.76397 2.09297 0
M  V30 26521 C 2550.43 -2.70835 3.33087 0
M  V30 26522 C 2549.66 -3.99079 3.5436 0
M  V30 26523 O 2549.88 -4.97503 2.79011 0
M  V30 26524 O 2548.82 -4.02142 4.47845 0
M  V30 26525 H 2552.64 -1.17057 2.80234 0
M  V30 26526 H 2550.23 -0.514649 1.40256 0
M  V30 26527 H 2552.11 -3.56109 2.25309 0
M  V30 26528 H 2550.79 -3.00954 1.19199 0
M  V30 26529 H 2549.69 -1.89663 3.22458 0
M  V30 26530 H 2551.03 -2.51232 4.23253 0
M  V30 26531 N 2552.68 -1.46438 -0.582558 0
M  V30 26532 C 2553.9 -1.55565 -1.37165 0
M  V30 26533 C 2554.33 -0.197462 -1.87061 0
M  V30 26534 O 2553.69 0.822422 -1.61573 0
M  V30 26535 C 2553.73 -2.5645 -2.53506 0
M  V30 26536 O 2552.84 -2.09964 -3.54949 0
M  V30 26537 H 2552.18 -0.523484 -0.408485 0
M  V30 26538 H 2554.71 -1.92011 -0.706612 0
M  V30 26539 H 2554.72 -2.76064 -3.00421 0
M  V30 26540 H 2553.39 -3.5508 -2.16543 0
M  V30 26541 H 2551.97 -2.0034 -3.14513 0
M  V30 26542 N 2554.16 0.827204 -1.34146 0
M  V30 26543 C 2555.4 1.58004 -1.26012 0
M  V30 26544 C 2555.73 1.94249 0.170937 0
M  V30 26545 O 2555 1.61929 1.10253 0
M  V30 26546 H 2553.58 0.585873 -0.463424 0
M  V30 26547 H 2556.24 0.987922 -1.68006 0
M  V30 26548 H 2555.33 2.50478 -1.86191 0
M  V30 26549 N 2555.63 1.17805 1.04688 0
M  V30 26550 C 2556.86 0.99282 1.81181 0
M  V30 26551 C 2557.27 -0.462066 1.83471 0
M  V30 26552 O 2556.62 -1.33269 1.26432 0
M  V30 26553 C 2556.68 1.46355 3.2836 0
M  V30 26554 C 2556.34 2.94157 3.49744 0
M  V30 26555 C 2557.34 3.92057 3.41449 0
M  V30 26556 C 2555.02 3.32447 3.76542 0
M  V30 26557 C 2557.02 5.26244 3.59647 0
M  V30 26558 C 2554.7 4.66799 3.94388 0
M  V30 26559 C 2555.7 5.63506 3.8594 0
M  V30 26560 O 2555.39 6.95427 4.03282 0
M  V30 26561 H 2555.12 0.351192 0.577616 0
M  V30 26562 H 2557.68 1.56633 1.32873 0
M  V30 26563 H 2555.91 0.83364 3.77607 0
M  V30 26564 H 2557.6 1.24319 3.86393 0
M  V30 26565 H 2558.36 3.63821 3.20717 0
M  V30 26566 H 2554.24 2.57739 3.82219 0
M  V30 26567 H 2557.78 6.01713 3.52969 0
M  V30 26568 H 2553.68 4.94738 4.14613 0
M  V30 26569 H 2554.45 7.0224 4.20478 0
M  V30 26570 N 2557.11 -1.23497 0.979094 0
M  V30 26571 C 2558.52 -1.73703 0.684422 0
M  V30 26572 C 2558.87 -1.79175 -0.799417 0
M  V30 26573 O 2558 -1.42876 -1.62528 0
M  V30 26574 C 2558.59 -3.15462 1.2357 0
M  V30 26575 C 2557.15 -3.63128 0.990694 0
M  V30 26576 C 2556.3 -2.41422 1.36421 0
M  V30 26577 H 2559.25 -1.09039 1.15309 0
M  V30 26578 H 2559.27 -3.75619 0.607483 0
M  V30 26579 H 2558.78 -3.11446 2.31566 0
M  V30 26580 H 2556.89 -3.72528 -0.0732481 0
M  V30 26581 H 2557 -4.49998 1.64435 0
M  V30 26582 H 2555.36 -2.42377 0.782658 0
M  V30 26583 H 2556.15 -2.40079 2.45391 0
M  V30 26584 N 2558.59 -0.750586 -1.38578 0
M  V30 26585 C 2559.84 -0.302207 -1.99423 0
M  V30 26586 C 2560.15 1.1215 -1.60255 0
M  V30 26587 O 2561.36 1.67019 -2.14049 0
M  V30 26588 C 2559.82 -0.48937 -3.56557 0
M  V30 26589 C 2559.42 -1.92196 -4.04678 0
M  V30 26590 C 2561.17 -0.103553 -4.24374 0
M  V30 26591 C 2559.07 -2.05785 -5.54443 0
M  V30 26592 H 2558 -0.109243 -0.746044 0
M  V30 26593 H 2560.66 -0.926698 -1.58381 0
M  V30 26594 H 2559.04 0.204259 -3.95473 0
M  V30 26595 H 2560.21 -2.64882 -3.7706 0
M  V30 26596 H 2558.53 -2.26242 -3.49576 0
M  V30 26597 H 2561.12 -0.183881 -5.34384 0
M  V30 26598 H 2561.47 0.943409 -4.05469 0
M  V30 26599 H 2562 -0.748923 -3.90687 0
M  V30 26600 H 2558.74 -3.08725 -5.78247 0
M  V30 26601 H 2558.26 -1.37556 -5.83814 0
M  V30 26602 H 2559.94 -1.84637 -6.20095 0
M  V30 26603 N 2560.07 1.49477 -0.499425 0
M  V30 26604 C 2561.32 2.01644 0.0474904 0
M  V30 26605 C 2561.63 1.38428 1.38192 0
M  V30 26606 O 2562.84 1.81913 2.01544 0
M  V30 26607 C 2561.29 3.59646 0.135101 0
M  V30 26608 C 2560.9 4.31835 -1.19259 0
M  V30 26609 C 2562.65 4.19762 0.632464 0
M  V30 26610 C 2560.55 5.81691 -1.06723 0
M  V30 26611 H 2559.48 0.753693 0.0215217 0
M  V30 26612 H 2562.13 1.72029 -0.638607 0
M  V30 26613 H 2560.52 3.8597 0.885614 0
M  V30 26614 H 2561.69 4.17213 -1.95628 0
M  V30 26615 H 2560 3.83456 -1.62327 0
M  V30 26616 H 2562.6 5.29502 0.74374 0
M  V30 26617 H 2562.94 3.83024 1.63091 0
M  V30 26618 H 2563.48 3.97753 -0.0614686 0
M  V30 26619 H 2560.22 6.22951 -2.0399 0
M  V30 26620 H 2559.74 5.9881 -0.344412 0
M  V30 26621 H 2561.42 6.42693 -0.745321 0
M  V30 26622 N 2561.55 0.233191 1.55865 0
M  V30 26623 C 2562.5 -0.688471 2.22177 0
M  V30 26624 C 2563.49 -1.19074 1.20489 0
M  V30 26625 O 2564.7 -1.14922 1.38538 0
M  V30 26626 H 2561.07 -0.24047 0.712515 0
M  V30 26627 H 2563.04 -0.105883 2.98212 0
M  V30 26628 C 2561.79 -1.88066 2.92449 0
M  V30 26629 H 2561.11 -1.5033 3.7046 0
M  V30 26630 H 2562.55 -2.50308 3.42231 0
M  V30 26631 C 2561.01 -2.74332 1.9556 0
M  V30 26632 O 2561.54 -3.73445 1.47993 0
M  V30 26633 N 2559.75 -2.4061 1.62957 0
M  V30 26634 H 2559.3 -1.60065 2.01834 0
M  V30 26635 H 2559.25 -2.98607 0.983939 0
M  V30 26636 N 2563.03 -1.57549 -0.0400806 0
M  V30 26637 C 2563.99 -2.04819 -1.02868 0
M  V30 26638 C 2564.99 -0.950411 -1.29707 0
M  V30 26639 O 2566.18 -1.21437 -1.24895 0
M  V30 26640 C 2563.31 -2.4558 -2.36438 0
M  V30 26641 H 2564.5 -2.93409 -0.620579 0
M  V30 26642 H 2562.06 -1.53649 -0.28664 0
M  V30 26643 H 2562.79 -1.60113 -2.82018 0
M  V30 26644 H 2562.58 -3.25717 -2.18291 0
M  V30 26645 H 2564.07 -2.82618 -3.07436 0
M  V30 26646 N 2564.5 0.312142 -1.54478 0
M  V30 26647 C 2565.91 0.885862 -1.64345 0
M  V30 26648 C 2566.27 1.88482 -0.544883 0
M  V30 26649 O 2565.39 2.14016 0.32035 0
M  V30 26650 C 2565.99 1.61351 -2.97911 0
M  V30 26651 C 2564.54 2.1358 -3.09937 0
M  V30 26652 C 2563.69 0.964852 -2.59973 0
M  V30 26653 H 2566.64 0.0894249 -1.58448 0
M  V30 26654 H 2566.66 2.47843 -2.88711 0
M  V30 26655 H 2566.18 0.88621 -3.77846 0
M  V30 26656 H 2564.28 2.89391 -2.34699 0
M  V30 26657 H 2564.39 2.37797 -4.1592 0
M  V30 26658 H 2562.75 1.34727 -2.1615 0
M  V30 26659 H 2563.54 0.251682 -3.42376 0
M  V30 26660 N 2565.98 1.46745 0.574784 0
M  V30 26661 C 2567.21 1.56049 1.35854 0
M  V30 26662 C 2567.62 0.204398 1.8769 0
M  V30 26663 O 2566.98 -0.799601 1.64051 0
M  V30 26664 C 2567.03 2.57168 2.54061 0
M  V30 26665 O 2566.75 3.8751 2.04371 0
M  V30 26666 C 2568.25 2.76489 3.4651 0
M  V30 26667 H 2565.47 0.527473 0.414744 0
M  V30 26668 H 2568.02 1.92219 0.698001 0
M  V30 26669 H 2566.17 2.2398 3.16088 0
M  V30 26670 H 2566.59 4.42615 2.81411 0
M  V30 26671 H 2568.06 3.51145 4.25912 0
M  V30 26672 H 2568.54 1.83678 3.98947 0
M  V30 26673 H 2569.14 3.10804 2.90312 0
M  V30 26674 N 2567.46 -0.820078 1.34583 0
M  V30 26675 C 2568.41 -1.93115 1.26393 0
M  V30 26676 C 2569.38 -1.65521 0.138583 0
M  V30 26677 O 2570.56 -1.88097 0.320037 0
M  V30 26678 C 2567.7 -3.29427 1.02818 0
M  V30 26679 C 2566.81 -3.69296 2.24153 0
M  V30 26680 C 2565.95 -4.94571 1.93838 0
M  V30 26681 C 2564.99 -5.27028 3.113 0
M  V30 26682 N 2564.13 -6.43481 2.80849 0
M  V30 26683 H 2568.97 -1.99451 2.21412 0
M  V30 26684 H 2566.5 -0.975765 1.10078 0
M  V30 26685 H 2568.46 -4.07988 0.87186 0
M  V30 26686 H 2567.09 -3.22596 0.114669 0
M  V30 26687 H 2566.14 -2.86105 2.50696 0
M  V30 26688 H 2567.45 -3.89251 3.11905 0
M  V30 26689 H 2566.61 -5.80926 1.74958 0
M  V30 26690 H 2565.35 -4.76624 1.03349 0
M  V30 26691 H 2564.35 -4.3917 3.30772 0
M  V30 26692 H 2565.58 -5.46913 4.0257 0
M  V30 26693 H 2563.52 -6.26985 1.9294 0
M  V30 26694 H 2563.44 -6.63622 3.62134 0
M  V30 26695 H 2564.71 -7.32899 2.6548 0
M  V30 26696 N 2568.94 -1.18359 -1.04062 0
M  V30 26697 C 2570.17 -1.00387 -1.80915 0
M  V30 26698 C 2570.58 0.447706 -1.83415 0
M  V30 26699 O 2569.94 1.31097 -1.26964 0
M  V30 26700 C 2569.99 -1.55149 -3.26513 0
M  V30 26701 O 2569.71 -2.94624 -3.24235 0
M  V30 26702 C 2571.21 -1.41796 -4.2001 0
M  V30 26703 H 2568.43 -0.354484 -0.569721 0
M  V30 26704 H 2570.97 -1.56909 -1.31149 0
M  V30 26705 H 2569.13 -1.02804 -3.7351 0
M  V30 26706 H 2569.54 -3.20164 -4.15446 0
M  V30 26707 H 2571.02 -1.84911 -5.20108 0
M  V30 26708 H 2571.49 -0.366687 -4.37667 0
M  V30 26709 H 2572.1 -1.93214 -3.78878 0
M  V30 26710 N 2570.42 1.22976 -0.98563 0
M  V30 26711 C 2571.36 2.24635 -0.529864 0
M  V30 26712 C 2572.33 1.6033 0.434 0
M  V30 26713 O 2573.52 1.87739 0.340381 0
M  V30 26714 C 2570.66 3.44745 0.156472 0
M  V30 26715 C 2569.77 4.2359 -0.848271 0
M  V30 26716 C 2568.91 5.31025 -0.136203 0
M  V30 26717 C 2567.94 6.01583 -1.12981 0
M  V30 26718 N 2567.08 7.00679 -0.446538 0
M  V30 26719 H 2571.92 2.62985 -1.40153 0
M  V30 26720 H 2569.46 1.29258 -0.702191 0
M  V30 26721 H 2571.42 4.13271 0.571252 0
M  V30 26722 H 2570.05 3.0718 0.991971 0
M  V30 26723 H 2569.1 3.54431 -1.38141 0
M  V30 26724 H 2570.41 4.72266 -1.6052 0
M  V30 26725 H 2569.56 6.05771 0.335677 0
M  V30 26726 H 2568.3 4.83305 0.653288 0
M  V30 26727 H 2567.31 5.25625 -1.61239 0
M  V30 26728 H 2568.53 6.51392 -1.92005 0
M  V30 26729 H 2566.48 6.55201 0.323648 0
M  V30 26730 H 2566.4 7.47324 -1.14204 0
M  V30 26731 H 2567.66 7.795 0.00277995 0
M  V30 26732 N 2571.89 0.757924 1.38178 0
M  V30 26733 C 2572.82 0.148638 2.33026 0
M  V30 26734 C 2573.8 -0.698723 1.55087 0
M  V30 26735 O 2574.99 -0.63902 1.83385 0
M  V30 26736 C 2572.12 -0.741975 3.39282 0
M  V30 26737 C 2571.07 0.00299469 4.28 0
M  V30 26738 C 2570.4 -1.00615 5.25148 0
M  V30 26739 C 2571.7 1.17394 5.08936 0
M  V30 26740 H 2573.39 0.940959 2.84229 0
M  V30 26741 H 2570.94 0.453932 1.36658 0
M  V30 26742 H 2572.89 -1.17792 4.04602 0
M  V30 26743 H 2571.62 -1.56666 2.86571 0
M  V30 26744 H 2570.28 0.419568 3.64191 0
M  V30 26745 H 2569.92 -1.82502 4.68724 0
M  V30 26746 H 2569.62 -0.512325 5.85362 0
M  V30 26747 H 2571.15 -1.44133 5.93345 0
M  V30 26748 H 2572.56 0.815324 5.67473 0
M  V30 26749 H 2570.96 1.59892 5.78407 0
M  V30 26750 H 2572.03 1.98475 4.4242 0
M  V30 26751 N 2573.37 -1.4921 0.507345 0
M  V30 26752 C 2574.28 -2.33017 -0.272095 0
M  V30 26753 C 2575.3 -1.45042 -0.961181 0
M  V30 26754 O 2576.47 -1.78057 -0.941159 0
M  V30 26755 C 2573.54 -3.20634 -1.3189 0
M  V30 26756 C 2572.6 -4.24464 -0.642574 0
M  V30 26757 C 2571.83 -5.07894 -1.6395 0
M  V30 26758 O 2572.06 -4.92938 -2.86999 0
M  V30 26759 O 2570.99 -5.89992 -1.19133 0
M  V30 26760 H 2574.82 -3.00864 0.414035 0
M  V30 26761 H 2572.4 -1.46966 0.268581 0
M  V30 26762 H 2574.28 -3.74894 -1.92439 0
M  V30 26763 H 2572.96 -2.55473 -1.98784 0
M  V30 26764 H 2571.87 -3.741 0.00282828 0
M  V30 26765 H 2573.2 -4.92197 -0.0159668 0
M  V30 26766 N 2574.85 -0.241454 -1.55739 0
M  V30 26767 C 2576.26 0.262722 -1.84842 0
M  V30 26768 C 2576.61 1.58001 -1.1632 0
M  V30 26769 O 2575.74 2.11886 -0.43969 0
M  V30 26770 C 2576.33 0.483464 -3.35333 0
M  V30 26771 C 2574.89 0.931913 -3.64681 0
M  V30 26772 C 2574.04 0.00606635 -2.77299 0
M  V30 26773 H 2576.99 -0.464155 -1.51761 0
M  V30 26774 H 2577.01 1.32682 -3.56617 0
M  V30 26775 H 2576.52 -0.475437 -3.85177 0
M  V30 26776 H 2574.62 1.90347 -3.2031 0
M  V30 26777 H 2574.74 0.792545 -4.72499 0
M  V30 26778 H 2573.1 0.51646 -2.49409 0
M  V30 26779 H 2573.88 -0.94811 -3.29948 0
M  V30 26780 N 2576.33 1.57568 0.0317248 0
M  V30 26781 C 2577.55 1.93802 0.73863 0
M  V30 26782 C 2577.98 0.841238 1.6824 0
M  V30 26783 O 2577.34 -0.203235 1.80157 0
M  V30 26784 C 2577.38 3.29093 1.47411 0
M  V30 26785 O 2576.49 3.21155 2.58715 0
M  V30 26786 H 2575.83 0.633527 0.198844 0
M  V30 26787 H 2578.36 2.04596 -0.0120072 0
M  V30 26788 H 2578.37 3.6392 1.84462 0
M  V30 26789 H 2577.04 4.08484 0.781916 0
M  V30 26790 H 2575.62 2.97955 2.24226 0
M  V30 26791 N 2577.81 -0.303946 1.54641 0
M  V30 26792 C 2579.05 -1.04106 1.7404 0
M  V30 26793 C 2579.39 -1.87023 0.523084 0
M  V30 26794 O 2578.66 -1.88488 -0.479841 0
M  V30 26795 C 2578.94 -1.9495 3.02765 0
M  V30 26796 C 2578.8 -1.15233 4.34789 0
M  V30 26797 C 2580.12 -2.94169 3.27342 0
M  V30 26798 H 2577.23 -0.377068 0.633237 0
M  V30 26799 H 2579.88 -0.315968 1.87354 0
M  V30 26800 H 2578.03 -2.56776 2.91544 0
M  V30 26801 H 2579.7 -0.557155 4.57923 0
M  V30 26802 H 2577.94 -0.454977 4.31407 0
M  V30 26803 H 2578.61 -1.82041 5.21119 0
M  V30 26804 H 2581.09 -2.42471 3.38152 0
M  V30 26805 H 2579.96 -3.549 4.18733 0
M  V30 26806 H 2580.23 -3.67673 2.45497 0
M  V30 26807 N 2579.28 -1.47047 -0.566994 0
M  V30 26808 C 2580.53 -1.53169 -1.32459 0
M  V30 26809 C 2580.86 -0.189875 -1.93571 0
M  V30 26810 O 2580.11 0.816212 -1.77866 0
M  V30 26811 C 2580.41 -2.59052 -2.46225 0
M  V30 26812 C 2580.08 -4.02615 -2.03007 0
M  V30 26813 C 2578.74 -4.41698 -1.90936 0
M  V30 26814 C 2581.09 -4.92735 -1.69886 0
M  V30 26815 C 2578.42 -5.68747 -1.44025 0
M  V30 26816 C 2580.77 -6.20238 -1.2445 0
M  V30 26817 C 2579.44 -6.58212 -1.10967 0
M  V30 26818 H 2578.71 -0.560486 -0.484703 0
M  V30 26819 H 2581.35 -1.806 -0.636856 0
M  V30 26820 H 2579.66 -2.25341 -3.20513 0
M  V30 26821 H 2581.36 -2.61013 -3.04422 0
M  V30 26822 H 2577.95 -3.7173 -2.13342 0
M  V30 26823 H 2582.13 -4.63247 -1.78089 0
M  V30 26824 H 2577.39 -5.96927 -1.32243 0
M  V30 26825 H 2581.56 -6.89487 -0.978802 0
M  V30 26826 H 2579.19 -7.56551 -0.743945 0
M  V30 26827 N 2580.76 0.812929 -1.35016 0
M  V30 26828 C 2581.71 1.91356 -1.23963 0
M  V30 26829 C 2582.7 1.60321 -0.136334 0
M  V30 26830 O 2583.89 1.73154 -0.366955 0
M  V30 26831 C 2581.02 3.28186 -1.00741 0
M  V30 26832 C 2580.1 3.65307 -2.15433 0
M  V30 26833 N 2580.49 3.73915 -3.40619 0
M  V30 26834 C 2578.79 3.95221 -2.06679 0
M  V30 26835 C 2579.49 4.06593 -4.16001 0
M  V30 26836 N 2578.47 4.20343 -3.44693 0
M  V30 26837 H 2582.27 1.96204 -2.18818 0
M  V30 26838 H 2579.79 1.00716 -1.27397 0
M  V30 26839 H 2581.78 4.06867 -0.909124 0
M  V30 26840 H 2580.44 3.2463 -0.067643 0
M  V30 26841 H 2581.45 3.57154 -3.75049 0
M  V30 26842 H 2578.13 3.99727 -1.20518 0
M  V30 26843 H 2579.52 4.20373 -5.24153 0
M  V30 26844 N 2582.24 1.18909 1.03433 0
M  V30 26845 C 2583.52 0.897841 1.73776 0
M  V30 26846 C 2583.9 -0.597796 2.02459 0
M  V30 26847 O 2583.25 -1.55438 1.67485 0
M  V30 26848 C 2583.46 1.75192 3.01842 0
M  V30 26849 C 2584.8 1.98286 3.75457 0
M  V30 26850 O 2585.83 1.72298 3.11756 0
M  V30 26851 O 2584.69 2.42074 4.89962 0
M  V30 26852 H 2581.78 0.334112 0.756504 0
M  V30 26853 H 2584.33 1.29695 1.09441 0
M  V30 26854 H 2583.1 2.7655 2.76831 0
M  V30 26855 H 2582.72 1.35174 3.73917 0
M  V30 26856 N 2583.72 -1.22452 0.992137 0
M  V30 26857 C 2584.96 -1.91463 0.668557 0
M  V30 26858 C 2585.3 -1.77079 -0.797281 0
M  V30 26859 O 2584.57 -1.13919 -1.57648 0
M  V30 26860 C 2584.86 -3.43702 1.0743 0
M  V30 26861 C 2584.71 -3.67139 2.59864 0
M  V30 26862 C 2586.03 -4.35611 0.626968 0
M  V30 26863 H 2583.15 -0.695313 0.244353 0
M  V30 26864 H 2585.79 -1.44343 1.23552 0
M  V30 26865 H 2583.94 -3.83965 0.591884 0
M  V30 26866 H 2585.61 -3.36284 3.1577 0
M  V30 26867 H 2583.85 -3.11446 3.01967 0
M  V30 26868 H 2584.52 -4.73754 2.83304 0
M  V30 26869 H 2587 -4.02859 1.04132 0
M  V30 26870 H 2585.88 -5.40806 0.939171 0
M  V30 26871 H 2586.14 -4.39569 -0.472379 0
M  V30 26872 N 2585.2 -0.765242 -1.37774 0
M  V30 26873 C 2586.44 -0.326623 -1.99849 0
M  V30 26874 C 2586.77 1.09501 -1.60747 0
M  V30 26875 O 2586.03 1.76658 -0.842052 0
M  V30 26876 C 2586.33 -0.410115 -3.55039 0
M  V30 26877 C 2585.99 -1.78907 -4.13888 0
M  V30 26878 C 2584.65 -2.16642 -4.29674 0
M  V30 26879 C 2587.01 -2.69309 -4.46231 0
M  V30 26880 C 2584.33 -3.44229 -4.75104 0
M  V30 26881 C 2586.69 -3.96298 -4.93082 0
M  V30 26882 C 2585.35 -4.34087 -5.07074 0
M  V30 26883 H 2584.62 -0.11952 -0.731297 0
M  V30 26884 H 2587.27 -0.977997 -1.64643 0
M  V30 26885 H 2585.57 0.324809 -3.90451 0
M  V30 26886 H 2587.27 -0.0521404 -4.00966 0
M  V30 26887 H 2583.86 -1.48576 -4.02024 0
M  V30 26888 H 2588.04 -2.41417 -4.33626 0
M  V30 26889 H 2583.3 -3.7341 -4.84123 0
M  V30 26890 H 2587.47 -4.66482 -5.17076 0
M  V30 26891 H 2585.1 -5.33011 -5.42036 0
M  V30 26892 N 2586.67 1.48939 -0.515251 0
M  V30 26893 C 2587.58 2.33158 0.259733 0
M  V30 26894 C 2588.6 1.4555 0.953475 0
M  V30 26895 O 2589.78 1.78553 0.931703 0
M  V30 26896 C 2586.84 3.21329 1.30187 0
M  V30 26897 C 2585.9 4.24799 0.620054 0
M  V30 26898 C 2585.14 5.08756 1.61254 0
M  V30 26899 O 2585.36 4.94453 2.84381 0
M  V30 26900 O 2584.29 5.90616 1.16003 0
M  V30 26901 H 2588.12 3.00641 -0.429984 0
M  V30 26902 H 2585.7 1.46821 -0.276372 0
M  V30 26903 H 2587.59 3.75909 1.90448 0
M  V30 26904 H 2586.26 2.56524 1.97426 0
M  V30 26905 H 2585.17 3.74093 -0.0226677 0
M  V30 26906 H 2586.5 4.92199 -0.0101358 0
M  V30 26907 N 2588.15 0.249709 1.55609 0
M  V30 26908 C 2589.4 -0.373513 1.98618 0
M  V30 26909 C 2589.72 -1.58262 1.13922 0
M  V30 26910 O 2588.99 -1.9463 0.222671 0
M  V30 26911 H 2587.57 -0.140993 0.733573 0
M  V30 26912 H 2590.23 0.34915 1.91747 0
M  V30 26913 H 2589.33 -0.680743 3.04585 0
M  V30 26914 N 2589.63 -1.57583 -0.0233682 0
M  V30 26915 C 2590.58 -2.06929 -1.02221 0
M  V30 26916 C 2591.55 -0.959641 -1.35573 0
M  V30 26917 O 2592.73 -1.23058 -1.45813 0
M  V30 26918 C 2589.87 -2.55814 -2.31632 0
M  V30 26919 C 2588.99 -3.80591 -2.04388 0
M  V30 26920 C 2588.12 -4.18067 -3.2771 0
M  V30 26921 C 2587.16 -5.35745 -2.96046 0
M  V30 26922 N 2586.3 -5.68625 -4.11837 0
M  V30 26923 H 2591.14 -2.92011 -0.594453 0
M  V30 26924 H 2588.67 -1.44374 -0.281896 0
M  V30 26925 H 2590.63 -2.82226 -3.07253 0
M  V30 26926 H 2589.26 -1.73641 -2.72119 0
M  V30 26927 H 2588.31 -3.61229 -1.19238 0
M  V30 26928 H 2589.63 -4.66327 -1.77034 0
M  V30 26929 H 2588.78 -4.45637 -4.11695 0
M  V30 26930 H 2587.52 -3.30994 -3.58182 0
M  V30 26931 H 2586.52 -5.07922 -2.10465 0
M  V30 26932 H 2587.75 -6.24476 -2.66846 0
M  V30 26933 H 2585.7 -4.84511 -4.4225 0
M  V30 26934 H 2585.61 -6.48883 -3.87927 0
M  V30 26935 H 2586.88 -6.00775 -4.96678 0
M  V30 26936 N 2591.11 0.29574 -1.548 0
M  V30 26937 C 2592.06 1.36491 -1.86115 0
M  V30 26938 C 2593.03 1.50136 -0.710527 0
M  V30 26939 O 2594.21 1.6491 -0.959655 0
M  V30 26940 C 2591.35 2.72409 -2.11866 0
M  V30 26941 C 2590.46 2.67171 -3.39475 0
M  V30 26942 C 2589.6 3.95119 -3.55042 0
M  V30 26943 C 2588.64 3.84299 -4.76425 0
M  V30 26944 N 2587.78 5.04033 -4.88769 0
M  V30 26945 H 2592.62 1.09086 -2.77316 0
M  V30 26946 H 2590.15 0.527506 -1.37316 0
M  V30 26947 H 2592.11 3.51461 -2.24792 0
M  V30 26948 H 2590.74 2.98064 -1.23925 0
M  V30 26949 H 2589.79 1.79956 -3.35142 0
M  V30 26950 H 2591.1 2.55069 -4.28651 0
M  V30 26951 H 2590.26 4.82608 -3.67661 0
M  V30 26952 H 2589 4.10061 -2.64009 0
M  V30 26953 H 2588 2.95194 -4.63833 0
M  V30 26954 H 2589.23 3.70896 -5.6887 0
M  V30 26955 H 2587.17 5.19429 -4.00661 0
M  V30 26956 H 2587.09 4.94374 -5.71954 0
M  V30 26957 H 2588.36 5.93158 -5.0575 0
M  V30 26958 N 2592.59 1.47346 0.559187 0
M  V30 26959 C 2593.5 1.62314 1.69386 0
M  V30 26960 C 2594.51 0.506022 1.66479 0
M  V30 26961 O 2595.69 0.773295 1.85963 0
M  V30 26962 C 2592.75 1.63191 3.05892 0
M  V30 26963 C 2591.82 2.86313 3.1988 0
M  V30 26964 C 2591.05 2.87139 4.49874 0
M  V30 26965 O 2591.27 1.97239 5.35213 0
M  V30 26966 O 2590.21 3.78976 4.67612 0
M  V30 26967 H 2594.03 2.5832 1.59701 0
M  V30 26968 H 2591.62 1.30409 0.728966 0
M  V30 26969 H 2593.5 1.66458 3.8713 0
M  V30 26970 H 2592.17 0.703506 3.15963 0
M  V30 26971 H 2591.08 2.88591 2.38046 0
M  V30 26972 H 2592.41 3.78441 3.14712 0
M  V30 26973 N 2594.07 -0.805758 1.35445 0
M  V30 26974 C 2595.48 -1.37981 1.25771 0
M  V30 26975 C 2595.83 -1.95894 -0.109546 0
M  V30 26976 O 2594.95 -1.91357 -1.01053 0
M  V30 26977 C 2595.55 -2.50846 2.27732 0
M  V30 26978 C 2594.11 -3.04111 2.21796 0
M  V30 26979 C 2593.25 -1.7708 2.13396 0
M  V30 26980 H 2596.2 -0.608726 1.46561 0
M  V30 26981 H 2596.23 -3.2942 1.90427 0
M  V30 26982 H 2595.74 -2.08666 3.27231 0
M  V30 26983 H 2593.84 -3.50753 1.2571 0
M  V30 26984 H 2593.95 -3.62036 3.13794 0
M  V30 26985 H 2592.32 -1.98665 1.59387 0
M  V30 26986 H 2593.1 -1.3705 3.14757 0
M  V30 26987 N 2595.54 -1.19456 -1.02801 0
M  V30 26988 C 2596.51 -0.934992 -2.09262 0
M  V30 26989 C 2597.51 0.0848733 -1.60576 0
M  V30 26990 O 2598.7 -0.149963 -1.73553 0
M  V30 26991 C 2595.83 -0.405369 -3.38481 0
M  V30 26992 H 2597.02 -1.8792 -2.33722 0
M  V30 26993 H 2594.57 -1.00834 -1.19425 0
M  V30 26994 H 2595.31 0.544843 -3.1969 0
M  V30 26995 H 2595.09 -1.14072 -3.7514 0
M  V30 26996 H 2596.58 -0.242879 -4.16893 0
M  V30 26997 N 2597.02 1.21924 -0.998617 0
M  V30 26998 C 2598.27 1.91106 -0.678701 0
M  V30 26999 C 2598.6 1.775 0.787879 0
M  V30 27000 O 2597.88 1.14753 1.57041 0
M  V30 27001 C 2598.16 3.43127 -1.09251 0
M  V30 27002 C 2598.01 3.65756 -2.61807 0
M  V30 27003 C 2599.33 4.35273 -0.650061 0
M  V30 27004 H 2596.45 0.694008 -0.248037 0
M  V30 27005 H 2599.09 1.43686 -1.24316 0
M  V30 27006 H 2597.24 3.83646 -0.612238 0
M  V30 27007 H 2598.91 3.34605 -3.17549 0
M  V30 27008 H 2597.16 3.0984 -3.03614 0
M  V30 27009 H 2597.83 4.72245 -2.85813 0
M  V30 27010 H 2600.3 4.02301 -1.06267 0
M  V30 27011 H 2599.18 5.403 -0.967838 0
M  V30 27012 H 2599.44 4.39813 0.449061 0
M  V30 27013 N 2598.5 0.772537 1.37367 0
M  V30 27014 C 2599.43 0.173345 2.32856 0
M  V30 27015 C 2600.41 -0.682234 1.55819 0
M  V30 27016 O 2601.6 -0.619534 1.84053 0
M  V30 27017 C 2598.73 -0.705947 3.4005 0
M  V30 27018 C 2597.68 0.0483896 4.27973 0
M  V30 27019 C 2597.01 -0.950399 5.26186 0
M  V30 27020 C 2598.31 1.22785 5.07662 0
M  V30 27021 H 2600 0.971052 2.83215 0
M  V30 27022 H 2597.55 0.468401 1.36169 0
M  V30 27023 H 2599.5 -1.13494 4.05829 0
M  V30 27024 H 2598.22 -1.53618 2.88217 0
M  V30 27025 H 2596.88 0.458171 3.63726 0
M  V30 27026 H 2596.53 -1.7752 4.70633 0
M  V30 27027 H 2596.23 -0.450211 5.85873 0
M  V30 27028 H 2597.75 -1.37832 5.9484 0
M  V30 27029 H 2599.17 0.875466 5.66576 0
M  V30 27030 H 2597.56 1.66018 5.76679 0
M  V30 27031 H 2598.63 2.03157 4.4029 0
M  V30 27032 N 2599.98 -1.48664 0.523142 0
M  V30 27033 C 2600.93 -2.31178 -0.256818 0
M  V30 27034 C 2601.92 -1.40796 -0.941965 0
M  V30 27035 O 2603.13 -1.57737 -0.867129 0
M  V30 27036 H 2599.5 -0.745093 -0.101687 0
M  V30 27037 H 2601.47 -2.94852 0.458791 0
M  V30 27038 C 2600.22 -3.22685 -1.29498 0
M  V30 27039 H 2599.54 -3.92173 -0.777179 0
M  V30 27040 H 2600.98 -3.83318 -1.81226 0
M  V30 27041 C 2599.44 -2.43817 -2.32497 0
M  V30 27042 O 2599.97 -2.15808 -3.38806 0
M  V30 27043 N 2598.18 -2.05436 -2.05534 0
M  V30 27044 H 2597.73 -2.28414 -1.191 0
M  V30 27045 H 2597.68 -1.52977 -2.74673 0
M  V30 27046 N 2601.46 -0.257958 -1.55475 0
M  V30 27047 C 2602.87 0.243103 -1.85111 0
M  V30 27048 C 2603.22 1.56758 -1.17989 0
M  V30 27049 O 2602.34 2.11408 -0.462139 0
M  V30 27050 C 2602.94 0.44787 -3.35827 0
M  V30 27051 C 2601.5 0.893181 -3.65649 0
M  V30 27052 C 2600.64 -0.0233453 -2.7729 0
M  V30 27053 H 2603.59 -0.480225 -1.5126 0
M  V30 27054 H 2603.62 1.28892 -3.58004 0
M  V30 27055 H 2603.13 -0.516264 -3.84651 0
M  V30 27056 H 2601.23 1.86939 -3.22311 0
M  V30 27057 H 2601.34 0.742386 -4.73313 0
M  V30 27058 H 2599.71 0.489977 -2.49943 0
M  V30 27059 H 2600.49 -0.983052 -3.28924 0
M  V30 27060 N 2602.93 1.57593 0.0150108 0
M  V30 27061 C 2604.35 1.55231 0.37088 0
M  V30 27062 C 2604.55 0.985912 1.75733 0
M  V30 27063 O 2603.61 0.61312 2.44943 0
M  V30 27064 C 2604.92 2.99575 0.259856 0
M  V30 27065 C 2606.47 3.11192 0.335904 0
M  V30 27066 C 2606.94 4.57294 0.254173 0
M  V30 27067 N 2608.43 4.62144 0.312537 0
M  V30 27068 C 2609.17 5.72753 0.272405 0
M  V30 27069 N 2608.66 6.92556 0.183742 0
M  V30 27070 N 2610.46 5.6117 0.323169 0
M  V30 27071 H 2602.61 1.92755 -0.892138 0
M  V30 27072 H 2604.87 0.884709 -0.340579 0
M  V30 27073 H 2604.58 3.44796 -0.693463 0
M  V30 27074 H 2604.45 3.62351 1.04794 0
M  V30 27075 H 2606.84 2.65911 1.27966 0
M  V30 27076 H 2606.92 2.51222 -0.481783 0
M  V30 27077 H 2606.56 5.03246 -0.685976 0
M  V30 27078 H 2606.49 5.15192 1.09015 0
M  V30 27079 H 2608.98 3.75954 0.383003 0
M  V30 27080 H 2609.3 7.72637 0.158604 0
M  V30 27081 H 2607.64 6.94839 0.149586 0
M  V30 27082 H 2610.83 4.66468 0.390525 0
M  V30 27083 H 2611.01 6.47358 0.288425 0
M  V30 27084 N 2604.41 -0.287527 1.54955 0
M  V30 27085 C 2605.69 -1.04143 1.6557 0
M  V30 27086 C 2606.07 -2.04779 0.512708 0
M  V30 27087 O 2605.42 -2.23206 -0.488999 0
M  V30 27088 C 2605.63 -1.71125 3.04166 0
M  V30 27089 C 2606.98 -2.22826 3.61433 0
M  V30 27090 O 2608 -1.81136 3.06705 0
M  V30 27091 O 2606.86 -2.99252 4.57286 0
M  V30 27092 H 2603.95 -0.482176 0.671889 0
M  V30 27093 H 2606.5 -0.284541 1.67298 0
M  V30 27094 H 2605.27 -0.981236 3.78797 0
M  V30 27095 H 2604.89 -2.53537 3.06275 0
M  V30 27096 N 2605.89 -1.47641 -0.551365 0
M  V30 27097 C 2607.3 -1.48356 -1.13346 0
M  V30 27098 C 2607.65 -0.241466 -1.94708 0
M  V30 27099 O 2606.78 0.653169 -2.06307 0
M  V30 27100 C 2607.37 -2.68806 -2.06225 0
M  V30 27101 C 2605.93 -2.72462 -2.59695 0
M  V30 27102 C 2605.08 -2.41549 -1.36197 0
M  V30 27103 H 2608.03 -1.55066 -0.337671 0
M  V30 27104 H 2608.05 -2.46108 -2.90191 0
M  V30 27105 H 2607.56 -3.59191 -1.46981 0
M  V30 27106 H 2605.66 -1.86231 -3.22721 0
M  V30 27107 H 2605.78 -3.73313 -3.0029 0
M  V30 27108 H 2604.14 -1.92253 -1.67065 0
M  V30 27109 H 2604.92 -3.34149 -0.787366 0
M  V30 27110 N 2607.37 0.798563 -1.3587 0
M  V30 27111 C 2608.78 1.0953 -1.16084 0
M  V30 27112 C 2608.98 2.01489 0.021277 0
M  V30 27113 O 2608.04 2.42905 0.689445 0
M  V30 27114 C 2609.35 1.71856 -2.46751 0
M  V30 27115 C 2610.9 1.84239 -2.53031 0
M  V30 27116 C 2611.38 2.49981 -3.83762 0
M  V30 27117 N 2612.87 2.57458 -3.85058 0
M  V30 27118 C 2613.6 3.09114 -4.82945 0
M  V30 27119 N 2613.1 3.61146 -5.91224 0
M  V30 27120 N 2614.89 3.07741 -4.70374 0
M  V30 27121 H 2607.04 0.187424 -2.11571 0
M  V30 27122 H 2609.31 0.145749 -0.936729 0
M  V30 27123 H 2609.01 1.11753 -3.33473 0
M  V30 27124 H 2608.89 2.71467 -2.61888 0
M  V30 27125 H 2611.27 2.43483 -1.66733 0
M  V30 27126 H 2611.35 0.834601 -2.41802 0
M  V30 27127 H 2611 1.91385 -4.70462 0
M  V30 27128 H 2610.93 3.51313 -3.92284 0
M  V30 27129 H 2613.42 2.20604 -3.06826 0
M  V30 27130 H 2613.73 3.98885 -6.61899 0
M  V30 27131 H 2612.08 3.59323 -5.94905 0
M  V30 27132 H 2615.27 2.66375 -3.84918 0
M  V30 27133 H 2615.44 3.47691 -5.46823 0
M  V30 27134 N 2608.85 1.19999 1.02166 0
M  V30 27135 C 2609.78 0.968077 2.12486 0
M  V30 27136 C 2610.76 -0.101155 1.69799 0
M  V30 27137 O 2611.94 0.0553334 1.94121 0
M  V30 27138 C 2609.07 0.513836 3.43478 0
M  V30 27139 C 2608.03 1.52573 3.99882 0
M  V30 27140 C 2607.35 0.928307 5.2658 0
M  V30 27141 C 2608.65 2.90803 4.33856 0
M  V30 27142 H 2610.35 1.89074 2.32146 0
M  V30 27143 H 2607.89 0.910488 1.11562 0
M  V30 27144 H 2609.85 0.338847 4.20035 0
M  V30 27145 H 2608.57 -0.444436 3.23562 0
M  V30 27146 H 2607.23 1.68799 3.25426 0
M  V30 27147 H 2606.88 -0.0377405 5.02986 0
M  V30 27148 H 2606.58 1.60407 5.65282 0
M  V30 27149 H 2608.1 0.764274 6.05798 0
M  V30 27150 H 2609.51 2.78118 5.01322 0
M  V30 27151 H 2607.91 3.55239 4.83658 0
M  V30 27152 H 2608.98 3.4291 3.42842 0
M  V30 27153 N 2610.32 -1.21392 1.00507 0
M  V30 27154 C 2611.74 -1.42543 0.717898 0
M  V30 27155 C 2611.94 -1.88693 -0.706903 0
M  V30 27156 O 2611 -2.0485 -1.47624 0
M  V30 27157 C 2612.31 -2.45681 1.73382 0
M  V30 27158 C 2613.86 -2.59464 1.75064 0
M  V30 27159 C 2614.33 -3.65835 2.75551 0
M  V30 27160 N 2615.82 -3.73306 2.7422 0
M  V30 27161 C 2616.56 -4.55239 3.48634 0
M  V30 27162 N 2616.05 -5.41067 4.32687 0
M  V30 27163 N 2617.85 -4.49662 3.37283 0
M  V30 27164 H 2610 -0.89747 1.92508 0
M  V30 27165 H 2612.26 -0.45636 0.830927 0
M  V30 27166 H 2611.97 -2.18743 2.75398 0
M  V30 27167 H 2611.84 -3.44486 1.53653 0
M  V30 27168 H 2614.23 -2.85739 0.737387 0
M  V30 27169 H 2614.31 -1.60894 1.98864 0
M  V30 27170 H 2613.95 -3.40306 3.77034 0
M  V30 27171 H 2613.88 -4.64002 2.49017 0
M  V30 27172 H 2616.37 -3.1199 2.13239 0
M  V30 27173 H 2616.69 -6.00639 4.86264 0
M  V30 27174 H 2615.03 -5.40608 4.3677 0
M  V30 27175 H 2618.22 -3.81641 2.7105 0
M  V30 27176 H 2618.4 -5.13281 3.95533 0
M  V30 27177 N 2611.8 -0.779811 -1.36955 0
M  V30 27178 C 2613.05 -0.348316 -1.99786 0
M  V30 27179 C 2613.38 1.07462 -1.61758 0
M  V30 27180 O 2612.66 1.74074 -0.867669 0
M  V30 27181 C 2612.94 -0.501102 -3.56596 0
M  V30 27182 C 2612.79 -1.96704 -4.04509 0
M  V30 27183 C 2614.11 0.0897324 -4.40009 0
M  V30 27184 H 2611.23 -0.128034 -0.725794 0
M  V30 27185 H 2613.87 -0.98436 -1.62513 0
M  V30 27186 H 2612.02 0.0403664 -3.88479 0
M  V30 27187 H 2613.69 -2.56883 -3.83156 0
M  V30 27188 H 2611.94 -2.47303 -3.56404 0
M  V30 27189 H 2612.61 -2.02495 -5.13517 0
M  V30 27190 H 2615.08 -0.372366 -4.14431 0
M  V30 27191 H 2613.96 -0.047257 -5.4888 0
M  V30 27192 H 2614.22 1.18088 -4.26037 0
M  V30 27193 N 2613.28 1.48384 -0.531019 0
M  V30 27194 C 2614.56 1.95485 0.0671445 0
M  V30 27195 C 2614.94 1.47327 1.51189 0
M  V30 27196 O 2614.29 0.70024 2.17506 0
M  V30 27197 C 2614.5 3.48962 -0.0511819 0
M  V30 27198 C 2615.84 4.24464 0.107557 0
M  V30 27199 O 2616.87 3.56193 0.0225622 0
M  V30 27200 O 2615.73 5.45752 0.285876 0
M  V30 27201 H 2612.82 0.823245 0.078722 0
M  V30 27202 H 2615.37 1.58901 -0.59569 0
M  V30 27203 H 2614.14 3.76738 -1.05754 0
M  V30 27204 H 2613.76 3.92243 0.650456 0
M  V30 27205 N 2614.76 0.2662 1.55336 0
M  V30 27206 C 2616.01 -0.353123 1.99397 0
M  V30 27207 C 2616.33 -1.56527 1.15454 0
M  V30 27208 O 2615.59 -1.9457 0.210008 0
M  V30 27209 C 2615.89 -0.787895 3.48607 0
M  V30 27210 C 2615.55 0.31862 4.49773 0
M  V30 27211 C 2614.22 0.622474 4.77157 0
M  V30 27212 C 2616.57 1.06468 5.1021 0
M  V30 27213 C 2613.9 1.67612 5.62248 0
M  V30 27214 C 2616.25 2.10798 5.96445 0
M  V30 27215 C 2614.91 2.41828 6.22154 0
M  V30 27216 H 2614.18 -0.129217 0.729646 0
M  V30 27217 H 2616.83 0.378053 1.87731 0
M  V30 27218 H 2615.13 -1.5986 3.57704 0
M  V30 27219 H 2616.83 -1.27768 3.801 0
M  V30 27220 H 2613.42 0.0716678 4.2854 0
M  V30 27221 H 2617.6 0.843184 4.89085 0
M  V30 27222 H 2612.86 1.92165 5.80416 0
M  V30 27223 H 2617.03 2.69087 6.42312 0
M  V30 27224 H 2614.66 3.23608 6.87882 0
M  V30 27225 N 2616.24 -1.57599 -0.0066531 0
M  V30 27226 C 2617.15 -2.11426 -1.01667 0
M  V30 27227 C 2618.16 -1.05797 -1.38141 0
M  V30 27228 O 2619.34 -1.37661 -1.47008 0
M  V30 27229 C 2616.4 -2.60143 -2.29187 0
M  V30 27230 C 2615.46 -3.80346 -1.99087 0
M  V30 27231 C 2614.7 -4.26729 -3.20528 0
M  V30 27232 O 2614.92 -3.72487 -4.31984 0
M  V30 27233 O 2613.85 -5.18952 -3.04915 0
M  V30 27234 H 2617.68 -2.97931 -0.589129 0
M  V30 27235 H 2615.27 -1.47695 -0.225065 0
M  V30 27236 H 2617.15 -2.91706 -3.04115 0
M  V30 27237 H 2615.82 -1.76738 -2.71192 0
M  V30 27238 H 2614.73 -3.53766 -1.21657 0
M  V30 27239 H 2616.06 -4.64803 -1.61923 0
M  V30 27240 N 2617.72 0.279305 -1.55105 0
M  V30 27241 C 2618.63 1.36724 -1.9064 0
M  V30 27242 C 2619.64 1.54367 -0.802926 0
M  V30 27243 O 2620.82 1.68615 -1.10141 0
M  V30 27244 C 2617.88 2.70751 -2.16552 0
M  V30 27245 C 2616.94 2.61909 -3.40151 0
M  V30 27246 C 2616.18 3.89544 -3.64817 0
M  V30 27247 O 2616.4 4.8993 -2.92103 0
M  V30 27248 O 2615.33 3.90127 -4.5835 0
M  V30 27249 H 2619.16 1.09586 -2.83239 0
M  V30 27250 H 2616.74 0.477281 -1.41571 0
M  V30 27251 H 2618.63 3.5001 -2.34671 0
M  V30 27252 H 2617.3 2.97688 -1.27136 0
M  V30 27253 H 2616.21 1.81046 -3.27373 0
M  V30 27254 H 2617.54 2.39922 -4.29765 0
M  V30 27255 N 2619.19 1.47931 0.543528 0
M  V30 27256 C 2620.16 1.60978 1.63153 0
M  V30 27257 C 2621.16 0.483926 1.53345 0
M  V30 27258 O 2622.35 0.749366 1.57258 0
M  V30 27259 C 2619.48 1.56721 3.0274 0
M  V30 27260 H 2620.67 2.57978 1.52929 0
M  V30 27261 H 2618.22 1.36325 0.764533 0
M  V30 27262 H 2618.96 0.611474 3.18483 0
M  V30 27263 H 2618.74 2.38443 3.11267 0
M  V30 27264 H 2620.23 1.69017 3.81868 0
M  V30 27265 N 2620.67 -0.791347 1.36292 0
M  V30 27266 C 2621.92 -1.54432 1.29745 0
M  V30 27267 C 2622.23 -1.95221 -0.121695 0
M  V30 27268 O 2623.44 -2.6973 -0.309531 0
M  V30 27269 C 2621.9 -2.78772 2.27628 0
M  V30 27270 C 2621.5 -2.4516 3.74968 0
M  V30 27271 C 2623.25 -3.56757 2.30054 0
M  V30 27272 C 2621.15 -3.65883 4.64633 0
M  V30 27273 H 2620.08 -0.579719 0.482123 0
M  V30 27274 H 2622.74 -0.868537 1.61644 0
M  V30 27275 H 2621.12 -3.48139 1.8872 0
M  V30 27276 H 2622.29 -1.83701 4.226 0
M  V30 27277 H 2620.61 -1.80389 3.75298 0
M  V30 27278 H 2623.2 -4.46451 2.94254 0
M  V30 27279 H 2623.55 -3.952 1.30853 0
M  V30 27280 H 2624.08 -2.94367 2.67568 0
M  V30 27281 H 2620.82 -3.32537 5.64889 0
M  V30 27282 H 2620.34 -4.26514 4.21718 0
M  V30 27283 H 2622.02 -4.32934 4.80809 0
M  V30 27284 N 2622.15 -1.2054 -1.01528 0
M  V30 27285 C 2623.4 -1.01636 -1.75147 0
M  V30 27286 C 2623.72 0.451366 -1.8919 0
M  V30 27287 O 2622.98 1.35134 -1.41553 0
M  V30 27288 C 2623.28 -1.64659 -3.1721 0
M  V30 27289 C 2622.94 -3.1447 -3.2314 0
M  V30 27290 C 2621.61 -3.55352 -3.24466 0
M  V30 27291 C 2623.96 -4.10464 -3.21199 0
M  V30 27292 C 2621.29 -4.90754 -3.21524 0
M  V30 27293 C 2623.64 -5.45813 -3.19798 0
M  V30 27294 C 2622.3 -5.86107 -3.19428 0
M  V30 27295 H 2621.57 -0.371912 -0.640908 0
M  V30 27296 H 2624.22 -1.49983 -1.19068 0
M  V30 27297 H 2622.52 -1.08577 -3.76455 0
M  V30 27298 H 2624.22 -1.47547 -3.72869 0
M  V30 27299 H 2620.81 -2.81903 -3.22845 0
M  V30 27300 H 2625 -3.79912 -3.19344 0
M  V30 27301 H 2620.25 -5.21235 -3.19569 0
M  V30 27302 H 2624.43 -6.1994 -3.17249 0
M  V30 27303 H 2622.05 -6.90997 -3.16903 0
M  V30 27304 N 2623.63 1.20858 -1.01149 0
M  V30 27305 C 2624.85 1.94622 -0.716732 0
M  V30 27306 C 2625.28 1.73965 0.715384 0
M  V30 27307 O 2624.64 1.03065 1.49155 0
M  V30 27308 C 2624.68 3.44933 -1.05136 0
M  V30 27309 O 2623.79 4.12089 -0.160204 0
M  V30 27310 H 2623.13 0.60821 -0.266415 0
M  V30 27311 H 2625.66 1.53433 -1.35349 0
M  V30 27312 H 2625.67 3.95532 -1.00093 0
M  V30 27313 H 2624.34 3.59291 -2.09482 0
M  V30 27314 H 2622.92 3.71938 -0.267722 0
M  V30 27315 N 2625.11 0.787064 1.3654 0
M  V30 27316 C 2626.05 0.181942 2.30082 0
M  V30 27317 C 2627.02 -0.67287 1.51861 0
M  V30 27318 O 2628.21 -0.62204 1.80375 0
M  V30 27319 C 2625.35 -0.679137 3.38351 0
M  V30 27320 C 2624.46 0.193958 4.31564 0
M  V30 27321 C 2623.6 -0.673272 5.26916 0
M  V30 27322 C 2622.63 0.201423 6.11769 0
M  V30 27323 N 2621.77 -0.624654 6.99316 0
M  V30 27324 H 2626.61 0.985114 2.81246 0
M  V30 27325 H 2624.15 0.497367 1.38437 0
M  V30 27326 H 2626.11 -1.19334 3.99769 0
M  V30 27327 H 2624.74 -1.44776 2.88513 0
M  V30 27328 H 2623.79 0.826109 3.71321 0
M  V30 27329 H 2625.1 0.868023 4.91189 0
M  V30 27330 H 2624.25 -1.25337 5.93612 0
M  V30 27331 H 2622.99 -1.38097 4.6774 0
M  V30 27332 H 2622 0.793945 5.44037 0
M  V30 27333 H 2623.22 0.906686 6.7302 0
M  V30 27334 H 2621.17 -1.31669 6.4265 0
M  V30 27335 H 2621.09 -0.00821949 7.56 0
M  V30 27336 H 2622.35 -1.18866 7.70384 0
M  V30 27337 N 2626.58 -1.48101 0.53888 0
M  V30 27338 C 2627.81 -2.06596 0.0123321 0
M  V30 27339 C 2628.22 -1.39459 -1.27859 0
M  V30 27340 O 2627.56 -0.478938 -1.77347 0
M  V30 27341 C 2627.63 -3.58461 -0.273068 0
M  V30 27342 C 2627.29 -4.47527 0.925689 0
M  V30 27343 C 2628.29 -4.86761 1.82646 0
M  V30 27344 C 2625.97 -4.89304 1.1352 0
M  V30 27345 C 2627.97 -5.66552 2.92057 0
M  V30 27346 C 2625.65 -5.68864 2.23243 0
M  V30 27347 C 2626.65 -6.07397 3.12343 0
M  V30 27348 O 2626.34 -6.85357 4.20167 0
M  V30 27349 H 2626.07 -0.675122 0.0344402 0
M  V30 27350 H 2628.63 -1.91353 0.746527 0
M  V30 27351 H 2626.86 -3.7185 -1.06135 0
M  V30 27352 H 2628.54 -3.99046 -0.742772 0
M  V30 27353 H 2629.31 -4.551 1.67657 0
M  V30 27354 H 2625.19 -4.58789 0.450915 0
M  V30 27355 H 2628.73 -5.96548 3.6163 0
M  V30 27356 H 2624.63 -5.99938 2.38211 0
M  V30 27357 H 2625.4 -7.03725 4.17987 0
M  V30 27358 N 2628.06 -0.274434 -1.55192 0
M  V30 27359 C 2629.31 0.343051 -1.99877 0
M  V30 27360 C 2629.64 1.55555 -1.16259 0
M  V30 27361 O 2628.92 1.93105 -0.232496 0
M  V30 27362 C 2629.2 0.725903 -3.52708 0
M  V30 27363 C 2629.05 -0.493896 -4.4708 0
M  V30 27364 C 2630.37 1.5626 -4.11425 0
M  V30 27365 H 2627.49 0.123216 -0.726627 0
M  V30 27366 H 2630.13 -0.381243 -1.86136 0
M  V30 27367 H 2628.28 1.34301 -3.64548 0
M  V30 27368 H 2629.95 -1.13245 -4.47184 0
M  V30 27369 H 2628.2 -1.13208 -4.18768 0
M  V30 27370 H 2628.87 -0.182267 -5.51699 0
M  V30 27371 H 2631.34 1.04144 -4.02856 0
M  V30 27372 H 2630.22 1.7993 -5.18572 0
M  V30 27373 H 2630.48 2.54341 -3.61611 0
M  V30 27374 N 2629.54 1.576 -0.00170483 0
M  V30 27375 C 2630.79 1.90265 0.681438 0
M  V30 27376 C 2631.11 0.875955 1.74218 0
M  V30 27377 O 2630.38 -0.0864068 1.95709 0
M  V30 27378 H 2628.96 0.702243 0.254683 0
M  V30 27379 H 2631.62 1.94852 -0.0430338 0
M  V30 27380 H 2630.72 2.90077 1.15161 0
M  V30 27381 N 2631.02 -0.271076 1.55251 0
M  V30 27382 C 2631.97 -1.35501 1.89056 0
M  V30 27383 C 2632.96 -1.51037 0.76709 0
M  V30 27384 O 2634.17 -1.52798 0.951455 0
M  V30 27385 H 2630.54 -0.453219 0.60008 0
M  V30 27386 H 2632.51 -1.04242 2.796 0
M  V30 27387 C 2631.26 -2.70813 2.18072 0
M  V30 27388 H 2630.58 -2.5965 3.04009 0
M  V30 27389 H 2632.02 -3.45593 2.45646 0
M  V30 27390 C 2630.48 -3.22058 0.988957 0
M  V30 27391 O 2631.01 -4.01072 0.224571 0
M  V30 27392 N 2629.22 -2.79765 0.786135 0
M  V30 27393 H 2628.77 -2.15623 1.40941 0
M  V30 27394 H 2628.72 -3.14399 -0.00963823 0
M  V30 27395 N 2632.5 -1.48217 -0.535675 0
M  V30 27396 C 2633.74 -1.56175 -1.29372 0
M  V30 27397 C 2634.08 -0.232463 -1.92804 0
M  V30 27398 O 2633.35 0.761017 -1.78994 0
M  V30 27399 C 2633.63 -2.69581 -2.38743 0
M  V30 27400 C 2633.49 -4.12197 -1.80039 0
M  V30 27401 C 2634.81 -2.78777 -3.40546 0
M  V30 27402 H 2631.92 -0.5685 -0.469017 0
M  V30 27403 H 2634.57 -1.80366 -0.597326 0
M  V30 27404 H 2632.72 -2.49085 -2.98142 0
M  V30 27405 H 2634.39 -4.44116 -1.24734 0
M  V30 27406 H 2632.63 -4.19464 -1.10601 0
M  V30 27407 H 2633.3 -4.87358 -2.59204 0
M  V30 27408 H 2635.78 -2.97327 -2.91094 0
M  V30 27409 H 2634.65 -3.59865 -4.14474 0
M  V30 27410 H 2634.92 -1.86703 -4.00742 0
M  V30 27411 N 2633.97 0.784108 -1.3671 0
M  V30 27412 C 2634.92 1.91835 -1.31537 0
M  V30 27413 C 2635.92 1.6814 -0.206235 0
M  V30 27414 O 2637.12 1.76081 -0.37355 0
M  V30 27415 H 2633.5 0.630644 -0.409624 0
M  V30 27416 H 2635.47 1.93316 -2.27313 0
M  V30 27417 C 2634.22 3.28934 -1.12685 0
M  V30 27418 H 2633.54 3.47737 -1.9728 0
M  V30 27419 H 2634.98 4.08634 -1.13113 0
M  V30 27420 C 2633.44 3.3648 0.168221 0
M  V30 27421 O 2633.97 3.84702 1.15619 0
M  V30 27422 N 2632.18 2.89806 0.214711 0
M  V30 27423 H 2631.72 2.50755 -0.589896 0
M  V30 27424 H 2631.68 2.95236 1.08088 0
M  V30 27425 N 2635.45 1.21076 1.00888 0
M  V30 27426 C 2636.68 1.05148 1.78189 0
M  V30 27427 C 2637.1 -0.398919 1.84537 0
M  V30 27428 O 2636.45 -1.27685 1.30395 0
M  V30 27429 C 2636.5 1.63752 3.22285 0
M  V30 27430 O 2636.22 3.03117 3.1631 0
M  V30 27431 C 2637.73 1.52882 4.16103 0
M  V30 27432 H 2634.95 0.369464 0.560123 0
M  V30 27433 H 2637.49 1.60331 1.26942 0
M  V30 27434 H 2635.64 1.12671 3.70654 0
M  V30 27435 H 2636.06 3.31066 4.06811 0
M  V30 27436 H 2637.53 1.98635 5.15022 0
M  V30 27437 H 2638.01 0.482598 4.36541 0
M  V30 27438 H 2638.62 2.03191 3.73622 0
M  V30 27439 N 2636.93 -1.2032 1.01789 0
M  V30 27440 C 2637.88 -2.21015 0.560015 0
M  V30 27441 C 2638.86 -1.56218 -0.385339 0
M  V30 27442 O 2640.06 -1.75772 -0.208095 0
M  V30 27443 C 2637.19 -3.43157 -0.098995 0
M  V30 27444 C 2636.27 -4.15119 0.868143 0
M  V30 27445 N 2636.66 -4.63443 2.02618 0
M  V30 27446 C 2634.96 -4.40642 0.689239 0
M  V30 27447 C 2635.66 -5.18583 2.63527 0
M  V30 27448 N 2634.64 -5.08723 1.91578 0
M  V30 27449 H 2638.44 -2.56045 1.44285 0
M  V30 27450 H 2635.95 -1.36271 0.883405 0
M  V30 27451 H 2637.95 -4.14523 -0.44457 0
M  V30 27452 H 2636.61 -3.09632 -0.977654 0
M  V30 27453 H 2637.62 -4.58617 2.40606 0
M  V30 27454 H 2634.3 -4.17261 -0.141256 0
M  V30 27455 H 2635.69 -5.6634 3.61537 0
M  V30 27456 N 2638.41 -0.794293 -1.3612 0
M  V30 27457 C 2639.65 -0.369487 -1.99406 0
M  V30 27458 C 2639.99 1.0574 -1.62888 0
M  V30 27459 O 2639.26 1.73144 -0.886084 0
M  V30 27460 C 2639.55 -0.538896 -3.56045 0
M  V30 27461 C 2639.4 -2.00983 -4.024 0
M  V30 27462 C 2640.72 0.0430585 -4.40079 0
M  V30 27463 H 2637.84 -0.135725 -0.724395 0
M  V30 27464 H 2640.48 -1.00154 -1.61459 0
M  V30 27465 H 2638.63 -0.000839293 -3.885 0
M  V30 27466 H 2640.3 -2.60932 -3.8041 0
M  V30 27467 H 2638.54 -2.51069 -3.53761 0
M  V30 27468 H 2639.21 -2.07931 -5.1134 0
M  V30 27469 H 2641.69 -0.416301 -4.14012 0
M  V30 27470 H 2640.57 -0.10547 -5.48799 0
M  V30 27471 H 2640.83 1.13563 -4.27266 0
M  V30 27472 N 2639.89 1.47813 -0.546727 0
M  V30 27473 C 2641.16 1.95545 0.0464069 0
M  V30 27474 C 2641.54 1.48922 1.49618 0
M  V30 27475 O 2640.89 0.72327 2.16751 0
M  V30 27476 C 2641.1 3.48889 -0.0881912 0
M  V30 27477 C 2642.45 4.24554 0.0625313 0
M  V30 27478 O 2643.47 3.56197 -0.0152181 0
M  V30 27479 O 2642.33 5.46024 0.227975 0
M  V30 27480 H 2639.43 0.824033 0.069986 0
M  V30 27481 H 2641.97 1.58261 -0.61251 0
M  V30 27482 H 2640.74 3.75596 -1.09744 0
M  V30 27483 H 2640.37 3.92911 0.608817 0
M  V30 27484 N 2641.36 0.28266 1.55044 0
M  V30 27485 C 2642.27 -0.61143 2.26492 0
M  V30 27486 C 2643.29 -1.16381 1.2935 0
M  V30 27487 O 2644.47 -1.1925 1.623 0
M  V30 27488 C 2641.53 -1.77558 2.97782 0
M  V30 27489 C 2640.59 -1.25911 4.1042 0
M  V30 27490 C 2639.83 -2.36778 4.78301 0
M  V30 27491 O 2640.05 -3.56295 4.45432 0
M  V30 27492 O 2638.98 -2.04507 5.66092 0
M  V30 27493 H 2642.81 -0.0324082 3.03683 0
M  V30 27494 H 2640.39 0.0497838 1.49317 0
M  V30 27495 H 2642.28 -2.45421 3.42559 0
M  V30 27496 H 2640.95 -2.34155 2.23502 0
M  V30 27497 H 2639.86 -0.546732 3.70083 0
M  V30 27498 H 2641.19 -0.738801 4.86624 0
M  V30 27499 N 2642.84 -1.57597 0.0100627 0
M  V30 27500 C 2644.07 -1.95005 -0.682387 0
M  V30 27501 C 2644.48 -0.884043 -1.67276 0
M  V30 27502 O 2643.82 0.14464 -1.8313 0
M  V30 27503 C 2643.89 -3.28458 -1.46135 0
M  V30 27504 C 2643.55 -4.52617 -0.631444 0
M  V30 27505 C 2644.55 -5.1983 0.0851819 0
M  V30 27506 C 2642.23 -4.99004 -0.574451 0
M  V30 27507 C 2644.23 -6.31738 0.847677 0
M  V30 27508 C 2641.91 -6.10799 0.191762 0
M  V30 27509 C 2642.91 -6.77024 0.901551 0
M  V30 27510 O 2642.6 -7.86675 1.65524 0
M  V30 27511 H 2642.33 -0.64746 -0.19435 0
M  V30 27512 H 2644.88 -2.05311 0.0603481 0
M  V30 27513 H 2643.11 -3.14589 -2.2488 0
M  V30 27514 H 2644.8 -3.50906 -2.04009 0
M  V30 27515 H 2645.57 -4.84974 0.0503664 0
M  V30 27516 H 2641.45 -4.47276 -1.11646 0
M  V30 27517 H 2644.99 -6.83362 1.40222 0
M  V30 27518 H 2640.89 -6.45096 0.228363 0
M  V30 27519 H 2641.66 -8.03243 1.57301 0
M  V30 27520 N 2644.32 0.262839 -1.55393 0
M  V30 27521 C 2645.25 1.35098 -1.83912 0
M  V30 27522 C 2646.23 1.47096 -0.692927 0
M  V30 27523 O 2647.42 1.63562 -0.937008 0
M  V30 27524 C 2644.54 2.7263 -2.00974 0
M  V30 27525 C 2643.59 2.77864 -3.23564 0
M  V30 27526 S 2644.42 2.36082 -4.80651 0
M  V30 27527 C 2645.58 3.75569 -5.00698 0
M  V30 27528 H 2645.81 1.10705 -2.7592 0
M  V30 27529 H 2643.34 0.463003 -1.47294 0
M  V30 27530 H 2645.3 3.51828 -2.11488 0
M  V30 27531 H 2643.96 2.9427 -1.09837 0
M  V30 27532 H 2643.16 3.78831 -3.3242 0
M  V30 27533 H 2642.76 2.06697 -3.11693 0
M  V30 27534 H 2645.05 4.7093 -4.87064 0
M  V30 27535 H 2645.99 3.71658 -6.02724 0
M  V30 27536 H 2646.4 3.67343 -4.28625 0
M  V30 27537 N 2645.8 1.48499 0.527807 0
M  V30 27538 C 2646.75 1.59583 1.62841 0
M  V30 27539 C 2647.73 0.452836 1.54396 0
M  V30 27540 O 2648.92 0.704392 1.6238 0
M  V30 27541 C 2646.05 1.64073 3.01554 0
M  V30 27542 C 2645.14 2.83859 3.15095 0
M  V30 27543 N 2645.53 4.08252 2.98603 0
M  V30 27544 C 2643.83 2.81237 3.46153 0
M  V30 27545 C 2644.53 4.88631 3.15617 0
M  V30 27546 N 2643.51 4.21489 3.4329 0
M  V30 27547 H 2647.31 2.53504 1.48704 0
M  V30 27548 H 2644.82 1.44901 0.733318 0
M  V30 27549 H 2646.82 1.70107 3.80617 0
M  V30 27550 H 2645.48 0.712691 3.16782 0
M  V30 27551 H 2646.49 4.38655 2.75322 0
M  V30 27552 H 2643.17 1.97699 3.67725 0
M  V30 27553 H 2644.56 5.97361 3.07586 0
M  V30 27554 N 2647.28 -0.776847 1.37123 0
M  V30 27555 C 2648.19 -1.92108 1.34654 0
M  V30 27556 C 2649.2 -1.7224 0.246854 0
M  V30 27557 O 2650.38 -1.95563 0.481374 0
M  V30 27558 C 2647.44 -3.27158 1.14754 0
M  V30 27559 C 2646.51 -3.59716 2.34314 0
M  V30 27560 C 2645.74 -4.88322 2.15354 0
M  V30 27561 O 2645.96 -5.5899 1.13517 0
M  V30 27562 O 2644.9 -5.19825 3.03423 0
M  V30 27563 H 2648.72 -1.97142 2.31017 0
M  V30 27564 H 2646.31 -0.918881 1.178 0
M  V30 27565 H 2648.19 -4.07948 1.05623 0
M  V30 27566 H 2646.86 -3.22988 0.214618 0
M  V30 27567 H 2645.77 -2.79181 2.49016 0
M  V30 27568 H 2647.1 -3.68623 3.26156 0
M  V30 27569 N 2648.76 -1.2161 -1.00244 0
M  V30 27570 C 2649.72 -0.979169 -2.07232 0
M  V30 27571 C 2650.72 0.0507937 -1.6072 0
M  V30 27572 O 2651.91 -0.186743 -1.73196 0
M  V30 27573 C 2649.04 -0.477075 -3.37545 0
M  V30 27574 H 2650.23 -1.92835 -2.29684 0
M  V30 27575 H 2647.79 -1.03344 -1.17259 0
M  V30 27576 H 2648.52 0.476909 -3.20774 0
M  V30 27577 H 2648.31 -1.22003 -3.72636 0
M  V30 27578 H 2649.8 -0.331254 -4.16284 0
M  V30 27579 N 2650.23 1.19778 -1.02425 0
M  V30 27580 C 2651.48 1.88666 -0.713298 0
M  V30 27581 C 2651.8 1.80195 0.760868 0
M  V30 27582 O 2653 2.4429 1.18469 0
M  V30 27583 C 2651.46 3.38392 -1.22551 0
M  V30 27584 C 2651.07 3.55432 -2.72713 0
M  V30 27585 C 2652.81 4.12787 -0.99033 0
M  V30 27586 C 2650.72 4.99026 -3.17375 0
M  V30 27587 H 2649.65 0.706601 -0.263117 0
M  V30 27588 H 2652.3 1.35452 -1.23795 0
M  V30 27589 H 2650.68 3.90976 -0.628801 0
M  V30 27590 H 2651.85 3.13199 -3.37999 0
M  V30 27591 H 2650.17 2.9442 -2.94458 0
M  V30 27592 H 2652.77 5.18672 -1.29935 0
M  V30 27593 H 2653.11 4.16236 0.0730029 0
M  V30 27594 H 2653.64 3.66326 -1.5508 0
M  V30 27595 H 2650.38 5.00736 -4.23018 0
M  V30 27596 H 2649.9 5.42039 -2.56814 0
M  V30 27597 H 2651.58 5.67652 -3.10451 0
M  V30 27598 N 2651.71 0.801501 1.35697 0
M  V30 27599 C 2652.99 0.302971 1.93239 0
M  V30 27600 C 2653.37 -1.20669 1.73211 0
M  V30 27601 O 2652.72 -2.00383 1.09812 0
M  V30 27602 C 2652.93 0.708807 3.41726 0
M  V30 27603 C 2654.27 0.695402 4.18867 0
M  V30 27604 O 2655.3 0.650033 3.50219 0
M  V30 27605 O 2654.16 0.749176 5.41341 0
M  V30 27606 H 2651.25 0.0780511 0.823309 0
M  V30 27607 H 2653.8 0.884857 1.44805 0
M  V30 27608 H 2652.57 1.7495 3.50012 0
M  V30 27609 H 2652.19 0.101454 3.97471 0
M  V30 27610 N 2653.19 -1.47521 0.554558 0
M  V30 27611 C 2654.14 -2.26984 -0.214968 0
M  V30 27612 C 2655.12 -1.34195 -0.887716 0
M  V30 27613 O 2656.32 -1.58568 -0.786461 0
M  V30 27614 C 2653.44 -3.19891 -1.24598 0
M  V30 27615 C 2652.53 -4.2016 -0.576783 0
M  V30 27616 N 2652.92 -5.04576 0.35163 0
M  V30 27617 C 2651.22 -4.38189 -0.831027 0
M  V30 27618 C 2651.92 -5.76973 0.740096 0
M  V30 27619 N 2650.9 -5.43516 0.0955362 0
M  V30 27620 H 2654.7 -2.89635 0.498894 0
M  V30 27621 H 2652.21 -1.58028 0.374307 0
M  V30 27622 H 2654.21 -3.75501 -1.81121 0
M  V30 27623 H 2652.87 -2.58798 -1.96097 0
M  V30 27624 H 2653.88 -5.12791 0.725646 0
M  V30 27625 H 2650.56 -3.88269 -1.53472 0
M  V30 27626 H 2651.95 -6.54878 1.50282 0
M  V30 27627 N 2654.67 -0.290879 -1.54892 0
M  V30 27628 C 2655.9 0.323782 -2.04047 0
M  V30 27629 C 2656.31 1.48835 -1.16811 0
M  V30 27630 O 2655.65 1.82774 -0.184177 0
M  V30 27631 C 2655.71 0.852334 -3.4925 0
M  V30 27632 C 2655.37 -0.185637 -4.56623 0
M  V30 27633 C 2656.37 -1.01062 -5.09983 0
M  V30 27634 C 2654.06 -0.32442 -5.01251 0
M  V30 27635 C 2656.05 -1.96041 -6.06504 0
M  V30 27636 C 2653.74 -1.27768 -5.97594 0
M  V30 27637 C 2654.74 -2.09416 -6.50103 0
M  V30 27638 O 2654.42 -3.03127 -7.4456 0
M  V30 27639 H 2654.16 0.075801 -0.671737 0
M  V30 27640 H 2656.71 -0.425428 -2.00946 0
M  V30 27641 H 2654.94 1.65189 -3.49642 0
M  V30 27642 H 2656.63 1.38178 -3.81656 0
M  V30 27643 H 2657.39 -0.914213 -4.76306 0
M  V30 27644 H 2653.27 0.301132 -4.60015 0
M  V30 27645 H 2656.82 -2.59811 -6.47413 0
M  V30 27646 H 2652.71 -1.37484 -6.30689 0
M  V30 27647 H 2653.48 -2.9799 -7.62328 0
M  V30 27648 N 2656.15 1.57589 -0.0184203 0
M  V30 27649 C 2657.11 2.08496 0.951949 0
M  V30 27650 C 2658.11 0.997896 1.2609 0
M  V30 27651 O 2659.3 1.25989 1.20302 0
M  V30 27652 C 2656.43 2.54186 2.27161 0
M  V30 27653 H 2657.62 2.9551 0.511255 0
M  V30 27654 H 2655.18 1.54607 0.229416 0
M  V30 27655 H 2655.91 1.7047 2.75881 0
M  V30 27656 H 2655.7 3.33594 2.06052 0
M  V30 27657 H 2657.19 2.93833 2.96735 0
M  V30 27658 N 2657.62 -0.254594 1.5553 0
M  V30 27659 C 2658.87 -0.981762 1.76652 0
M  V30 27660 C 2659.19 -1.86144 0.580996 0
M  V30 27661 O 2658.46 -1.91699 -0.403503 0
M  V30 27662 H 2657.04 -0.365487 0.651482 0
M  V30 27663 H 2659.7 -0.274392 1.92959 0
M  V30 27664 H 2658.8 -1.60798 2.67489 0
M  V30 27665 N 2659.1 -1.48777 -0.519925 0
M  V30 27666 C 2660.03 -1.60145 -1.6397 0
M  V30 27667 C 2661.05 -0.485145 -1.55403 0
M  V30 27668 O 2662.24 -0.756419 -1.6168 0
M  V30 27669 C 2659.34 -1.52454 -3.02673 0
M  V30 27670 C 2658.51 -2.79297 -3.36619 0
M  V30 27671 C 2657.57 -2.6492 -4.54647 0
M  V30 27672 O 2656.59 -3.38826 -4.57368 0
M  V30 27673 N 2657.8 -1.75204 -5.53429 0
M  V30 27674 H 2660.56 -2.56716 -1.54651 0
M  V30 27675 H 2658.12 -1.45627 -0.707413 0
M  V30 27676 H 2660.11 -1.40517 -3.79522 0
M  V30 27677 H 2658.68 -0.638179 -3.06016 0
M  V30 27678 H 2657.9 -3.05725 -2.4885 0
M  V30 27679 H 2659.19 -3.63427 -3.56088 0
M  V30 27680 H 2658.59 -1.14381 -5.54016 0
M  V30 27681 H 2657.15 -1.69201 -6.29456 0
M  V30 27682 N 2660.58 0.769564 -1.37534 0
M  V30 27683 C 2661.51 1.8968 -1.36176 0
M  V30 27684 C 2662.49 1.68537 -0.23004 0
M  V30 27685 O 2663.68 1.89363 -0.430723 0
M  V30 27686 C 2660.81 3.26993 -1.17016 0
M  V30 27687 C 2659.76 3.62704 -2.27222 0
M  V30 27688 C 2659.09 4.98582 -1.93183 0
M  V30 27689 C 2660.39 3.69228 -3.69416 0
M  V30 27690 H 2662.08 1.91074 -2.30502 0
M  V30 27691 H 2659.63 0.917882 -1.10955 0
M  V30 27692 H 2661.58 4.05491 -1.14695 0
M  V30 27693 H 2660.3 3.26038 -0.191453 0
M  V30 27694 H 2658.96 2.86515 -2.28702 0
M  V30 27695 H 2658.61 4.9417 -0.938368 0
M  V30 27696 H 2658.31 5.23445 -2.66982 0
M  V30 27697 H 2659.83 5.79477 -1.92453 0
M  V30 27698 H 2661.25 4.37873 -3.70055 0
M  V30 27699 H 2659.64 4.05589 -4.42287 0
M  V30 27700 H 2660.71 2.69837 -4.02885 0
M  V30 27701 N 2662.06 1.22139 0.995977 0
M  V30 27702 C 2662.99 0.931988 2.08301 0
M  V30 27703 C 2663.97 -0.123927 1.62127 0
M  V30 27704 O 2665.15 0.00699318 1.88499 0
M  V30 27705 C 2662.28 0.401127 3.36316 0
M  V30 27706 C 2661.33 1.44124 4.01411 0
M  V30 27707 S 2662.16 3.01353 4.42659 0
M  V30 27708 C 2663.32 2.49897 5.73849 0
M  V30 27709 H 2663.55 1.8525 2.32529 0
M  V30 27710 H 2661.08 1.05212 1.13003 0
M  V30 27711 H 2663.04 0.101424 4.10375 0
M  V30 27712 H 2661.7 -0.498217 3.10124 0
M  V30 27713 H 2660.89 1.01961 4.93579 0
M  V30 27714 H 2660.5 1.68949 3.33665 0
M  V30 27715 H 2662.79 1.90946 6.50035 0
M  V30 27716 H 2663.73 3.40543 6.20835 0
M  V30 27717 H 2664.14 1.91289 5.31101 0
M  V30 27718 N 2663.54 -1.19233 1.03059 0
M  V30 27719 C 2664.76 -1.92916 0.747731 0
M  V30 27720 C 2665.18 -1.75594 -0.693689 0
M  V30 27721 O 2664.54 -1.07896 -1.47189 0
M  V30 27722 C 2664.59 -3.44623 1.09165 0
M  V30 27723 O 2664.31 -3.6139 2.47647 0
M  V30 27724 C 2665.81 -4.35425 0.83184 0
M  V30 27725 H 2663.03 -0.612747 0.273464 0
M  V30 27726 H 2665.57 -1.51324 1.37554 0
M  V30 27727 H 2663.73 -3.84042 0.508987 0
M  V30 27728 H 2664.14 -4.55232 2.60507 0
M  V30 27729 H 2665.62 -5.40468 1.12243 0
M  V30 27730 H 2666.09 -4.38578 -0.233692 0
M  V30 27731 H 2666.7 -4.0169 1.39732 0
M  V30 27732 N 2665.01 -0.808686 -1.3527 0
M  V30 27733 C 2665.94 -0.235022 -2.32314 0
M  V30 27734 C 2666.93 0.640682 -1.57573 0
M  V30 27735 O 2668.11 0.570518 -1.85631 0
M  V30 27736 C 2665.24 0.615541 -3.41802 0
M  V30 27737 C 2664.19 -0.161842 -4.27694 0
M  V30 27738 C 2663.52 0.810556 -5.28521 0
M  V30 27739 C 2664.82 -1.36202 -5.04229 0
M  V30 27740 H 2666.51 -1.0458 -2.80541 0
M  V30 27741 H 2664.06 -0.504339 -1.34879 0
M  V30 27742 H 2666.01 1.02695 -4.08695 0
M  V30 27743 H 2664.74 1.45923 -2.92189 0
M  V30 27744 H 2663.4 -0.554446 -3.62383 0
M  V30 27745 H 2663.04 1.6498 -4.75174 0
M  V30 27746 H 2662.74 0.294719 -5.8686 0
M  V30 27747 H 2664.27 1.22012 -5.98285 0
M  V30 27748 H 2665.68 -1.02538 -5.64056 0
M  V30 27749 H 2664.08 -1.81249 -5.72074 0
M  V30 27750 H 2665.15 -2.14759 -4.34749 0
M  V30 27751 N 2666.49 1.47225 -0.562374 0
M  V30 27752 C 2667.77 1.95583 0.0256641 0
M  V30 27753 C 2668.15 1.50501 1.4803 0
M  V30 27754 O 2667.5 0.746219 2.15972 0
M  V30 27755 C 2667.71 3.48775 -0.12519 0
M  V30 27756 C 2669.06 4.24596 0.0174982 0
M  V30 27757 O 2670.08 3.56161 -0.0529967 0
M  V30 27758 O 2668.94 5.46235 0.170049 0
M  V30 27759 H 2666.03 0.824729 0.061242 0
M  V30 27760 H 2668.58 1.57602 -0.629261 0
M  V30 27761 H 2667.35 3.7441 -1.13721 0
M  V30 27762 H 2666.97 3.93535 0.567109 0
M  V30 27763 N 2667.97 0.299089 1.54736 0
M  V30 27764 C 2669.22 -0.311514 1.9928 0
M  V30 27765 C 2669.53 -1.55152 1.1911 0
M  V30 27766 O 2670.74 -2.23659 1.53912 0
M  V30 27767 C 2669.19 -0.60557 3.54769 0
M  V30 27768 C 2668.8 0.615992 4.43745 0
M  V30 27769 C 2670.55 -1.17747 4.07843 0
M  V30 27770 C 2668.45 0.295194 5.90663 0
M  V30 27771 H 2667.38 -0.120174 0.744362 0
M  V30 27772 H 2670.03 0.407495 1.78918 0
M  V30 27773 H 2668.42 -1.38412 3.71023 0
M  V30 27774 H 2669.59 1.39225 4.39264 0
M  V30 27775 H 2667.91 1.1064 4.01432 0
M  V30 27776 H 2670.5 -1.4317 5.15176 0
M  V30 27777 H 2670.85 -2.11912 3.58328 0
M  V30 27778 H 2671.38 -0.46067 3.95124 0
M  V30 27779 H 2668.12 1.20535 6.44323 0
M  V30 27780 H 2667.64 -0.443834 5.98156 0
M  V30 27781 H 2669.32 -0.103935 6.46917 0
M  V30 27782 N 2669.45 -1.57577 0.0267774 0
M  V30 27783 C 2670.67 -1.96409 -0.666193 0
M  V30 27784 C 2671.1 -0.9031 -1.65002 0
M  V30 27785 O 2670.46 0.136231 -1.80787 0
M  V30 27786 C 2670.5 -3.34338 -1.35095 0
M  V30 27787 O 2669.61 -3.30536 -2.46617 0
M  V30 27788 H 2668.95 -0.640471 -0.175194 0
M  V30 27789 H 2671.48 -2.04411 0.0879336 0
M  V30 27790 H 2671.49 -3.70516 -1.70828 0
M  V30 27791 H 2670.16 -4.11104 -0.629771 0
M  V30 27792 H 2668.74 -3.06072 -2.13013 0
M  V30 27793 N 2670.93 0.246342 -1.55663 0
M  V30 27794 C 2672.15 0.991845 -1.81577 0
M  V30 27795 C 2672.57 1.78926 -0.602576 0
M  V30 27796 O 2671.93 1.77392 0.428764 0
M  V30 27797 C 2671.98 1.92927 -3.05715 0
M  V30 27798 O 2671.7 1.16413 -4.2235 0
M  V30 27799 C 2673.2 2.79072 -3.44432 0
M  V30 27800 H 2670.42 0.291833 -0.604214 0
M  V30 27801 H 2672.96 0.26906 -2.02722 0
M  V30 27802 H 2671.12 2.60633 -2.86617 0
M  V30 27803 H 2671.53 1.79826 -4.9271 0
M  V30 27804 H 2673.01 3.40596 -4.34394 0
M  V30 27805 H 2673.48 3.50212 -2.65043 0
M  V30 27806 H 2674.09 2.16818 -3.65883 0
M  V30 27807 N 2672.4 1.4905 0.512027 0
M  V30 27808 C 2673.31 1.6762 1.64136 0
M  V30 27809 C 2674.33 0.55873 1.64785 0
M  V30 27810 O 2675.51 0.832066 1.83408 0
M  V30 27811 C 2672.57 1.7284 3.00545 0
M  V30 27812 C 2671.63 2.96345 3.10609 0
M  V30 27813 C 2670.87 3.01306 4.40512 0
M  V30 27814 O 2671.09 2.14166 5.28667 0
M  V30 27815 O 2670.02 3.93661 4.55318 0
M  V30 27816 H 2673.85 2.6327 1.51402 0
M  V30 27817 H 2671.43 1.32662 0.687108 0
M  V30 27818 H 2673.32 1.7869 3.81638 0
M  V30 27819 H 2671.99 0.803671 3.13565 0
M  V30 27820 H 2670.9 2.96018 2.28745 0
M  V30 27821 H 2672.23 3.88261 3.02513 0
M  V30 27822 N 2673.88 -0.762259 1.3794 0
M  V30 27823 C 2675.29 -1.33909 1.30097 0
M  V30 27824 C 2675.64 -1.96143 -0.0471681 0
M  V30 27825 O 2674.77 -1.94475 -0.949136 0
M  V30 27826 C 2675.36 -2.43474 2.35597 0
M  V30 27827 C 2673.92 -2.96901 2.31359 0
M  V30 27828 C 2673.07 -1.70201 2.18922 0
M  V30 27829 H 2676.02 -0.56179 1.48424 0
M  V30 27830 H 2676.04 -3.23195 2.00811 0
M  V30 27831 H 2675.55 -1.9815 3.33704 0
M  V30 27832 H 2673.66 -3.46576 1.36805 0
M  V30 27833 H 2673.77 -3.5187 3.25153 0
M  V30 27834 H 2672.13 -1.93494 1.65627 0
M  V30 27835 H 2672.92 -1.26967 3.18958 0
M  V30 27836 N 2675.36 -1.22666 -0.989486 0
M  V30 27837 C 2676.29 -1.02407 -2.09845 0
M  V30 27838 C 2677.27 0.0561004 -1.70007 0
M  V30 27839 O 2678.46 -0.106782 -1.93906 0
M  V30 27840 C 2675.59 -0.604723 -3.41995 0
M  V30 27841 C 2674.54 -1.63122 -3.95696 0
M  V30 27842 C 2673.87 -1.06759 -5.23934 0
M  V30 27843 C 2675.17 -3.02204 -4.25993 0
M  V30 27844 H 2676.86 -1.95162 -2.27051 0
M  V30 27845 H 2674.41 -0.939747 -1.09109 0
M  V30 27846 H 2676.36 -0.450093 -4.18989 0
M  V30 27847 H 2675.08 0.358493 -3.24627 0
M  V30 27848 H 2673.74 -1.77368 -3.20837 0
M  V30 27849 H 2673.39 -0.0956306 -5.02909 0
M  V30 27850 H 2673.09 -1.75338 -5.6083 0
M  V30 27851 H 2674.61 -0.924622 -6.03559 0
M  V30 27852 H 2676.03 -2.91311 -4.93772 0
M  V30 27853 H 2674.43 -3.67938 -4.74069 0
M  V30 27854 H 2675.5 -3.51879 -3.3363 0
M  V30 27855 N 2676.84 1.18685 -1.0369 0
M  V30 27856 C 2678.08 1.90265 -0.746891 0
M  V30 27857 C 2678.44 1.78309 0.712043 0
M  V30 27858 O 2679.64 2.44561 1.11549 0
M  V30 27859 C 2677.92 3.36813 -1.19549 0
M  V30 27860 S 2679.47 4.26527 -1.03054 0
M  V30 27861 H 2676.29 0.65705 -0.271674 0
M  V30 27862 H 2678.89 1.43435 -1.32841 0
M  V30 27863 H 2677.6 3.43044 -2.25276 0
M  V30 27864 H 2677.13 3.8868 -0.607601 0
M  V30 27865 H 2679.14 4.9617 0.054236 0
M  V30 27866 N 2678.32 0.815849 1.34839 0
M  V30 27867 C 2679.25 0.247339 2.32186 0
M  V30 27868 C 2680.23 -0.632316 1.57911 0
M  V30 27869 O 2681.41 -0.560665 1.85931 0
M  V30 27870 C 2678.54 -0.597406 3.42123 0
M  V30 27871 C 2677.5 0.184521 4.27602 0
M  V30 27872 C 2676.82 -0.782516 5.28943 0
M  V30 27873 C 2678.12 1.38874 5.03499 0
M  V30 27874 H 2679.82 1.06066 2.79983 0
M  V30 27875 H 2677.36 0.511485 1.3461 0
M  V30 27876 H 2679.32 -1.00526 4.09234 0
M  V30 27877 H 2678.04 -1.44371 2.92958 0
M  V30 27878 H 2676.7 0.573656 3.62084 0
M  V30 27879 H 2676.35 -1.62458 4.76043 0
M  V30 27880 H 2676.05 -0.263592 5.87008 0
M  V30 27881 H 2677.57 -1.18837 5.98924 0
M  V30 27882 H 2678.99 1.05527 5.63504 0
M  V30 27883 H 2677.38 1.8428 5.71105 0
M  V30 27884 H 2678.45 2.17061 4.33604 0
M  V30 27885 N 2679.8 -1.46924 0.570174 0
M  V30 27886 C 2680.71 -2.33961 -0.173019 0
M  V30 27887 C 2681.72 -1.48989 -0.898798 0
M  V30 27888 O 2682.9 -1.81888 -0.864793 0
M  V30 27889 C 2679.96 -3.25939 -1.18172 0
M  V30 27890 C 2679.02 -4.26807 -0.461966 0
M  V30 27891 C 2678.26 -5.1439 -1.42261 0
M  V30 27892 O 2678.48 -5.04667 -2.65833 0
M  V30 27893 O 2677.41 -5.94514 -0.940023 0
M  V30 27894 H 2681.24 -2.98838 0.541269 0
M  V30 27895 H 2678.82 -1.45695 0.330673 0
M  V30 27896 H 2680.71 -3.82718 -1.76365 0
M  V30 27897 H 2679.38 -2.63675 -1.8777 0
M  V30 27898 H 2678.29 -3.73751 0.161494 0
M  V30 27899 H 2679.62 -4.91822 0.192805 0
M  V30 27900 N 2681.27 -0.307291 -1.54575 0
M  V30 27901 C 2682.55 0.353571 -1.92378 0
M  V30 27902 C 2682.93 1.7119 -1.2352 0
M  V30 27903 O 2682.28 2.25433 -0.373141 0
M  V30 27904 C 2682.49 0.461978 -3.45929 0
M  V30 27905 C 2683.84 0.729902 -4.18279 0
M  V30 27906 O 2684.86 0.545543 -3.51998 0
M  V30 27907 O 2683.72 1.08445 -5.35632 0
M  V30 27908 H 2680.81 0.198798 -0.802751 0
M  V30 27909 H 2683.36 -0.355812 -1.65928 0
M  V30 27910 H 2682.13 -0.49266 -3.88186 0
M  V30 27911 H 2681.75 1.21958 -3.78434 0
M  V30 27912 N 2682.75 1.57561 -0.0351337 0
M  V30 27913 C 2683.71 2.09494 0.929782 0
M  V30 27914 C 2684.71 1.01121 1.25024 0
M  V30 27915 O 2685.9 1.27258 1.18959 0
M  V30 27916 C 2683.04 2.56581 2.24452 0
M  V30 27917 H 2684.23 2.96036 0.479883 0
M  V30 27918 H 2681.78 1.54842 0.213005 0
M  V30 27919 H 2682.52 1.73386 2.74058 0
M  V30 27920 H 2682.3 3.35761 2.02502 0
M  V30 27921 H 2683.79 2.96964 2.93602 0
M  V30 27922 N 2684.23 -0.238084 1.55791 0
M  V30 27923 C 2685.48 -0.966305 1.78299 0
M  V30 27924 C 2685.81 -1.84636 0.601936 0
M  V30 27925 O 2685.08 -1.90354 -0.399465 0
M  V30 27926 C 2685.37 -1.81933 3.10761 0
M  V30 27927 C 2685.22 -0.966881 4.39285 0
M  V30 27928 C 2686.54 -2.80021 3.39524 0
M  V30 27929 H 2683.66 -0.349871 0.64866 0
M  V30 27930 H 2686.3 -0.23622 1.88526 0
M  V30 27931 H 2684.45 -2.4418 3.02173 0
M  V30 27932 H 2686.12 -0.362433 4.59874 0
M  V30 27933 H 2684.36 -0.271593 4.32949 0
M  V30 27934 H 2685.04 -1.59775 5.28371 0
M  V30 27935 H 2687.51 -2.27911 3.48132 0
M  V30 27936 H 2686.39 -3.36821 4.33408 0
M  V30 27937 H 2686.65 -3.5693 2.60871 0
M  V30 27938 N 2685.71 -1.4932 -0.504115 0
M  V30 27939 C 2686.94 -1.62118 -1.28068 0
M  V30 27940 C 2687.35 -0.290599 -1.86955 0
M  V30 27941 O 2686.69 0.733587 -1.68417 0
M  V30 27942 C 2686.75 -2.62897 -2.45205 0
M  V30 27943 C 2686.41 -4.07324 -2.0721 0
M  V30 27944 C 2687.41 -4.94224 -1.61366 0
M  V30 27945 C 2685.1 -4.53036 -2.16941 0
M  V30 27946 C 2687.09 -6.24872 -1.25752 0
M  V30 27947 C 2684.78 -5.83699 -1.80938 0
M  V30 27948 C 2685.78 -6.69441 -1.35418 0
M  V30 27949 O 2685.46 -7.97668 -0.99901 0
M  V30 27950 H 2685.2 -0.548767 -0.394754 0
M  V30 27951 H 2687.75 -1.96068 -0.612084 0
M  V30 27952 H 2685.98 -2.24121 -3.1513 0
M  V30 27953 H 2687.67 -2.65257 -3.07235 0
M  V30 27954 H 2688.43 -4.60136 -1.53298 0
M  V30 27955 H 2684.31 -3.86468 -2.51324 0
M  V30 27956 H 2687.86 -6.9175 -0.901509 0
M  V30 27957 H 2683.75 -6.17316 -1.88656 0
M  V30 27958 H 2684.52 -8.10652 -1.13075 0
M  V30 27959 N 2687.19 0.754933 -1.38342 0
M  V30 27960 C 2688.43 1.51103 -1.3421 0
M  V30 27961 C 2688.75 1.94882 0.0677291 0
M  V30 27962 O 2688.02 1.67546 1.01515 0
M  V30 27963 H 2686.6 0.560484 -0.493828 0
M  V30 27964 H 2689.27 0.897476 -1.73007 0
M  V30 27965 H 2688.36 2.40256 -1.99207 0
M  V30 27966 N 2688.66 1.23189 0.982967 0
M  V30 27967 C 2689.89 1.08904 1.75919 0
M  V30 27968 C 2690.31 -0.359686 1.85342 0
M  V30 27969 O 2689.66 -1.2489 1.33074 0
M  V30 27970 C 2689.71 1.70551 3.18739 0
M  V30 27971 O 2689.44 3.09758 3.09809 0
M  V30 27972 C 2690.94 1.61674 4.12767 0
M  V30 27973 H 2688.16 0.381262 0.55216 0
M  V30 27974 H 2690.7 1.62987 1.23513 0
M  V30 27975 H 2688.86 1.20508 3.6818 0
M  V30 27976 H 2689.27 3.39621 3.99697 0
M  V30 27977 H 2690.74 2.09515 5.10693 0
M  V30 27978 H 2691.22 0.575086 4.35419 0
M  V30 27979 H 2691.83 2.11071 3.69228 0
M  V30 27980 N 2690.14 -1.18133 1.04318 0
M  V30 27981 C 2691.05 -2.25504 0.646916 0
M  V30 27982 C 2692.07 -1.70881 -0.327977 0
M  V30 27983 O 2693.24 -2.00573 -0.182273 0
M  V30 27984 C 2690.31 -3.46695 0.0186273 0
M  V30 27985 C 2689.37 -4.16441 1.04285 0
M  V30 27986 C 2688.6 -5.31846 0.444445 0
M  V30 27987 O 2688.83 -5.65466 -0.748636 0
M  V30 27988 O 2687.76 -5.90332 1.17439 0
M  V30 27989 H 2691.59 -2.61669 1.54152 0
M  V30 27990 H 2689.17 -1.25264 0.81421 0
M  V30 27991 H 2691.05 -4.20098 -0.330994 0
M  V30 27992 H 2689.73 -3.12347 -0.84976 0
M  V30 27993 H 2688.63 -3.45095 1.44431 0
M  V30 27994 H 2689.97 -4.54795 1.88208 0
M  V30 27995 N 2691.62 -0.822988 -1.34405 0
M  V30 27996 C 2692.87 -0.41028 -1.97892 0
M  V30 27997 C 2693.19 1.03014 -1.65569 0
M  V30 27998 O 2692.46 1.7152 -0.946451 0
M  V30 27999 H 2691.04 -0.14872 -0.732046 0
M  V30 28000 H 2693.7 -1.05245 -1.64041 0
M  V30 28001 H 2692.8 -0.529338 -3.07578 0
M  V30 28002 N 2693.1 1.4662 -0.577957 0
M  V30 28003 C 2694.03 2.33044 0.145876 0
M  V30 28004 C 2695.01 1.45058 0.888387 0
M  V30 28005 O 2696.19 1.73883 0.864782 0
M  V30 28006 C 2693.32 3.27243 1.16316 0
M  V30 28007 C 2692.28 4.24633 0.535793 0
M  V30 28008 C 2691.6 5.08306 1.6592 0
M  V30 28009 C 2692.9 5.19665 -0.523953 0
M  V30 28010 H 2694.6 2.93813 -0.575688 0
M  V30 28011 H 2692.14 1.41285 -0.278297 0
M  V30 28012 H 2694.1 3.86556 1.67786 0
M  V30 28013 H 2692.82 2.64571 1.91494 0
M  V30 28014 H 2691.48 3.66576 0.0422115 0
M  V30 28015 H 2691.13 4.42022 2.40053 0
M  V30 28016 H 2690.83 5.74257 1.2451 0
M  V30 28017 H 2692.35 5.70482 2.17676 0
M  V30 28018 H 2693.77 5.73222 -0.0945067 0
M  V30 28019 H 2692.16 5.93933 -0.858105 0
M  V30 28020 H 2693.23 4.63885 -1.41205 0
M  V30 28021 N 2694.58 0.315484 1.5441 0
M  V30 28022 C 2695.49 -0.56325 2.27738 0
M  V30 28023 C 2696.5 -1.13611 1.31789 0
M  V30 28024 O 2697.68 -1.15781 1.64793 0
M  V30 28025 C 2694.74 -1.71202 3.01481 0
M  V30 28026 C 2693.8 -1.17177 4.12999 0
M  V30 28027 C 2693.04 -2.26579 4.83216 0
M  V30 28028 O 2693.26 -3.46767 4.5289 0
M  V30 28029 O 2692.19 -1.92453 5.70303 0
M  V30 28030 H 2696.02 0.0320147 3.03683 0
M  V30 28031 H 2693.61 0.081445 1.49178 0
M  V30 28032 H 2695.49 -2.381 3.47687 0
M  V30 28033 H 2694.16 -2.29362 2.28418 0
M  V30 28034 H 2693.07 -0.468109 3.7116 0
M  V30 28035 H 2694.4 -0.635415 4.88081 0
M  V30 28036 N 2696.05 -1.5754 0.0434891 0
M  V30 28037 C 2697.02 -2.09984 -0.918659 0
M  V30 28038 C 2698.02 -1.01783 -1.24486 0
M  V30 28039 O 2699.21 -1.27887 -1.18282 0
M  V30 28040 C 2696.34 -2.57768 -2.23088 0
M  V30 28041 H 2697.53 -2.96286 -0.464177 0
M  V30 28042 H 2695.09 -1.54953 -0.204791 0
M  V30 28043 H 2695.82 -1.74837 -2.73134 0
M  V30 28044 H 2695.61 -3.3683 -2.00718 0
M  V30 28045 H 2697.1 -2.98517 -2.92023 0
M  V30 28046 N 2697.53 0.229818 -1.55915 0
M  V30 28047 C 2698.46 1.28811 -1.94756 0
M  V30 28048 C 2699.44 1.49322 -0.814683 0
M  V30 28049 O 2700.63 1.61644 -1.07634 0
M  V30 28050 C 2697.76 2.63955 -2.2571 0
M  V30 28051 C 2696.71 2.58114 -3.4141 0
M  V30 28052 C 2696.04 3.97212 -3.57948 0
M  V30 28053 C 2697.34 2.13615 -4.76619 0
M  V30 28054 H 2699.03 0.965497 -2.83405 0
M  V30 28055 H 2696.58 0.463004 -1.36353 0
M  V30 28056 H 2698.53 3.38141 -2.51472 0
M  V30 28057 H 2697.26 2.97888 -1.33905 0
M  V30 28058 H 2695.91 1.86386 -3.15683 0
M  V30 28059 H 2695.56 4.28438 -2.63534 0
M  V30 28060 H 2695.26 3.94188 -4.35764 0
M  V30 28061 H 2696.79 4.73072 -3.8605 0
M  V30 28062 H 2698.2 2.7754 -5.01642 0
M  V30 28063 H 2696.6 2.21667 -5.57659 0
M  V30 28064 H 2697.67 1.0882 -4.72532 0
M  V30 28065 N 2699.01 1.49585 0.49619 0
M  V30 28066 C 2700.29 1.49818 1.25753 0
M  V30 28067 C 2700.67 0.228609 2.09858 0
M  V30 28068 O 2700.02 -0.78887 2.14451 0
M  V30 28069 C 2700.23 2.77983 2.11013 0
M  V30 28070 C 2701.57 3.27663 2.70041 0
M  V30 28071 O 2702.6 2.79133 2.21276 0
M  V30 28072 O 2701.46 4.12196 3.58827 0
M  V30 28073 H 2698.55 0.599844 0.569312 0
M  V30 28074 H 2701.1 1.61853 0.510066 0
M  V30 28075 H 2699.87 3.61874 1.48872 0
M  V30 28076 H 2699.49 2.68832 2.92942 0
M  V30 28077 N 2700.49 -0.747586 1.3874 0
M  V30 28078 C 2701.42 -1.87489 1.39176 0
M  V30 28079 C 2702.4 -1.6815 0.256823 0
M  V30 28080 O 2703.58 -1.88654 0.460795 0
M  V30 28081 C 2700.71 -3.2509 1.22203 0
M  V30 28082 C 2699.67 -3.59043 2.32964 0
M  V30 28083 C 2698.99 -4.95446 2.01091 0
M  V30 28084 C 2700.29 -3.63304 3.75244 0
M  V30 28085 H 2701.99 -1.87382 2.33513 0
M  V30 28086 H 2699.53 -0.900114 1.12401 0
M  V30 28087 H 2701.49 -4.03615 1.21131 0
M  V30 28088 H 2700.21 -3.25693 0.243298 0
M  V30 28089 H 2698.87 -2.82841 2.33231 0
M  V30 28090 H 2698.52 -4.92614 1.01687 0
M  V30 28091 H 2698.22 -5.19131 2.75276 0
M  V30 28092 H 2699.74 -5.76342 2.01648 0
M  V30 28093 H 2701.16 -4.3193 3.76974 0
M  V30 28094 H 2699.55 -3.98501 4.48684 0
M  V30 28095 H 2700.62 -2.63393 4.07127 0
M  V30 28096 N 2701.97 -1.23709 -0.97642 0
M  V30 28097 C 2703.19 -1.09836 -1.75339 0
M  V30 28098 C 2703.61 0.349852 -1.8553 0
M  V30 28099 O 2702.97 1.24183 -1.33735 0
M  V30 28100 C 2703.02 -1.72239 -3.1783 0
M  V30 28101 O 2702.74 -3.11397 -3.08162 0
M  V30 28102 C 2704.24 -1.63861 -4.11904 0
M  V30 28103 H 2701.46 -0.384185 -0.55013 0
M  V30 28104 H 2704 -1.6364 -1.22647 0
M  V30 28105 H 2702.16 -1.22459 -3.67536 0
M  V30 28106 H 2702.57 -3.41736 -3.97891 0
M  V30 28107 H 2704.05 -2.1222 -5.09575 0
M  V30 28108 H 2704.52 -0.598169 -4.35108 0
M  V30 28109 H 2705.13 -2.13026 -3.68103 0
M  V30 28110 N 2703.44 1.17579 -1.04943 0
M  V30 28111 C 2704.67 1.91702 -0.778328 0
M  V30 28112 C 2705.09 1.76676 0.665666 0
M  V30 28113 O 2704.44 1.10224 1.45454 0
M  V30 28114 C 2704.5 3.42843 -1.14634 0
M  V30 28115 O 2704.22 3.57404 -2.53365 0
M  V30 28116 C 2705.72 4.34047 -0.901007 0
M  V30 28117 H 2702.94 0.608318 -0.283178 0
M  V30 28118 H 2705.48 1.49117 -1.39944 0
M  V30 28119 H 2703.64 3.83183 -0.57002 0
M  V30 28120 H 2704.05 4.5103 -2.67717 0
M  V30 28121 H 2705.52 5.38614 -1.20827 0
M  V30 28122 H 2706 4.38894 0.163889 0
M  V30 28123 H 2706.61 3.99417 -1.46104 0
M  V30 28124 N 2704.92 0.830104 1.33967 0
M  V30 28125 C 2706.15 0.433831 2.02812 0
M  V30 28126 C 2706.57 -0.954586 1.62078 0
M  V30 28127 O 2705.93 -1.6225 0.808983 0
M  V30 28128 C 2705.98 0.552178 3.56347 0
M  V30 28129 O 2705.08 -0.425119 4.10203 0
M  V30 28130 H 2704.42 0.177578 0.639814 0
M  V30 28131 H 2706.95 1.12251 1.71058 0
M  V30 28132 H 2706.96 0.430585 4.05722 0
M  V30 28133 H 2705.64 1.56477 3.85341 0
M  V30 28134 H 2704.22 -0.261812 3.7198 0
M  V30 28135 N 2706.4 -1.46311 0.585725 0
M  V30 28136 C 2707.36 -2.28798 -0.135633 0
M  V30 28137 C 2708.36 -1.38559 -0.815964 0
M  V30 28138 O 2709.55 -1.60906 -0.667459 0
M  V30 28139 C 2706.69 -3.19022 -1.20158 0
M  V30 28140 H 2707.88 -2.94053 0.589308 0
M  V30 28141 H 2705.43 -1.52472 0.343821 0
M  V30 28142 H 2706.17 -2.58521 -1.958 0
M  V30 28143 H 2705.95 -3.85466 -0.718214 0
M  V30 28144 H 2707.44 -3.81099 -1.70743 0
M  V30 28145 N 2707.88 -0.323668 -1.54241 0
M  V30 28146 C 2709.13 0.278324 -2.00174 0
M  V30 28147 C 2709.45 1.52646 -1.21343 0
M  V30 28148 O 2708.72 1.93346 -0.315278 0
M  V30 28149 H 2707.3 0.105832 -0.739465 0
M  V30 28150 H 2709.96 -0.440238 -1.89863 0
M  V30 28151 H 2709.06 0.534646 -3.07487 0
M  V30 28152 N 2709.36 1.57515 -0.0518432 0
M  V30 28153 C 2710.59 1.96746 0.630445 0
M  V30 28154 C 2711 0.928082 1.64873 0
M  V30 28155 O 2710.34 -0.0960356 1.83449 0
M  V30 28156 C 2710.4 3.32217 1.37375 0
M  V30 28157 C 2710.06 4.54132 0.511219 0
M  V30 28158 C 2711.06 5.19422 -0.222976 0
M  V30 28159 C 2708.75 5.00352 0.441947 0
M  V30 28160 C 2710.74 6.29269 -1.01487 0
M  V30 28161 C 2708.43 6.10076 -0.353637 0
M  V30 28162 C 2709.43 6.74395 -1.08073 0
M  V30 28163 O 2709.11 7.82009 -1.86323 0
M  V30 28164 H 2708.85 0.652385 0.177115 0
M  V30 28165 H 2711.4 2.05079 -0.114762 0
M  V30 28166 H 2709.63 3.2044 2.1646 0
M  V30 28167 H 2711.32 3.56192 1.94634 0
M  V30 28168 H 2712.08 4.8467 -0.178931 0
M  V30 28169 H 2707.96 4.50079 0.997483 0
M  V30 28170 H 2711.51 6.79404 -1.58291 0
M  V30 28171 H 2707.4 6.44264 -0.399318 0
M  V30 28172 H 2708.17 7.9879 -1.78542 0
M  V30 28173 N 2710.84 -0.221546 1.56035 0
M  V30 28174 C 2712.25 -0.788538 1.69231 0
M  V30 28175 C 2712.6 -1.84985 0.653847 0
M  V30 28176 O 2711.72 -2.15519 -0.195027 0
M  V30 28177 C 2712.32 -1.43708 3.06812 0
M  V30 28178 C 2710.88 -1.95146 3.21862 0
M  V30 28179 C 2710.02 -0.811639 2.65156 0
M  V30 28180 H 2712.97 0.00310684 1.587 0
M  V30 28181 H 2713 -2.30589 3.0267 0
M  V30 28182 H 2712.51 -0.664407 3.82371 0
M  V30 28183 H 2710.61 -2.75215 2.51172 0
M  V30 28184 H 2710.72 -2.13143 4.29077 0
M  V30 28185 H 2709.09 -1.21896 2.23637 0
M  V30 28186 H 2709.87 -0.0516383 3.43261 0
M  V30 28187 N 2712.31 -1.49846 -0.48825 0
M  V30 28188 C 2713.54 -1.63467 -1.26341 0
M  V30 28189 C 2713.95 -0.310411 -1.86636 0
M  V30 28190 O 2713.29 0.715682 -1.69185 0
M  V30 28191 C 2713.36 -2.65483 -2.42403 0
M  V30 28192 C 2713.02 -4.09499 -2.02879 0
M  V30 28193 C 2714.02 -4.95907 -1.56115 0
M  V30 28194 C 2711.7 -4.55312 -2.12123 0
M  V30 28195 C 2713.7 -6.26171 -1.19118 0
M  V30 28196 C 2711.38 -5.85585 -1.74737 0
M  V30 28197 C 2712.38 -6.70839 -1.2831 0
M  V30 28198 O 2712.07 -7.98683 -0.91435 0
M  V30 28199 H 2711.8 -0.552923 -0.388911 0
M  V30 28200 H 2714.36 -1.96706 -0.591254 0
M  V30 28201 H 2712.59 -2.2745 -3.12735 0
M  V30 28202 H 2714.27 -2.68501 -3.04405 0
M  V30 28203 H 2715.04 -4.61736 -1.48409 0
M  V30 28204 H 2710.92 -3.89112 -2.4721 0
M  V30 28205 H 2714.46 -6.92668 -0.828089 0
M  V30 28206 H 2710.36 -6.19282 -1.82098 0
M  V30 28207 H 2711.13 -8.11805 -1.04471 0
M  V30 28208 N 2713.79 0.740218 -1.39135 0
M  V30 28209 C 2715.04 1.50189 -1.36276 0
M  V30 28210 C 2715.37 1.94152 0.0429794 0
M  V30 28211 O 2714.65 1.6641 1.00688 0
M  V30 28212 C 2714.93 2.74521 -2.33046 0
M  V30 28213 C 2714.78 2.3661 -3.82539 0
M  V30 28214 C 2716.1 3.766 -2.27729 0
M  V30 28215 H 2713.22 0.544814 -0.496333 0
M  V30 28216 H 2715.86 0.846785 -1.70087 0
M  V30 28217 H 2714.01 3.30418 -2.04343 0
M  V30 28218 H 2715.68 1.86384 -4.2197 0
M  V30 28219 H 2713.93 1.68902 -3.99568 0
M  V30 28220 H 2714.6 3.25622 -4.45729 0
M  V30 28221 H 2717.07 3.30274 -2.53097 0
M  V30 28222 H 2715.95 4.61268 -2.97528 0
M  V30 28223 H 2716.21 4.23148 -1.28057 0
M  V30 28224 N 2715.27 1.24225 0.969846 0
M  V30 28225 C 2716.5 1.10764 1.74754 0
M  V30 28226 C 2716.91 -0.340008 1.85713 0
M  V30 28227 O 2716.27 -1.23472 1.34391 0
M  V30 28228 C 2716.32 1.73922 3.16912 0
M  V30 28229 O 2716.04 3.13027 3.06506 0
M  V30 28230 C 2717.54 1.66043 4.11029 0
M  V30 28231 H 2714.76 0.387097 0.548085 0
M  V30 28232 H 2717.31 1.64288 1.21777 0
M  V30 28233 H 2715.46 1.24406 3.66881 0
M  V30 28234 H 2715.88 3.43841 3.96073 0
M  V30 28235 H 2717.35 2.1492 5.08442 0
M  V30 28236 H 2717.83 0.621235 4.34784 0
M  V30 28237 H 2718.43 2.14975 3.66968 0
M  V30 28238 N 2716.75 -1.1702 1.05565 0
M  V30 28239 C 2717.68 -2.23347 0.681065 0
M  V30 28240 C 2718.66 -1.67006 -0.322954 0
M  V30 28241 O 2719.84 -1.9317 -0.199712 0
M  V30 28242 C 2716.97 -3.4725 0.0589663 0
M  V30 28243 C 2715.93 -4.16437 0.988155 0
M  V30 28244 C 2715.25 -5.34206 0.22974 0
M  V30 28245 C 2716.55 -4.68245 2.31396 0
M  V30 28246 H 2718.25 -2.54936 1.56997 0
M  V30 28247 H 2715.79 -1.22539 0.756324 0
M  V30 28248 H 2717.75 -4.20852 -0.214908 0
M  V30 28249 H 2716.47 -3.14939 -0.864913 0
M  V30 28250 H 2715.13 -3.44752 1.24666 0
M  V30 28251 H 2714.78 -4.98147 -0.697024 0
M  V30 28252 H 2714.48 -5.81435 0.848917 0
M  V30 28253 H 2716 -6.10589 -0.0367621 0
M  V30 28254 H 2717.42 -5.33464 2.09973 0
M  V30 28255 H 2715.81 -5.26067 2.88745 0
M  V30 28256 H 2716.88 -3.8485 2.94989 0
M  V30 28257 N 2718.23 -0.837197 -1.33524 0
M  V30 28258 C 2719.47 -0.431246 -1.97445 0
M  V30 28259 C 2719.79 1.01252 -1.66652 0
M  V30 28260 O 2719.06 1.70507 -0.964589 0
M  V30 28261 H 2717.64 -0.156476 -0.730427 0
M  V30 28262 H 2720.31 -1.06979 -1.62916 0
M  V30 28263 H 2719.4 -0.561931 -3.07 0
M  V30 28264 N 2719.7 1.45999 -0.593476 0
M  V30 28265 C 2720.95 2.01538 -0.0808438 0
M  V30 28266 C 2721.27 1.46936 1.29109 0
M  V30 28267 O 2722.47 1.94362 1.89567 0
M  V30 28268 C 2720.93 3.59777 -0.0938943 0
M  V30 28269 C 2720.54 4.23376 -1.46481 0
M  V30 28270 C 2722.28 4.22935 0.364231 0
M  V30 28271 C 2720.19 5.73726 -1.43501 0
M  V30 28272 H 2719.12 0.753536 -0.0264539 0
M  V30 28273 H 2721.77 1.6762 -0.746719 0
M  V30 28274 H 2720.15 3.90821 0.638358 0
M  V30 28275 H 2721.32 4.03927 -2.21765 0
M  V30 28276 H 2719.64 3.72357 -1.86385 0
M  V30 28277 H 2722.24 5.3316 0.405491 0
M  V30 28278 H 2722.58 3.9262 1.38402 0
M  V30 28279 H 2723.11 3.96556 -0.3143 0
M  V30 28280 H 2719.85 6.08717 -2.43194 0
M  V30 28281 H 2719.37 5.95408 -0.724536 0
M  V30 28282 H 2721.05 6.36652 -1.15254 0
M  V30 28283 N 2721.18 0.331843 1.54067 0
M  V30 28284 C 2722.13 -0.530332 2.24624 0
M  V30 28285 C 2723.1 -1.10501 1.24011 0
M  V30 28286 O 2724.28 -1.14381 1.52714 0
M  V30 28287 C 2721.42 -1.68124 3.01377 0
M  V30 28288 C 2720.54 -1.135 4.16823 0
M  V30 28289 C 2719.67 -2.25226 4.81089 0
M  V30 28290 C 2718.71 -1.67893 5.88624 0
M  V30 28291 N 2717.85 -2.73315 6.46717 0
M  V30 28292 H 2722.69 0.077913 2.97898 0
M  V30 28293 H 2720.23 0.0502224 1.47014 0
M  V30 28294 H 2722.18 -2.35862 3.44129 0
M  V30 28295 H 2720.81 -2.26065 2.30423 0
M  V30 28296 H 2719.87 -0.348913 3.78796 0
M  V30 28297 H 2721.18 -0.675546 4.94204 0
M  V30 28298 H 2720.33 -3.00852 5.26852 0
M  V30 28299 H 2719.07 -2.74511 4.03107 0
M  V30 28300 H 2718.08 -0.907678 5.42256 0
M  V30 28301 H 2719.3 -1.19475 6.68508 0
M  V30 28302 H 2717.25 -3.21876 5.71605 0
M  V30 28303 H 2717.16 -2.31957 7.19536 0
M  V30 28304 H 2718.43 -3.48745 6.97135 0
M  V30 28305 N 2722.66 -1.57485 0.0601958 0
M  V30 28306 C 2723.61 -2.12056 -0.911082 0
M  V30 28307 C 2724.58 -1.03016 -1.30296 0
M  V30 28308 O 2725.76 -1.30614 -1.39085 0
M  V30 28309 C 2722.9 -2.67733 -2.17746 0
M  V30 28310 C 2722.02 -3.9089 -1.83926 0
M  V30 28311 C 2721.15 -4.3485 -3.05088 0
M  V30 28312 C 2720.19 -5.50685 -2.67232 0
M  V30 28313 N 2719.33 -5.89656 -3.81116 0
M  V30 28314 H 2724.17 -2.94751 -0.438829 0
M  V30 28315 H 2721.7 -1.45665 -0.20497 0
M  V30 28316 H 2723.66 -2.98116 -2.91861 0
M  V30 28317 H 2722.29 -1.87821 -2.62532 0
M  V30 28318 H 2721.34 -3.67042 -0.999223 0
M  V30 28319 H 2722.66 -4.75055 -1.52066 0
M  V30 28320 H 2721.81 -4.66834 -3.87494 0
M  V30 28321 H 2720.55 -3.49515 -3.40133 0
M  V30 28322 H 2719.55 -5.18364 -1.83245 0
M  V30 28323 H 2720.78 -6.37743 -2.33369 0
M  V30 28324 H 2718.72 -5.07273 -4.15945 0
M  V30 28325 H 2718.64 -6.68534 -3.52985 0
M  V30 28326 H 2719.91 -6.26258 -4.64134 0
M  V30 28327 N 2724.14 0.213268 -1.5615 0
M  V30 28328 C 2725.55 0.563333 -1.49328 0
M  V30 28329 C 2725.75 1.86746 -0.756859 0
M  V30 28330 O 2724.81 2.50713 -0.29991 0
M  V30 28331 C 2726.12 0.634892 -2.93921 0
M  V30 28332 C 2727.67 0.72496 -3.04489 0
M  V30 28333 C 2728.15 0.82779 -4.50457 0
M  V30 28334 N 2729.64 0.891796 -4.54534 0
M  V30 28335 C 2730.37 0.991215 -5.64768 0
M  V30 28336 N 2729.87 1.05407 -6.84734 0
M  V30 28337 N 2731.66 1.027 -5.52638 0
M  V30 28338 H 2723.81 -0.642402 -2.02452 0
M  V30 28339 H 2726.08 -0.226503 -0.920544 0
M  V30 28340 H 2725.78 -0.253921 -3.50782 0
M  V30 28341 H 2725.66 1.49573 -3.46277 0
M  V30 28342 H 2728.04 1.60421 -2.47688 0
M  V30 28343 H 2728.12 -0.161714 -2.55288 0
M  V30 28344 H 2727.77 -0.0470357 -5.07878 0
M  V30 28345 H 2727.7 1.73 -4.97372 0
M  V30 28346 H 2730.19 0.853206 -3.68142 0
M  V30 28347 H 2730.5 1.12993 -7.64495 0
M  V30 28348 H 2728.85 1.02306 -6.87429 0
M  V30 28349 H 2732.04 0.974606 -4.57842 0
M  V30 28350 H 2732.21 1.10102 -6.38578 0
M  V30 28351 N 2725.62 1.50103 0.480296 0
M  V30 28352 C 2726.89 1.51144 1.24157 0
M  V30 28353 C 2727.27 0.250855 2.09604 0
M  V30 28354 O 2726.62 -0.76608 2.15275 0
M  V30 28355 C 2726.83 2.80206 2.08052 0
M  V30 28356 C 2728.18 3.30509 2.6655 0
M  V30 28357 O 2729.2 2.81465 2.18303 0
M  V30 28358 O 2728.06 4.15979 3.54435 0
M  V30 28359 H 2725.16 0.605849 0.562918 0
M  V30 28360 H 2727.7 1.62385 0.49287 0
M  V30 28361 H 2726.47 3.63433 1.45026 0
M  V30 28362 H 2726.1 2.71924 2.90074 0
M  V30 28363 N 2727.09 -0.732829 1.39526 0
M  V30 28364 C 2728.34 -1.4879 1.36178 0
M  V30 28365 C 2728.66 -1.95562 -0.0387851 0
M  V30 28366 O 2729.86 -2.708 -0.194851 0
M  V30 28367 C 2728.32 -2.68866 2.39246 0
M  V30 28368 C 2727.93 -2.29035 3.85028 0
M  V30 28369 C 2729.67 -3.46679 2.44978 0
M  V30 28370 C 2727.58 -3.45847 4.79733 0
M  V30 28371 H 2726.51 -0.558748 0.506277 0
M  V30 28372 H 2729.16 -0.799197 1.65182 0
M  V30 28373 H 2727.54 -3.39822 2.03316 0
M  V30 28374 H 2728.71 -1.65612 4.30011 0
M  V30 28375 H 2727.03 -1.64309 3.82611 0
M  V30 28376 H 2729.63 -4.33569 3.12925 0
M  V30 28377 H 2729.97 -3.89295 1.47497 0
M  V30 28378 H 2730.5 -2.82754 2.79813 0
M  V30 28379 H 2727.24 -3.08279 5.78484 0
M  V30 28380 H 2726.76 -4.08244 4.39428 0
M  V30 28381 H 2728.44 -4.12152 4.98738 0
M  V30 28382 N 2728.57 -1.24737 -0.963244 0
M  V30 28383 C 2729.5 -1.06836 -2.07626 0
M  V30 28384 C 2730.48 0.0200267 -1.70088 0
M  V30 28385 O 2731.67 -0.147888 -1.93636 0
M  V30 28386 C 2728.8 -0.677129 -3.40635 0
M  V30 28387 C 2727.75 -1.71478 -3.92147 0
M  V30 28388 C 2727.08 -1.17849 -5.21551 0
M  V30 28389 C 2728.38 -3.11172 -4.19487 0
M  V30 28390 H 2730.07 -1.99934 -2.2286 0
M  V30 28391 H 2727.62 -0.962679 -1.07091 0
M  V30 28392 H 2729.57 -0.538866 -4.1794 0
M  V30 28393 H 2728.3 0.289554 -3.25314 0
M  V30 28394 H 2726.95 -1.84134 -3.17002 0
M  V30 28395 H 2726.6 -0.202284 -5.02593 0
M  V30 28396 H 2726.3 -1.87195 -5.56985 0
M  V30 28397 H 2727.83 -1.05244 -6.01462 0
M  V30 28398 H 2729.24 -3.01719 -4.87482 0
M  V30 28399 H 2727.64 -3.77911 -4.66158 0
M  V30 28400 H 2728.71 -3.58877 -3.26091 0
M  V30 28401 N 2730.05 1.16459 -1.06184 0
M  V30 28402 C 2731.28 1.91407 -0.798633 0
M  V30 28403 C 2731.7 1.76843 0.640956 0
M  V30 28404 O 2731.06 1.09298 1.4465 0
M  V30 28405 C 2731.11 3.40163 -1.19671 0
M  V30 28406 O 2730.21 4.11038 -0.33484 0
M  V30 28407 H 2729.55 0.596363 -0.291972 0
M  V30 28408 H 2732.08 1.47555 -1.41735 0
M  V30 28409 H 2732.09 3.90931 -1.16779 0
M  V30 28410 H 2730.77 3.50083 -2.24532 0
M  V30 28411 H 2729.34 3.70468 -0.425233 0
M  V30 28412 N 2731.53 0.844266 1.33079 0
M  V30 28413 C 2732.48 0.279364 2.29103 0
M  V30 28414 C 2733.45 -0.607855 1.54578 0
M  V30 28415 O 2734.63 -0.544977 1.82851 0
M  V30 28416 C 2731.77 -0.53502 3.40927 0
M  V30 28417 C 2730.88 0.376825 4.30353 0
M  V30 28418 C 2730.02 -0.449183 5.29297 0
M  V30 28419 C 2729.06 0.460713 6.10364 0
M  V30 28420 N 2728.19 -0.327489 7.01336 0
M  V30 28421 H 2733.03 1.10351 2.76815 0
M  V30 28422 H 2730.57 0.555635 1.36202 0
M  V30 28423 H 2732.53 -1.02271 4.04471 0
M  V30 28424 H 2731.16 -1.32409 2.94394 0
M  V30 28425 H 2730.21 0.982856 3.67483 0
M  V30 28426 H 2731.52 1.07557 4.87066 0
M  V30 28427 H 2730.68 -1.00048 5.98394 0
M  V30 28428 H 2729.42 -1.18134 4.73176 0
M  V30 28429 H 2728.42 1.02398 5.4018 0
M  V30 28430 H 2729.65 1.19132 6.68569 0
M  V30 28431 H 2727.59 -1.04293 6.47656 0
M  V30 28432 H 2727.51 0.312433 7.55354 0
M  V30 28433 H 2728.78 -0.860844 7.74732 0
M  V30 28434 N 2733.01 -1.45682 0.60121 0
M  V30 28435 C 2733.95 -2.30481 -0.121356 0
M  V30 28436 C 2734.92 -1.41725 -0.866207 0
M  V30 28437 O 2736.11 -1.7066 -0.85321 0
M  V30 28438 C 2733.25 -3.26523 -1.11698 0
M  V30 28439 C 2732.36 -4.30381 -0.373665 0
M  V30 28440 C 2731.5 -5.13536 -1.35845 0
M  V30 28441 C 2730.54 -6.09127 -0.602582 0
M  V30 28442 N 2729.67 -6.85085 -1.53633 0
M  V30 28443 H 2734.51 -2.91736 0.607783 0
M  V30 28444 H 2732.05 -1.43763 0.311527 0
M  V30 28445 H 2734.01 -3.80667 -1.70729 0
M  V30 28446 H 2732.64 -2.67036 -1.81361 0
M  V30 28447 H 2731.69 -3.78948 0.332028 0
M  V30 28448 H 2733 -4.9833 0.216388 0
M  V30 28449 H 2732.16 -5.72049 -2.02101 0
M  V30 28450 H 2730.89 -4.45591 -1.98243 0
M  V30 28451 H 2729.9 -5.49751 0.0736448 0
M  V30 28452 H 2731.12 -6.79098 0.016266 0
M  V30 28453 H 2729.07 -6.19833 -2.14808 0
M  V30 28454 H 2728.99 -7.49363 -0.999557 0
M  V30 28455 H 2730.26 -7.48143 -2.18867 0
M  V30 28456 N 2734.48 -0.340009 -1.53889 0
M  V30 28457 C 2735.71 0.259078 -2.05272 0
M  V30 28458 C 2736.13 1.44494 -1.2152 0
M  V30 28459 O 2735.48 1.80784 -0.249692 0
M  V30 28460 C 2735.54 0.677571 -3.55093 0
M  V30 28461 O 2735.26 -0.461128 -4.35666 0
M  V30 28462 C 2736.76 1.33775 -4.22634 0
M  V30 28463 H 2733.98 0.0506448 -0.669086 0
M  V30 28464 H 2736.52 -0.49097 -1.98519 0
M  V30 28465 H 2734.68 1.37757 -3.6208 0
M  V30 28466 H 2735.09 -0.128236 -5.24343 0
M  V30 28467 H 2736.56 1.58136 -5.28864 0
M  V30 28468 H 2737.04 2.2902 -3.74762 0
M  V30 28469 H 2737.65 0.679883 -4.19831 0
M  V30 28470 N 2735.96 1.57451 -0.0685468 0
M  V30 28471 C 2737.38 1.56979 0.288074 0
M  V30 28472 C 2737.58 1.07768 1.7026 0
M  V30 28473 O 2736.64 0.742097 2.41349 0
M  V30 28474 C 2737.95 3.00531 0.100692 0
M  V30 28475 C 2739.5 3.12535 0.170476 0
M  V30 28476 C 2739.97 4.57999 0.0114139 0
M  V30 28477 N 2741.46 4.63151 0.0671251 0
M  V30 28478 C 2742.2 5.73391 -0.0315821 0
M  V30 28479 N 2741.69 6.92557 -0.183625 0
M  V30 28480 N 2743.49 5.62094 0.0252501 0
M  V30 28481 H 2735.64 1.87755 -0.993059 0
M  V30 28482 H 2737.9 0.865412 -0.386996 0
M  V30 28483 H 2737.61 3.40635 -0.875257 0
M  V30 28484 H 2737.48 3.67396 0.854392 0
M  V30 28485 H 2739.87 2.7232 1.13691 0
M  V30 28486 H 2739.95 2.48315 -0.614273 0
M  V30 28487 H 2739.59 4.98903 -0.951771 0
M  V30 28488 H 2739.52 5.20247 0.815526 0
M  V30 28489 H 2742.01 3.77456 0.18318 0
M  V30 28490 H 2742.33 7.72392 -0.251177 0
M  V30 28491 H 2740.67 6.94655 -0.218944 0
M  V30 28492 H 2743.86 4.67882 0.142711 0
M  V30 28493 H 2744.04 6.47977 -0.0551305 0
M  V30 28494 N 2737.44 -0.204984 1.56261 0
M  V30 28495 C 2738.72 -0.952203 1.70858 0
M  V30 28496 C 2739.1 -2.01774 0.620536 0
M  V30 28497 O 2738.45 -2.25485 -0.369995 0
M  V30 28498 C 2738.66 -1.54761 3.1281 0
M  V30 28499 C 2740 -2.03354 3.72736 0
M  V30 28500 O 2741.03 -1.64623 3.15876 0
M  V30 28501 O 2739.89 -2.74592 4.72506 0
M  V30 28502 H 2736.98 -0.445883 0.696504 0
M  V30 28503 H 2739.53 -0.19546 1.68571 0
M  V30 28504 H 2738.3 -0.779064 3.83466 0
M  V30 28505 H 2737.92 -2.36946 3.19284 0
M  V30 28506 N 2738.92 -1.50356 -0.472329 0
M  V30 28507 C 2739.85 -1.72057 -1.57856 0
M  V30 28508 C 2740.83 -0.569533 -1.60282 0
M  V30 28509 O 2742.02 -0.808534 -1.76568 0
M  V30 28510 C 2739.15 -1.81357 -2.96188 0
M  V30 28511 C 2738.1 -2.96535 -3.08628 0
M  V30 28512 C 2737.43 -2.90975 -4.48595 0
M  V30 28513 C 2738.73 -4.37062 -2.85962 0
M  V30 28514 H 2740.42 -2.64679 -1.39948 0
M  V30 28515 H 2737.97 -1.27368 -0.671823 0
M  V30 28516 H 2739.92 -1.95123 -3.73504 0
M  V30 28517 H 2738.64 -0.853558 -3.15249 0
M  V30 28518 H 2737.3 -2.82417 -2.33744 0
M  V30 28519 H 2736.95 -1.92823 -4.64573 0
M  V30 28520 H 2736.65 -3.68297 -4.57855 0
M  V30 28521 H 2738.17 -3.06789 -5.27933 0
M  V30 28522 H 2739.59 -4.51712 -3.53028 0
M  V30 28523 H 2737.98 -5.15825 -3.06667 0
M  V30 28524 H 2739.05 -4.49517 -1.8183 0
M  V30 28525 N 2740.4 0.725419 -1.39912 0
M  V30 28526 C 2741.63 1.51461 -1.40951 0
M  V30 28527 C 2742.04 1.88799 -0.00655738 0
M  V30 28528 O 2741.4 1.54767 0.967136 0
M  V30 28529 C 2741.45 2.79615 -2.29123 0
M  V30 28530 O 2741.17 2.43859 -3.63956 0
M  V30 28531 C 2742.67 3.7358 -2.38649 0
M  V30 28532 H 2739.89 0.467744 -0.4811 0
M  V30 28533 H 2742.43 0.895619 -1.83845 0
M  V30 28534 H 2740.59 3.37822 -1.89618 0
M  V30 28535 H 2741 3.26251 -4.10683 0
M  V30 28536 H 2742.48 4.6037 -3.04572 0
M  V30 28537 H 2742.95 4.16001 -1.40853 0
M  V30 28538 H 2743.56 3.21288 -2.78665 0
M  V30 28539 N 2741.88 1.25246 0.956615 0
M  V30 28540 C 2742.82 1.05457 2.05298 0
M  V30 28541 C 2743.79 -0.0356597 1.66062 0
M  V30 28542 O 2744.98 0.121133 1.90415 0
M  V30 28543 C 2742.12 0.67725 3.38389 0
M  V30 28544 C 2741.23 1.84213 3.90755 0
M  V30 28545 C 2740.37 1.40935 5.12163 0
M  V30 28546 C 2739.4 2.54348 5.56753 0
M  V30 28547 N 2738.54 2.1186 6.69373 0
M  V30 28548 H 2743.38 1.99288 2.21559 0
M  V30 28549 H 2740.92 0.992453 1.08576 0
M  V30 28550 H 2742.88 0.439452 4.14879 0
M  V30 28551 H 2741.51 -0.22407 3.22021 0
M  V30 28552 H 2740.56 2.19329 3.10804 0
M  V30 28553 H 2741.87 2.69391 4.19798 0
M  V30 28554 H 2741.02 1.13108 5.96063 0
M  V30 28555 H 2739.76 0.52826 4.84831 0
M  V30 28556 H 2738.77 2.82922 4.71418 0
M  V30 28557 H 2739.99 3.43032 5.86094 0
M  V30 28558 H 2737.94 1.26164 6.43753 0
M  V30 28559 H 2737.86 2.90587 6.97922 0
M  V30 28560 H 2739.12 1.87204 7.56687 0
M  V30 28561 N 2743.35 -1.15894 1.068 0
M  V30 28562 C 2744.28 -2.22612 0.704716 0
M  V30 28563 C 2745.26 -1.67339 -0.305222 0
M  V30 28564 O 2746.45 -1.93371 -0.179213 0
M  V30 28565 C 2743.58 -3.47168 0.0957935 0
M  V30 28566 C 2742.53 -4.15365 1.03227 0
M  V30 28567 C 2741.86 -5.33933 0.286386 0
M  V30 28568 C 2743.16 -4.65764 2.3635 0
M  V30 28569 H 2744.85 -2.53256 1.59693 0
M  V30 28570 H 2742.4 -1.2173 0.769278 0
M  V30 28571 H 2744.35 -4.21056 -0.170259 0
M  V30 28572 H 2743.08 -3.15839 -0.831461 0
M  V30 28573 H 2741.74 -3.43411 1.28315 0
M  V30 28574 H 2741.38 -4.98858 -0.644149 0
M  V30 28575 H 2741.08 -5.80502 0.910538 0
M  V30 28576 H 2742.61 -6.10594 0.0280011 0
M  V30 28577 H 2744.02 -5.31207 2.15619 0
M  V30 28578 H 2742.42 -5.22975 2.94308 0
M  V30 28579 H 2743.49 -3.817 2.99054 0
M  V30 28580 N 2744.83 -0.851312 -1.32629 0
M  V30 28581 C 2746.25 -0.540726 -1.50161 0
M  V30 28582 C 2746.45 0.929337 -1.78789 0
M  V30 28583 O 2745.5 1.71254 -1.85548 0
M  V30 28584 C 2746.82 -1.42483 -2.648 0
M  V30 28585 C 2748.36 -1.4249 -2.78685 0
M  V30 28586 C 2748.84 -2.29414 -3.964 0
M  V30 28587 N 2750.33 -2.27191 -4.03656 0
M  V30 28588 C 2751.07 -2.91179 -4.93966 0
M  V30 28589 N 2750.56 -3.64266 -5.89306 0
M  V30 28590 N 2752.35 -2.80584 -4.87062 0
M  V30 28591 H 2744.51 -1.80277 -1.12311 0
M  V30 28592 H 2746.77 -0.769816 -0.553252 0
M  V30 28593 H 2746.47 -2.47004 -2.50364 0
M  V30 28594 H 2746.35 -1.10981 -3.60504 0
M  V30 28595 H 2748.74 -0.387355 -2.92547 0
M  V30 28596 H 2748.82 -1.78006 -1.83705 0
M  V30 28597 H 2748.46 -3.33234 -3.83298 0
M  V30 28598 H 2748.39 -1.91233 -4.9065 0
M  V30 28599 H 2750.88 -1.74051 -3.35432 0
M  V30 28600 H 2751.19 -4.10266 -6.54906 0
M  V30 28601 H 2749.54 -3.68375 -5.89343 0
M  V30 28602 H 2752.73 -2.23038 -4.11548 0
M  V30 28603 H 2752.9 -3.30735 -5.57242 0
M  V30 28604 N 2746.31 1.45361 -0.608928 0
M  V30 28605 C 2747.22 2.34338 0.110928 0
M  V30 28606 C 2748.24 1.51319 0.858981 0
M  V30 28607 O 2749.41 1.84117 0.816264 0
M  V30 28608 C 2746.48 3.28958 1.09488 0
M  V30 28609 C 2745.54 4.27882 0.348643 0
M  V30 28610 C 2744.77 5.17981 1.28573 0
M  V30 28611 O 2744.99 5.11538 2.5236 0
M  V30 28612 O 2743.93 5.96798 0.782067 0
M  V30 28613 H 2747.75 2.97298 -0.62031 0
M  V30 28614 H 2745.34 1.44767 -0.369185 0
M  V30 28615 H 2747.22 3.8726 1.66156 0
M  V30 28616 H 2745.9 2.6856 1.80713 0
M  V30 28617 H 2744.8 3.73192 -0.260531 0
M  V30 28618 H 2746.14 4.91138 -0.323135 0
M  V30 28619 N 2747.79 0.348166 1.53706 0
M  V30 28620 C 2749.03 -0.247218 2.02899 0
M  V30 28621 C 2749.39 -1.47399 1.23035 0
M  V30 28622 O 2750.59 -2.14385 1.6215 0
M  V30 28623 C 2748.86 -0.549089 3.53157 0
M  V30 28624 S 2750.42 -1.12063 4.24249 0
M  V30 28625 H 2747.24 -0.073277 0.707214 0
M  V30 28626 H 2749.84 0.486998 1.89337 0
M  V30 28627 H 2748.55 0.351507 4.08892 0
M  V30 28628 H 2748.08 -1.31285 3.70848 0
M  V30 28629 H 2750.09 -2.40606 4.33962 0
M  V30 28630 N 2749.27 -1.57412 0.0768958 0
M  V30 28631 C 2750.2 -2.08628 -0.924648 0
M  V30 28632 C 2751.18 -0.992564 -1.2879 0
M  V30 28633 O 2752.36 -1.2663 -1.39632 0
M  V30 28634 C 2749.49 -2.54818 -2.23127 0
M  V30 28635 C 2748.53 -3.75673 -2.01921 0
M  V30 28636 S 2749.37 -5.20127 -1.27388 0
M  V30 28637 C 2750.52 -5.69653 -2.59319 0
M  V30 28638 H 2750.76 -2.93253 -0.488876 0
M  V30 28639 H 2748.29 -1.538 -0.135987 0
M  V30 28640 H 2750.25 -2.8209 -2.98221 0
M  V30 28641 H 2748.91 -1.70451 -2.63828 0
M  V30 28642 H 2748.1 -4.05999 -2.98632 0
M  V30 28643 H 2747.7 -3.488 -1.34961 0
M  V30 28644 H 2749.99 -5.76809 -3.55384 0
M  V30 28645 H 2750.94 -6.6846 -2.33596 0
M  V30 28646 H 2751.35 -4.97494 -2.66758 0
M  V30 28647 N 2750.74 0.196695 -1.56368 0
M  V30 28648 C 2752.02 0.943129 -1.71361 0
M  V30 28649 C 2752.4 2.01442 -0.631228 0
M  V30 28650 O 2751.75 2.25678 0.358032 0
M  V30 28651 C 2751.96 1.531 -3.13626 0
M  V30 28652 C 2753.31 2.01374 -3.7381 0
M  V30 28653 O 2754.33 1.62946 -3.16744 0
M  V30 28654 O 2753.19 2.72082 -4.73955 0
M  V30 28655 H 2750.28 0.442183 -0.698859 0
M  V30 28656 H 2752.83 0.186517 -1.68672 0
M  V30 28657 H 2751.6 0.758717 -3.83874 0
M  V30 28658 H 2751.23 2.35249 -3.20536 0
M  V30 28659 N 2752.22 1.50604 0.464349 0
M  V30 28660 C 2753.17 1.69959 1.56149 0
M  V30 28661 C 2754.14 0.540938 1.57045 0
M  V30 28662 O 2755.32 0.772289 1.74472 0
M  V30 28663 C 2752.46 1.80591 2.94076 0
M  V30 28664 C 2751.58 3.08002 3.02917 0
M  V30 28665 C 2750.71 3.09389 4.31801 0
M  V30 28666 C 2749.75 4.31225 4.34409 0
M  V30 28667 N 2748.89 4.30314 5.54774 0
M  V30 28668 H 2753.73 2.63623 1.3895 0
M  V30 28669 H 2751.27 1.30675 0.675459 0
M  V30 28670 H 2753.22 1.84737 3.7407 0
M  V30 28671 H 2751.85 0.903611 3.09895 0
M  V30 28672 H 2750.91 3.13295 2.15755 0
M  V30 28673 H 2752.22 3.97968 3.00705 0
M  V30 28674 H 2751.37 3.12301 5.20147 0
M  V30 28675 H 2750.11 2.17265 4.36632 0
M  V30 28676 H 2749.12 4.28518 3.44459 0
M  V30 28677 H 2750.34 5.24584 4.31264 0
M  V30 28678 H 2748.29 3.41047 5.60378 0
M  V30 28679 H 2748.2 5.14056 5.5433 0
M  V30 28680 H 2749.47 4.37381 6.45227 0
M  V30 28681 N 2753.7 -0.717989 1.40295 0
M  V30 28682 C 2754.93 -1.50493 1.41547 0
M  V30 28683 C 2755.34 -1.89196 0.012821 0
M  V30 28684 O 2754.68 -1.55814 -0.973023 0
M  V30 28685 C 2754.74 -2.81163 2.24026 0
M  V30 28686 C 2754.41 -2.64796 3.72468 0
M  V30 28687 C 2755.4 -2.32214 4.65159 0
M  V30 28688 C 2753.09 -2.81136 4.16255 0
M  V30 28689 C 2755.08 -2.16178 5.99621 0
M  V30 28690 C 2752.77 -2.64717 5.50788 0
M  V30 28691 C 2753.77 -2.32286 6.42287 0
M  V30 28692 O 2753.46 -2.1599 7.74341 0
M  V30 28693 H 2753.19 -0.471082 0.484827 0
M  V30 28694 H 2755.74 -0.893456 1.8495 0
M  V30 28695 H 2753.97 -3.44633 1.75399 0
M  V30 28696 H 2755.66 -3.42867 2.17249 0
M  V30 28697 H 2756.43 -2.19226 4.32626 0
M  V30 28698 H 2752.31 -3.05367 3.45358 0
M  V30 28699 H 2755.85 -1.90787 6.71004 0
M  V30 28700 H 2751.75 -2.77289 5.82907 0
M  V30 28701 H 2752.52 -2.30928 7.85248 0
M  V30 28702 N 2755.18 -1.25752 -0.94996 0
M  V30 28703 C 2756.43 -1.10558 -1.69178 0
M  V30 28704 C 2756.75 0.353265 -1.91773 0
M  V30 28705 O 2756.02 1.25025 -1.50816 0
M  V30 28706 H 2754.6 -0.40614 -0.626945 0
M  V30 28707 H 2757.26 -1.57947 -1.14188 0
M  V30 28708 H 2756.36 -1.61754 -2.66912 0
M  V30 28709 N 2756.66 1.15326 -1.07413 0
M  V30 28710 C 2757.59 2.22235 -0.716511 0
M  V30 28711 C 2758.57 1.67499 0.296344 0
M  V30 28712 O 2759.75 1.93464 0.168955 0
M  V30 28713 C 2756.88 3.47112 -0.114203 0
M  V30 28714 C 2755.84 4.14812 -1.05428 0
M  V30 28715 C 2755.16 5.33773 -0.314698 0
M  V30 28716 C 2756.46 4.64504 -2.38816 0
M  V30 28717 H 2758.16 2.52406 -1.61033 0
M  V30 28718 H 2755.7 1.2132 -0.775723 0
M  V30 28719 H 2757.66 4.2114 0.147927 0
M  V30 28720 H 2756.38 3.16276 0.814699 0
M  V30 28721 H 2755.04 3.42725 -1.30134 0
M  V30 28722 H 2754.69 4.99193 0.617685 0
M  V30 28723 H 2754.39 5.80011 -0.941311 0
M  V30 28724 H 2755.91 6.1057 -0.060382 0
M  V30 28725 H 2757.32 5.30056 -2.18433 0
M  V30 28726 H 2755.72 5.21407 -2.97078 0
M  V30 28727 H 2756.79 3.80109 -3.01074 0
M  V30 28728 N 2758.13 0.858334 1.32176 0
M  V30 28729 C 2759.08 0.294483 2.30728 0
M  V30 28730 C 2760.08 -0.584137 1.5901 0
M  V30 28731 O 2761.28 -0.471531 1.73714 0
M  V30 28732 H 2757.66 0.0765303 0.748096 0
M  V30 28733 H 2759.63 1.13985 2.75772 0
M  V30 28734 C 2758.38 -0.499147 3.44099 0
M  V30 28735 H 2757.7 0.167649 3.99448 0
M  V30 28736 H 2759.14 -0.8592 4.15203 0
M  V30 28737 C 2757.6 -1.68583 2.91687 0
M  V30 28738 O 2758.13 -2.78498 2.89486 0
M  V30 28739 N 2756.34 -1.51411 2.48039 0
M  V30 28740 H 2755.88 -0.619962 2.50028 0
M  V30 28741 H 2755.84 -2.30953 2.13326 0
M  V30 28742 N 2759.61 -1.45036 0.616628 0
M  V30 28743 C 2760.54 -2.33349 -0.0840377 0
M  V30 28744 C 2761.52 -1.47362 -0.849615 0
M  V30 28745 O 2762.71 -1.76114 -0.818376 0
M  V30 28746 C 2759.84 -3.30212 -1.07599 0
M  V30 28747 C 2758.79 -4.25904 -0.423021 0
M  V30 28748 C 2758.12 -5.12526 -1.52385 0
M  V30 28749 C 2759.42 -5.18093 0.661549 0
M  V30 28750 H 2761.11 -2.92184 0.653385 0
M  V30 28751 H 2758.66 -1.40498 0.315658 0
M  V30 28752 H 2760.61 -3.90869 -1.57479 0
M  V30 28753 H 2759.34 -2.69555 -1.84412 0
M  V30 28754 H 2757.99 -3.66559 0.0549944 0
M  V30 28755 H 2757.64 -4.48231 -2.28249 0
M  V30 28756 H 2757.34 -5.77356 -1.09241 0
M  V30 28757 H 2758.87 -5.76052 -2.02474 0
M  V30 28758 H 2760.28 -5.7277 0.246453 0
M  V30 28759 H 2758.68 -5.91449 1.01527 0
M  V30 28760 H 2759.75 -4.59978 1.53454 0
M  V30 28761 N 2761.09 -0.356312 -1.53519 0
M  V30 28762 C 2762.5 0.124887 -1.86282 0
M  V30 28763 C 2762.85 1.48937 -1.27719 0
M  V30 28764 O 2761.98 2.08041 -0.595651 0
M  V30 28765 C 2762.57 0.23339 -3.37995 0
M  V30 28766 C 2761.13 0.658834 -3.70589 0
M  V30 28767 C 2760.28 -0.199644 -2.7658 0
M  V30 28768 H 2763.23 -0.575449 -1.479 0
M  V30 28769 H 2763.25 1.05863 -3.65477 0
M  V30 28770 H 2762.76 -0.759842 -3.80589 0
M  V30 28771 H 2760.86 1.66063 -3.33547 0
M  V30 28772 H 2760.98 0.439873 -4.77076 0
M  V30 28773 H 2759.34 0.330031 -2.52553 0
M  V30 28774 H 2760.12 -1.19025 -3.22006 0
M  V30 28775 N 2762.57 1.57369 -0.0852427 0
M  V30 28776 C 2763.5 2.09115 0.913571 0
M  V30 28777 C 2764.48 0.999381 1.28262 0
M  V30 28778 O 2765.66 1.27369 1.38958 0
M  V30 28779 C 2762.79 2.55997 2.21772 0
M  V30 28780 C 2761.84 3.76739 1.99926 0
M  V30 28781 S 2762.67 5.20796 1.24628 0
M  V30 28782 C 2763.83 5.7102 2.56294 0
M  V30 28783 H 2764.06 2.93508 0.473317 0
M  V30 28784 H 2761.59 1.5387 0.127829 0
M  V30 28785 H 2763.55 2.83667 2.96721 0
M  V30 28786 H 2762.21 1.71848 2.6292 0
M  V30 28787 H 2761.4 4.07577 2.96475 0
M  V30 28788 H 2761.01 3.49511 1.3311 0
M  V30 28789 H 2763.3 5.78685 3.5232 0
M  V30 28790 H 2764.24 6.69689 2.30048 0
M  V30 28791 H 2764.65 4.98902 2.64116 0
M  V30 28792 N 2764.05 -0.188399 1.5647 0
M  V30 28793 C 2765.29 -0.909092 1.81283 0
M  V30 28794 C 2765.63 -1.82627 0.660372 0
M  V30 28795 O 2764.9 -1.91528 -0.338703 0
M  V30 28796 C 2765.18 -1.71955 3.16391 0
M  V30 28797 C 2765.04 -0.826637 4.42139 0
M  V30 28798 C 2766.36 -2.69077 3.48261 0
M  V30 28799 H 2763.47 -0.329057 0.659462 0
M  V30 28800 H 2766.12 -0.176122 1.89182 0
M  V30 28801 H 2764.27 -2.34443 3.09788 0
M  V30 28802 H 2765.94 -0.215944 4.60794 0
M  V30 28803 H 2764.18 -0.133716 4.33594 0
M  V30 28804 H 2764.85 -1.42884 5.33187 0
M  V30 28805 H 2767.33 -2.1672 3.55207 0
M  V30 28806 H 2766.2 -3.22862 4.43905 0
M  V30 28807 H 2766.47 -3.4845 2.72094 0
M  V30 28808 N 2765.53 -1.50848 -0.456355 0
M  V30 28809 C 2766.75 -1.66351 -1.23024 0
M  V30 28810 C 2767.17 -0.3529 -1.85473 0
M  V30 28811 O 2766.53 0.666709 -1.69886 0
M  V30 28812 C 2766.58 -2.76543 -2.32822 0
M  V30 28813 O 2766.3 -4.02525 -1.72931 0
M  V30 28814 C 2767.8 -3.0315 -3.23443 0
M  V30 28815 H 2765.02 -0.558763 -0.371517 0
M  V30 28816 H 2767.56 -1.97158 -0.543047 0
M  V30 28817 H 2765.72 -2.4839 -2.9729 0
M  V30 28818 H 2766.13 -4.63578 -2.45349 0
M  V30 28819 H 2767.61 -3.83879 -3.96662 0
M  V30 28820 H 2768.08 -2.148 -3.8309 0
M  V30 28821 H 2768.69 -3.32891 -2.64696 0
M  V30 28822 N 2767 0.710538 -1.40674 0
M  V30 28823 C 2767.95 1.81634 -1.37815 0
M  V30 28824 C 2768.94 1.58868 -0.254881 0
M  V30 28825 O 2770.13 1.69955 -0.494386 0
M  V30 28826 C 2767.26 3.19809 -1.24808 0
M  V30 28827 C 2766.34 3.48321 -2.41937 0
M  V30 28828 N 2766.74 3.47618 -3.67417 0
M  V30 28829 C 2765.03 3.78802 -2.35426 0
M  V30 28830 C 2765.73 3.74615 -4.45015 0
M  V30 28831 N 2764.71 3.93616 -3.74923 0
M  V30 28832 H 2768.51 1.79432 -2.32769 0
M  V30 28833 H 2766.03 0.909885 -1.34517 0
M  V30 28834 H 2768.02 3.99002 -1.20842 0
M  V30 28835 H 2766.68 3.23233 -0.308259 0
M  V30 28836 H 2767.69 3.28349 -4.00509 0
M  V30 28837 H 2764.37 3.89686 -1.49837 0
M  V30 28838 H 2765.76 3.80335 -5.53891 0
M  V30 28839 N 2768.48 1.26254 0.943277 0
M  V30 28840 C 2769.73 1.1184 1.69173 0
M  V30 28841 C 2770.06 -0.337858 1.91238 0
M  V30 28842 O 2769.34 -1.24833 1.49154 0
M  V30 28843 C 2769.62 1.88568 3.0678 0
M  V30 28844 C 2769.47 3.42088 2.92054 0
M  V30 28845 C 2770.79 1.67783 4.06862 0
M  V30 28846 H 2767.91 0.407669 0.613983 0
M  V30 28847 H 2770.55 1.55224 1.09569 0
M  V30 28848 H 2768.7 1.51695 3.5766 0
M  V30 28849 H 2770.37 3.88702 2.48412 0
M  V30 28850 H 2768.62 3.69221 2.27725 0
M  V30 28851 H 2769.29 3.91001 3.89644 0
M  V30 28852 H 2771.76 1.99904 3.64935 0
M  V30 28853 H 2770.64 2.23888 5.01164 0
M  V30 28854 H 2770.9 0.621893 4.37704 0
M  V30 28855 N 2769.96 -1.14755 1.08024 0
M  V30 28856 C 2770.91 -2.19714 0.706696 0
M  V30 28857 C 2771.88 -1.63272 -0.305221 0
M  V30 28858 O 2773.06 -1.8985 -0.190117 0
M  V30 28859 C 2770.2 -3.44898 0.117975 0
M  V30 28860 C 2769.31 -4.1551 1.1822 0
M  V30 28861 C 2768.45 -5.28264 0.557752 0
M  V30 28862 C 2767.49 -5.90702 1.60428 0
M  V30 28863 N 2766.63 -6.94914 1.00192 0
M  V30 28864 H 2771.47 -2.51016 1.60608 0
M  V30 28865 H 2769 -1.2327 0.802685 0
M  V30 28866 H 2770.96 -4.16503 -0.241039 0
M  V30 28867 H 2769.59 -3.14092 -0.744733 0
M  V30 28868 H 2768.64 -3.42333 1.65869 0
M  V30 28869 H 2769.95 -4.58016 1.97541 0
M  V30 28870 H 2769.11 -6.06522 0.146761 0
M  V30 28871 H 2767.85 -4.86968 -0.267163 0
M  V30 28872 H 2766.85 -5.1115 2.02498 0
M  V30 28873 H 2768.08 -6.34074 2.43161 0
M  V30 28874 H 2766.02 -6.55701 0.198032 0
M  V30 28875 H 2765.94 -7.35886 1.73229 0
M  V30 28876 H 2767.21 -7.77057 0.61666 0
M  V30 28877 N 2771.44 -0.865331 -1.31719 0
M  V30 28878 C 2772.71 -0.394823 -1.91574 0
M  V30 28879 C 2773.09 1.12268 -1.78771 0
M  V30 28880 O 2772.44 1.94916 -1.19248 0
M  V30 28881 C 2772.65 -0.871042 -3.37955 0
M  V30 28882 C 2774 -0.894457 -4.15072 0
M  V30 28883 O 2775.02 -0.816386 -3.46718 0
M  V30 28884 O 2773.88 -1.0066 -5.3715 0
M  V30 28885 H 2770.98 -0.117243 -0.818647 0
M  V30 28886 H 2773.52 -0.952938 -1.40418 0
M  V30 28887 H 2772.3 -1.9145 -3.41266 0
M  V30 28888 H 2771.92 -0.290977 -3.96534 0
M  V30 28889 N 2772.92 1.44707 -0.624311 0
M  V30 28890 C 2773.83 2.34442 0.0860671 0
M  V30 28891 C 2774.84 1.52222 0.842883 0
M  V30 28892 O 2776.02 1.84972 0.79669 0
M  V30 28893 C 2773.08 3.301 1.05993 0
M  V30 28894 C 2772.14 4.28228 0.303241 0
M  V30 28895 C 2771.38 5.19316 1.23072 0
M  V30 28896 O 2771.6 5.14186 2.4692 0
M  V30 28897 O 2770.53 5.97593 0.718725 0
M  V30 28898 H 2774.36 2.96623 -0.651808 0
M  V30 28899 H 2771.94 1.44367 -0.384519 0
M  V30 28900 H 2773.83 3.89 1.6204 0
M  V30 28901 H 2772.5 2.70462 1.77854 0
M  V30 28902 H 2771.41 3.72894 -0.300098 0
M  V30 28903 H 2772.74 4.90768 -0.375209 0
M  V30 28904 N 2774.39 0.364449 1.53328 0
M  V30 28905 C 2775.32 -0.474503 2.28628 0
M  V30 28906 C 2776.3 -1.0849 1.31011 0
M  V30 28907 O 2777.49 -1.10236 1.5988 0
M  V30 28908 C 2774.62 -1.61496 3.07468 0
M  V30 28909 C 2773.57 -1.13187 4.12762 0
M  V30 28910 C 2772.9 -2.36247 4.79678 0
M  V30 28911 C 2774.2 -0.217416 5.21847 0
M  V30 28912 H 2775.89 0.153708 2.99005 0
M  V30 28913 H 2773.44 0.0753659 1.43803 0
M  V30 28914 H 2775.39 -2.20849 3.58892 0
M  V30 28915 H 2774.12 -2.27038 2.34779 0
M  V30 28916 H 2772.78 -0.561026 3.62282 0
M  V30 28917 H 2772.42 -3.00243 4.03563 0
M  V30 28918 H 2772.12 -2.04596 5.50831 0
M  V30 28919 H 2773.65 -2.96288 5.33897 0
M  V30 28920 H 2775.06 -0.718393 5.68781 0
M  V30 28921 H 2773.46 0.00816956 6.00099 0
M  V30 28922 H 2774.53 0.740738 4.79209 0
M  V30 28923 N 2775.87 -1.57322 0.0935872 0
M  V30 28924 C 2777.29 -1.57417 -0.263063 0
M  V30 28925 C 2777.49 -1.10463 -1.68524 0
M  V30 28926 O 2776.54 -0.780399 -2.40137 0
M  V30 28927 C 2777.86 -3.00654 -0.0528673 0
M  V30 28928 C 2779.4 -3.12767 -0.120733 0
M  V30 28929 C 2779.88 -4.57959 0.0614512 0
M  V30 28930 N 2781.37 -4.632 0.00656676 0
M  V30 28931 C 2782.11 -5.73268 0.1228 0
M  V30 28932 N 2781.6 -6.92177 0.293782 0
M  V30 28933 N 2783.39 -5.62063 0.0641775 0
M  V30 28934 H 2775.55 -1.86152 1.0228 0
M  V30 28935 H 2777.81 -0.859146 0.400715 0
M  V30 28936 H 2777.51 -3.39199 0.929338 0
M  V30 28937 H 2777.39 -3.68709 -0.795835 0
M  V30 28938 H 2779.78 -2.74095 -1.09344 0
M  V30 28939 H 2779.86 -2.47306 0.6537 0
M  V30 28940 H 2779.5 -4.97325 1.03102 0
M  V30 28941 H 2779.43 -5.21478 -0.732656 0
M  V30 28942 H 2781.92 -3.77699 -0.123107 0
M  V30 28943 H 2782.23 -7.71894 0.374026 0
M  V30 28944 H 2780.58 -6.94219 0.329429 0
M  V30 28945 H 2783.77 -4.6805 -0.0682574 0
M  V30 28946 H 2783.94 -6.47807 0.158211 0
M  V30 28947 N 2777.35 0.180099 -1.56568 0
M  V30 28948 C 2778.57 0.918008 -1.85977 0
M  V30 28949 C 2779 1.7542 -0.678919 0
M  V30 28950 O 2778.36 1.7744 0.372137 0
M  V30 28951 C 2778.41 1.77773 -3.13734 0
M  V30 28952 O 2777.51 2.87833 -2.9534 0
M  V30 28953 H 2776.85 0.257672 -0.611965 0
M  V30 28954 H 2779.38 0.180888 -2.03799 0
M  V30 28955 H 2779.39 2.17941 -3.44914 0
M  V30 28956 H 2778.07 1.16345 -3.99295 0
M  V30 28957 H 2776.64 2.51311 -2.75494 0
M  V30 28958 N 2778.83 1.51088 0.448349 0
M  V30 28959 C 2780.07 1.63452 1.20046 0
M  V30 28960 C 2780.41 0.344478 1.9112 0
M  V30 28961 O 2779.68 -0.655364 1.83126 0
M  V30 28962 C 2779.96 2.83042 2.22619 0
M  V30 28963 C 2779.82 4.21992 1.55701 0
M  V30 28964 C 2781.14 2.98157 3.23713 0
M  V30 28965 H 2778.26 0.594878 0.435074 0
M  V30 28966 H 2780.9 1.83542 0.491151 0
M  V30 28967 H 2779.05 2.66044 2.83113 0
M  V30 28968 H 2780.72 4.50633 0.986288 0
M  V30 28969 H 2778.96 4.25199 0.859573 0
M  V30 28970 H 2779.63 5.01641 2.30348 0
M  V30 28971 H 2782.11 3.13793 2.73264 0
M  V30 28972 H 2780.99 3.83417 3.92788 0
M  V30 28973 H 2781.25 2.09749 3.89175 0
M  V30 28974 N 2780.31 -0.703068 1.41049 0
M  V30 28975 C 2781.22 -1.847 1.44648 0
M  V30 28976 C 2782.23 -1.70689 0.337808 0
M  V30 28977 O 2783.41 -1.92736 0.584361 0
M  V30 28978 C 2780.47 -3.20615 1.31934 0
M  V30 28979 C 2779.53 -3.46789 2.53053 0
M  V30 28980 C 2778.77 -4.7622 2.40936 0
M  V30 28981 O 2778.99 -5.52187 1.42988 0
M  V30 28982 O 2777.92 -5.0301 3.30552 0
M  V30 28983 H 2781.75 -1.84619 2.41142 0
M  V30 28984 H 2779.34 -0.855145 1.22506 0
M  V30 28985 H 2781.22 -4.01776 1.27099 0
M  V30 28986 H 2779.89 -3.21396 0.385525 0
M  V30 28987 H 2778.8 -2.65589 2.63464 0
M  V30 28988 H 2780.13 -3.50816 3.45237 0
M  V30 28989 N 2781.78 -1.26752 -0.936569 0
M  V30 28990 C 2782.73 -1.0871 -2.03595 0
M  V30 28991 C 2783.7 0.00923623 -1.66097 0
M  V30 28992 O 2784.89 -0.151411 -1.90198 0
M  V30 28993 C 2782.03 -0.730999 -3.37269 0
M  V30 28994 C 2781.14 -1.90406 -3.87775 0
M  V30 28995 C 2780.27 -1.49065 -5.09856 0
M  V30 28996 C 2779.31 -2.63173 -5.52636 0
M  V30 28997 N 2778.45 -2.22482 -6.65917 0
M  V30 28998 H 2783.29 -2.02788 -2.1836 0
M  V30 28999 H 2780.83 -1.0096 -1.06984 0
M  V30 29000 H 2782.79 -0.505401 -4.14127 0
M  V30 29001 H 2781.42 0.172811 -3.22337 0
M  V30 29002 H 2780.47 -2.24246 -3.07275 0
M  V30 29003 H 2781.78 -2.76035 -4.15459 0
M  V30 29004 H 2780.93 -1.22577 -5.94188 0
M  V30 29005 H 2779.67 -0.605326 -4.83929 0
M  V30 29006 H 2778.68 -2.90386 -4.66858 0
M  V30 29007 H 2779.9 -3.52313 -5.80562 0
M  V30 29008 H 2777.85 -1.3639 -6.41665 0
M  V30 29009 H 2777.77 -3.01653 -6.93211 0
M  V30 29010 H 2779.03 -1.99218 -7.53613 0
M  V30 29011 N 2783.26 1.1418 -1.08631 0
M  V30 29012 C 2784.51 1.85545 -0.818589 0
M  V30 29013 C 2784.84 1.82855 0.654044 0
M  V30 29014 O 2784.12 1.26086 1.48097 0
M  V30 29015 C 2784.4 3.34078 -1.34403 0
M  V30 29016 C 2784.25 3.45328 -2.88217 0
M  V30 29017 C 2785.57 4.29251 -0.971144 0
M  V30 29018 H 2782.69 0.673697 -0.298833 0
M  V30 29019 H 2785.33 1.34068 -1.34632 0
M  V30 29020 H 2783.48 3.78047 -0.89513 0
M  V30 29021 H 2785.15 3.10128 -3.41494 0
M  V30 29022 H 2783.4 2.86465 -3.25761 0
M  V30 29023 H 2784.07 4.49743 -3.20055 0
M  V30 29024 H 2786.54 3.9331 -1.35816 0
M  V30 29025 H 2785.42 5.31632 -1.36595 0
M  V30 29026 H 2785.68 4.41933 0.121581 0
M  V30 29027 N 2784.74 0.872304 1.31258 0
M  V30 29028 C 2785.67 0.28701 2.27396 0
M  V30 29029 C 2786.69 -0.551271 1.53182 0
M  V30 29030 O 2787.87 -0.372883 1.74562 0
M  V30 29031 C 2784.97 -0.611559 3.33336 0
M  V30 29032 C 2784.15 0.194806 4.36966 0
M  V30 29033 C 2783.21 -0.632266 5.22388 0
M  V30 29034 O 2782.23 -0.059469 5.69169 0
M  V30 29035 N 2783.43 -1.94382 5.46988 0
M  V30 29036 H 2786.2 1.11318 2.78259 0
M  V30 29037 H 2783.76 0.73402 1.44304 0
M  V30 29038 H 2785.75 -1.17061 3.874 0
M  V30 29039 H 2784.32 -1.33841 2.82499 0
M  V30 29040 H 2783.54 0.935308 3.82943 0
M  V30 29041 H 2784.83 0.748023 5.03271 0
M  V30 29042 H 2784.23 -2.43228 5.10741 0
M  V30 29043 H 2782.79 -2.4506 6.03977 0
M  V30 29044 N 2786.22 -1.44374 0.631976 0
M  V30 29045 C 2787.18 -2.29114 -0.0627739 0
M  V30 29046 C 2788.18 -1.41085 -0.771469 0
M  V30 29047 O 2789.37 -1.62948 -0.61593 0
M  V30 29048 C 2786.5 -3.22683 -1.09947 0
M  V30 29049 H 2787.7 -2.92029 0.682561 0
M  V30 29050 H 2785.25 -1.513 0.392154 0
M  V30 29051 H 2785.98 -2.64619 -1.87476 0
M  V30 29052 H 2785.77 -3.87556 -0.595218 0
M  V30 29053 H 2787.26 -3.86339 -1.58532 0
M  V30 29054 N 2787.7 -0.372575 -1.53133 0
M  V30 29055 C 2788.94 0.214499 -2.00958 0
M  V30 29056 C 2789.27 1.48709 -1.26138 0
M  V30 29057 O 2788.54 1.92245 -0.37663 0
M  V30 29058 H 2787.12 0.0822534 -0.742458 0
M  V30 29059 H 2789.78 -0.500418 -1.88366 0
M  V30 29060 H 2788.87 0.43655 -3.09032 0
M  V30 29061 N 2789.17 1.5727 -0.101929 0
M  V30 29062 C 2790.12 2.14397 0.854539 0
M  V30 29063 C 2791.09 1.06434 1.27519 0
M  V30 29064 O 2792.28 1.34256 1.35573 0
M  V30 29065 C 2789.42 2.73412 2.10571 0
M  V30 29066 C 2788.53 3.95629 1.73497 0
M  V30 29067 C 2787.66 4.42786 2.93452 0
M  V30 29068 C 2786.7 5.57576 2.52537 0
M  V30 29069 N 2785.84 5.99554 3.65349 0
M  V30 29070 H 2790.68 2.95811 0.360526 0
M  V30 29071 H 2788.22 1.46157 0.166277 0
M  V30 29072 H 2790.18 3.0575 2.83854 0
M  V30 29073 H 2788.81 1.94716 2.5746 0
M  V30 29074 H 2787.86 3.69562 0.901557 0
M  V30 29075 H 2789.17 4.7892 1.39417 0
M  V30 29076 H 2788.32 4.76943 3.7498 0
M  V30 29077 H 2787.06 3.5841 3.30747 0
M  V30 29078 H 2786.07 5.2304 1.69437 0
M  V30 29079 H 2787.29 6.43706 2.16379 0
M  V30 29080 H 2785.24 5.18123 4.02349 0
M  V30 29081 H 2785.16 6.77657 3.35136 0
M  V30 29082 H 2786.42 6.38344 4.47367 0
M  V30 29083 N 2790.65 -0.171793 1.56661 0
M  V30 29084 C 2791.88 -0.908132 1.86461 0
M  V30 29085 C 2792.3 -1.75058 0.688212 0
M  V30 29086 O 2791.66 -1.77635 -0.362722 0
M  V30 29087 C 2791.71 -1.76107 3.14672 0
M  V30 29088 O 2790.81 -2.86263 2.96863 0
M  V30 29089 H 2790.15 -0.254423 0.613323 0
M  V30 29090 H 2792.68 -0.170077 2.03892 0
M  V30 29091 H 2792.69 -2.16109 3.46065 0
M  V30 29092 H 2791.37 -1.14226 3.99907 0
M  V30 29093 H 2789.95 -2.49847 2.76823 0
M  V30 29094 N 2792.13 -1.51324 -0.44033 0
M  V30 29095 C 2793.55 -1.39433 -0.776576 0
M  V30 29096 C 2793.75 -0.474331 -1.95838 0
M  V30 29097 O 2792.8 0.0716248 -2.52398 0
M  V30 29098 C 2794.12 -2.81407 -1.05976 0
M  V30 29099 C 2795.66 -2.90536 -1.16437 0
M  V30 29100 C 2796.14 -4.33411 -1.4805 0
M  V30 29101 N 2797.63 -4.36503 -1.5498 0
M  V30 29102 C 2798.36 -5.44081 -1.81007 0
M  V30 29103 N 2797.86 -6.61823 -2.04847 0
M  V30 29104 N 2799.65 -5.31558 -1.82765 0
M  V30 29105 H 2791.8 -2.09693 0.338043 0
M  V30 29106 H 2794.07 -0.94383 0.0888238 0
M  V30 29107 H 2793.77 -3.50707 -0.264111 0
M  V30 29108 H 2793.65 -3.20549 -1.98816 0
M  V30 29109 H 2796.03 -2.21436 -1.95065 0
M  V30 29110 H 2796.12 -2.54894 -0.215044 0
M  V30 29111 H 2795.76 -5.0306 -0.699516 0
M  V30 29112 H 2795.69 -4.66564 -2.44184 0
M  V30 29113 H 2798.18 -3.51616 -1.38473 0
M  V30 29114 H 2798.49 -7.39604 -2.24067 0
M  V30 29115 H 2796.84 -6.64944 -2.02175 0
M  V30 29116 H 2800.03 -4.38559 -1.63658 0
M  V30 29117 H 2800.2 -6.15477 -2.02711 0
M  V30 29118 N 2793.61 0.695578 -1.41419 0
M  V30 29119 C 2794.54 1.82195 -1.46039 0
M  V30 29120 C 2795.52 1.67081 -0.319054 0
M  V30 29121 O 2796.7 1.86814 -0.530495 0
M  V30 29122 C 2793.83 3.20331 -1.34184 0
M  V30 29123 C 2792.79 3.50149 -2.46129 0
M  V30 29124 C 2792.11 4.87641 -2.1934 0
M  V30 29125 C 2793.41 3.49126 -3.88469 0
M  V30 29126 H 2795.11 1.78587 -2.40306 0
M  V30 29127 H 2792.65 0.857777 -1.15664 0
M  V30 29128 H 2794.61 3.98841 -1.36028 0
M  V30 29129 H 2793.33 3.24565 -0.364009 0
M  V30 29130 H 2791.99 2.7399 -2.43568 0
M  V30 29131 H 2791.64 4.88501 -1.199 0
M  V30 29132 H 2791.34 5.08557 -2.94353 0
M  V30 29133 H 2792.86 5.68461 -2.22899 0
M  V30 29134 H 2794.28 4.17641 -3.92745 0
M  V30 29135 H 2792.67 3.81574 -4.63164 0
M  V30 29136 H 2793.74 2.48102 -4.16622 0
M  V30 29137 N 2795.09 1.27247 0.929833 0
M  V30 29138 C 2796.34 1.12844 1.6718 0
M  V30 29139 C 2796.65 -0.325632 1.9287 0
M  V30 29140 O 2797.86 -0.590526 2.65 0
M  V30 29141 C 2796.31 1.97156 3.01094 0
M  V30 29142 C 2795.92 3.47208 2.83109 0
M  V30 29143 C 2797.66 1.91395 3.78904 0
M  V30 29144 C 2795.57 4.23726 4.12565 0
M  V30 29145 H 2794.5 0.418708 0.627056 0
M  V30 29146 H 2797.15 1.5165 1.03317 0
M  V30 29147 H 2795.53 1.51193 3.66001 0
M  V30 29148 H 2796.71 4.01019 2.26982 0
M  V30 29149 H 2795.02 3.54325 2.1873 0
M  V30 29150 H 2797.62 2.45842 4.74832 0
M  V30 29151 H 2797.96 0.887118 4.06738 0
M  V30 29152 H 2798.5 2.35242 3.20789 0
M  V30 29153 H 2795.23 5.26925 3.89911 0
M  V30 29154 H 2794.75 3.74693 4.68364 0
M  V30 29155 H 2796.43 4.32785 4.80943 0
M  V30 29156 N 2796.57 -1.13603 1.09235 0
M  V30 29157 C 2797.48 -2.22558 0.741978 0
M  V30 29158 C 2798.49 -1.72118 -0.255206 0
M  V30 29159 O 2799.67 -2.01166 -0.0970394 0
M  V30 29160 C 2796.73 -3.46304 0.165656 0
M  V30 29161 C 2795.79 -4.11643 1.21854 0
M  V30 29162 C 2795.03 -5.29483 0.669619 0
M  V30 29163 O 2795.25 -5.68132 -0.508128 0
M  V30 29164 O 2794.18 -5.8482 1.42371 0
M  V30 29165 H 2798.01 -2.54896 1.65111 0
M  V30 29166 H 2795.59 -1.21698 0.866605 0
M  V30 29167 H 2797.48 -4.21124 -0.152518 0
M  V30 29168 H 2796.15 -3.1567 -0.716518 0
M  V30 29169 H 2795.06 -3.38659 1.58937 0
M  V30 29170 H 2796.39 -4.46403 2.07328 0
M  V30 29171 N 2798.04 -0.879253 -1.30793 0
M  V30 29172 C 2799.01 -0.346716 -2.26562 0
M  V30 29173 C 2800.01 0.50757 -1.52579 0
M  V30 29174 O 2801.2 0.315545 -1.71318 0
M  V30 29175 C 2798.33 0.506552 -3.37116 0
M  V30 29176 H 2799.52 -1.19228 -2.75181 0
M  V30 29177 H 2797.07 -0.655623 -1.41885 0
M  V30 29178 H 2797.81 1.37294 -2.93804 0
M  V30 29179 H 2797.59 -0.105287 -3.91959 0
M  V30 29180 H 2799.08 0.87112 -4.08413 0
M  V30 29181 N 2799.52 1.44037 -0.639624 0
M  V30 29182 C 2800.75 2.06834 -0.153153 0
M  V30 29183 C 2801.17 1.47543 1.16673 0
M  V30 29184 O 2800.53 0.580123 1.71768 0
M  V30 29185 C 2800.58 3.60548 -0.0609802 0
M  V30 29186 O 2799.68 4.00571 0.98064 0
M  V30 29187 H 2799.02 0.658055 -0.0886518 0
M  V30 29188 H 2801.55 1.8477 -0.878706 0
M  V30 29189 H 2801.56 4.07803 0.12682 0
M  V30 29190 H 2800.24 4.03082 -1.02457 0
M  V30 29191 H 2798.81 3.64933 0.766725 0
M  V30 29192 N 2801 0.380691 1.52933 0
M  V30 29193 C 2802.22 -0.207121 2.06363 0
M  V30 29194 C 2802.65 -1.40447 1.25124 0
M  V30 29195 O 2802.01 -1.79216 0.274094 0
M  V30 29196 C 2802.06 -0.563933 3.56163 0
M  V30 29197 O 2801.16 -1.6591 3.77555 0
M  V30 29198 H 2800.5 -0.0265742 0.663468 0
M  V30 29199 H 2803.03 0.545669 1.97189 0
M  V30 29200 H 2803.04 -0.830682 3.99454 0
M  V30 29201 H 2801.72 0.3115 4.14732 0
M  V30 29202 H 2800.29 -1.38674 3.46156 0
M  V30 29203 N 2802.48 -1.57214 0.110268 0
M  V30 29204 C 2803.41 -2.17869 -0.839964 0
M  V30 29205 C 2804.39 -1.11626 -1.2835 0
M  V30 29206 O 2805.57 -1.39826 -1.34767 0
M  V30 29207 C 2802.7 -2.77114 -2.09344 0
M  V30 29208 C 2801.66 -3.88863 -1.788 0
M  V30 29209 C 2800.98 -4.34877 -3.11104 0
M  V30 29210 C 2802.28 -5.11366 -1.06311 0
M  V30 29211 H 2803.98 -2.97525 -0.334555 0
M  V30 29212 H 2801.52 -1.43114 -0.159477 0
M  V30 29213 H 2803.48 -3.18203 -2.76269 0
M  V30 29214 H 2802.2 -1.94735 -2.62194 0
M  V30 29215 H 2800.86 -3.48337 -1.14267 0
M  V30 29216 H 2800.51 -3.49368 -3.61871 0
M  V30 29217 H 2800.21 -5.10229 -2.91444 0
M  V30 29218 H 2801.73 -4.78611 -3.79162 0
M  V30 29219 H 2803.15 -5.49529 -1.63374 0
M  V30 29220 H 2801.54 -5.92245 -0.967772 0
M  V30 29221 H 2802.61 -4.84876 -0.0483717 0
M  V30 29222 N 2803.96 0.163482 -1.5675 0
M  V30 29223 C 2804.9 1.22155 -1.97941 0
M  V30 29224 C 2805.9 1.45394 -0.869314 0
M  V30 29225 O 2807.1 1.45881 -1.05445 0
M  V30 29226 H 2803.48 0.410804 -0.629876 0
M  V30 29227 H 2805.45 0.84733 -2.86117 0
M  V30 29228 C 2804.2 2.55147 -2.3621 0
M  V30 29229 H 2803.52 2.38091 -3.21174 0
M  V30 29230 H 2804.96 3.2785 -2.68869 0
M  V30 29231 C 2803.42 3.1448 -1.20847 0
M  V30 29232 O 2803.95 3.98572 -0.500328 0
M  V30 29233 N 2802.16 2.73685 -0.976991 0
M  V30 29234 H 2801.7 2.05402 -1.5546 0
M  V30 29235 H 2801.66 3.13718 -0.206967 0
M  V30 29236 N 2805.43 1.51555 0.432299 0
M  V30 29237 C 2806.71 1.55017 1.19285 0
M  V30 29238 C 2807.09 0.317412 2.087 0
M  V30 29239 O 2806.44 -0.697204 2.17604 0
M  V30 29240 C 2806.65 2.86683 1.99032 0
M  V30 29241 C 2808 3.38822 2.55901 0
M  V30 29242 O 2809.02 2.88267 2.09238 0
M  V30 29243 O 2807.88 4.27044 3.41021 0
M  V30 29244 H 2804.97 0.623451 0.543358 0
M  V30 29245 H 2807.52 1.63871 0.440959 0
M  V30 29246 H 2806.29 3.67862 1.3339 0
M  V30 29247 H 2805.91 2.81015 2.81276 0
M  V30 29248 N 2806.91 -0.688069 1.41786 0
M  V30 29249 C 2808.14 -1.48172 1.4512 0
M  V30 29250 C 2808.56 -1.88004 0.0601621 0
M  V30 29251 O 2807.92 -1.55128 -0.938357 0
M  V30 29252 C 2807.97 -2.71579 2.37229 0
M  V30 29253 O 2807.07 -3.69351 1.8345 0
M  V30 29254 H 2806.41 -0.445667 0.492216 0
M  V30 29255 H 2808.94 -0.845112 1.8633 0
M  V30 29256 H 2808.95 -3.19802 2.53359 0
M  V30 29257 H 2807.63 -2.41926 3.38297 0
M  V30 29258 H 2806.2 -3.28319 1.76808 0
M  V30 29259 N 2808.39 -1.27739 -0.923072 0
M  V30 29260 C 2809.64 -1.14517 -1.67373 0
M  V30 29261 C 2809.97 0.307391 -1.91752 0
M  V30 29262 O 2809.24 1.22444 -1.51121 0
M  V30 29263 C 2809.53 -1.93425 -3.03741 0
M  V30 29264 C 2809.38 -3.46691 -2.86575 0
M  V30 29265 C 2810.7 -1.74235 -4.04141 0
M  V30 29266 H 2807.82 -0.417385 -0.60742 0
M  V30 29267 H 2810.46 -1.56948 -1.07086 0
M  V30 29268 H 2808.61 -1.57366 -3.55201 0
M  V30 29269 H 2810.28 -3.92605 -2.42196 0
M  V30 29270 H 2808.52 -3.72797 -2.21822 0
M  V30 29271 H 2809.2 -3.9715 -3.83374 0
M  V30 29272 H 2811.67 -2.05684 -3.61709 0
M  V30 29273 H 2810.55 -2.31833 -4.97539 0
M  V30 29274 H 2810.81 -0.691449 -4.36659 0
M  V30 29275 N 2809.87 1.13022 -1.09836 0
M  V30 29276 C 2810.83 2.16751 -0.745096 0
M  V30 29277 C 2811.83 1.59184 0.227407 0
M  V30 29278 O 2813.02 1.74199 0.00504798 0
M  V30 29279 C 2810.15 3.40746 -0.102603 0
M  V30 29280 H 2811.35 2.49515 -1.66379 0
M  V30 29281 H 2808.9 1.27922 -0.898083 0
M  V30 29282 H 2809.63 3.13575 0.827122 0
M  V30 29283 H 2809.42 3.83802 -0.802418 0
M  V30 29284 H 2810.91 4.17401 0.129009 0
M  V30 29285 N 2811.35 0.886177 1.30325 0
M  V30 29286 C 2812.28 0.298446 2.2624 0
M  V30 29287 C 2813.26 -0.581677 1.5184 0
M  V30 29288 O 2814.44 -0.531504 1.80852 0
M  V30 29289 C 2811.57 -0.575829 3.33769 0
M  V30 29290 C 2810.61 0.235132 4.25851 0
M  V30 29291 S 2811.45 1.6242 5.10275 0
M  V30 29292 C 2812.6 0.756477 6.21312 0
M  V30 29293 H 2812.84 1.11146 2.75742 0
M  V30 29294 H 2810.37 0.685675 1.3834 0
M  V30 29295 H 2812.33 -1.07451 3.96188 0
M  V30 29296 H 2810.99 -1.36295 2.82989 0
M  V30 29297 H 2810.18 -0.43211 5.02144 0
M  V30 29298 H 2809.78 0.666474 3.68014 0
M  V30 29299 H 2812.08 -0.026026 6.77495 0
M  V30 29300 H 2813.02 1.49105 6.92223 0
M  V30 29301 H 2813.43 0.316848 5.6361 0
M  V30 29302 N 2812.82 -1.43695 0.647253 0
M  V30 29303 C 2814.24 -1.56475 0.314283 0
M  V30 29304 C 2814.44 -1.63198 -1.18189 0
M  V30 29305 O 2813.5 -1.58379 -1.96652 0
M  V30 29306 C 2814.81 -2.82858 1.02039 0
M  V30 29307 C 2816.36 -2.96593 1.00007 0
M  V30 29308 C 2816.83 -4.258 1.68696 0
M  V30 29309 N 2818.32 -4.32651 1.65432 0
M  V30 29310 C 2819.06 -5.3138 2.1546 0
M  V30 29311 N 2818.55 -6.36422 2.7375 0
M  V30 29312 N 2820.35 -5.22994 2.05994 0
M  V30 29313 H 2812.5 -1.37575 1.61824 0
M  V30 29314 H 2814.76 -0.660332 0.680195 0
M  V30 29315 H 2814.47 -2.83931 2.07547 0
M  V30 29316 H 2814.34 -3.72896 0.568211 0
M  V30 29317 H 2816.73 -2.95063 -0.0465801 0
M  V30 29318 H 2816.81 -2.0786 1.4909 0
M  V30 29319 H 2816.45 -4.2809 2.73315 0
M  V30 29320 H 2816.38 -5.13419 1.17085 0
M  V30 29321 H 2818.87 -3.5736 1.2289 0
M  V30 29322 H 2819.19 -7.08067 3.09614 0
M  V30 29323 H 2817.53 -6.37062 2.77808 0
M  V30 29324 H 2820.72 -4.39846 1.60165 0
M  V30 29325 H 2820.9 -5.9978 2.45292 0
M  V30 29326 N 2814.3 -0.388796 -1.52729 0
M  V30 29327 C 2815.23 0.481665 -2.24082 0
M  V30 29328 C 2816.25 1.02713 -1.26309 0
M  V30 29329 O 2817.44 0.929538 -1.52387 0
M  V30 29330 C 2814.54 1.68019 -2.94318 0
M  V30 29331 C 2813.71 1.26219 -4.18793 0
M  V30 29332 C 2812.77 2.32534 -4.72032 0
M  V30 29333 O 2811.79 1.93963 -5.35133 0
M  V30 29334 N 2813 3.6444 -4.51845 0
M  V30 29335 H 2815.76 -0.129643 -2.99419 0
M  V30 29336 H 2813.32 -0.215128 -1.60464 0
M  V30 29337 H 2815.31 2.38665 -3.26835 0
M  V30 29338 H 2813.88 2.19785 -2.22291 0
M  V30 29339 H 2813.1 0.384634 -3.92319 0
M  V30 29340 H 2814.39 0.959559 -4.9967 0
M  V30 29341 H 2813.79 3.9854 -4.01475 0
M  V30 29342 H 2812.35 4.31123 -4.88852 0
M  V30 29343 N 2815.78 1.57153 -0.118604 0
M  V30 29344 C 2817.01 1.99532 0.547225 0
M  V30 29345 C 2817.42 0.998275 1.6025 0
M  V30 29346 O 2816.78 -0.00889898 1.82498 0
M  V30 29347 C 2816.83 3.41915 1.17372 0
M  V30 29348 O 2816.55 4.37805 0.160626 0
M  V30 29349 C 2818.05 3.99424 1.9229 0
M  V30 29350 H 2815.27 0.655166 0.144908 0
M  V30 29351 H 2817.82 2.03472 -0.204826 0
M  V30 29352 H 2815.97 3.38916 1.87655 0
M  V30 29353 H 2816.39 5.20873 0.615769 0
M  V30 29354 H 2817.86 5.01132 2.31453 0
M  V30 29355 H 2818.34 3.38543 2.79795 0
M  V30 29356 H 2818.94 4.05967 1.2677 0
M  V30 29357 N 2817.26 -0.155167 1.56834 0
M  V30 29358 C 2818.51 -0.869147 1.82899 0
M  V30 29359 C 2818.83 -1.81535 0.698226 0
M  V30 29360 O 2818.09 -1.93175 -0.31337 0
M  V30 29361 C 2818.39 -1.68396 3.15242 0
M  V30 29362 C 2818.05 -0.885263 4.42124 0
M  V30 29363 C 2816.72 -0.664887 4.76584 0
M  V30 29364 C 2819.07 -0.326142 5.20179 0
M  V30 29365 C 2816.4 0.125449 5.86566 0
M  V30 29366 C 2818.75 0.451191 6.30989 0
M  V30 29367 C 2817.41 0.682219 6.64005 0
M  V30 29368 H 2816.68 -0.318043 0.669275 0
M  V30 29369 H 2819.33 -0.133207 1.91036 0
M  V30 29370 H 2817.63 -2.48977 3.02519 0
M  V30 29371 H 2819.33 -2.23972 3.32622 0
M  V30 29372 H 2815.92 -1.06708 4.15104 0
M  V30 29373 H 2820.1 -0.4837 4.93937 0
M  V30 29374 H 2815.36 0.314022 6.10593 0
M  V30 29375 H 2819.53 0.891611 6.90669 0
M  V30 29376 H 2817.16 1.29649 7.49063 0
M  V30 29377 N 2818.74 -1.51782 -0.424256 0
M  V30 29378 C 2819.98 -1.64771 -1.17025 0
M  V30 29379 C 2820.31 -0.372557 -1.91408 0
M  V30 29380 O 2819.58 0.612076 -1.86093 0
M  V30 29381 H 2818.16 -0.607289 -0.434981 0
M  V30 29382 H 2820.82 -1.88766 -0.485135 0
M  V30 29383 H 2819.91 -2.48163 -1.89266 0
M  V30 29384 N 2820.21 0.68054 -1.42149 0
M  V30 29385 C 2821.16 1.8155 -1.45404 0
M  V30 29386 C 2822.16 1.66147 -0.330389 0
M  V30 29387 O 2823.36 1.72825 -0.503134 0
M  V30 29388 H 2819.74 0.598522 -0.455275 0
M  V30 29389 H 2821.71 1.75922 -2.41027 0
M  V30 29390 C 2820.46 3.19669 -1.36774 0
M  V30 29391 H 2819.78 3.32145 -2.2253 0
M  V30 29392 H 2821.22 3.99117 -1.43113 0
M  V30 29393 C 2819.68 3.36801 -0.0818344 0
M  V30 29394 O 2820.21 3.92218 0.867638 0
M  V30 29395 N 2818.42 2.906 -0.000850892 0
M  V30 29396 H 2817.96 2.45688 -0.774275 0
M  V30 29397 H 2817.92 3.0244 0.858908 0
M  V30 29398 N 2821.69 1.28226 0.916285 0
M  V30 29399 C 2822.62 1.14468 2.03518 0
M  V30 29400 C 2823.6 0.0431143 1.70045 0
M  V30 29401 O 2824.79 0.219653 1.92954 0
M  V30 29402 C 2821.92 0.803087 3.37887 0
M  V30 29403 C 2820.87 1.85914 3.85512 0
M  V30 29404 C 2820.2 1.37125 5.16818 0
M  V30 29405 C 2821.5 3.26526 4.07649 0
M  V30 29406 H 2823.19 2.08068 2.15286 0
M  V30 29407 H 2820.74 1.00176 1.03444 0
M  V30 29408 H 2822.69 0.693611 4.15653 0
M  V30 29409 H 2821.42 -0.168617 3.26164 0
M  V30 29410 H 2820.07 1.95772 3.0995 0
M  V30 29411 H 2819.72 0.388678 5.01496 0
M  V30 29412 H 2819.42 2.07738 5.49653 0
M  V30 29413 H 2820.95 1.27494 5.97141 0
M  V30 29414 H 2822.36 3.19604 4.75948 0
M  V30 29415 H 2820.76 3.94951 4.51811 0
M  V30 29416 H 2821.83 3.70732 3.12547 0
M  V30 29417 N 2823.17 -1.12438 1.10433 0
M  V30 29418 C 2824.4 -1.87498 0.867645 0
M  V30 29419 C 2824.81 -1.79914 -0.585443 0
M  V30 29420 O 2824.15 -1.17102 -1.41537 0
M  V30 29421 C 2824.21 -3.37531 1.23746 0
M  V30 29422 C 2823.88 -3.6889 2.69758 0
M  V30 29423 C 2824.87 -3.67254 3.67995 0
M  V30 29424 C 2822.56 -3.98224 3.06142 0
M  V30 29425 C 2824.55 -3.94512 5.00639 0
M  V30 29426 C 2822.24 -4.25141 4.38974 0
M  V30 29427 C 2823.24 -4.23271 5.36032 0
M  V30 29428 O 2822.93 -4.49521 6.66473 0
M  V30 29429 H 2822.66 -0.600106 0.311206 0
M  V30 29430 H 2825.21 -1.43191 1.4726 0
M  V30 29431 H 2823.44 -3.82392 0.575604 0
M  V30 29432 H 2825.13 -3.93935 0.978256 0
M  V30 29433 H 2825.9 -3.44655 3.4123 0
M  V30 29434 H 2821.78 -3.98821 2.31221 0
M  V30 29435 H 2825.32 -3.92968 5.76387 0
M  V30 29436 H 2821.22 -4.47215 4.65478 0
M  V30 29437 H 2821.99 -4.6714 6.72103 0
M  V30 29438 N 2824.65 -0.893076 -1.29853 0
M  V30 29439 C 2826.07 -0.588225 -1.48365 0
M  V30 29440 C 2826.27 0.871986 -1.81655 0
M  V30 29441 O 2825.32 1.65265 -1.90903 0
M  V30 29442 C 2826.63 -1.50835 -2.60133 0
M  V30 29443 C 2828.18 -1.51284 -2.74011 0
M  V30 29444 C 2828.66 -2.41909 -3.88901 0
M  V30 29445 N 2830.15 -2.39918 -3.96224 0
M  V30 29446 C 2830.88 -3.06747 -4.84452 0
M  V30 29447 N 2830.38 -3.8283 -5.77419 0
M  V30 29448 N 2832.17 -2.95938 -4.77888 0
M  V30 29449 H 2824.32 -1.83759 -1.06519 0
M  V30 29450 H 2826.59 -0.787027 -0.528481 0
M  V30 29451 H 2826.29 -2.54844 -2.42379 0
M  V30 29452 H 2826.17 -1.22394 -3.56791 0
M  V30 29453 H 2828.55 -0.48023 -2.91166 0
M  V30 29454 H 2828.63 -1.8376 -1.77949 0
M  V30 29455 H 2828.28 -3.4526 -3.72502 0
M  V30 29456 H 2828.21 -2.06746 -4.84318 0
M  V30 29457 H 2830.7 -1.84634 -3.29725 0
M  V30 29458 H 2831.01 -4.30894 -6.41522 0
M  V30 29459 H 2829.36 -3.86938 -5.77325 0
M  V30 29460 H 2832.55 -2.36019 -4.04244 0
M  V30 29461 H 2832.72 -3.48296 -5.46438 0
M  V30 29462 N 2826.13 1.4335 -0.654865 0
M  V30 29463 C 2827.36 2.06144 -0.176721 0
M  V30 29464 C 2827.77 1.49095 1.15828 0
M  V30 29465 O 2827.13 0.622898 1.71541 0
M  V30 29466 C 2827.18 3.61408 -0.0813961 0
M  V30 29467 O 2826.9 4.16337 -1.36363 0
M  V30 29468 C 2828.4 4.41281 0.422628 0
M  V30 29469 H 2825.62 0.664848 -0.0906546 0
M  V30 29470 H 2828.16 1.83827 -0.895977 0
M  V30 29471 H 2826.32 3.82905 0.588428 0
M  V30 29472 H 2826.73 5.1002 -1.2239 0
M  V30 29473 H 2828.21 5.50257 0.438278 0
M  V30 29474 H 2828.68 4.14425 1.45424 0
M  V30 29475 H 2829.29 4.24757 -0.214762 0
M  V30 29476 N 2827.61 0.39689 1.52521 0
M  V30 29477 C 2828.85 -0.182862 2.01673 0
M  V30 29478 C 2829.18 -1.46179 1.28305 0
M  V30 29479 O 2828.44 -1.9209 0.374152 0
M  V30 29480 C 2828.73 -0.489614 3.5403 0
M  V30 29481 C 2828.4 0.698659 4.45454 0
M  V30 29482 C 2827.06 1.02463 4.70165 0
M  V30 29483 C 2829.41 1.49325 4.99351 0
M  V30 29484 C 2826.74 2.1466 5.4602 0
M  V30 29485 C 2829.09 2.60589 5.76434 0
M  V30 29486 C 2827.76 2.93685 5.99421 0
M  V30 29487 H 2827.03 -0.0669141 0.737973 0
M  V30 29488 H 2829.68 0.535796 1.83852 0
M  V30 29489 H 2827.98 -1.28969 3.69965 0
M  V30 29490 H 2829.68 -0.95095 3.89561 0
M  V30 29491 H 2826.27 0.4346 4.26391 0
M  V30 29492 H 2830.45 1.25465 4.80179 0
M  V30 29493 H 2825.71 2.40664 5.62042 0
M  V30 29494 H 2829.88 3.22555 6.17196 0
M  V30 29495 H 2827.51 3.80742 6.57981 0
M  V30 29496 N 2829.08 -1.57088 0.126936 0
M  V30 29497 C 2830.03 -2.12292 -0.83164 0
M  V30 29498 C 2831.02 -1.04566 -1.2229 0
M  V30 29499 O 2832.21 -1.30784 -1.19266 0
M  V30 29500 C 2829.34 -2.73219 -2.07861 0
M  V30 29501 C 2828.42 -3.88038 -1.71136 0
M  V30 29502 N 2828.82 -4.94754 -1.05127 0
M  V30 29503 C 2827.11 -3.9837 -2.00542 0
M  V30 29504 C 2827.81 -5.75049 -0.877156 0
M  V30 29505 N 2826.79 -5.25138 -1.40468 0
M  V30 29506 H 2830.59 -2.92176 -0.317874 0
M  V30 29507 H 2828.11 -1.62225 -0.0752767 0
M  V30 29508 H 2830.1 -3.11116 -2.77511 0
M  V30 29509 H 2828.76 -1.94801 -2.59774 0
M  V30 29510 H 2829.77 -5.1295 -0.71433 0
M  V30 29511 H 2826.45 -3.31004 -2.54446 0
M  V30 29512 H 2827.84 -6.70943 -0.358418 0
M  V30 29513 N 2830.56 0.146848 -1.56914 0
M  V30 29514 C 2831.49 1.20642 -1.9488 0
M  V30 29515 C 2832.51 1.39174 -0.844658 0
M  V30 29516 O 2833.7 1.38742 -1.12307 0
M  V30 29517 C 2830.8 2.57123 -2.20774 0
M  V30 29518 C 2829.97 2.59566 -3.52057 0
M  V30 29519 C 2829.03 3.77587 -3.66489 0
M  V30 29520 O 2828.05 3.62454 -4.3888 0
M  V30 29521 N 2829.26 4.95047 -3.03164 0
M  V30 29522 H 2832.02 0.883707 -2.86375 0
M  V30 29523 H 2829.58 0.336409 -1.58366 0
M  V30 29524 H 2831.57 3.34587 -2.2767 0
M  V30 29525 H 2830.14 2.81686 -1.35543 0
M  V30 29526 H 2829.36 1.68017 -3.56601 0
M  V30 29527 H 2830.65 2.5823 -4.384 0
M  V30 29528 H 2830.05 5.10245 -2.44267 0
M  V30 29529 H 2828.61 5.70286 -3.15621 0
M  V30 29530 N 2832.04 1.52005 0.4162 0
M  V30 29531 C 2832.99 1.75443 1.52717 0
M  V30 29532 C 2833.98 0.621316 1.57594 0
M  V30 29533 O 2835.19 0.8032 1.61086 0
M  V30 29534 H 2831.56 0.554691 0.507762 0
M  V30 29535 H 2833.53 2.6853 1.30131 0
M  V30 29536 C 2832.28 1.91576 2.90162 0
M  V30 29537 H 2831.61 2.78183 2.87149 0
M  V30 29538 H 2833.05 2.11978 3.67207 0
M  V30 29539 C 2831.5 0.681 3.29945 0
M  V30 29540 O 2832.03 -0.154457 4.01403 0
M  V30 29541 N 2830.24 0.518944 2.85929 0
M  V30 29542 H 2829.79 1.1999 2.27948 0
M  V30 29543 H 2829.75 -0.30593 3.12908 0
M  V30 29544 N 2833.52 -0.672992 1.42508 0
M  V30 29545 C 2834.93 -1.25365 1.38349 0
M  V30 29546 C 2835.28 -1.96046 0.0776672 0
M  V30 29547 O 2834.4 -2.00117 -0.823536 0
M  V30 29548 C 2835 -2.27998 2.50604 0
M  V30 29549 C 2833.56 -2.81586 2.49772 0
M  V30 29550 C 2832.71 -1.55934 2.29303 0
M  V30 29551 H 2835.66 -0.466261 1.51696 0
M  V30 29552 H 2835.68 -3.0977 2.20959 0
M  V30 29553 H 2835.19 -1.76526 3.4563 0
M  V30 29554 H 2833.29 -3.37175 1.58569 0
M  V30 29555 H 2833.4 -3.30479 3.46873 0
M  V30 29556 H 2831.77 -1.82569 1.77597 0
M  V30 29557 H 2832.55 -1.06425 3.26387 0
M  V30 29558 N 2835 -1.2871 -0.909472 0
M  V30 29559 C 2836.24 -1.15885 -1.65575 0
M  V30 29560 C 2836.56 0.292075 -1.928 0
M  V30 29561 O 2835.83 1.20163 -1.54718 0
M  V30 29562 H 2834.41 -0.42588 -0.613706 0
M  V30 29563 H 2837.08 -1.615 -1.09105 0
M  V30 29564 H 2836.17 -1.70163 -2.61631 0
M  V30 29565 N 2836.47 1.1185 -1.11028 0
M  V30 29566 C 2837.72 1.83767 -0.857762 0
M  V30 29567 C 2838.05 1.84201 0.61511 0
M  V30 29568 O 2837.33 1.29199 1.45389 0
M  V30 29569 C 2837.61 3.31152 -1.41459 0
M  V30 29570 C 2837.46 3.39137 -2.95477 0
M  V30 29571 C 2838.78 4.27095 -1.06198 0
M  V30 29572 H 2835.9 0.667207 -0.313056 0
M  V30 29573 H 2838.54 1.31182 -1.37445 0
M  V30 29574 H 2836.69 3.76063 -0.975118 0
M  V30 29575 H 2838.37 3.02815 -3.47995 0
M  V30 29576 H 2836.61 2.79491 -3.31764 0
M  V30 29577 H 2837.28 4.42853 -3.29523 0
M  V30 29578 H 2839.76 3.90341 -1.44128 0
M  V30 29579 H 2838.63 5.28615 -1.47841 0
M  V30 29580 H 2838.89 4.42091 0.0278135 0
M  V30 29581 N 2837.95 0.89995 1.29378 0
M  V30 29582 C 2838.88 0.322425 2.25911 0
M  V30 29583 C 2839.86 -0.56554 1.52448 0
M  V30 29584 O 2841.05 -0.512292 1.81405 0
M  V30 29585 C 2838.17 -0.540396 3.34361 0
M  V30 29586 C 2837.22 0.280286 4.25578 0
M  V30 29587 S 2838.05 1.67823 5.08523 0
M  V30 29588 C 2839.21 0.822333 6.20474 0
M  V30 29589 H 2839.44 1.14065 2.74548 0
M  V30 29590 H 2836.97 0.700309 1.37605 0
M  V30 29591 H 2838.93 -1.03243 3.97305 0
M  V30 29592 H 2837.59 -1.33286 2.84418 0
M  V30 29593 H 2836.79 -0.378827 5.02574 0
M  V30 29594 H 2836.39 0.705469 3.67286 0
M  V30 29595 H 2838.68 0.0458329 6.77484 0
M  V30 29596 H 2839.62 1.56439 6.90603 0
M  V30 29597 H 2840.03 0.376609 5.63242 0
M  V30 29598 N 2839.43 -1.43001 0.662458 0
M  V30 29599 C 2840.66 -2.06047 0.187651 0
M  V30 29600 C 2841.07 -1.49707 -1.15036 0
M  V30 29601 O 2840.43 -0.631986 -1.71208 0
M  V30 29602 C 2840.48 -3.6136 0.100561 0
M  V30 29603 O 2840.2 -4.15608 1.38569 0
M  V30 29604 C 2841.7 -4.41499 -0.39922 0
M  V30 29605 H 2838.92 -0.664358 0.0941792 0
M  V30 29606 H 2841.47 -1.8335 0.905714 0
M  V30 29607 H 2839.62 -3.83212 -0.568114 0
M  V30 29608 H 2840.04 -5.09364 1.25093 0
M  V30 29609 H 2841.51 -5.50482 -0.409091 0
M  V30 29610 H 2841.99 -4.15191 -1.43225 0
M  V30 29611 H 2842.59 -4.24638 0.237285 0
M  V30 29612 N 2840.91 -0.404973 -1.52308 0
M  V30 29613 C 2842.16 0.171824 -2.01368 0
M  V30 29614 C 2842.48 1.46 -1.29264 0
M  V30 29615 O 2841.75 1.91403 -0.417324 0
M  V30 29616 H 2840.33 0.0664863 -0.744035 0
M  V30 29617 H 2842.99 -0.540261 -1.87262 0
M  V30 29618 H 2842.09 0.370902 -3.09888 0
M  V30 29619 N 2842.39 1.57018 -0.135265 0
M  V30 29620 C 2843.61 2.00532 0.529308 0
M  V30 29621 C 2844.04 1.01462 1.58389 0
M  V30 29622 O 2843.39 -0.0113668 1.81296 0
M  V30 29623 C 2843.44 3.4285 1.11742 0
M  V30 29624 O 2842.55 3.46739 2.23261 0
M  V30 29625 H 2841.89 0.651018 0.130658 0
M  V30 29626 H 2844.42 2.0332 -0.228539 0
M  V30 29627 H 2844.43 3.81403 1.44898 0
M  V30 29628 H 2843.1 4.14466 0.345074 0
M  V30 29629 H 2841.68 3.20019 1.91422 0
M  V30 29630 N 2843.86 -0.138524 1.5699 0
M  V30 29631 C 2844.83 -1.15474 1.97986 0
M  V30 29632 C 2845.83 -1.35396 0.86744 0
M  V30 29633 O 2847.02 -1.32244 1.13389 0
M  V30 29634 C 2844.15 -2.51333 2.30314 0
M  V30 29635 H 2845.34 -0.802845 2.88954 0
M  V30 29636 H 2842.9 -0.382162 1.51556 0
M  V30 29637 H 2843.63 -2.91479 1.42164 0
M  V30 29638 H 2843.42 -2.38232 3.11429 0
M  V30 29639 H 2844.91 -3.24508 2.62839 0
M  V30 29640 N 2845.34 -1.52224 -0.408133 0
M  V30 29641 C 2846.59 -1.66578 -1.15671 0
M  V30 29642 C 2846.92 -0.395029 -1.9014 0
M  V30 29643 O 2846.2 0.606581 -1.84799 0
M  V30 29644 C 2846.48 -2.88845 -2.15037 0
M  V30 29645 C 2846.33 -4.25972 -1.44457 0
M  V30 29646 C 2847.65 -3.06635 -3.15694 0
M  V30 29647 H 2844.77 -0.606204 -0.419149 0
M  V30 29648 H 2847.41 -1.8478 -0.442315 0
M  V30 29649 H 2845.56 -2.73457 -2.75959 0
M  V30 29650 H 2847.23 -4.53089 -0.866464 0
M  V30 29651 H 2845.48 -4.27328 -0.746537 0
M  V30 29652 H 2846.15 -5.07572 -2.16967 0
M  V30 29653 H 2848.62 -3.20928 -2.64848 0
M  V30 29654 H 2847.5 -3.93697 -3.82484 0
M  V30 29655 H 2847.76 -2.19994 -3.83478 0
M  V30 29656 N 2846.82 0.665425 -1.42863 0
M  V30 29657 C 2848.07 1.42262 -1.43548 0
M  V30 29658 C 2848.39 1.94919 -0.0563459 0
M  V30 29659 O 2847.66 1.73663 0.906537 0
M  V30 29660 H 2846.24 0.527944 -0.528473 0
M  V30 29661 H 2848.9 0.785633 -1.78364 0
M  V30 29662 H 2848 2.27101 -2.14083 0
M  V30 29663 N 2848.3 1.29191 0.902633 0
M  V30 29664 C 2849.54 1.18257 1.66718 0
M  V30 29665 C 2849.9 -0.262302 1.902 0
M  V30 29666 O 2851.1 -0.494565 2.64211 0
M  V30 29667 C 2849.37 1.97045 2.98175 0
M  V30 29668 S 2850.93 2.02611 3.89222 0
M  V30 29669 H 2847.75 0.421724 0.572425 0
M  V30 29670 H 2850.35 1.63438 1.07276 0
M  V30 29671 H 2849.06 3.01167 2.78794 0
M  V30 29672 H 2848.59 1.52456 3.62658 0
M  V30 29673 H 2850.6 1.14067 4.82911 0
M  V30 29674 N 2849.78 -1.1126 1.1162 0
M  V30 29675 C 2850.72 -2.19439 0.77133 0
M  V30 29676 C 2851.72 -1.67719 -0.238043 0
M  V30 29677 O 2852.92 -1.79738 -0.0971312 0
M  V30 29678 H 2849.3 -0.715461 0.23156 0
M  V30 29679 H 2851.27 -2.45772 1.6923 0
M  V30 29680 C 2850.02 -3.4692 0.232826 0
M  V30 29681 H 2849.34 -3.87072 1.00078 0
M  V30 29682 H 2850.78 -4.2399 0.0297306 0
M  V30 29683 C 2849.24 -3.20533 -1.03732 0
M  V30 29684 O 2849.77 -3.41408 -2.11669 0
M  V30 29685 N 2847.98 -2.74255 -0.960857 0
M  V30 29686 H 2847.52 -2.57468 -0.0823871 0
M  V30 29687 H 2847.48 -2.56977 -1.81136 0
M  V30 29688 N 2851.25 -0.906798 -1.28899 0
M  V30 29689 C 2852.67 -0.583871 -1.77335 0
M  V30 29690 C 2853.02 0.900667 -1.74306 0
M  V30 29691 O 2852.14 1.7044 -1.33338 0
M  V30 29692 C 2852.74 -1.0531 -3.22017 0
M  V30 29693 C 2851.3 -0.781213 -3.68204 0
M  V30 29694 C 2850.44 -1.22378 -2.48835 0
M  V30 29695 H 2853.39 -1.08879 -1.1546 0
M  V30 29696 H 2853.41 -0.391481 -3.78481 0
M  V30 29697 H 2852.93 -2.13359 -3.24191 0
M  V30 29698 H 2851.03 0.286365 -3.71498 0
M  V30 29699 H 2851.14 -1.38408 -4.58672 0
M  V30 29700 H 2849.5 -0.642637 -2.46459 0
M  V30 29701 H 2850.29 -2.31247 -2.53732 0
M  V30 29702 N 2852.73 1.42648 -0.670032 0
M  V30 29703 C 2854.01 1.95235 -0.119485 0
M  V30 29704 C 2854.39 1.61066 1.36458 0
M  V30 29705 O 2853.74 0.904366 2.09842 0
M  V30 29706 C 2853.95 3.46886 -0.383559 0
M  V30 29707 C 2855.3 4.23556 -0.297505 0
M  V30 29708 O 2856.32 3.54786 -0.317042 0
M  V30 29709 O 2855.18 5.45992 -0.235603 0
M  V30 29710 H 2852.27 0.827 -0.000103084 0
M  V30 29711 H 2854.82 1.525 -0.744433 0
M  V30 29712 H 2853.59 3.64943 -1.41181 0
M  V30 29713 H 2853.21 3.96657 0.273632 0
M  V30 29714 N 2854.21 0.413044 1.52091 0
M  V30 29715 C 2855.44 -0.160845 2.06274 0
M  V30 29716 C 2855.85 -1.38531 1.28275 0
M  V30 29717 O 2855.21 -1.79387 0.335662 0
M  V30 29718 C 2855.26 -0.50738 3.57922 0
M  V30 29719 O 2854.98 0.668464 4.3297 0
M  V30 29720 C 2856.48 -1.13458 4.28535 0
M  V30 29721 H 2853.7 -0.0186642 0.67074 0
M  V30 29722 H 2856.25 0.585127 1.9595 0
M  V30 29723 H 2854.4 -1.20325 3.6824 0
M  V30 29724 H 2854.82 0.378261 5.23134 0
M  V30 29725 H 2856.29 -1.32723 5.35807 0
M  V30 29726 H 2856.77 -2.10879 3.85262 0
M  V30 29727 H 2857.37 -0.478802 4.22596 0
M  V30 29728 N 2855.69 -1.56945 0.143591 0
M  V30 29729 C 2856.94 -1.96015 -0.508372 0
M  V30 29730 C 2857.26 -1.02826 -1.65097 0
M  V30 29731 O 2856.52 -0.0568108 -1.95618 0
M  V30 29732 C 2856.82 -3.41357 -1.05879 0
M  V30 29733 C 2856.48 -4.50886 -0.0350017 0
M  V30 29734 C 2855.15 -4.80569 0.246446 0
M  V30 29735 C 2857.5 -5.16987 0.661373 0
M  V30 29736 C 2854.83 -5.73659 1.23013 0
M  V30 29737 C 2857.18 -6.11137 1.63385 0
M  V30 29738 C 2855.84 -6.39199 1.92304 0
M  V30 29739 H 2855.11 -0.717269 -0.186027 0
M  V30 29740 H 2857.76 -1.90117 0.2297 0
M  V30 29741 H 2856.06 -3.44069 -1.87413 0
M  V30 29742 H 2857.76 -3.68913 -1.57177 0
M  V30 29743 H 2854.35 -4.27783 -0.264547 0
M  V30 29744 H 2858.54 -4.9419 0.457125 0
M  V30 29745 H 2853.79 -5.93696 1.46066 0
M  V30 29746 H 2857.97 -6.61433 2.17899 0
M  V30 29747 H 2855.59 -7.11137 2.68679 0
M  V30 29748 N 2857.17 0.130197 -1.57061 0
M  V30 29749 C 2858.41 0.836263 -1.85414 0
M  V30 29750 C 2858.77 1.78019 -0.729863 0
M  V30 29751 O 2858.06 1.89674 0.270988 0
M  V30 29752 C 2858.26 1.63359 -3.17881 0
M  V30 29753 C 2858.08 0.768375 -4.43087 0
M  V30 29754 C 2856.85 0.42751 -5.03488 0
M  V30 29755 C 2859.05 0.0910591 -5.14219 0
M  V30 29756 N 2857.03 -0.449547 -6.12252 0
M  V30 29757 C 2858.41 -0.645449 -6.16631 0
M  V30 29758 C 2860.46 0.013475 -4.97898 0
M  V30 29759 C 2859.16 -1.45224 -7.04487 0
M  V30 29760 C 2861.19 -0.780104 -5.86232 0
M  V30 29761 C 2860.55 -1.50484 -6.88138 0
M  V30 29762 H 2856.65 0.283298 -0.72888 0
M  V30 29763 H 2859.23 0.100627 -1.9444 0
M  V30 29764 H 2857.41 2.34035 -3.09971 0
M  V30 29765 H 2859.14 2.28413 -3.3408 0
M  V30 29766 H 2855.89 0.767182 -4.67345 0
M  V30 29767 H 2856.32 -0.879594 -6.71262 0
M  V30 29768 H 2860.96 0.559437 -4.19082 0
M  V30 29769 H 2858.68 -2.0094 -7.82719 0
M  V30 29770 H 2862.26 -0.842347 -5.7567 0
M  V30 29771 H 2861.14 -2.10904 -7.55307 0
M  V30 29772 N 2858.65 1.52438 0.400055 0
M  V30 29773 C 2859.87 1.71098 1.17218 0
M  V30 29774 C 2860.3 0.423597 1.83268 0
M  V30 29775 O 2859.65 -0.619721 1.70379 0
M  V30 29776 C 2859.7 2.8539 2.2042 0
M  V30 29777 O 2858.81 2.51592 3.26765 0
M  V30 29778 H 2858.15 0.569297 0.341756 0
M  V30 29779 H 2860.68 1.99182 0.467737 0
M  V30 29780 H 2860.69 3.10566 2.646 0
M  V30 29781 H 2859.36 3.78789 1.7173 0
M  V30 29782 H 2857.94 2.37119 2.878 0
M  V30 29783 N 2860.12 -0.657839 1.43214 0
M  V30 29784 C 2861.07 -1.77089 1.48014 0
M  V30 29785 C 2862.04 -1.62782 0.33032 0
M  V30 29786 O 2863.23 -1.83093 0.536819 0
M  V30 29787 C 2860.37 -3.15219 1.40467 0
M  V30 29788 C 2859.48 -3.40692 2.65618 0
M  V30 29789 C 2858.61 -4.68645 2.50091 0
M  V30 29790 C 2857.65 -4.87208 3.70533 0
M  V30 29791 N 2856.79 -6.06414 3.53846 0
M  V30 29792 H 2861.63 -1.72321 2.43124 0
M  V30 29793 H 2859.17 -0.840992 1.20689 0
M  V30 29794 H 2861.12 -3.95066 1.34086 0
M  V30 29795 H 2859.75 -3.19068 0.489415 0
M  V30 29796 H 2858.81 -2.54977 2.82296 0
M  V30 29797 H 2860.12 -3.50297 3.55097 0
M  V30 29798 H 2859.27 -5.5661 2.41393 0
M  V30 29799 H 2858.01 -4.61353 1.58129 0
M  V30 29800 H 2857.02 -3.9768 3.79646 0
M  V30 29801 H 2858.24 -4.96333 4.63498 0
M  V30 29802 H 2856.19 -6.00263 2.64614 0
M  V30 29803 H 2856.1 -6.16956 4.36923 0
M  V30 29804 H 2857.37 -6.97012 3.4899 0
M  V30 29805 N 2861.6 -1.29668 -0.895769 0
M  V30 29806 C 2862.85 -1.17237 -1.64129 0
M  V30 29807 C 2863.16 0.274382 -1.93666 0
M  V30 29808 O 2864.37 0.520058 -2.66473 0
M  V30 29809 C 2862.83 -2.0507 -2.95761 0
M  V30 29810 C 2862.43 -3.54592 -2.73804 0
M  V30 29811 C 2864.18 -2.01374 -3.73696 0
M  V30 29812 C 2862.08 -4.34515 -4.01186 0
M  V30 29813 H 2861.01 -0.435186 -0.615735 0
M  V30 29814 H 2863.67 -1.54336 -0.992599 0
M  V30 29815 H 2862.05 -1.60843 -3.61864 0
M  V30 29816 H 2863.22 -4.06896 -2.1627 0
M  V30 29817 H 2861.54 -3.6 -2.09259 0
M  V30 29818 H 2864.13 -2.58345 -4.68147 0
M  V30 29819 H 2864.48 -0.994646 -4.04243 0
M  V30 29820 H 2865.01 -2.43665 -3.1444 0
M  V30 29821 H 2861.75 -5.37077 -3.75803 0
M  V30 29822 H 2861.27 -3.86979 -4.58266 0
M  V30 29823 H 2862.95 -4.45385 -4.69299 0
M  V30 29824 N 2863.08 1.10667 -1.12208 0
M  V30 29825 C 2864.49 1.64084 -0.890685 0
M  V30 29826 C 2864.84 1.87571 0.575469 0
M  V30 29827 O 2863.97 1.61589 1.43937 0
M  V30 29828 C 2864.56 2.98083 -1.61035 0
M  V30 29829 C 2863.12 3.48376 -1.42516 0
M  V30 29830 C 2862.27 2.2303 -1.64782 0
M  V30 29831 H 2865.22 0.941987 -1.2772 0
M  V30 29832 H 2865.24 3.65437 -1.06 0
M  V30 29833 H 2864.75 2.80957 -2.6774 0
M  V30 29834 H 2862.85 3.70651 -0.380562 0
M  V30 29835 H 2862.97 4.26647 -2.17966 0
M  V30 29836 H 2861.33 2.31053 -1.07175 0
M  V30 29837 H 2862.11 2.08438 -2.72779 0
M  V30 29838 N 2864.56 0.913621 1.28416 0
M  V30 29839 C 2865.8 0.547518 1.95269 0
M  V30 29840 C 2866.14 -0.906456 1.71747 0
M  V30 29841 O 2865.41 -1.64463 1.03837 0
M  V30 29842 C 2865.69 0.857267 3.49747 0
M  V30 29843 C 2865.55 2.36396 3.82671 0
M  V30 29844 C 2866.87 0.353335 4.38679 0
M  V30 29845 H 2863.99 0.200394 0.709233 0
M  V30 29846 H 2866.63 1.14284 1.51786 0
M  V30 29847 H 2864.78 0.350616 3.86915 0
M  V30 29848 H 2866.45 2.94122 3.55373 0
M  V30 29849 H 2864.69 2.819 3.29719 0
M  V30 29850 H 2865.36 2.53124 4.90543 0
M  V30 29851 H 2867.84 0.78736 4.08583 0
M  V30 29852 H 2866.72 0.599144 5.4562 0
M  V30 29853 H 2866.98 -0.746336 4.35755 0
M  V30 29854 N 2866.04 -1.4229 0.677588 0
M  V30 29855 C 2866.97 -2.28147 -0.0492237 0
M  V30 29856 C 2867.95 -1.41223 -0.805911 0
M  V30 29857 O 2869.13 -1.7066 -0.80046 0
M  V30 29858 C 2866.26 -3.21123 -1.07691 0
M  V30 29859 C 2865.3 -4.24471 -0.415485 0
M  V30 29860 S 2866.14 -5.29045 0.828969 0
M  V30 29861 C 2867.29 -6.25588 -0.197577 0
M  V30 29862 H 2867.53 -2.89442 0.679016 0
M  V30 29863 H 2865.06 -1.47161 0.467227 0
M  V30 29864 H 2867.02 -3.75228 -1.66475 0
M  V30 29865 H 2865.68 -2.58959 -1.77762 0
M  V30 29866 H 2864.87 -4.89725 -1.19103 0
M  V30 29867 H 2864.47 -3.73869 0.0988289 0
M  V30 29868 H 2866.76 -6.69213 -1.05645 0
M  V30 29869 H 2867.71 -7.0685 0.420561 0
M  V30 29870 H 2868.12 -5.6187 -0.544302 0
M  V30 29871 N 2867.51 -0.421104 -1.5187 0
M  V30 29872 C 2868.44 0.389322 -2.30231 0
M  V30 29873 C 2869.42 1.03553 -1.34948 0
M  V30 29874 O 2870.61 1.04226 -1.63861 0
M  V30 29875 C 2867.74 1.49973 -3.1325 0
M  V30 29876 C 2866.69 0.977893 -4.16679 0
M  V30 29877 C 2866.02 2.18281 -4.88116 0
M  V30 29878 C 2867.32 0.0235857 -5.22295 0
M  V30 29879 H 2869.01 -0.264576 -2.98229 0
M  V30 29880 H 2866.56 -0.128685 -1.43424 0
M  V30 29881 H 2868.51 2.07377 -3.66842 0
M  V30 29882 H 2867.24 2.18168 -2.43044 0
M  V30 29883 H 2865.9 0.426181 -3.64114 0
M  V30 29884 H 2865.54 2.85059 -4.14428 0
M  V30 29885 H 2865.24 1.84011 -5.58044 0
M  V30 29886 H 2866.77 2.76269 -5.44525 0
M  V30 29887 H 2868.18 0.506798 -5.71056 0
M  V30 29888 H 2866.58 -0.230887 -5.99656 0
M  V30 29889 H 2867.65 -0.918083 -4.76129 0
M  V30 29890 N 2868.99 1.56866 -0.151912 0
M  V30 29891 C 2870.27 1.87903 0.543295 0
M  V30 29892 C 2870.65 1.05868 1.82634 0
M  V30 29893 O 2870 0.146908 2.28027 0
M  V30 29894 C 2870.21 3.39613 0.803997 0
M  V30 29895 C 2871.56 4.08937 1.1426 0
M  V30 29896 O 2872.58 3.4482 0.893187 0
M  V30 29897 O 2871.44 5.22179 1.6122 0
M  V30 29898 H 2868.53 0.778977 0.277711 0
M  V30 29899 H 2871.08 1.68645 -0.188892 0
M  V30 29900 H 2869.85 3.91162 -0.103841 0
M  V30 29901 H 2869.47 3.64416 1.59019 0
M  V30 29902 N 2870.47 -0.121866 1.57128 0
M  V30 29903 C 2871.72 -0.828516 1.84337 0
M  V30 29904 C 2872.04 -1.8055 0.736663 0
M  V30 29905 O 2871.31 -1.94429 -0.239585 0
M  V30 29906 H 2869.89 -0.308958 0.680113 0
M  V30 29907 H 2872.55 -0.109871 1.9459 0
M  V30 29908 H 2871.65 -1.37549 2.80155 0
M  V30 29909 N 2871.95 -1.52648 -0.391965 0
M  V30 29910 C 2872.86 -1.80133 -1.50297 0
M  V30 29911 C 2873.87 -0.68791 -1.59824 0
M  V30 29912 O 2875.05 -0.97518 -1.76216 0
M  V30 29913 C 2872.12 -1.96176 -2.8586 0
M  V30 29914 C 2871.18 -3.2009 -2.86078 0
M  V30 29915 C 2870.41 -3.35358 -4.15175 0
M  V30 29916 O 2870.63 -2.555 -5.09977 0
M  V30 29917 O 2869.57 -4.28598 -4.22596 0
M  V30 29918 H 2873.39 -2.74469 -1.30002 0
M  V30 29919 H 2870.98 -1.37703 -0.579515 0
M  V30 29920 H 2872.86 -2.08452 -3.66232 0
M  V30 29921 H 2871.53 -1.0503 -3.06187 0
M  V30 29922 H 2870.44 -3.13259 -2.04498 0
M  V30 29923 H 2871.77 -4.11073 -2.70703 0
M  V30 29924 N 2873.43 0.650235 -1.43561 0
M  V30 29925 C 2874.36 1.77457 -1.51761 0
M  V30 29926 C 2875.34 1.65981 -0.372048 0
M  V30 29927 O 2876.52 1.85031 -0.58966 0
M  V30 29928 C 2873.65 3.159 -1.44307 0
M  V30 29929 C 2872.61 3.42142 -2.57144 0
M  V30 29930 C 2871.93 4.80416 -2.34743 0
M  V30 29931 C 2873.23 3.36591 -3.99379 0
M  V30 29932 H 2874.93 1.70851 -2.45866 0
M  V30 29933 H 2872.47 0.820545 -1.18335 0
M  V30 29934 H 2874.43 3.94312 -1.48648 0
M  V30 29935 H 2873.15 3.23243 -0.467083 0
M  V30 29936 H 2871.81 2.66102 -2.52161 0
M  V30 29937 H 2871.46 4.84439 -1.3538 0
M  V30 29938 H 2871.16 4.98935 -3.10384 0
M  V30 29939 H 2872.68 5.61082 -2.40872 0
M  V30 29940 H 2874.09 4.04935 -4.05833 0
M  V30 29941 H 2872.49 3.66646 -4.7507 0
M  V30 29942 H 2873.56 2.34721 -4.24304 0
M  V30 29943 N 2874.9 1.30141 0.88888 0
M  V30 29944 C 2876.15 1.18739 1.64035 0
M  V30 29945 C 2876.48 -0.258767 1.92771 0
M  V30 29946 O 2875.73 -1.20209 1.54429 0
M  V30 29947 C 2876.03 1.95733 2.99037 0
M  V30 29948 C 2875.7 3.4538 2.89868 0
M  V30 29949 C 2874.36 3.86188 2.87075 0
M  V30 29950 C 2876.71 4.40692 2.78281 0
M  V30 29951 C 2874.04 5.20607 2.70527 0
M  V30 29952 C 2876.39 5.75214 2.63272 0
M  V30 29953 C 2875.06 6.15266 2.58851 0
M  V30 29954 H 2874.33 0.434495 0.600246 0
M  V30 29955 H 2876.97 1.612 1.03377 0
M  V30 29956 H 2875.28 1.45895 3.63623 0
M  V30 29957 H 2876.98 1.84306 3.56135 0
M  V30 29958 H 2873.57 3.12948 2.9285 0
M  V30 29959 H 2877.75 4.10108 2.79508 0
M  V30 29960 H 2873.01 5.50737 2.65516 0
M  V30 29961 H 2877.18 6.48709 2.53279 0
M  V30 29962 H 2874.81 7.1937 2.45787 0
M  V30 29963 N 2876.38 -1.1007 1.12794 0
M  V30 29964 C 2877.35 -2.14699 0.802302 0
M  V30 29965 C 2878.35 -1.59731 -0.185122 0
M  V30 29966 O 2879.54 -1.74151 0.0411397 0
M  V30 29967 C 2876.67 -3.40354 0.192909 0
M  V30 29968 H 2877.86 -2.45016 1.72936 0
M  V30 29969 H 2875.41 -1.25496 0.931684 0
M  V30 29970 H 2876.15 -3.15658 -0.743693 0
M  V30 29971 H 2875.93 -3.81539 0.903894 0
M  V30 29972 H 2877.42 -4.17596 -0.018297 0
M  V30 29973 N 2877.86 -0.920419 -1.2793 0
M  V30 29974 C 2879.11 -0.557041 -1.94688 0
M  V30 29975 C 2879.44 0.900446 -1.72401 0
M  V30 29976 O 2878.69 1.65655 -1.04197 0
M  V30 29977 C 2878.99 -0.820619 -3.47851 0
M  V30 29978 C 2878.66 -2.2587 -3.90248 0
M  V30 29979 C 2877.32 -2.65186 -4.01534 0
M  V30 29980 C 2879.67 -3.19423 -4.11848 0
M  V30 29981 C 2877 -3.97194 -4.31803 0
M  V30 29982 C 2879.35 -4.51003 -4.43598 0
M  V30 29983 C 2878.01 -4.90163 -4.53096 0
M  V30 29984 H 2877.28 -0.203836 -0.712413 0
M  V30 29985 H 2879.93 -1.16301 -1.5214 0
M  V30 29986 H 2878.24 -0.131913 -3.91578 0
M  V30 29987 H 2879.93 -0.51854 -3.97633 0
M  V30 29988 H 2876.52 -1.94365 -3.81995 0
M  V30 29989 H 2880.71 -2.90253 -4.02575 0
M  V30 29990 H 2875.96 -4.27227 -4.37364 0
M  V30 29991 H 2880.14 -5.23502 -4.59259 0
M  V30 29992 H 2877.76 -5.92484 -4.76305 0
M  V30 29993 N 2879.34 1.41929 -0.685124 0
M  V30 29994 C 2880.62 1.95097 -0.140186 0
M  V30 29995 C 2881 1.62505 1.34742 0
M  V30 29996 O 2880.34 0.926571 2.08871 0
M  V30 29997 C 2880.55 3.4646 -0.420329 0
M  V30 29998 C 2881.9 4.23217 -0.342412 0
M  V30 29999 O 2882.93 3.5443 -0.354654 0
M  V30 30000 O 2881.78 5.45711 -0.2935 0
M  V30 30001 H 2878.88 0.826952 -0.00887452 0
M  V30 30002 H 2881.42 1.51702 -0.760566 0
M  V30 30003 H 2880.2 3.63425 -1.45043 0
M  V30 30004 H 2879.82 3.96925 0.231546 0
M  V30 30005 N 2880.82 0.429152 1.51644 0
M  V30 30006 C 2882.05 -0.138756 2.06134 0
M  V30 30007 C 2882.45 -1.37713 1.29737 0
M  V30 30008 O 2881.8 -1.80374 0.347987 0
M  V30 30009 C 2881.86 -0.534431 3.55505 0
M  V30 30010 C 2881.52 0.595996 4.53097 0
M  V30 30011 C 2882.52 1.46567 4.98813 0
M  V30 30012 C 2880.21 0.774397 4.96295 0
M  V30 30013 C 2882.2 2.49851 5.8639 0
M  V30 30014 C 2879.89 1.81052 5.83664 0
M  V30 30015 C 2880.88 2.67097 6.28608 0
M  V30 30016 O 2880.57 3.68932 7.14244 0
M  V30 30017 H 2880.3 -0.0150144 0.675833 0
M  V30 30018 H 2882.86 0.604619 1.963 0
M  V30 30019 H 2881.09 -1.33039 3.63094 0
M  V30 30020 H 2882.78 -1.03255 3.92547 0
M  V30 30021 H 2883.54 1.33933 4.6614 0
M  V30 30022 H 2879.42 0.114259 4.60858 0
M  V30 30023 H 2882.97 3.17045 6.21392 0
M  V30 30024 H 2878.86 1.93708 6.15749 0
M  V30 30025 H 2879.63 3.65415 7.32403 0
M  V30 30026 N 2882.29 -1.56783 0.160229 0
M  V30 30027 C 2883.52 -2.00913 -0.49413 0
M  V30 30028 C 2883.94 -1.04041 -1.57546 0
M  V30 30029 O 2883.29 -0.0394902 -1.82457 0
M  V30 30030 C 2883.35 -3.44907 -1.08265 0
M  V30 30031 O 2883.07 -4.38077 -0.0444934 0
M  V30 30032 C 2884.57 -4.04382 -1.81633 0
M  V30 30033 H 2881.79 -0.658778 -0.127486 0
M  V30 30034 H 2884.33 -2.02857 0.258701 0
M  V30 30035 H 2882.49 -3.43773 -1.78603 0
M  V30 30036 H 2882.9 -5.22322 -0.477452 0
M  V30 30037 H 2884.37 -5.07093 -2.18085 0
M  V30 30038 H 2884.85 -3.45842 -2.70721 0
M  V30 30039 H 2885.46 -4.09186 -1.15962 0
M  V30 30040 N 2883.77 0.113531 -1.57191 0
M  V30 30041 C 2885.02 0.818729 -1.84773 0
M  V30 30042 C 2885.34 1.80157 -0.746228 0
M  V30 30043 O 2884.61 1.94554 0.229271 0
M  V30 30044 H 2883.19 0.305347 -0.681742 0
M  V30 30045 H 2885.85 0.0995502 -1.94646 0
M  V30 30046 H 2884.95 1.36062 -2.8088 0
M  V30 30047 N 2885.25 1.52854 0.383864 0
M  V30 30048 C 2886.48 1.71782 1.1478 0
M  V30 30049 C 2886.89 0.438244 1.84055 0
M  V30 30050 O 2886.23 -0.597434 1.73714 0
M  V30 30051 C 2886.29 2.81551 2.23538 0
M  V30 30052 C 2885.96 4.22502 1.74187 0
M  V30 30053 C 2886.96 5.05484 1.21583 0
M  V30 30054 C 2884.64 4.68843 1.80254 0
M  V30 30055 C 2886.63 6.32889 0.756992 0
M  V30 30056 C 2884.32 5.96231 1.33982 0
M  V30 30057 C 2885.32 6.78085 0.817929 0
M  V30 30058 O 2885.01 8.03085 0.361982 0
M  V30 30059 H 2884.74 0.578401 0.349898 0
M  V30 30060 H 2887.29 2.00312 0.454342 0
M  V30 30061 H 2885.52 2.48454 2.96324 0
M  V30 30062 H 2887.21 2.88833 2.85185 0
M  V30 30063 H 2887.98 4.70862 1.16248 0
M  V30 30064 H 2883.86 4.05217 2.19818 0
M  V30 30065 H 2887.4 6.96727 0.348958 0
M  V30 30066 H 2883.3 6.30356 1.39004 0
M  V30 30067 H 2884.07 8.17074 0.48299 0
M  V30 30068 N 2886.73 -0.642612 1.43904 0
M  V30 30069 C 2888.01 -1.4004 1.36558 0
M  V30 30070 C 2888.39 -2.11092 0.0185959 0
M  V30 30071 O 2887.73 -2.05534 -0.998402 0
M  V30 30072 C 2887.94 -2.37633 2.556 0
M  V30 30073 C 2889.29 -3.01313 2.99158 0
M  V30 30074 O 2890.32 -2.4796 2.55723 0
M  V30 30075 O 2889.18 -3.98072 3.74434 0
M  V30 30076 H 2886.27 -0.626189 0.5402 0
M  V30 30077 H 2888.82 -0.66863 1.55973 0
M  V30 30078 H 2887.59 -1.84151 3.45259 0
M  V30 30079 H 2887.21 -3.18245 2.3834 0
M  V30 30080 N 2888.21 -1.30611 -0.881966 0
M  V30 30081 C 2889.17 -1.17223 -1.96955 0
M  V30 30082 C 2890.17 -0.102626 -1.60472 0
M  V30 30083 O 2891.36 -0.350973 -1.70628 0
M  V30 30084 C 2888.49 -0.796631 -3.31461 0
M  V30 30085 H 2889.69 -2.13849 -2.10258 0
M  V30 30086 H 2887.24 -1.1405 -1.06875 0
M  V30 30087 H 2887.97 0.168996 -3.23859 0
M  V30 30088 H 2887.76 -1.56965 -3.59311 0
M  V30 30089 H 2889.25 -0.726522 -4.11232 0
M  V30 30090 N 2889.69 1.0947 -1.13376 0
M  V30 30091 C 2890.91 1.8594 -0.918744 0
M  V30 30092 C 2891.34 1.80561 0.527193 0
M  V30 30093 O 2890.69 1.18276 1.37406 0
M  V30 30094 C 2890.74 3.31864 -1.41062 0
M  V30 30095 O 2889.85 4.08077 -0.595568 0
M  V30 30096 H 2889.19 0.576587 -0.329307 0
M  V30 30097 H 2891.72 1.38242 -1.50832 0
M  V30 30098 H 2891.73 3.82712 -1.41404 0
M  V30 30099 H 2890.4 3.35095 -2.46341 0
M  V30 30100 H 2888.98 3.67013 -0.659975 0
M  V30 30101 N 2891.16 0.92719 1.2744 0
M  V30 30102 C 2892.09 0.443228 2.29255 0
M  V30 30103 C 2893.07 -0.496211 1.62701 0
M  V30 30104 O 2894.26 -0.401071 1.90013 0
M  V30 30105 C 2891.39 -0.305305 3.45955 0
M  V30 30106 C 2890.34 0.546252 4.245 0
M  V30 30107 C 2889.67 -0.331418 5.33672 0
M  V30 30108 C 2890.97 1.81046 4.89918 0
M  V30 30109 H 2892.66 1.29413 2.69986 0
M  V30 30110 H 2890.21 0.623727 1.29791 0
M  V30 30111 H 2892.16 -0.654812 4.16281 0
M  V30 30112 H 2890.89 -1.19023 3.0414 0
M  V30 30113 H 2889.55 0.87846 3.55919 0
M  V30 30114 H 2889.19 -1.21528 4.88098 0
M  V30 30115 H 2888.89 0.234849 5.8713 0
M  V30 30116 H 2890.42 -0.676508 6.06841 0
M  V30 30117 H 2891.83 1.52905 5.52533 0
M  V30 30118 H 2890.23 2.32019 5.53432 0
M  V30 30119 H 2891.3 2.53028 4.13648 0
M  V30 30120 N 2892.64 -1.41564 0.692641 0
M  V30 30121 C 2893.87 -2.06123 0.229813 0
M  V30 30122 C 2894.29 -1.51772 -1.11117 0
M  V30 30123 O 2893.65 -0.643474 -1.69497 0
M  V30 30124 C 2893.7 -3.60074 0.194753 0
M  V30 30125 O 2892.8 -4.03935 -0.831295 0
M  V30 30126 H 2892.14 -0.654312 0.113014 0
M  V30 30127 H 2894.67 -1.81381 0.946677 0
M  V30 30128 H 2894.68 -4.07993 0.0246204 0
M  V30 30129 H 2893.36 -3.99002 1.17346 0
M  V30 30130 H 2891.93 -3.67527 -0.630754 0
M  V30 30131 N 2894.12 -0.437188 -1.51415 0
M  V30 30132 C 2895.53 0.0259677 -1.86682 0
M  V30 30133 C 2895.88 1.41957 -1.35435 0
M  V30 30134 O 2895.01 2.04591 -0.705091 0
M  V30 30135 C 2895.6 0.0538982 -3.38757 0
M  V30 30136 C 2894.16 0.461466 -3.73561 0
M  V30 30137 C 2893.31 -0.345973 -2.75133 0
M  V30 30138 H 2896.26 -0.653038 -1.44641 0
M  V30 30139 H 2896.28 0.863413 -3.70574 0
M  V30 30140 H 2895.79 -0.960516 -3.76026 0
M  V30 30141 H 2893.89 1.48149 -3.41881 0
M  V30 30142 H 2894.01 0.186367 -4.78737 0
M  V30 30143 H 2892.37 0.195695 -2.53947 0
M  V30 30144 H 2893.15 -1.35926 -3.15244 0
M  V30 30145 N 2895.6 1.56696 -0.168541 0
M  V30 30146 C 2896.84 1.9709 0.47783 0
M  V30 30147 C 2897.18 1.0544 1.63083 0
M  V30 30148 O 2896.45 0.100985 1.94238 0
M  V30 30149 C 2896.73 3.46972 0.96346 0
M  V30 30150 C 2896.59 4.49401 -0.189522 0
M  V30 30151 C 2897.91 3.99879 1.83806 0
M  V30 30152 H 2895.03 0.716596 0.172217 0
M  V30 30153 H 2897.67 1.88293 -0.254116 0
M  V30 30154 H 2895.82 3.546 1.58717 0
M  V30 30155 H 2897.49 4.53835 -0.826531 0
M  V30 30156 H 2895.73 4.25482 -0.845441 0
M  V30 30157 H 2896.4 5.51665 0.192349 0
M  V30 30158 H 2898.88 3.94865 1.31228 0
M  V30 30159 H 2897.76 5.05173 2.14688 0
M  V30 30160 H 2898.02 3.43528 2.78282 0
M  V30 30161 N 2897.08 -0.105193 1.57249 0
M  V30 30162 C 2898.32 -0.806659 1.86721 0
M  V30 30163 C 2898.68 -1.76835 0.758092 0
M  V30 30164 O 2897.97 -1.90081 -0.240778 0
M  V30 30165 C 2898.16 -1.58282 3.2044 0
M  V30 30166 C 2897.99 -0.697786 4.44253 0
M  V30 30167 C 2896.76 -0.347355 5.04105 0
M  V30 30168 C 2898.96 -0.00923974 5.14299 0
M  V30 30169 N 2896.94 0.546894 6.11459 0
M  V30 30170 C 2898.31 0.743468 6.15526 0
M  V30 30171 C 2900.37 0.065738 4.97857 0
M  V30 30172 C 2899.07 1.56413 7.02088 0
M  V30 30173 C 2901.1 0.87327 5.84917 0
M  V30 30174 C 2900.46 1.61413 6.85657 0
M  V30 30175 H 2896.56 -0.271666 0.733295 0
M  V30 30176 H 2899.14 -0.069681 1.94575 0
M  V30 30177 H 2897.31 -2.29074 3.13656 0
M  V30 30178 H 2899.05 -2.23069 3.37672 0
M  V30 30179 H 2895.8 -0.692734 4.68506 0
M  V30 30180 H 2896.22 0.986275 6.69777 0
M  V30 30181 H 2900.87 -0.492694 4.19919 0
M  V30 30182 H 2898.58 2.13367 7.79423 0
M  V30 30183 H 2902.17 0.933825 5.74257 0
M  V30 30184 H 2901.05 2.22893 7.51857 0
M  V30 30185 N 2898.55 -1.53055 -0.375752 0
M  V30 30186 C 2899.8 -1.68744 -1.11945 0
M  V30 30187 C 2900.13 -0.434048 -1.89595 0
M  V30 30188 O 2899.38 0.583834 -1.86788 0
M  V30 30189 C 2899.68 -2.88211 -2.11351 0
M  V30 30190 C 2899.35 -4.25127 -1.50259 0
M  V30 30191 C 2898.01 -4.62361 -1.33325 0
M  V30 30192 C 2900.36 -5.10314 -1.05967 0
M  V30 30193 C 2897.69 -5.82429 -0.706663 0
M  V30 30194 C 2900.04 -6.31018 -0.44713 0
M  V30 30195 C 2898.71 -6.66973 -0.265196 0
M  V30 30196 H 2897.98 -0.617478 -0.409637 0
M  V30 30197 H 2900.62 -1.87223 -0.402459 0
M  V30 30198 H 2898.93 -2.64202 -2.89317 0
M  V30 30199 H 2900.63 -2.97544 -2.68828 0
M  V30 30200 H 2897.22 -3.95804 -1.6443 0
M  V30 30201 H 2901.4 -4.82106 -1.17847 0
M  V30 30202 H 2896.66 -6.08885 -0.554025 0
M  V30 30203 H 2900.83 -6.96334 -0.095684 0
M  V30 30204 H 2898.46 -7.59875 0.222401 0
M  V30 30205 N 2900.03 0.634971 -1.44242 0
M  V30 30206 C 2901 1.729 -1.5046 0
M  V30 30207 C 2902 1.56071 -0.387085 0
M  V30 30208 O 2903.19 1.61637 -0.649559 0
M  V30 30209 C 2900.32 3.11948 -1.37483 0
M  V30 30210 H 2901.51 1.68763 -2.4791 0
M  V30 30211 H 2899.06 0.848287 -1.31278 0
M  V30 30212 H 2899.8 3.21684 -0.411116 0
M  V30 30213 H 2899.58 3.25569 -2.18511 0
M  V30 30214 H 2901.07 3.9169 -1.44806 0
M  V30 30215 N 2901.51 1.31076 0.875027 0
M  V30 30216 C 2902.47 1.18266 1.96331 0
M  V30 30217 C 2903.47 0.111135 1.60415 0
M  V30 30218 O 2904.66 0.360017 1.70439 0
M  V30 30219 C 2901.8 0.814198 3.31034 0
M  V30 30220 H 2902.99 2.14961 2.09121 0
M  V30 30221 H 2900.54 1.14615 1.06269 0
M  V30 30222 H 2901.28 -0.151818 3.23944 0
M  V30 30223 H 2901.06 1.58869 3.58473 0
M  V30 30224 H 2902.55 0.748321 4.10841 0
M  V30 30225 N 2902.99 -1.08867 1.13955 0
M  V30 30226 C 2903.92 -2.17679 0.844862 0
M  V30 30227 C 2904.9 -1.68942 -0.198183 0
M  V30 30228 O 2906.08 -1.9412 -0.0558732 0
M  V30 30229 C 2903.21 -3.45856 0.316385 0
M  V30 30230 C 2902.17 -4.0796 1.29434 0
M  V30 30231 C 2901.49 -5.3103 0.625368 0
M  V30 30232 C 2902.79 -4.4979 2.65492 0
M  V30 30233 H 2904.49 -2.42588 1.75475 0
M  V30 30234 H 2902.03 -1.16591 0.845136 0
M  V30 30235 H 2903.99 -4.21286 0.0978616 0
M  V30 30236 H 2902.71 -3.20487 -0.628916 0
M  V30 30237 H 2901.37 -3.34555 1.49895 0
M  V30 30238 H 2901.02 -5.01945 -0.32559 0
M  V30 30239 H 2900.72 -5.73537 1.27787 0
M  V30 30240 H 2902.24 -6.09179 0.416259 0
M  V30 30241 H 2903.66 -5.16419 2.48966 0
M  V30 30242 H 2902.05 -5.03199 3.26972 0
M  V30 30243 H 2903.12 -3.61908 3.22723 0
M  V30 30244 N 2904.47 -0.933936 -1.26946 0
M  V30 30245 C 2905.41 -0.436524 -2.26634 0
M  V30 30246 C 2906.38 0.499925 -1.58398 0
M  V30 30247 O 2907.57 0.41772 -1.86171 0
M  V30 30248 C 2904.71 0.298891 -3.43803 0
M  V30 30249 C 2903.82 -0.672391 -4.26735 0
M  V30 30250 C 2902.96 0.0834938 -5.31134 0
M  V30 30251 C 2902 -0.880086 -6.0574 0
M  V30 30252 N 2901.13 -0.156425 -7.01926 0
M  V30 30253 H 2905.97 -1.29158 -2.68556 0
M  V30 30254 H 2903.51 -0.648142 -1.32051 0
M  V30 30255 H 2905.47 0.741651 -4.10555 0
M  V30 30256 H 2904.1 1.11814 -3.02816 0
M  V30 30257 H 2903.15 -1.23367 -3.5984 0
M  V30 30258 H 2904.46 -1.40855 -4.78499 0
M  V30 30259 H 2903.62 0.585877 -6.03865 0
M  V30 30260 H 2902.35 0.852576 -4.8019 0
M  V30 30261 H 2901.36 -1.39366 -5.31843 0
M  V30 30262 H 2902.58 -1.64905 -6.58774 0
M  V30 30263 H 2900.53 0.594298 -6.53302 0
M  V30 30264 H 2900.45 -0.832038 -7.51407 0
M  V30 30265 H 2901.72 0.325102 -7.78822 0
M  V30 30266 N 2905.94 1.41194 -0.700139 0
M  V30 30267 C 2907.19 2.00383 -0.230117 0
M  V30 30268 C 2907.51 1.56108 1.17854 0
M  V30 30269 O 2908.71 2.07888 1.74627 0
M  V30 30270 C 2907.17 3.5809 -0.36051 0
M  V30 30271 C 2906.78 4.11344 -1.77482 0
M  V30 30272 C 2908.52 4.24471 0.0495053 0
M  V30 30273 C 2906.43 5.61501 -1.85663 0
M  V30 30274 H 2905.36 0.749498 -0.0822765 0
M  V30 30275 H 2908.01 1.61619 -0.868998 0
M  V30 30276 H 2906.39 3.94479 0.346698 0
M  V30 30277 H 2907.56 3.86364 -2.51116 0
M  V30 30278 H 2905.88 3.57505 -2.13492 0
M  V30 30279 H 2908.48 5.34699 0.00888821 0
M  V30 30280 H 2908.82 4.01805 1.08897 0
M  V30 30281 H 2909.35 3.93133 -0.60759 0
M  V30 30282 H 2906.09 5.89001 -2.87678 0
M  V30 30283 H 2905.61 5.88393 -1.1642 0
M  V30 30284 H 2907.29 6.26349 -1.62162 0
M  V30 30285 N 2907.42 0.445212 1.51181 0
M  V30 30286 C 2908.35 -0.352645 2.30822 0
M  V30 30287 C 2909.33 -1.01393 1.36578 0
M  V30 30288 O 2910.52 -1.01606 1.65499 0
M  V30 30289 C 2907.65 -1.4497 3.15596 0
M  V30 30290 C 2906.6 -0.911479 4.18182 0
M  V30 30291 C 2905.93 -2.10488 4.91527 0
M  V30 30292 C 2907.23 0.0595098 5.22266 0
M  V30 30293 H 2908.92 0.311988 2.9777 0
M  V30 30294 H 2906.47 0.151487 1.43201 0
M  V30 30295 H 2908.42 -2.01514 3.70095 0
M  V30 30296 H 2907.15 -2.14274 2.46484 0
M  V30 30297 H 2905.8 -0.3682 3.64746 0
M  V30 30298 H 2905.45 -2.78429 4.18911 0
M  V30 30299 H 2905.15 -1.7511 5.60901 0
M  V30 30300 H 2906.68 -2.67571 5.48852 0
M  V30 30301 H 2908.09 -0.415884 5.7179 0
M  V30 30302 H 2906.49 0.326258 5.99212 0
M  V30 30303 H 2907.56 0.993714 4.74609 0
M  V30 30304 N 2908.9 -1.56605 0.176849 0
M  V30 30305 C 2909.83 -2.21235 -0.746802 0
M  V30 30306 C 2910.81 -1.16969 -1.235 0
M  V30 30307 O 2912 -1.45417 -1.28715 0
M  V30 30308 C 2909.13 -2.85744 -1.97402 0
M  V30 30309 C 2908.08 -3.96097 -1.62146 0
M  V30 30310 C 2907.41 -4.47681 -2.92379 0
M  V30 30311 C 2908.71 -5.15415 -0.845263 0
M  V30 30312 H 2910.4 -2.98676 -0.208064 0
M  V30 30313 H 2907.95 -1.43662 -0.0986342 0
M  V30 30314 H 2909.9 -3.29634 -2.62525 0
M  V30 30315 H 2908.62 -2.0568 -2.53699 0
M  V30 30316 H 2907.28 -3.5287 -0.993902 0
M  V30 30317 H 2906.93 -3.64402 -3.46728 0
M  V30 30318 H 2906.63 -5.22131 -2.69542 0
M  V30 30319 H 2908.15 -4.94262 -3.58522 0
M  V30 30320 H 2909.57 -5.55964 -1.39919 0
M  V30 30321 H 2907.97 -5.95817 -0.71571 0
M  V30 30322 H 2909.04 -4.84645 0.157324 0
M  V30 30323 N 2910.38 0.0968524 -1.57302 0
M  V30 30324 C 2911.29 1.13602 -2.0526 0
M  V30 30325 C 2912.3 1.43971 -0.977162 0
M  V30 30326 O 2913.48 1.54647 -1.2902 0
M  V30 30327 C 2910.55 2.43702 -2.46597 0
M  V30 30328 C 2909.61 2.20532 -3.68326 0
M  V30 30329 C 2908.84 3.44428 -4.07682 0
M  V30 30330 O 2909.06 4.52597 -3.47149 0
M  V30 30331 O 2908 3.3412 -5.00647 0
M  V30 30332 H 2911.82 0.7587 -2.9407 0
M  V30 30333 H 2909.41 0.309237 -1.46165 0
M  V30 30334 H 2911.29 3.20313 -2.7382 0
M  V30 30335 H 2909.96 2.80864 -1.60925 0
M  V30 30336 H 2908.87 1.41707 -3.46222 0
M  V30 30337 H 2910.2 1.88263 -4.54772 0
M  V30 30338 N 2911.86 1.53252 0.36763 0
M  V30 30339 C 2912.8 1.79545 1.45024 0
M  V30 30340 C 2913.77 0.639717 1.53287 0
M  V30 30341 O 2914.96 0.881683 1.69207 0
M  V30 30342 C 2912.1 1.98928 2.81996 0
M  V30 30343 C 2911.21 3.26643 2.82717 0
M  V30 30344 C 2910.35 3.36224 4.11251 0
M  V30 30345 C 2909.39 4.57979 4.06105 0
M  V30 30346 N 2908.52 4.64725 5.26285 0
M  V30 30347 H 2913.36 2.71926 1.21903 0
M  V30 30348 H 2910.9 1.34706 0.590988 0
M  V30 30349 H 2912.86 2.08152 3.61564 0
M  V30 30350 H 2911.49 1.09886 3.03521 0
M  V30 30351 H 2910.54 3.26382 1.95394 0
M  V30 30352 H 2911.85 4.16286 2.74787 0
M  V30 30353 H 2911.01 3.44748 4.99233 0
M  V30 30354 H 2909.74 2.44593 4.21931 0
M  V30 30355 H 2908.75 4.49557 3.1651 0
M  V30 30356 H 2909.97 5.50949 3.97029 0
M  V30 30357 H 2907.92 3.75994 5.37554 0
M  V30 30358 H 2907.84 5.48269 5.20516 0
M  V30 30359 H 2909.11 4.7753 6.16105 0
M  V30 30360 N 2913.34 -0.627313 1.44577 0
M  V30 30361 C 2914.58 -1.38279 1.4684 0
M  V30 30362 C 2914.9 -1.9531 0.106385 0
M  V30 30363 O 2916.1 -2.71499 0.00655857 0
M  V30 30364 C 2914.56 -2.50379 2.58531 0
M  V30 30365 C 2914.17 -1.99844 4.00957 0
M  V30 30366 C 2915.91 -3.27552 2.70019 0
M  V30 30367 C 2913.82 -3.09309 5.04065 0
M  V30 30368 H 2912.75 -0.519655 0.546329 0
M  V30 30369 H 2915.4 -0.674467 1.70655 0
M  V30 30370 H 2913.78 -3.23804 2.27963 0
M  V30 30371 H 2914.96 -1.33259 4.41111 0
M  V30 30372 H 2913.27 -1.35475 3.93745 0
M  V30 30373 H 2915.87 -4.09162 3.44224 0
M  V30 30374 H 2916.21 -3.77281 1.75967 0
M  V30 30375 H 2916.74 -2.61219 3.00016 0
M  V30 30376 H 2913.48 -2.64519 5.99758 0
M  V30 30377 H 2913 -3.74523 4.685 0
M  V30 30378 H 2914.68 -3.74021 5.27937 0
M  V30 30379 N 2914.81 -1.31539 -0.868063 0
M  V30 30380 C 2916.06 -1.21094 -1.61805 0
M  V30 30381 C 2916.38 0.230589 -1.93632 0
M  V30 30382 O 2915.65 1.1518 -1.58462 0
M  V30 30383 H 2914.23 -0.445189 -0.599846 0
M  V30 30384 H 2916.89 -1.64889 -1.03912 0
M  V30 30385 H 2915.99 -1.78401 -2.56085 0
M  V30 30386 N 2916.29 1.08262 -1.1453 0
M  V30 30387 C 2917.52 1.84149 -0.936636 0
M  V30 30388 C 2917.93 1.81963 0.518266 0
M  V30 30389 O 2917.27 1.22274 1.37094 0
M  V30 30390 C 2917.33 3.32706 -1.36188 0
M  V30 30391 C 2917 3.58624 -2.83263 0
M  V30 30392 C 2918 3.53343 -3.81372 0
M  V30 30393 C 2915.68 3.86587 -3.20711 0
M  V30 30394 C 2917.67 3.75659 -5.14936 0
M  V30 30395 C 2915.36 4.08556 -4.54451 0
M  V30 30396 C 2916.36 4.03085 -5.51372 0
M  V30 30397 O 2916.05 4.24476 -6.82697 0
M  V30 30398 H 2915.78 0.588142 -0.333264 0
M  V30 30399 H 2918.33 1.37627 -1.52473 0
M  V30 30400 H 2916.56 3.79992 -0.71713 0
M  V30 30401 H 2918.25 3.90033 -1.12379 0
M  V30 30402 H 2919.02 3.31753 -3.53787 0
M  V30 30403 H 2914.9 3.89964 -2.45864 0
M  V30 30404 H 2918.44 3.71305 -5.90575 0
M  V30 30405 H 2914.34 4.29631 -4.81755 0
M  V30 30406 H 2915.11 4.41873 -6.88978 0
M  V30 30407 N 2917.77 0.940655 1.26449 0
M  V30 30408 C 2919 0.604677 1.97867 0
M  V30 30409 C 2919.41 -0.820221 1.70052 0
M  V30 30410 O 2918.77 -1.54684 0.968457 0
M  V30 30411 C 2918.82 0.836751 3.51683 0
M  V30 30412 O 2918.54 2.20561 3.7853 0
M  V30 30413 C 2920.04 0.511247 4.40342 0
M  V30 30414 H 2917.26 0.22793 0.631101 0
M  V30 30415 H 2919.81 1.26122 1.60977 0
M  V30 30416 H 2917.96 0.226827 3.86735 0
M  V30 30417 H 2918.38 2.26525 4.73061 0
M  V30 30418 H 2919.85 0.724253 5.47228 0
M  V30 30419 H 2920.33 -0.553739 4.35695 0
M  V30 30420 H 2920.93 1.09988 4.10832 0
M  V30 30421 N 2919.25 -1.40821 0.707617 0
M  V30 30422 C 2920.2 -2.32568 0.0387052 0
M  V30 30423 C 2921.19 -1.51613 -0.755627 0
M  V30 30424 O 2922.4 -1.67468 -0.659892 0
M  V30 30425 H 2918.77 -0.751974 -0.0062859 0
M  V30 30426 H 2920.74 -2.86643 0.82935 0
M  V30 30427 C 2919.49 -3.36513 -0.8749 0
M  V30 30428 H 2918.81 -3.98866 -0.273087 0
M  V30 30429 H 2920.25 -4.03222 -1.31104 0
M  V30 30430 C 2918.71 -2.71357 -1.99668 0
M  V30 30431 O 2919.24 -2.57069 -3.08672 0
M  V30 30432 N 2917.45 -2.29864 -1.77795 0
M  V30 30433 H 2917 -2.41684 -0.891428 0
M  V30 30434 H 2916.95 -1.86606 -2.53033 0
M  V30 30435 N 2920.73 -0.453223 -1.50943 0
M  V30 30436 C 2921.67 0.364379 -2.29728 0
M  V30 30437 C 2922.67 1.00662 -1.36248 0
M  V30 30438 O 2923.87 0.939767 -1.5352 0
M  V30 30439 H 2920.25 0.136334 -0.739538 0
M  V30 30440 H 2922.22 -0.320748 -2.96671 0
M  V30 30441 C 2920.97 1.44409 -3.16293 0
M  V30 30442 H 2920.29 0.959275 -3.88121 0
M  V30 30443 H 2921.73 1.9891 -3.74447 0
M  V30 30444 C 2920.19 2.43618 -2.32706 0
M  V30 30445 O 2920.72 3.48504 -1.99769 0
M  V30 30446 N 2918.93 2.14894 -1.95625 0
M  V30 30447 H 2918.47 1.29625 -2.2261 0
M  V30 30448 H 2918.43 2.8151 -1.39998 0
M  V30 30449 N 2922.2 1.56509 -0.185151 0
M  V30 30450 C 2923.11 2.22225 0.751869 0
M  V30 30451 C 2924.13 1.21819 1.24242 0
M  V30 30452 O 2925.31 1.54525 1.29166 0
M  V30 30453 C 2922.37 2.86096 1.95832 0
M  V30 30454 C 2921.43 4.01743 1.5133 0
M  V30 30455 C 2920.66 4.62558 2.66225 0
M  V30 30456 O 2920.89 4.2228 3.83452 0
M  V30 30457 O 2919.82 5.52196 2.39507 0
M  V30 30458 H 2923.65 3.02886 0.22225 0
M  V30 30459 H 2921.23 1.49336 0.0436878 0
M  V30 30460 H 2923.11 3.26541 2.66362 0
M  V30 30461 H 2921.79 2.08422 2.47673 0
M  V30 30462 H 2920.7 3.6594 0.777091 0
M  V30 30463 H 2922.03 4.81051 1.04166 0
M  V30 30464 N 2923.68 -0.0885089 1.57351 0
M  V30 30465 C 2924.91 -0.804163 1.90633 0
M  V30 30466 C 2925.32 -1.71957 0.779504 0
M  V30 30467 O 2924.68 -1.80805 -0.248147 0
M  V30 30468 C 2924.73 -1.61196 3.23571 0
M  V30 30469 O 2924.45 -0.733371 4.31918 0
M  V30 30470 C 2925.95 -2.43009 3.70758 0
M  V30 30471 H 2923.17 -0.229574 0.630505 0
M  V30 30472 H 2925.72 -0.0637733 2.04401 0
M  V30 30473 H 2923.87 -2.30479 3.11381 0
M  V30 30474 H 2924.29 -1.29352 5.083 0
M  V30 30475 H 2925.76 -2.95172 4.66452 0
M  V30 30476 H 2926.24 -3.21775 2.98928 0
M  V30 30477 H 2926.84 -1.78913 3.85837 0
M  V30 30478 N 2925.16 -1.53445 -0.359498 0
M  V30 30479 C 2926.11 -1.80312 -1.4407 0
M  V30 30480 C 2927.08 -0.647837 -1.52945 0
M  V30 30481 O 2928.26 -0.890644 -1.68737 0
M  V30 30482 C 2925.4 -2.0042 -2.80937 0
M  V30 30483 C 2924.51 -3.28137 -2.8098 0
M  V30 30484 C 2923.65 -3.384 -4.09462 0
M  V30 30485 C 2922.69 -4.60126 -4.03671 0
M  V30 30486 N 2921.83 -4.67509 -5.23813 0
M  V30 30487 H 2926.67 -2.72568 -1.2046 0
M  V30 30488 H 2924.2 -1.35018 -0.583836 0
M  V30 30489 H 2926.16 -2.10067 -3.60455 0
M  V30 30490 H 2924.79 -1.11494 -3.02934 0
M  V30 30491 H 2923.84 -3.27414 -1.9366 0
M  V30 30492 H 2925.15 -4.17737 -2.72575 0
M  V30 30493 H 2924.31 -3.47391 -4.97398 0
M  V30 30494 H 2923.05 -2.46827 -4.20628 0
M  V30 30495 H 2922.05 -4.5123 -3.14121 0
M  V30 30496 H 2923.28 -5.53046 -3.94102 0
M  V30 30497 H 2921.22 -3.7884 -5.35552 0
M  V30 30498 H 2921.14 -5.51022 -5.17601 0
M  V30 30499 H 2922.41 -4.80791 -6.13564 0
M  V30 30500 N 2926.64 0.619637 -1.44908 0
M  V30 30501 C 2927.87 1.40384 -1.51578 0
M  V30 30502 C 2928.28 1.88658 -0.143123 0
M  V30 30503 O 2927.62 1.62147 0.863374 0
M  V30 30504 C 2927.68 2.65062 -2.42862 0
M  V30 30505 C 2927.34 2.38509 -3.89824 0
M  V30 30506 C 2928.34 1.99619 -4.8005 0
M  V30 30507 C 2926.03 2.51793 -4.34633 0
M  V30 30508 C 2928.02 1.74358 -6.13089 0
M  V30 30509 C 2925.71 2.26146 -5.67716 0
M  V30 30510 C 2926.71 1.87489 -6.56763 0
M  V30 30511 O 2926.39 1.62134 -7.8738 0
M  V30 30512 H 2926.13 0.436564 -0.516128 0
M  V30 30513 H 2928.68 0.763925 -1.90666 0
M  V30 30514 H 2926.91 3.31732 -1.98723 0
M  V30 30515 H 2928.6 3.27087 -2.40352 0
M  V30 30516 H 2929.36 1.88902 -4.467 0
M  V30 30517 H 2925.24 2.80851 -3.65573 0
M  V30 30518 H 2928.79 1.4411 -6.82553 0
M  V30 30519 H 2924.68 2.36475 -6.00624 0
M  V30 30520 H 2925.45 1.76286 -7.99291 0
M  V30 30521 N 2928.12 1.31997 0.861075 0
M  V30 30522 C 2929.37 1.21548 1.60963 0
M  V30 30523 C 2929.68 -0.222938 1.94325 0
M  V30 30524 O 2930.88 -0.449225 2.67758 0
M  V30 30525 C 2929.34 2.12839 2.9022 0
M  V30 30526 C 2928.95 3.61727 2.64306 0
M  V30 30527 C 2930.69 2.11211 3.68226 0
M  V30 30528 C 2928.6 4.44999 3.89525 0
M  V30 30529 H 2927.53 0.451358 0.60398 0
M  V30 30530 H 2930.18 1.56914 0.95133 0
M  V30 30531 H 2928.56 1.70381 3.57472 0
M  V30 30532 H 2929.74 4.12487 2.05405 0
M  V30 30533 H 2928.05 3.65421 1.9964 0
M  V30 30534 H 2930.65 2.70666 4.61133 0
M  V30 30535 H 2930.99 1.10147 4.01464 0
M  V30 30536 H 2931.52 2.51916 3.07869 0
M  V30 30537 H 2928.26 5.46852 3.61432 0
M  V30 30538 H 2927.78 3.98993 4.47844 0
M  V30 30539 H 2929.46 4.57671 4.57326 0
M  V30 30540 N 2929.59 -1.07653 1.15103 0
M  V30 30541 C 2930.87 -1.769 0.834609 0
M  V30 30542 C 2931.25 -2.00172 -0.670396 0
M  V30 30543 O 2930.6 -1.61772 -1.61375 0
M  V30 30544 C 2930.81 -3.07962 1.64197 0
M  V30 30545 C 2932.16 -3.82361 1.84622 0
M  V30 30546 O 2933.18 -3.17765 1.60947 0
M  V30 30547 O 2932.04 -4.9837 2.24253 0
M  V30 30548 H 2929.13 -0.768057 0.306622 0
M  V30 30549 H 2931.68 -1.14046 1.25665 0
M  V30 30550 H 2930.45 -2.86621 2.66391 0
M  V30 30551 H 2930.08 -3.78547 1.21606 0
M  V30 30552 N 2931.07 -0.947348 -1.25949 0
M  V30 30553 C 2932.3 -0.61427 -1.97257 0
M  V30 30554 C 2932.71 0.816325 -1.70683 0
M  V30 30555 O 2932.05 1.55672 -0.975298 0
M  V30 30556 C 2932.12 -0.784142 -3.50844 0
M  V30 30557 C 2931.78 -2.19053 -4.0108 0
M  V30 30558 C 2932.78 -3.16656 -4.12341 0
M  V30 30559 C 2930.46 -2.51276 -4.34932 0
M  V30 30560 C 2932.46 -4.4458 -4.56758 0
M  V30 30561 C 2930.14 -3.79431 -4.79036 0
M  V30 30562 C 2931.14 -4.75896 -4.89911 0
M  V30 30563 O 2930.83 -6.01768 -5.33039 0
M  V30 30564 H 2930.56 -0.229822 -0.635734 0
M  V30 30565 H 2933.11 -1.2721 -1.61266 0
M  V30 30566 H 2931.34 -0.0691689 -3.86638 0
M  V30 30567 H 2933.03 -0.453206 -4.03362 0
M  V30 30568 H 2933.8 -2.93086 -3.86427 0
M  V30 30569 H 2929.68 -1.76923 -4.25698 0
M  V30 30570 H 2933.22 -5.19876 -4.65161 0
M  V30 30571 H 2929.12 -4.02811 -5.04395 0
M  V30 30572 H 2929.89 -6.05039 -5.51245 0
M  V30 30573 N 2932.55 1.40444 -0.715075 0
M  V30 30574 C 2933.48 2.33373 -0.0769109 0
M  V30 30575 C 2934.46 1.52865 0.746082 0
M  V30 30576 O 2935.65 1.81334 0.69511 0
M  V30 30577 C 2932.78 3.3684 0.845955 0
M  V30 30578 C 2931.73 4.27807 0.128619 0
M  V30 30579 C 2931.06 5.21806 1.16716 0
M  V30 30580 C 2932.36 5.12305 -1.01688 0
M  V30 30581 H 2934.05 2.86988 -0.853112 0
M  V30 30582 H 2931.6 1.37989 -0.411694 0
M  V30 30583 H 2933.55 4.00789 1.30178 0
M  V30 30584 H 2932.27 2.81618 1.65405 0
M  V30 30585 H 2930.93 3.65309 -0.307378 0
M  V30 30586 H 2930.58 4.6289 1.96829 0
M  V30 30587 H 2930.28 5.8351 0.692085 0
M  V30 30588 H 2931.8 5.88632 1.6231 0
M  V30 30589 H 2933.22 5.69712 -0.640437 0
M  V30 30590 H 2931.62 5.8305 -1.4203 0
M  V30 30591 H 2932.69 4.48314 -1.84777 0
M  V30 30592 N 2934.03 0.461222 1.507 0
M  V30 30593 C 2935.27 -0.0960314 2.04174 0
M  V30 30594 C 2935.63 -1.37866 1.3363 0
M  V30 30595 O 2936.83 -2.01767 1.77605 0
M  V30 30596 C 2935.1 -0.285613 3.56257 0
M  V30 30597 S 2936.66 -0.802841 4.31393 0
M  V30 30598 H 2933.48 -0.0206157 0.710701 0
M  V30 30599 H 2936.08 0.626102 1.85203 0
M  V30 30600 H 2934.79 0.653844 4.05158 0
M  V30 30601 H 2934.32 -1.03415 3.79564 0
M  V30 30602 H 2936.33 -2.07753 4.50614 0
M  V30 30603 N 2935.51 -1.56408 0.193449 0
M  V30 30604 C 2936.45 -2.20353 -0.744791 0
M  V30 30605 C 2937.45 -1.1742 -1.22102 0
M  V30 30606 O 2938.65 -1.35569 -1.18411 0
M  V30 30607 H 2935.03 -0.706165 -0.258525 0
M  V30 30608 H 2937 -2.97846 -0.181742 0
M  V30 30609 C 2935.75 -2.87568 -1.95448 0
M  V30 30610 H 2935.07 -3.66514 -1.5971 0
M  V30 30611 H 2936.51 -3.3575 -2.58936 0
M  V30 30612 C 2934.97 -1.88515 -2.7922 0
M  V30 30613 O 2935.5 -1.38441 -3.7709 0
M  V30 30614 N 2933.71 -1.56781 -2.44679 0
M  V30 30615 H 2933.25 -1.97695 -1.6515 0
M  V30 30616 H 2933.21 -0.907626 -3.01014 0
M  V30 30617 N 2936.98 0.0801629 -1.57396 0
M  V30 30618 C 2938.21 0.797875 -1.91439 0
M  V30 30619 C 2938.63 1.70748 -0.789105 0
M  V30 30620 O 2937.99 1.79447 0.258539 0
M  V30 30621 C 2938.04 1.57461 -3.24405 0
M  V30 30622 O 2937.14 2.68468 -3.13047 0
M  V30 30623 H 2936.49 0.218232 -0.627113 0
M  V30 30624 H 2939.02 0.0509131 -2.04537 0
M  V30 30625 H 2939.03 1.95565 -3.58076 0
M  V30 30626 H 2937.7 0.907157 -4.05886 0
M  V30 30627 H 2936.28 2.33282 -2.90919 0
M  V30 30628 N 2938.46 1.53634 0.351355 0
M  V30 30629 C 2939.69 1.74178 1.1111 0
M  V30 30630 C 2940.1 0.477186 1.83084 0
M  V30 30631 O 2939.44 -0.560452 1.74942 0
M  V30 30632 C 2939.51 2.86229 2.17516 0
M  V30 30633 C 2939.17 4.26102 1.65186 0
M  V30 30634 C 2940.17 5.07949 1.10833 0
M  V30 30635 C 2937.85 4.72561 1.70269 0
M  V30 30636 C 2939.85 6.34352 0.622577 0
M  V30 30637 C 2937.53 5.98939 1.21305 0
M  V30 30638 C 2938.53 6.79667 0.673914 0
M  V30 30639 O 2938.22 8.03672 0.191555 0
M  V30 30640 H 2937.95 0.585693 0.33755 0
M  V30 30641 H 2940.5 2.01231 0.411751 0
M  V30 30642 H 2938.73 2.54683 2.90987 0
M  V30 30643 H 2940.42 2.94817 2.78994 0
M  V30 30644 H 2941.19 4.73222 1.06234 0
M  V30 30645 H 2937.07 4.09789 2.11173 0
M  V30 30646 H 2940.61 6.9731 0.201093 0
M  V30 30647 H 2936.51 6.33162 1.25602 0
M  V30 30648 H 2937.28 8.17914 0.309568 0
M  V30 30649 N 2939.94 -0.611943 1.45234 0
M  V30 30650 C 2940.89 -1.71709 1.5 0
M  V30 30651 C 2941.87 -1.56735 0.363717 0
M  V30 30652 O 2943.07 -1.66146 0.61029 0
M  V30 30653 C 2940.2 -3.10452 1.46542 0
M  V30 30654 C 2939.28 -3.30827 2.65357 0
M  V30 30655 N 2939.67 -3.21482 3.90491 0
M  V30 30656 C 2937.97 -3.61684 2.60961 0
M  V30 30657 C 2938.67 -3.43069 4.69764 0
M  V30 30658 N 2937.65 -3.66854 4.01148 0
M  V30 30659 H 2941.45 -1.62971 2.44577 0
M  V30 30660 H 2938.96 -0.815058 1.40466 0
M  V30 30661 H 2940.96 -3.8973 1.48042 0
M  V30 30662 H 2939.62 -3.20342 0.530195 0
M  V30 30663 H 2940.63 -2.99979 4.22176 0
M  V30 30664 H 2937.31 -3.78438 1.76326 0
M  V30 30665 H 2938.7 -3.41275 5.78776 0
M  V30 30666 N 2941.42 -1.32452 -0.854063 0
M  V30 30667 C 2942.35 -1.24048 -1.97824 0
M  V30 30668 C 2943.33 -0.124196 -1.69646 0
M  V30 30669 O 2944.51 -0.311464 -1.91686 0
M  V30 30670 C 2941.64 -0.963383 -3.33671 0
M  V30 30671 C 2940.6 -2.04096 -3.76203 0
M  V30 30672 C 2939.92 -1.61627 -5.09687 0
M  V30 30673 C 2941.22 -3.45604 -3.91606 0
M  V30 30674 H 2942.92 -2.18102 -2.05114 0
M  V30 30675 H 2940.46 -1.04998 -0.98547 0
M  V30 30676 H 2942.42 -0.891134 -4.1187 0
M  V30 30677 H 2941.14 0.0128074 -3.26597 0
M  V30 30678 H 2939.8 -2.10337 -3.00256 0
M  V30 30679 H 2939.45 -0.627506 -4.9907 0
M  V30 30680 H 2939.15 -2.33726 -5.39116 0
M  V30 30681 H 2940.67 -1.55839 -5.90378 0
M  V30 30682 H 2942.09 -3.41948 -4.60157 0
M  V30 30683 H 2940.48 -4.16058 -4.32453 0
M  V30 30684 H 2941.55 -3.85222 -2.94503 0
M  V30 30685 N 2942.9 1.07041 -1.15672 0
M  V30 30686 C 2944.13 1.83145 -0.956115 0
M  V30 30687 C 2944.54 1.82503 0.498937 0
M  V30 30688 O 2943.88 1.23722 1.35789 0
M  V30 30689 C 2943.94 3.31242 -1.39709 0
M  V30 30690 C 2943.6 3.55599 -2.87051 0
M  V30 30691 C 2944.6 3.49279 -3.85098 0
M  V30 30692 C 2942.29 3.83164 -3.24793 0
M  V30 30693 C 2944.28 3.70176 -5.18891 0
M  V30 30694 C 2941.97 4.03713 -4.58758 0
M  V30 30695 C 2942.97 3.97215 -5.55616 0
M  V30 30696 O 2942.65 4.17211 -6.87161 0
M  V30 30697 H 2942.39 0.584574 -0.339484 0
M  V30 30698 H 2944.94 1.36002 -1.53924 0
M  V30 30699 H 2943.17 3.7921 -0.757393 0
M  V30 30700 H 2944.86 3.88819 -1.16509 0
M  V30 30701 H 2945.62 3.27982 -3.57286 0
M  V30 30702 H 2941.5 3.87335 -2.49986 0
M  V30 30703 H 2945.05 3.6502 -5.9448 0
M  V30 30704 H 2940.94 4.24497 -4.86285 0
M  V30 30705 H 2941.71 4.34541 -6.93625 0
M  V30 30706 N 2944.38 0.954014 1.25445 0
M  V30 30707 C 2945.32 0.472524 2.25911 0
M  V30 30708 C 2946.29 -0.474662 1.59173 0
M  V30 30709 O 2947.48 -0.388049 1.86812 0
M  V30 30710 C 2944.62 -0.244157 3.44235 0
M  V30 30711 C 2943.73 0.740196 4.25611 0
M  V30 30712 C 2942.87 0.00101564 5.312 0
M  V30 30713 C 2941.9 0.976342 6.04263 0
M  V30 30714 N 2941.04 0.268075 7.01588 0
M  V30 30715 H 2945.88 1.33415 2.66467 0
M  V30 30716 H 2943.42 0.669068 1.31003 0
M  V30 30717 H 2945.38 -0.676242 4.11683 0
M  V30 30718 H 2944.01 -1.06983 3.04556 0
M  V30 30719 H 2943.06 1.29076 3.57832 0
M  V30 30720 H 2944.37 1.48449 4.76198 0
M  V30 30721 H 2943.52 -0.489734 6.0472 0
M  V30 30722 H 2942.26 -0.776074 4.81486 0
M  V30 30723 H 2941.27 1.4781 5.29559 0
M  V30 30724 H 2942.49 1.75365 6.56067 0
M  V30 30725 H 2940.44 -0.490288 6.54165 0
M  V30 30726 H 2940.36 0.951475 7.49989 0
M  V30 30727 H 2941.62 -0.201157 7.7924 0
M  V30 30728 N 2945.85 -1.40063 0.722513 0
M  V30 30729 C 2946.8 -2.32514 0.0633699 0
M  V30 30730 C 2947.8 -1.52406 -0.739504 0
M  V30 30731 O 2949 -1.68158 -0.642093 0
M  V30 30732 H 2945.38 -0.751998 0.00169014 0
M  V30 30733 H 2947.35 -2.85747 0.859706 0
M  V30 30734 C 2946.1 -3.37422 -0.83916 0
M  V30 30735 H 2945.42 -3.99133 -0.230766 0
M  V30 30736 H 2946.86 -4.0459 -1.2682 0
M  V30 30737 C 2945.32 -2.73459 -1.96778 0
M  V30 30738 O 2945.85 -2.60329 -3.05928 0
M  V30 30739 N 2944.05 -2.31737 -1.75347 0
M  V30 30740 H 2943.6 -2.42616 -0.865744 0
M  V30 30741 H 2943.56 -1.89279 -2.5104 0
M  V30 30742 N 2947.33 -0.469207 -1.50453 0
M  V30 30743 C 2948.28 0.325941 -2.28487 0
M  V30 30744 C 2949.25 0.98887 -1.33456 0
M  V30 30745 O 2950.43 1.00167 -1.62392 0
M  V30 30746 C 2947.57 1.40307 -3.1529 0
M  V30 30747 C 2946.69 0.755108 -4.25349 0
M  V30 30748 C 2945.82 1.80997 -4.99413 0
M  V30 30749 C 2944.86 1.14215 -6.0135 0
M  V30 30750 N 2944 2.13978 -6.68698 0
M  V30 30751 H 2948.84 -0.345805 -2.95987 0
M  V30 30752 H 2946.37 -0.18238 -1.45965 0
M  V30 30753 H 2948.33 2.03921 -3.63967 0
M  V30 30754 H 2946.96 2.04401 -2.4984 0
M  V30 30755 H 2946.01 0.00645215 -3.80399 0
M  V30 30756 H 2947.33 0.227853 -4.98279 0
M  V30 30757 H 2946.48 2.52196 -5.51799 0
M  V30 30758 H 2945.22 2.37103 -4.26185 0
M  V30 30759 H 2944.22 0.41578 -5.48226 0
M  V30 30760 H 2945.45 0.588016 -6.76549 0
M  V30 30761 H 2943.4 2.69105 -5.98263 0
M  V30 30762 H 2943.31 1.66233 -7.37498 0
M  V30 30763 H 2944.58 2.84563 -7.25702 0
M  V30 30764 N 2948.81 1.56303 -0.201741 0
M  V30 30765 C 2949.76 2.16018 0.729406 0
M  V30 30766 C 2950.74 1.10281 1.17162 0
M  V30 30767 O 2951.94 1.36326 1.12891 0
M  V30 30768 C 2949.06 2.82825 1.94589 0
M  V30 30769 C 2948.15 3.95761 1.52427 0
M  V30 30770 N 2948.54 4.99207 0.814019 0
M  V30 30771 C 2946.84 4.07485 1.81307 0
M  V30 30772 C 2947.54 5.78579 0.601794 0
M  V30 30773 N 2946.52 5.31242 1.15253 0
M  V30 30774 H 2950.32 2.9336 0.178111 0
M  V30 30775 H 2947.83 1.624 -0.00220893 0
M  V30 30776 H 2949.83 3.24002 2.62351 0
M  V30 30777 H 2948.49 2.06973 2.50184 0
M  V30 30778 H 2949.5 5.15774 0.468781 0
M  V30 30779 H 2946.18 3.42767 2.38364 0
M  V30 30780 H 2947.57 6.71889 0.0378938 0
M  V30 30781 N 2950.29 -0.0718147 1.57436 0
M  V30 30782 C 2951.52 -0.782762 1.91197 0
M  V30 30783 C 2951.93 -1.71643 0.795958 0
M  V30 30784 O 2951.27 -1.82131 -0.239572 0
M  V30 30785 C 2951.33 -1.63 3.20424 0
M  V30 30786 C 2950.99 -0.865704 4.48725 0
M  V30 30787 C 2951.99 -0.18496 5.19571 0
M  V30 30788 C 2949.68 -0.832884 4.95347 0
M  V30 30789 C 2951.67 0.518376 6.35289 0
M  V30 30790 C 2949.36 -0.125777 6.10971 0
M  V30 30791 C 2950.36 0.548653 6.80793 0
M  V30 30792 O 2950.04 1.24437 7.94211 0
M  V30 30793 H 2949.78 -0.22772 0.63649 0
M  V30 30794 H 2952.33 -0.0463826 2.05348 0
M  V30 30795 H 2950.56 -2.40918 3.02482 0
M  V30 30796 H 2952.25 -2.21962 3.39835 0
M  V30 30797 H 2953.01 -0.201622 4.84581 0
M  V30 30798 H 2948.89 -1.34729 4.40873 0
M  V30 30799 H 2952.44 1.04535 6.89723 0
M  V30 30800 H 2948.33 -0.107042 6.45411 0
M  V30 30801 H 2949.1 1.15364 8.10329 0
M  V30 30802 N 2951.77 -1.53818 -0.343203 0
M  V30 30803 C 2953.01 -1.7108 -1.08341 0
M  V30 30804 C 2953.34 -0.474166 -1.88632 0
M  V30 30805 O 2952.6 0.544083 -1.87985 0
M  V30 30806 C 2952.89 -2.92629 -2.0519 0
M  V30 30807 C 2952.56 -4.28219 -1.41208 0
M  V30 30808 C 2951.22 -4.65085 -1.23487 0
M  V30 30809 C 2953.57 -5.12447 -0.951183 0
M  V30 30810 C 2950.9 -5.83797 -0.582962 0
M  V30 30811 C 2953.25 -6.31824 -0.313181 0
M  V30 30812 C 2951.92 -6.67385 -0.123662 0
M  V30 30813 H 2951.19 -0.626028 -0.396447 0
M  V30 30814 H 2953.84 -1.88035 -0.362656 0
M  V30 30815 H 2952.14 -2.7028 -2.83648 0
M  V30 30816 H 2953.84 -3.03179 -2.62456 0
M  V30 30817 H 2950.43 -3.99203 -1.55998 0
M  V30 30818 H 2954.61 -4.84497 -1.07594 0
M  V30 30819 H 2949.87 -6.09923 -0.424747 0
M  V30 30820 H 2954.04 -6.96381 0.0520403 0
M  V30 30821 H 2951.67 -7.59232 0.383532 0
M  V30 30822 N 2953.24 0.604233 -1.45557 0
M  V30 30823 C 2954.49 1.36516 -1.4997 0
M  V30 30824 C 2954.82 1.93678 -0.142271 0
M  V30 30825 O 2954.1 1.75249 0.843686 0
M  V30 30826 C 2954.38 2.51058 -2.58151 0
M  V30 30827 C 2954.23 1.99071 -4.03349 0
M  V30 30828 C 2955.55 3.5318 -2.62588 0
M  V30 30829 H 2952.67 0.495026 -0.546002 0
M  V30 30830 H 2955.31 0.680813 -1.77384 0
M  V30 30831 H 2953.46 3.09437 -2.34906 0
M  V30 30832 H 2955.14 1.45316 -4.37814 0
M  V30 30833 H 2953.38 1.30048 -4.13848 0
M  V30 30834 H 2954.05 2.81656 -4.74736 0
M  V30 30835 H 2956.53 3.04647 -2.83424 0
M  V30 30836 H 2955.4 4.3081 -3.40138 0
M  V30 30837 H 2955.66 4.09016 -1.67805 0
M  V30 30838 N 2954.72 1.32903 0.847027 0
M  V30 30839 C 2956.14 1.1206 1.13643 0
M  V30 30840 C 2956.34 -0.0939016 2.01281 0
M  V30 30841 O 2955.39 -0.776566 2.40262 0
M  V30 30842 C 2956.71 2.40395 1.8064 0
M  V30 30843 C 2958.25 2.46225 1.93242 0
M  V30 30844 C 2958.73 3.74501 2.63654 0
M  V30 30845 N 2960.22 3.75526 2.71173 0
M  V30 30846 C 2960.96 4.71487 3.26324 0
M  V30 30847 N 2960.45 5.7782 3.82225 0
M  V30 30848 N 2962.24 4.58974 3.24499 0
M  V30 30849 H 2954.4 2.10758 0.263575 0
M  V30 30850 H 2956.66 0.930866 0.179424 0
M  V30 30851 H 2956.36 3.29227 1.23702 0
M  V30 30852 H 2956.24 2.51931 2.80732 0
M  V30 30853 H 2958.63 1.57847 2.49336 0
M  V30 30854 H 2958.71 2.38636 0.92123 0
M  V30 30855 H 2958.35 4.63256 2.08221 0
M  V30 30856 H 2958.28 3.79364 3.65227 0
M  V30 30857 H 2960.77 2.98674 2.31522 0
M  V30 30858 H 2961.08 6.47089 4.22487 0
M  V30 30859 H 2959.43 5.81564 3.80536 0
M  V30 30860 H 2962.62 3.75065 2.80078 0
M  V30 30861 H 2962.79 5.33932 3.67179 0
M  V30 30862 N 2956.2 -1.06426 1.16238 0
M  V30 30863 C 2957.45 -1.78846 0.941202 0
M  V30 30864 C 2957.77 -1.8759 -0.532447 0
M  V30 30865 O 2957.04 -1.38361 -1.38683 0
M  V30 30866 H 2955.62 -0.662434 0.345239 0
M  V30 30867 H 2958.28 -1.28567 1.46481 0
M  V30 30868 H 2957.38 -2.8097 1.35876 0
M  V30 30869 N 2957.68 -0.960653 -1.24937 0
M  V30 30870 C 2958.93 -0.617475 -1.92436 0
M  V30 30871 C 2959.25 0.84907 -1.75544 0
M  V30 30872 O 2958.52 1.60536 -1.12271 0
M  V30 30873 H 2957.1 -0.225384 -0.712188 0
M  V30 30874 H 2959.76 -1.2202 -1.51978 0
M  V30 30875 H 2958.86 -0.851986 -3.00246 0
M  V30 30876 N 2959.16 1.39677 -0.729931 0
M  V30 30877 C 2960.09 2.28172 -0.0354855 0
M  V30 30878 C 2961.07 1.44116 0.752942 0
M  V30 30879 O 2962.25 1.73513 0.736569 0
M  V30 30880 C 2959.38 3.24899 0.95699 0
M  V30 30881 C 2958.42 4.25721 0.257659 0
M  V30 30882 S 2959.26 5.25604 -1.02475 0
M  V30 30883 C 2960.41 6.2589 -0.0347422 0
M  V30 30884 H 2960.65 2.86722 -0.785972 0
M  V30 30885 H 2958.18 1.45325 -0.521523 0
M  V30 30886 H 2960.14 3.81148 1.52434 0
M  V30 30887 H 2958.8 2.65378 1.68028 0
M  V30 30888 H 2957.99 4.93808 1.00845 0
M  V30 30889 H 2957.59 3.73245 -0.23752 0
M  V30 30890 H 2959.89 6.72672 0.807345 0
M  V30 30891 H 2960.83 7.04802 -0.682614 0
M  V30 30892 H 2961.24 5.63503 0.335393 0
M  V30 30893 N 2960.63 0.47718 1.50202 0
M  V30 30894 C 2962.05 0.0235369 1.86685 0
M  V30 30895 C 2962.4 -1.38317 1.39151 0
M  V30 30896 O 2961.52 -2.0265 0.759087 0
M  V30 30897 C 2962.12 0.0359362 3.38781 0
M  V30 30898 C 2960.68 -0.362261 3.74653 0
M  V30 30899 C 2959.82 0.418798 2.74119 0
M  V30 30900 H 2962.77 0.691158 1.42859 0
M  V30 30901 H 2962.79 -0.764858 3.72733 0
M  V30 30902 H 2962.31 1.05988 3.73347 0
M  V30 30903 H 2960.41 -1.39033 3.45689 0
M  V30 30904 H 2960.52 -0.0593728 4.79063 0
M  V30 30905 H 2958.88 -0.128296 2.54377 0
M  V30 30906 H 2959.67 1.44236 3.1153 0
M  V30 30907 N 2962.11 -1.56194 0.210027 0
M  V30 30908 C 2963.34 -2.02829 -0.433028 0
M  V30 30909 C 2963.76 -1.08903 -1.53368 0
M  V30 30910 O 2963.12 -0.075145 -1.81144 0
M  V30 30911 C 2963.17 -3.47791 -0.952574 0
M  V30 30912 O 2962.27 -3.56997 -2.06463 0
M  V30 30913 H 2961.61 -0.656511 -0.0994479 0
M  V30 30914 H 2964.14 -2.01998 0.325285 0
M  V30 30915 H 2964.15 -3.87882 -1.26536 0
M  V30 30916 H 2962.83 -4.1564 -0.146934 0
M  V30 30917 H 2961.41 -3.28787 -1.75936 0
M  V30 30918 N 2963.59 0.0634645 -1.57472 0
M  V30 30919 C 2964.84 0.75953 -1.87285 0
M  V30 30920 C 2965.16 1.77691 -0.803166 0
M  V30 30921 O 2964.43 1.95185 0.167259 0
M  V30 30922 H 2963.01 0.283503 -0.691111 0
M  V30 30923 H 2965.67 0.0375748 -1.94864 0
M  V30 30924 H 2964.77 1.27057 -2.85067 0
M  V30 30925 N 2965.07 1.53998 0.33504 0
M  V30 30926 C 2966.31 1.73372 1.08267 0
M  V30 30927 C 2966.67 0.490945 1.85617 0
M  V30 30928 O 2967.87 0.561845 2.62863 0
M  V30 30929 C 2966.14 2.96735 1.99207 0
M  V30 30930 S 2967.7 3.36959 2.81077 0
M  V30 30931 H 2964.52 0.609749 0.365687 0
M  V30 30932 H 2967.12 1.92156 0.360046 0
M  V30 30933 H 2965.83 3.85346 1.41197 0
M  V30 30934 H 2965.36 2.8044 2.75893 0
M  V30 30935 H 2967.37 2.91359 4.01652 0
M  V30 30936 N 2966.55 -0.596505 1.45875 0
M  V30 30937 C 2967.77 -1.38643 1.54249 0
M  V30 30938 C 2968.2 -1.87241 0.179604 0
M  V30 30939 O 2967.55 -1.60781 -0.837803 0
M  V30 30940 C 2967.6 -2.55942 2.5402 0
M  V30 30941 O 2966.71 -3.56936 2.06568 0
M  V30 30942 H 2966.05 -0.413462 0.519563 0
M  V30 30943 H 2968.58 -0.724902 1.91328 0
M  V30 30944 H 2968.59 -3.03042 2.73184 0
M  V30 30945 H 2967.26 -2.19921 3.52998 0
M  V30 30946 H 2965.84 -3.1641 1.9733 0
M  V30 30947 N 2968.02 -1.3335 -0.839967 0
M  V30 30948 C 2969.27 -1.24498 -1.592 0
M  V30 30949 C 2969.59 0.189465 -1.94077 0
M  V30 30950 O 2968.86 1.11793 -1.6087 0
M  V30 30951 H 2967.44 -0.457812 -0.590268 0
M  V30 30952 H 2970.11 -1.67056 -1.00391 0
M  V30 30953 H 2969.2 -1.83793 -2.52243 0
M  V30 30954 N 2969.5 1.05808 -1.16801 0
M  V30 30955 C 2970.73 1.82385 -0.976903 0
M  V30 30956 C 2971.15 1.8273 0.474885 0
M  V30 30957 O 2970.5 1.25004 1.32967 0
M  V30 30958 C 2970.55 3.28781 -1.50285 0
M  V30 30959 O 2970.27 3.28573 -2.89778 0
M  V30 30960 C 2971.78 4.22069 -1.35545 0
M  V30 30961 H 2969 0.574921 -0.345987 0
M  V30 30962 H 2971.54 1.33464 -1.54944 0
M  V30 30963 H 2969.69 3.74995 -0.97248 0
M  V30 30964 H 2970.11 4.20153 -3.13961 0
M  V30 30965 H 2971.58 5.22795 -1.77169 0
M  V30 30966 H 2972.06 4.38163 -0.301675 0
M  V30 30967 H 2972.67 3.81704 -1.87568 0
M  V30 30968 N 2970.98 0.967265 1.24426 0
M  V30 30969 C 2972.21 0.646103 1.97079 0
M  V30 30970 C 2972.63 -0.777635 1.71273 0
M  V30 30971 O 2971.99 -1.52774 0.976206 0
M  V30 30972 C 2972.04 0.926328 3.48499 0
M  V30 30973 O 2971.14 0.0115378 4.12398 0
M  V30 30974 H 2970.48 0.244315 0.617419 0
M  V30 30975 H 2973.01 1.2973 1.58213 0
M  V30 30976 H 2973.02 0.857689 3.98883 0
M  V30 30977 H 2971.7 1.96393 3.6661 0
M  V30 30978 H 2970.27 0.133461 3.72661 0
M  V30 30979 N 2972.46 -1.39288 0.737328 0
M  V30 30980 C 2973.71 -1.99702 0.283164 0
M  V30 30981 C 2974.02 -1.59178 -1.13674 0
M  V30 30982 O 2975.23 -2.12445 -1.69054 0
M  V30 30983 C 2973.68 -3.57008 0.455324 0
M  V30 30984 C 2973.29 -4.06494 1.88326 0
M  V30 30985 C 2975.04 -4.24453 0.0630532 0
M  V30 30986 C 2972.94 -5.56381 2.00485 0
M  V30 30987 H 2971.87 -0.747053 0.102119 0
M  V30 30988 H 2974.52 -1.59258 0.911543 0
M  V30 30989 H 2972.91 -3.9526 -0.241987 0
M  V30 30990 H 2974.08 -3.79571 2.61272 0
M  V30 30991 H 2972.39 -3.51719 2.22896 0
M  V30 30992 H 2974.99 -5.34535 0.132881 0
M  V30 30993 H 2975.33 -4.04551 -0.982057 0
M  V30 30994 H 2975.87 -3.91383 0.711608 0
M  V30 30995 H 2972.61 -5.81166 3.03193 0
M  V30 30996 H 2972.13 -5.851 1.31979 0
M  V30 30997 H 2973.81 -6.21829 1.78711 0
M  V30 30998 N 2973.94 -0.485139 -1.49947 0
M  V30 30999 C 2975.18 0.0649703 -2.02396 0
M  V30 31000 C 2975.51 1.38449 -1.36609 0
M  V30 31001 O 2974.77 1.89582 -0.485509 0
M  V30 31002 C 2975.07 0.282372 -3.56283 0
M  V30 31003 C 2974.73 -0.957183 -4.40623 0
M  V30 31004 C 2973.39 -1.297 -4.63391 0
M  V30 31005 C 2975.75 -1.78185 -4.89796 0
M  V30 31006 C 2973.07 -2.46129 -5.32576 0
M  V30 31007 C 2975.43 -2.93753 -5.6026 0
M  V30 31008 C 2974.09 -3.28134 -5.81278 0
M  V30 31009 H 2973.36 0.0237743 -0.740619 0
M  V30 31010 H 2976.01 -0.642076 -1.80415 0
M  V30 31011 H 2974.31 1.0718 -3.76855 0
M  V30 31012 H 2976.01 0.722207 -3.94443 0
M  V30 31013 H 2972.6 -0.682459 -4.23132 0
M  V30 31014 H 2976.78 -1.53248 -4.72048 0
M  V30 31015 H 2972.04 -2.73023 -5.47054 0
M  V30 31016 H 2976.21 -3.57991 -5.9734 0
M  V30 31017 H 2973.84 -4.18457 -6.34664 0
M  V30 31018 N 2975.42 1.56081 -0.218307 0
M  V30 31019 C 2976.36 2.2151 0.70964 0
M  V30 31020 C 2977.36 1.19348 1.20219 0
M  V30 31021 O 2978.56 1.37436 1.16239 0
M  V30 31022 H 2974.94 0.710188 0.247258 0
M  V30 31023 H 2976.91 2.98097 0.134334 0
M  V30 31024 C 2975.66 2.90641 1.90848 0
M  V30 31025 H 2974.98 3.69009 1.53859 0
M  V30 31026 H 2976.42 3.39827 2.53562 0
M  V30 31027 C 2974.88 1.92934 2.76185 0
M  V30 31028 O 2975.41 1.44423 3.7484 0
M  V30 31029 N 2973.62 1.60654 2.42154 0
M  V30 31030 H 2973.16 2.00297 1.61984 0
M  V30 31031 H 2973.12 0.9554 2.99532 0
M  V30 31032 N 2976.89 -0.0551124 1.57504 0
M  V30 31033 C 2978.12 -0.767318 1.92684 0
M  V30 31034 C 2978.54 -1.69471 0.81617 0
M  V30 31035 O 2977.9 -1.79836 -0.229957 0
M  V30 31036 C 2977.95 -1.5228 3.26869 0
M  V30 31037 O 2977.05 -2.63454 3.17279 0
M  V30 31038 H 2976.39 -0.208227 0.630506 0
M  V30 31039 H 2978.92 -0.0183666 2.04592 0
M  V30 31040 H 2978.93 -1.89844 3.61142 0
M  V30 31041 H 2977.61 -0.84247 4.07278 0
M  V30 31042 H 2976.19 -2.28624 2.94593 0
M  V30 31043 N 2978.37 -1.54173 -0.326869 0
M  V30 31044 C 2979.3 -1.78169 -1.42587 0
M  V30 31045 C 2980.28 -0.63151 -1.49836 0
M  V30 31046 O 2981.47 -0.868573 -1.67296 0
M  V30 31047 C 2978.59 -1.89529 -2.80707 0
M  V30 31048 C 2977.64 -3.11798 -2.91006 0
M  V30 31049 S 2978.47 -4.70478 -2.55755 0
M  V30 31050 C 2979.63 -4.8474 -3.95952 0
M  V30 31051 H 2979.86 -2.71106 -1.2202 0
M  V30 31052 H 2977.39 -1.45254 -0.523513 0
M  V30 31053 H 2979.35 -1.96759 -3.60272 0
M  V30 31054 H 2978.01 -0.975748 -2.9856 0
M  V30 31055 H 2977.21 -3.16471 -3.92253 0
M  V30 31056 H 2976.81 -3.02879 -2.19409 0
M  V30 31057 H 2979.1 -4.67174 -4.90667 0
M  V30 31058 H 2980.04 -5.8684 -3.96263 0
M  V30 31059 H 2980.45 -4.13069 -3.84752 0
M  V30 31060 N 2979.85 0.58876 -1.4619 0
M  V30 31061 C 2981.1 1.34337 -1.50454 0
M  V30 31062 C 2981.41 1.9496 -0.15813 0
M  V30 31063 O 2982.62 2.71386 -0.0785395 0
M  V30 31064 C 2981.07 2.43436 -2.65079 0
M  V30 31065 C 2980.68 1.89143 -4.06114 0
M  V30 31066 C 2982.43 3.20278 -2.78608 0
M  V30 31067 C 2980.33 2.95836 -5.12089 0
M  V30 31068 H 2979.26 0.504987 -0.559914 0
M  V30 31069 H 2981.91 0.628984 -1.72383 0
M  V30 31070 H 2980.3 3.17646 -2.36468 0
M  V30 31071 H 2981.47 1.21517 -4.44489 0
M  V30 31072 H 2979.78 1.24988 -3.97199 0
M  V30 31073 H 2982.38 3.99892 -3.54951 0
M  V30 31074 H 2982.72 3.72483 -1.85909 0
M  V30 31075 H 2983.26 2.53173 -3.06836 0
M  V30 31076 H 2980 2.48525 -6.06561 0
M  V30 31077 H 2979.52 3.6197 -4.78265 0
M  V30 31078 H 2981.2 3.59893 -5.37667 0
M  V30 31079 N 2981.33 1.33794 0.832883 0
M  V30 31080 C 2982.28 1.24535 1.96453 0
M  V30 31081 C 2983.27 0.145485 1.68774 0
M  V30 31082 O 2984.48 0.309828 1.77313 0
M  V30 31083 H 2980.85 0.386623 0.645001 0
M  V30 31084 H 2982.82 2.20196 2.01385 0
M  V30 31085 C 2981.57 1.00754 3.32782 0
M  V30 31086 H 2980.89 1.84615 3.54623 0
M  V30 31087 H 2982.33 0.983082 4.12446 0
M  V30 31088 C 2980.79 -0.289416 3.35655 0
M  V30 31089 O 2981.32 -1.29412 3.80283 0
M  V30 31090 N 2979.53 -0.319049 2.88843 0
M  V30 31091 H 2979.08 0.499113 2.52718 0
M  V30 31092 H 2979.03 -1.18662 2.91147 0
M  V30 31093 N 2982.81 -1.05187 1.1736 0
M  V30 31094 C 2983.75 -2.15041 0.886565 0
M  V30 31095 C 2984.75 -1.68745 -0.148804 0
M  V30 31096 O 2985.95 -1.8 -0.00171959 0
M  V30 31097 H 2982.33 -0.70218 0.26916 0
M  V30 31098 H 2984.3 -2.36455 1.8202 0
M  V30 31099 C 2983.05 -3.45198 0.416394 0
M  V30 31100 H 2982.37 -3.81222 1.20456 0
M  V30 31101 H 2983.81 -4.23236 0.254436 0
M  V30 31102 C 2982.27 -3.25581 -0.865959 0
M  V30 31103 O 2982.8 -3.52148 -1.93274 0
M  V30 31104 N 2981.01 -2.78963 -0.81413 0
M  V30 31105 H 2980.55 -2.57543 0.0542071 0
M  V30 31106 H 2980.51 -2.66217 -1.67259 0
M  V30 31107 N 2984.28 -0.97385 -1.23911 0
M  V30 31108 C 2985.53 -0.634674 -1.91454 0
M  V30 31109 C 2985.85 0.834728 -1.76894 0
M  V30 31110 O 2987.05 1.28469 -2.39182 0
M  V30 31111 C 2985.51 -1.08453 -3.4317 0
M  V30 31112 C 2985.12 -2.57782 -3.66405 0
M  V30 31113 C 2986.86 -0.818795 -4.16529 0
M  V30 31114 C 2984.77 -2.96469 -5.11723 0
M  V30 31115 H 2983.7 -0.233674 -0.716877 0
M  V30 31116 H 2986.35 -1.18088 -1.40455 0
M  V30 31117 H 2984.73 -0.466594 -3.93242 0
M  V30 31118 H 2985.9 -3.24759 -3.26907 0
M  V30 31119 H 2984.22 -2.82032 -3.06344 0
M  V30 31120 H 2986.82 -1.08377 -5.23602 0
M  V30 31121 H 2987.16 0.245055 -4.15578 0
M  V30 31122 H 2987.69 -1.398 -3.72426 0
M  V30 31123 H 2984.43 -4.0195 -5.17799 0
M  V30 31124 H 2983.95 -2.34181 -5.52195 0
M  V30 31125 H 2985.63 -2.86713 -5.80004 0
M  V30 31126 N 2985.76 1.38895 -0.744705 0
M  V30 31127 C 2987.01 1.99549 -0.293751 0
M  V30 31128 C 2987.32 1.59779 1.12828 0
M  V30 31129 O 2988.53 2.13339 1.67925 0
M  V30 31130 C 2986.99 3.56762 -0.474251 0
M  V30 31131 C 2986.59 4.05489 -1.90479 0
M  V30 31132 C 2988.34 4.24414 -0.0855621 0
M  V30 31133 C 2986.24 5.5531 -2.03433 0
M  V30 31134 H 2985.17 0.746501 -0.10608 0
M  V30 31135 H 2987.83 1.58772 -0.919976 0
M  V30 31136 H 2986.21 3.95383 0.221022 0
M  V30 31137 H 2987.38 3.7818 -2.63281 0
M  V30 31138 H 2985.7 3.50532 -2.24758 0
M  V30 31139 H 2988.29 5.34457 -0.161227 0
M  V30 31140 H 2988.64 4.05066 0.960589 0
M  V30 31141 H 2989.17 3.91001 -0.732354 0
M  V30 31142 H 2985.91 5.7955 -3.06271 0
M  V30 31143 H 2985.43 5.84391 -1.3508 0
M  V30 31144 H 2987.11 6.20872 -1.82007 0
M  V30 31145 N 2987.24 0.493084 1.49688 0
M  V30 31146 C 2988.49 -0.0560378 2.01622 0
M  V30 31147 C 2988.8 -1.38778 1.37841 0
M  V30 31148 O 2990.01 -2.02313 1.81057 0
M  V30 31149 C 2988.46 -0.150345 3.59586 0
M  V30 31150 C 2988.07 1.17428 4.32336 0
M  V30 31151 C 2989.82 -0.650253 4.1949 0
M  V30 31152 C 2987.72 1.04256 5.82138 0
M  V30 31153 H 2986.65 -0.0247165 0.753595 0
M  V30 31154 H 2989.3 0.631309 1.72298 0
M  V30 31155 H 2987.69 -0.901967 3.85591 0
M  V30 31156 H 2988.86 1.93857 4.18038 0
M  V30 31157 H 2987.18 1.607 3.84141 0
M  V30 31158 H 2989.77 -0.766179 5.29182 0
M  V30 31159 H 2990.12 -1.64713 3.82329 0
M  V30 31160 H 2990.65 0.044607 3.97775 0
M  V30 31161 H 2987.39 2.01347 6.2381 0
M  V30 31162 H 2986.91 0.319025 5.98951 0
M  V30 31163 H 2988.59 0.71807 6.43003 0
M  V30 31164 N 2988.72 -1.55963 0.226582 0
M  V30 31165 C 2990.13 -1.5908 -0.128705 0
M  V30 31166 C 2990.33 -1.24348 -1.58555 0
M  V30 31167 O 2989.39 -0.981109 -2.3266 0
M  V30 31168 C 2990.7 -3.0002 0.202128 0
M  V30 31169 C 2992.25 -3.12665 0.144773 0
M  V30 31170 C 2992.73 -4.5579 0.449352 0
M  V30 31171 N 2994.22 -4.61477 0.399107 0
M  V30 31172 C 2994.95 -5.70165 0.608206 0
M  V30 31173 N 2994.45 -6.87197 0.879348 0
M  V30 31174 N 2996.24 -5.59497 0.540298 0
M  V30 31175 H 2988.39 -1.76814 1.17689 0
M  V30 31176 H 2990.66 -0.822094 0.472087 0
M  V30 31177 H 2990.36 -3.30103 1.21347 0
M  V30 31178 H 2990.24 -3.74127 -0.480489 0
M  V30 31179 H 2992.62 -2.82375 -0.857211 0
M  V30 31180 H 2992.7 -2.40876 0.860941 0
M  V30 31181 H 2992.35 -4.86798 1.4488 0
M  V30 31182 H 2992.28 -5.25812 -0.288064 0
M  V30 31183 H 2994.77 -3.77384 0.197438 0
M  V30 31184 H 2995.08 -7.65947 1.02686 0
M  V30 31185 H 2993.43 -6.88929 0.916598 0
M  V30 31186 H 2996.62 -4.66945 0.328663 0
M  V30 31187 H 2996.79 -6.44135 0.706661 0
M  V30 31188 N 2990.2 0.0467589 -1.57531 0
M  V30 31189 C 2991.42 0.753337 -1.92698 0
M  V30 31190 C 2991.84 1.6983 -0.824822 0
M  V30 31191 O 2991.2 1.81399 0.200123 0
M  V30 31192 C 2991.25 1.52561 -3.27731 0
M  V30 31193 O 2990.97 0.618598 -4.33711 0
M  V30 31194 C 2992.47 2.33094 -3.7707 0
M  V30 31195 H 2989.69 0.212776 -0.63637 0
M  V30 31196 H 2992.23 0.00955767 -2.04498 0
M  V30 31197 H 2990.39 2.22143 -3.17382 0
M  V30 31198 H 2990.8 1.1583 -5.1155 0
M  V30 31199 H 2992.28 2.82701 -4.74114 0
M  V30 31200 H 2992.75 3.13736 -3.07354 0
M  V30 31201 H 2993.36 1.68621 -3.90445 0
M  V30 31202 N 2991.67 1.54344 0.318688 0
M  V30 31203 C 2992.6 1.87064 1.39748 0
M  V30 31204 C 2993.59 0.727875 1.5374 0
M  V30 31205 O 2994.77 0.982046 1.6754 0
M  V30 31206 C 2991.9 2.10231 2.76442 0
M  V30 31207 C 2990.85 3.26076 2.77234 0
M  V30 31208 C 2990.18 3.34625 4.1705 0
M  V30 31209 C 2991.48 4.6361 2.40546 0
M  V30 31210 H 2993.17 2.77414 1.12614 0
M  V30 31211 H 2990.72 1.3348 0.540294 0
M  V30 31212 H 2992.67 2.31705 3.51981 0
M  V30 31213 H 2991.4 1.16634 3.05064 0
M  V30 31214 H 2990.06 3.04497 2.0415 0
M  V30 31215 H 2989.7 2.38577 4.4282 0
M  V30 31216 H 2989.4 4.12486 4.18485 0
M  V30 31217 H 2990.93 3.58339 4.94394 0
M  V30 31218 H 2992.34 4.84933 3.05799 0
M  V30 31219 H 2990.74 5.44056 2.53224 0
M  V30 31220 H 2991.81 4.65528 1.3569 0
M  V30 31221 N 2993.15 -0.580999 1.465 0
M  V30 31222 C 2994.08 -1.70014 1.60055 0
M  V30 31223 C 2995.06 -1.64017 0.450816 0
M  V30 31224 O 2996.25 -1.82007 0.677269 0
M  V30 31225 C 2993.38 -3.08655 1.59215 0
M  V30 31226 C 2992.33 -3.29483 2.73175 0
M  V30 31227 C 2991.66 -4.68669 2.57397 0
M  V30 31228 C 2992.96 -3.17153 4.14984 0
M  V30 31229 H 2994.65 -1.58926 2.53738 0
M  V30 31230 H 2992.2 -0.763152 1.22115 0
M  V30 31231 H 2994.15 -3.86771 1.67292 0
M  V30 31232 H 2992.88 -3.20646 0.620775 0
M  V30 31233 H 2991.53 -2.53768 2.6457 0
M  V30 31234 H 2991.18 -4.77428 1.58339 0
M  V30 31235 H 2990.88 -4.83558 3.33835 0
M  V30 31236 H 2992.41 -5.48951 2.67367 0
M  V30 31237 H 2993.82 -3.85111 4.24691 0
M  V30 31238 H 2992.22 -3.43562 4.92022 0
M  V30 31239 H 2993.29 -2.1421 4.3502 0
M  V30 31240 N 2994.63 -1.34234 -0.825776 0
M  V30 31241 C 2995.56 -1.28216 -1.95149 0
M  V30 31242 C 2996.54 -0.160152 -1.69344 0
M  V30 31243 O 2997.73 -0.352053 -1.90982 0
M  V30 31244 C 2994.86 -1.03394 -3.31552 0
M  V30 31245 C 2993.81 -2.1203 -3.71789 0
M  V30 31246 C 2993.14 -1.72401 -5.06144 0
M  V30 31247 C 2994.44 -3.53833 -3.84187 0
M  V30 31248 H 2996.13 -2.22404 -2.00441 0
M  V30 31249 H 2993.68 -1.07064 -0.962977 0
M  V30 31250 H 2995.63 -0.978297 -4.09887 0
M  V30 31251 H 2994.35 -0.0564716 -3.26551 0
M  V30 31252 H 2993.01 -2.16659 -2.95727 0
M  V30 31253 H 2992.66 -0.733225 -4.97627 0
M  V30 31254 H 2992.36 -2.45109 -5.34037 0
M  V30 31255 H 2993.88 -1.68327 -5.8694 0
M  V30 31256 H 2995.3 -3.51632 -4.528 0
M  V30 31257 H 2993.7 -4.25137 -4.23531 0
M  V30 31258 H 2994.77 -3.91382 -2.86266 0
M  V30 31259 N 2996.11 1.04563 -1.17917 0
M  V30 31260 C 2997.06 2.1246 -0.901642 0
M  V30 31261 C 2998.03 1.65357 0.156982 0
M  V30 31262 O 2999.21 1.90791 0.0184158 0
M  V30 31263 C 2996.35 3.42435 -0.42802 0
M  V30 31264 C 2995.46 4.03178 -1.55149 0
M  V30 31265 C 2994.6 5.21097 -1.0311 0
M  V30 31266 C 2993.64 5.73859 -2.1296 0
M  V30 31267 N 2992.77 6.83071 -1.62351 0
M  V30 31268 H 2997.61 2.35537 -1.82555 0
M  V30 31269 H 2995.15 1.15542 -0.910409 0
M  V30 31270 H 2997.11 4.16982 -0.134932 0
M  V30 31271 H 2995.74 3.19521 0.458921 0
M  V30 31272 H 2994.79 3.26008 -1.96017 0
M  V30 31273 H 2996.1 4.38371 -2.37976 0
M  V30 31274 H 2995.26 6.02738 -0.692238 0
M  V30 31275 H 2994 4.87395 -0.172356 0
M  V30 31276 H 2993 4.90843 -2.47696 0
M  V30 31277 H 2994.23 6.09606 -2.99261 0
M  V30 31278 H 2992.17 6.51255 -0.787578 0
M  V30 31279 H 2992.09 7.17301 -2.38779 0
M  V30 31280 H 2993.36 7.68349 -1.31377 0
M  V30 31281 N 2997.59 0.980408 1.23393 0
M  V30 31282 C 2998.81 0.667321 1.95843 0
M  V30 31283 C 2999.23 -0.765705 1.72576 0
M  V30 31284 O 2998.59 -1.51525 1.01718 0
M  V30 31285 C 2998.64 0.948212 3.48843 0
M  V30 31286 O 2998.36 2.32492 3.71321 0
M  V30 31287 C 2999.86 0.651079 4.38493 0
M  V30 31288 H 2997.08 0.247893 0.62353 0
M  V30 31289 H 2999.62 1.31179 1.56883 0
M  V30 31290 H 2997.78 0.349749 3.85818 0
M  V30 31291 H 2998.19 2.4146 4.65615 0
M  V30 31292 H 2999.67 0.897983 5.44647 0
M  V30 31293 H 3000.14 -0.414845 4.37236 0
M  V30 31294 H 3000.75 1.23002 4.07125 0
M  V30 31295 N 2999.06 -1.38498 0.75206 0
M  V30 31296 C 3000.29 -2.0414 0.317848 0
M  V30 31297 C 3000.7 -1.5684 -1.05819 0
M  V30 31298 O 3000.05 -0.736046 -1.68309 0
M  V30 31299 C 3000.11 -3.58557 0.260268 0
M  V30 31300 C 2999.77 -4.28906 1.5776 0
M  V30 31301 C 3000.77 -4.54383 2.5265 0
M  V30 31302 C 2998.45 -4.67125 1.84661 0
M  V30 31303 C 3000.45 -5.17109 3.72662 0
M  V30 31304 C 2998.13 -5.29576 3.04947 0
M  V30 31305 C 2999.13 -5.54502 3.98768 0
M  V30 31306 O 2998.82 -6.15653 5.16939 0
M  V30 31307 H 2998.55 -0.662597 0.133943 0
M  V30 31308 H 3001.11 -1.78203 1.02141 0
M  V30 31309 H 2999.34 -3.8346 -0.499529 0
M  V30 31310 H 3001.03 -4.05644 -0.144224 0
M  V30 31311 H 3001.79 -4.25287 2.33143 0
M  V30 31312 H 2997.67 -4.4707 1.12472 0
M  V30 31313 H 3001.21 -5.36481 4.45908 0
M  V30 31314 H 2997.11 -5.58093 3.24348 0
M  V30 31315 H 2997.88 -6.34141 5.17501 0
M  V30 31316 N 3000.54 -0.501015 -1.49424 0
M  V30 31317 C 3001.49 0.277403 -2.29127 0
M  V30 31318 C 3002.46 0.960339 -1.35524 0
M  V30 31319 O 3003.64 0.966998 -1.6448 0
M  V30 31320 C 3000.78 1.33588 -3.18195 0
M  V30 31321 C 2999.9 0.664716 -4.26855 0
M  V30 31322 C 2999.03 1.70363 -5.0314 0
M  V30 31323 C 2998.07 1.01434 -6.03637 0
M  V30 31324 N 2997.21 1.99746 -6.73087 0
M  V30 31325 H 3002.05 -0.40851 -2.95187 0
M  V30 31326 H 2999.59 -0.213301 -1.45545 0
M  V30 31327 H 3001.54 1.96155 -3.68211 0
M  V30 31328 H 3000.17 1.99055 -2.5412 0
M  V30 31329 H 2999.23 -0.0742377 -3.80328 0
M  V30 31330 H 3000.54 0.122109 -4.98651 0
M  V30 31331 H 2999.69 2.40435 -5.57024 0
M  V30 31332 H 2998.43 2.28009 -4.31118 0
M  V30 31333 H 2997.44 0.2994 -5.48984 0
M  V30 31334 H 2998.66 0.444378 -6.77645 0
M  V30 31335 H 2996.61 2.56354 -6.03836 0
M  V30 31336 H 2996.52 1.50552 -7.40858 0
M  V30 31337 H 2997.79 2.69106 -7.31575 0
M  V30 31338 N 3002.02 1.5584 -0.234849 0
M  V30 31339 C 3002.97 2.22251 0.686106 0
M  V30 31340 C 3003.96 1.20616 1.18946 0
M  V30 31341 O 3005.17 1.38661 1.14775 0
M  V30 31342 H 3001.54 0.712771 0.239712 0
M  V30 31343 H 3003.52 2.98223 0.102709 0
M  V30 31344 C 3002.26 2.92649 1.87755 0
M  V30 31345 H 3001.59 3.7062 1.49936 0
M  V30 31346 H 3003.03 3.42497 2.49944 0
M  V30 31347 C 3001.49 1.95852 2.74123 0
M  V30 31348 O 3002.02 1.4839 3.73287 0
M  V30 31349 N 3000.22 1.63213 2.40437 0
M  V30 31350 H 2999.77 2.02004 1.5985 0
M  V30 31351 H 2999.73 0.987116 2.98502 0
M  V30 31352 N 3003.5 -0.038404 1.57553 0
M  V30 31353 C 3004.75 -0.730075 1.88023 0
M  V30 31354 C 3005.06 -1.77017 0.832121 0
M  V30 31355 O 3006.27 -2.51378 1.02574 0
M  V30 31356 C 3004.72 -1.34954 3.3364 0
M  V30 31357 C 3004.33 -0.346274 4.4666 0
M  V30 31358 C 3006.08 -2.02163 3.7327 0
M  V30 31359 C 3003.98 -0.973549 5.83332 0
M  V30 31360 H 3002.91 -0.276429 0.7015 0
M  V30 31361 H 3005.56 0.0158351 1.83493 0
M  V30 31362 H 3003.95 -2.14484 3.32885 0
M  V30 31363 H 3005.12 0.421638 4.58867 0
M  V30 31364 H 3003.43 0.223207 4.15801 0
M  V30 31365 H 3006.03 -2.4993 4.72694 0
M  V30 31366 H 3006.37 -2.83574 3.04781 0
M  V30 31367 H 3006.91 -1.2942 3.76159 0
M  V30 31368 H 3003.65 -0.199048 6.55198 0
M  V30 31369 H 3003.17 -1.71152 5.74863 0
M  V30 31370 H 3004.85 -1.48365 6.29759 0
M  V30 31371 N 3004.98 -1.54511 -0.310498 0
M  V30 31372 C 3006.25 -1.64006 -1.0659 0
M  V30 31373 C 3006.63 -0.482252 -2.05518 0
M  V30 31374 O 3005.98 0.522081 -2.22456 0
M  V30 31375 C 3006.19 -3.01592 -1.75622 0
M  V30 31376 C 3007.54 -3.58085 -2.28167 0
M  V30 31377 O 3008.56 -3.03983 -1.85669 0
M  V30 31378 O 3007.42 -4.52793 -3.06008 0
M  V30 31379 H 3004.52 -0.664657 -0.492097 0
M  V30 31380 H 3007.06 -1.66857 -0.309345 0
M  V30 31381 H 3005.84 -3.77299 -1.03736 0
M  V30 31382 H 3005.46 -3.02478 -2.58056 0
M  V30 31383 N 3006.46 0.573222 -1.46806 0
M  V30 31384 C 3007.39 1.69163 -1.60954 0
M  V30 31385 C 3008.37 1.63776 -0.459508 0
M  V30 31386 O 3009.55 1.81646 -0.686912 0
M  V30 31387 C 3006.68 3.07806 -1.6085 0
M  V30 31388 C 3005.64 3.2803 -2.74919 0
M  V30 31389 C 3004.96 4.67298 -2.59879 0
M  V30 31390 C 3006.26 3.14947 -4.1666 0
M  V30 31391 H 3007.96 1.57578 -2.54577 0
M  V30 31392 H 3005.5 0.756665 -1.22518 0
M  V30 31393 H 3007.45 3.85878 -1.6934 0
M  V30 31394 H 3006.18 3.20312 -0.63777 0
M  V30 31395 H 3004.84 2.52361 -2.65912 0
M  V30 31396 H 3004.49 4.76582 -1.60869 0
M  V30 31397 H 3004.19 4.8178 -3.36395 0
M  V30 31398 H 3005.71 5.47525 -2.70275 0
M  V30 31399 H 3007.12 3.82853 -4.26727 0
M  V30 31400 H 3005.52 3.40948 -4.93837 0
M  V30 31401 H 3006.59 2.119 -4.36149 0
M  V30 31402 N 3007.93 1.3467 0.818645 0
M  V30 31403 C 3009.21 1.17844 1.56116 0
M  V30 31404 C 3009.59 -0.247273 2.09647 0
M  V30 31405 O 3008.94 -1.24918 1.91331 0
M  V30 31406 C 3009.15 2.23654 2.67918 0
M  V30 31407 C 3010.5 2.58849 3.36574 0
M  V30 31408 O 3011.52 2.22476 2.78178 0
M  V30 31409 O 3010.38 3.21347 4.42039 0
M  V30 31410 H 3007.47 0.457079 0.689208 0
M  V30 31411 H 3010.02 1.46315 0.859649 0
M  V30 31412 H 3008.79 3.19332 2.26148 0
M  V30 31413 H 3008.41 1.96383 3.45716 0
M  V30 31414 N 3009.41 -1.03936 1.1847 0
M  V30 31415 C 3010.36 -2.11978 0.912897 0
M  V30 31416 C 3011.33 -1.65437 -0.148211 0
M  V30 31417 O 3012.51 -1.90798 -0.00829747 0
M  V30 31418 C 3009.65 -3.42204 0.446174 0
M  V30 31419 C 3008.77 -4.0235 1.57285 0
M  V30 31420 C 3007.9 -5.20543 1.05872 0
M  V30 31421 C 3006.94 -5.72722 2.16 0
M  V30 31422 N 3006.08 -6.82201 1.65971 0
M  V30 31423 H 3010.92 -2.34565 1.83802 0
M  V30 31424 H 3008.45 -1.15058 0.916524 0
M  V30 31425 H 3010.41 -4.16904 0.157044 0
M  V30 31426 H 3009.04 -3.1976 -0.441969 0
M  V30 31427 H 3008.09 -3.24964 1.97743 0
M  V30 31428 H 3009.41 -4.37103 2.40297 0
M  V30 31429 H 3008.56 -6.02362 0.724193 0
M  V30 31430 H 3007.3 -4.87297 0.198201 0
M  V30 31431 H 3006.3 -4.89522 2.50296 0
M  V30 31432 H 3007.53 -6.08011 3.0249 0
M  V30 31433 H 3005.48 -6.50828 0.822105 0
M  V30 31434 H 3005.39 -7.16024 2.4258 0
M  V30 31435 H 3006.66 -7.67642 1.3545 0
M  V30 31436 N 3010.89 -0.986938 -1.22871 0
M  V30 31437 C 3012.14 -0.659457 -1.91461 0
M  V30 31438 C 3012.46 0.807794 -1.76932 0
M  V30 31439 O 3011.72 1.59899 -1.12831 0
M  V30 31440 C 3012.02 -1.00385 -3.43012 0
M  V30 31441 C 3011.68 -2.46239 -3.77726 0
M  V30 31442 C 3010.35 -2.86098 -3.86913 0
M  V30 31443 C 3012.7 -3.40805 -3.94337 0
M  V30 31444 C 3010.03 -4.19525 -4.10141 0
M  V30 31445 C 3012.38 -4.73883 -4.19068 0
M  V30 31446 C 3011.04 -5.13492 -4.26477 0
M  V30 31447 H 3010.31 -0.241313 -0.700606 0
M  V30 31448 H 3012.96 -1.24202 -1.45761 0
M  V30 31449 H 3011.26 -0.339295 -3.90328 0
M  V30 31450 H 3012.96 -0.728588 -3.94325 0
M  V30 31451 H 3009.55 -2.1434 -3.71155 0
M  V30 31452 H 3013.74 -3.11184 -3.86624 0
M  V30 31453 H 3008.99 -4.4981 -4.14102 0
M  V30 31454 H 3013.17 -5.4711 -4.30864 0
M  V30 31455 H 3010.79 -6.16899 -4.44229 0
M  V30 31456 N 3012.37 1.38098 -0.759394 0
M  V30 31457 C 3013.78 1.53483 -0.437633 0
M  V30 31458 C 3013.98 1.72074 1.04846 0
M  V30 31459 O 3013.04 1.73506 1.83445 0
M  V30 31460 C 3014.35 2.73855 -1.24194 0
M  V30 31461 C 3015.9 2.87708 -1.2326 0
M  V30 31462 C 3016.38 4.11048 -2.01999 0
M  V30 31463 N 3017.87 4.18136 -1.99289 0
M  V30 31464 C 3018.6 5.12578 -2.57005 0
M  V30 31465 N 3018.1 6.12656 -3.23457 0
M  V30 31466 N 3019.89 5.04971 -2.46903 0
M  V30 31467 H 3012.04 1.2428 -1.72245 0
M  V30 31468 H 3014.3 0.604192 -0.730518 0
M  V30 31469 H 3014.01 2.66541 -2.29454 0
M  V30 31470 H 3013.88 3.67201 -0.862736 0
M  V30 31471 H 3016.27 2.945 -0.18804 0
M  V30 31472 H 3016.35 1.95356 -1.65136 0
M  V30 31473 H 3016 4.05017 -3.06469 0
M  V30 31474 H 3015.93 5.02491 -1.57513 0
M  V30 31475 H 3018.42 3.46465 -1.50899 0
M  V30 31476 H 3018.73 6.81224 -3.64902 0
M  V30 31477 H 3017.08 6.12971 -3.27553 0
M  V30 31478 H 3020.27 4.25728 -1.94611 0
M  V30 31479 H 3020.44 5.78391 -2.92178 0
M  V30 31480 N 3013.85 0.508932 1.49156 0
M  V30 31481 C 3014.78 -0.312063 2.26056 0
M  V30 31482 C 3015.76 -0.963433 1.30984 0
M  V30 31483 O 3016.94 -0.991974 1.60288 0
M  V30 31484 C 3014.07 -1.44014 3.06558 0
M  V30 31485 C 3013.11 -0.902341 4.16845 0
M  V30 31486 S 3013.95 0.213181 5.35075 0
M  V30 31487 C 3015.1 -0.917876 6.19133 0
M  V30 31488 H 3015.34 0.340611 2.95342 0
M  V30 31489 H 3012.87 0.294357 1.51568 0
M  V30 31490 H 3014.83 -2.08647 3.53521 0
M  V30 31491 H 3013.49 -2.06446 2.36725 0
M  V30 31492 H 3012.68 -1.74798 4.72717 0
M  V30 31493 H 3012.28 -0.333091 3.72514 0
M  V30 31494 H 3014.57 -1.82133 6.52559 0
M  V30 31495 H 3015.52 -0.3976 7.06983 0
M  V30 31496 H 3015.93 -1.18879 5.51841 0
M  V30 31497 N 3015.32 -1.55714 0.243111 0
M  V30 31498 C 3016.57 -1.98027 -0.383153 0
M  V30 31499 C 3016.89 -1.13439 -1.59345 0
M  V30 31500 O 3018.09 -1.45749 -2.29062 0
M  V30 31501 C 3016.55 -3.52355 -0.733073 0
M  V30 31502 C 3016.16 -4.45677 0.455618 0
M  V30 31503 C 3017.9 -4.03333 -1.32374 0
M  V30 31504 C 3015.81 -5.91343 0.0820631 0
M  V30 31505 H 3014.74 -0.739545 -0.146931 0
M  V30 31506 H 3017.39 -1.80271 0.342729 0
M  V30 31507 H 3015.77 -3.65792 -1.51698 0
M  V30 31508 H 3016.94 -4.43998 1.23299 0
M  V30 31509 H 3015.26 -4.0516 0.960957 0
M  V30 31510 H 3017.86 -5.0968 -1.61649 0
M  V30 31511 H 3018.2 -3.50456 -2.24692 0
M  V30 31512 H 3018.73 -3.93206 -0.602816 0
M  V30 31513 H 3015.47 -6.48249 0.972285 0
M  V30 31514 H 3014.99 -5.96167 -0.659186 0
M  V30 31515 H 3016.67 -6.46121 -0.337086 0
M  V30 31516 N 3016.8 0.030048 -1.57571 0
M  V30 31517 C 3017.77 1.01561 -2.0547 0
M  V30 31518 C 3018.77 1.29099 -0.95865 0
M  V30 31519 O 3019.96 1.24119 -1.2223 0
M  V30 31520 C 3017.09 2.3487 -2.47081 0
M  V30 31521 H 3018.28 0.601884 -2.93798 0
M  V30 31522 H 3015.83 0.27685 -1.53829 0
M  V30 31523 H 3016.57 2.80993 -1.61906 0
M  V30 31524 H 3016.35 2.16212 -3.271 0
M  V30 31525 H 3017.84 3.0563 -2.8457 0
M  V30 31526 N 3018.28 1.54674 0.3023 0
M  V30 31527 C 3019.51 1.77625 1.05513 0
M  V30 31528 C 3019.92 0.535191 1.81473 0
M  V30 31529 O 3019.26 -0.504512 1.76636 0
M  V30 31530 C 3019.32 2.93004 2.083 0
M  V30 31531 C 3018.99 4.31141 1.51546 0
M  V30 31532 C 3019.98 5.11218 0.946171 0
M  V30 31533 C 3017.67 4.77739 1.55148 0
M  V30 31534 C 3019.66 6.36012 0.420448 0
M  V30 31535 C 3017.35 6.02495 1.02189 0
M  V30 31536 C 3018.35 6.81467 0.457342 0
M  V30 31537 O 3018.04 8.03874 -0.0642243 0
M  V30 31538 H 3017.77 0.596135 0.318746 0
M  V30 31539 H 3020.32 2.02439 0.347522 0
M  V30 31540 H 3018.55 2.63812 2.82737 0
M  V30 31541 H 3020.24 3.03544 2.69474 0
M  V30 31542 H 3021.01 4.76362 0.911254 0
M  V30 31543 H 3016.89 4.163 1.98029 0
M  V30 31544 H 3020.43 6.97597 -0.0208524 0
M  V30 31545 H 3016.33 6.36838 1.05395 0
M  V30 31546 H 3017.1 8.18485 0.0491983 0
M  V30 31547 N 3019.76 -0.565428 1.47108 0
M  V30 31548 C 3021.01 -1.32035 1.53007 0
M  V30 31549 C 3021.33 -1.94067 0.190487 0
M  V30 31550 O 3020.6 -1.79495 -0.784751 0
M  V30 31551 H 3019.18 -0.490284 0.563587 0
M  V30 31552 H 3021.84 -0.660896 1.83353 0
M  V30 31553 H 3020.94 -2.11814 2.29219 0
M  V30 31554 N 3021.24 -1.35102 -0.811492 0
M  V30 31555 C 3022.51 -1.1867 -1.55489 0
M  V30 31556 C 3022.89 0.236152 -2.09775 0
M  V30 31557 O 3022.24 1.23902 -1.91991 0
M  V30 31558 C 3022.45 -2.25072 -2.66728 0
M  V30 31559 C 3023.8 -2.60631 -3.35197 0
M  V30 31560 O 3024.82 -2.23948 -2.76994 0
M  V30 31561 O 3023.68 -3.23687 -4.40329 0
M  V30 31562 H 3020.78 -0.460728 -0.686774 0
M  V30 31563 H 3023.32 -1.46769 -0.851877 0
M  V30 31564 H 3022.09 -3.20527 -2.24451 0
M  V30 31565 H 3021.72 -1.98214 -3.44669 0
M  V30 31566 N 3022.71 1.03306 -1.19019 0
M  V30 31567 C 3023.99 1.73681 -0.899689 0
M  V30 31568 C 3024.37 2.02522 0.595641 0
M  V30 31569 O 3023.72 1.6765 1.5526 0
M  V30 31570 C 3023.93 3.01656 -1.75513 0
M  V30 31571 C 3025.28 3.75245 -1.98686 0
M  V30 31572 O 3026.3 3.11573 -1.7263 0
M  V30 31573 O 3025.16 4.89704 -2.42595 0
M  V30 31574 H 3022.25 0.756148 -0.334917 0
M  V30 31575 H 3024.8 1.09303 -1.29811 0
M  V30 31576 H 3023.57 2.76537 -2.76845 0
M  V30 31577 H 3023.2 3.73773 -1.35572 0
M  V30 31578 N 3024.19 0.99344 1.22346 0
M  V30 31579 C 3025.44 0.670594 1.91392 0
M  V30 31580 C 3025.77 -0.795397 1.77164 0
M  V30 31581 O 3025.05 -1.57526 1.14086 0
M  V30 31582 C 3025.33 1.07796 3.43587 0
M  V30 31583 C 3025.18 2.60254 3.66862 0
M  V30 31584 C 3026.5 0.631603 4.35544 0
M  V30 31585 H 3023.62 0.245093 0.695053 0
M  V30 31586 H 3026.26 1.23706 1.44211 0
M  V30 31587 H 3024.41 0.595969 3.83902 0
M  V30 31588 H 3026.08 3.16127 3.35948 0
M  V30 31589 H 3024.33 3.02298 3.11124 0
M  V30 31590 H 3025 2.83808 4.73452 0
M  V30 31591 H 3027.47 1.04561 4.02748 0
M  V30 31592 H 3026.35 0.944926 5.40705 0
M  V30 31593 H 3026.61 -0.467701 4.39619 0
M  V30 31594 N 3025.67 -1.37693 0.766707 0
M  V30 31595 C 3026.92 -1.99057 0.32546 0
M  V30 31596 C 3027.23 -1.61553 -1.10272 0
M  V30 31597 O 3028.44 -2.15983 -1.6451 0
M  V30 31598 C 3026.89 -3.55962 0.530949 0
M  V30 31599 C 3026.5 -4.02408 1.96906 0
M  V30 31600 C 3028.25 -4.24224 0.153072 0
M  V30 31601 C 3026.15 -5.52003 2.12241 0
M  V30 31602 H 3025.08 -0.744718 0.117942 0
M  V30 31603 H 3027.73 -1.57289 0.945119 0
M  V30 31604 H 3026.12 -3.95684 -0.158092 0
M  V30 31605 H 3027.29 -3.73943 2.69264 0
M  V30 31606 H 3025.61 -3.46912 2.30306 0
M  V30 31607 H 3028.2 -5.34133 0.246234 0
M  V30 31608 H 3028.55 -4.06543 -0.896025 0
M  V30 31609 H 3029.08 -3.89786 0.794467 0
M  V30 31610 H 3025.82 -5.74605 3.15452 0
M  V30 31611 H 3025.34 -5.82168 1.4436 0
M  V30 31612 H 3027.02 -6.17898 1.91861 0
M  V30 31613 N 3027.15 -0.516835 -1.48884 0
M  V30 31614 C 3028.11 0.242216 -2.27917 0
M  V30 31615 C 3029.11 0.879711 -1.34602 0
M  V30 31616 O 3030.3 0.741792 -1.57617 0
M  V30 31617 C 3027.43 1.34909 -3.13069 0
M  V30 31618 H 3028.63 -0.451496 -2.96482 0
M  V30 31619 H 3026.18 -0.272321 -1.53909 0
M  V30 31620 H 3026.91 2.07646 -2.49105 0
M  V30 31621 H 3026.7 0.897246 -3.81696 0
M  V30 31622 H 3028.19 1.88334 -3.7272 0
M  V30 31623 N 3028.63 1.55583 -0.251365 0
M  V30 31624 C 3029.85 2.03906 0.3791 0
M  V30 31625 C 3030.28 1.12931 1.50426 0
M  V30 31626 O 3029.63 0.123146 1.80881 0
M  V30 31627 C 3029.68 3.50194 0.860028 0
M  V30 31628 O 3028.79 3.62345 1.96926 0
M  V30 31629 H 3028.13 0.658916 0.0820067 0
M  V30 31630 H 3030.66 2.01064 -0.378727 0
M  V30 31631 H 3030.67 3.91101 1.16207 0
M  V30 31632 H 3029.34 4.15884 0.0366828 0
M  V30 31633 H 3027.92 3.33336 1.67157 0
M  V30 31634 N 3030.1 -0.0216912 1.57585 0
M  V30 31635 C 3031.33 -0.721538 1.93591 0
M  V30 31636 C 3031.74 -1.69023 0.850161 0
M  V30 31637 O 3031.09 -1.82801 -0.181507 0
M  V30 31638 C 3031.15 -1.52723 3.25447 0
M  V30 31639 C 3030.81 -0.722507 4.51253 0
M  V30 31640 C 3031.81 -0.0195684 5.19896 0
M  V30 31641 C 3029.49 -0.674872 4.97746 0
M  V30 31642 C 3031.49 0.720225 6.33318 0
M  V30 31643 C 3029.17 0.0686624 6.11061 0
M  V30 31644 C 3030.17 0.764964 6.78703 0
M  V30 31645 O 3029.86 1.49641 7.8985 0
M  V30 31646 H 3029.59 -0.207355 0.643413 0
M  V30 31647 H 3032.15 0.0189707 2.05391 0
M  V30 31648 H 3030.38 -2.31172 3.09994 0
M  V30 31649 H 3032.07 -2.11038 3.46724 0
M  V30 31650 H 3032.83 -0.0473541 4.84977 0
M  V30 31651 H 3028.71 -1.20635 4.44936 0
M  V30 31652 H 3032.25 1.26425 6.86048 0
M  V30 31653 H 3028.15 0.0983453 6.45425 0
M  V30 31654 H 3028.92 1.41086 8.06249 0
M  V30 31655 N 3031.58 -1.54832 -0.294093 0
M  V30 31656 C 3032.99 -1.65368 -0.866622 0
M  V30 31657 C 3033.35 -0.566843 -1.87833 0
M  V30 31658 O 3032.47 0.295351 -2.14375 0
M  V30 31659 C 3033.07 -2.99774 -1.57864 0
M  V30 31660 C 3031.62 -3.12408 -2.09948 0
M  V30 31661 C 3030.77 -2.61081 -0.934446 0
M  V30 31662 H 3033.72 -1.58541 -0.0709273 0
M  V30 31663 H 3033.74 -2.91584 -2.44457 0
M  V30 31664 H 3033.26 -3.78855 -0.842053 0
M  V30 31665 H 3031.36 -2.3806 -2.86632 0
M  V30 31666 H 3031.47 -4.18667 -2.32927 0
M  V30 31667 H 3029.83 -2.17707 -1.32195 0
M  V30 31668 H 3030.62 -3.42647 -0.211708 0
M  V30 31669 N 3033.06 0.557619 -1.47405 0
M  V30 31670 C 3034.29 1.33829 -1.57396 0
M  V30 31671 C 3034.7 1.87881 -0.223011 0
M  V30 31672 O 3034.04 1.65663 0.793825 0
M  V30 31673 C 3034.1 2.54523 -2.53886 0
M  V30 31674 C 3033.77 2.2176 -3.99589 0
M  V30 31675 C 3034.77 1.79079 -4.88085 0
M  V30 31676 C 3032.45 2.33132 -4.44921 0
M  V30 31677 C 3034.44 1.48198 -6.19932 0
M  V30 31678 C 3032.13 2.01864 -5.76797 0
M  V30 31679 C 3033.13 1.59464 -6.64124 0
M  V30 31680 O 3032.82 1.28593 -7.93548 0
M  V30 31681 H 3032.55 0.414281 -0.534179 0
M  V30 31682 H 3035.1 0.68237 -1.93734 0
M  V30 31683 H 3033.33 3.23005 -2.12614 0
M  V30 31684 H 3035.02 3.16598 -2.54009 0
M  V30 31685 H 3035.79 1.69786 -4.5431 0
M  V30 31686 H 3031.67 2.65093 -3.77156 0
M  V30 31687 H 3035.21 1.15031 -6.88051 0
M  V30 31688 H 3031.11 2.10788 -6.10114 0
M  V30 31689 H 3031.88 1.42226 -8.06048 0
M  V30 31690 N 3034.54 1.35531 0.804316 0
M  V30 31691 C 3035.5 1.28507 1.89786 0
M  V30 31692 C 3036.5 0.196011 1.59601 0
M  V30 31693 O 3037.69 0.449857 1.68291 0
M  V30 31694 C 3034.82 0.988527 3.26253 0
M  V30 31695 H 3036.02 2.25744 1.97432 0
M  V30 31696 H 3033.57 1.20087 1.00044 0
M  V30 31697 H 3034.31 0.0201111 3.24294 0
M  V30 31698 H 3034.09 1.77647 3.49548 0
M  V30 31699 H 3035.58 0.965046 4.06296 0
M  V30 31700 N 3036.02 -1.02674 1.19565 0
M  V30 31701 C 3037.27 -1.75512 0.993895 0
M  V30 31702 C 3037.58 -1.89724 -0.475849 0
M  V30 31703 O 3038.79 -2.59554 -0.796479 0
M  V30 31704 C 3037.24 -3.15625 1.72942 0
M  V30 31705 C 3036.85 -3.0946 3.23942 0
M  V30 31706 C 3038.59 -3.92744 1.61099 0
M  V30 31707 C 3036.5 -4.44517 3.90075 0
M  V30 31708 H 3035.43 -0.657954 0.368255 0
M  V30 31709 H 3038.08 -1.14889 1.43083 0
M  V30 31710 H 3036.46 -3.76729 1.22031 0
M  V30 31711 H 3037.64 -2.57724 3.81988 0
M  V30 31712 H 3035.95 -2.45837 3.36085 0
M  V30 31713 H 3038.55 -4.92646 2.07856 0
M  V30 31714 H 3038.89 -4.12441 0.565487 0
M  V30 31715 H 3039.43 -3.38246 2.09367 0
M  V30 31716 H 3036.16 -4.30024 4.94732 0
M  V30 31717 H 3035.68 -4.963 3.36818 0
M  V30 31718 H 3037.36 -5.13394 3.93745 0
M  V30 31719 N 3037.5 -0.999914 -1.21817 0
M  V30 31720 C 3038.77 -0.595417 -1.86317 0
M  V30 31721 C 3039.15 0.927109 -1.89652 0
M  V30 31722 O 3038.5 1.81196 -1.39213 0
M  V30 31723 C 3038.71 -1.22393 -3.26835 0
M  V30 31724 C 3040.06 -1.32885 -4.0327 0
M  V30 31725 O 3041.08 -1.17886 -3.36127 0
M  V30 31726 O 3039.94 -1.56961 -5.23474 0
M  V30 31727 H 3037.04 -0.203252 -0.801634 0
M  V30 31728 H 3039.58 -1.09624 -1.2954 0
M  V30 31729 H 3038.35 -2.26503 -3.1908 0
M  V30 31730 H 3037.98 -0.709138 -3.91225 0
M  V30 31731 N 3038.97 1.37284 -0.773999 0
M  V30 31732 C 3039.94 2.28583 -0.168014 0
M  V30 31733 C 3040.94 1.4813 0.625636 0
M  V30 31734 O 3042.13 1.68317 0.448894 0
M  V30 31735 C 3039.26 3.32106 0.769305 0
M  V30 31736 H 3040.45 2.83682 -0.972856 0
M  V30 31737 H 3038 1.46588 -0.542361 0
M  V30 31738 H 3038.74 2.82135 1.59907 0
M  V30 31739 H 3038.52 3.91578 0.20235 0
M  V30 31740 H 3040.01 4.00326 1.18865 0
M  V30 31741 N 3040.45 0.524724 1.48608 0
M  V30 31742 C 3041.7 -0.0112635 2.02097 0
M  V30 31743 C 3042.02 -1.35266 1.40457 0
M  V30 31744 O 3041.29 -1.87482 0.568103 0
M  V30 31745 H 3039.87 -0.00715113 0.746966 0
M  V30 31746 H 3042.53 0.687361 1.82377 0
M  V30 31747 H 3041.63 -0.123476 3.11856 0
M  V30 31748 N 3041.93 -1.55447 0.259613 0
M  V30 31749 C 3042.86 -2.24883 -0.62848 0
M  V30 31750 C 3043.84 -1.23351 -1.17126 0
M  V30 31751 O 3045.03 -1.52035 -1.20826 0
M  V30 31752 C 3042.16 -2.95806 -1.81978 0
M  V30 31753 C 3041.11 -4.04135 -1.40922 0
M  V30 31754 C 3040.44 -4.6255 -2.68238 0
M  V30 31755 C 3041.74 -5.19171 -0.570864 0
M  V30 31756 H 3043.43 -2.99359 -0.0494495 0
M  V30 31757 H 3040.98 -1.43983 -0.0223435 0
M  V30 31758 H 3042.93 -3.43087 -2.44683 0
M  V30 31759 H 3041.65 -2.18839 -2.4244 0
M  V30 31760 H 3040.31 -3.57642 -0.805456 0
M  V30 31761 H 3039.96 -3.82269 -3.26924 0
M  V30 31762 H 3039.66 -5.35685 -2.41486 0
M  V30 31763 H 3041.18 -5.12571 -3.31818 0
M  V30 31764 H 3042.6 -5.62599 -1.10252 0
M  V30 31765 H 3040.99 -5.98773 -0.398874 0
M  V30 31766 H 3042.06 -4.83129 0.414003 0
M  V30 31767 N 3043.41 0.0133338 -1.57594 0
M  V30 31768 C 3044.34 1.0082 -2.10613 0
M  V30 31769 C 3045.32 1.36707 -1.01219 0
M  V30 31770 O 3046.5 1.45315 -1.2883 0
M  V30 31771 C 3043.63 2.30427 -2.59848 0
M  V30 31772 C 3042.59 2.08738 -3.73647 0
M  V30 31773 C 3041.91 3.44243 -4.09147 0
M  V30 31774 C 3043.21 1.46077 -5.01457 0
M  V30 31775 H 3044.91 0.566798 -2.93986 0
M  V30 31776 H 3042.45 0.271194 -1.41423 0
M  V30 31777 H 3044.41 3.00367 -2.95563 0
M  V30 31778 H 3043.13 2.76655 -1.73578 0
M  V30 31779 H 3041.79 1.41227 -3.38306 0
M  V30 31780 H 3041.44 3.88149 -3.1992 0
M  V30 31781 H 3041.14 3.30551 -4.85808 0
M  V30 31782 H 3042.66 4.1552 -4.47409 0
M  V30 31783 H 3044.08 2.05956 -5.35028 0
M  V30 31784 H 3042.47 1.42914 -5.82834 0
M  V30 31785 H 3043.54 0.428386 -4.83004 0
M  V30 31786 N 3044.89 1.54985 0.285878 0
M  V30 31787 C 3045.85 1.8622 1.33621 0
M  V30 31788 C 3046.85 0.735961 1.42969 0
M  V30 31789 O 3048.04 1.0042 1.42343 0
M  V30 31790 C 3045.17 2.056 2.71922 0
M  V30 31791 H 3046.36 2.801 1.07162 0
M  V30 31792 H 3043.92 1.47279 0.523309 0
M  V30 31793 H 3044.65 1.14058 3.03581 0
M  V30 31794 H 3044.44 2.87588 2.66525 0
M  V30 31795 H 3045.93 2.31083 3.47837 0
M  V30 31796 N 3046.36 -0.549794 1.47699 0
M  V30 31797 C 3047.31 -1.65622 1.60742 0
M  V30 31798 C 3048.28 -1.59884 0.450158 0
M  V30 31799 O 3049.47 -1.78606 0.671154 0
M  V30 31800 C 3046.61 -3.03931 1.63462 0
M  V30 31801 C 3045.72 -3.20051 2.90158 0
M  V30 31802 C 3044.85 -4.48802 2.84165 0
M  V30 31803 C 3043.89 -4.5838 4.05652 0
M  V30 31804 N 3043.03 -5.78496 3.97853 0
M  V30 31805 H 3047.87 -1.53812 2.55237 0
M  V30 31806 H 3045.41 -0.749151 1.26594 0
M  V30 31807 H 3047.37 -3.84031 1.63022 0
M  V30 31808 H 3046 -3.14559 0.724744 0
M  V30 31809 H 3045.05 -2.33334 3.00432 0
M  V30 31810 H 3046.36 -3.22992 3.80103 0
M  V30 31811 H 3045.51 -5.37171 2.82015 0
M  V30 31812 H 3044.25 -4.48352 1.91916 0
M  V30 31813 H 3043.26 -3.68423 4.08099 0
M  V30 31814 H 3044.48 -4.60584 4.99038 0
M  V30 31815 H 3042.43 -5.78981 3.08411 0
M  V30 31816 H 3042.35 -5.82846 4.81483 0
M  V30 31817 H 3043.61 -6.69205 3.99731 0
M  V30 31818 N 3047.84 -1.35955 -0.797117 0
M  V30 31819 C 3048.81 -1.29512 -1.89102 0
M  V30 31820 C 3049.81 -0.204472 -1.59495 0
M  V30 31821 O 3051 -0.458775 -1.6805 0
M  V30 31822 C 3048.13 -1.00582 -3.25724 0
M  V30 31823 H 3049.32 -2.26788 -1.96233 0
M  V30 31824 H 3046.87 -1.20616 -0.994053 0
M  V30 31825 H 3047.61 -0.0373089 -3.24279 0
M  V30 31826 H 3047.39 -1.79498 -3.48601 0
M  V30 31827 H 3048.88 -0.98658 -4.05779 0
M  V30 31828 N 3049.32 1.02038 -1.20108 0
M  V30 31829 C 3050.57 1.75229 -1.00693 0
M  V30 31830 C 3050.89 1.89437 0.462457 0
M  V30 31831 O 3050.16 1.43413 1.33453 0
M  V30 31832 H 3048.74 0.649164 -0.369587 0
M  V30 31833 H 3051.4 1.23041 -1.51152 0
M  V30 31834 H 3050.5 2.75734 -1.4621 0
M  V30 31835 N 3050.8 1.00636 1.21285 0
M  V30 31836 C 3051.75 0.567916 2.23704 0
M  V30 31837 C 3052.72 -0.406724 1.61043 0
M  V30 31838 O 3053.9 -0.308466 1.8829 0
M  V30 31839 C 3051.04 -0.0979354 3.44961 0
M  V30 31840 C 3050.15 0.920046 4.22089 0
M  V30 31841 C 3049.29 0.226315 5.30718 0
M  V30 31842 C 3048.33 1.23175 5.99578 0
M  V30 31843 N 3047.46 0.565401 6.9982 0
M  V30 31844 H 3052.3 1.44596 2.60568 0
M  V30 31845 H 3049.84 0.724029 1.28048 0
M  V30 31846 H 3051.8 -0.501024 4.14181 0
M  V30 31847 H 3050.43 -0.93969 3.0882 0
M  V30 31848 H 3049.48 1.44137 3.52035 0
M  V30 31849 H 3050.79 1.68513 4.69473 0
M  V30 31850 H 3049.95 -0.23281 6.06253 0
M  V30 31851 H 3048.69 -0.571161 4.84344 0
M  V30 31852 H 3047.69 1.70137 5.22813 0
M  V30 31853 H 3048.92 2.03033 6.48039 0
M  V30 31854 H 3046.86 -0.212393 6.55656 0
M  V30 31855 H 3046.78 1.26872 7.45278 0
M  V30 31856 H 3048.05 0.129526 7.79392 0
M  V30 31857 N 3052.28 -1.36872 0.781268 0
M  V30 31858 C 3053.19 -2.33946 0.175022 0
M  V30 31859 C 3054.2 -1.60646 -0.668484 0
M  V30 31860 O 3055.38 -1.92681 -0.586179 0
M  V30 31861 C 3052.44 -3.39835 -0.686497 0
M  V30 31862 C 3051.5 -4.28945 0.174564 0
M  V30 31863 C 3050.74 -5.29777 -0.645931 0
M  V30 31864 O 3050.96 -5.38442 -1.88244 0
M  V30 31865 O 3049.89 -6.01879 -0.0501156 0
M  V30 31866 H 3053.72 -2.87541 0.977432 0
M  V30 31867 H 3051.31 -1.39199 0.542584 0
M  V30 31868 H 3053.19 -4.04599 -1.17803 0
M  V30 31869 H 3051.86 -2.88553 -1.46693 0
M  V30 31870 H 3050.77 -3.67249 0.712669 0
M  V30 31871 H 3052.1 -4.83557 0.918317 0
M  V30 31872 N 3053.75 -0.532597 -1.48328 0
M  V30 31873 C 3054.98 -0.00357417 -2.066 0
M  V30 31874 C 3055.39 1.28449 -1.38916 0
M  V30 31875 O 3054.74 1.77548 -0.471416 0
M  V30 31876 C 3054.8 0.288261 -3.58342 0
M  V30 31877 C 3054.46 -0.906709 -4.47915 0
M  V30 31878 C 3055.46 -1.80581 -4.87531 0
M  V30 31879 C 3053.14 -1.11444 -4.89781 0
M  V30 31880 C 3055.14 -2.89652 -5.67785 0
M  V30 31881 C 3052.82 -2.20829 -5.69805 0
M  V30 31882 C 3053.82 -3.09766 -6.08715 0
M  V30 31883 O 3053.51 -4.17258 -6.87132 0
M  V30 31884 H 3053.24 -0.031578 -0.675262 0
M  V30 31885 H 3055.8 -0.738409 -1.91668 0
M  V30 31886 H 3054.03 1.0771 -3.71397 0
M  V30 31887 H 3055.72 0.759681 -3.98728 0
M  V30 31888 H 3056.48 -1.65727 -4.55807 0
M  V30 31889 H 3052.36 -0.431463 -4.58976 0
M  V30 31890 H 3055.9 -3.59098 -5.98076 0
M  V30 31891 H 3051.8 -2.35666 -6.00942 0
M  V30 31892 H 3052.57 -4.15 -7.05491 0
M  V30 31893 N 3055.23 1.55307 -0.267853 0
M  V30 31894 C 3056.48 1.99041 0.350308 0
M  V30 31895 C 3056.8 1.15761 1.56922 0
M  V30 31896 O 3056.07 0.24537 1.94357 0
M  V30 31897 H 3054.65 0.735169 0.132422 0
M  V30 31898 H 3057.31 1.91327 -0.371504 0
M  V30 31899 H 3056.41 3.05359 0.64515 0
M  V30 31900 N 3056.71 -0.00497598 1.57599 0
M  V30 31901 C 3057.64 -0.997013 2.11144 0
M  V30 31902 C 3058.62 -1.36168 1.01943 0
M  V30 31903 O 3059.81 -1.4463 1.29599 0
M  V30 31904 C 3056.94 -2.29045 2.61066 0
M  V30 31905 C 3055.89 -2.06754 3.74749 0
M  V30 31906 C 3055.22 -3.42068 4.10967 0
M  V30 31907 C 3056.52 -1.43415 5.02224 0
M  V30 31908 H 3058.21 -0.551199 2.94282 0
M  V30 31909 H 3055.76 -0.26369 1.41565 0
M  V30 31910 H 3057.71 -2.98796 2.97151 0
M  V30 31911 H 3056.43 -2.75731 1.75043 0
M  V30 31912 H 3055.09 -1.3943 3.3905 0
M  V30 31913 H 3054.74 -3.86447 3.21974 0
M  V30 31914 H 3054.44 -3.2797 4.87554 0
M  V30 31915 H 3055.96 -4.13142 4.49607 0
M  V30 31916 H 3057.38 -2.03116 5.36113 0
M  V30 31917 H 3055.78 -1.39821 5.83584 0
M  V30 31918 H 3056.85 -0.402765 4.83224 0
M  V30 31919 N 3058.19 -1.55135 -0.277654 0
M  V30 31920 C 3059.42 -1.79541 -1.02823 0
M  V30 31921 C 3059.83 -0.566405 -1.80104 0
M  V30 31922 O 3059.19 0.464417 -1.76492 0
M  V30 31923 C 3059.24 -3.01765 -1.99047 0
M  V30 31924 O 3058.96 -4.19919 -1.24898 0
M  V30 31925 C 3060.46 -3.3874 -2.85955 0
M  V30 31926 H 3057.68 -0.598212 -0.303947 0
M  V30 31927 H 3060.23 -2.02139 -0.309849 0
M  V30 31928 H 3058.38 -2.81308 -2.66354 0
M  V30 31929 H 3058.79 -4.88987 -1.89717 0
M  V30 31930 H 3060.27 -4.27444 -3.49279 0
M  V30 31931 H 3060.75 -2.57934 -3.55481 0
M  V30 31932 H 3061.35 -3.6144 -2.24146 0
M  V30 31933 N 3059.67 0.541953 -1.47989 0
M  V30 31934 C 3060.6 1.66387 -1.56175 0
M  V30 31935 C 3061.58 1.5727 -0.412906 0
M  V30 31936 O 3062.76 1.77913 -0.622847 0
M  V30 31937 C 3059.89 3.04723 -1.47857 0
M  V30 31938 C 3058.93 3.32237 -2.67434 0
M  V30 31939 S 3059.77 3.19817 -4.29508 0
M  V30 31940 C 3060.92 4.60621 -4.23768 0
M  V30 31941 H 3061.16 1.5919 -2.51089 0
M  V30 31942 H 3058.69 0.723981 -1.36374 0
M  V30 31943 H 3060.65 3.8451 -1.43744 0
M  V30 31944 H 3059.31 3.09371 -0.543012 0
M  V30 31945 H 3058.5 4.33125 -2.57719 0
M  V30 31946 H 3058.1 2.60098 -2.68747 0
M  V30 31947 H 3060.4 5.51894 -3.92963 0
M  V30 31948 H 3061.34 4.75391 -5.24794 0
M  V30 31949 H 3061.75 4.39383 -3.54405 0
M  V30 31950 N 3061.15 1.36376 0.789896 0
M  V30 31951 C 3062.37 1.33732 1.57871 0
M  V30 31952 C 3062.79 -0.0815212 1.88624 0
M  V30 31953 O 3062.15 -1.03828 1.50087 0
M  V30 31954 C 3062.2 2.1583 2.89999 0
M  V30 31955 O 3061.92 3.52184 2.60572 0
M  V30 31956 C 3063.42 2.20962 3.84305 0
M  V30 31957 H 3060.64 0.458756 0.489677 0
M  V30 31958 H 3063.18 1.79467 0.980404 0
M  V30 31959 H 3061.34 1.73652 3.463 0
M  V30 31960 H 3061.75 3.95017 3.45053 0
M  V30 31961 H 3063.23 2.82765 4.74076 0
M  V30 31962 H 3063.7 1.21294 4.22119 0
M  V30 31963 H 3064.31 2.63374 3.33937 0
M  V30 31964 N 3062.62 -1.014 1.20647 0
M  V30 31965 C 3064.03 -1.56488 1.01826 0
M  V30 31966 C 3064.39 -1.91551 -0.424596 0
M  V30 31967 O 3063.51 -1.72516 -1.30641 0
M  V30 31968 C 3064.11 -2.84343 1.84213 0
M  V30 31969 C 3062.66 -3.3595 1.69749 0
M  V30 31970 C 3061.81 -2.0923 1.81984 0
M  V30 31971 H 3064.76 -0.837516 1.34801 0
M  V30 31972 H 3064.78 -3.55858 1.34704 0
M  V30 31973 H 3064.3 -2.58792 2.8922 0
M  V30 31974 H 3062.4 -3.66455 0.673897 0
M  V30 31975 H 3062.51 -4.07977 2.5118 0
M  V30 31976 H 3060.87 -2.21806 1.25197 0
M  V30 31977 H 3061.66 -1.86102 2.8848 0
M  V30 31978 N 3064.1 -1.01278 -1.2075 0
M  V30 31979 C 3065.06 -0.584622 -2.21619 0
M  V30 31980 C 3066.06 0.343187 -1.57095 0
M  V30 31981 O 3067.25 0.132402 -1.73696 0
M  V30 31982 C 3064.39 0.146812 -3.40584 0
M  V30 31983 H 3065.58 -1.4769 -2.61013 0
M  V30 31984 H 3063.13 -0.802147 -1.34147 0
M  V30 31985 H 3063.87 1.05418 -3.06688 0
M  V30 31986 H 3063.65 -0.519648 -3.88641 0
M  V30 31987 H 3065.14 0.433851 -4.1534 0
M  V30 31988 N 3065.58 1.36456 -0.788516 0
M  V30 31989 C 3066.86 1.9352 -0.284518 0
M  V30 31990 C 3067.24 1.72052 1.22317 0
M  V30 31991 O 3066.58 1.07895 2.01422 0
M  V30 31992 C 3066.79 3.42387 -0.676166 0
M  V30 31993 C 3068.14 4.19511 -0.655401 0
M  V30 31994 O 3069.17 3.50823 -0.616584 0
M  V30 31995 O 3068.03 5.42031 -0.697486 0
M  V30 31996 H 3065.12 0.824016 -0.0701914 0
M  V30 31997 H 3067.67 1.45642 -0.870999 0
M  V30 31998 H 3066.44 3.51665 -1.71602 0
M  V30 31999 H 3066.06 3.97549 -0.0635216 0
M  V30 32000 N 3067.06 0.540456 1.48043 0
M  V30 32001 C 3068 -0.216556 2.29782 0
M  V30 32002 C 3068.97 -0.92407 1.38022 0
M  V30 32003 O 3070.16 -0.923049 1.66986 0
M  V30 32004 C 3067.3 -1.25104 3.21625 0
M  V30 32005 C 3066.41 -0.551309 4.28468 0
M  V30 32006 C 3065.55 -1.56963 5.0748 0
M  V30 32007 C 3064.59 -0.853942 6.06114 0
M  V30 32008 N 3063.72 -1.8183 6.78146 0
M  V30 32009 H 3068.56 0.48663 2.94 0
M  V30 32010 H 3066.1 0.251815 1.44929 0
M  V30 32011 H 3068.06 -1.86323 3.73282 0
M  V30 32012 H 3066.69 -1.92248 2.59308 0
M  V30 32013 H 3065.74 0.175049 3.79997 0
M  V30 32014 H 3067.05 0.0101419 4.98799 0
M  V30 32015 H 3066.21 -2.25582 5.63203 0
M  V30 32016 H 3064.95 -2.16499 4.37012 0
M  V30 32017 H 3063.95 -0.153741 5.49585 0
M  V30 32018 H 3065.18 -0.264556 6.78584 0
M  V30 32019 H 3063.12 -2.40254 6.10421 0
M  V30 32020 H 3063.04 -1.30856 7.44589 0
M  V30 32021 H 3064.31 -2.49615 7.38453 0
M  V30 32022 N 3068.54 -1.55163 0.276085 0
M  V30 32023 C 3069.76 -2.04483 -0.346612 0
M  V30 32024 C 3070.19 -1.1531 -1.48611 0
M  V30 32025 O 3069.54 -0.151907 -1.80662 0
M  V30 32026 C 3069.59 -3.51518 -0.804207 0
M  V30 32027 O 3068.7 -3.65432 -1.91136 0
M  V30 32028 H 3068.04 -0.660138 -0.0715135 0
M  V30 32029 H 3070.57 -2.00436 0.410667 0
M  V30 32030 H 3070.58 -3.929 -1.0997 0
M  V30 32031 H 3069.25 -4.1589 0.0294854 0
M  V30 32032 H 3067.83 -3.35953 -1.61833 0
M  V30 32033 N 3070.01 -0.00338196 -1.576 0
M  V30 32034 C 3070.98 0.971801 -2.07578 0
M  V30 32035 C 3071.98 1.27036 -0.985819 0
M  V30 32036 O 3073.17 1.21498 -1.24835 0
M  V30 32037 C 3070.3 2.29576 -2.52007 0
M  V30 32038 H 3071.49 0.53943 -2.95009 0
M  V30 32039 H 3069.04 0.244159 -1.54381 0
M  V30 32040 H 3069.78 2.77495 -1.6783 0
M  V30 32041 H 3069.56 2.09225 -3.31613 0
M  V30 32042 H 3071.05 2.99525 -2.90988 0
M  V30 32043 N 3071.49 1.5528 0.269423 0
M  V30 32044 C 3072.72 1.80084 1.01869 0
M  V30 32045 C 3073.13 0.575948 1.79801 0
M  V30 32046 O 3072.49 -0.45505 1.76736 0
M  V30 32047 C 3072.54 3.02817 1.97444 0
M  V30 32048 O 3072.26 4.20576 1.2267 0
M  V30 32049 C 3073.76 3.40252 2.84154 0
M  V30 32050 H 3070.98 0.599815 0.30077 0
M  V30 32051 H 3073.53 2.02301 0.299124 0
M  V30 32052 H 3071.68 2.82716 2.64859 0
M  V30 32053 H 3072.1 4.89986 1.87121 0
M  V30 32054 H 3073.57 4.2929 3.47007 0
M  V30 32055 H 3074.05 2.59815 3.54108 0
M  V30 32056 H 3074.65 3.62624 2.22226 0
M  V30 32057 N 3072.97 -0.534097 1.48274 0
M  V30 32058 C 3074.22 -1.29015 1.56082 0
M  V30 32059 C 3074.54 -1.931 0.232946 0
M  V30 32060 O 3073.8 -1.7964 -0.776389 0
M  V30 32061 C 3074.1 -2.40394 2.64472 0
M  V30 32062 C 3073.76 -1.93988 4.07037 0
M  V30 32063 C 3072.43 -1.8105 4.45841 0
M  V30 32064 C 3074.78 -1.58868 4.96397 0
M  V30 32065 C 3072.11 -1.3132 5.71814 0
M  V30 32066 C 3074.46 -1.10603 6.22856 0
M  V30 32067 C 3073.12 -0.962779 6.6052 0
M  V30 32068 H 3072.39 -0.472098 0.571143 0
M  V30 32069 H 3075.04 -0.596468 1.81974 0
M  V30 32070 H 3073.34 -3.15414 2.32424 0
M  V30 32071 H 3075.04 -2.98533 2.6773 0
M  V30 32072 H 3071.63 -2.05008 3.7639 0
M  V30 32073 H 3075.82 -1.67726 4.67099 0
M  V30 32074 H 3071.07 -1.18914 5.99725 0
M  V30 32075 H 3075.25 -0.824974 6.91496 0
M  V30 32076 H 3072.87 -0.575236 7.5802 0
M  V30 32077 N 3074.45 -1.36793 -0.782652 0
M  V30 32078 C 3075.4 -1.31741 -1.91695 0
M  V30 32079 C 3076.39 -0.208024 -1.68118 0
M  V30 32080 O 3077.6 -0.375424 -1.76041 0
M  V30 32081 H 3073.97 -0.410295 -0.630208 0
M  V30 32082 H 3075.94 -2.27519 -1.93074 0
M  V30 32083 C 3074.69 -1.13035 -3.28814 0
M  V30 32084 H 3074.01 -1.9765 -3.47527 0
M  V30 32085 H 3075.45 -1.13548 -4.08513 0
M  V30 32086 C 3073.91 0.164641 -3.36497 0
M  V30 32087 O 3074.44 1.15209 -3.84824 0
M  V30 32088 N 3072.65 0.211627 -2.89828 0
M  V30 32089 H 3072.2 -0.592564 -2.50692 0
M  V30 32090 H 3072.15 1.07774 -2.95351 0
M  V30 32091 N 3075.93 1.00759 -1.21184 0
M  V30 32092 C 3076.87 2.11603 -0.965766 0
M  V30 32093 C 3077.87 1.69181 0.0860731 0
M  V30 32094 O 3079.07 1.79882 -0.0650874 0
M  V30 32095 H 3075.45 0.691707 -0.295035 0
M  V30 32096 H 3077.42 2.29537 -1.90671 0
M  V30 32097 C 3076.17 3.43414 -0.544225 0
M  V30 32098 H 3075.49 3.76489 -1.34521 0
M  V30 32099 H 3076.93 4.22 -0.411342 0
M  V30 32100 C 3075.39 3.2857 0.744525 0
M  V30 32101 O 3075.92 3.59078 1.80071 0
M  V30 32102 N 3074.13 2.81792 0.710034 0
M  V30 32103 H 3073.67 2.57164 -0.149755 0
M  V30 32104 H 3073.63 2.72242 1.57264 0
M  V30 32105 N 3077.4 1.01917 1.20211 0
M  V30 32106 C 3078.65 0.71104 1.89926 0
M  V30 32107 C 3078.98 -0.757638 1.78811 0
M  V30 32108 O 3078.26 -1.55071 1.17402 0
M  V30 32109 C 3078.54 1.15059 3.41223 0
M  V30 32110 C 3078.39 2.67977 3.61259 0
M  V30 32111 C 3079.71 0.723846 4.34107 0
M  V30 32112 H 3076.83 0.259781 0.689698 0
M  V30 32113 H 3079.47 1.26737 1.41555 0
M  V30 32114 H 3077.62 0.677267 3.82551 0
M  V30 32115 H 3079.3 3.23182 3.29167 0
M  V30 32116 H 3077.54 3.08829 3.04642 0
M  V30 32117 H 3078.21 2.93787 4.67326 0
M  V30 32118 H 3080.69 1.1308 4.0044 0
M  V30 32119 H 3079.56 1.0594 5.38579 0
M  V30 32120 H 3079.82 -0.374346 4.40512 0
M  V30 32121 N 3078.88 -1.36036 0.795742 0
M  V30 32122 C 3080.11 -2.03321 0.383189 0
M  V30 32123 C 3080.53 -1.5999 -1.00243 0
M  V30 32124 O 3079.88 -0.792294 -1.64405 0
M  V30 32125 C 3079.93 -3.58756 0.44453 0
M  V30 32126 O 3079.65 -4.00509 1.77551 0
M  V30 32127 C 3081.16 -4.43294 0.023407 0
M  V30 32128 H 3078.38 -0.652357 0.157073 0
M  V30 32129 H 3080.92 -1.73882 1.07635 0
M  V30 32130 H 3079.07 -3.86882 -0.200273 0
M  V30 32131 H 3079.49 -4.95122 1.73073 0
M  V30 32132 H 3080.96 -5.51875 0.117458 0
M  V30 32133 H 3081.44 -4.26952 -1.02999 0
M  V30 32134 H 3082.05 -4.20443 0.640943 0
M  V30 32135 N 3080.36 -0.5483 -1.47755 0
M  V30 32136 C 3081.61 -0.0291595 -2.03379 0
M  V30 32137 C 3081.96 1.30253 -1.41605 0
M  V30 32138 O 3081.25 1.8326 -0.559134 0
M  V30 32139 C 3081.45 0.131006 -3.5716 0
M  V30 32140 C 3081.28 -1.18361 -4.33844 0
M  V30 32141 C 3080.05 -1.74849 -4.74084 0
M  V30 32142 C 3082.25 -2.09869 -4.69531 0
M  V30 32143 N 3080.23 -3.00408 -5.35377 0
M  V30 32144 C 3081.6 -3.20006 -5.31033 0
M  V30 32145 C 3083.65 -2.09972 -4.5146 0
M  V30 32146 C 3082.36 -4.30333 -5.76373 0
M  V30 32147 C 3084.38 -3.19306 -4.97793 0
M  V30 32148 C 3083.74 -4.28162 -5.59336 0
M  V30 32149 H 3079.84 -0.0526174 -0.780228 0
M  V30 32150 H 3082.43 -0.733625 -1.8035 0
M  V30 32151 H 3080.6 0.80458 -3.79975 0
M  V30 32152 H 3082.33 0.651406 -3.99423 0
M  V30 32153 H 3079.09 -1.28758 -4.55761 0
M  V30 32154 H 3079.51 -3.64382 -5.70574 0
M  V30 32155 H 3084.15 -1.271 -4.03244 0
M  V30 32156 H 3081.87 -5.13972 -6.23585 0
M  V30 32157 H 3085.46 -3.20462 -4.85587 0
M  V30 32158 H 3084.34 -5.11368 -5.94535 0
M  V30 32159 N 3081.84 1.55014 -0.28431 0
M  V30 32160 C 3082.75 2.26557 0.60902 0
M  V30 32161 C 3083.76 1.29474 1.16244 0
M  V30 32162 O 3084.94 1.62427 1.19078 0
M  V30 32163 C 3082.01 2.97971 1.77241 0
M  V30 32164 C 3081.07 4.10554 1.25475 0
M  V30 32165 C 3080.3 4.78553 2.36269 0
M  V30 32166 O 3080.52 4.45811 3.55821 0
M  V30 32167 O 3079.46 5.6631 2.03904 0
M  V30 32168 H 3083.28 3.03686 0.0291764 0
M  V30 32169 H 3080.87 1.49312 -0.0513728 0
M  V30 32170 H 3082.75 3.4282 2.45056 0
M  V30 32171 H 3081.42 2.23751 2.33917 0
M  V30 32172 H 3080.33 3.70141 0.542794 0
M  V30 32173 H 3081.66 4.86702 0.733623 0
M  V30 32174 N 3083.32 0.0117398 1.57596 0
M  V30 32175 C 3084.26 -0.993998 2.10291 0
M  V30 32176 C 3085.26 -1.34831 1.02552 0
M  V30 32177 O 3086.46 -1.33258 1.21005 0
M  V30 32178 H 3082.84 -0.338256 0.67163 0
M  V30 32179 H 3084.81 -0.524095 2.93761 0
M  V30 32180 C 3083.56 -2.27314 2.63103 0
M  V30 32181 H 3082.88 -2.00921 3.45645 0
M  V30 32182 H 3084.32 -2.95937 3.0364 0
M  V30 32183 C 3082.78 -2.99101 1.55049 0
M  V30 32184 O 3083.31 -3.90542 0.940195 0
M  V30 32185 N 3081.52 -2.61131 1.27511 0
M  V30 32186 H 3081.06 -1.86852 1.77325 0
M  V30 32187 H 3081.02 -3.09474 0.554347 0
M  V30 32188 N 3084.79 -1.55421 -0.261185 0
M  V30 32189 C 3086.04 -1.76844 -0.992667 0
M  V30 32190 C 3086.37 -0.57446 -1.85509 0
M  V30 32191 O 3085.65 0.427679 -1.8974 0
M  V30 32192 C 3085.93 -3.08026 -1.86527 0
M  V30 32193 C 3085.78 -4.37801 -1.03199 0
M  V30 32194 C 3087.1 -3.35329 -2.8503 0
M  V30 32195 H 3084.22 -0.643394 -0.359461 0
M  V30 32196 H 3086.86 -1.88154 -0.264181 0
M  V30 32197 H 3085.01 -2.98515 -2.48639 0
M  V30 32198 H 3086.69 -4.59285 -0.430662 0
M  V30 32199 H 3084.93 -4.32498 -0.335835 0
M  V30 32200 H 3085.6 -5.25941 -1.67601 0
M  V30 32201 H 3088.08 -3.4471 -2.33053 0
M  V30 32202 H 3086.95 -4.2836 -3.43218 0
M  V30 32203 H 3087.21 -2.55543 -3.60763 0
M  V30 32204 N 3086.27 0.526227 -1.48555 0
M  V30 32205 C 3087.5 1.3065 -1.60432 0
M  V30 32206 C 3087.92 1.86917 -0.265996 0
M  V30 32207 O 3087.27 1.66591 0.745232 0
M  V30 32208 C 3087.32 2.45469 -2.65382 0
M  V30 32209 O 3087.04 1.9152 -3.9402 0
M  V30 32210 C 3088.55 3.37232 -2.87732 0
M  V30 32211 H 3085.77 0.397178 -0.540824 0
M  V30 32212 H 3088.31 0.634427 -1.9441 0
M  V30 32213 H 3086.46 3.08553 -2.34251 0
M  V30 32214 H 3086.88 2.66707 -4.51628 0
M  V30 32215 H 3088.35 4.14137 -3.64958 0
M  V30 32216 H 3088.83 3.92693 -1.96695 0
M  V30 32217 H 3089.44 2.79937 -3.20181 0
M  V30 32218 N 3087.75 1.37206 0.775387 0
M  V30 32219 C 3089 1.32213 1.53381 0
M  V30 32220 C 3089.33 -0.0944616 1.9427 0
M  V30 32221 O 3088.58 -1.06689 1.64061 0
M  V30 32222 C 3088.88 2.20372 2.81373 0
M  V30 32223 C 3088.55 3.68704 2.59554 0
M  V30 32224 C 3087.21 4.09129 2.53312 0
M  V30 32225 C 3089.56 4.62691 2.39931 0
M  V30 32226 C 3086.89 5.41662 2.25432 0
M  V30 32227 C 3089.24 5.95456 2.13575 0
M  V30 32228 C 3087.9 6.3499 2.05775 0
M  V30 32229 H 3087.17 0.483803 0.561262 0
M  V30 32230 H 3089.82 1.69381 0.893436 0
M  V30 32231 H 3088.13 1.76187 3.4995 0
M  V30 32232 H 3089.82 2.13825 3.39234 0
M  V30 32233 H 3086.41 3.36642 2.65274 0
M  V30 32234 H 3090.6 4.32321 2.43746 0
M  V30 32235 H 3085.85 5.71258 2.17886 0
M  V30 32236 H 3090.03 6.6784 1.97389 0
M  V30 32237 H 3087.65 7.37612 1.83935 0
M  V30 32238 N 3089.23 -1.00115 1.21716 0
M  V30 32239 C 3090.16 -2.10813 1.004 0
M  V30 32240 C 3091.14 -1.69946 -0.0723203 0
M  V30 32241 O 3092.32 -1.93999 0.0882739 0
M  V30 32242 C 3089.45 -3.42556 0.572061 0
M  V30 32243 C 3088.41 -3.97235 1.59338 0
M  V30 32244 C 3087.73 -5.24929 1.01755 0
M  V30 32245 C 3089.03 -4.28858 2.98125 0
M  V30 32246 H 3090.73 -2.28903 1.92987 0
M  V30 32247 H 3088.27 -1.10001 0.929292 0
M  V30 32248 H 3090.23 -4.194 0.410092 0
M  V30 32249 H 3088.95 -3.2427 -0.389453 0
M  V30 32250 H 3087.61 -3.22515 1.74298 0
M  V30 32251 H 3087.26 -5.02977 0.0476375 0
M  V30 32252 H 3086.96 -5.62478 1.69979 0
M  V30 32253 H 3088.48 -6.04414 0.866987 0
M  V30 32254 H 3089.9 -4.96529 2.86586 0
M  V30 32255 H 3088.29 -4.77559 3.63397 0
M  V30 32256 H 3089.36 -3.36973 3.4868 0
M  V30 32257 N 3090.71 -1.02553 -1.19669 0
M  V30 32258 C 3091.65 -0.603433 -2.22772 0
M  V30 32259 C 3092.62 0.381052 -1.6167 0
M  V30 32260 O 3093.81 0.278472 -1.88757 0
M  V30 32261 C 3090.95 0.0430427 -3.45073 0
M  V30 32262 C 3090.06 -0.98708 -4.20572 0
M  V30 32263 C 3089.2 -0.310719 -5.3029 0
M  V30 32264 C 3088.24 -1.32698 -5.97543 0
M  V30 32265 N 3087.37 -0.676665 -6.98832 0
M  V30 32266 H 3092.21 -1.48723 -2.58235 0
M  V30 32267 H 3089.75 -0.744308 -1.2688 0
M  V30 32268 H 3091.71 0.435068 -4.14925 0
M  V30 32269 H 3090.34 0.890441 -3.10276 0
M  V30 32270 H 3089.39 -1.49719 -3.49697 0
M  V30 32271 H 3090.7 -1.7596 -4.66733 0
M  V30 32272 H 3089.86 0.136331 -6.06547 0
M  V30 32273 H 3088.6 0.494034 -4.85191 0
M  V30 32274 H 3087.6 -1.78433 -5.2004 0
M  V30 32275 H 3088.83 -2.13317 -6.44727 0
M  V30 32276 H 3086.77 0.108057 -6.55911 0
M  V30 32277 H 3086.69 -1.38712 -7.43165 0
M  V30 32278 H 3087.96 -0.253504 -7.79088 0
M  V30 32279 N 3092.19 1.35612 -0.802945 0
M  V30 32280 C 3093.6 1.52013 -0.48624 0
M  V30 32281 C 3093.8 1.75323 0.993188 0
M  V30 32282 O 3092.86 1.79254 1.77832 0
M  V30 32283 C 3094.17 2.69765 -1.32844 0
M  V30 32284 C 3095.72 2.83641 -1.32351 0
M  V30 32285 C 3096.19 4.04413 -2.14974 0
M  V30 32286 N 3097.68 4.11584 -2.12491 0
M  V30 32287 C 3098.42 5.04142 -2.73182 0
M  V30 32288 N 3097.92 6.02055 -3.42785 0
M  V30 32289 N 3099.71 4.9686 -2.62843 0
M  V30 32290 H 3091.86 1.18738 -1.76111 0
M  V30 32291 H 3094.12 0.580645 -0.74937 0
M  V30 32292 H 3093.83 2.59106 -2.37817 0
M  V30 32293 H 3093.7 3.64271 -0.979122 0
M  V30 32294 H 3096.09 2.93753 -0.281638 0
M  V30 32295 H 3096.17 1.90003 -1.71267 0
M  V30 32296 H 3095.81 3.95062 -3.19199 0
M  V30 32297 H 3095.74 4.97225 -1.7342 0
M  V30 32298 H 3098.24 3.41489 -1.61845 0
M  V30 32299 H 3098.55 6.6927 -3.8639 0
M  V30 32300 H 3096.89 6.0224 -3.46889 0
M  V30 32301 H 3100.08 4.19321 -2.08057 0
M  V30 32302 H 3100.26 5.68803 -3.10431 0
M  V30 32303 N 3093.66 0.556128 1.47462 0
M  V30 32304 C 3094.91 0.0316693 2.02475 0
M  V30 32305 C 3095.24 -1.31774 1.43059 0
M  V30 32306 O 3094.49 -1.8705 0.575409 0
M  V30 32307 C 3094.79 -0.112063 3.57224 0
M  V30 32308 C 3094.46 1.16632 4.35555 0
M  V30 32309 C 3093.12 1.51662 4.56675 0
M  V30 32310 C 3095.47 2.01351 4.80736 0
M  V30 32311 C 3092.8 2.71259 5.20226 0
M  V30 32312 C 3095.15 3.2015 5.45607 0
M  V30 32313 C 3093.82 3.55494 5.64961 0
M  V30 32314 H 3093.09 0.0115886 0.740909 0
M  V30 32315 H 3095.73 0.727423 1.77146 0
M  V30 32316 H 3094.04 -0.890775 3.8154 0
M  V30 32317 H 3095.74 -0.533191 3.97439 0
M  V30 32318 H 3092.33 0.883563 4.19394 0
M  V30 32319 H 3096.51 1.75595 4.64198 0
M  V30 32320 H 3091.77 2.98813 5.33405 0
M  V30 32321 H 3095.94 3.86083 5.7958 0
M  V30 32322 H 3093.57 4.48261 6.13976 0
M  V30 32323 N 3095.14 -1.54861 0.292527 0
M  V30 32324 C 3096.39 -1.99968 -0.319228 0
M  V30 32325 C 3096.72 -1.18094 -1.54544 0
M  V30 32326 O 3095.97 -0.243003 -1.94185 0
M  V30 32327 C 3096.27 -3.49894 -0.728612 0
M  V30 32328 C 3095.94 -4.49167 0.394915 0
M  V30 32329 C 3094.6 -4.76032 0.703373 0
M  V30 32330 C 3096.95 -5.08329 1.15112 0
M  V30 32331 C 3094.28 -5.59322 1.77131 0
M  V30 32332 C 3096.63 -5.92781 2.20891 0
M  V30 32333 C 3095.29 -6.1796 2.52353 0
M  V30 32334 H 3094.56 -0.731735 -0.116814 0
M  V30 32335 H 3097.21 -1.87062 0.409863 0
M  V30 32336 H 3095.52 -3.60366 -1.53766 0
M  V30 32337 H 3097.21 -3.82214 -1.21298 0
M  V30 32338 H 3093.8 -4.28357 0.144394 0
M  V30 32339 H 3097.99 -4.87583 0.926076 0
M  V30 32340 H 3093.24 -5.77071 2.01989 0
M  V30 32341 H 3097.42 -6.37653 2.7995 0
M  V30 32342 H 3095.04 -6.8229 3.35237 0
M  V30 32343 N 3096.62 -0.0200973 -1.57587 0
M  V30 32344 C 3098.04 0.336209 -1.56019 0
M  V30 32345 C 3098.24 1.73493 -1.02481 0
M  V30 32346 O 3097.29 2.43517 -0.66753 0
M  V30 32347 C 3098.6 0.193059 -3.0008 0
M  V30 32348 C 3100.15 0.266502 -3.11863 0
M  V30 32349 C 3100.63 0.152246 -4.57747 0
M  V30 32350 N 3102.12 0.209515 -4.62726 0
M  V30 32351 C 3102.85 0.144754 -5.73217 0
M  V30 32352 N 3102.35 0.0294269 -6.92794 0
M  V30 32353 N 3104.14 0.198085 -5.61751 0
M  V30 32354 H 3096.29 -0.934853 -1.9072 0
M  V30 32355 H 3098.56 -0.360202 -0.876903 0
M  V30 32356 H 3098.26 -0.770096 -3.43165 0
M  V30 32357 H 3098.14 0.966965 -3.64595 0
M  V30 32358 H 3100.52 1.22011 -2.68696 0
M  V30 32359 H 3100.6 -0.537624 -2.50086 0
M  V30 32360 H 3100.25 -0.797906 -5.01593 0
M  V30 32361 H 3100.18 0.975119 -5.17493 0
M  V30 32362 H 3102.67 0.299163 -3.76714 0
M  V30 32363 H 3102.98 -0.0135429 -7.72799 0
M  V30 32364 H 3101.33 -0.00522954 -6.95 0
M  V30 32365 H 3104.52 0.286521 -4.67222 0
M  V30 32366 H 3104.69 0.144152 -6.4784 0
M  V30 32367 N 3098.1 1.55557 0.252939 0
M  V30 32368 C 3099.06 1.89013 1.29641 0
M  V30 32369 C 3100.06 0.766121 1.41376 0
M  V30 32370 O 3101.25 1.03416 1.40181 0
M  V30 32371 C 3098.38 2.11321 2.675 0
M  V30 32372 H 3099.58 2.8231 1.01197 0
M  V30 32373 H 3097.13 1.48356 0.491951 0
M  V30 32374 H 3097.86 1.20472 3.01093 0
M  V30 32375 H 3097.65 2.93177 2.60365 0
M  V30 32376 H 3099.14 2.38409 3.42857 0
M  V30 32377 N 3099.58 -0.518341 1.48832 0
M  V30 32378 C 3100.85 -1.27963 1.47935 0
M  V30 32379 C 3101.23 -2.10175 0.19743 0
M  V30 32380 O 3100.58 -2.13256 -0.820619 0
M  V30 32381 C 3100.79 -2.15116 2.7482 0
M  V30 32382 C 3102.14 -2.74875 3.23618 0
M  V30 32383 O 3103.16 -2.25395 2.75818 0
M  V30 32384 O 3102.02 -3.64906 4.06824 0
M  V30 32385 H 3099.12 -0.578154 0.591327 0
M  V30 32386 H 3101.66 -0.534037 1.61078 0
M  V30 32387 H 3100.43 -1.54228 3.59624 0
M  V30 32388 H 3100.06 -2.96901 2.64454 0
M  V30 32389 N 3101.05 -1.37615 -0.7681 0
M  V30 32390 C 3101.96 -1.35875 -1.91246 0
M  V30 32391 C 3102.98 -0.257816 -1.72079 0
M  V30 32392 O 3104.16 -0.493817 -1.95252 0
M  V30 32393 C 3101.22 -1.16834 -3.26421 0
M  V30 32394 C 3100.28 -2.366 -3.58216 0
M  V30 32395 C 3099.51 -2.18459 -4.86941 0
M  V30 32396 O 3099.74 -1.17074 -5.58256 0
M  V30 32397 O 3098.67 -3.06727 -5.17882 0
M  V30 32398 H 3102.5 -2.32267 -1.95667 0
M  V30 32399 H 3100.08 -1.18383 -0.911361 0
M  V30 32400 H 3101.96 -1.08219 -4.07267 0
M  V30 32401 H 3100.64 -0.23518 -3.22845 0
M  V30 32402 H 3099.55 -2.50788 -2.7759 0
M  V30 32403 H 3100.88 -3.28496 -3.66539 0
M  V30 32404 N 3102.53 0.994677 -1.22245 0
M  V30 32405 C 3103.46 2.08642 -0.948742 0
M  V30 32406 C 3104.48 1.62641 0.0719763 0
M  V30 32407 O 3105.67 1.77765 -0.161809 0
M  V30 32408 C 3102.77 3.36472 -0.404945 0
M  V30 32409 C 3101.94 4.11512 -1.48246 0
M  V30 32410 C 3101 5.17625 -0.946061 0
M  V30 32411 O 3100.02 5.45306 -1.63186 0
M  V30 32412 N 3101.23 5.8003 0.233448 0
M  V30 32413 H 3103.99 2.32704 -1.88862 0
M  V30 32414 H 3101.55 1.1603 -1.1291 0
M  V30 32415 H 3103.54 4.04688 -0.0314614 0
M  V30 32416 H 3102.11 3.09488 0.440006 0
M  V30 32417 H 3101.33 3.37952 -2.02934 0
M  V30 32418 H 3102.62 4.58418 -2.20749 0
M  V30 32419 H 3102.02 5.59908 0.807462 0
M  V30 32420 H 3100.58 6.49489 0.548336 0
M  V30 32421 N 3104.01 1.03186 1.19123 0
M  V30 32422 C 3105.26 0.730063 1.88882 0
M  V30 32423 C 3105.58 -0.74157 1.79808 0
M  V30 32424 O 3104.84 -1.55601 1.18688 0
M  V30 32425 C 3105.14 1.13047 3.3905 0
M  V30 32426 C 3104.8 2.60088 3.68327 0
M  V30 32427 C 3103.47 3.00261 3.76028 0
M  V30 32428 C 3105.82 3.55205 3.81416 0
M  V30 32429 C 3103.15 4.34458 3.94288 0
M  V30 32430 C 3105.5 4.8911 4.01191 0
M  V30 32431 C 3104.16 5.28966 4.07125 0
M  V30 32432 H 3103.43 0.267149 0.691167 0
M  V30 32433 H 3106.08 1.29526 1.41051 0
M  V30 32434 H 3104.38 0.483929 3.888 0
M  V30 32435 H 3106.08 0.874437 3.9135 0
M  V30 32436 H 3102.67 2.27968 3.62944 0
M  V30 32437 H 3106.86 3.25319 3.74808 0
M  V30 32438 H 3102.11 4.64869 3.97123 0
M  V30 32439 H 3106.29 5.62724 4.10261 0
M  V30 32440 H 3103.91 6.32961 4.21027 0
M  V30 32441 N 3105.49 -1.35184 0.810125 0
M  V30 32442 C 3106.44 -2.3164 0.211112 0
M  V30 32443 C 3107.43 -1.56801 -0.641082 0
M  V30 32444 O 3108.64 -1.71901 -0.53385 0
M  V30 32445 H 3105.01 -0.750368 0.049511 0
M  V30 32446 H 3106.98 -2.79702 1.03969 0
M  V30 32447 C 3105.73 -3.42075 -0.622873 0
M  V30 32448 H 3105.05 -3.99793 0.023535 0
M  V30 32449 H 3106.49 -4.11836 -1.00833 0
M  V30 32450 C 3104.95 -2.8542 -1.78989 0
M  V30 32451 O 3105.48 -2.79257 -2.88753 0
M  V30 32452 N 3103.69 -2.42419 -1.60254 0
M  V30 32453 H 3103.24 -2.47631 -0.709697 0
M  V30 32454 H 3103.19 -2.04861 -2.38494 0
M  V30 32455 N 3106.97 -0.56394 -1.47165 0
M  V30 32456 C 3108.21 -0.0424066 -2.02456 0
M  V30 32457 C 3108.54 1.31013 -1.43756 0
M  V30 32458 O 3107.8 1.86742 -0.58532 0
M  V30 32459 C 3108.1 0.0931169 -3.57279 0
M  V30 32460 C 3107.76 -1.1894 -4.3493 0
M  V30 32461 C 3106.42 -1.54081 -4.55864 0
M  V30 32462 C 3108.78 -2.03897 -4.79662 0
M  V30 32463 C 3106.1 -2.74014 -5.18781 0
M  V30 32464 C 3108.46 -3.23039 -5.43902 0
M  V30 32465 C 3107.12 -3.58485 -5.63067 0
M  V30 32466 H 3106.39 -0.0155177 -0.740838 0
M  V30 32467 H 3109.04 -0.736807 -1.76758 0
M  V30 32468 H 3107.34 0.870529 -3.82007 0
M  V30 32469 H 3109.04 0.512106 -3.97717 0
M  V30 32470 H 3105.63 -0.905792 -4.18919 0
M  V30 32471 H 3109.81 -1.78054 -4.63261 0
M  V30 32472 H 3105.07 -3.01637 -5.31813 0
M  V30 32473 H 3109.24 -3.89151 -5.77524 0
M  V30 32474 H 3106.87 -4.51511 -6.1159 0
M  V30 32475 N 3108.44 1.54704 -0.300735 0
M  V30 32476 C 3109.37 2.2647 0.568635 0
M  V30 32477 C 3110.36 1.26413 1.13814 0
M  V30 32478 O 3111.54 1.55185 1.16753 0
M  V30 32479 C 3108.67 3.00527 1.74071 0
M  V30 32480 C 3107.62 4.07729 1.30158 0
M  V30 32481 C 3106.95 4.69499 2.5588 0
M  V30 32482 C 3108.25 5.20502 0.433015 0
M  V30 32483 H 3109.94 2.99385 -0.0299377 0
M  V30 32484 H 3107.49 1.43991 -0.0158388 0
M  V30 32485 H 3109.44 3.49453 2.355 0
M  V30 32486 H 3108.17 2.2519 2.36552 0
M  V30 32487 H 3106.83 3.59652 0.71035 0
M  V30 32488 H 3106.47 3.90802 3.16674 0
M  V30 32489 H 3106.17 5.41899 2.27198 0
M  V30 32490 H 3107.7 5.21189 3.18111 0
M  V30 32491 H 3109.11 5.65324 0.95297 0
M  V30 32492 H 3107.51 5.9962 0.23998 0
M  V30 32493 H 3108.58 4.81862 -0.54195 0
M  V30 32494 N 3109.92 0.0284543 1.57574 0
M  V30 32495 C 3111.17 -0.651294 1.92057 0
M  V30 32496 C 3111.5 -1.71817 0.905122 0
M  V30 32497 O 3110.78 -1.94366 -0.0722362 0
M  V30 32498 C 3111.06 -1.26835 3.37024 0
M  V30 32499 C 3110.91 -0.211078 4.49304 0
M  V30 32500 C 3112.23 -2.18656 3.81939 0
M  V30 32501 H 3109.35 -0.235292 0.698432 0
M  V30 32502 H 3111.99 0.0855769 1.89807 0
M  V30 32503 H 3110.14 -1.89638 3.39072 0
M  V30 32504 H 3111.81 0.41946 4.59389 0
M  V30 32505 H 3110.06 0.463521 4.31316 0
M  V30 32506 H 3110.73 -0.682422 5.47765 0
M  V30 32507 H 3113.2 -1.6584 3.81623 0
M  V30 32508 H 3112.08 -2.58784 4.84068 0
M  V30 32509 H 3112.34 -3.07744 3.17405 0
M  V30 32510 N 3111.4 -1.55689 -0.244686 0
M  V30 32511 C 3112.35 -1.86894 -1.30593 0
M  V30 32512 C 3113.33 -0.729997 -1.43387 0
M  V30 32513 O 3114.53 -0.991966 -1.46591 0
M  V30 32514 C 3111.66 -2.16906 -2.66095 0
M  V30 32515 C 3110.74 -3.37134 -2.57297 0
M  V30 32516 N 3111.13 -4.56347 -2.18131 0
M  V30 32517 C 3109.43 -3.40288 -2.88305 0
M  V30 32518 C 3110.13 -5.38485 -2.20019 0
M  V30 32519 N 3109.11 -4.77603 -2.59608 0
M  V30 32520 H 3112.91 -2.76593 -0.99365 0
M  V30 32521 H 3110.42 -1.55945 -0.453307 0
M  V30 32522 H 3112.42 -2.37428 -3.42686 0
M  V30 32523 H 3111.08 -1.28507 -2.98188 0
M  V30 32524 H 3112.09 -4.81931 -1.89639 0
M  V30 32525 H 3108.77 -2.62167 -3.24923 0
M  V30 32526 H 3110.16 -6.43866 -1.92059 0
M  V30 32527 N 3112.88 0.510441 -1.49105 0
M  V30 32528 C 3114.29 1.09212 -1.51425 0
M  V30 32529 C 3114.64 1.93969 -0.295069 0
M  V30 32530 O 3113.77 2.0803 0.596027 0
M  V30 32531 C 3114.36 1.98734 -2.74391 0
M  V30 32532 C 3112.92 2.52083 -2.7952 0
M  V30 32533 C 3112.07 1.29484 -2.45213 0
M  V30 32534 H 3115.02 0.29478 -1.55938 0
M  V30 32535 H 3115.04 2.83294 -2.54017 0
M  V30 32536 H 3114.55 1.3702 -3.63108 0
M  V30 32537 H 3112.65 3.17463 -1.9506 0
M  V30 32538 H 3112.76 2.89881 -3.81453 0
M  V30 32539 H 3111.13 1.617 -1.96787 0
M  V30 32540 H 3111.91 0.694919 -3.36193 0
M  V30 32541 N 3114.36 1.38021 0.760791 0
M  V30 32542 C 3115.6 1.34031 1.52196 0
M  V30 32543 C 3115.94 -0.0717968 1.94067 0
M  V30 32544 O 3115.21 -1.03147 1.64897 0
M  V30 32545 C 3115.49 2.28945 2.7795 0
M  V30 32546 C 3115.35 3.78984 2.42263 0
M  V30 32547 C 3116.67 2.22113 3.79939 0
M  V30 32548 H 3113.78 0.488191 0.552122 0
M  V30 32549 H 3116.43 1.68811 0.871941 0
M  V30 32550 H 3114.58 1.99416 3.33415 0
M  V30 32551 H 3116.25 4.19157 1.92628 0
M  V30 32552 H 3114.49 3.97017 1.74815 0
M  V30 32553 H 3115.16 4.40846 3.32203 0
M  V30 32554 H 3117.64 2.48166 3.33995 0
M  V30 32555 H 3116.51 2.90647 4.65634 0
M  V30 32556 H 3116.78 1.21761 4.25002 0
M  V30 32557 N 3115.83 -0.98818 1.22771 0
M  V30 32558 C 3116.77 -2.07703 0.945233 0
M  V30 32559 C 3117.75 -1.62203 -0.113602 0
M  V30 32560 O 3118.93 -1.8849 0.0189955 0
M  V30 32561 C 3116.06 -3.36054 0.422533 0
M  V30 32562 C 3115.1 -4.00485 1.46677 0
M  V30 32563 S 3115.94 -4.40731 3.04166 0
M  V30 32564 C 3117.09 -5.72246 2.53546 0
M  V30 32565 H 3117.32 -2.31345 1.86727 0
M  V30 32566 H 3114.86 -1.12331 1.0593 0
M  V30 32567 H 3116.82 -4.10302 0.127552 0
M  V30 32568 H 3115.48 -3.10434 -0.47846 0
M  V30 32569 H 3114.67 -4.92919 1.05102 0
M  V30 32570 H 3114.27 -3.32582 1.7107 0
M  V30 32571 H 3116.56 -6.48806 1.95081 0
M  V30 32572 H 3117.51 -6.18654 3.44489 0
M  V30 32573 H 3117.91 -5.29873 1.94667 0
M  V30 32574 N 3117.31 -1.03816 -1.18575 0
M  V30 32575 C 3118.72 -0.768329 -1.70158 0
M  V30 32576 C 3119.07 0.711074 -1.82861 0
M  V30 32577 O 3118.2 1.55366 -1.50633 0
M  V30 32578 C 3118.79 -1.38809 -3.09059 0
M  V30 32579 C 3117.35 -1.16663 -3.57864 0
M  V30 32580 C 3116.5 -1.48033 -2.34481 0
M  V30 32581 H 3119.45 -1.2049 -1.03285 0
M  V30 32582 H 3119.47 -0.789966 -3.72209 0
M  V30 32583 H 3118.98 -2.46481 -2.99781 0
M  V30 32584 H 3117.09 -0.108537 -3.72442 0
M  V30 32585 H 3117.2 -1.86188 -4.41442 0
M  V30 32586 H 3115.56 -0.899944 -2.38271 0
M  V30 32587 H 3116.35 -2.56809 -2.27825 0
M  V30 32588 N 3118.79 1.34753 -0.817283 0
M  V30 32589 C 3119.72 2.27485 -0.180523 0
M  V30 32590 C 3120.7 1.48613 0.659765 0
M  V30 32591 O 3121.89 1.77846 0.62473 0
M  V30 32592 C 3119.01 3.30327 0.748429 0
M  V30 32593 C 3118.06 4.26498 -0.0136054 0
M  V30 32594 S 3118.89 5.18023 -1.35694 0
M  V30 32595 C 3120.05 6.24402 -0.432715 0
M  V30 32596 H 3120.28 2.81144 -0.966726 0
M  V30 32597 H 3117.81 1.41715 -0.612889 0
M  V30 32598 H 3119.77 3.90071 1.27886 0
M  V30 32599 H 3118.43 2.75527 1.50811 0
M  V30 32600 H 3117.63 4.99222 0.692366 0
M  V30 32601 H 3117.23 3.70979 -0.474409 0
M  V30 32602 H 3119.52 6.76445 0.377916 0
M  V30 32603 H 3120.46 6.99034 -1.12946 0
M  V30 32604 H 3120.87 5.64495 -0.0236525 0
M  V30 32605 N 3120.27 0.571737 1.46864 0
M  V30 32606 C 3121.22 -0.167767 2.30189 0
M  V30 32607 C 3122.19 -0.894585 1.39951 0
M  V30 32608 O 3123.37 -0.887421 1.68907 0
M  V30 32609 C 3120.51 -1.18254 3.24207 0
M  V30 32610 C 3119.62 -0.4603 4.29541 0
M  V30 32611 C 3118.76 -1.46164 5.10695 0
M  V30 32612 C 3117.8 -0.725184 6.07789 0
M  V30 32613 N 3116.94 -1.67405 6.8185 0
M  V30 32614 H 3121.78 0.548882 2.92901 0
M  V30 32615 H 3119.31 0.282499 1.44362 0
M  V30 32616 H 3121.27 -1.78364 3.7715 0
M  V30 32617 H 3119.9 -1.86704 2.63327 0
M  V30 32618 H 3118.95 0.255612 3.7954 0
M  V30 32619 H 3120.26 0.115942 4.98665 0
M  V30 32620 H 3119.42 -2.13585 5.67861 0
M  V30 32621 H 3118.16 -2.07181 4.41506 0
M  V30 32622 H 3117.16 -0.0371314 5.49787 0
M  V30 32623 H 3118.39 -0.120559 6.78993 0
M  V30 32624 H 3116.33 -2.27252 6.1538 0
M  V30 32625 H 3116.25 -1.15033 7.47197 0
M  V30 32626 H 3117.52 -2.33895 7.43581 0
M  V30 32627 N 3121.75 -1.54542 0.308935 0
M  V30 32628 C 3122.66 -2.27497 -0.572899 0
M  V30 32629 C 3123.67 -1.31307 -1.14169 0
M  V30 32630 O 3124.85 -1.64301 -1.16478 0
M  V30 32631 C 3121.91 -3.00753 -1.72478 0
M  V30 32632 C 3120.98 -4.12498 -1.18927 0
M  V30 32633 C 3120.21 -4.82251 -2.28626 0
M  V30 32634 O 3120.43 -4.51416 -3.48683 0
M  V30 32635 O 3119.37 -5.69482 -1.94869 0
M  V30 32636 H 3123.19 -3.03694 0.0191411 0
M  V30 32637 H 3120.78 -1.49211 0.0751205 0
M  V30 32638 H 3122.66 -3.46675 -2.39571 0
M  V30 32639 H 3121.33 -2.27444 -2.30328 0
M  V30 32640 H 3120.24 -3.70958 -0.483839 0
M  V30 32641 H 3121.57 -4.87808 -0.6561 0
M  V30 32642 N 3123.23 -0.0368104 -1.57557 0
M  V30 32643 C 3124.47 0.639535 -1.91293 0
M  V30 32644 C 3124.79 1.72845 -0.915631 0
M  V30 32645 O 3125.99 2.46197 -1.14451 0
M  V30 32646 C 3124.45 1.18882 -3.39699 0
M  V30 32647 C 3124.06 0.132772 -4.47803 0
M  V30 32648 C 3125.8 1.84123 -3.8249 0
M  V30 32649 C 3123.71 0.694125 -5.87312 0
M  V30 32650 H 3122.64 0.242645 -0.71389 0
M  V30 32651 H 3125.29 -0.103364 -1.83209 0
M  V30 32652 H 3123.67 1.98357 -3.4274 0
M  V30 32653 H 3124.85 -0.64009 -4.56333 0
M  V30 32654 H 3123.16 -0.421337 -4.14263 0
M  V30 32655 H 3125.76 2.27092 -4.8408 0
M  V30 32656 H 3126.1 2.6871 -3.17963 0
M  V30 32657 H 3126.63 1.11326 -3.81905 0
M  V30 32658 H 3123.37 -0.113782 -6.55401 0
M  V30 32659 H 3122.89 1.4353 -5.82374 0
M  V30 32660 H 3124.57 1.18149 -6.36121 0
M  V30 32661 N 3124.7 1.55817 0.236426 0
M  V30 32662 C 3125.65 1.87584 1.296 0
M  V30 32663 C 3126.64 0.737591 1.42998 0
M  V30 32664 O 3127.83 0.999726 1.46063 0
M  V30 32665 C 3124.96 2.18314 2.64941 0
M  V30 32666 C 3124.04 3.38494 2.55505 0
M  V30 32667 N 3124.44 4.57497 2.15708 0
M  V30 32668 C 3122.73 3.41813 2.86496 0
M  V30 32669 C 3123.43 5.39645 2.1716 0
M  V30 32670 N 3122.41 4.78973 2.57071 0
M  V30 32671 H 3126.21 2.77116 0.978968 0
M  V30 32672 H 3123.73 1.56183 0.445031 0
M  V30 32673 H 3125.72 2.39242 3.41422 0
M  V30 32674 H 3124.38 1.30087 2.97502 0
M  V30 32675 H 3125.39 4.8293 1.8708 0
M  V30 32676 H 3122.07 2.63886 3.23528 0
M  V30 32677 H 3123.46 6.44875 1.88642 0
M  V30 32678 N 3126.18 -0.502526 1.49373 0
M  V30 32679 C 3127.09 -1.63065 1.68662 0
M  V30 32680 C 3128.11 -1.64426 0.569211 0
M  V30 32681 O 3129.28 -1.82875 0.843728 0
M  V30 32682 C 3126.35 -2.99438 1.7475 0
M  V30 32683 C 3125.41 -3.08716 2.98317 0
M  V30 32684 C 3124.64 -4.38584 3.04105 0
M  V30 32685 O 3124.87 -5.27293 2.17528 0
M  V30 32686 O 3123.8 -4.52802 3.96552 0
M  V30 32687 H 3127.63 -1.49722 2.64229 0
M  V30 32688 H 3125.21 -0.678647 1.33097 0
M  V30 32689 H 3127.09 -3.80493 1.81116 0
M  V30 32690 H 3125.77 -3.13047 0.82362 0
M  V30 32691 H 3124.67 -2.26855 2.97469 0
M  V30 32692 H 3126.01 -3.00034 3.9018 0
M  V30 32693 N 3127.66 -1.38422 -0.75346 0
M  V30 32694 C 3128.88 -1.3805 -1.54781 0
M  V30 32695 C 3129.31 0.027604 -1.8808 0
M  V30 32696 O 3128.67 1.0097 -1.50581 0
M  V30 32697 C 3128.72 -2.24302 -2.82349 0
M  V30 32698 O 3127.82 -1.6602 -3.77506 0
M  V30 32699 H 3127.16 -0.470891 -0.468143 0
M  V30 32700 H 3129.69 -1.82185 -0.931112 0
M  V30 32701 H 3129.7 -2.38165 -3.31273 0
M  V30 32702 H 3128.38 -3.26643 -2.57443 0
M  V30 32703 H 3126.95 -1.613 -3.3621 0
M  V30 32704 N 3129.14 0.981655 -1.23294 0
M  V30 32705 C 3130.39 1.71703 -1.05835 0
M  V30 32706 C 3130.7 1.91359 0.405106 0
M  V30 32707 O 3131.91 2.62332 0.699599 0
M  V30 32708 C 3130.36 3.08989 -1.84537 0
M  V30 32709 C 3129.97 2.97224 -3.35204 0
M  V30 32710 C 3131.71 3.86494 -1.75564 0
M  V30 32711 C 3129.62 4.29734 -4.06304 0
M  V30 32712 H 3128.55 0.643834 -0.392421 0
M  V30 32713 H 3131.2 1.09499 -1.47249 0
M  V30 32714 H 3129.58 3.7194 -1.35929 0
M  V30 32715 H 3130.76 2.4337 -3.9129 0
M  V30 32716 H 3129.07 2.33194 -3.44977 0
M  V30 32717 H 3131.67 4.84592 -2.25997 0
M  V30 32718 H 3132.01 4.10058 -0.718173 0
M  V30 32719 H 3132.55 3.30242 -2.21777 0
M  V30 32720 H 3129.28 4.11366 -5.10351 0
M  V30 32721 H 3128.8 4.83458 -3.55005 0
M  V30 32722 H 3130.48 4.98427 -4.12528 0
M  V30 32723 N 3130.62 1.04444 1.18022 0
M  V30 32724 C 3132.03 0.764374 1.40105 0
M  V30 32725 C 3132.23 -0.644482 1.90915 0
M  V30 32726 O 3131.29 -1.40809 2.09593 0
M  V30 32727 C 3132.6 1.81365 2.39848 0
M  V30 32728 C 3134.15 1.835 2.53568 0
M  V30 32729 C 3134.62 2.8743 3.56578 0
M  V30 32730 N 3136.11 2.86345 3.64089 0
M  V30 32731 C 3136.85 3.63412 4.4353 0
M  V30 32732 N 3136.35 4.50242 5.26549 0
M  V30 32733 N 3138.14 3.51885 4.3833 0
M  V30 32734 H 3130.29 1.95354 0.833692 0
M  V30 32735 H 3132.55 0.845482 0.428795 0
M  V30 32736 H 3132.26 2.82441 2.09571 0
M  V30 32737 H 3132.13 1.64896 3.39248 0
M  V30 32738 H 3134.52 0.830933 2.8316 0
M  V30 32739 H 3134.6 2.04046 1.54268 0
M  V30 32740 H 3134.24 3.88018 3.27726 0
M  V30 32741 H 3134.17 2.64138 4.55564 0
M  V30 32742 H 3136.67 2.23381 3.0481 0
M  V30 32743 H 3136.98 5.05748 5.84327 0
M  V30 32744 H 3135.32 4.54308 5.25956 0
M  V30 32745 H 3138.51 2.83451 3.72523 0
M  V30 32746 H 3138.69 4.12195 5 0
M  V30 32747 N 3132.09 -1.34317 0.824418 0
M  V30 32748 C 3133.34 -1.98953 0.422999 0
M  V30 32749 C 3133.69 -1.64176 -1.0032 0
M  V30 32750 O 3132.99 -0.903899 -1.68939 0
M  V30 32751 C 3133.18 -3.5292 0.564086 0
M  V30 32752 C 3133.01 -4.02656 2.00245 0
M  V30 32753 C 3131.78 -4.31178 2.63464 0
M  V30 32754 C 3133.98 -4.1992 2.96937 0
M  V30 32755 N 3131.96 -4.66959 3.98526 0
M  V30 32756 C 3133.33 -4.58897 4.16909 0
M  V30 32757 C 3135.39 -4.02172 2.93534 0
M  V30 32758 C 3134.09 -4.81981 5.33935 0
M  V30 32759 C 3136.12 -4.26423 4.09777 0
M  V30 32760 C 3135.48 -4.65689 5.28501 0
M  V30 32761 H 3131.58 -0.755213 0.202921 0
M  V30 32762 H 3134.16 -1.627 1.06943 0
M  V30 32763 H 3132.33 -3.88365 -0.0524585 0
M  V30 32764 H 3134.06 -4.04473 0.135522 0
M  V30 32765 H 3130.82 -4.22141 2.14695 0
M  V30 32766 H 3131.24 -4.89082 4.68111 0
M  V30 32767 H 3135.88 -3.70942 2.02884 0
M  V30 32768 H 3133.6 -5.12078 6.25141 0
M  V30 32769 H 3137.19 -4.14226 4.08544 0
M  V30 32770 H 3136.07 -4.84085 6.16953 0
M  V30 32771 N 3133.57 -0.579517 -1.46558 0
M  V30 32772 C 3134.8 -0.0694011 -2.06784 0
M  V30 32773 C 3135.21 1.23417 -1.42877 0
M  V30 32774 O 3134.57 1.74545 -0.53295 0
M  V30 32775 C 3134.62 0.106448 -3.61343 0
M  V30 32776 O 3134.34 -1.14552 -4.22859 0
M  V30 32777 C 3135.84 0.651282 -4.3849 0
M  V30 32778 H 3133.06 -0.0559966 -0.668659 0
M  V30 32779 H 3135.61 -0.799278 -1.88233 0
M  V30 32780 H 3133.76 0.786534 -3.79332 0
M  V30 32781 H 3134.18 -0.957321 -5.15689 0
M  V30 32782 H 3135.65 0.723518 -5.47238 0
M  V30 32783 H 3136.13 1.66755 -4.06312 0
M  V30 32784 H 3136.73 0.00616854 -4.253 0
M  V30 32785 N 3135.05 1.54376 -0.317127 0
M  V30 32786 C 3136 2.24108 0.551742 0
M  V30 32787 C 3136.97 1.22951 1.11679 0
M  V30 32788 O 3138.15 1.51616 1.15833 0
M  V30 32789 C 3135.29 2.99759 1.70992 0
M  V30 32790 C 3134.41 4.15721 1.17472 0
M  V30 32791 C 3133.54 4.78918 2.29806 0
M  V30 32792 C 3132.58 5.86995 1.73502 0
M  V30 32793 N 3131.72 6.4408 2.79473 0
M  V30 32794 H 3136.56 2.97959 -0.0494834 0
M  V30 32795 H 3134.09 1.47055 -0.0361917 0
M  V30 32796 H 3136.05 3.41863 2.39135 0
M  V30 32797 H 3134.68 2.28255 2.28253 0
M  V30 32798 H 3133.73 3.78446 0.385043 0
M  V30 32799 H 3135.05 4.93537 0.722673 0
M  V30 32800 H 3134.2 5.23957 3.05866 0
M  V30 32801 H 3132.94 4.00469 2.78345 0
M  V30 32802 H 3131.94 5.41365 0.95938 0
M  V30 32803 H 3133.17 6.67337 1.25849 0
M  V30 32804 H 3131.11 5.68507 3.27315 0
M  V30 32805 H 3131.03 7.1729 2.38813 0
M  V30 32806 H 3132.3 6.93775 3.55382 0
M  V30 32807 N 3136.53 0.0451655 1.57535 0
M  V30 32808 C 3137.81 -0.669491 1.83786 0
M  V30 32809 C 3138.19 -1.89394 0.932364 0
M  V30 32810 O 3137.53 -2.28499 -0.00809212 0
M  V30 32811 C 3137.74 -1.03249 3.33378 0
M  V30 32812 C 3139.09 -1.41734 4.00246 0
M  V30 32813 O 3140.12 -1.12501 3.37967 0
M  V30 32814 O 3138.97 -1.96266 5.10041 0
M  V30 32815 H 3136.07 -0.329906 0.758348 0
M  V30 32816 H 3138.61 0.0740713 1.69538 0
M  V30 32817 H 3137.39 -0.161709 3.90966 0
M  V30 32818 H 3137.01 -1.8337 3.52791 0
M  V30 32819 N 3138.01 -1.5594 -0.228159 0
M  V30 32820 C 3138.97 -1.91051 -1.26618 0
M  V30 32821 C 3139.97 -0.788516 -1.40139 0
M  V30 32822 O 3141.16 -1.05633 -1.38518 0
M  V30 32823 C 3138.29 -2.1555 -2.64104 0
M  V30 32824 H 3139.48 -2.83885 -0.966928 0
M  V30 32825 H 3137.04 -1.4912 -0.468287 0
M  V30 32826 H 3137.77 -1.25247 -2.99138 0
M  V30 32827 H 3137.56 -2.97282 -2.55668 0
M  V30 32828 H 3139.05 -2.43833 -3.39021 0
M  V30 32829 N 3139.48 0.494597 -1.49638 0
M  V30 32830 C 3140.43 1.59542 -1.66778 0
M  V30 32831 C 3141.4 1.58103 -0.509187 0
M  V30 32832 O 3142.59 1.75992 -0.73698 0
M  V30 32833 C 3139.73 2.97655 -1.7463 0
M  V30 32834 C 3138.84 3.09061 -3.01836 0
M  V30 32835 C 3137.97 4.37946 -3.00627 0
M  V30 32836 C 3137.01 4.43009 -4.22385 0
M  V30 32837 N 3136.15 5.63331 -4.19049 0
M  V30 32838 H 3140.99 1.44233 -2.6077 0
M  V30 32839 H 3138.53 0.70165 -1.29288 0
M  V30 32840 H 3140.49 3.77716 -1.77162 0
M  V30 32841 H 3139.12 3.11652 -0.840991 0
M  V30 32842 H 3138.17 2.22023 -3.08885 0
M  V30 32843 H 3139.48 3.08662 -3.91828 0
M  V30 32844 H 3138.63 5.26334 -3.01758 0
M  V30 32845 H 3137.37 4.4092 -2.08424 0
M  V30 32846 H 3136.38 3.53023 -4.21491 0
M  V30 32847 H 3137.6 4.41746 -5.15788 0
M  V30 32848 H 3135.55 5.67135 -3.29687 0
M  V30 32849 H 3135.47 5.64575 -5.02784 0
M  V30 32850 H 3136.73 6.53908 -4.24293 0
M  V30 32851 N 3140.96 1.3882 0.746109 0
M  V30 32852 C 3141.91 1.36777 1.88135 0
M  V30 32853 C 3142.9 0.252524 1.67507 0
M  V30 32854 O 3144.11 0.421966 1.74984 0
M  V30 32855 H 3140.49 0.42686 0.619108 0
M  V30 32856 H 3142.46 2.32558 1.86974 0
M  V30 32857 C 3141.21 1.21713 3.25701 0
M  V30 32858 H 3140.53 2.06794 3.42164 0
M  V30 32859 H 3141.97 1.24339 4.05359 0
M  V30 32860 C 3140.43 -0.0753665 3.36816 0
M  V30 32861 O 3140.96 -1.04966 3.87744 0
M  V30 32862 N 3139.16 -0.13471 2.90288 0
M  V30 32863 H 3138.71 0.658822 2.49033 0
M  V30 32864 H 3138.67 -0.999056 2.98104 0
M  V30 32865 N 3142.44 -0.975103 1.23812 0
M  V30 32866 C 3143.67 -1.75222 1.10022 0
M  V30 32867 C 3144.08 -1.85567 -0.347878 0
M  V30 32868 O 3143.44 -1.33867 -1.2404 0
M  V30 32869 C 3143.49 -3.17647 1.72577 0
M  V30 32870 O 3143.21 -3.0783 3.11725 0
M  V30 32871 C 3144.71 -4.11729 1.64299 0
M  V30 32872 H 3141.93 -0.549721 0.38477 0
M  V30 32873 H 3144.48 -1.22473 1.6377 0
M  V30 32874 H 3142.63 -3.67405 1.2285 0
M  V30 32875 H 3143.05 -3.97527 3.42159 0
M  V30 32876 H 3144.52 -5.09349 2.12763 0
M  V30 32877 H 3145 -4.35044 0.602799 0
M  V30 32878 H 3145.6 -3.67876 2.13418 0
M  V30 32879 N 3143.92 -1.05068 -1.17467 0
M  V30 32880 C 3144.85 -0.608565 -2.20973 0
M  V30 32881 C 3145.86 0.327038 -1.59481 0
M  V30 32882 O 3147.05 0.119968 -1.78096 0
M  V30 32883 C 3144.15 0.129631 -3.38652 0
M  V30 32884 C 3143.33 -0.81636 -4.29714 0
M  V30 32885 C 3142.38 -0.119649 -5.26064 0
M  V30 32886 O 3141.41 -0.75334 -5.64193 0
M  V30 32887 N 3142.61 1.14337 -5.69128 0
M  V30 32888 H 3145.38 -1.49887 -2.59527 0
M  V30 32889 H 3142.94 -0.932429 -1.32353 0
M  V30 32890 H 3144.93 0.605816 -4.0014 0
M  V30 32891 H 3143.5 0.921585 -2.98706 0
M  V30 32892 H 3142.72 -1.47219 -3.65678 0
M  V30 32893 H 3144.01 -1.45853 -4.87447 0
M  V30 32894 H 3143.41 1.67856 -5.40223 0
M  V30 32895 H 3141.96 1.56365 -6.32766 0
M  V30 32896 N 3145.4 1.33878 -0.831529 0
M  V30 32897 C 3146.31 2.33135 -0.261729 0
M  V30 32898 C 3147.32 1.63017 0.608401 0
M  V30 32899 O 3148.5 1.94724 0.514263 0
M  V30 32900 C 3145.56 3.42149 0.559897 0
M  V30 32901 C 3144.62 4.28002 -0.333644 0
M  V30 32902 C 3143.86 5.31809 0.448863 0
M  V30 32903 O 3144.08 5.45058 1.68131 0
M  V30 32904 O 3143.01 6.0165 -0.173302 0
M  V30 32905 H 3146.84 2.83715 -1.08348 0
M  V30 32906 H 3144.43 1.37089 -0.593873 0
M  V30 32907 H 3146.31 4.08693 1.02705 0
M  V30 32908 H 3144.98 2.93798 1.35883 0
M  V30 32909 H 3143.89 3.64351 -0.84848 0
M  V30 32910 H 3145.22 4.79816 -1.09715 0
M  V30 32911 N 3146.87 0.587281 1.46249 0
M  V30 32912 C 3147.82 -0.164353 2.27407 0
M  V30 32913 C 3148.81 -0.857604 1.3614 0
M  V30 32914 O 3150 -0.750944 1.6028 0
M  V30 32915 C 3147.13 -1.17442 3.22587 0
M  V30 32916 C 3146.22 -0.483047 4.2134 0
M  V30 32917 N 3146.61 0.463939 5.03668 0
M  V30 32918 C 3144.9 -0.733213 4.39932 0
M  V30 32919 C 3145.61 0.868435 5.75181 0
M  V30 32920 N 3144.58 0.216583 5.43168 0
M  V30 32921 H 3148.38 0.563288 2.88452 0
M  V30 32922 H 3145.9 0.409415 1.57155 0
M  V30 32923 H 3147.89 -1.72712 3.79442 0
M  V30 32924 H 3146.55 -1.90283 2.63102 0
M  V30 32925 H 3147.57 0.839692 5.11048 0
M  V30 32926 H 3144.24 -1.44785 3.91591 0
M  V30 32927 H 3145.63 1.64833 6.51368 0
M  V30 32928 N 3148.35 -1.54206 0.325309 0
M  V30 32929 C 3149.6 -2.00897 -0.27715 0
M  V30 32930 C 3149.93 -1.2131 -1.51649 0
M  V30 32931 O 3149.21 -0.295859 -1.92237 0
M  V30 32932 C 3149.49 -3.54904 -0.609548 0
M  V30 32933 C 3149.34 -4.45215 0.64062 0
M  V30 32934 C 3150.66 -4.1634 -1.42649 0
M  V30 32935 H 3147.78 -0.730285 -0.0992594 0
M  V30 32936 H 3150.42 -1.84782 0.442234 0
M  V30 32937 H 3148.57 -3.68767 -1.22243 0
M  V30 32938 H 3150.24 -4.43219 1.27886 0
M  V30 32939 H 3148.49 -4.14819 1.26915 0
M  V30 32940 H 3149.16 -5.50801 0.363555 0
M  V30 32941 H 3151.63 -4.06063 -0.908422 0
M  V30 32942 H 3150.51 -5.24207 -1.62783 0
M  V30 32943 H 3150.77 -3.69778 -2.42315 0
M  V30 32944 N 3149.83 -0.0535194 -1.57509 0
M  V30 32945 C 3151.25 0.30304 -1.56697 0
M  V30 32946 C 3151.45 1.7128 -1.06138 0
M  V30 32947 O 3150.5 2.42046 -0.719033 0
M  V30 32948 C 3151.82 0.129365 -3.00422 0
M  V30 32949 C 3153.36 0.200291 -3.12359 0
M  V30 32950 C 3153.84 0.0551166 -4.57967 0
M  V30 32951 N 3155.33 0.111317 -4.63066 0
M  V30 32952 C 3156.07 0.0231336 -5.73395 0
M  V30 32953 N 3155.56 -0.117532 -6.927 0
M  V30 32954 N 3157.35 0.0788852 -5.62045 0
M  V30 32955 H 3149.51 -0.975098 -1.88694 0
M  V30 32956 H 3151.77 -0.378721 -0.869065 0
M  V30 32957 H 3151.47 -0.842713 -3.41455 0
M  V30 32958 H 3151.35 0.889411 -3.66564 0
M  V30 32959 H 3153.74 1.16284 -2.71223 0
M  V30 32960 H 3153.82 -0.59055 -2.4889 0
M  V30 32961 H 3153.46 -0.904121 -4.99788 0
M  V30 32962 H 3153.39 0.865132 -5.19445 0
M  V30 32963 H 3155.88 0.219189 -3.77264 0
M  V30 32964 H 3156.19 -0.177462 -7.72596 0
M  V30 32965 H 3154.54 -0.152648 -6.94832 0
M  V30 32966 H 3157.73 0.187351 -4.67725 0
M  V30 32967 H 3157.9 0.00670341 -6.48 0
M  V30 32968 N 3151.31 1.56059 0.219886 0
M  V30 32969 C 3152.53 1.8358 0.965041 0
M  V30 32970 C 3152.96 0.634055 1.77091 0
M  V30 32971 O 3152.32 -0.417174 1.76435 0
M  V30 32972 C 3152.37 3.09108 1.857 0
M  V30 32973 O 3151.47 2.87919 2.95256 0
M  V30 32974 H 3150.81 0.605209 0.273163 0
M  V30 32975 H 3153.34 2.03272 0.232695 0
M  V30 32976 H 3153.35 3.39256 2.26649 0
M  V30 32977 H 3152.03 3.96205 1.26469 0
M  V30 32978 H 3150.6 2.69009 2.58241 0
M  V30 32979 N 3152.79 -0.486655 1.49898 0
M  V30 32980 C 3153.72 -1.59491 1.70543 0
M  V30 32981 C 3154.7 -1.60818 0.554213 0
M  V30 32982 O 3155.88 -1.77332 0.791648 0
M  V30 32983 C 3153.01 -2.97905 1.78522 0
M  V30 32984 C 3151.97 -3.11444 2.93576 0
M  V30 32985 C 3151.29 -4.51351 2.86682 0
M  V30 32986 C 3152.59 -2.90119 4.34313 0
M  V30 32987 H 3154.29 -1.42467 2.63331 0
M  V30 32988 H 3151.83 -0.683947 1.26721 0
M  V30 32989 H 3153.79 -3.75348 1.9155 0
M  V30 32990 H 3152.51 -3.16049 0.823437 0
M  V30 32991 H 3151.17 -2.36429 2.80173 0
M  V30 32992 H 3150.82 -4.66392 1.88381 0
M  V30 32993 H 3150.52 -4.61348 3.63912 0
M  V30 32994 H 3152.04 -5.30836 3.01737 0
M  V30 32995 H 3153.46 -3.57323 4.48323 0
M  V30 32996 H 3151.85 -3.11576 5.12875 0
M  V30 32997 H 3152.92 -1.86111 4.47762 0
M  V30 32998 N 3154.27 -1.39214 -0.738737 0
M  V30 32999 C 3155.51 -1.37663 -1.5109 0
M  V30 33000 C 3155.87 0.0289317 -1.91978 0
M  V30 33001 O 3157.07 0.169418 -2.68266 0
M  V30 33002 C 3155.34 -2.31861 -2.71984 0
M  V30 33003 S 3156.9 -2.48464 -3.61678 0
M  V30 33004 H 3153.72 -0.488239 -0.516859 0
M  V30 33005 H 3156.32 -1.75277 -0.865931 0
M  V30 33006 H 3155.02 -3.32852 -2.40079 0
M  V30 33007 H 3154.56 -1.95449 -3.41414 0
M  V30 33008 H 3156.57 -1.71977 -4.65444 0
M  V30 33009 N 3155.74 0.968523 -1.24328 0
M  V30 33010 C 3156.65 2.09692 -1.05197 0
M  V30 33011 C 3157.67 1.73999 0.00698233 0
M  V30 33012 O 3158.85 2.00492 -0.191017 0
M  V30 33013 C 3155.91 3.40396 -0.658134 0
M  V30 33014 C 3154.97 3.90042 -1.79348 0
M  V30 33015 C 3154.2 5.14508 -1.41834 0
M  V30 33016 O 3154.43 5.69569 -0.307793 0
M  V30 33017 O 3153.36 5.58518 -2.24367 0
M  V30 33018 H 3157.19 2.28726 -1.99795 0
M  V30 33019 H 3154.77 1.08086 -1.0314 0
M  V30 33020 H 3156.65 4.18991 -0.449984 0
M  V30 33021 H 3155.33 3.22664 0.258725 0
M  V30 33022 H 3154.24 3.12513 -2.05637 0
M  V30 33023 H 3155.57 4.12249 -2.68908 0
M  V30 33024 N 3157.22 1.0569 1.16908 0
M  V30 33025 C 3158.15 0.683442 2.23274 0
M  V30 33026 C 3159.13 -0.321176 1.6704 0
M  V30 33027 O 3160.32 -0.197657 1.93192 0
M  V30 33028 C 3157.45 0.0626616 3.47243 0
M  V30 33029 C 3156.4 0.992586 4.16331 0
M  V30 33030 C 3155.73 0.235424 5.34181 0
M  V30 33031 C 3157.03 2.31894 4.67998 0
M  V30 33032 H 3158.72 1.57269 2.54768 0
M  V30 33033 H 3156.27 0.757627 1.22458 0
M  V30 33034 H 3158.22 -0.210429 4.20874 0
M  V30 33035 H 3156.94 -0.861561 3.15031 0
M  V30 33036 H 3155.6 1.25032 3.44619 0
M  V30 33037 H 3155.25 -0.691722 4.98221 0
M  V30 33038 H 3154.95 0.855104 5.81345 0
M  V30 33039 H 3156.48 -0.0302644 6.10592 0
M  V30 33040 H 3157.89 2.10541 5.33241 0
M  V30 33041 H 3156.29 2.89305 5.25759 0
M  V30 33042 H 3157.36 2.95398 3.84536 0
M  V30 33043 N 3158.7 -1.33435 0.838617 0
M  V30 33044 C 3159.66 -2.27521 0.276883 0
M  V30 33045 C 3160.66 -1.50946 -0.554249 0
M  V30 33046 O 3161.85 -1.70267 -0.368077 0
M  V30 33047 C 3158.98 -3.35398 -0.609977 0
M  V30 33048 H 3160.18 -2.78717 1.1071 0
M  V30 33049 H 3157.73 -1.43834 0.611682 0
M  V30 33050 H 3158.47 -2.89443 -1.46264 0
M  V30 33051 H 3158.25 -3.92097 -0.0152926 0
M  V30 33052 H 3159.74 -4.05541 -0.996297 0
M  V30 33053 N 3160.18 -0.595029 -1.45935 0
M  V30 33054 C 3161.42 -0.0938483 -2.03183 0
M  V30 33055 C 3161.78 1.25682 -1.45677 0
M  V30 33056 O 3161.07 1.81388 -0.617154 0
M  V30 33057 C 3161.27 0.0173119 -3.57396 0
M  V30 33058 C 3161.09 -1.32103 -4.29859 0
M  V30 33059 C 3159.86 -1.89843 -4.68282 0
M  V30 33060 C 3162.06 -2.24701 -4.62617 0
M  V30 33061 N 3160.04 -3.17288 -5.25549 0
M  V30 33062 C 3161.42 -3.36738 -5.20584 0
M  V30 33063 C 3163.47 -2.24229 -4.44551 0
M  V30 33064 C 3162.17 -4.48452 -5.6239 0
M  V30 33065 C 3164.2 -3.34981 -4.87382 0
M  V30 33066 C 3163.56 -4.4574 -5.45431 0
M  V30 33067 H 3159.66 -0.0774131 -0.778159 0
M  V30 33068 H 3162.24 -0.79063 -1.77925 0
M  V30 33069 H 3160.42 0.683287 -3.82342 0
M  V30 33070 H 3162.15 0.524003 -4.01293 0
M  V30 33071 H 3158.9 -1.43193 -4.51434 0
M  V30 33072 H 3159.33 -3.8235 -5.58693 0
M  V30 33073 H 3163.97 -1.39864 -3.98996 0
M  V30 33074 H 3161.69 -5.33551 -6.06918 0
M  V30 33075 H 3165.27 -3.35749 -4.75146 0
M  V30 33076 H 3164.15 -5.30024 -5.77966 0
M  V30 33077 N 3161.66 1.54031 -0.333483 0
M  V30 33078 C 3162.61 2.21422 0.543706 0
M  V30 33079 C 3163.59 1.19814 1.07394 0
M  V30 33080 O 3164.78 1.45403 1.00931 0
M  V30 33081 C 3161.91 2.98299 1.69919 0
M  V30 33082 C 3161 4.07255 1.18338 0
M  V30 33083 N 3161.39 5.0431 0.38801 0
M  V30 33084 C 3159.69 4.21384 1.4612 0
M  V30 33085 C 3160.39 5.81597 0.109281 0
M  V30 33086 N 3159.36 5.39098 0.698155 0
M  V30 33087 H 3163.16 2.93814 -0.0711535 0
M  V30 33088 H 3160.68 1.61797 -0.139836 0
M  V30 33089 H 3162.68 3.45071 2.33948 0
M  V30 33090 H 3161.34 2.27432 2.31743 0
M  V30 33091 H 3162.35 5.17891 0.0299735 0
M  V30 33092 H 3159.02 3.61735 2.08457 0
M  V30 33093 H 3160.41 6.69793 -0.531672 0
M  V30 33094 N 3163.13 0.0618717 1.57479 0
M  V30 33095 C 3164.08 -0.926592 2.13347 0
M  V30 33096 C 3165.08 -1.31501 1.06789 0
M  V30 33097 O 3166.28 -1.29341 1.25183 0
M  V30 33098 H 3162.66 -0.316717 0.682051 0
M  V30 33099 H 3164.63 -0.430372 2.9528 0
M  V30 33100 C 3163.38 -2.18829 2.70202 0
M  V30 33101 H 3162.7 -1.89823 3.51863 0
M  V30 33102 H 3164.14 -2.86127 3.12902 0
M  V30 33103 C 3162.6 -2.94017 1.64486 0
M  V30 33104 O 3163.13 -3.87353 1.06397 0
M  V30 33105 N 3161.33 -2.56942 1.35754 0
M  V30 33106 H 3160.88 -1.81116 1.8318 0
M  V30 33107 H 3160.84 -3.07554 0.652523 0
M  V30 33108 N 3164.61 -1.56173 -0.211607 0
M  V30 33109 C 3165.86 -1.79292 -0.932673 0
M  V30 33110 C 3166.18 -0.632108 -1.84471 0
M  V30 33111 O 3165.45 0.350485 -1.92739 0
M  V30 33112 H 3164.03 -0.661313 -0.347382 0
M  V30 33113 H 3166.69 -1.93642 -0.221076 0
M  V30 33114 H 3165.79 -2.71822 -1.5336 0
M  V30 33115 N 3166.09 0.478699 -1.50154 0
M  V30 33116 C 3167 1.60361 -1.71235 0
M  V30 33117 C 3168.02 1.635 -0.595298 0
M  V30 33118 O 3169.19 1.81509 -0.872715 0
M  V30 33119 C 3166.26 2.9662 -1.79492 0
M  V30 33120 C 3165.32 3.03931 -3.0319 0
M  V30 33121 C 3164.55 4.33691 -3.11044 0
M  V30 33122 O 3164.77 5.23765 -2.25889 0
M  V30 33123 O 3163.71 4.46436 -4.03706 0
M  V30 33124 H 3167.53 1.455 -2.66577 0
M  V30 33125 H 3165.12 0.657387 -1.3416 0
M  V30 33126 H 3167 3.77563 -1.87147 0
M  V30 33127 H 3165.68 3.11697 -0.873319 0
M  V30 33128 H 3164.58 2.22094 -3.0104 0
M  V30 33129 H 3165.92 2.93789 -3.94904 0
M  V30 33130 N 3167.57 1.39603 0.731343 0
M  V30 33131 C 3168.48 1.40898 1.87577 0
M  V30 33132 C 3169.49 0.303349 1.71335 0
M  V30 33133 O 3170.67 0.545411 1.93874 0
M  V30 33134 C 3167.74 1.25448 3.23209 0
M  V30 33135 C 3166.8 2.46014 3.51817 0
M  V30 33136 C 3166.03 2.31292 4.80978 0
M  V30 33137 O 3166.25 1.31834 5.54956 0
M  V30 33138 O 3165.19 3.2035 5.09568 0
M  V30 33139 H 3169.01 2.37373 1.8944 0
M  V30 33140 H 3166.6 1.20758 0.879654 0
M  V30 33141 H 3168.48 1.18979 4.04255 0
M  V30 33142 H 3167.15 0.320694 3.22108 0
M  V30 33143 H 3166.06 2.5806 2.70843 0
M  V30 33144 H 3167.39 3.38099 3.57701 0
M  V30 33145 N 3169.05 -0.961916 1.2484 0
M  V30 33146 C 3170.01 -2.039 1.04677 0
M  V30 33147 C 3171.01 -1.608 0.002075 0
M  V30 33148 O 3172.2 -1.72489 0.243585 0
M  V30 33149 C 3169.33 -3.35794 0.587795 0
M  V30 33150 H 3170.52 -2.2322 2.00282 0
M  V30 33151 H 3168.08 -1.13798 1.07144 0
M  V30 33152 H 3168.81 -3.22169 -0.371188 0
M  V30 33153 H 3168.6 -3.68423 1.34189 0
M  V30 33154 H 3170.09 -4.1497 0.46794 0
M  V30 33155 N 3170.52 -1.06308 -1.16346 0
M  V30 33156 C 3171.75 -0.799487 -1.90504 0
M  V30 33157 C 3172.16 0.649924 -1.77687 0
M  V30 33158 O 3171.51 1.45667 -1.11923 0
M  V30 33159 C 3171.57 -1.11498 -3.41773 0
M  V30 33160 C 3171.23 -2.56284 -3.78375 0
M  V30 33161 C 3172.23 -3.54516 -3.80282 0
M  V30 33162 C 3169.91 -2.91587 -4.09002 0
M  V30 33163 C 3171.91 -4.86091 -4.12304 0
M  V30 33164 C 3169.59 -4.23362 -4.4069 0
M  V30 33165 C 3170.59 -5.20424 -4.42321 0
M  V30 33166 O 3170.28 -6.49834 -4.73256 0
M  V30 33167 H 3170.01 -0.28937 -0.610935 0
M  V30 33168 H 3172.57 -1.42002 -1.48407 0
M  V30 33169 H 3170.8 -0.437374 -3.84219 0
M  V30 33170 H 3172.49 -0.835603 -3.97206 0
M  V30 33171 H 3173.25 -3.28583 -3.56732 0
M  V30 33172 H 3169.13 -2.16693 -4.06897 0
M  V30 33173 H 3172.67 -5.61846 -4.13491 0
M  V30 33174 H 3168.57 -4.49052 -4.63705 0
M  V30 33175 H 3169.34 -6.54825 -4.91066 0
M  V30 33176 N 3172 1.32989 -0.845682 0
M  V30 33177 C 3172.95 2.30999 -0.272453 0
M  V30 33178 C 3173.94 1.58445 0.599284 0
M  V30 33179 O 3175.15 1.73256 0.488086 0
M  V30 33180 H 3171.53 0.748792 -0.0693883 0
M  V30 33181 H 3173.5 2.76847 -1.11348 0
M  V30 33182 C 3172.25 3.43607 0.531959 0
M  V30 33183 H 3171.57 3.9959 -0.129525 0
M  V30 33184 H 3173.01 4.14365 0.89878 0
M  V30 33185 C 3171.47 2.90065 1.71359 0
M  V30 33186 O 3172 2.86815 2.81247 0
M  V30 33187 N 3170.2 2.46583 1.53771 0
M  V30 33188 H 3169.75 2.49425 0.643792 0
M  V30 33189 H 3169.71 2.11112 2.32979 0
M  V30 33190 N 3173.48 0.60276 1.45618 0
M  V30 33191 C 3174.39 -0.120861 2.34288 0
M  V30 33192 C 3175.41 -0.865388 1.50954 0
M  V30 33193 O 3176.58 -0.824062 1.83769 0
M  V30 33194 C 3173.65 -1.10882 3.28491 0
M  V30 33195 C 3172.71 -0.366778 4.2773 0
M  V30 33196 C 3171.94 -1.30767 5.17432 0
M  V30 33197 O 3172.16 -2.54526 5.10463 0
M  V30 33198 O 3171.1 -0.807359 5.96461 0
M  V30 33199 H 3174.92 0.607702 2.97558 0
M  V30 33200 H 3172.51 0.363045 1.44922 0
M  V30 33201 H 3174.39 -1.67796 3.86552 0
M  V30 33202 H 3173.07 -1.81849 2.67792 0
M  V30 33203 H 3171.97 0.244709 3.73299 0
M  V30 33204 H 3173.31 0.302313 4.91271 0
M  V30 33205 N 3174.96 -1.53852 0.341647 0
M  V30 33206 C 3176.21 -2.00882 -0.255448 0
M  V30 33207 C 3176.53 -1.22951 -1.50709 0
M  V30 33208 O 3175.79 -0.304659 -1.93314 0
M  V30 33209 C 3176.09 -3.52035 -0.616927 0
M  V30 33210 C 3175.75 -4.47684 0.537614 0
M  V30 33211 C 3174.42 -4.73553 0.854462 0
M  V30 33212 C 3176.77 -5.0441 1.31226 0
M  V30 33213 C 3174.1 -5.53404 1.94836 0
M  V30 33214 C 3176.45 -5.85454 2.39638 0
M  V30 33215 C 3175.11 -6.09619 2.71885 0
M  V30 33216 H 3174.38 -0.735081 -0.0934751 0
M  V30 33217 H 3177.03 -1.85664 0.469168 0
M  V30 33218 H 3175.33 -3.65075 -1.42223 0
M  V30 33219 H 3177.03 -3.8588 -1.09077 0
M  V30 33220 H 3173.62 -4.2768 0.2806 0
M  V30 33221 H 3177.8 -4.8439 1.08073 0
M  V30 33222 H 3173.06 -5.70352 2.20245 0
M  V30 33223 H 3177.23 -6.28423 3.00095 0
M  V30 33224 H 3174.86 -6.7128 3.56774 0
M  V30 33225 N 3176.44 -0.0702223 -1.57443 0
M  V30 33226 C 3177.37 0.895138 -2.15661 0
M  V30 33227 C 3178.35 1.31149 -1.08323 0
M  V30 33228 O 3179.53 1.38282 -1.36351 0
M  V30 33229 C 3176.66 2.16329 -2.71697 0
M  V30 33230 C 3175.62 1.88639 -3.84187 0
M  V30 33231 C 3174.94 3.22071 -4.26819 0
M  V30 33232 C 3176.24 1.1929 -5.08495 0
M  V30 33233 H 3177.94 0.410165 -2.96577 0
M  V30 33234 H 3175.48 0.195847 -1.42662 0
M  V30 33235 H 3177.44 2.84278 -3.11069 0
M  V30 33236 H 3176.16 2.67065 -1.87999 0
M  V30 33237 H 3174.82 1.23095 -3.45316 0
M  V30 33238 H 3174.47 3.70645 -3.40046 0
M  V30 33239 H 3174.17 3.04335 -5.02647 0
M  V30 33240 H 3175.69 3.9122 -4.68806 0
M  V30 33241 H 3177.1 1.77306 -5.45193 0
M  V30 33242 H 3175.5 1.11818 -5.8959 0
M  V30 33243 H 3176.57 0.171754 -4.84596 0
M  V30 33244 N 3177.91 1.56283 0.203321 0
M  V30 33245 C 3179.14 1.84594 0.945515 0
M  V30 33246 C 3179.56 0.652803 1.76409 0
M  V30 33247 O 3178.92 -0.398437 1.76868 0
M  V30 33248 C 3178.97 3.1106 1.82411 0
M  V30 33249 O 3178.07 2.91035 2.92186 0
M  V30 33250 H 3177.42 0.608072 0.266728 0
M  V30 33251 H 3179.95 2.03508 0.211122 0
M  V30 33252 H 3179.96 3.4164 2.23038 0
M  V30 33253 H 3178.63 3.97524 1.2226 0
M  V30 33254 H 3177.21 2.71733 2.55373 0
M  V30 33255 N 3179.39 -0.470729 1.50406 0
M  V30 33256 C 3180.34 -1.56868 1.69296 0
M  V30 33257 C 3181.31 -1.57273 0.534276 0
M  V30 33258 O 3182.5 -1.74797 0.764886 0
M  V30 33259 C 3179.64 -2.94839 1.79343 0
M  V30 33260 C 3178.75 -3.0422 3.06715 0
M  V30 33261 C 3177.88 -4.33108 3.07556 0
M  V30 33262 C 3176.92 -4.36233 4.2938 0
M  V30 33263 N 3176.06 -5.56593 4.27958 0
M  V30 33264 H 3180.9 -1.40066 2.63031 0
M  V30 33265 H 3178.44 -0.680993 1.30387 0
M  V30 33266 H 3180.39 -3.7485 1.83149 0
M  V30 33267 H 3179.02 -3.10275 0.890466 0
M  V30 33268 H 3178.08 -2.17081 3.12378 0
M  V30 33269 H 3179.39 -3.02389 3.96689 0
M  V30 33270 H 3178.54 -5.21466 3.10093 0
M  V30 33271 H 3177.28 -4.37549 2.15412 0
M  V30 33272 H 3176.29 -3.46272 4.27054 0
M  V30 33273 H 3177.51 -4.33484 5.22751 0
M  V30 33274 H 3175.46 -5.61818 3.38668 0
M  V30 33275 H 3175.37 -5.56504 5.11702 0
M  V30 33276 H 3176.64 -6.47075 4.34642 0
M  V30 33277 N 3180.87 -1.39989 -0.72393 0
M  V30 33278 C 3182.12 -1.37123 -1.4792 0
M  V30 33279 C 3182.43 0.0263321 -1.95582 0
M  V30 33280 O 3183.64 0.177604 -2.70918 0
M  V30 33281 C 3182.1 -2.40954 -2.67338 0
M  V30 33282 C 3181.7 -3.86479 -2.26579 0
M  V30 33283 C 3183.45 -2.4718 -3.45112 0
M  V30 33284 C 3181.35 -4.81925 -3.42786 0
M  V30 33285 H 3180.28 -0.509824 -0.555513 0
M  V30 33286 H 3182.94 -1.65688 -0.788663 0
M  V30 33287 H 3181.32 -2.05476 -3.3852 0
M  V30 33288 H 3182.49 -4.31057 -1.62871 0
M  V30 33289 H 3180.81 -3.8365 -1.6187 0
M  V30 33290 H 3183.4 -3.1568 -4.31568 0
M  V30 33291 H 3183.75 -1.49973 -3.88348 0
M  V30 33292 H 3184.28 -2.81607 -2.80966 0
M  V30 33293 H 3181.02 -5.80436 -3.04589 0
M  V30 33294 H 3180.54 -4.42019 -4.05437 0
M  V30 33295 H 3182.22 -5.01352 -4.08968 0
M  V30 33296 N 3182.35 0.955282 -1.25348 0
M  V30 33297 C 3183.77 1.22623 -1.02156 0
M  V30 33298 C 3183.97 1.99789 0.262025 0
M  V30 33299 O 3183.02 2.3292 0.974917 0
M  V30 33300 C 3184.33 2.00125 -2.24434 0
M  V30 33301 C 3185.88 2.1317 -2.29189 0
M  V30 33302 C 3186.36 2.94071 -3.51122 0
M  V30 33303 N 3187.85 3.01649 -3.51514 0
M  V30 33304 C 3188.58 3.64638 -4.42523 0
M  V30 33305 N 3188.08 4.29242 -5.43804 0
M  V30 33306 N 3189.87 3.61772 -4.30206 0
M  V30 33307 H 3182.02 0.439034 -2.07813 0
M  V30 33308 H 3184.29 0.256699 -0.912584 0
M  V30 33309 H 3183.99 1.50821 -3.1772 0
M  V30 33310 H 3183.87 3.00831 -2.27553 0
M  V30 33311 H 3186.25 2.61671 -1.36426 0
M  V30 33312 H 3186.33 1.11771 -2.30089 0
M  V30 33313 H 3185.98 2.4626 -4.44205 0
M  V30 33314 H 3185.91 3.95695 -3.47467 0
M  V30 33315 H 3188.4 2.55706 -2.7825 0
M  V30 33316 H 3188.71 4.7516 -6.09461 0
M  V30 33317 H 3187.06 4.27872 -5.47677 0
M  V30 33318 H 3190.25 3.10485 -3.5031 0
M  V30 33319 H 3190.42 4.10575 -5.0133 0
M  V30 33320 N 3183.83 1.06924 1.1578 0
M  V30 33321 C 3185.05 0.810805 1.90895 0
M  V30 33322 C 3185.48 -0.629683 1.77247 0
M  V30 33323 O 3184.84 -1.43951 1.10217 0
M  V30 33324 C 3184.88 1.21835 3.39394 0
M  V30 33325 O 3183.99 0.361006 4.10817 0
M  V30 33326 H 3183.33 0.295763 0.594492 0
M  V30 33327 H 3185.86 1.42671 1.46649 0
M  V30 33328 H 3185.87 1.19266 3.90179 0
M  V30 33329 H 3184.54 2.26756 3.48646 0
M  V30 33330 H 3183.12 0.448813 3.70189 0
M  V30 33331 N 3185.31 -1.32538 0.852723 0
M  V30 33332 C 3186.55 -1.97611 0.455832 0
M  V30 33333 C 3186.88 -1.67332 -0.985586 0
M  V30 33334 O 3186.16 -0.960523 -1.69128 0
M  V30 33335 C 3186.44 -3.53365 0.693183 0
M  V30 33336 C 3186.3 -3.93282 2.18288 0
M  V30 33337 C 3187.61 -4.3985 0.148314 0
M  V30 33338 H 3184.73 -0.717809 0.167091 0
M  V30 33339 H 3187.38 -1.56952 1.07079 0
M  V30 33340 H 3185.53 -3.88129 0.169745 0
M  V30 33341 H 3187.2 -3.68706 2.77225 0
M  V30 33342 H 3185.44 -3.42511 2.66212 0
M  V30 33343 H 3186.11 -5.01817 2.29965 0
M  V30 33344 H 3188.59 -4.11811 0.595906 0
M  V30 33345 H 3187.46 -5.47821 0.34397 0
M  V30 33346 H 3187.72 -4.31799 -0.948796 0
M  V30 33347 N 3186.78 -0.610474 -1.45296 0
M  V30 33348 C 3188.19 -0.19152 -1.85715 0
M  V30 33349 C 3188.55 1.25227 -1.51039 0
M  V30 33350 O 3187.67 1.94992 -0.938457 0
M  V30 33351 C 3188.27 -0.340807 -3.37082 0
M  V30 33352 C 3186.82 0.0234771 -3.76393 0
M  V30 33353 C 3185.97 -0.663896 -2.69235 0
M  V30 33354 H 3188.92 -0.816972 -1.36056 0
M  V30 33355 H 3188.94 0.426167 -3.78106 0
M  V30 33356 H 3188.46 -1.39171 -3.62289 0
M  V30 33357 H 3186.56 1.07344 -3.56802 0
M  V30 33358 H 3186.67 -0.372186 -4.77652 0
M  V30 33359 H 3185.03 -0.101249 -2.54499 0
M  V30 33360 H 3185.82 -1.71699 -2.97278 0
M  V30 33361 N 3188.26 1.53669 -0.349801 0
M  V30 33362 C 3189.51 2.01313 0.245154 0
M  V30 33363 C 3189.84 1.23708 1.497 0
M  V30 33364 O 3189.12 0.326405 1.91742 0
M  V30 33365 C 3189.4 3.55828 0.553009 0
M  V30 33366 C 3189.25 4.44139 -0.711369 0
M  V30 33367 C 3190.57 4.18557 1.36007 0
M  V30 33368 H 3187.69 0.731772 0.0876286 0
M  V30 33369 H 3190.33 1.84055 -0.471575 0
M  V30 33370 H 3188.48 3.70665 1.1636 0
M  V30 33371 H 3190.15 4.41128 -1.34921 0
M  V30 33372 H 3188.4 4.12748 -1.33499 0
M  V30 33373 H 3189.07 5.50153 -0.451137 0
M  V30 33374 H 3191.54 4.07457 0.843706 0
M  V30 33375 H 3190.42 5.2673 1.54423 0
M  V30 33376 H 3190.68 3.73586 2.36401 0
M  V30 33377 N 3189.74 0.0785709 1.57404 0
M  V30 33378 C 3190.99 -0.587826 1.93362 0
M  V30 33379 C 3191.31 -1.69739 0.959886 0
M  V30 33380 O 3190.58 -1.95898 0.00915174 0
M  V30 33381 H 3189.16 -0.220129 0.713829 0
M  V30 33382 H 3191.82 0.13802 1.94411 0
M  V30 33383 H 3190.92 -1.00875 2.95348 0
M  V30 33384 N 3191.22 -1.56389 -0.19503 0
M  V30 33385 C 3192.63 -1.49975 -0.545868 0
M  V30 33386 C 3192.83 -0.778601 -1.8585 0
M  V30 33387 O 3191.89 -0.329149 -2.50345 0
M  V30 33388 C 3193.2 -2.94642 -0.600547 0
M  V30 33389 C 3194.75 -3.05314 -0.689375 0
M  V30 33390 C 3195.23 -4.51393 -0.775164 0
M  V30 33391 N 3196.72 -4.55544 -0.838689 0
M  V30 33392 C 3197.45 -5.65886 -0.925237 0
M  V30 33393 N 3196.95 -6.85918 -0.974083 0
M  V30 33394 N 3198.74 -5.53799 -0.962431 0
M  V30 33395 H 3190.89 -2.01689 0.665985 0
M  V30 33396 H 3193.15 -0.917837 0.237231 0
M  V30 33397 H 3192.86 -3.50462 0.294841 0
M  V30 33398 H 3192.73 -3.47999 -1.45522 0
M  V30 33399 H 3195.12 -2.49543 -1.57519 0
M  V30 33400 H 3195.2 -2.55082 0.191496 0
M  V30 33401 H 3194.85 -5.07789 0.106304 0
M  V30 33402 H 3194.78 -4.99357 -1.67184 0
M  V30 33403 H 3197.27 -3.69113 -0.810184 0
M  V30 33404 H 3197.58 -7.65761 -1.04064 0
M  V30 33405 H 3195.93 -6.88576 -0.94276 0
M  V30 33406 H 3199.12 -4.58948 -0.921108 0
M  V30 33407 H 3199.29 -6.39819 -1.02642 0
M  V30 33408 N 3192.7 0.462746 -1.50653 0
M  V30 33409 C 3193.94 1.22396 -1.63702 0
M  V30 33410 C 3194.3 1.89075 -0.33388 0
M  V30 33411 O 3195.5 2.66643 -0.339884 0
M  V30 33412 C 3193.77 2.23342 -2.79022 0
M  V30 33413 S 3195.33 3.08291 -3.12254 0
M  V30 33414 H 3192.15 0.415434 -0.577006 0
M  V30 33415 H 3194.75 0.519598 -1.88469 0
M  V30 33416 H 3193.45 1.72951 -3.72177 0
M  V30 33417 H 3192.99 2.98395 -2.56367 0
M  V30 33418 H 3195 4.24627 -2.56723 0
M  V30 33419 N 3194.17 1.40371 0.716495 0
M  V30 33420 C 3195.1 1.43318 1.84343 0
M  V30 33421 C 3196.09 0.294216 1.67536 0
M  V30 33422 O 3197.27 0.502704 1.87581 0
M  V30 33423 C 3194.4 1.29414 3.22288 0
M  V30 33424 C 3193.35 2.40904 3.53765 0
M  V30 33425 C 3192.68 2.12077 4.90844 0
M  V30 33426 C 3193.98 3.83243 3.54855 0
M  V30 33427 H 3195.67 2.37629 1.82134 0
M  V30 33428 H 3193.22 1.14378 0.874853 0
M  V30 33429 H 3195.17 1.30092 4.00817 0
M  V30 33430 H 3193.9 0.315787 3.2507 0
M  V30 33431 H 3192.56 2.39474 2.77575 0
M  V30 33432 H 3192.2 1.12635 4.90227 0
M  V30 33433 H 3191.9 2.86771 5.1287 0
M  V30 33434 H 3193.43 2.14436 5.71708 0
M  V30 33435 H 3194.84 3.86502 4.23426 0
M  V30 33436 H 3193.24 4.57449 3.88408 0
M  V30 33437 H 3194.31 4.12893 2.54259 0
M  V30 33438 N 3195.65 -0.948621 1.25853 0
M  V30 33439 C 3196.58 -2.06365 1.09251 0
M  V30 33440 C 3197.56 -1.701 -0.000175269 0
M  V30 33441 O 3198.75 -1.9345 0.170476 0
M  V30 33442 C 3195.88 -3.39822 0.716836 0
M  V30 33443 C 3194.83 -3.90119 1.76043 0
M  V30 33444 C 3194.16 -5.2014 1.23927 0
M  V30 33445 C 3195.46 -4.15827 3.16046 0
M  V30 33446 H 3197.15 -2.20512 2.02521 0
M  V30 33447 H 3194.7 -1.0596 0.975111 0
M  V30 33448 H 3196.65 -4.17283 0.587605 0
M  V30 33449 H 3195.38 -3.2563 -0.251569 0
M  V30 33450 H 3194.03 -3.14832 1.87821 0
M  V30 33451 H 3193.68 -5.02323 0.260925 0
M  V30 33452 H 3193.38 -5.54762 1.93682 0
M  V30 33453 H 3194.91 -6.00192 1.12256 0
M  V30 33454 H 3196.32 -4.83927 3.07388 0
M  V30 33455 H 3194.72 -4.61716 3.83325 0
M  V30 33456 H 3195.79 -3.21881 3.62658 0
M  V30 33457 N 3197.13 -1.07536 -1.15212 0
M  V30 33458 C 3198.06 -0.718876 -2.22159 0
M  V30 33459 C 3199.04 0.294561 -1.6753 0
M  V30 33460 O 3200.23 0.166897 -1.93482 0
M  V30 33461 C 3197.36 -0.117897 -3.471 0
M  V30 33462 C 3196.31 -1.0587 -4.14699 0
M  V30 33463 C 3195.64 -0.320378 -5.33739 0
M  V30 33464 C 3196.94 -2.39311 -4.6425 0
M  V30 33465 H 3198.63 -1.61302 -2.52234 0
M  V30 33466 H 3196.18 -0.777014 -1.21237 0
M  V30 33467 H 3198.13 0.143445 -4.21156 0
M  V30 33468 H 3196.85 0.811333 -3.16362 0
M  V30 33469 H 3195.51 -1.30499 -3.42587 0
M  V30 33470 H 3195.16 0.612372 -4.99258 0
M  V30 33471 H 3194.86 -0.947483 -5.79911 0
M  V30 33472 H 3196.38 -0.0668794 -6.10563 0
M  V30 33473 H 3197.8 -2.18997 -5.29824 0
M  V30 33474 H 3196.2 -2.97633 -5.2109 0
M  V30 33475 H 3197.27 -3.01478 -3.79788 0
M  V30 33476 N 3198.61 1.32084 -0.85974 0
M  V30 33477 C 3200.02 1.79325 -0.519561 0
M  V30 33478 C 3200.37 1.70945 0.96292 0
M  V30 33479 O 3199.5 1.27107 1.75136 0
M  V30 33480 C 3200.09 3.25605 -0.936324 0
M  V30 33481 C 3198.65 3.70781 -0.647964 0
M  V30 33482 C 3197.8 2.53085 -1.13328 0
M  V30 33483 H 3200.75 1.19311 -1.04645 0
M  V30 33484 H 3200.77 3.79646 -0.254781 0
M  V30 33485 H 3200.28 3.31672 -2.01533 0
M  V30 33486 H 3198.38 3.70224 0.420107 0
M  V30 33487 H 3198.49 4.63364 -1.21782 0
M  V30 33488 H 3196.86 2.48616 -0.553369 0
M  V30 33489 H 3197.64 2.61904 -2.21949 0
M  V30 33490 N 3200.09 0.618171 1.4497 0
M  V30 33491 C 3201.05 -0.0846336 2.29044 0
M  V30 33492 C 3202.05 -0.784896 1.40342 0
M  V30 33493 O 3203.24 -0.631451 1.62353 0
M  V30 33494 C 3200.37 -1.13022 3.21619 0
M  V30 33495 H 3201.56 0.654664 2.92667 0
M  V30 33496 H 3199.12 0.377699 1.51668 0
M  V30 33497 H 3199.85 -1.89993 2.62818 0
M  V30 33498 H 3199.64 -0.632172 3.8697 0
M  V30 33499 H 3201.13 -1.62211 3.84808 0
M  V30 33500 N 3201.56 -1.53481 0.357946 0
M  V30 33501 C 3202.79 -2.05262 -0.234763 0
M  V30 33502 C 3203.2 -1.23172 -1.43615 0
M  V30 33503 O 3202.55 -0.263467 -1.81801 0
M  V30 33504 C 3202.61 -3.52625 -0.699686 0
M  V30 33505 C 3202.27 -4.55384 0.383986 0
M  V30 33506 C 3203.27 -5.05107 1.23138 0
M  V30 33507 C 3200.95 -4.99367 0.542041 0
M  V30 33508 C 3202.95 -5.97407 2.22225 0
M  V30 33509 C 3200.63 -5.91474 1.53628 0
M  V30 33510 C 3201.63 -6.40384 2.37483 0
M  V30 33511 O 3201.32 -7.30677 3.35212 0
M  V30 33512 H 3201.05 -0.674397 -0.0465245 0
M  V30 33513 H 3203.61 -1.98906 0.51239 0
M  V30 33514 H 3201.84 -3.56493 -1.49832 0
M  V30 33515 H 3203.53 -3.87303 -1.21454 0
M  V30 33516 H 3204.29 -4.71881 1.12043 0
M  V30 33517 H 3200.17 -4.6089 -0.100848 0
M  V30 33518 H 3203.71 -6.35505 2.87713 0
M  V30 33519 H 3199.61 -6.24115 1.64774 0
M  V30 33520 H 3200.38 -7.48652 3.30851 0
M  V30 33521 N 3203.04 -0.0869173 -1.5736 0
M  V30 33522 C 3204.27 0.590722 -1.9881 0
M  V30 33523 C 3204.69 1.61434 -0.965435 0
M  V30 33524 O 3204.05 1.81176 0.0671111 0
M  V30 33525 C 3204.1 1.22232 -3.39252 0
M  V30 33526 O 3203.2 2.33818 -3.3971 0
M  V30 33527 H 3202.54 0.150615 -0.646692 0
M  V30 33528 H 3205.07 -0.165909 -2.03926 0
M  V30 33529 H 3205.08 1.56558 -3.76767 0
M  V30 33530 H 3203.76 0.472362 -4.13209 0
M  V30 33531 H 3202.34 2.01173 -3.13981 0
M  V30 33532 N 3204.52 1.5649 0.186734 0
M  V30 33533 C 3205.75 1.85231 0.9218 0
M  V30 33534 C 3206.16 0.670447 1.76495 0
M  V30 33535 O 3205.52 -0.360727 1.78899 0
M  V30 33536 C 3205.57 3.12857 1.81115 0
M  V30 33537 O 3205.29 4.26487 1.00203 0
M  V30 33538 C 3206.79 3.54836 2.65719 0
M  V30 33539 H 3204.01 0.614915 0.268553 0
M  V30 33540 H 3206.56 2.03602 0.191469 0
M  V30 33541 H 3204.71 2.96358 2.495 0
M  V30 33542 H 3205.13 4.99216 1.60885 0
M  V30 33543 H 3206.6 4.47081 3.23763 0
M  V30 33544 H 3207.08 2.78221 3.39838 0
M  V30 33545 H 3207.68 3.73894 2.02691 0
M  V30 33546 N 3206 -0.45475 1.50897 0
M  V30 33547 C 3206.93 -1.55837 1.73888 0
M  V30 33548 C 3207.91 -1.59606 0.5882 0
M  V30 33549 O 3209.09 -1.75613 0.829085 0
M  V30 33550 C 3206.22 -2.94051 1.84801 0
M  V30 33551 C 3205.18 -3.05146 3.00116 0
M  V30 33552 C 3204.5 -4.45169 2.96191 0
M  V30 33553 C 3205.8 -2.80842 4.4037 0
M  V30 33554 H 3207.5 -1.3685 2.66294 0
M  V30 33555 H 3205.04 -0.656913 1.28143 0
M  V30 33556 H 3207 -3.71201 1.99469 0
M  V30 33557 H 3205.72 -3.14231 0.89029 0
M  V30 33558 H 3204.38 -2.30432 2.85125 0
M  V30 33559 H 3204.03 -4.62291 1.98232 0
M  V30 33560 H 3203.73 -4.53525 3.73616 0
M  V30 33561 H 3205.25 -5.24316 3.12929 0
M  V30 33562 H 3206.67 -3.47733 4.55801 0
M  V30 33563 H 3205.06 -3.00627 5.19368 0
M  V30 33564 H 3206.13 -1.76571 4.51609 0
M  V30 33565 N 3207.48 -1.40749 -0.709041 0
M  V30 33566 C 3208.89 -1.22923 -1.01795 0
M  V30 33567 C 3209.09 -0.109047 -2.01205 0
M  V30 33568 O 3208.15 0.530944 -2.46855 0
M  V30 33569 C 3209.46 -2.57347 -1.55542 0
M  V30 33570 C 3211.01 -2.64414 -1.67493 0
M  V30 33571 C 3211.48 -3.99123 -2.24645 0
M  V30 33572 N 3212.98 -4.00899 -2.32023 0
M  V30 33573 C 3213.71 -5.01921 -2.77241 0
M  V30 33574 N 3213.21 -6.13338 -3.22163 0
M  V30 33575 N 3215 -4.89288 -2.76684 0
M  V30 33576 H 3207.15 -2.12341 -0.0502331 0
M  V30 33577 H 3209.41 -0.944193 -0.0848767 0
M  V30 33578 H 3209.12 -3.40001 -0.899571 0
M  V30 33579 H 3208.99 -2.78893 -2.53966 0
M  V30 33580 H 3211.38 -1.82128 -2.32193 0
M  V30 33581 H 3211.46 -2.46692 -0.67651 0
M  V30 33582 H 3211.11 -4.81852 -1.60565 0
M  V30 33583 H 3211.04 -4.14178 -3.25214 0
M  V30 33584 H 3213.53 -3.20448 -2.00304 0
M  V30 33585 H 3213.84 -6.86306 -3.55253 0
M  V30 33586 H 3212.18 -6.16893 -3.20106 0
M  V30 33587 H 3215.38 -4.01336 -2.40929 0
M  V30 33588 H 3215.55 -5.68159 -3.11607 0
M  V30 33589 N 3208.96 0.941933 -1.26354 0
M  V30 33590 C 3210.37 1.21532 -1.03451 0
M  V30 33591 C 3210.57 2.00056 0.24082 0
M  V30 33592 O 3209.63 2.33941 0.950158 0
M  V30 33593 C 3210.94 1.97733 -2.26544 0
M  V30 33594 C 3212.49 2.10727 -2.31437 0
M  V30 33595 C 3212.96 2.9033 -3.54221 0
M  V30 33596 N 3214.45 2.97904 -3.54693 0
M  V30 33597 C 3215.19 3.59924 -4.46366 0
M  V30 33598 N 3214.69 4.2345 -5.48326 0
M  V30 33599 N 3216.48 3.57189 -4.34019 0
M  V30 33600 H 3208.63 0.416968 -2.08267 0
M  V30 33601 H 3210.89 0.247005 -0.915255 0
M  V30 33602 H 3210.6 1.47443 -3.19302 0
M  V30 33603 H 3210.47 2.98401 -2.30731 0
M  V30 33604 H 3212.86 2.6021 -1.39194 0
M  V30 33605 H 3212.94 1.09325 -2.31261 0
M  V30 33606 H 3212.58 2.41535 -4.46792 0
M  V30 33607 H 3212.51 3.91987 -3.51644 0
M  V30 33608 H 3215.01 2.5274 -2.80946 0
M  V30 33609 H 3215.32 4.68669 -6.14466 0
M  V30 33610 H 3213.66 4.22039 -5.52184 0
M  V30 33611 H 3216.85 3.06752 -3.53583 0
M  V30 33612 H 3217.03 4.05235 -5.05657 0
M  V30 33613 N 3210.43 1.08146 1.1464 0
M  V30 33614 C 3211.38 0.709033 2.19639 0
M  V30 33615 C 3212.35 -0.303483 1.63304 0
M  V30 33616 O 3213.54 -0.188096 1.89871 0
M  V30 33617 C 3210.68 0.121645 3.44886 0
M  V30 33618 C 3209.79 1.18662 4.15383 0
M  V30 33619 C 3208.92 0.563373 5.28204 0
M  V30 33620 C 3207.96 1.61057 5.90531 0
M  V30 33621 N 3207.1 1.00932 6.94807 0
M  V30 33622 H 3211.94 1.60875 2.50845 0
M  V30 33623 H 3209.48 0.803997 1.23184 0
M  V30 33624 H 3211.43 -0.236607 4.16529 0
M  V30 33625 H 3210.06 -0.74139 3.14171 0
M  V30 33626 H 3209.12 1.66233 3.42156 0
M  V30 33627 H 3210.43 1.98028 4.57806 0
M  V30 33628 H 3209.58 0.153215 6.06507 0
M  V30 33629 H 3208.32 -0.261981 4.86996 0
M  V30 33630 H 3207.33 2.03042 5.10935 0
M  V30 33631 H 3208.55 2.43835 6.33815 0
M  V30 33632 H 3206.5 0.20501 6.5568 0
M  V30 33633 H 3206.41 1.74012 7.35701 0
M  V30 33634 H 3207.68 0.624928 7.76991 0
M  V30 33635 N 3211.91 -1.31626 0.866732 0
M  V30 33636 C 3213.16 -1.97506 0.486081 0
M  V30 33637 C 3213.51 -1.67284 -0.950461 0
M  V30 33638 O 3212.81 -0.957188 -1.65977 0
M  V30 33639 C 3213 -3.50947 0.67608 0
M  V30 33640 C 3212.83 -3.96082 2.12954 0
M  V30 33641 C 3211.6 -4.22578 2.77049 0
M  V30 33642 C 3213.8 -4.10261 3.10146 0
M  V30 33643 N 3211.78 -4.54044 4.1318 0
M  V30 33644 C 3213.15 -4.45401 4.31298 0
M  V30 33645 C 3215.2 -3.9263 3.0618 0
M  V30 33646 C 3213.91 -4.64751 5.48998 0
M  V30 33647 C 3215.93 -4.13171 4.23136 0
M  V30 33648 C 3215.3 -4.48639 5.43049 0
M  V30 33649 H 3211.39 -0.748375 0.226844 0
M  V30 33650 H 3213.98 -1.59215 1.12065 0
M  V30 33651 H 3212.15 -3.88335 0.0711233 0
M  V30 33652 H 3213.88 -4.03837 0.264133 0
M  V30 33653 H 3210.64 -4.15097 2.28017 0
M  V30 33654 H 3211.06 -4.73942 4.83434 0
M  V30 33655 H 3215.7 -3.64299 2.14583 0
M  V30 33656 H 3213.42 -4.9193 6.41116 0
M  V30 33657 H 3217.01 -4.01018 4.21516 0
M  V30 33658 H 3215.89 -4.64212 6.32042 0
M  V30 33659 N 3213.39 -0.62585 -1.4464 0
M  V30 33660 C 3214.32 0.0691778 -2.33398 0
M  V30 33661 C 3215.3 0.840215 -1.479 0
M  V30 33662 O 3216.49 0.807145 -1.76632 0
M  V30 33663 C 3213.62 1.05494 -3.3089 0
M  V30 33664 C 3212.57 0.395893 -4.26165 0
M  V30 33665 C 3211.9 1.49119 -5.13486 0
M  V30 33666 C 3213.2 -0.694524 -5.17662 0
M  V30 33667 H 3214.89 -0.671976 -2.91762 0
M  V30 33668 H 3212.44 -0.324598 -1.40294 0
M  V30 33669 H 3214.39 1.54986 -3.91864 0
M  V30 33670 H 3213.11 1.82692 -2.70724 0
M  V30 33671 H 3211.77 -0.0783336 -3.66516 0
M  V30 33672 H 3211.42 2.25391 -4.49675 0
M  V30 33673 H 3211.12 1.05562 -5.7804 0
M  V30 33674 H 3212.64 1.98802 -5.7733 0
M  V30 33675 H 3214.06 -0.282919 -5.72601 0
M  V30 33676 H 3212.45 -1.05291 -5.90791 0
M  V30 33677 H 3213.52 -1.5638 -4.58992 0
M  V30 33678 N 3214.87 1.53289 -0.36608 0
M  V30 33679 C 3216.14 1.93587 0.279868 0
M  V30 33680 C 3216.52 1.29966 1.66349 0
M  V30 33681 O 3215.87 0.458934 2.23844 0
M  V30 33682 C 3216.08 3.4744 0.329573 0
M  V30 33683 C 3217.43 4.20761 0.56968 0
M  V30 33684 O 3218.45 3.53824 0.41076 0
M  V30 33685 O 3217.31 5.39382 0.879167 0
M  V30 33686 H 3214.41 0.809755 0.168005 0
M  V30 33687 H 3216.95 1.64449 -0.4189 0
M  V30 33688 H 3215.73 3.86022 -0.640502 0
M  V30 33689 H 3215.35 3.82814 1.07421 0
M  V30 33690 N 3216.35 0.0952613 1.57312 0
M  V30 33691 C 3217.57 -0.580171 1.9912 0
M  V30 33692 C 3218 -1.6092 0.973983 0
M  V30 33693 O 3217.35 -1.81209 -0.057502 0
M  V30 33694 C 3217.4 -1.20432 3.39895 0
M  V30 33695 O 3216.51 -2.32013 3.40945 0
M  V30 33696 H 3215.85 -0.147183 0.647482 0
M  V30 33697 H 3218.38 0.176721 2.03835 0
M  V30 33698 H 3218.39 -1.54558 3.77592 0
M  V30 33699 H 3217.06 -0.450442 4.13454 0
M  V30 33700 H 3215.64 -1.99505 3.15043 0
M  V30 33701 N 3217.82 -1.56587 -0.178432 0
M  V30 33702 C 3219.07 -1.81589 -0.896203 0
M  V30 33703 C 3219.4 -0.6712 -1.82552 0
M  V30 33704 O 3218.65 0.342012 -1.92688 0
M  V30 33705 C 3218.95 -3.12707 -1.73057 0
M  V30 33706 C 3218.62 -4.40761 -0.950799 0
M  V30 33707 C 3217.28 -4.75545 -0.735563 0
M  V30 33708 C 3219.63 -5.19637 -0.403327 0
M  V30 33709 C 3216.96 -5.86687 0.0383593 0
M  V30 33710 C 3219.31 -6.31589 0.35747 0
M  V30 33711 C 3217.98 -6.64944 0.583571 0
M  V30 33712 H 3217.25 -0.66448 -0.327944 0
M  V30 33713 H 3219.89 -1.90817 -0.161552 0
M  V30 33714 H 3218.2 -2.9879 -2.5344 0
M  V30 33715 H 3219.9 -3.29261 -2.28885 0
M  V30 33716 H 3216.49 -4.13474 -1.12859 0
M  V30 33717 H 3220.67 -4.93165 -0.556972 0
M  V30 33718 H 3215.93 -6.10992 0.223345 0
M  V30 33719 H 3220.1 -6.91916 0.788982 0
M  V30 33720 H 3217.73 -7.50905 1.18515 0
M  V30 33721 O 3219.34 0.323487 -1.58227 0
M  V30 33722 H 3220.03 0.971965 -1.67549 0
M  V30 END ATOM
M  V30 BEGIN BOND
M  V30 END BOND
M  V30 END CTAB
M  END
$$$$
