drugbank_target|P54756 Ephrin type-A receptor 5 (DB01254; DB12010)
 OpenBabel12092121023D

  0  0  0     0  0            999 V3000
M  V30 BEGIN CTAB
M  V30 COUNTS 16017 16194 0 0 0
M  V30 BEGIN ATOM
M  V30 1 H -0.908 1.98254 -0.117106 0
M  V30 2 N 0 1.576 0 0
M  V30 3 C 0.933 2.03868 1.02534 0
M  V30 4 C 1.911 0.928543 1.3348 0
M  V30 5 O 3.095 1.19667 1.45644 0
M  V30 6 C 0.222 2.43627 2.35294 0
M  V30 7 C -0.732 3.65373 2.2001 0
M  V30 8 S 0.101 5.13292 1.52614 0
M  V30 9 C 1.257 5.56322 2.86805 0
M  V30 10 H 1.49 2.90518 0.631377 0
M  V30 11 H -0.977 1.52953 0.210867 0
M  V30 12 H 0.981 2.67203 3.11629 0
M  V30 13 H -0.358 1.57376 2.7183 0
M  V30 14 H -1.165 3.90944 3.18086 0
M  V30 15 H -1.563 3.418 1.51819 0
M  V30 16 H 0.729 5.58782 3.83104 0
M  V30 17 H 1.672 6.56266 2.65933 0
M  V30 18 H 2.08 4.83886 2.90714 0
M  V30 19 N 1.4781 -0.272755 1.55222 0
M  V30 20 C 2.8941 -0.619959 1.47067 0
M  V30 21 C 3.0941 -1.895 0.684978 0
M  V30 22 O 2.1501 -2.51675 0.203931 0
M  V30 23 C 3.4631 -0.746693 2.91282 0
M  V30 24 C 5.0111 -0.840731 3.01497 0
M  V30 25 C 5.4861 -0.99924 4.46967 0
M  V30 26 N 6.9771 -1.06476 4.50796 0
M  V30 27 C 7.7121 -1.20621 5.6057 0
M  V30 28 N 7.2081 -1.31483 6.80209 0
M  V30 29 N 9.0011 -1.23733 5.48312 0
M  V30 30 H 1.1521 0.564606 2.04758 0
M  V30 31 H 3.4151 0.191177 0.928523 0
M  V30 32 H 3.1211 0.119753 3.51496 0
M  V30 33 H 2.9951 -1.6269 3.40311 0
M  V30 34 H 5.3821 -1.69764 2.41379 0
M  V30 35 H 5.4631 0.0640874 2.5572 0
M  V30 36 H 5.1071 -0.146984 5.07687 0
M  V30 37 H 5.0371 -1.91871 4.90401 0
M  V30 38 H 7.5281 -0.993196 3.64615 0
M  V30 39 H 7.8411 -1.42111 7.59621 0
M  V30 40 H 6.1861 -1.28487 6.8302 0
M  V30 41 H 9.3771 -1.14877 4.53785 0
M  V30 42 H 9.5501 -1.34412 6.33906 0
M  V30 43 N 2.9562 -1.48159 -0.537278 0
M  V30 44 C 4.2042 -1.55497 -1.29094 0
M  V30 45 C 4.5252 -0.227454 -1.93669 0
M  V30 46 O 3.7952 0.750386 -1.80959 0
M  V30 47 H 2.3752 -0.572832 -0.47945 0
M  V30 48 H 5.0372 -1.84579 -0.625818 0
M  V30 49 H 4.1332 -2.33216 -2.07405 0
M  V30 50 N 4.4343 0.785586 -1.36625 0
M  V30 51 C 5.6593 1.57963 -1.34397 0
M  V30 52 C 6.0843 1.87964 0.071526 0
M  V30 53 O 5.4423 1.48182 1.0446 0
M  V30 54 C 5.4903 2.87511 -2.17646 0
M  V30 55 O 4.5943 3.81281 -1.57158 0
M  V30 56 H 3.9353 0.479014 -0.459828 0
M  V30 57 H 6.4653 0.973411 -1.79961 0
M  V30 58 H 6.4753 3.36745 -2.30362 0
M  V30 59 H 5.1503 2.65002 -3.20541 0
M  V30 60 H 3.7273 3.39885 -1.53403 0
M  V30 61 N 5.9124 1.20967 1.01018 0
M  V30 62 C 7.1604 1.02172 1.74371 0
M  V30 63 C 7.4814 -0.446414 1.89821 0
M  V30 64 O 6.7514 -1.32234 1.44537 0
M  V30 65 H 5.3314 0.375066 0.646014 0
M  V30 66 H 7.9934 1.52187 1.21758 0
M  V30 67 H 7.0894 1.48538 2.74487 0
M  V30 68 N 7.3905 -1.2043 1.01659 0
M  V30 69 C 8.8015 -1.71517 0.737482 0
M  V30 70 C 9.1525 -1.81547 -0.743973 0
M  V30 71 O 8.2775 -1.47803 -1.58061 0
M  V30 72 C 8.8725 -3.11515 1.33206 0
M  V30 73 C 7.4315 -3.59912 1.10183 0
M  V30 74 C 6.5785 -2.37116 1.43776 0
M  V30 75 H 9.5295 -1.05444 1.18606 0
M  V30 76 H 9.5505 -3.73575 0.722636 0
M  V30 77 H 9.0625 -3.04182 2.41028 0
M  V30 78 H 7.1635 -3.72577 0.0412756 0
M  V30 79 H 7.2765 -4.44731 1.78188 0
M  V30 80 H 5.6405 -2.39857 0.856778 0
M  V30 81 H 6.4235 -2.32424 2.52654 0
M  V30 82 N 8.8686 -0.792821 -1.36206 0
M  V30 83 C 10.2846 -0.474903 -1.52371 0
M  V30 84 C 10.4846 1.00622 -1.74578 0
M  V30 85 O 9.5406 1.79162 -1.77924 0
M  V30 86 C 10.8536 -1.3083 -2.70747 0
M  V30 87 C 12.4016 -1.30234 -2.84619 0
M  V30 88 C 12.8766 -2.11956 -4.06004 0
M  V30 89 N 14.3676 -2.09419 -4.13156 0
M  V30 90 C 15.1026 -2.69419 -5.06163 0
M  V30 91 N 14.5986 -3.3829 -6.04592 0
M  V30 92 N 16.3916 -2.59134 -4.98804 0
M  V30 93 H 8.5426 -1.75222 -1.20046 0
M  V30 94 H 10.8056 -0.745024 -0.586211 0
M  V30 95 H 10.5116 -2.35881 -2.6087 0
M  V30 96 H 10.3856 -0.95196 -3.6499 0
M  V30 97 H 12.7726 -0.259748 -2.93955 0
M  V30 98 H 12.8536 -1.69847 -1.91274 0
M  V30 99 H 12.4976 -3.16248 -3.97429 0
M  V30 100 H 12.4276 -1.69711 -4.98503 0
M  V30 101 H 14.9186 -1.59297 -3.42685 0
M  V30 102 H 15.2316 -3.81394 -6.7213 0
M  V30 103 H 13.5766 -3.42393 -6.04807 0
M  V30 104 H 16.7676 -2.04927 -4.20859 0
M  V30 105 H 16.9406 -3.06185 -5.711 0
M  V30 106 N 10.3467 1.47872 -0.545128 0
M  V30 107 C 11.5947 2.02093 -0.016553 0
M  V30 108 C 11.9157 1.42305 1.3332 0
M  V30 109 O 11.1857 0.593853 1.86682 0
M  V30 110 H 9.7657 0.746993 -0.00313038 0
M  V30 111 H 12.4277 1.81414 -0.712397 0
M  V30 112 H 11.5237 3.11996 0.0805422 0
M  V30 113 N 11.8248 0.280983 1.55075 0
M  V30 114 C 12.7878 -0.590896 2.21452 0
M  V30 115 C 13.7878 -1.07682 1.19421 0
M  V30 116 O 14.9778 -0.97605 1.44288 0
M  V30 117 C 12.1098 -1.81587 2.88511 0
M  V30 118 H 13.3028 -0.0112554 2.99898 0
M  V30 119 H 10.8558 0.0316438 1.56268 0
M  V30 120 H 11.5908 -2.43587 2.14093 0
M  V30 121 H 11.3758 -1.4753 3.63287 0
M  V30 122 H 12.8658 -2.43575 3.39206 0
M  V30 123 N 13.3029 -1.57598 0.00835791 0
M  V30 124 C 14.5509 -1.90551 -0.6734 0
M  V30 125 C 14.8719 -0.883301 -1.73847 0
M  V30 126 O 14.1419 0.0781442 -1.95744 0
M  V30 127 H 12.7219 -0.703312 -0.251717 0
M  V30 128 H 15.3839 -1.94833 0.0512592 0
M  V30 129 H 14.4799 -2.9056 -1.13935 0
M  V30 130 N 14.781 0.264519 -1.55364 0
M  V30 131 C 16.197 0.61215 -1.47394 0
M  V30 132 C 16.397 1.89134 -0.695018 0
M  V30 133 O 15.453 2.51563 -0.217275 0
M  V30 134 C 16.766 0.731235 -2.91674 0
M  V30 135 C 18.314 0.82473 -3.01939 0
M  V30 136 C 18.789 0.975522 -4.4749 0
M  V30 137 N 20.28 1.04083 -4.51354 0
M  V30 138 C 21.015 1.17646 -5.61201 0
M  V30 139 N 20.511 1.27874 -6.80896 0
M  V30 140 N 22.304 1.20823 -5.48961 0
M  V30 141 H 14.455 -0.575456 -2.04456 0
M  V30 142 H 16.718 -0.196099 -0.927496 0
M  V30 143 H 16.424 -0.138392 -3.51428 0
M  V30 144 H 16.298 1.60883 -3.41169 0
M  V30 145 H 18.685 1.68482 -2.42276 0
M  V30 146 H 18.766 -0.0776479 -2.55682 0
M  V30 147 H 18.41 0.120058 -5.07758 0
M  V30 148 H 18.34 1.89268 -4.91412 0
M  V30 149 H 20.831 0.973846 -3.65136 0
M  V30 150 H 21.144 1.38081 -7.60364 0
M  V30 151 H 19.489 1.24863 -6.83692 0
M  V30 152 H 22.68 1.12469 -4.54388 0
M  V30 153 H 22.853 1.31049 -6.3461 0
M  V30 154 N 16.2591 1.48442 0.529413 0
M  V30 155 C 17.6751 1.34575 0.858004 0
M  V30 156 C 17.8751 0.3572 1.98309 0
M  V30 157 O 16.9311 -0.221379 2.51528 0
M  V30 158 C 18.2441 2.74617 1.22499 0
M  V30 159 C 19.7921 2.83109 1.33484 0
M  V30 160 C 20.2671 4.23854 1.73526 0
M  V30 161 N 21.7581 4.2653 1.80628 0
M  V30 162 C 22.4931 5.32372 2.12997 0
M  V30 163 N 21.9891 6.48491 2.43786 0
M  V30 164 N 23.7821 5.19766 2.14008 0
M  V30 165 H 15.9331 2.1133 -0.212925 0
M  V30 166 H 18.1961 0.947439 -0.0326199 0
M  V30 167 H 17.9021 3.4852 0.471905 0
M  V30 168 H 17.7761 3.08177 2.17501 0
M  V30 169 H 20.1631 2.09462 2.0787 0
M  V30 170 H 20.2441 2.53168 0.366027 0
M  V30 171 H 19.8881 4.98018 0.997013 0
M  V30 172 H 19.8181 4.5124 2.71459 0
M  V30 173 H 22.3091 3.42772 1.59108 0
M  V30 174 H 22.6221 7.24993 2.67592 0
M  V30 175 H 20.9671 6.51765 2.41304 0
M  V30 176 H 24.1581 4.28066 1.89412 0
M  V30 177 H 24.3311 6.02354 2.38902 0
M  V30 178 N 17.7372 -0.778329 1.37039 0
M  V30 179 C 19.1532 -1.07796 1.17695 0
M  V30 180 C 19.3532 -2.01498 0.00860115 0
M  V30 181 O 18.4092 -2.43901 -0.653352 0
M  V30 182 C 19.7222 -1.68178 2.49272 0
M  V30 183 C 21.2702 -1.80467 2.55735 0
M  V30 184 C 21.7452 -2.44263 3.87427 0
M  V30 185 N 23.2362 -2.51721 3.88833 0
M  V30 186 C 23.9712 -3.01919 4.87476 0
M  V30 187 N 23.4672 -3.5234 5.96513 0
M  V30 188 N 25.2602 -3.00733 4.74885 0
M  V30 189 H 17.4112 -0.156032 2.11826 0
M  V30 190 H 19.6742 -0.131844 0.938787 0
M  V30 191 H 19.3802 -1.06796 3.35093 0
M  V30 192 H 19.2542 -2.67554 2.65885 0
M  V30 193 H 21.6412 -2.40984 1.70325 0
M  V30 194 H 21.7222 -0.798656 2.43013 0
M  V30 195 H 21.3662 -1.84388 4.73248 0
M  V30 196 H 21.2962 -3.45458 3.9745 0
M  V30 197 H 23.7872 -2.1603 3.10063 0
M  V30 198 H 24.1002 -3.89027 6.67741 0
M  V30 199 H 22.4452 -3.50462 6.00168 0
M  V30 200 H 25.6362 -2.60638 3.88826 0
M  V30 201 H 25.8092 -3.39545 5.51918 0
M  V30 202 N 19.2153 -1.21501 -1.00376 0
M  V30 203 C 20.6263 -1.03146 -1.55621 0
M  V30 204 C 20.9773 0.408375 -1.91903 0
M  V30 205 O 20.1023 1.29177 -1.73616 0
M  V30 206 C 20.6973 -1.86612 -2.82775 0
M  V30 207 C 19.2563 -1.72586 -3.34501 0
M  V30 208 C 18.4033 -1.83747 -2.07683 0
M  V30 209 H 21.3543 -1.35505 -0.826081 0
M  V30 210 H 21.3753 -1.3771 -3.54706 0
M  V30 211 H 20.8873 -2.91399 -2.56336 0
M  V30 212 H 18.9883 -0.704877 -3.65872 0
M  V30 213 H 19.1013 -2.54623 -4.05837 0
M  V30 214 H 17.4653 -1.27069 -2.20739 0
M  V30 215 H 18.2483 -2.90044 -1.83655 0
M  V30 216 N 20.6934 1.19889 -1.02296 0
M  V30 217 C 22.1044 1.71124 -0.746568 0
M  V30 218 C 22.4554 1.81939 0.734335 0
M  V30 219 O 21.5804 1.48639 1.57275 0
M  V30 220 C 22.1754 3.10804 -1.34857 0
M  V30 221 C 20.7344 3.59323 -1.1209 0
M  V30 222 C 19.8814 2.3635 -1.45031 0
M  V30 223 H 22.8324 1.04813 -1.19163 0
M  V30 224 H 22.8534 3.73186 -0.742437 0
M  V30 225 H 22.3654 3.029 -2.42638 0
M  V30 226 H 20.4664 3.7255 -0.0610337 0
M  V30 227 H 20.5794 4.4378 -1.80544 0
M  V30 228 H 18.9434 2.39399 -0.869487 0
M  V30 229 H 19.7264 2.31081 -2.53883 0
M  V30 230 N 22.1715 0.800033 1.35784 0
M  V30 231 C 23.3965 0.388511 2.03729 0
M  V30 232 C 23.8215 -0.990481 1.5991 0
M  V30 233 O 23.1795 -1.64013 0.772612 0
M  V30 234 C 23.2275 0.4726 3.5749 0
M  V30 235 O 22.3315 -0.51646 4.09153 0
M  V30 236 H 21.6725 0.163271 0.643614 0
M  V30 237 H 24.2025 1.0841 1.73518 0
M  V30 238 H 24.2125 0.34003 4.06581 0
M  V30 239 H 22.8875 1.47848 3.88734 0
M  V30 240 H 21.4645 -0.344673 3.71304 0
M  V30 241 N 23.6496 -1.47581 0.552962 0
M  V30 242 C 24.8976 -2.02082 0.0272703 0
M  V30 243 C 25.2186 -1.4301 -1.32563 0
M  V30 244 O 24.4886 -0.603745 -1.86365 0
M  V30 245 H 23.0686 -0.746966 0.00709182 0
M  V30 246 H 25.7306 -1.81033 0.722008 0
M  V30 247 H 24.8266 -3.12034 -0.0639951 0
M  V30 248 N 25.1277 -0.289203 -1.54924 0
M  V30 249 C 26.3757 0.322879 -1.99504 0
M  V30 250 C 26.6967 1.55313 -1.1791 0
M  V30 251 O 25.9667 1.94001 -0.272097 0
M  V30 252 H 24.5467 0.122291 -0.736922 0
M  V30 253 H 27.2087 -0.397802 -1.90797 0
M  V30 254 H 26.3047 0.603061 -3.06218 0
M  V30 255 N 26.6058 1.57591 -0.0167156 0
M  V30 256 C 27.8538 1.90906 0.663285 0
M  V30 257 C 28.1748 0.892509 1.73376 0
M  V30 258 O 27.4448 -0.0677623 1.95783 0
M  V30 259 H 26.0248 0.704637 0.247983 0
M  V30 260 H 28.6868 1.94803 -0.0615909 0
M  V30 261 H 27.7828 2.9116 1.12393 0
M  V30 262 N 28.0839 -0.256276 1.55502 0
M  V30 263 C 29.3609 -1.00789 1.67633 0
M  V30 264 C 29.7409 -2.03706 0.553826 0
M  V30 265 O 29.0889 -2.24145 -0.443969 0
M  V30 266 C 29.2989 -1.64968 3.07549 0
M  V30 267 C 30.6469 -2.15505 3.65845 0
M  V30 268 O 31.6709 -1.74925 3.1029 0
M  V30 269 O 30.5299 -2.89986 4.63217 0
M  V30 270 H 27.6239 -0.468553 0.681459 0
M  V30 271 H 30.1699 -0.250806 1.67836 0
M  V30 272 H 28.9419 -0.904785 3.80696 0
M  V30 273 H 28.5649 -2.47321 3.11317 0
M  V30 274 N 29.562 -1.4872 -0.521534 0
M  V30 275 C 30.79 -1.60843 -1.30142 0
M  V30 276 C 31.205 -0.271897 -1.86832 0
M  V30 277 O 30.562 0.739969 -1.66825 0
M  V30 278 C 30.613 -2.66155 -2.4463 0
M  V30 279 O 30.334 -3.94623 -1.90275 0
M  V30 280 C 31.835 -2.88795 -3.36322 0
M  V30 281 H 29.055 -0.542075 -0.395468 0
M  V30 282 H 31.599 -1.94609 -0.628285 0
M  V30 283 H 29.754 -2.35224 -3.07812 0
M  V30 284 H 30.168 -4.52468 -2.65279 0
M  V30 285 H 31.642 -3.66264 -4.12983 0
M  V30 286 H 32.119 -1.97934 -3.9207 0
M  V30 287 H 32.725 -3.21063 -2.78924 0
M  V30 288 N 31.0401 0.771051 -1.3745 0
M  V30 289 C 32.4511 1.34737 -1.29239 0
M  V30 290 C 32.8021 1.96109 0.0596908 0
M  V30 291 O 31.9271 1.93865 0.961534 0
M  V30 292 C 32.5221 2.44973 -2.34037 0
M  V30 293 C 31.0811 2.98372 -2.29458 0
M  V30 294 C 30.2281 1.71595 -2.17831 0
M  V30 295 H 33.1791 0.571256 -1.48062 0
M  V30 296 H 33.2001 3.24471 -1.98744 0
M  V30 297 H 32.7121 2.00276 -3.32432 0
M  V30 298 H 30.8131 3.47443 -1.34589 0
M  V30 299 H 30.9261 3.53939 -3.229 0
M  V30 300 H 29.2901 1.94547 -1.64388 0
M  V30 301 H 30.0731 1.29001 -3.18141 0
M  V30 302 N 32.5182 1.22032 0.997298 0
M  V30 303 C 33.7672 1.03637 1.73038 0
M  V30 304 C 34.0802 -0.429475 1.90827 0
M  V30 305 O 35.2862 -0.732995 2.61418 0
M  V30 306 C 33.7422 1.80582 3.11317 0
M  V30 307 C 33.3502 3.31387 3.01474 0
M  V30 308 C 35.0942 1.70621 3.88701 0
M  V30 309 C 33.0012 4.00791 4.3488 0
M  V30 310 H 31.9312 0.384179 0.648785 0
M  V30 311 H 34.5822 1.4584 1.11368 0
M  V30 312 H 32.9642 1.31175 3.73643 0
M  V30 313 H 34.1382 3.88155 2.4834 0
M  V30 314 H 32.4532 3.41976 2.37575 0
M  V30 315 H 35.0502 2.19799 4.87434 0
M  V30 316 H 35.3932 0.665823 4.10941 0
M  V30 317 H 35.9262 2.17547 3.33044 0
M  V30 318 H 32.6652 5.05064 4.1784 0
M  V30 319 H 32.1852 3.48811 4.87945 0
M  V30 320 H 33.8642 4.06139 5.03647 0
M  V30 321 N 33.9963 -1.19345 1.0293 0
M  V30 322 C 35.2243 -1.92997 0.745644 0
M  V30 323 C 35.6393 -1.75519 -0.695589 0
M  V30 324 O 34.9963 -1.07737 -1.47306 0
M  V30 325 C 35.0473 -3.44741 1.08792 0
M  V30 326 O 34.7683 -3.61658 2.47256 0
M  V30 327 C 36.2693 -4.35515 0.827129 0
M  V30 328 H 33.4893 -0.613042 0.272801 0
M  V30 329 H 36.0333 -1.51473 1.3739 0
M  V30 330 H 34.1883 -3.84097 0.504832 0
M  V30 331 H 34.6023 -4.55514 2.60015 0
M  V30 332 H 36.0763 -5.40589 1.11658 0
M  V30 333 H 36.5533 -4.38552 -0.238436 0
M  V30 334 H 37.1593 -4.01841 1.39297 0
M  V30 335 N 35.4744 -0.807222 -1.35358 0
M  V30 336 C 36.8854 -0.44876 -1.81226 0
M  V30 337 C 37.2364 1.02929 -1.67033 0
M  V30 338 O 36.3614 1.79991 -1.20133 0
M  V30 339 C 36.9564 -0.807774 -3.2903 0
M  V30 340 C 35.5154 -0.501901 -3.73039 0
M  V30 341 C 34.6624 -1.03304 -2.57339 0
M  V30 342 H 37.6134 -0.998808 -1.23327 0
M  V30 343 H 37.6344 -0.10554 -3.80354 0
M  V30 344 H 37.1464 -1.88357 -3.39328 0
M  V30 345 H 35.2474 0.565128 -3.68289 0
M  V30 346 H 35.3604 -1.03497 -4.67787 0
M  V30 347 H 33.7244 -0.455339 -2.50597 0
M  V30 348 H 34.5074 -2.11496 -2.70415 0
M  V30 349 N 36.9525 1.47285 -0.560781 0
M  V30 350 C 37.9155 2.28535 0.174488 0
M  V30 351 C 38.9155 1.37153 0.839388 0
M  V30 352 O 40.1055 1.59748 0.694702 0
M  V30 353 C 37.2375 3.16934 1.25561 0
M  V30 354 H 38.4305 2.95012 -0.539262 0
M  V30 355 H 35.9835 1.53034 -0.317865 0
M  V30 356 H 36.7185 2.55157 2.00164 0
M  V30 357 H 36.5035 3.8419 0.783604 0
M  V30 358 H 37.9935 3.78143 1.77193 0
M  V30 359 N 38.4306 0.297415 1.54768 0
M  V30 360 C 39.6556 -0.318435 2.04941 0
M  V30 361 C 40.0806 -1.4701 1.17345 0
M  V30 362 O 39.4386 -1.80436 0.176758 0
M  V30 363 C 39.4866 -0.755749 3.52592 0
M  V30 364 O 38.5906 -1.86088 3.68028 0
M  V30 365 H 37.9316 -0.062421 0.661059 0
M  V30 366 H 40.4616 0.438215 1.99852 0
M  V30 367 H 40.4716 -1.04552 3.94376 0
M  V30 368 H 39.1466 0.0867233 4.1581 0
M  V30 369 H 37.7236 -1.57193 3.38149 0
M  V30 370 N 39.9087 -1.5758 0.0250728 0
M  V30 371 C 40.8387 -2.13007 -0.956575 0
M  V30 372 C 41.8197 -1.0452 -1.342 0
M  V30 373 O 43.0047 -1.32332 -1.42133 0
M  V30 374 C 40.1347 -2.65386 -2.24026 0
M  V30 375 C 39.0887 -3.78623 -1.99571 0
M  V30 376 C 38.4147 -4.17414 -3.3417 0
M  V30 377 C 39.7147 -5.04867 -1.33814 0
M  V30 378 H 41.4087 -2.9528 -0.494991 0
M  V30 379 H 38.9547 -1.42042 -0.236651 0
M  V30 380 H 40.9077 -3.02794 -2.93076 0
M  V30 381 H 39.6317 -1.80268 -2.72343 0
M  V30 382 H 38.2907 -3.41646 -1.32941 0
M  V30 383 H 37.9387 -3.29284 -3.80238 0
M  V30 384 H 37.6387 -4.93719 -3.18615 0
M  V30 385 H 39.1627 -4.57402 -4.04495 0
M  V30 386 H 40.5767 -5.39888 -1.92857 0
M  V30 387 H 38.9737 -5.86144 -1.28669 0
M  V30 388 H 40.0437 -4.83904 -0.310561 0
M  V30 389 N 41.3868 0.248026 -1.55636 0
M  V30 390 C 42.3498 1.29044 -1.89421 0
M  V30 391 C 43.3498 1.41134 -0.770581 0
M  V30 392 O 44.5398 1.39854 -1.03858 0
M  V30 393 C 41.6718 2.66831 -2.12165 0
M  V30 394 H 42.8648 1.00305 -2.82629 0
M  V30 395 H 40.4178 0.487265 -1.48511 0
M  V30 396 H 41.1528 3.00711 -1.21422 0
M  V30 397 H 40.9378 2.59438 -2.93997 0
M  V30 398 H 42.4278 3.42103 -2.3949 0
M  V30 399 N 42.8649 1.48995 0.513639 0
M  V30 400 C 44.1129 1.57531 1.26604 0
M  V30 401 C 44.4339 0.258236 1.93283 0
M  V30 402 O 43.7039 -0.721502 1.8213 0
M  V30 403 H 42.2839 0.580387 0.470276 0
M  V30 404 H 44.9459 1.85552 0.596373 0
M  V30 405 H 44.0419 2.36486 2.03669 0
M  V30 406 N 44.343 -0.763751 1.37857 0
M  V30 407 C 45.583 -1.53551 1.34913 0
M  V30 408 C 45.947 -1.91895 -0.0635882 0
M  V30 409 O 47.148 -2.67916 -0.217825 0
M  V30 410 C 45.419 -2.76126 2.26912 0
M  V30 411 S 46.978 -3.66105 2.41893 0
M  V30 412 H 43.796 -0.52559 0.478828 0
M  V30 413 H 46.398 -0.897435 1.73685 0
M  V30 414 H 45.102 -2.4605 3.28463 0
M  V30 415 H 44.633 -3.44887 1.89253 0
M  V30 416 H 46.648 -4.68473 1.63545 0
M  V30 417 N 45.8211 -1.22559 -0.990812 0
M  V30 418 C 47.0511 -1.07623 -1.76355 0
M  V30 419 C 47.4591 0.37601 -1.85426 0
M  V30 420 O 46.8021 1.27228 -1.32509 0
M  V30 421 C 46.8641 -1.61507 -3.21179 0
M  V30 422 C 46.5281 -3.10146 -3.35646 0
M  V30 423 C 47.5251 -4.07553 -3.22796 0
M  V30 424 C 45.2101 -3.49644 -3.60631 0
M  V30 425 C 47.2041 -5.42442 -3.34716 0
M  V30 426 C 44.8911 -4.84682 -3.72192 0
M  V30 427 C 45.8891 -5.8089 -3.59243 0
M  V30 428 O 45.5771 -7.13476 -3.70415 0
M  V30 429 H 45.3091 -0.377745 -0.560611 0
M  V30 430 H 47.8631 -1.62658 -1.25425 0
M  V30 431 H 46.0931 -1.00881 -3.73309 0
M  V30 432 H 47.7821 -1.42202 -3.80175 0
M  V30 433 H 48.5481 -3.78381 -3.03403 0
M  V30 434 H 44.4271 -2.75282 -3.69785 0
M  V30 435 H 47.9711 -6.17518 -3.24526 0
M  V30 436 H 43.8681 -5.13534 -3.91092 0
M  V30 437 H 44.6361 -7.21083 -3.87275 0
M  V30 438 N 47.2992 1.18797 -1.03562 0
M  V30 439 C 48.5242 1.9314 -0.755764 0
M  V30 440 C 48.9492 1.7537 0.68022 0
M  V30 441 O 48.3072 1.06046 1.47051 0
M  V30 442 C 48.3552 3.42747 -1.12058 0
M  V30 443 O 47.4592 4.11683 -0.243124 0
M  V30 444 H 46.8002 0.602724 -0.278604 0
M  V30 445 H 49.3302 1.50678 -1.3841 0
M  V30 446 H 49.3402 3.93437 -1.08035 0
M  V30 447 H 48.0152 3.55002 -2.16672 0
M  V30 448 H 46.5922 3.71323 -0.342539 0
M  V30 449 N 48.7773 0.814389 1.34928 0
M  V30 450 C 49.7403 0.235759 2.27984 0
M  V30 451 C 50.7403 -0.581412 1.49921 0
M  V30 452 O 51.9303 -0.398758 1.69575 0
M  V30 453 C 49.0623 -0.670433 3.34242 0
M  V30 454 H 50.2553 1.05659 2.80671 0
M  V30 455 H 47.8083 0.585614 1.44915 0
M  V30 456 H 48.5433 -1.51466 2.86755 0
M  V30 457 H 48.3283 -0.0860822 3.92005 0
M  V30 458 H 49.8183 -1.06935 4.03676 0
M  V30 459 N 50.2554 -1.46986 0.568584 0
M  V30 460 C 51.6664 -1.86188 0.138219 0
M  V30 461 C 52.0174 -1.47388 -1.29504 0
M  V30 462 O 51.1424 -0.88219 -1.97602 0
M  V30 463 C 51.7374 -3.3792 0.244065 0
M  V30 464 C 50.2964 -3.76171 -0.131335 0
M  V30 465 C 49.4434 -2.71027 0.586465 0
M  V30 466 H 52.3944 -1.38342 0.777645 0
M  V30 467 H 52.4154 -3.76729 -0.534351 0
M  V30 468 H 51.9274 -3.66128 1.28731 0
M  V30 469 H 50.0284 -3.5358 -1.17526 0
M  V30 470 H 50.1414 -4.78523 0.235146 0
M  V30 471 H 48.5054 -2.54684 0.0282722 0
M  V30 472 H 49.2884 -3.02077 1.63109 0
M  V30 473 N 51.7335 -0.305618 -1.54608 0
M  V30 474 C 53.1495 0.0476228 -1.59529 0
M  V30 475 C 53.3495 1.52025 -1.32252 0
M  V30 476 O 52.4055 2.27368 -1.09818 0
M  V30 477 C 53.7185 -0.354471 -2.98603 0
M  V30 478 C 55.2665 -0.303622 -3.11524 0
M  V30 479 C 55.7415 -0.680608 -4.52915 0
M  V30 480 N 57.2325 -0.63332 -4.5885 0
M  V30 481 C 57.9675 -0.897432 -5.66334 0
M  V30 482 N 57.4635 -1.22775 -6.81834 0
M  V30 483 N 59.2565 -0.824186 -5.56025 0
M  V30 484 H 51.4075 -1.2653 -1.70599 0
M  V30 485 H 53.6705 -0.513291 -0.797017 0
M  V30 486 H 53.3765 -1.3798 -3.23503 0
M  V30 487 H 53.2505 0.289568 -3.76087 0
M  V30 488 H 55.6375 0.712472 -2.8637 0
M  V30 489 H 55.7185 -0.982348 -2.36185 0
M  V30 490 H 55.3625 -1.69453 -4.78799 0
M  V30 491 H 55.2925 0.0202385 -5.26596 0
M  V30 492 H 57.7835 -0.389138 -3.75891 0
M  V30 493 H 58.0965 -1.41513 -7.59733 0
M  V30 494 H 56.4415 -1.26583 -6.83375 0
M  V30 495 H 59.6325 -0.565748 -4.64669 0
M  V30 496 H 59.8055 -1.03338 -6.39707 0
M  V30 497 N 53.2116 1.57565 -0.0334293 0
M  V30 498 C 54.6276 1.56297 0.322997 0
M  V30 499 C 54.8276 1.03945 1.7262 0
M  V30 500 O 53.8836 0.688109 2.42943 0
M  V30 501 C 55.1966 3.00232 0.167664 0
M  V30 502 C 56.7446 3.12078 0.240107 0
M  V30 503 C 57.2196 4.57859 0.113513 0
M  V30 504 N 58.7106 4.62887 0.170359 0
M  V30 505 C 59.4456 5.73319 0.0962517 0
M  V30 506 N 58.9416 6.92794 -0.0291881 0
M  V30 507 N 60.7346 5.61898 0.150551 0
M  V30 508 H 52.8856 1.89923 -0.950956 0
M  V30 509 H 55.1486 0.873824 -0.367608 0
M  V30 510 H 54.8546 3.42501 -0.799102 0
M  V30 511 H 54.7286 3.654 0.936083 0
M  V30 512 H 57.1156 2.69718 1.19733 0
M  V30 513 H 57.1966 2.49623 -0.558763 0
M  V30 514 H 56.8406 5.009 -0.840314 0
M  V30 515 H 56.7706 5.18299 0.931302 0
M  V30 516 H 59.2616 3.76954 0.26728 0
M  V30 517 H 59.5746 7.7276 -0.0789252 0
M  V30 518 H 57.9196 6.94971 -0.0640299 0
M  V30 519 H 61.1106 4.67448 0.246981 0
M  V30 520 H 61.2836 6.47938 0.0893365 0
M  V30 521 N 54.6897 -0.239769 1.55765 0
M  V30 522 C 55.6527 -1.28038 1.90103 0
M  V30 523 C 56.6527 -1.40723 0.778055 0
M  V30 524 O 57.8427 -1.39301 1.04599 0
M  V30 525 C 54.9747 -2.65702 2.13577 0
M  V30 526 H 56.1677 -0.988048 2.83157 0
M  V30 527 H 53.7207 -0.479382 1.48767 0
M  V30 528 H 54.4557 -3.00063 1.23015 0
M  V30 529 H 54.2407 -2.57875 2.95369 0
M  V30 530 H 55.7307 -3.40828 2.41301 0
M  V30 531 N 56.1678 -1.49265 -0.50573 0
M  V30 532 C 57.5788 -1.51769 -1.08734 0
M  V30 533 C 57.9298 -0.301192 -1.93874 0
M  V30 534 O 57.0548 0.589456 -2.08217 0
M  V30 535 C 57.6498 -2.75017 -1.97867 0
M  V30 536 C 56.2088 -2.80314 -2.51199 0
M  V30 537 C 55.3558 -2.4562 -1.28709 0
M  V30 538 H 58.3068 -1.56031 -0.289855 0
M  V30 539 H 58.3278 -2.5491 -2.82491 0
M  V30 540 H 57.8398 -3.63539 -1.35873 0
M  V30 541 H 55.9408 -1.96061 -3.16845 0
M  V30 542 H 56.0538 -3.82366 -2.88675 0
M  V30 543 H 54.4178 -1.97297 -1.61078 0
M  V30 544 H 55.2008 -3.36411 -0.6843 0
M  V30 545 N 57.6459 0.756429 -1.3826 0
M  V30 546 C 58.5759 1.88374 -1.37976 0
M  V30 547 C 59.5569 1.68311 -0.246082 0
M  V30 548 O 60.7419 1.88944 -0.44874 0
M  V30 549 C 57.8719 3.25864 -1.20125 0
M  V30 550 C 56.8259 3.60523 -2.30666 0
M  V30 551 C 56.1519 4.9672 -1.97923 0
M  V30 552 C 57.4519 3.65692 -3.72916 0
M  V30 553 H 59.1459 1.88869 -2.32312 0
M  V30 554 H 56.6919 0.907272 -1.11824 0
M  V30 555 H 58.6449 4.0438 -1.18552 0
M  V30 556 H 57.3689 3.25841 -0.222498 0
M  V30 557 H 56.0279 2.84324 -2.3142 0
M  V30 558 H 55.6759 4.93253 -0.985393 0
M  V30 559 H 55.3759 5.20878 -2.71955 0
M  V30 560 H 56.8999 5.77618 -1.97964 0
M  V30 561 H 58.3139 4.34328 -3.74208 0
M  V30 562 H 56.7109 4.01358 -4.4613 0
M  V30 563 H 57.7809 2.65987 -4.05436 0
M  V30 564 N 59.124 1.23083 0.984299 0
M  V30 565 C 60.37 1.07221 1.72845 0
M  V30 566 C 60.725 -0.387453 1.88458 0
M  V30 567 O 60.018 -1.28309 1.42293 0
M  V30 568 C 60.212 1.72673 3.1292 0
M  V30 569 C 60.041 3.24853 3.10967 0
M  V30 570 C 58.811 3.93998 3.16376 0
M  V30 571 C 61.009 4.21674 2.94441 0
M  V30 572 N 58.991 5.33192 3.04268 0
M  V30 573 C 60.362 5.47756 2.90453 0
M  V30 574 C 62.417 4.12457 2.78897 0
M  V30 575 C 61.12 6.6568 2.72512 0
M  V30 576 C 63.146 5.3004 2.62319 0
M  V30 577 C 62.508 6.55046 2.59026 0
M  V30 578 H 58.607 0.44685 0.641755 0
M  V30 579 H 61.191 1.55753 1.16829 0
M  V30 580 H 59.362 1.26679 3.67161 0
M  V30 581 H 61.094 1.49824 3.75945 0
M  V30 582 H 57.849 3.45052 3.24401 0
M  V30 583 H 58.273 6.06157 3.015 0
M  V30 584 H 62.915 3.16588 2.80235 0
M  V30 585 H 60.633 7.61689 2.69919 0
M  V30 586 H 64.219 5.24747 2.5126 0
M  V30 587 H 63.099 7.44498 2.46357 0
M  V30 588 N 60.6021 -1.18246 1.0419 0
M  V30 589 C 61.8301 -1.92195 0.766072 0
M  V30 590 C 62.2451 -1.76247 -0.676933 0
M  V30 591 O 61.6021 -1.09293 -1.46155 0
M  V30 592 C 61.6531 -3.43568 1.12442 0
M  V30 593 O 61.3741 -3.59015 2.51078 0
M  V30 594 C 62.8751 -4.34613 0.873275 0
M  V30 595 H 60.0951 -0.610114 0.279288 0
M  V30 596 H 62.6391 -1.50007 1.38989 0
M  V30 597 H 60.7941 -3.8354 0.545542 0
M  V30 598 H 61.2081 -4.5273 2.64831 0
M  V30 599 H 62.6821 -5.39374 1.17385 0
M  V30 600 H 63.1591 -4.38781 -0.191909 0
M  V30 601 H 63.7651 -4.00341 1.43551 0
M  V30 602 N 62.0802 -0.821533 -1.34494 0
M  V30 603 C 63.3202 -0.414785 -2.00147 0
M  V30 604 C 63.6842 1.00299 -1.6372 0
M  V30 605 O 64.8852 1.51255 -2.22206 0
M  V30 606 C 63.1562 -0.609403 -3.52166 0
M  V30 607 S 64.7152 -0.295297 -4.37805 0
M  V30 608 H 61.5332 -0.15679 -0.693497 0
M  V30 609 H 64.1352 -1.06705 -1.63812 0
M  V30 610 H 62.8392 -1.64096 -3.76166 0
M  V30 611 H 62.3702 0.0576414 -3.93358 0
M  V30 612 H 64.3852 0.891531 -4.88125 0
M  V30 613 N 63.5583 1.46682 -0.576371 0
M  V30 614 C 64.4883 2.33028 0.148397 0
M  V30 615 C 65.4693 1.44961 0.889956 0
M  V30 616 O 66.6543 1.73789 0.866662 0
M  V30 617 C 63.7843 3.27117 1.1667 0
M  V30 618 C 62.7383 4.24575 0.540386 0
M  V30 619 C 62.0643 5.08126 1.6647 0
M  V30 620 C 63.3643 5.19722 -0.518331 0
M  V30 621 H 65.0583 2.93875 -0.572509 0
M  V30 622 H 62.6043 1.41315 -0.276768 0
M  V30 623 H 64.5573 3.86374 1.68204 0
M  V30 624 H 63.2813 2.64364 1.9178 0
M  V30 625 H 61.9403 3.66571 0.0461769 0
M  V30 626 H 61.5883 4.41762 2.40531 0
M  V30 627 H 61.2883 5.74122 1.25131 0
M  V30 628 H 62.8123 5.70246 2.18293 0
M  V30 629 H 64.2263 5.73232 -0.0883058 0
M  V30 630 H 62.6233 5.94026 -0.851679 0
M  V30 631 H 63.6933 4.64037 -1.40703 0
M  V30 632 N 65.0364 0.313813 1.54444 0
M  V30 633 C 65.9664 -0.549454 2.26943 0
M  V30 634 C 66.9474 -1.12741 1.27372 0
M  V30 635 O 68.1324 -1.15436 1.56167 0
M  V30 636 C 65.2624 -1.71523 3.01989 0
M  V30 637 C 64.2164 -1.26703 4.08816 0
M  V30 638 C 63.5424 -2.51898 4.71647 0
M  V30 639 C 64.8424 -0.388962 5.2085 0
M  V30 640 H 66.5364 0.0552661 2.99349 0
M  V30 641 H 64.0824 0.0280207 1.43973 0
M  V30 642 H 66.0354 -2.32535 3.51433 0
M  V30 643 H 64.7594 -2.34639 2.27183 0
M  V30 644 H 63.4184 -0.679896 3.6024 0
M  V30 645 H 63.0664 -3.13356 3.93468 0
M  V30 646 H 62.7664 -2.22605 5.43802 0
M  V30 647 H 64.2904 -3.1369 5.23861 0
M  V30 648 H 65.7044 -0.905107 5.6611 0
M  V30 649 H 64.1014 -0.18924 5.99802 0
M  V30 650 H 65.1714 0.582699 4.81386 0
M  V30 651 N 66.5145 -1.57545 0.0417849 0
M  V30 652 C 67.4445 -2.14009 -0.933929 0
M  V30 653 C 68.4255 -1.05938 -1.33083 0
M  V30 654 O 69.6105 -1.33833 -1.40721 0
M  V30 655 C 66.7405 -2.67747 -2.21199 0
M  V30 656 C 65.6945 -3.80718 -1.95544 0
M  V30 657 C 65.0205 -4.20935 -3.29724 0
M  V30 658 C 66.3205 -5.06258 -1.28452 0
M  V30 659 H 68.0145 -2.95788 -0.463645 0
M  V30 660 H 65.5605 -1.42285 -0.221573 0
M  V30 661 H 67.5135 -3.05886 -2.89848 0
M  V30 662 H 66.2375 -1.83147 -2.70416 0
M  V30 663 H 64.8965 -3.43037 -1.2931 0
M  V30 664 H 64.5445 -3.33298 -3.76724 0
M  V30 665 H 64.2445 -4.9707 -3.13361 0
M  V30 666 H 65.7685 -4.61666 -3.9962 0
M  V30 667 H 67.1825 -5.41903 -1.8712 0
M  V30 668 H 65.5795 -5.87475 -1.22445 0
M  V30 669 H 66.6495 -4.84207 -0.259219 0
M  V30 670 N 67.9926 0.231505 -1.5589 0
M  V30 671 C 69.2326 0.964533 -1.80211 0
M  V30 672 C 69.5966 1.81926 -0.613744 0
M  V30 673 O 70.7976 2.58526 -0.736045 0
M  V30 674 C 69.0686 1.78956 -3.09369 0
M  V30 675 S 70.6276 2.57959 -3.54969 0
M  V30 676 H 67.4456 0.324173 -0.632798 0
M  V30 677 H 70.0476 0.230985 -1.94131 0
M  V30 678 H 68.7516 1.15161 -3.93911 0
M  V30 679 H 68.2826 2.56559 -2.9823 0
M  V30 680 H 70.2976 3.81309 -3.17519 0
M  V30 681 N 69.4707 1.49531 0.497807 0
M  V30 682 C 70.4337 1.65916 1.58128 0
M  V30 683 C 71.4337 0.530825 1.51786 0
M  V30 684 O 72.6237 0.797342 1.54881 0
M  V30 685 C 69.7557 1.65951 2.9778 0
M  V30 686 H 70.9487 2.62556 1.44929 0
M  V30 687 H 68.5017 1.38611 0.722275 0
M  V30 688 H 69.2367 0.709065 3.16453 0
M  V30 689 H 69.0217 2.47897 3.03792 0
M  V30 690 H 70.5117 1.80673 3.76493 0
M  V30 691 N 70.9488 -0.749086 1.3866 0
M  V30 692 C 71.9118 -1.84457 1.36045 0
M  V30 693 C 72.9118 -1.58682 0.260122 0
M  V30 694 O 74.1018 -1.66343 0.517261 0
M  V30 695 C 71.2338 -3.22008 1.11911 0
M  V30 696 H 72.4268 -1.88182 2.33512 0
M  V30 697 H 69.9798 -0.951266 1.24019 0
M  V30 698 H 70.7148 -3.2395 0.150686 0
M  V30 699 H 70.4998 -3.42111 1.91579 0
M  V30 700 H 71.9898 -4.0208 1.12788 0
M  V30 701 N 72.4269 -1.23603 -0.977757 0
M  V30 702 C 73.3569 -1.04401 -2.0886 0
M  V30 703 C 74.3379 0.0399052 -1.70053 0
M  V30 704 O 75.5229 -0.125246 -1.93796 0
M  V30 705 C 72.6529 -0.637269 -3.41403 0
M  V30 706 C 71.6069 -1.66883 -3.94124 0
M  V30 707 C 70.9329 -1.11745 -5.22893 0
M  V30 708 C 72.2329 -3.06247 -4.23096 0
M  V30 709 H 73.9269 -1.97316 -2.25182 0
M  V30 710 H 71.4729 -0.950096 -1.08209 0
M  V30 711 H 73.4259 -0.48998 -4.18542 0
M  V30 712 H 72.1499 0.327557 -3.24953 0
M  V30 713 H 70.8089 -1.80416 -3.19133 0
M  V30 714 H 70.4569 -0.143527 -5.02795 0
M  V30 715 H 70.1569 -1.80672 -5.59134 0
M  V30 716 H 71.6809 -0.982067 -6.02651 0
M  V30 717 H 73.0949 -2.96001 -4.90975 0
M  V30 718 H 71.4919 -3.72436 -4.70544 0
M  V30 719 H 72.5619 -3.55041 -3.30263 0
M  V30 720 N 73.905 1.17692 -1.04816 0
M  V30 721 C 75.321 1.39863 -0.768794 0
M  V30 722 C 75.521 1.91118 0.638451 0
M  V30 723 O 74.577 2.10036 1.40146 0
M  V30 724 C 75.89 2.39274 -1.82122 0
M  V30 725 C 77.438 2.52987 -1.843 0
M  V30 726 C 77.913 3.55669 -2.88555 0
M  V30 727 N 79.404 3.63183 -2.87493 0
M  V30 728 C 80.139 4.42381 -3.64811 0
M  V30 729 N 79.635 5.25125 -4.51903 0
M  V30 730 N 81.428 4.37217 -3.53267 0
M  V30 731 H 73.579 0.82752 -1.95617 0
M  V30 732 H 75.842 0.426123 -0.846831 0
M  V30 733 H 75.548 2.08678 -2.83102 0
M  V30 734 H 75.422 3.38725 -1.65967 0
M  V30 735 H 77.809 2.82896 -0.839869 0
M  V30 736 H 77.89 1.53623 -2.04532 0
M  V30 737 H 77.534 3.26499 -3.89051 0
M  V30 738 H 77.464 4.54728 -2.65575 0
M  V30 739 H 79.955 3.04103 -2.24343 0
M  V30 740 H 80.268 5.82728 -5.07591 0
M  V30 741 H 78.613 5.24519 -4.55966 0
M  V30 742 H 81.804 3.71626 -2.84625 0
M  V30 743 H 81.977 4.98696 -4.13771 0
M  V30 744 N 75.3831 0.828654 1.34056 0
M  V30 745 C 76.6111 0.43262 2.02326 0
M  V30 746 C 77.0261 -0.963147 1.62385 0
M  V30 747 O 76.3831 -1.62425 0.832121 0
M  V30 748 C 76.4341 0.53182 3.57567 0
M  V30 749 O 76.1551 1.87258 3.96063 0
M  V30 750 C 77.6561 0.131422 4.43105 0
M  V30 751 H 74.8761 0.172923 0.648335 0
M  V30 752 H 77.4201 1.1184 1.71208 0
M  V30 753 H 75.5751 -0.105938 3.87255 0
M  V30 754 H 75.9891 1.85087 4.90758 0
M  V30 755 H 77.4631 0.251904 5.51425 0
M  V30 756 H 77.9401 -0.925645 4.29335 0
M  V30 757 H 78.5461 0.743207 4.18756 0
M  V30 758 N 76.8612 -1.46375 0.584142 0
M  V30 759 C 77.7912 -2.33103 -0.136037 0
M  V30 760 C 78.7722 -1.45431 -0.882255 0
M  V30 761 O 79.9572 -1.74246 -0.857434 0
M  V30 762 C 77.0872 -3.27731 -1.14933 0
M  V30 763 C 76.0412 -4.24855 -0.517862 0
M  V30 764 C 75.3672 -5.09001 -1.63773 0
M  V30 765 C 76.6672 -5.19439 0.545886 0
M  V30 766 H 78.3612 -2.93568 0.588086 0
M  V30 767 H 75.9072 -1.41166 0.284259 0
M  V30 768 H 77.8602 -3.87261 -1.66153 0
M  V30 769 H 76.5842 -2.65377 -1.90375 0
M  V30 770 H 75.2432 -3.6659 -0.0267361 0
M  V30 771 H 74.8912 -4.43031 -2.38185 0
M  V30 772 H 74.5912 -5.74777 -1.22085 0
M  V30 773 H 76.1152 -5.71396 -2.15266 0
M  V30 774 H 77.5292 -5.73177 0.118704 0
M  V30 775 H 75.9262 -5.93566 0.88317 0
M  V30 776 H 76.9962 -4.63285 1.43162 0
M  V30 777 N 78.3393 -0.321999 -1.54275 0
M  V30 778 C 79.2693 0.537411 -2.27231 0
M  V30 779 C 80.2503 1.12064 -1.27968 0
M  V30 780 O 81.4353 1.14606 -1.56777 0
M  V30 781 C 78.5653 1.69919 -3.02894 0
M  V30 782 C 77.5193 1.24534 -4.09482 0
M  V30 783 C 76.8453 2.49394 -4.72977 0
M  V30 784 C 78.1453 0.361335 -5.21049 0
M  V30 785 H 79.8393 -0.0711406 -2.99315 0
M  V30 786 H 77.3853 -0.0356555 -1.43956 0
M  V30 787 H 79.3383 2.30668 -3.52662 0
M  V30 788 H 78.0623 2.33431 -2.28424 0
M  V30 789 H 76.7213 0.660782 -3.60596 0
M  V30 790 H 76.3693 3.11265 -3.95124 0
M  V30 791 H 76.0693 2.19718 -5.44975 0
M  V30 792 H 77.5933 3.10908 -5.25517 0
M  V30 793 H 79.0073 0.875072 -5.66582 0
M  V30 794 H 77.4043 0.157428 -5.99893 0
M  V30 795 H 78.4743 -0.60822 -4.8107 0
M  V30 796 N 79.8174 1.5752 -0.0501392 0
M  V30 797 C 80.7804 2.1037 0.909786 0
M  V30 798 C 81.7804 1.02308 1.24056 0
M  V30 799 O 82.9704 1.28385 1.17741 0
M  V30 800 C 80.1024 2.58708 2.21998 0
M  V30 801 H 81.2954 2.96479 0.451665 0
M  V30 802 H 78.8484 1.55038 0.198248 0
M  V30 803 H 79.5834 1.75989 2.72394 0
M  V30 804 H 79.3684 3.37675 1.99295 0
M  V30 805 H 80.8584 2.99747 2.9076 0
M  V30 806 N 81.2955 -0.223234 1.56011 0
M  V30 807 C 82.5205 -0.968978 1.83373 0
M  V30 808 C 82.9455 -1.77227 0.630254 0
M  V30 809 O 82.3035 -1.76345 -0.420959 0
M  V30 810 C 82.3515 -1.86363 3.08709 0
M  V30 811 O 81.4555 -2.95873 2.87285 0
M  V30 812 H 80.7965 -0.274461 0.604622 0
M  V30 813 H 83.3265 -0.237056 2.03222 0
M  V30 814 H 83.3365 -2.27376 3.38768 0
M  V30 815 H 82.0115 -1.27319 3.95933 0
M  V30 816 H 80.5885 -2.58818 2.68454 0
M  V30 817 N 82.7736 -1.49793 -0.48987 0
M  V30 818 C 84.1846 -1.52914 -1.07118 0
M  V30 819 C 84.5356 -0.321738 -1.93544 0
M  V30 820 O 83.6606 0.567338 -2.08831 0
M  V30 821 C 84.2556 -2.771 -1.94938 0
M  V30 822 C 82.8146 -2.82963 -2.48212 0
M  V30 823 C 81.9616 -2.46972 -1.26096 0
M  V30 824 H 84.9126 -1.56329 -0.273289 0
M  V30 825 H 84.9336 -2.57892 -2.79771 0
M  V30 826 H 84.4456 -3.64959 -1.32009 0
M  V30 827 H 82.5466 -1.99411 -3.14748 0
M  V30 828 H 82.6596 -3.85406 -2.84603 0
M  V30 829 H 81.0236 -1.98994 -1.58976 0
M  V30 830 H 81.8066 -3.37118 -0.648581 0
M  V30 831 N 84.2517 0.741722 -1.39055 0
M  V30 832 C 85.4767 1.53607 -1.39354 0
M  V30 833 C 85.9017 1.88096 0.0116905 0
M  V30 834 O 85.2597 1.5143 0.996924 0
M  V30 835 C 85.3077 2.80441 -2.26682 0
M  V30 836 O 84.4117 3.76088 -1.69208 0
M  V30 837 H 83.7527 0.464142 -0.474835 0
M  V30 838 H 86.2827 0.915665 -1.82967 0
M  V30 839 H 86.2927 3.29246 -2.40959 0
M  V30 840 H 84.9677 2.5467 -3.2881 0
M  V30 841 H 83.5447 3.34833 -1.64138 0
M  V30 842 N 85.7298 1.2412 0.971189 0
M  V30 843 C 86.6778 1.02812 2.08644 0
M  V30 844 C 87.6718 -0.0358403 1.69362 0
M  V30 845 O 88.8778 0.118429 1.7961 0
M  V30 846 H 85.2528 0.315428 0.682649 0
M  V30 847 H 87.2238 1.97397 2.23779 0
M  V30 848 C 85.9728 0.645874 3.41649 0
M  V30 849 H 85.2958 1.45632 3.72332 0
M  V30 850 H 86.7358 0.536366 4.20594 0
M  V30 851 C 85.1948 -0.646713 3.30635 0
M  V30 852 O 85.7248 -1.69338 3.64263 0
M  V30 853 N 83.9308 -0.626115 2.83775 0
M  V30 854 H 83.4778 0.225988 2.56607 0
M  V30 855 H 83.4358 -1.49117 2.76788 0
M  V30 856 N 87.2079 -1.17134 1.05439 0
M  V30 857 C 88.1179 -2.24878 0.668365 0
M  V30 858 C 89.1339 -1.71186 -0.311687 0
M  V30 859 O 90.3099 -2.00738 -0.163161 0
M  V30 860 C 87.3749 -3.46662 0.051648 0
M  V30 861 C 86.4359 -4.15429 1.08246 0
M  V30 862 C 85.6689 -5.31399 0.495082 0
M  V30 863 O 85.8919 -5.66153 -0.694743 0
M  V30 864 O 84.8259 -5.89187 1.23056 0
M  V30 865 H 88.6519 -2.60189 1.56637 0
M  V30 866 H 86.2369 -1.24482 0.826104 0
M  V30 867 H 88.1189 -4.20394 -0.290966 0
M  V30 868 H 86.7939 -3.13142 -0.819971 0
M  V30 869 H 85.7009 -3.43704 1.47711 0
M  V30 870 H 87.0339 -4.52982 1.92532 0
M  V30 871 N 88.686 -0.835752 -1.33615 0
M  V30 872 C 89.932 -0.430596 -1.98176 0
M  V30 873 C 90.265 1.00684 -1.66061 0
M  V30 874 O 89.54 1.70339 -0.938877 0
M  V30 875 C 89.823 -0.648065 -3.5422 0
M  V30 876 C 89.676 -2.13255 -3.96033 0
M  V30 877 C 90.995 -0.0922113 -4.40003 0
M  V30 878 H 88.114 -0.157924 -0.719881 0
M  V30 879 H 90.756 -1.05069 -1.58305 0
M  V30 880 H 88.906 -0.120237 -3.88314 0
M  V30 881 H 90.578 -2.725 -3.72211 0
M  V30 882 H 88.821 -2.61823 -3.45878 0
M  V30 883 H 89.492 -2.23547 -5.04708 0
M  V30 884 H 91.968 -0.543343 -4.12537 0
M  V30 885 H 90.844 -0.274083 -5.48215 0
M  V30 886 H 91.105 1.00378 -4.30554 0
M  V30 887 N 90.1641 1.46063 -0.591896 0
M  V30 888 C 91.1121 2.32124 0.148739 0
M  V30 889 C 92.1061 1.45035 0.875286 0
M  V30 890 O 93.3121 1.61609 0.792632 0
M  V30 891 H 89.6871 0.749024 0.066832 0
M  V30 892 H 91.6581 2.92392 -0.595783 0
M  V30 893 C 90.4071 3.28373 1.1431 0
M  V30 894 H 89.7301 3.95371 0.59346 0
M  V30 895 H 91.1701 3.91352 1.63155 0
M  V30 896 C 89.6291 2.54393 2.20875 0
M  V30 897 O 90.1591 2.31373 3.28374 0
M  V30 898 N 88.3651 2.14797 1.95731 0
M  V30 899 H 87.9121 2.33719 1.08319 0
M  V30 900 H 87.8701 1.65619 2.67241 0
M  V30 901 N 91.6422 0.330177 1.54103 0
M  V30 902 C 92.5722 -0.525353 2.27513 0
M  V30 903 C 93.5532 -1.11383 1.2856 0
M  V30 904 O 94.7382 -1.13773 1.57383 0
M  V30 905 C 91.8682 -1.6831 3.03791 0
M  V30 906 C 90.8222 -1.2236 4.10137 0
M  V30 907 C 90.1482 -2.46882 4.74293 0
M  V30 908 C 91.4482 -0.333697 5.21233 0
M  V30 909 H 93.1422 0.087013 2.99274 0
M  V30 910 H 90.6882 0.0432893 1.43935 0
M  V30 911 H 92.6412 -2.28795 3.5388 0
M  V30 912 H 91.3652 -2.32216 2.29659 0
M  V30 913 H 90.0242 -0.64165 3.60941 0
M  V30 914 H 89.6722 -3.09165 3.96769 0
M  V30 915 H 89.3722 -2.16825 5.46133 0
M  V30 916 H 90.8962 -3.08117 5.27159 0
M  V30 917 H 92.3102 -0.845013 5.67038 0
M  V30 918 H 90.7072 -0.125612 5.99969 0
M  V30 919 H 91.7772 0.633724 4.80741 0
M  V30 920 N 93.1203 -1.57491 0.0584922 0
M  V30 921 C 94.0503 -2.14988 -0.911178 0
M  V30 922 C 95.0313 -1.07343 -1.31952 0
M  V30 923 O 96.2163 -1.35318 -1.39294 0
M  V30 924 C 93.3463 -2.70078 -2.18347 0
M  V30 925 C 92.3003 -3.82771 -1.91495 0
M  V30 926 C 91.6263 -4.24408 -3.25241 0
M  V30 927 C 92.9263 -5.07592 -1.23075 0
M  V30 928 H 94.6203 -2.96263 -0.432246 0
M  V30 929 H 92.1663 -1.42512 -0.206469 0
M  V30 930 H 94.1193 -3.08943 -2.86587 0
M  V30 931 H 92.8433 -1.86005 -2.68458 0
M  V30 932 H 91.5023 -3.44389 -1.25664 0
M  V30 933 H 91.1503 -3.37275 -3.73168 0
M  V30 934 H 90.8503 -5.00366 -3.08071 0
M  V30 935 H 92.3743 -4.65879 -3.94701 0
M  V30 936 H 93.7883 -5.43857 -1.81362 0
M  V30 937 H 92.1853 -5.88741 -1.16207 0
M  V30 938 H 93.2553 -4.84454 -0.207847 0
M  V30 939 N 94.5984 0.214957 -1.56127 0
M  V30 940 C 95.8754 0.963093 -1.70247 0
M  V30 941 C 96.2554 2.02166 -0.60764 0
M  V30 942 O 95.6034 2.25244 0.384385 0
M  V30 943 C 95.8134 1.56756 -3.11815 0
M  V30 944 C 97.1614 2.0573 -3.7143 0
M  V30 945 O 98.1854 1.66637 -3.14818 0
M  V30 946 O 97.0444 2.77603 -4.70743 0
M  V30 947 H 94.1384 0.450321 -0.693643 0
M  V30 948 H 96.6844 0.206219 -1.68442 0
M  V30 949 H 95.4564 0.803533 -3.82961 0
M  V30 950 H 95.0794 2.3898 -3.17765 0
M  V30 951 N 96.0765 1.50051 0.48192 0
M  V30 952 C 97.3015 1.64508 1.26301 0
M  V30 953 C 97.7265 0.323851 1.85291 0
M  V30 954 O 97.0845 -0.710969 1.66778 0
M  V30 955 C 97.1325 2.7305 2.35533 0
M  V30 956 O 96.2365 2.3355 3.39895 0
M  V30 957 H 95.5775 0.549978 0.372048 0
M  V30 958 H 98.1075 1.9636 0.574786 0
M  V30 959 H 98.1175 2.95799 2.8101 0
M  V30 960 H 96.7925 3.68946 1.91967 0
M  V30 961 H 95.3695 2.21205 3.00204 0
M  V30 962 N 97.5546 -0.734337 1.39446 0
M  V30 963 C 98.9706 -1.03997 1.21065 0
M  V30 964 C 99.1706 -2.01369 0.0727019 0
M  V30 965 O 98.2266 -2.45856 -0.575426 0
M  V30 966 C 99.5396 -1.60163 2.54496 0
M  V30 967 C 101.088 -1.7224 2.61347 0
M  V30 968 C 101.563 -2.31814 3.95002 0
M  V30 969 N 103.054 -2.39223 3.96644 0
M  V30 970 C 103.789 -2.86258 4.96834 0
M  V30 971 N 103.285 -3.33184 6.07421 0
M  V30 972 N 105.078 -2.85473 4.84213 0
M  V30 973 H 97.2286 -0.0885624 2.12215 0
M  V30 974 H 99.4916 -0.10191 0.942506 0
M  V30 975 H 99.1976 -0.960811 3.38321 0
M  V30 976 H 99.0716 -2.5896 2.74262 0
M  V30 977 H 101.459 -2.35443 1.77906 0
M  V30 978 H 101.54 -0.720939 2.4543 0
M  V30 979 H 101.184 -1.69238 4.78875 0
M  V30 980 H 101.114 -3.32638 4.08239 0
M  V30 981 H 103.605 -2.06057 3.16779 0
M  V30 982 H 103.918 -3.67586 6.7978 0
M  V30 983 H 102.263 -3.31191 6.11013 0
M  V30 984 H 105.454 -2.48136 3.96921 0
M  V30 985 H 105.627 -3.21814 5.62441 0
M  V30 986 N 99.0327 -1.24633 -0.964593 0
M  V30 987 C 100.261 -1.11501 -1.74285 0
M  V30 988 C 100.676 0.332165 -1.85855 0
M  V30 989 O 100.033 1.22903 -1.34911 0
M  V30 990 C 100.084 -1.75258 -3.16175 0
M  V30 991 O 99.8047 -3.14318 -3.05182 0
M  V30 992 C 101.306 -1.67776 -4.10324 0
M  V30 993 H 98.5257 -0.389407 -0.546446 0
M  V30 994 H 101.07 -1.64801 -1.21083 0
M  V30 995 H 99.2247 -1.25954 -3.66353 0
M  V30 996 H 99.6387 -3.4551 -3.94618 0
M  V30 997 H 101.113 -2.17064 -5.0753 0
M  V30 998 H 101.59 -0.639584 -4.34518 0
M  V30 999 H 102.196 -2.16522 -3.66058 0
M  V30 1000 N 100.511 1.16574 -1.06058 0
M  V30 1001 C 101.757 1.87324 -0.777022 0
M  V30 1002 C 102.09 1.81351 0.694645 0
M  V30 1003 O 101.365 1.22753 1.50871 0
M  V30 1004 C 101.648 3.36991 -1.26922 0
M  V30 1005 C 101.501 3.51667 -2.80447 0
M  V30 1006 C 102.82 4.3131 -0.87521 0
M  V30 1007 H 99.9388 0.680191 -0.28374 0
M  V30 1008 H 102.581 1.37036 -1.3161 0
M  V30 1009 H 100.731 3.79949 -0.81063 0
M  V30 1010 H 102.403 3.17664 -3.34495 0
M  V30 1011 H 100.646 2.93656 -3.19294 0
M  V30 1012 H 101.317 4.56766 -3.0995 0
M  V30 1013 H 103.793 3.9624 -1.27014 0
M  V30 1014 H 102.669 5.34545 -1.2471 0
M  V30 1015 H 102.93 4.41552 0.220071 0
M  V30 1016 N 101.989 0.842826 1.3317 0
M  V30 1017 C 102.922 0.223862 2.27099 0
M  V30 1018 C 103.9 -0.631311 1.49844 0
M  V30 1019 O 105.084 -0.590708 1.79005 0
M  V30 1020 C 102.211 -0.685313 3.31694 0
M  V30 1021 C 101.257 0.094919 4.26394 0
M  V30 1022 S 102.09 1.45546 5.15341 0
M  V30 1023 C 103.246 0.551685 6.23464 0
M  V30 1024 H 103.479 1.02015 2.79249 0
M  V30 1025 H 101.012 0.639797 1.4052 0
M  V30 1026 H 102.97 -1.20426 3.92438 0
M  V30 1027 H 101.631 -1.4553 2.78352 0
M  V30 1028 H 100.824 -0.597059 5.00451 0
M  V30 1029 H 100.426 0.545054 3.70007 0
M  V30 1030 H 102.718 -0.248877 6.77043 0
M  V30 1031 H 103.661 1.26253 6.96754 0
M  V30 1032 H 104.069 0.131275 5.64347 0
M  V30 1033 N 103.467 -1.45747 0.599634 0
M  V30 1034 C 104.715 -2.01893 0.0915472 0
M  V30 1035 C 105.036 -1.47155 -1.27946 0
M  V30 1036 O 104.306 -0.66273 -1.84349 0
M  V30 1037 H 102.886 -0.746363 0.0308524 0
M  V30 1038 H 105.548 -1.78645 0.779237 0
M  V30 1039 H 104.644 -3.1208 0.0353086 0
M  V30 1040 N 104.945 -0.338344 -1.53925 0
M  V30 1041 C 106.222 0.314774 -1.93051 0
M  V30 1042 C 106.602 1.68669 -1.26941 0
M  V30 1043 O 105.95 2.24636 -0.418445 0
M  V30 1044 C 106.16 0.392249 -3.46789 0
M  V30 1045 C 107.508 0.645554 -4.19664 0
M  V30 1046 O 108.532 0.474575 -3.53024 0
M  V30 1047 O 107.391 0.976408 -5.37707 0
M  V30 1048 H 104.485 0.182598 -0.80659 0
M  V30 1049 H 107.031 -0.389141 -1.65178 0
M  V30 1050 H 105.803 -0.570702 -3.87116 0
M  V30 1051 H 105.426 1.14316 -3.80812 0
M  V30 1052 N 106.423 1.57458 -0.0668435 0
M  V30 1053 C 107.353 2.15468 0.899764 0
M  V30 1054 C 108.334 1.08042 1.31381 0
M  V30 1055 O 109.519 1.36054 1.38574 0
M  V30 1056 C 106.649 2.71232 2.16911 0
M  V30 1057 C 105.603 3.83781 1.89463 0
M  V30 1058 C 104.929 4.26127 3.22986 0
M  V30 1059 C 106.229 5.08238 1.20381 0
M  V30 1060 H 107.923 2.96488 0.416529 0
M  V30 1061 H 105.469 1.4262 0.198908 0
M  V30 1062 H 107.422 3.10458 2.84945 0
M  V30 1063 H 106.146 1.87426 2.67468 0
M  V30 1064 H 104.805 3.45051 1.23836 0
M  V30 1065 H 104.453 3.39249 3.71374 0
M  V30 1066 H 104.153 5.01993 3.05413 0
M  V30 1067 H 105.677 4.67966 3.92225 0
M  V30 1068 H 107.091 5.44811 1.78475 0
M  V30 1069 H 105.488 5.89349 1.13083 0
M  V30 1070 H 106.558 4.84558 0.182153 0
M  V30 1071 N 107.901 -0.206675 1.56239 0
M  V30 1072 C 109.149 -0.927007 1.79586 0
M  V30 1073 C 109.47 -1.8427 0.637929 0
M  V30 1074 O 108.74 -1.92849 -0.344398 0
M  V30 1075 H 107.32 -0.345292 0.662407 0
M  V30 1076 H 109.982 -0.21496 1.93711 0
M  V30 1077 H 109.078 -1.52501 2.72305 0
M  V30 1078 N 109.379 -1.50304 -0.473955 0
M  V30 1079 C 110.625 -1.62358 -1.22521 0
M  V30 1080 C 110.98 -0.318555 -1.89745 0
M  V30 1081 O 110.273 0.683315 -1.79001 0
M  V30 1082 C 110.467 -2.73938 -2.29549 0
M  V30 1083 C 110.296 -4.15165 -1.72825 0
M  V30 1084 C 109.066 -4.81604 -1.52924 0
M  V30 1085 C 111.264 -4.99503 -1.22481 0
M  V30 1086 N 109.246 -6.07056 -0.91413 0
M  V30 1087 C 110.617 -6.15655 -0.732743 0
M  V30 1088 C 112.672 -4.85299 -1.11308 0
M  V30 1089 C 111.375 -7.19164 -0.139976 0
M  V30 1090 C 113.401 -5.88982 -0.534258 0
M  V30 1091 C 112.763 -7.0438 -0.0525562 0
M  V30 1092 H 108.862 -0.648286 -0.437321 0
M  V30 1093 H 111.446 -1.87413 -0.527692 0
M  V30 1094 H 109.617 -2.50611 -2.9673 0
M  V30 1095 H 111.349 -2.75366 -2.96573 0
M  V30 1096 H 108.104 -4.3885 -1.78067 0
M  V30 1097 H 108.528 -6.74108 -0.625071 0
M  V30 1098 H 113.17 -3.96369 -1.47144 0
M  V30 1099 H 110.888 -8.07771 0.230591 0
M  V30 1100 H 114.474 -5.80055 -0.450219 0
M  V30 1101 H 113.354 -7.83238 0.388324 0
M  V30 1102 N 110.857 0.726932 -1.39834 0
M  V30 1103 C 112.106 1.48214 -1.36805 0
M  V30 1104 C 112.419 1.95576 0.0305291 0
M  V30 1105 O 113.625 2.7088 0.183417 0
M  V30 1106 C 112.081 2.67854 -2.40379 0
M  V30 1107 C 111.689 2.27408 -3.85992 0
M  V30 1108 C 113.433 3.45641 -2.46439 0
M  V30 1109 C 111.34 3.43819 -4.81189 0
M  V30 1110 H 110.27 0.556606 -0.508631 0
M  V30 1111 H 112.921 0.792216 -1.65518 0
M  V30 1112 H 111.303 3.3896 -2.04749 0
M  V30 1113 H 112.477 1.63795 -4.30706 0
M  V30 1114 H 110.792 1.62692 -3.83302 0
M  V30 1115 H 113.389 4.32244 -3.14753 0
M  V30 1116 H 113.732 3.88669 -1.49139 0
M  V30 1117 H 114.265 2.8157 -2.81004 0
M  V30 1118 H 111.004 3.05834 -5.79781 0
M  V30 1119 H 110.524 4.06385 -4.41148 0
M  V30 1120 H 112.203 4.10043 -5.00474 0
M  V30 1121 N 112.336 1.25143 0.95797 0
M  V30 1122 C 113.299 1.05321 2.03569 0
M  V30 1123 C 114.299 0.007152 1.60798 0
M  V30 1124 O 115.489 0.24903 1.72411 0
M  V30 1125 C 112.621 0.598394 3.35607 0
M  V30 1126 H 113.814 2.00986 2.22586 0
M  V30 1127 H 111.367 1.07502 1.13459 0
M  V30 1128 H 112.102 -0.361014 3.22284 0
M  V30 1129 H 111.887 1.35351 3.67998 0
M  V30 1130 H 113.377 0.48104 4.1482 0
M  V30 1131 N 113.814 -1.1601 1.06675 0
M  V30 1132 C 115.061 -1.86633 0.785781 0
M  V30 1133 C 115.389 -1.81929 -0.687896 0
M  V30 1134 O 114.644 -1.23253 -1.52011 0
M  V30 1135 C 114.943 -3.35547 1.23057 0
M  V30 1136 C 114.609 -3.60448 2.70902 0
M  V30 1137 C 113.271 -3.66954 3.11285 0
M  V30 1138 C 115.623 -3.7071 3.66365 0
M  V30 1139 C 112.951 -3.81225 4.45965 0
M  V30 1140 C 115.303 -3.86503 5.00797 0
M  V30 1141 C 113.967 -3.91252 5.40813 0
M  V30 1142 H 113.237 -0.682937 0.287538 0
M  V30 1143 H 115.884 -1.37146 1.33654 0
M  V30 1144 H 114.189 -3.87193 0.59907 0
M  V30 1145 H 115.886 -3.88583 0.990163 0
M  V30 1146 H 112.476 -3.56021 2.38636 0
M  V30 1147 H 116.66 -3.64991 3.36296 0
M  V30 1148 H 111.916 -3.83155 4.76447 0
M  V30 1149 H 116.09 -3.93385 5.74649 0
M  V30 1150 H 113.717 -4.02062 6.45174 0
M  V30 1151 N 115.292 -0.849877 -1.32721 0
M  V30 1152 C 116.703 -0.506188 -1.79707 0
M  V30 1153 C 117.054 0.975627 -1.70223 0
M  V30 1154 O 116.179 1.76078 -1.25799 0
M  V30 1155 C 116.774 -0.912044 -3.26293 0
M  V30 1156 C 115.333 -0.620326 -3.71253 0
M  V30 1157 C 114.48 -1.11439 -2.53922 0
M  V30 1158 H 117.431 -1.03754 -1.20087 0
M  V30 1159 H 117.452 -0.226493 -3.79825 0
M  V30 1160 H 116.964 -1.99057 -3.33164 0
M  V30 1161 H 115.065 0.447674 -3.69901 0
M  V30 1162 H 115.178 -1.18327 -4.64258 0
M  V30 1163 H 113.542 -0.534834 -2.49021 0
M  V30 1164 H 114.325 -2.19992 -2.6355 0
M  V30 1165 N 116.77 1.45427 -0.607355 0
M  V30 1166 C 117.717 2.3053 0.111625 0
M  V30 1167 C 118.687 1.4209 0.860216 0
M  V30 1168 O 119.872 1.71019 0.845998 0
M  V30 1169 C 117.012 3.26992 1.10319 0
M  V30 1170 C 116.125 4.30535 0.355493 0
M  V30 1171 C 115.26 5.14105 1.33676 0
M  V30 1172 C 114.299 6.09376 0.576862 0
M  V30 1173 N 113.436 6.85727 1.5074 0
M  V30 1174 H 118.276 2.91477 -0.620093 0
M  V30 1175 H 115.813 1.43631 -0.317594 0
M  V30 1176 H 117.771 3.81385 1.6912 0
M  V30 1177 H 116.401 2.67799 1.80232 0
M  V30 1178 H 115.453 3.78805 -0.348023 0
M  V30 1179 H 116.765 4.98235 -0.237423 0
M  V30 1180 H 115.919 5.72897 1.99684 0
M  V30 1181 H 114.658 4.46423 1.9636 0
M  V30 1182 H 113.663 5.49715 -0.0968519 0
M  V30 1183 H 114.888 6.79085 -0.0449341 0
M  V30 1184 H 112.834 6.20735 2.12189 0
M  V30 1185 H 112.751 7.49778 0.967913 0
M  V30 1186 H 114.019 7.4906 2.15706 0
M  V30 1187 N 118.248 0.346503 1.53744 0
M  V30 1188 C 119.196 -0.52422 2.26616 0
M  V30 1189 C 120.19 -1.09948 1.28871 0
M  V30 1190 O 121.396 -1.04488 1.46568 0
M  V30 1191 H 117.771 -0.187743 0.728187 0
M  V30 1192 H 119.742 0.11239 2.98188 0
M  V30 1193 C 118.491 -1.66186 3.05414 0
M  V30 1194 H 117.814 -1.22848 3.80458 0
M  V30 1195 H 119.254 -2.24622 3.59612 0
M  V30 1196 C 117.713 -2.59302 2.1509 0
M  V30 1197 O 118.243 -3.61628 1.74895 0
M  V30 1198 N 116.449 -2.28055 1.8011 0
M  V30 1199 H 115.996 -1.44883 2.12994 0
M  V30 1200 H 115.954 -2.90615 1.19958 0
M  V30 1201 N 119.726 -1.57421 0.075193 0
M  V30 1202 C 120.974 -1.93236 -0.591974 0
M  V30 1203 C 121.295 -0.956241 -1.69944 0
M  V30 1204 O 120.565 -0.00494792 -1.95899 0
M  V30 1205 H 119.145 -0.713355 -0.22166 0
M  V30 1206 H 121.807 -1.9444 0.133848 0
M  V30 1207 H 120.903 -2.95131 -1.01509 0
M  V30 1208 N 121.204 0.198386 -1.56346 0
M  V30 1209 C 122.45 0.916115 -1.81601 0
M  V30 1210 C 122.805 1.81025 -0.651744 0
M  V30 1211 O 122.098 1.88316 0.353229 0
M  V30 1212 C 122.292 1.77031 -3.10475 0
M  V30 1213 C 122.121 0.960365 -4.39326 0
M  V30 1214 C 120.891 0.646093 -5.01152 0
M  V30 1215 C 123.089 0.314628 -5.13337 0
M  V30 1216 N 121.071 -0.182828 -6.13628 0
M  V30 1217 C 122.442 -0.37664 -6.18855 0
M  V30 1218 C 124.497 0.230019 -4.97368 0
M  V30 1219 C 123.2 -1.14445 -7.10137 0
M  V30 1220 C 125.226 -0.524389 -5.89071 0
M  V30 1221 C 124.588 -1.20412 -6.94032 0
M  V30 1222 H 120.687 0.314732 -0.715868 0
M  V30 1223 H 123.271 0.185102 -1.93818 0
M  V30 1224 H 121.442 2.47295 -2.99499 0
M  V30 1225 H 123.174 2.42727 -3.2383 0
M  V30 1226 H 119.929 0.969724 -4.63566 0
M  V30 1227 H 120.353 -0.586802 -6.74452 0
M  V30 1228 H 124.995 0.741184 -4.16253 0
M  V30 1229 H 122.713 -1.66706 -7.90718 0
M  V30 1230 H 126.299 -0.591167 -5.78789 0
M  V30 1231 H 125.179 -1.77853 -7.63766 0
M  V30 1232 N 122.682 1.50554 0.465978 0
M  V30 1233 C 123.592 1.72585 1.58907 0
M  V30 1234 C 124.608 0.60911 1.6299 0
M  V30 1235 O 125.784 0.88804 1.80765 0
M  V30 1236 C 122.849 1.81995 2.95091 0
M  V30 1237 C 121.91 3.05751 3.01355 0
M  V30 1238 C 121.143 3.14702 4.31043 0
M  V30 1239 O 121.366 2.30313 5.21835 0
M  V30 1240 O 120.3 4.07468 4.43005 0
M  V30 1241 H 124.126 2.67799 1.43239 0
M  V30 1242 H 121.711 1.34711 0.646013 0
M  V30 1243 H 123.593 1.90335 3.75966 0
M  V30 1244 H 122.268 0.899659 3.10947 0
M  V30 1245 H 121.175 3.02908 2.19539 0
M  V30 1246 H 122.508 3.97375 2.90437 0
M  V30 1247 N 124.16 -0.719506 1.40217 0
M  V30 1248 C 125.07 -1.86378 1.42479 0
M  V30 1249 C 126.086 -1.71073 0.317834 0
M  V30 1250 O 127.262 -1.93406 0.561794 0
M  V30 1251 C 124.327 -3.22136 1.28178 0
M  V30 1252 C 123.388 -3.49723 2.48982 0
M  V30 1253 C 122.621 -4.79004 2.35353 0
M  V30 1254 O 122.844 -5.53821 1.36524 0
M  V30 1255 O 121.778 -5.06839 3.2465 0
M  V30 1256 H 125.604 -1.87425 2.38968 0
M  V30 1257 H 123.189 -0.869405 1.21498 0
M  V30 1258 H 125.071 -4.03234 1.22395 0
M  V30 1259 H 123.746 -3.21825 0.347934 0
M  V30 1260 H 122.653 -2.6865 2.60342 0
M  V30 1261 H 123.986 -3.54828 3.41113 0
M  V30 1262 N 125.638 -1.25649 -0.95132 0
M  V30 1263 C 126.887 -1.09988 -1.69073 0
M  V30 1264 C 127.2 0.358355 -1.92289 0
M  V30 1265 O 128.406 0.635466 -2.63958 0
M  V30 1266 C 126.862 -1.92012 -3.044 0
M  V30 1267 C 126.47 -3.42347 -2.88968 0
M  V30 1268 C 128.214 -1.8493 -3.82101 0
M  V30 1269 C 126.121 -4.16655 -4.19705 0
M  V30 1270 H 125.051 -0.407993 -0.63408 0
M  V30 1271 H 127.702 -1.49873 -1.05879 0
M  V30 1272 H 126.084 -1.44952 -3.68517 0
M  V30 1273 H 127.258 -3.97104 -2.33762 0
M  V30 1274 H 125.573 -3.50557 -2.24719 0
M  V30 1275 H 128.17 -2.37739 -4.78941 0
M  V30 1276 H 128.513 -0.817883 -4.08187 0
M  V30 1277 H 129.046 -2.29758 -3.2474 0
M  V30 1278 H 125.785 -5.20224 -3.98807 0
M  V30 1279 H 125.305 -3.66681 -4.74663 0
M  V30 1280 H 126.984 -4.24551 -4.88227 0
M  V30 1281 N 127.117 1.15442 -1.07289 0
M  V30 1282 C 128.365 1.85845 -0.794096 0
M  V30 1283 C 128.686 1.82692 0.681809 0
M  V30 1284 O 127.956 1.26741 1.49377 0
M  V30 1285 H 126.536 0.688089 -0.290763 0
M  V30 1286 H 129.198 1.39947 -1.3565 0
M  V30 1287 H 128.294 2.91001 -1.12804 0
M  V30 1288 N 128.595 0.856903 1.32268 0
M  V30 1289 C 129.505 0.306131 2.32594 0
M  V30 1290 C 130.521 -0.577209 1.64147 0
M  V30 1291 O 131.697 -0.477043 1.95669 0
M  V30 1292 C 128.762 -0.494561 3.43154 0
M  V30 1293 C 127.823 0.415186 4.27288 0
M  V30 1294 C 127.056 -0.347387 5.32568 0
M  V30 1295 O 127.279 -1.57708 5.48165 0
M  V30 1296 O 126.213 0.287982 6.01211 0
M  V30 1297 H 130.039 1.13737 2.81598 0
M  V30 1298 H 127.624 0.619902 1.35932 0
M  V30 1299 H 129.506 -0.948944 4.10576 0
M  V30 1300 H 128.181 -1.30257 2.96336 0
M  V30 1301 H 127.088 0.917793 3.62667 0
M  V30 1302 H 128.421 1.18844 4.77637 0
M  V30 1303 N 130.073 -1.45103 0.615059 0
M  V30 1304 C 131.319 -2.02483 0.113347 0
M  V30 1305 C 131.652 -1.48146 -1.25564 0
M  V30 1306 O 130.927 -0.659104 -1.82992 0
M  V30 1307 C 131.21 -3.60005 0.0825278 0
M  V30 1308 C 131.063 -4.2466 1.48271 0
M  V30 1309 C 132.382 -4.35972 -0.601401 0
M  V30 1310 H 129.501 -0.735764 0.0426632 0
M  V30 1311 H 132.143 -1.72868 0.788461 0
M  V30 1312 H 130.293 -3.85367 -0.492378 0
M  V30 1313 H 131.965 -4.10458 2.10527 0
M  V30 1314 H 130.208 -3.82772 2.04127 0
M  V30 1315 H 130.879 -5.336 1.41332 0
M  V30 1316 H 133.355 -4.15947 -0.112666 0
M  V30 1317 H 132.231 -5.45697 -0.592097 0
M  V30 1318 H 132.492 -4.09391 -1.66887 0
M  V30 1319 N 131.551 -0.354651 -1.53558 0
M  V30 1320 C 132.828 0.294281 -1.93374 0
M  V30 1321 C 133.208 1.67313 -1.28723 0
M  V30 1322 O 132.556 2.24179 -0.442247 0
M  V30 1323 C 132.766 0.355445 -3.47185 0
M  V30 1324 C 134.114 0.601007 -4.20325 0
M  V30 1325 O 135.138 0.437106 -3.53508 0
M  V30 1326 O 133.997 0.919322 -5.38712 0
M  V30 1327 H 131.091 0.174033 -0.808481 0
M  V30 1328 H 133.637 -0.406638 -1.64756 0
M  V30 1329 H 132.409 -0.611729 -3.86489 0
M  V30 1330 H 132.032 1.1027 -3.82003 0
M  V30 1331 N 133.029 1.57378 -0.0835403 0
M  V30 1332 C 133.939 2.16897 0.894021 0
M  V30 1333 C 134.955 1.13528 1.31861 0
M  V30 1334 O 136.131 1.45848 1.3889 0
M  V30 1335 C 133.196 2.72831 2.13925 0
M  V30 1336 C 132.257 3.91115 1.76997 0
M  V30 1337 C 131.49 4.44371 2.95584 0
M  V30 1338 O 131.713 3.96596 4.09961 0
M  V30 1339 O 130.647 5.35549 2.74719 0
M  V30 1340 H 134.473 3.00814 0.417679 0
M  V30 1341 H 132.058 1.48741 0.140181 0
M  V30 1342 H 133.94 3.0863 2.86924 0
M  V30 1343 H 132.615 1.91967 2.60635 0
M  V30 1344 H 131.522 3.60148 1.01214 0
M  V30 1345 H 132.855 4.73307 1.3506 0
M  V30 1346 N 134.507 -0.190092 1.56449 0
M  V30 1347 C 135.455 -1.25501 1.95837 0
M  V30 1348 C 136.449 -1.4685 0.844485 0
M  V30 1349 O 137.655 -1.47651 1.02952 0
M  V30 1350 H 134.03 -0.421447 0.622805 0
M  V30 1351 H 136.001 -0.895821 2.84636 0
M  V30 1352 C 134.75 -2.59124 2.31841 0
M  V30 1353 H 134.073 -2.43514 3.17082 0
M  V30 1354 H 135.513 -3.32371 2.6326 0
M  V30 1355 C 133.972 -3.16488 1.15486 0
M  V30 1356 O 134.502 -3.99365 0.432535 0
M  V30 1357 N 132.708 -2.75305 0.930349 0
M  V30 1358 H 132.255 -2.08013 1.51948 0
M  V30 1359 H 132.213 -3.14024 0.153634 0
M  V30 1360 N 135.985 -1.50799 -0.457987 0
M  V30 1361 C 137.215 -1.65977 -1.23025 0
M  V30 1362 C 137.623 -0.347918 -1.85974 0
M  V30 1363 O 136.966 0.68148 -1.70592 0
M  V30 1364 C 137.028 -2.70309 -2.3701 0
M  V30 1365 C 136.692 -4.135 -1.94594 0
M  V30 1366 C 137.689 -4.98949 -1.46101 0
M  V30 1367 C 135.374 -4.5949 -2.02915 0
M  V30 1368 C 137.368 -6.28442 -1.06489 0
M  V30 1369 C 135.055 -5.88984 -1.62914 0
M  V30 1370 C 136.053 -6.73286 -1.1478 0
M  V30 1371 O 135.741 -8.00362 -0.75339 0
M  V30 1372 H 135.473 -0.56064 -0.377702 0
M  V30 1373 H 138.027 -1.97857 -0.551537 0
M  V30 1374 H 136.257 -2.337 -3.08093 0
M  V30 1375 H 137.946 -2.74574 -2.98938 0
M  V30 1376 H 138.712 -4.6463 -1.39084 0
M  V30 1377 H 134.591 -3.94009 -2.39328 0
M  V30 1378 H 138.135 -6.94194 -0.688488 0
M  V30 1379 H 134.032 -6.22822 -1.69595 0
M  V30 1380 H 134.8 -8.13744 -0.88108 0
M  V30 1381 N 137.463 0.71206 -1.40597 0
M  V30 1382 C 138.426 1.80785 -1.40888 0
M  V30 1383 C 139.426 1.57937 -0.302103 0
M  V30 1384 O 140.616 1.64913 -0.561182 0
M  V30 1385 C 137.748 3.18927 -1.20409 0
M  V30 1386 H 138.941 1.81924 -2.38419 0
M  V30 1387 H 136.494 0.91805 -1.26497 0
M  V30 1388 H 137.229 3.23436 -0.236522 0
M  V30 1389 H 137.014 3.36911 -2.00582 0
M  V30 1390 H 138.504 3.98949 -1.23408 0
M  V30 1391 N 138.941 1.26152 0.944643 0
M  V30 1392 C 140.352 1.10454 1.50522 0
M  V30 1393 C 140.703 -0.31635 1.93633 0
M  V30 1394 O 139.828 -1.20746 1.79581 0
M  V30 1395 C 140.423 1.99891 2.73549 0
M  V30 1396 C 138.982 1.88348 3.25886 0
M  V30 1397 C 138.129 1.93447 1.9868 0
M  V30 1398 H 141.08 1.39292 0.760489 0
M  V30 1399 H 141.101 1.54477 3.47732 0
M  V30 1400 H 140.613 3.03297 2.42141 0
M  V30 1401 H 138.714 0.878636 3.62092 0
M  V30 1402 H 138.827 2.73696 3.93227 0
M  V30 1403 H 137.191 1.37456 2.14425 0
M  V30 1404 H 137.974 2.98476 1.69607 0
M  V30 1405 N 140.419 -1.14872 1.07899 0
M  V30 1406 C 141.668 -1.85135 0.800499 0
M  V30 1407 C 141.981 -1.83547 -0.676014 0
M  V30 1408 O 143.187 -2.49548 -1.06948 0
M  V30 1409 C 141.643 -3.3231 1.38197 0
M  V30 1410 C 141.251 -3.42329 2.8899 0
M  V30 1411 C 142.995 -4.0772 1.18174 0
M  V30 1412 C 140.902 -4.83684 3.403 0
M  V30 1413 H 139.832 -0.693563 0.29578 0
M  V30 1414 H 142.483 -1.29532 1.29976 0
M  V30 1415 H 140.865 -3.87618 0.810431 0
M  V30 1416 H 142.039 -2.97097 3.52236 0
M  V30 1417 H 140.354 -2.80369 3.07867 0
M  V30 1418 H 142.951 -5.12049 1.5398 0
M  V30 1419 H 143.294 -4.16124 0.12117 0
M  V30 1420 H 143.827 -3.58696 1.71994 0
M  V30 1421 H 140.566 -4.80465 4.45907 0
M  V30 1422 H 140.086 -5.29474 2.81811 0
M  V30 1423 H 141.765 -5.52558 3.36584 0
M  V30 1424 N 141.898 -0.863906 -1.31812 0
M  V30 1425 C 142.848 -0.286898 -2.26188 0
M  V30 1426 C 143.832 0.572577 -1.50367 0
M  V30 1427 O 145.024 0.420447 -1.71934 0
M  V30 1428 C 142.153 0.515849 -3.39402 0
M  V30 1429 C 141.239 -0.356531 -4.22599 0
M  V30 1430 N 141.63 -1.44716 -4.84656 0
M  V30 1431 C 139.928 -0.147898 -4.45755 0
M  V30 1432 C 140.629 -1.98462 -5.46798 0
M  V30 1433 N 139.605 -1.28247 -5.28255 0
M  V30 1434 H 143.407 -1.12055 -2.717 0
M  V30 1435 H 140.921 -0.711012 -1.46008 0
M  V30 1436 H 142.918 0.945701 -4.06032 0
M  V30 1437 H 141.578 1.34718 -2.95434 0
M  V30 1438 H 142.589 -1.83008 -4.84488 0
M  V30 1439 H 139.266 0.647973 -4.12441 0
M  V30 1440 H 140.656 -2.89932 -6.06126 0
M  V30 1441 N 143.376 1.44774 -0.622745 0
M  V30 1442 C 144.604 2.06487 -0.130722 0
M  V30 1443 C 145.019 1.46476 1.19123 0
M  V30 1444 O 144.376 0.584502 1.72887 0
M  V30 1445 C 144.427 3.615 -0.000807207 0
M  V30 1446 O 144.148 4.19274 -1.27048 0
M  V30 1447 C 145.649 4.40229 0.520898 0
M  V30 1448 H 142.869 0.666704 -0.0758106 0
M  V30 1449 H 145.413 1.85779 -0.854774 0
M  V30 1450 H 143.568 3.81498 0.673643 0
M  V30 1451 H 143.982 5.12622 -1.1099 0
M  V30 1452 H 145.456 5.49144 0.560838 0
M  V30 1453 H 145.933 4.1108 1.54627 0
M  V30 1454 H 146.539 4.25131 -0.120018 0
M  V30 1455 N 144.854 0.36279 1.53368 0
M  V30 1456 C 146.084 -0.228281 2.05335 0
M  V30 1457 C 146.492 -1.43226 1.23625 0
M  V30 1458 O 145.835 -1.81717 0.269206 0
M  V30 1459 C 145.897 -0.688549 3.52845 0
M  V30 1460 C 145.561 0.398362 4.5526 0
M  V30 1461 C 146.558 1.24732 5.04716 0
M  V30 1462 C 144.243 0.557805 4.99193 0
M  V30 1463 C 146.237 2.2411 5.96702 0
M  V30 1464 C 143.924 1.55495 5.90986 0
M  V30 1465 C 144.922 2.39503 6.39631 0
M  V30 1466 O 144.61 3.37517 7.29615 0
M  V30 1467 H 144.342 -0.044395 0.674541 0
M  V30 1468 H 146.896 0.518668 1.98744 0
M  V30 1469 H 145.126 -1.48706 3.56964 0
M  V30 1470 H 146.815 -1.20231 3.87685 0
M  V30 1471 H 147.581 1.13532 4.71525 0
M  V30 1472 H 143.46 -0.0862959 4.60919 0
M  V30 1473 H 147.004 2.89718 6.34594 0
M  V30 1474 H 142.901 1.66744 6.23592 0
M  V30 1475 H 143.669 3.33213 7.47604 0
M  V30 1476 N 146.332 -1.57332 0.0918853 0
M  V30 1477 C 147.264 -2.10869 -0.898168 0
M  V30 1478 C 148.277 -1.04521 -1.24817 0
M  V30 1479 O 149.466 -1.31977 -1.20184 0
M  V30 1480 C 146.566 -2.57083 -2.2082 0
M  V30 1481 C 145.739 -3.87229 -2.03402 0
M  V30 1482 C 144.798 -4.19324 -3.17889 0
M  V30 1483 O 143.824 -4.88598 -2.91994 0
M  V30 1484 N 145.026 -3.74471 -4.43567 0
M  V30 1485 H 147.791 -2.96439 -0.440943 0
M  V30 1486 H 145.352 -1.61631 -0.0933064 0
M  V30 1487 H 147.344 -2.75602 -2.96354 0
M  V30 1488 H 145.914 -1.76541 -2.57977 0
M  V30 1489 H 145.134 -3.7789 -1.12218 0
M  V30 1490 H 146.422 -4.72379 -1.89038 0
M  V30 1491 H 145.82 -3.18546 -4.67488 0
M  V30 1492 H 144.377 -3.98151 -5.16061 0
M  V30 1493 N 147.81 0.181792 -1.56548 0
M  V30 1494 C 149.056 0.901431 -1.81665 0
M  V30 1495 C 149.389 1.82347 -0.668075 0
M  V30 1496 O 148.664 1.91669 0.330615 0
M  V30 1497 C 148.947 1.70618 -3.17115 0
M  V30 1498 C 148.8 0.807964 -4.42484 0
M  V30 1499 C 150.119 2.67605 -3.49393 0
M  V30 1500 H 147.238 0.32627 -0.660846 0
M  V30 1501 H 149.88 0.168134 -1.89255 0
M  V30 1502 H 148.03 2.33133 -3.10775 0
M  V30 1503 H 149.702 0.19649 -4.60881 0
M  V30 1504 H 147.945 0.115411 -4.33646 0
M  V30 1505 H 148.616 1.40632 -5.33785 0
M  V30 1506 H 151.092 2.15218 -3.56118 0
M  V30 1507 H 149.968 3.20985 -4.45264 0
M  V30 1508 H 150.229 3.47298 -2.73563 0
M  V30 1509 N 149.288 1.51039 0.449983 0
M  V30 1510 C 150.528 1.64732 1.21007 0
M  V30 1511 C 150.892 0.349865 1.88785 0
M  V30 1512 O 152.093 0.362431 2.66345 0
M  V30 1513 C 150.364 2.80902 2.20973 0
M  V30 1514 S 151.923 3.14851 3.05638 0
M  V30 1515 H 148.741 0.5805 0.410538 0
M  V30 1516 H 151.343 1.88901 0.503634 0
M  V30 1517 H 150.047 3.73627 1.69796 0
M  V30 1518 H 149.578 2.58882 2.96215 0
M  V30 1519 H 151.593 2.60306 4.22439 0
M  V30 1520 N 150.766 -0.704594 1.40972 0
M  V30 1521 C 151.713 -1.81862 1.42109 0
M  V30 1522 C 152.683 -1.63781 0.276593 0
M  V30 1523 O 153.868 -1.84759 0.4763 0
M  V30 1524 C 151.008 -3.19669 1.30022 0
M  V30 1525 C 150.121 -3.49246 2.54267 0
M  V30 1526 C 149.256 -4.76618 2.3454 0
M  V30 1527 C 148.295 -4.99133 3.54306 0
M  V30 1528 N 147.432 -6.17726 3.33706 0
M  V30 1529 H 152.272 -1.80226 2.37324 0
M  V30 1530 H 149.809 -0.880238 1.17857 0
M  V30 1531 H 151.767 -3.99263 1.21018 0
M  V30 1532 H 150.397 -3.20506 0.384192 0
M  V30 1533 H 149.449 -2.64125 2.73756 0
M  V30 1534 H 150.761 -3.61788 3.43381 0
M  V30 1535 H 149.915 -5.64249 2.22952 0
M  V30 1536 H 148.654 -4.66305 1.42867 0
M  V30 1537 H 147.659 -4.09953 3.66359 0
M  V30 1538 H 148.884 -5.11311 4.4692 0
M  V30 1539 H 146.83 -6.08642 2.44725 0
M  V30 1540 H 146.747 -6.30995 4.16391 0
M  V30 1541 H 148.015 -7.08115 3.25873 0
M  V30 1542 N 152.244 -1.26651 -0.937939 0
M  V30 1543 C 153.49 -1.12553 -1.687 0
M  V30 1544 C 153.823 0.329782 -1.91379 0
M  V30 1545 O 153.098 1.24202 -1.4968 0
M  V30 1546 C 153.381 -1.89862 -3.05981 0
M  V30 1547 C 153.234 -3.43318 -2.90607 0
M  V30 1548 C 154.553 -1.69499 -4.0615 0
M  V30 1549 H 151.672 -0.410257 -0.612257 0
M  V30 1550 H 154.314 -1.55685 -1.08913 0
M  V30 1551 H 152.464 -1.53204 -3.57017 0
M  V30 1552 H 154.136 -3.89747 -2.46769 0
M  V30 1553 H 152.379 -3.70179 -2.26164 0
M  V30 1554 H 153.05 -3.92642 -3.8799 0
M  V30 1555 H 155.526 -2.01442 -3.64088 0
M  V30 1556 H 154.402 -2.26002 -5.00214 0
M  V30 1557 H 154.663 -0.640365 -4.37438 0
M  V30 1558 N 153.722 1.14298 -1.08507 0
M  V30 1559 C 154.655 2.18447 -0.660004 0
M  V30 1560 C 155.633 1.59242 0.328749 0
M  V30 1561 O 156.817 1.87062 0.232367 0
M  V30 1562 C 153.944 3.38688 0.0290807 0
M  V30 1563 C 152.99 4.1646 -0.919982 0
M  V30 1564 S 153.823 4.77334 -2.42718 0
M  V30 1565 C 154.979 6.00931 -1.75024 0
M  V30 1566 H 155.212 2.54166 -1.54231 0
M  V30 1567 H 152.745 1.25446 -0.900149 0
M  V30 1568 H 154.703 4.08342 0.420378 0
M  V30 1569 H 153.364 3.01289 0.887895 0
M  V30 1570 H 152.557 5.02529 -0.384751 0
M  V30 1571 H 152.159 3.52414 -1.25223 0
M  V30 1572 H 154.451 6.69017 -1.06877 0
M  V30 1573 H 155.394 6.59044 -2.58971 0
M  V30 1574 H 155.802 5.51089 -1.22317 0
M  V30 1575 N 155.201 0.870884 1.31352 0
M  V30 1576 C 156.111 0.330783 2.32256 0
M  V30 1577 C 157.127 -0.559767 1.6475 0
M  V30 1578 O 158.303 -0.456263 1.96164 0
M  V30 1579 C 155.368 -0.458137 3.4366 0
M  V30 1580 C 154.429 0.460482 4.26823 0
M  V30 1581 C 153.662 -0.290881 5.32907 0
M  V30 1582 O 153.885 -1.51885 5.49806 0
M  V30 1583 O 152.819 0.351732 6.00871 0
M  V30 1584 H 156.645 1.16718 2.80376 0
M  V30 1585 H 154.23 0.634285 1.35267 0
M  V30 1586 H 156.112 -0.905343 4.1156 0
M  V30 1587 H 154.787 -1.27106 2.97701 0
M  V30 1588 H 153.694 0.956207 3.61673 0
M  V30 1589 H 155.027 1.23903 4.7635 0
M  V30 1590 N 156.679 -1.44442 0.630414 0
M  V30 1591 C 157.611 -2.2892 -0.113347 0
M  V30 1592 C 158.624 -1.41243 -0.80959 0
M  V30 1593 O 159.813 -1.65402 -0.671156 0
M  V30 1594 C 156.913 -3.17594 -1.18266 0
M  V30 1595 C 156.086 -4.33682 -0.569073 0
M  V30 1596 C 155.145 -5.03397 -1.53226 0
M  V30 1597 O 154.171 -5.59438 -1.04967 0
M  V30 1598 N 155.373 -5.04783 -2.86661 0
M  V30 1599 H 158.138 -2.93392 0.611636 0
M  V30 1600 H 155.699 -1.54881 0.471523 0
M  V30 1601 H 157.691 -3.61097 -1.82732 0
M  V30 1602 H 156.261 -2.54876 -1.80988 0
M  V30 1603 H 155.481 -3.9338 0.254187 0
M  V30 1604 H 156.769 -5.08608 -0.139767 0
M  V30 1605 H 156.167 -4.60584 -3.28449 0
M  V30 1606 H 154.724 -5.52077 -3.46489 0
M  V30 1607 N 158.157 -0.370918 -1.53173 0
M  V30 1608 C 159.105 0.488101 -2.27421 0
M  V30 1609 C 160.099 1.07884 -1.30604 0
M  V30 1610 O 161.305 1.02143 -1.48212 0
M  V30 1611 H 157.68 0.176134 -0.731082 0
M  V30 1612 H 159.651 -0.159815 -2.97972 0
M  V30 1613 C 158.4 1.61306 -3.08019 0
M  V30 1614 H 157.723 1.1678 -3.82364 0
M  V30 1615 H 159.163 2.18872 -3.63141 0
M  V30 1616 C 157.622 2.55848 -2.19188 0
M  V30 1617 O 158.152 3.58799 -1.80626 0
M  V30 1618 N 156.358 2.2516 -1.83715 0
M  V30 1619 H 155.905 1.41476 -2.15273 0
M  V30 1620 H 155.863 2.8867 -1.24567 0
M  V30 1621 N 159.635 1.57281 -0.100228 0
M  V30 1622 C 160.567 2.11342 0.886972 0
M  V30 1623 C 161.58 1.05182 1.24261 0
M  V30 1624 O 162.769 1.32613 1.19483 0
M  V30 1625 C 159.869 2.5825 2.19454 0
M  V30 1626 C 159.042 3.88302 2.01346 0
M  V30 1627 C 158.101 4.21004 3.15661 0
M  V30 1628 O 157.127 4.9014 2.89398 0
M  V30 1629 N 158.329 3.76818 4.41575 0
M  V30 1630 H 161.094 2.96668 0.425216 0
M  V30 1631 H 158.655 1.61678 0.0847334 0
M  V30 1632 H 160.647 2.7717 2.94888 0
M  V30 1633 H 159.217 1.77907 2.57037 0
M  V30 1634 H 158.437 3.7848 1.10212 0
M  V30 1635 H 159.725 4.73375 1.8653 0
M  V30 1636 H 159.123 3.2102 4.65792 0
M  V30 1637 H 157.68 4.00882 5.13942 0
M  V30 1638 N 161.113 -0.173488 1.56642 0
M  V30 1639 C 162.061 -1.23417 1.97157 0
M  V30 1640 C 163.055 -1.45946 0.860013 0
M  V30 1641 O 164.261 -1.46551 1.04512 0
M  V30 1642 H 160.636 -0.414818 0.62724 0
M  V30 1643 H 162.607 -0.865582 2.8557 0
M  V30 1644 C 161.356 -2.5665 2.34576 0
M  V30 1645 H 160.679 -2.40137 3.19647 0
M  V30 1646 H 162.119 -3.2956 2.6677 0
M  V30 1647 C 160.578 -3.15245 1.18836 0
M  V30 1648 O 161.108 -3.98883 0.474869 0
M  V30 1649 N 159.314 -2.74303 0.959497 0
M  V30 1650 H 158.861 -2.0639 1.54146 0
M  V30 1651 H 158.819 -3.13844 0.186932 0
M  V30 1652 N 162.591 -1.51276 -0.441967 0
M  V30 1653 C 163.539 -1.72823 -1.55676 0
M  V30 1654 C 164.533 -0.59445 -1.58627 0
M  V30 1655 O 165.739 -0.775715 -1.62427 0
M  V30 1656 H 162.114 -0.545983 -0.517113 0
M  V30 1657 H 164.085 -2.6628 -1.34675 0
M  V30 1658 C 162.834 -1.86619 -2.93375 0
M  V30 1659 H 162.157 -2.73264 -2.91834 0
M  V30 1660 H 163.597 -2.05709 -3.70756 0
M  V30 1661 C 162.056 -0.624842 -3.31055 0
M  V30 1662 O 162.586 0.222636 -4.01083 0
M  V30 1663 N 160.792 -0.470288 -2.86769 0
M  V30 1664 H 160.339 -1.161 -2.29953 0
M  V30 1665 H 160.297 0.359051 -3.12343 0
M  V30 1666 N 164.069 0.697108 -1.41344 0
M  V30 1667 C 165.315 1.45796 -1.41828 0
M  V30 1668 C 165.67 1.92382 -0.0261743 0
M  V30 1669 O 164.963 1.66522 0.947688 0
M  V30 1670 C 165.157 2.68553 -2.35826 0
M  V30 1671 C 164.986 2.33975 -3.84039 0
M  V30 1672 C 163.756 2.24414 -4.52732 0
M  V30 1673 C 165.954 1.97048 -4.75054 0
M  V30 1674 N 163.936 1.82705 -5.86082 0
M  V30 1675 C 165.307 1.66086 -5.9734 0
M  V30 1676 C 167.362 1.83845 -4.62715 0
M  V30 1677 C 166.065 1.23246 -7.08663 0
M  V30 1678 C 168.091 1.4241 -5.73998 0
M  V30 1679 C 167.453 1.12357 -6.95381 0
M  V30 1680 H 163.552 0.530859 -0.574206 0
M  V30 1681 H 166.136 0.806674 -1.77203 0
M  V30 1682 H 164.307 3.31404 -2.02549 0
M  V30 1683 H 166.039 3.35015 -2.2704 0
M  V30 1684 H 162.794 2.4276 -4.0665 0
M  V30 1685 H 163.218 1.64337 -6.56751 0
M  V30 1686 H 167.86 2.05734 -3.69369 0
M  V30 1687 H 165.578 1.00102 -8.01876 0
M  V30 1688 H 169.164 1.32746 -5.66454 0
M  V30 1689 H 168.044 0.807795 -7.80028 0
M  V30 1690 N 165.547 1.27147 0.931209 0
M  V30 1691 C 166.477 1.12081 2.04842 0
M  V30 1692 C 167.458 0.0232364 1.70084 0
M  V30 1693 O 168.643 0.197085 1.93197 0
M  V30 1694 C 165.773 0.76354 3.38803 0
M  V30 1695 C 164.727 1.81396 3.87659 0
M  V30 1696 C 164.053 1.31075 5.18385 0
M  V30 1697 C 165.353 3.21739 4.11438 0
M  V30 1698 H 167.047 2.05537 2.17703 0
M  V30 1699 H 164.593 0.989603 1.04608 0
M  V30 1700 H 166.546 0.644982 4.16435 0
M  V30 1701 H 165.27 -0.206727 3.25945 0
M  V30 1702 H 163.929 1.92136 3.12217 0
M  V30 1703 H 163.577 0.330037 5.01916 0
M  V30 1704 H 163.277 2.013 5.52044 0
M  V30 1705 H 164.801 1.20506 5.98591 0
M  V30 1706 H 166.215 3.14019 4.79651 0
M  V30 1707 H 164.612 3.89644 4.56397 0
M  V30 1708 H 165.682 3.67054 3.16859 0
M  V30 1709 N 167.025 -1.13721 1.09112 0
M  V30 1710 C 167.955 -2.21148 0.749385 0
M  V30 1711 C 168.936 -1.6792 -0.271475 0
M  V30 1712 O 170.121 -1.93693 -0.140251 0
M  V30 1713 C 167.251 -3.46905 0.165659 0
M  V30 1714 C 166.205 -4.13203 1.11567 0
M  V30 1715 C 165.531 -5.33248 0.393809 0
M  V30 1716 C 166.831 -4.60912 2.45678 0
M  V30 1717 H 168.525 -2.4999 1.64758 0
M  V30 1718 H 166.071 -1.20156 0.793626 0
M  V30 1719 H 168.024 -4.21313 -0.085466 0
M  V30 1720 H 166.748 -3.17449 -0.767714 0
M  V30 1721 H 165.407 -3.40758 1.35202 0
M  V30 1722 H 165.055 -5.00054 -0.543599 0
M  V30 1723 H 164.755 -5.78552 1.02721 0
M  V30 1724 H 166.279 -6.10413 0.150908 0
M  V30 1725 H 167.693 -5.26759 2.26269 0
M  V30 1726 H 166.09 -5.16944 3.04776 0
M  V30 1727 H 167.16 -3.75603 3.06677 0
M  V30 1728 N 168.503 -0.877838 -1.30888 0
M  V30 1729 C 169.731 -0.507414 -2.00581 0
M  V30 1730 C 170.146 0.902216 -1.65848 0
M  V30 1731 O 169.503 1.59225 -0.891831 0
M  V30 1732 C 169.554 -0.664162 -3.55347 0
M  V30 1733 O 169.275 -2.01829 -3.8884 0
M  V30 1734 C 170.776 -0.295787 -4.42312 0
M  V30 1735 H 167.996 -0.196866 -0.641471 0
M  V30 1736 H 170.54 -1.18117 -1.66939 0
M  V30 1737 H 168.695 -0.0378619 -3.87381 0
M  V30 1738 H 169.109 -2.03174 -4.8355 0
M  V30 1739 H 170.583 -0.456388 -5.5011 0
M  V30 1740 H 171.06 0.765663 -4.32475 0
M  V30 1741 H 171.666 -0.898113 -4.15709 0
M  V30 1742 N 169.982 1.44106 -0.638065 0
M  V30 1743 C 171.207 2.0685 -0.150916 0
M  V30 1744 C 171.632 1.47417 1.16833 0
M  V30 1745 O 170.99 0.578264 1.71831 0
M  V30 1746 C 171.038 3.60555 -0.05708 0
M  V30 1747 O 170.142 4.00465 0.984972 0
M  V30 1748 H 169.483 0.658151 -0.0879399 0
M  V30 1749 H 172.013 1.84865 -0.876707 0
M  V30 1750 H 172.023 4.07789 0.131232 0
M  V30 1751 H 170.698 4.03193 -1.02021 0
M  V30 1752 H 169.275 3.64849 0.770672 0
M  V30 1753 N 171.46 0.379036 1.52974 0
M  V30 1754 C 172.706 -0.199244 2.02422 0
M  V30 1755 C 173.061 -1.4532 1.26095 0
M  V30 1756 O 172.354 -1.88377 0.34996 0
M  V30 1757 C 172.548 -0.53096 3.53434 0
M  V30 1758 C 172.377 0.689298 4.44386 0
M  V30 1759 C 171.147 1.20546 4.9071 0
M  V30 1760 C 173.345 1.55856 4.90116 0
M  V30 1761 N 171.327 2.38434 5.65705 0
M  V30 1762 C 172.698 2.58396 5.63588 0
M  V30 1763 C 174.753 1.57986 4.7217 0
M  V30 1764 C 173.456 3.62939 6.21022 0
M  V30 1765 C 175.482 2.6143 5.30479 0
M  V30 1766 C 174.844 3.62693 6.03849 0
M  V30 1767 H 170.943 -0.0352671 0.781204 0
M  V30 1768 H 173.527 0.526614 1.87443 0
M  V30 1769 H 171.698 -1.22588 3.68547 0
M  V30 1770 H 173.43 -1.0955 3.89591 0
M  V30 1771 H 170.185 0.768022 4.67331 0
M  V30 1772 H 170.609 2.98055 6.07859 0
M  V30 1773 H 175.251 0.810475 4.14959 0
M  V30 1774 H 172.969 4.40751 6.77321 0
M  V30 1775 H 176.555 2.63949 5.18481 0
M  V30 1776 H 175.435 4.41424 6.48163 0
M  V30 1777 N 172.938 -1.57226 0.108567 0
M  V30 1778 C 174.187 -1.94008 -0.551703 0
M  V30 1779 C 174.5 -0.993442 -1.68494 0
M  V30 1780 O 175.706 -1.25551 -2.40726 0
M  V30 1781 C 174.162 -3.44763 -1.03279 0
M  V30 1782 C 173.77 -4.47943 0.0714193 0
M  V30 1783 C 175.514 -3.90483 -1.66503 0
M  V30 1784 C 173.421 -5.89865 -0.425779 0
M  V30 1785 H 172.351 -0.724206 -0.209863 0
M  V30 1786 H 175.002 -1.82547 0.186741 0
M  V30 1787 H 173.384 -3.51422 -1.82533 0
M  V30 1788 H 174.558 -4.52942 0.847365 0
M  V30 1789 H 172.873 -4.11913 0.609669 0
M  V30 1790 H 175.47 -4.93925 -2.04798 0
M  V30 1791 H 175.813 -3.29877 -2.53942 0
M  V30 1792 H 176.346 -3.86581 -0.938074 0
M  V30 1793 H 173.085 -6.54202 0.412316 0
M  V30 1794 H 172.605 -5.88309 -1.16843 0
M  V30 1795 H 174.284 -6.40844 -0.890397 0
M  V30 1796 N 174.416 0.165178 -1.56732 0
M  V30 1797 C 175.641 0.900253 -1.86843 0
M  V30 1798 C 176.066 1.74766 -0.695596 0
M  V30 1799 O 175.424 1.77786 0.35522 0
M  V30 1800 C 175.472 1.74777 -3.15413 0
M  V30 1801 O 174.576 2.85007 -2.98068 0
M  V30 1802 H 173.917 0.251832 -0.614391 0
M  V30 1803 H 176.447 0.161468 -2.03962 0
M  V30 1804 H 176.457 2.14646 -3.46974 0
M  V30 1805 H 175.132 1.12537 -4.00385 0
M  V30 1806 H 173.709 2.48676 -2.77875 0
M  V30 1807 N 175.894 1.51508 0.433938 0
M  V30 1808 C 176.842 1.73646 1.54757 0
M  V30 1809 C 177.836 0.602854 1.5831 0
M  V30 1810 O 179.042 0.784318 1.62014 0
M  V30 1811 H 175.417 0.548718 0.51421 0
M  V30 1812 H 177.388 2.66991 1.33261 0
M  V30 1813 C 176.137 1.88172 2.92381 0
M  V30 1814 H 175.46 2.74808 2.90381 0
M  V30 1815 H 176.9 2.07672 3.6966 0
M  V30 1816 C 175.359 0.64239 3.30719 0
M  V30 1817 O 175.889 -0.201362 4.01195 0
M  V30 1818 N 174.095 0.485489 2.86516 0
M  V30 1819 H 173.642 1.17318 2.29334 0
M  V30 1820 H 173.6 -0.342482 3.12529 0
M  V30 1821 N 177.372 -0.689602 1.41712 0
M  V30 1822 C 178.282 -1.83314 1.46401 0
M  V30 1823 C 179.298 -1.7036 0.35405 0
M  V30 1824 O 180.474 -1.92171 0.602692 0
M  V30 1825 C 177.539 -3.19344 1.34982 0
M  V30 1826 C 176.6 -3.44363 2.56344 0
M  V30 1827 C 175.833 -4.73904 2.45461 0
M  V30 1828 O 176.056 -5.508 1.48241 0
M  V30 1829 O 174.99 -4.99839 3.35328 0
M  V30 1830 H 178.816 -1.82314 2.42889 0
M  V30 1831 H 176.401 -0.843438 1.23315 0
M  V30 1832 H 178.283 -4.00547 1.3092 0
M  V30 1833 H 176.958 -3.21014 0.41612 0
M  V30 1834 H 175.865 -2.63067 2.65982 0
M  V30 1835 H 177.198 -3.47512 3.48563 0
M  V30 1836 N 178.85 -1.27639 -0.924453 0
M  V30 1837 C 180.098 -1.13941 -1.66918 0
M  V30 1838 C 180.419 0.314589 -1.92446 0
M  V30 1839 O 179.689 1.21964 -1.53303 0
M  V30 1840 H 178.269 -0.418678 -0.618642 0
M  V30 1841 H 180.931 -1.60213 -1.10985 0
M  V30 1842 H 180.027 -1.67094 -2.63602 0
M  V30 1843 N 180.328 1.1314 -1.09713 0
M  V30 1844 C 181.291 2.16831 -0.742751 0
M  V30 1845 C 182.291 1.59159 0.229129 0
M  V30 1846 O 183.481 1.74199 0.00693237 0
M  V30 1847 C 180.613 3.40756 -0.0989168 0
M  V30 1848 H 181.806 2.49695 -1.66109 0
M  V30 1849 H 179.359 1.2802 -0.896699 0
M  V30 1850 H 180.094 3.13485 0.830514 0
M  V30 1851 H 179.879 3.83888 -0.798265 0
M  V30 1852 H 181.369 4.17386 0.133524 0
M  V30 1853 N 181.806 0.884767 1.30421 0
M  V30 1854 C 183.031 0.517288 2.00845 0
M  V30 1855 C 183.456 -0.886779 1.65885 0
M  V30 1856 O 182.814 -1.58768 0.875354 0
M  V30 1857 C 182.862 0.698994 3.5376 0
M  V30 1858 O 181.966 -0.255208 4.1161 0
M  V30 1859 H 181.307 0.203872 0.631927 0
M  V30 1860 H 183.837 1.19225 1.66272 0
M  V30 1861 H 183.847 0.597912 4.03595 0
M  V30 1862 H 182.522 1.72271 3.78544 0
M  V30 1863 H 181.099 -0.10784 3.72744 0
M  V30 1864 N 183.284 -1.43765 0.645699 0
M  V30 1865 C 184.7 -1.56509 0.312591 0
M  V30 1866 C 184.9 -1.6307 -1.18365 0
M  V30 1867 O 183.956 -1.58167 -1.96824 0
M  V30 1868 C 185.269 -2.82968 1.01733 0
M  V30 1869 C 186.817 -2.96701 0.996865 0
M  V30 1870 C 187.292 -4.25982 1.68236 0
M  V30 1871 N 188.783 -4.32829 1.64964 0
M  V30 1872 C 189.518 -5.31613 2.14885 0
M  V30 1873 N 189.014 -6.36718 2.73061 0
M  V30 1874 N 190.807 -5.23217 2.05428 0
M  V30 1875 H 182.958 -1.3775 1.61675 0
M  V30 1876 H 185.221 -0.661067 0.679481 0
M  V30 1877 H 184.927 -2.84156 2.0724 0
M  V30 1878 H 184.801 -3.72957 0.564177 0
M  V30 1879 H 187.188 -2.95058 -0.0497719 0
M  V30 1880 H 187.269 -2.08022 1.48865 0
M  V30 1881 H 186.913 -4.28386 2.72852 0
M  V30 1882 H 186.843 -5.13545 1.16529 0
M  V30 1883 H 189.334 -3.57493 1.22503 0
M  V30 1884 H 189.647 -7.08401 3.08848 0
M  V30 1885 H 187.992 -6.37362 2.77118 0
M  V30 1886 H 191.183 -4.40019 1.59689 0
M  V30 1887 H 191.356 -6.00045 2.44643 0
M  V30 1888 N 184.763 -0.387143 -1.52771 0
M  V30 1889 C 186.012 0.19697 -2.00736 0
M  V30 1890 C 186.325 1.48082 -1.27793 0
M  V30 1891 O 187.531 2.14485 -1.66458 0
M  V30 1892 C 185.987 0.401568 -3.57653 0
M  V30 1893 C 185.595 -0.868907 -4.39493 0
M  V30 1894 C 187.339 0.942164 -4.13912 0
M  V30 1895 C 185.246 -0.632705 -5.88006 0
M  V30 1896 H 184.176 0.0773827 -0.750019 0
M  V30 1897 H 186.827 -0.50921 -1.76293 0
M  V30 1898 H 185.209 1.16954 -3.78335 0
M  V30 1899 H 186.383 -1.64133 -4.30577 0
M  V30 1900 H 184.698 -1.33429 -3.94443 0
M  V30 1901 H 187.295 1.13455 -5.22525 0
M  V30 1902 H 187.638 1.9106 -3.69867 0
M  V30 1903 H 188.171 0.233814 -3.97112 0
M  V30 1904 H 184.91 -1.57208 -6.36369 0
M  V30 1905 H 184.43 0.100825 -5.99715 0
M  V30 1906 H 186.109 -0.26642 -6.46451 0
M  V30 1907 N 186.241 1.57166 -0.116904 0
M  V30 1908 C 187.488 1.95123 0.541603 0
M  V30 1909 C 187.816 1.00006 1.6682 0
M  V30 1910 O 187.071 0.0235658 1.95686 0
M  V30 1911 C 187.37 3.39508 1.11664 0
M  V30 1912 C 187.036 4.50762 0.111606 0
M  V30 1913 C 185.698 4.80918 -0.164758 0
M  V30 1914 C 188.05 5.18036 -0.573438 0
M  V30 1915 C 185.378 5.75666 -1.13249 0
M  V30 1916 C 187.73 6.13824 -1.52978 0
M  V30 1917 C 186.394 6.42374 -1.81415 0
M  V30 1918 H 185.664 0.714005 0.198187 0
M  V30 1919 H 188.311 1.9048 -0.197365 0
M  V30 1920 H 186.616 3.40835 1.93232 0
M  V30 1921 H 188.313 3.66189 1.63422 0
M  V30 1922 H 184.903 4.27272 0.337192 0
M  V30 1923 H 189.087 4.94896 -0.373092 0
M  V30 1924 H 184.343 5.96092 -1.35958 0
M  V30 1925 H 188.517 6.65039 -2.06629 0
M  V30 1926 H 186.144 7.15599 -2.56557 0
M  V30 1927 N 187.719 -0.156864 1.56817 0
M  V30 1928 C 188.968 -0.869504 1.81996 0
M  V30 1929 C 189.281 -1.82777 0.696545 0
M  V30 1930 O 190.487 -2.58384 0.833658 0
M  V30 1931 C 188.943 -1.59679 3.22538 0
M  V30 1932 C 188.551 -0.681431 4.42787 0
M  V30 1933 C 190.295 -2.2968 3.56997 0
M  V30 1934 C 188.202 -1.40978 5.74351 0
M  V30 1935 H 187.132 -0.328438 0.678708 0
M  V30 1936 H 189.783 -0.1223 1.83092 0
M  V30 1937 H 188.165 -2.38927 3.158 0
M  V30 1938 H 189.339 0.0751166 4.60739 0
M  V30 1939 H 187.654 -0.0903431 4.16302 0
M  V30 1940 H 190.251 -2.84794 4.52544 0
M  V30 1941 H 190.594 -3.05707 2.82576 0
M  V30 1942 H 191.127 -1.57361 3.65352 0
M  V30 1943 H 187.866 -0.691561 6.51842 0
M  V30 1944 H 187.386 -2.13929 5.60352 0
M  V30 1945 H 189.065 -1.95337 6.16808 0
M  V30 1946 N 189.197 -1.51736 -0.425897 0
M  V30 1947 C 190.107 -1.76738 -1.54275 0
M  V30 1948 C 191.123 -0.65211 -1.61318 0
M  V30 1949 O 192.299 -0.935654 -1.78346 0
M  V30 1950 C 189.364 -1.89755 -2.90162 0
M  V30 1951 C 188.425 -3.13633 -2.93143 0
M  V30 1952 C 187.658 -3.2602 -4.22548 0
M  V30 1953 O 187.881 -2.44067 -5.15546 0
M  V30 1954 O 186.815 -4.19071 -4.32046 0
M  V30 1955 H 190.641 -2.71502 -1.36089 0
M  V30 1956 H 188.226 -1.36376 -0.610069 0
M  V30 1957 H 190.108 -2.00236 -3.70788 0
M  V30 1958 H 188.783 -0.981785 -3.08452 0
M  V30 1959 H 187.69 -3.08622 -2.11431 0
M  V30 1960 H 189.023 -4.04936 -2.798 0
M  V30 1961 N 190.675 0.682077 -1.42076 0
M  V30 1962 C 191.605 1.80796 -1.47767 0
M  V30 1963 C 192.586 1.6677 -0.334954 0
M  V30 1964 O 193.771 1.863 -0.548264 0
M  V30 1965 C 190.901 3.19038 -1.37229 0
M  V30 1966 C 189.855 3.47789 -2.49453 0
M  V30 1967 C 189.181 4.8553 -2.23975 0
M  V30 1968 C 190.481 3.45411 -3.91776 0
M  V30 1969 H 192.175 1.7629 -2.41997 0
M  V30 1970 H 189.721 0.846721 -1.16476 0
M  V30 1971 H 191.674 3.97528 -1.39821 0
M  V30 1972 H 190.398 3.24204 -0.394907 0
M  V30 1973 H 189.057 2.71657 -2.46166 0
M  V30 1974 H 188.705 4.87337 -1.24547 0
M  V30 1975 H 188.405 5.0573 -2.99184 0
M  V30 1976 H 189.929 5.66312 -2.28304 0
M  V30 1977 H 191.343 4.13882 -3.96705 0
M  V30 1978 H 189.74 3.77145 -4.66778 0
M  V30 1979 H 190.81 2.44122 -4.18966 0
M  V30 1980 N 192.153 1.28127 0.917671 0
M  V30 1981 C 193.1 1.11717 2.0196 0
M  V30 1982 C 194.07 0.0153929 1.66093 0
M  V30 1983 O 195.255 0.179596 1.89953 0
M  V30 1984 C 192.395 0.780927 3.36148 0
M  V30 1985 C 191.508 1.96135 3.84909 0
M  V30 1986 C 190.643 1.56609 5.0759 0
M  V30 1987 C 189.682 2.71339 5.48673 0
M  V30 1988 N 188.819 2.32332 6.62545 0
M  V30 1989 H 193.659 2.06003 2.15329 0
M  V30 1990 H 191.196 1.02535 1.05475 0
M  V30 1991 H 193.154 0.56675 4.13333 0
M  V30 1992 H 191.784 -0.124998 3.22558 0
M  V30 1993 H 190.836 2.28777 3.03916 0
M  V30 1994 H 192.148 2.82165 4.1132 0
M  V30 1995 H 191.302 1.31374 5.92305 0
M  V30 1996 H 190.041 0.677014 4.82978 0
M  V30 1997 H 189.046 2.97276 4.62501 0
M  V30 1998 H 190.271 3.60882 5.75274 0
M  V30 1999 H 188.217 1.45889 6.39572 0
M  V30 2000 H 188.134 3.11899 6.88662 0
M  V30 2001 H 189.402 2.10371 7.50576 0
M  V30 2002 N 193.631 -1.12557 1.10312 0
M  V30 2003 C 194.878 -1.84038 0.844759 0
M  V30 2004 C 195.206 -1.84026 -0.629668 0
M  V30 2005 O 194.461 -1.28026 -1.48013 0
M  V30 2006 C 194.76 -3.31462 1.33669 0
M  V30 2007 C 194.426 -3.51647 2.82232 0
M  V30 2008 C 193.088 -3.56864 3.22802 0
M  V30 2009 C 195.44 -3.58867 3.77974 0
M  V30 2010 C 192.768 -3.66844 4.57867 0
M  V30 2011 C 195.12 -3.70375 5.1284 0
M  V30 2012 C 193.784 -3.73848 5.52986 0
M  V30 2013 H 193.054 -0.673444 0.309119 0
M  V30 2014 H 195.701 -1.32824 1.37949 0
M  V30 2015 H 194.006 -3.85091 0.721949 0
M  V30 2016 H 195.703 -3.85236 1.11329 0
M  V30 2017 H 192.293 -3.48249 2.49842 0
M  V30 2018 H 196.477 -3.54107 3.47738 0
M  V30 2019 H 191.733 -3.67804 4.88396 0
M  V30 2020 H 195.907 -3.74904 5.86873 0
M  V30 2021 H 193.534 -3.81333 6.57639 0
M  V30 2022 N 195.109 -0.891671 -1.2995 0
M  V30 2023 C 196.337 -0.52866 -2.00032 0
M  V30 2024 C 196.752 0.884574 -1.66795 0
M  V30 2025 O 196.109 1.5827 -0.908669 0
M  V30 2026 C 196.16 -0.701814 -3.54622 0
M  V30 2027 O 195.881 -2.05942 -3.86678 0
M  V30 2028 C 197.382 -0.342683 -4.41973 0
M  V30 2029 H 194.602 -0.203659 -0.639347 0
M  V30 2030 H 197.146 -1.19881 -1.65677 0
M  V30 2031 H 195.301 -0.0789468 -3.8732 0
M  V30 2032 H 195.715 -2.08291 -4.81368 0
M  V30 2033 H 197.189 -0.514709 -5.49595 0
M  V30 2034 H 197.666 0.71975 -4.33262 0
M  V30 2035 H 198.272 -0.942154 -4.14733 0
M  V30 2036 N 196.587 1.43421 -0.653314 0
M  V30 2037 C 197.517 2.33487 0.0246656 0
M  V30 2038 C 198.498 1.49475 0.811863 0
M  V30 2039 O 199.683 1.78139 0.773322 0
M  V30 2040 C 196.813 3.32841 0.99166 0
M  V30 2041 C 195.767 4.26842 0.314568 0
M  V30 2042 C 195.093 5.16236 1.39302 0
M  V30 2043 C 196.393 5.16243 -0.793095 0
M  V30 2044 H 198.087 2.90427 -0.727481 0
M  V30 2045 H 195.633 1.39649 -0.351287 0
M  V30 2046 H 197.586 3.94747 1.47487 0
M  V30 2047 H 196.31 2.74158 1.77497 0
M  V30 2048 H 194.969 3.663 -0.148199 0
M  V30 2049 H 194.617 4.53891 2.16776 0
M  V30 2050 H 194.317 5.79948 0.945223 0
M  V30 2051 H 195.841 5.81015 1.87759 0
M  V30 2052 H 197.255 5.71958 -0.392039 0
M  V30 2053 H 195.652 5.88676 -1.16536 0
M  V30 2054 H 196.722 4.55927 -1.65103 0
M  V30 2055 N 198.065 0.39524 1.52563 0
M  V30 2056 C 199.481 0.0454682 1.59535 0
M  V30 2057 C 199.681 -1.44056 1.4089 0
M  V30 2058 O 198.737 -2.20579 1.22888 0
M  V30 2059 C 200.05 0.527963 2.96029 0
M  V30 2060 C 201.598 0.484733 3.09224 0
M  V30 2061 C 202.073 0.943512 4.48176 0
M  V30 2062 N 203.564 0.899765 4.54377 0
M  V30 2063 C 204.299 1.22609 5.60138 0
M  V30 2064 N 203.795 1.62319 6.73516 0
M  V30 2065 N 205.588 1.14696 5.50274 0
M  V30 2066 H 197.739 1.36261 1.62931 0
M  V30 2067 H 200.002 0.558887 0.765735 0
M  V30 2068 H 199.708 1.56607 3.14908 0
M  V30 2069 H 199.582 -0.0698056 3.77135 0
M  V30 2070 H 201.969 -0.544298 2.90037 0
M  V30 2071 H 202.05 1.11838 2.30056 0
M  V30 2072 H 201.694 1.9708 4.68104 0
M  V30 2073 H 201.624 0.286817 5.25818 0
M  V30 2074 H 204.115 0.607632 3.72983 0
M  V30 2075 H 204.428 1.85567 7.5019 0
M  V30 2076 H 202.773 1.66211 6.74833 0
M  V30 2077 H 205.964 0.835701 4.6058 0
M  V30 2078 H 206.137 1.40459 6.32594 0
M  V30 2079 N 199.544 -1.57102 0.125237 0
M  V30 2080 C 200.821 -1.86953 -0.575142 0
M  V30 2081 C 201.201 -1.02749 -1.84407 0
M  V30 2082 O 200.549 -0.108144 -2.28244 0
M  V30 2083 C 200.759 -3.38198 -0.861583 0
M  V30 2084 C 202.107 -4.06937 -1.21192 0
M  V30 2085 O 203.131 -3.43252 -0.951645 0
M  V30 2086 O 201.99 -5.19364 -1.70068 0
M  V30 2087 H 199.084 -0.774147 -0.290906 0
M  V30 2088 H 201.63 -1.68942 0.160211 0
M  V30 2089 H 200.402 -3.91282 0.0373647 0
M  V30 2090 H 200.025 -3.61661 -1.65188 0
M  V30 2091 N 201.022 0.148545 -1.56898 0
M  V30 2092 C 202.262 0.86765 -1.85071 0
M  V30 2093 C 202.626 1.78417 -0.709317 0
M  V30 2094 O 203.827 2.54261 -0.872049 0
M  V30 2095 C 202.098 1.62306 -3.1842 0
M  V30 2096 S 203.657 2.3878 -3.68143 0
M  V30 2097 H 200.475 0.290174 -0.649092 0
M  V30 2098 H 203.077 0.127755 -1.95082 0
M  V30 2099 H 201.781 0.941192 -3.99462 0
M  V30 2100 H 201.312 2.4039 -3.1141 0
M  V30 2101 H 203.327 3.63942 -3.37285 0
M  V30 2102 N 202.5 1.5196 0.417844 0
M  V30 2103 C 203.448 1.75278 1.52907 0
M  V30 2104 C 204.442 0.619611 1.57662 0
M  V30 2105 O 205.648 0.801457 1.61173 0
M  V30 2106 H 202.023 0.554141 0.508362 0
M  V30 2107 H 203.994 2.68389 1.30422 0
M  V30 2108 C 202.743 1.91262 2.90369 0
M  V30 2109 H 202.066 2.77872 2.8745 0
M  V30 2110 H 203.506 2.11581 3.67436 0
M  V30 2111 C 201.965 0.677431 3.30019 0
M  V30 2112 O 202.495 -0.158799 4.01386 0
M  V30 2113 N 200.701 0.515851 2.85985 0
M  V30 2114 H 200.248 1.19744 2.28077 0
M  V30 2115 H 200.206 -0.309315 3.12875 0
M  V30 2116 N 203.978 -0.674533 1.42435 0
M  V30 2117 C 205.203 -1.46784 1.46524 0
M  V30 2118 C 205.628 -1.87938 0.078066 0
M  V30 2119 O 204.986 -1.56014 -0.92354 0
M  V30 2120 C 205.034 -2.69307 2.39805 0
M  V30 2121 O 204.138 -3.67587 1.86959 0
M  V30 2122 H 203.479 -0.440959 0.496439 0
M  V30 2123 H 206.009 -0.827326 1.87127 0
M  V30 2124 H 206.019 -3.17374 2.56393 0
M  V30 2125 H 204.694 -2.38692 3.40586 0
M  V30 2126 H 203.271 -3.2662 1.79927 0
M  V30 2127 N 205.456 -1.28612 -0.910864 0
M  V30 2128 C 206.386 -1.15326 -2.03032 0
M  V30 2129 C 207.367 -0.0502924 -1.70026 0
M  V30 2130 O 208.552 -0.227797 -1.92859 0
M  V30 2131 C 205.682 -0.817343 -3.37545 0
M  V30 2132 C 204.636 -1.8754 -3.84724 0
M  V30 2133 C 203.962 -1.39305 -5.16235 0
M  V30 2134 C 205.262 -3.28244 -4.06267 0
M  V30 2135 H 206.956 -2.08975 -2.14406 0
M  V30 2136 H 204.502 -1.00612 -1.03021 0
M  V30 2137 H 206.455 -0.711151 -4.15356 0
M  V30 2138 H 205.179 0.154846 -3.26233 0
M  V30 2139 H 203.838 -1.97079 -3.09121 0
M  V30 2140 H 203.486 -0.409846 -5.01328 0
M  V30 2141 H 203.186 -2.10057 -5.48771 0
M  V30 2142 H 204.71 -1.30014 -5.96598 0
M  V30 2143 H 206.124 -3.21611 -4.74594 0
M  V30 2144 H 204.521 -3.96855 -4.5014 0
M  V30 2145 H 205.591 -3.72048 -3.10979 0
M  V30 2146 N 206.934 1.1197 -1.10907 0
M  V30 2147 C 208.345 1.65114 -0.871446 0
M  V30 2148 C 208.696 1.86885 0.597353 0
M  V30 2149 O 207.821 1.59896 1.45816 0
M  V30 2150 C 208.416 2.99944 -1.5754 0
M  V30 2151 C 206.975 3.50018 -1.38435 0
M  V30 2152 C 206.122 2.24941 -1.62164 0
M  V30 2153 H 209.073 0.956851 -1.2661 0
M  V30 2154 H 209.094 3.66651 -1.01721 0
M  V30 2155 H 208.606 2.84067 -2.64438 0
M  V30 2156 H 206.707 3.71071 -0.337214 0
M  V30 2157 H 206.82 4.29165 -2.12965 0
M  V30 2158 H 205.184 2.3229 -1.04467 0
M  V30 2159 H 205.967 2.11612 -2.70324 0
M  V30 2160 N 208.412 0.89855 1.29475 0
M  V30 2161 C 209.66 0.522847 1.9522 0
M  V30 2162 C 209.981 -0.93371 1.71192 0
M  V30 2163 O 209.251 -1.65823 1.04305 0
M  V30 2164 H 207.831 0.190366 0.722336 0
M  V30 2165 H 210.493 1.14459 1.5775 0
M  V30 2166 H 209.589 0.704476 3.04045 0
M  V30 2167 N 209.89 -1.43072 0.660911 0
M  V30 2168 C 211.138 -2.01323 0.177094 0
M  V30 2169 C 211.459 -1.5245 -1.2159 0
M  V30 2170 O 210.729 -0.740322 -1.81373 0
M  V30 2171 H 209.309 -0.744382 0.0624804 0
M  V30 2172 H 211.971 -1.75179 0.854305 0
M  V30 2173 H 211.067 -3.11649 0.167641 0
M  V30 2174 N 211.368 -0.403325 -1.52352 0
M  V30 2175 C 212.298 0.416205 -2.29761 0
M  V30 2176 C 213.279 1.05123 -1.33728 0
M  V30 2177 O 214.464 1.06134 -1.62632 0
M  V30 2178 C 211.594 1.53624 -3.11475 0
M  V30 2179 C 210.548 1.02653 -4.15507 0
M  V30 2180 C 209.874 2.23971 -4.85532 0
M  V30 2181 C 211.174 0.08463 -5.22231 0
M  V30 2182 H 212.868 -0.229701 -2.98518 0
M  V30 2183 H 210.414 -0.111913 -1.43564 0
M  V30 2184 H 212.367 2.1165 -3.64393 0
M  V30 2185 H 211.091 2.20994 -2.40477 0
M  V30 2186 H 209.75 0.46871 -3.63591 0
M  V30 2187 H 209.398 2.89883 -4.11068 0
M  V30 2188 H 209.098 1.90521 -5.55856 0
M  V30 2189 H 210.622 2.82614 -5.41259 0
M  V30 2190 H 212.036 0.573509 -5.70424 0
M  V30 2191 H 210.433 -0.160783 -5.99885 0
M  V30 2192 H 211.503 -0.86237 -4.7717 0
M  V30 2193 N 212.846 1.57033 -0.133567 0
M  V30 2194 C 214.094 1.953 0.519848 0
M  V30 2195 C 214.415 1.01866 1.66278 0
M  V30 2196 O 213.685 0.0776513 1.95746 0
M  V30 2197 H 212.265 0.721091 0.195032 0
M  V30 2198 H 214.927 1.93809 -0.205921 0
M  V30 2199 H 214.023 2.98695 0.904854 0
M  V30 2200 N 214.325 -0.140222 1.56975 0
M  V30 2201 C 215.553 -0.866437 1.87884 0
M  V30 2202 C 215.968 -1.74428 0.722517 0
M  V30 2203 O 215.325 -1.79891 -0.30749 0
M  V30 2204 C 215.376 -1.71753 3.18093 0
M  V30 2205 O 215.097 -0.875056 4.29272 0
M  V30 2206 C 216.598 -2.55074 3.62563 0
M  V30 2207 H 213.818 -0.25019 0.622612 0
M  V30 2208 H 216.362 -0.130977 2.0408 0
M  V30 2209 H 214.517 -2.40598 3.03631 0
M  V30 2210 H 214.931 -1.46002 5.03769 0
M  V30 2211 H 216.405 -3.10356 4.5649 0
M  V30 2212 H 216.882 -3.31434 2.88181 0
M  V30 2213 H 217.488 -1.91509 3.79743 0
M  V30 2214 N 215.803 -1.52179 -0.40978 0
M  V30 2215 C 217.043 -1.67882 -1.16597 0
M  V30 2216 C 217.407 -0.399795 -1.87791 0
M  V30 2217 O 218.608 -0.43292 -2.65291 0
M  V30 2218 C 216.879 -2.86662 -2.13448 0
M  V30 2219 S 218.438 -3.22843 -2.97183 0
M  V30 2220 H 215.256 -0.59118 -0.395002 0
M  V30 2221 H 217.858 -1.9017 -0.453373 0
M  V30 2222 H 216.562 -3.77998 -1.59831 0
M  V30 2223 H 216.093 -2.66645 -2.89247 0
M  V30 2224 H 218.108 -2.71415 -4.15389 0
M  V30 2225 N 217.281 0.66697 -1.42791 0
M  V30 2226 C 218.228 1.7803 -1.4688 0
M  V30 2227 C 219.198 1.6299 -0.319919 0
M  V30 2228 O 220.383 1.83432 -0.525118 0
M  V30 2229 C 217.523 3.1611 -1.38451 0
M  V30 2230 C 216.636 3.42381 -2.63437 0
M  V30 2231 C 215.771 4.70232 -2.47094 0
M  V30 2232 C 214.81 4.89564 -3.67415 0
M  V30 2233 N 213.947 6.08661 -3.49966 0
M  V30 2234 H 218.787 1.7387 -2.42019 0
M  V30 2235 H 216.324 0.84868 -1.20149 0
M  V30 2236 H 218.282 3.95914 -1.31561 0
M  V30 2237 H 216.912 3.19374 -0.469033 0
M  V30 2238 H 215.964 2.56774 -2.80662 0
M  V30 2239 H 217.276 3.52557 -3.52853 0
M  V30 2240 H 216.43 5.5814 -2.37834 0
M  V30 2241 H 215.169 4.62353 -1.5518 0
M  V30 2242 H 214.174 4.00096 -3.77099 0
M  V30 2243 H 215.399 4.99282 -4.6032 0
M  V30 2244 H 213.345 6.0194 -2.60776 0
M  V30 2245 H 213.262 6.19733 -4.32975 0
M  V30 2246 H 214.53 6.99226 -3.44532 0
M  V30 2247 N 218.759 1.29093 0.90403 0
M  V30 2248 C 219.669 1.15727 2.0407 0
M  V30 2249 C 220.685 0.0815308 1.73809 0
M  V30 2250 O 221.861 0.292749 1.99261 0
M  V30 2251 C 218.926 0.830424 3.36608 0
M  V30 2252 C 217.987 1.98955 3.80415 0
M  V30 2253 C 217.22 1.6782 5.06628 0
M  V30 2254 O 217.443 0.597105 5.67266 0
M  V30 2255 O 216.377 2.52486 5.46383 0
M  V30 2256 H 220.203 2.11171 2.18267 0
M  V30 2257 H 217.788 1.08504 1.027 0
M  V30 2258 H 219.67 0.662521 4.16159 0
M  V30 2259 H 218.345 -0.0942678 3.23563 0
M  V30 2260 H 217.252 2.21267 3.01648 0
M  V30 2261 H 218.585 2.89529 3.98037 0
M  V30 2262 N 220.237 -1.11381 1.11499 0
M  V30 2263 C 221.465 -1.86934 0.88675 0
M  V30 2264 C 221.88 -1.80195 -0.563476 0
M  V30 2265 O 221.237 -1.18367 -1.38908 0
M  V30 2266 C 221.288 -3.35722 1.34064 0
M  V30 2267 O 221.009 -3.4232 2.73401 0
M  V30 2268 C 222.51 -4.2818 1.14791 0
M  V30 2269 H 219.73 -0.591117 0.317523 0
M  V30 2270 H 222.274 -1.40865 1.48248 0
M  V30 2271 H 220.429 -3.79294 0.788355 0
M  V30 2272 H 220.843 -4.34971 2.93087 0
M  V30 2273 H 222.317 -5.30817 1.5145 0
M  V30 2274 H 222.794 -4.39113 0.0875279 0
M  V30 2275 H 223.4 -3.90402 1.68721 0
M  V30 2276 N 221.715 -0.905404 -1.28997 0
M  V30 2277 C 222.962 -0.534248 -1.95325 0
M  V30 2278 C 223.29 0.920535 -1.71337 0
M  V30 2279 O 222.545 1.66861 -1.02254 0
M  V30 2280 C 222.844 -0.779906 -3.48787 0
M  V30 2281 C 222.51 -2.21293 -3.92861 0
M  V30 2282 C 221.172 -2.60475 -4.04606 0
M  V30 2283 C 223.524 -3.14587 -4.15553 0
M  V30 2284 C 220.852 -3.9212 -4.36416 0
M  V30 2285 C 223.204 -4.45787 -4.48839 0
M  V30 2286 C 221.868 -4.84834 -4.58794 0
M  V30 2287 H 221.138 -0.195495 -0.714747 0
M  V30 2288 H 223.785 -1.14514 -1.53488 0
M  V30 2289 H 222.09 -0.0861365 -3.91705 0
M  V30 2290 H 223.787 -0.472029 -3.98212 0
M  V30 2291 H 220.377 -1.89887 -3.84241 0
M  V30 2292 H 224.561 -2.85528 -4.0594 0
M  V30 2293 H 219.817 -4.22086 -4.42327 0
M  V30 2294 H 223.991 -5.18098 -4.65346 0
M  V30 2295 H 221.618 -5.86877 -4.83197 0
M  V30 2296 N 223.193 1.4272 -0.668489 0
M  V30 2297 C 224.141 2.32586 0.0254857 0
M  V30 2298 C 225.135 1.49471 0.797176 0
M  V30 2299 O 226.341 1.65583 0.705853 0
M  V30 2300 H 222.716 0.751514 0.0270339 0
M  V30 2301 H 224.687 2.88823 -0.749936 0
M  V30 2302 C 223.436 3.3397 0.967427 0
M  V30 2303 H 222.759 3.97961 0.383048 0
M  V30 2304 H 224.199 3.9945 1.42181 0
M  V30 2305 C 222.658 2.65744 2.0708 0
M  V30 2306 O 223.188 2.48454 3.15648 0
M  V30 2307 N 221.394 2.2487 1.8407 0
M  V30 2308 H 220.941 2.39132 0.95778 0
M  V30 2309 H 220.899 1.79552 2.58086 0
M  V30 2310 N 224.671 0.411399 1.52136 0
M  V30 2311 C 225.604 -0.457614 2.23565 0
M  V30 2312 C 226.582 -1.04613 1.24478 0
M  V30 2313 O 227.766 -1.09356 1.53536 0
M  V30 2314 C 224.893 -1.6354 2.96602 0
M  V30 2315 C 223.939 -1.17005 4.10137 0
M  V30 2316 S 224.772 -0.13333 5.35334 0
M  V30 2317 C 225.928 -1.31638 6.119 0
M  V30 2318 H 226.161 0.148883 2.96927 0
M  V30 2319 H 223.694 0.195713 1.53155 0
M  V30 2320 H 225.652 -2.31074 3.39286 0
M  V30 2321 H 224.313 -2.21324 2.22878 0
M  V30 2322 H 223.506 -2.05005 4.60422 0
M  V30 2323 H 223.108 -0.573319 3.6958 0
M  V30 2324 H 225.4 -2.23957 6.39413 0
M  V30 2325 H 226.343 -0.854014 7.02931 0
M  V30 2326 H 226.751 -1.54321 5.42997 0
M  V30 2327 N 226.149 -1.5696 0.141893 0
M  V30 2328 C 227.379 -2.00031 -0.516828 0
M  V30 2329 C 227.787 -1.02091 -1.59293 0
M  V30 2330 O 227.13 -0.00909657 -1.83698 0
M  V30 2331 C 227.192 -3.39534 -1.1814 0
M  V30 2332 C 226.856 -4.56313 -0.250513 0
M  V30 2333 C 227.853 -5.17295 0.519839 0
M  V30 2334 C 225.538 -5.02061 -0.154907 0
M  V30 2335 C 227.532 -6.2243 1.3733 0
M  V30 2336 C 225.219 -6.07053 0.702161 0
M  V30 2337 C 226.217 -6.67106 1.46487 0
M  V30 2338 O 225.905 -7.70066 2.30767 0
M  V30 2339 H 225.637 -0.661451 -0.139493 0
M  V30 2340 H 228.191 -2.04086 0.231926 0
M  V30 2341 H 226.421 -3.32302 -1.97769 0
M  V30 2342 H 228.11 -3.66745 -1.73933 0
M  V30 2343 H 228.876 -4.82852 0.45598 0
M  V30 2344 H 224.755 -4.5505 -0.7383 0
M  V30 2345 H 228.299 -6.69233 1.96909 0
M  V30 2346 H 224.196 -6.40923 0.76733 0
M  V30 2347 H 224.964 -7.87264 2.23959 0
M  V30 2348 N 227.627 0.131896 -1.57047 0
M  V30 2349 C 228.857 0.855219 -1.88068 0
M  V30 2350 C 229.265 1.74557 -0.729817 0
M  V30 2351 O 228.608 1.81083 0.308962 0
M  V30 2352 C 228.67 1.75119 -3.13964 0
M  V30 2353 C 228.334 1.03646 -4.45091 0
M  V30 2354 C 229.331 0.383276 -5.18485 0
M  V30 2355 C 227.016 1.02148 -4.91804 0
M  V30 2356 C 229.01 -0.275347 -6.36805 0
M  V30 2357 C 226.697 0.359047 -6.10044 0
M  V30 2358 C 227.695 -0.288222 -6.82392 0
M  V30 2359 O 227.383 -0.94011 -7.98384 0
M  V30 2360 H 227.115 0.251864 -0.627328 0
M  V30 2361 H 229.669 0.124782 -2.05021 0
M  V30 2362 H 227.899 2.52295 -2.9306 0
M  V30 2363 H 229.588 2.3478 -3.31109 0
M  V30 2364 H 230.354 0.386562 -4.83457 0
M  V30 2365 H 226.233 1.5147 -4.35405 0
M  V30 2366 H 229.777 -0.781148 -6.93213 0
M  V30 2367 H 225.674 0.35348 -6.44531 0
M  V30 2368 H 226.442 -0.84329 -8.14144 0
M  V30 2369 N 229.106 1.52395 0.401703 0
M  V30 2370 C 230.353 1.66817 1.14796 0
M  V30 2371 C 230.681 0.401772 1.90305 0
M  V30 2372 O 229.936 -0.615487 1.85769 0
M  V30 2373 C 230.235 2.84578 2.16217 0
M  V30 2374 C 229.901 4.22513 1.5746 0
M  V30 2375 C 228.563 4.60029 1.41161 0
M  V30 2376 C 230.915 5.0844 1.14622 0
M  V30 2377 C 228.243 5.81144 0.80552 0
M  V30 2378 C 230.595 6.30167 0.55428 0
M  V30 2379 C 229.259 6.66426 0.378482 0
M  V30 2380 H 228.529 0.610428 0.420069 0
M  V30 2381 H 231.176 1.86512 0.434212 0
M  V30 2382 H 229.481 2.59248 2.93764 0
M  V30 2383 H 231.178 2.92933 2.73845 0
M  V30 2384 H 227.768 3.92953 1.71132 0
M  V30 2385 H 231.952 4.80034 1.26021 0
M  V30 2386 H 227.208 6.07855 0.657399 0
M  V30 2387 H 231.382 6.96071 0.213983 0
M  V30 2388 H 229.009 7.60143 -0.0932606 0
M  V30 2389 N 230.584 -0.659388 1.43143 0
M  V30 2390 C 231.494 -1.80167 1.50256 0
M  V30 2391 C 232.51 -1.69571 0.390106 0
M  V30 2392 O 233.686 -1.90849 0.643319 0
M  V30 2393 C 230.751 -3.16409 1.41725 0
M  V30 2394 C 229.812 -3.38848 2.63591 0
M  V30 2395 C 229.045 -4.68591 2.55458 0
M  V30 2396 O 229.268 -5.47532 1.59891 0
M  V30 2397 O 228.202 -4.92614 3.45854 0
M  V30 2398 H 232.028 -1.77121 2.46702 0
M  V30 2399 H 229.613 -0.817092 1.25076 0
M  V30 2400 H 231.495 -3.9768 1.39387 0
M  V30 2401 H 230.17 -3.20059 0.484118 0
M  V30 2402 H 229.077 -2.57366 2.71502 0
M  V30 2403 H 230.41 -3.4004 3.55856 0
M  V30 2404 N 232.062 -1.29571 -0.897171 0
M  V30 2405 C 233.287 -1.20705 -1.68656 0
M  V30 2406 C 233.712 0.228582 -1.86706 0
M  V30 2407 O 233.07 1.16494 -1.3892 0
M  V30 2408 C 233.118 -1.9282 -3.04717 0
M  V30 2409 O 232.222 -1.24697 -3.93096 0
M  V30 2410 H 231.563 -0.418126 -0.515816 0
M  V30 2411 H 234.093 -1.71183 -1.12061 0
M  V30 2412 H 234.103 -2.01372 -3.54843 0
M  V30 2413 H 232.778 -2.97239 -2.90899 0
M  V30 2414 H 231.355 -1.2442 -3.51531 0
M  V30 2415 N 233.54 1.10788 -1.12088 0
M  V30 2416 C 234.817 1.79136 -0.785476 0
M  V30 2417 C 235.197 1.98246 0.725377 0
M  V30 2418 O 234.545 1.57258 1.65778 0
M  V30 2419 C 234.755 3.12375 -1.55636 0
M  V30 2420 C 236.103 3.8731 -1.74001 0
M  V30 2421 O 237.127 3.22085 -1.52117 0
M  V30 2422 O 235.986 5.04369 -2.10415 0
M  V30 2423 H 233.08 0.776226 -0.285311 0
M  V30 2424 H 235.626 1.1747 -1.2247 0
M  V30 2425 H 234.398 2.93863 -2.5838 0
M  V30 2426 H 234.021 3.81758 -1.11114 0
M  V30 2427 N 235.018 0.912232 1.28515 0
M  V30 2428 C 236.295 0.463597 1.90027 0
M  V30 2429 C 236.675 -1.05753 1.82701 0
M  V30 2430 O 236.023 -1.90492 1.26194 0
M  V30 2431 C 236.233 0.992253 3.34597 0
M  V30 2432 C 237.581 1.04344 4.11579 0
M  V30 2433 O 238.605 0.94079 3.43551 0
M  V30 2434 O 237.464 1.1995 5.33174 0
M  V30 2435 H 234.558 0.146666 0.813891 0
M  V30 2436 H 237.104 1.00292 1.36893 0
M  V30 2437 H 235.876 2.03623 3.34146 0
M  V30 2438 H 235.499 0.433672 3.95228 0
M  V30 2439 N 236.496 -1.42363 0.676048 0
M  V30 2440 C 237.428 -2.29164 -0.0404605 0
M  V30 2441 C 238.441 -1.43747 -0.764245 0
M  V30 2442 O 239.63 -1.67453 -0.618195 0
M  V30 2443 C 236.73 -3.21196 -1.08103 0
M  V30 2444 C 235.903 -4.35273 -0.430812 0
M  V30 2445 C 234.962 -5.08017 -1.37133 0
M  V30 2446 O 233.988 -5.62494 -0.87116 0
M  V30 2447 N 235.19 -5.13647 -2.70456 0
M  V30 2448 H 237.955 -2.91298 0.704667 0
M  V30 2449 H 235.516 -1.53303 0.520559 0
M  V30 2450 H 237.508 -3.66728 -1.71152 0
M  V30 2451 H 236.078 -2.60505 -1.72788 0
M  V30 2452 H 235.298 -3.92372 0.379209 0
M  V30 2453 H 236.586 -5.08795 0.0221132 0
M  V30 2454 H 235.984 -4.708 -3.1363 0
M  V30 2455 H 234.541 -5.62821 -3.28749 0
M  V30 2456 N 237.974 -0.419461 -1.51915 0
M  V30 2457 C 238.922 0.415502 -2.28859 0
M  V30 2458 C 239.916 1.03674 -1.3397 0
M  V30 2459 O 241.122 0.973757 -1.51387 0
M  V30 2460 H 237.497 0.152786 -0.736315 0
M  V30 2461 H 239.468 -0.254531 -2.97312 0
M  V30 2462 C 238.217 1.51425 -3.12995 0
M  V30 2463 H 237.54 1.04556 -3.85886 0
M  V30 2464 H 238.98 2.07208 -3.6992 0
M  V30 2465 C 237.439 2.48745 -2.27217 0
M  V30 2466 O 237.969 3.52871 -1.9195 0
M  V30 2467 N 236.175 2.19202 -1.90785 0
M  V30 2468 H 235.722 1.34556 -2.19664 0
M  V30 2469 H 235.68 2.84561 -1.33687 0
M  V30 2470 N 239.452 1.56882 -0.150215 0
M  V30 2471 C 240.7 1.9584 0.499105 0
M  V30 2472 C 241.021 1.03623 1.65188 0
M  V30 2473 O 240.291 0.0984084 1.95653 0
M  V30 2474 H 238.871 0.723119 0.187373 0
M  V30 2475 H 241.533 1.9358 -0.226466 0
M  V30 2476 H 240.629 2.99638 0.873122 0
M  V30 2477 N 240.93 -0.123565 1.57115 0
M  V30 2478 C 242.346 -0.476961 1.52306 0
M  V30 2479 C 242.546 -1.82109 0.86248 0
M  V30 2480 O 241.602 -2.48586 0.442884 0
M  V30 2481 C 242.915 -0.465661 2.97073 0
M  V30 2482 C 244.463 -0.549534 3.08138 0
M  V30 2483 C 244.938 -0.568669 4.54456 0
M  V30 2484 N 246.429 -0.630237 4.58892 0
M  V30 2485 C 247.164 -0.666415 5.69514 0
M  V30 2486 N 246.66 -0.660514 6.89644 0
M  V30 2487 N 248.453 -0.709077 5.5761 0
M  V30 2488 H 240.604 0.757198 1.98445 0
M  V30 2489 H 242.867 0.278808 0.906074 0
M  V30 2490 H 242.573 0.454232 3.48754 0
M  V30 2491 H 242.447 -1.29513 3.54269 0
M  V30 2492 H 244.834 -1.45985 2.56461 0
M  V30 2493 H 244.915 0.307532 2.53945 0
M  V30 2494 H 244.559 0.337581 5.06777 0
M  V30 2495 H 244.489 -1.44256 5.06456 0
M  V30 2496 H 246.98 -0.641146 3.72421 0
M  V30 2497 H 247.293 -0.690616 7.69708 0
M  V30 2498 H 245.638 -0.628012 6.92157 0
M  V30 2499 H 248.829 -0.711019 4.62668 0
M  V30 2500 H 249.002 -0.733804 6.43832 0
M  V30 2501 N 242.408 -1.52605 -0.393616 0
M  V30 2502 C 243.356 -1.77688 -1.50099 0
M  V30 2503 C 244.35 -0.644615 -1.56656 0
M  V30 2504 O 245.556 -0.826997 -1.59877 0
M  V30 2505 H 241.931 -0.562159 -0.499481 0
M  V30 2506 H 243.902 -2.7043 -1.26135 0
M  V30 2507 C 242.651 -1.95858 -2.87289 0
M  V30 2508 H 241.974 -2.8241 -2.82992 0
M  V30 2509 H 243.414 -2.174 -3.64024 0
M  V30 2510 C 241.873 -0.729848 -3.28899 0
M  V30 2511 O 242.403 0.0949217 -4.01588 0
M  V30 2512 N 240.609 -0.561283 -2.85128 0
M  V30 2513 H 240.156 -1.23357 -2.26143 0
M  V30 2514 H 240.114 0.2595 -3.13327 0
M  V30 2515 N 243.887 0.651787 -1.4349 0
M  V30 2516 C 245.136 1.40754 -1.44469 0
M  V30 2517 C 245.449 1.95463 -0.0731845 0
M  V30 2518 O 246.655 2.71471 0.0395721 0
M  V30 2519 C 245.111 2.54735 -2.5424 0
M  V30 2520 C 244.719 2.06628 -3.97504 0
M  V30 2521 C 246.463 3.32092 -2.64414 0
M  V30 2522 C 244.37 3.17829 -4.98737 0
M  V30 2523 H 243.3 0.528862 -0.53742 0
M  V30 2524 H 245.951 0.703365 -1.69485 0
M  V30 2525 H 244.333 3.2763 -2.22428 0
M  V30 2526 H 245.507 1.40734 -4.38783 0
M  V30 2527 H 243.822 1.42146 -3.91387 0
M  V30 2528 H 246.419 4.14952 -3.37223 0
M  V30 2529 H 246.762 3.80217 -1.69532 0
M  V30 2530 H 247.295 2.66279 -2.95534 0
M  V30 2531 H 244.034 2.74671 -5.95177 0
M  V30 2532 H 243.554 3.82429 -4.62069 0
M  V30 2533 H 245.233 3.82937 -5.21505 0
M  V30 2534 N 245.365 1.30045 0.890287 0
M  V30 2535 C 246.312 1.15976 1.99545 0
M  V30 2536 C 247.282 0.0506202 1.66023 0
M  V30 2537 O 248.467 0.219847 1.89529 0
M  V30 2538 C 245.607 0.852054 3.34416 0
M  V30 2539 C 244.72 2.04255 3.80662 0
M  V30 2540 C 243.855 1.6734 5.04154 0
M  V30 2541 C 242.894 2.82916 5.42794 0
M  V30 2542 N 242.031 2.46333 6.57468 0
M  V30 2543 H 246.871 2.10524 2.10911 0
M  V30 2544 H 244.408 1.04749 1.03276 0
M  V30 2545 H 246.366 0.654296 4.12037 0
M  V30 2546 H 244.996 -0.0565502 3.2275 0
M  V30 2547 H 244.048 2.35172 2.98995 0
M  V30 2548 H 245.36 2.90826 4.05242 0
M  V30 2549 H 244.514 1.43908 5.89386 0
M  V30 2550 H 243.253 0.779308 4.81433 0
M  V30 2551 H 242.258 3.0702 4.56091 0
M  V30 2552 H 243.483 3.73004 5.6749 0
M  V30 2553 H 241.429 1.59423 6.36334 0
M  V30 2554 H 241.346 3.26436 6.81891 0
M  V30 2555 H 242.614 2.26244 7.45945 0
M  V30 2556 N 246.843 -1.10192 1.12674 0
M  V30 2557 C 247.753 -2.20172 0.810026 0
M  V30 2558 C 248.769 -1.72821 -0.202188 0
M  V30 2559 O 249.945 -2.01369 -0.0351691 0
M  V30 2560 C 247.01 -3.45631 0.272007 0
M  V30 2561 C 246.071 -4.07704 1.34447 0
M  V30 2562 C 245.304 -5.27175 0.832029 0
M  V30 2563 O 245.527 -5.69425 -0.333284 0
M  V30 2564 O 244.461 -5.80168 1.60277 0
M  V30 2565 H 248.287 -2.49701 1.72867 0
M  V30 2566 H 245.872 -1.18977 0.903597 0
M  V30 2567 H 247.754 -4.21394 -0.0230219 0
M  V30 2568 H 246.429 -3.17723 -0.619164 0
M  V30 2569 H 245.336 -3.33614 1.6927 0
M  V30 2570 H 246.669 -4.3982 2.2095 0
M  V30 2571 N 248.321 -0.919034 -1.28029 0
M  V30 2572 C 249.269 -0.401753 -2.29104 0
M  V30 2573 C 250.263 0.509354 -1.61561 0
M  V30 2574 O 251.469 0.390014 -1.75724 0
M  V30 2575 H 247.844 -0.111331 -0.743713 0
M  V30 2576 H 249.815 -1.2672 -2.70156 0
M  V30 2577 C 248.564 0.338148 -3.46052 0
M  V30 2578 H 247.887 -0.353732 -3.98232 0
M  V30 2579 H 249.327 0.664653 -4.18758 0
M  V30 2580 C 247.786 1.54798 -2.99231 0
M  V30 2581 O 248.316 2.64696 -3.02157 0
M  V30 2582 N 246.522 1.3968 -2.54829 0
M  V30 2583 H 246.069 0.502698 -2.52647 0
M  V30 2584 H 246.027 2.20755 -2.23863 0
M  V30 2585 N 249.799 1.42003 -0.683588 0
M  V30 2586 C 250.731 2.29183 0.0283068 0
M  V30 2587 C 251.744 1.4415 0.756611 0
M  V30 2588 O 252.933 1.67779 0.609306 0
M  V30 2589 C 250.033 3.21765 1.06398 0
M  V30 2590 C 249.206 4.35496 0.407723 0
M  V30 2591 C 248.265 5.08737 1.34437 0
M  V30 2592 O 247.291 5.62948 0.841318 0
M  V30 2593 N 248.493 5.15075 2.67728 0
M  V30 2594 H 251.258 2.9092 -0.720105 0
M  V30 2595 H 248.819 1.53025 -0.528682 0
M  V30 2596 H 250.811 3.6763 1.69204 0
M  V30 2597 H 249.381 2.61418 1.71404 0
M  V30 2598 H 248.601 3.92165 -0.400012 0
M  V30 2599 H 249.889 5.08776 -0.0490956 0
M  V30 2600 H 249.287 4.72457 3.11129 0
M  V30 2601 H 247.844 5.64556 3.2576 0
M  V30 2602 N 251.277 0.427512 1.51691 0
M  V30 2603 C 252.507 -0.140986 2.06118 0
M  V30 2604 C 252.915 -1.37854 1.29588 0
M  V30 2605 O 252.258 -1.80411 0.346036 0
M  V30 2606 C 252.32 -0.538276 3.55447 0
M  V30 2607 C 251.984 0.591095 4.53161 0
M  V30 2608 C 252.981 1.46027 4.98971 0
M  V30 2609 C 250.666 0.769028 4.96378 0
M  V30 2610 C 252.66 2.49216 5.8666 0
M  V30 2611 C 250.347 1.80421 5.83859 0
M  V30 2612 C 251.345 2.66417 6.28897 0
M  V30 2613 O 251.033 3.68159 7.14643 0
M  V30 2614 H 250.765 -0.0157455 0.675817 0
M  V30 2615 H 253.319 0.602495 1.96365 0
M  V30 2616 H 251.549 -1.33432 3.6295 0
M  V30 2617 H 253.238 -1.0368 3.92435 0
M  V30 2618 H 254.004 1.33429 4.66285 0
M  V30 2619 H 249.883 0.109273 4.6087 0
M  V30 2620 H 253.427 3.16372 6.21735 0
M  V30 2621 H 249.324 1.93042 6.15959 0
M  V30 2622 H 250.092 3.64622 7.32798 0
M  V30 2623 N 252.755 -1.56801 0.158532 0
M  V30 2624 C 254.004 -1.95665 -0.489702 0
M  V30 2625 C 254.317 -1.04654 -1.65248 0
M  V30 2626 O 255.523 -1.33146 -2.3661 0
M  V30 2627 C 253.979 -3.47874 -0.922582 0
M  V30 2628 C 253.587 -4.47489 0.213893 0
M  V30 2629 C 255.331 -3.95583 -1.53996 0
M  V30 2630 C 253.238 -5.90921 -0.237903 0
M  V30 2631 H 252.168 -0.730516 -0.186716 0
M  V30 2632 H 254.819 -1.81861 0.244722 0
M  V30 2633 H 253.201 -3.57051 -1.71261 0
M  V30 2634 H 254.375 -4.50017 0.991036 0
M  V30 2635 H 252.69 -4.09764 0.740407 0
M  V30 2636 H 255.287 -5.0019 -1.8898 0
M  V30 2637 H 255.63 -3.37789 -2.43319 0
M  V30 2638 H 256.163 -3.8937 -0.814611 0
M  V30 2639 H 252.902 -6.52559 0.620236 0
M  V30 2640 H 252.422 -5.91729 -0.980676 0
M  V30 2641 H 254.101 -6.43352 -0.686067 0
M  V30 2642 N 254.233 0.115231 -1.57178 0
M  V30 2643 C 255.18 1.14115 -2.00615 0
M  V30 2644 C 256.15 1.40939 -0.878941 0
M  V30 2645 O 257.335 1.52741 -1.14345 0
M  V30 2646 C 254.475 2.46156 -2.4187 0
M  V30 2647 C 253.588 2.26236 -3.68024 0
M  V30 2648 C 252.723 3.51534 -3.98243 0
M  V30 2649 C 251.762 3.26787 -5.17568 0
M  V30 2650 N 250.899 4.44298 -5.43639 0
M  V30 2651 H 255.739 0.763743 -2.88047 0
M  V30 2652 H 253.276 0.365615 -1.42484 0
M  V30 2653 H 255.234 3.23189 -2.63827 0
M  V30 2654 H 253.864 2.81783 -1.57475 0
M  V30 2655 H 252.916 1.40102 -3.5366 0
M  V30 2656 H 254.228 2.03929 -4.55208 0
M  V30 2657 H 253.382 4.36984 -4.20868 0
M  V30 2658 H 252.121 3.76876 -3.09541 0
M  V30 2659 H 251.126 2.39729 -4.94783 0
M  V30 2660 H 252.351 3.02812 -6.0785 0
M  V30 2661 H 250.297 4.69754 -4.57895 0
M  V30 2662 H 250.214 4.25109 -6.25154 0
M  V30 2663 H 251.482 5.3087 -5.70786 0
M  V30 2664 N 255.711 1.52812 0.385517 0
M  V30 2665 C 256.96 1.67249 1.12741 0
M  V30 2666 C 257.273 0.4205 1.91027 0
M  V30 2667 O 258.479 0.445064 2.67827 0
M  V30 2668 C 256.935 2.95583 2.05326 0
M  V30 2669 C 256.543 4.27974 1.32447 0
M  V30 2670 C 258.287 3.19386 2.7963 0
M  V30 2671 C 256.194 5.47412 2.23818 0
M  V30 2672 H 255.124 0.6231 0.424573 0
M  V30 2673 H 257.775 1.79309 0.389924 0
M  V30 2674 H 256.157 2.77277 2.82725 0
M  V30 2675 H 257.331 4.56844 0.602495 0
M  V30 2676 H 255.646 4.10459 0.700885 0
M  V30 2677 H 258.243 4.05801 3.48181 0
M  V30 2678 H 258.586 2.34604 3.43899 0
M  V30 2679 H 259.119 3.38274 2.09322 0
M  V30 2680 H 255.858 6.34612 1.64157 0
M  V30 2681 H 255.378 5.22849 2.93921 0
M  V30 2682 H 257.057 5.81423 2.83824 0
M  V30 2683 N 257.189 -0.644168 1.43834 0
M  V30 2684 C 258.466 -1.40188 1.36406 0
M  V30 2685 C 258.846 -2.11094 0.0163124 0
M  V30 2686 O 258.194 -2.05426 -1.00062 0
M  V30 2687 C 258.404 -2.3791 2.55343 0
M  V30 2688 C 259.752 -3.01637 2.98832 0
M  V30 2689 O 260.776 -2.48237 2.55455 0
M  V30 2690 O 259.635 -3.98477 3.74003 0
M  V30 2691 H 256.729 -0.626773 0.539523 0
M  V30 2692 H 259.275 -0.670317 1.559 0
M  V30 2693 H 258.047 -1.84525 3.4506 0
M  V30 2694 H 257.67 -3.18503 2.37995 0
M  V30 2695 N 258.668 -1.30515 -0.883378 0
M  V30 2696 C 259.896 -1.22359 -1.66841 0
M  V30 2697 C 260.311 0.213296 -1.87591 0
M  V30 2698 O 259.668 1.14075 -1.42454 0
M  V30 2699 C 259.719 -1.95011 -3.04389 0
M  V30 2700 O 259.44 -3.3309 -2.84575 0
M  V30 2701 C 260.941 -1.93532 -3.98824 0
M  V30 2702 H 258.161 -0.423371 -0.520575 0
M  V30 2703 H 260.705 -1.72167 -1.10357 0
M  V30 2704 H 258.86 -1.48997 -3.57601 0
M  V30 2705 H 259.274 -3.69907 -3.71846 0
M  V30 2706 H 260.748 -2.48902 -4.92699 0
M  V30 2707 H 261.225 -0.914627 -4.29571 0
M  V30 2708 H 261.831 -2.39364 -3.51547 0
M  V30 2709 N 260.146 1.09593 -1.13257 0
M  V30 2710 C 261.395 1.81105 -0.887917 0
M  V30 2711 C 261.708 1.86563 0.587672 0
M  V30 2712 O 262.914 2.54367 0.949204 0
M  V30 2713 C 261.37 3.25338 -1.53895 0
M  V30 2714 C 260.978 3.28151 -3.04994 0
M  V30 2715 C 262.722 4.01617 -1.37492 0
M  V30 2716 C 260.629 4.66897 -3.6299 0
M  V30 2717 H 259.559 0.678661 -0.328534 0
M  V30 2718 H 262.21 1.23183 -1.36008 0
M  V30 2719 H 260.592 3.8331 -0.994446 0
M  V30 2720 H 261.766 2.79953 -3.66009 0
M  V30 2721 H 260.081 2.65361 -3.20893 0
M  V30 2722 H 262.678 5.04119 -1.78235 0
M  V30 2723 H 263.021 4.15072 -0.31957 0
M  V30 2724 H 263.554 3.50082 -1.88912 0
M  V30 2725 H 260.293 4.58643 -4.68323 0
M  V30 2726 H 259.813 5.15426 -3.06752 0
M  V30 2727 H 261.492 5.3587 -3.62563 0
M  V30 2728 N 261.624 0.925811 1.2754 0
M  V30 2729 C 262.587 0.428129 2.25166 0
M  V30 2730 C 263.587 -0.452261 1.54309 0
M  V30 2731 O 264.777 -0.253608 1.72344 0
M  V30 2732 C 261.909 -0.384749 3.38722 0
M  V30 2733 H 263.102 1.29066 2.70706 0
M  V30 2734 H 260.655 0.706323 1.3943 0
M  V30 2735 H 261.39 -1.26618 2.98561 0
M  V30 2736 H 261.175 0.246454 3.91325 0
M  V30 2737 H 262.665 -0.723389 4.11287 0
M  V30 2738 N 263.102 -1.41638 0.69111 0
M  V30 2739 C 264.065 -2.29178 0.0319786 0
M  V30 2740 C 265.065 -1.44153 -0.712496 0
M  V30 2741 O 266.255 -1.65354 -0.548053 0
M  V30 2742 C 263.387 -3.26952 -0.965161 0
M  V30 2743 H 264.58 -2.88959 0.802681 0
M  V30 2744 H 262.133 -1.4955 0.454356 0
M  V30 2745 H 262.868 -2.72142 -1.76378 0
M  V30 2746 H 262.653 -3.89685 -0.434522 0
M  V30 2747 H 264.143 -3.92561 -1.42428 0
M  V30 2748 N 264.58 -0.43555 -1.51462 0
M  V30 2749 C 265.857 0.191364 -1.94662 0
M  V30 2750 C 266.237 1.60254 -1.37411 0
M  V30 2751 O 265.585 2.2152 -0.560458 0
M  V30 2752 C 265.795 0.17091 -3.48581 0
M  V30 2753 C 267.143 0.377357 -4.2292 0
M  V30 2754 O 268.167 0.249104 -3.55328 0
M  V30 2755 O 267.026 0.63247 -5.42828 0
M  V30 2756 H 264.12 0.130932 -0.816569 0
M  V30 2757 H 266.666 -0.4934 -1.62369 0
M  V30 2758 H 265.438 -0.815738 -3.82703 0
M  V30 2759 H 265.061 0.898659 -3.87311 0
M  V30 2760 N 266.058 1.56714 -0.166846 0
M  V30 2761 C 266.968 2.21331 0.777791 0
M  V30 2762 C 267.984 1.20358 1.25658 0
M  V30 2763 O 269.16 1.53005 1.30964 0
M  V30 2764 C 266.225 2.83787 1.99163 0
M  V30 2765 C 265.286 3.99947 1.56016 0
M  V30 2766 C 264.519 4.59415 2.71613 0
M  V30 2767 O 264.742 4.17769 3.88362 0
M  V30 2768 O 263.676 5.49359 2.45945 0
M  V30 2769 H 267.502 3.02605 0.257636 0
M  V30 2770 H 265.087 1.49275 0.0611393 0
M  V30 2771 H 266.969 3.23405 2.70161 0
M  V30 2772 H 265.644 2.05513 2.50092 0
M  V30 2773 H 264.551 3.65007 0.819809 0
M  V30 2774 H 265.884 4.79801 1.09782 0
M  V30 2775 N 267.536 -0.106894 1.57237 0
M  V30 2776 C 268.761 -0.830287 1.90055 0
M  V30 2777 C 269.186 -1.72064 0.75998 0
M  V30 2778 O 268.544 -1.78982 -0.288991 0
M  V30 2779 C 268.592 -1.6295 3.21683 0
M  V30 2780 O 267.696 -2.73748 3.08441 0
M  V30 2781 H 267.037 -0.228855 0.623315 0
M  V30 2782 H 269.567 -0.085658 2.04421 0
M  V30 2783 H 269.577 -2.01621 3.54701 0
M  V30 2784 H 268.252 -0.975989 4.04286 0
M  V30 2785 H 266.829 -2.38192 2.86913 0
M  V30 2786 N 269.014 -1.53014 -0.377408 0
M  V30 2787 C 270.261 -1.68623 -1.12128 0
M  V30 2788 C 270.589 -0.431997 -1.89642 0
M  V30 2789 O 269.844 0.585855 -1.86725 0
M  V30 2790 C 270.143 -2.87982 -2.11663 0
M  V30 2791 C 269.809 -4.24964 -1.50719 0
M  V30 2792 C 268.471 -4.62217 -1.33825 0
M  V30 2793 C 270.823 -5.10199 -1.06519 0
M  V30 2794 C 268.151 -5.82352 -0.712963 0
M  V30 2795 C 270.503 -6.30969 -0.453955 0
M  V30 2796 C 269.167 -6.66944 -0.272411 0
M  V30 2797 H 268.437 -0.617034 -0.410305 0
M  V30 2798 H 271.084 -1.8718 -0.404484 0
M  V30 2799 H 269.389 -2.63889 -2.89603 0
M  V30 2800 H 271.086 -2.97253 -2.6915 0
M  V30 2801 H 267.676 -3.95626 -1.64858 0
M  V30 2802 H 271.86 -4.81978 -1.18368 0
M  V30 2803 H 267.116 -6.08824 -0.560611 0
M  V30 2804 H 271.29 -6.96324 -0.103217 0
M  V30 2805 H 268.917 -7.59898 0.214181 0
M  V30 2806 N 270.492 0.636531 -1.44174 0
M  V30 2807 C 271.72 1.42353 -1.50144 0
M  V30 2808 C 272.135 1.88389 -0.124575 0
M  V30 2809 O 271.492 1.6051 0.868489 0
M  V30 2810 C 271.543 2.64744 -2.46156 0
M  V30 2811 O 271.264 2.20629 -3.7849 0
M  V30 2812 C 272.765 3.57929 -2.61537 0
M  V30 2813 H 269.985 0.436752 -0.5094 0
M  V30 2814 H 272.529 0.778933 -1.89084 0
M  V30 2815 H 270.684 3.25307 -2.10366 0
M  V30 2816 H 271.098 2.99938 -4.30276 0
M  V30 2817 H 272.572 4.40428 -3.32757 0
M  V30 2818 H 273.049 4.06382 -1.66585 0
M  V30 2819 H 273.655 3.03238 -2.98206 0
M  V30 2820 N 271.97 1.30982 0.876444 0
M  V30 2821 C 272.88 1.2003 2.01569 0
M  V30 2822 C 273.896 0.11838 1.73597 0
M  V30 2823 O 275.072 0.33495 1.98595 0
M  V30 2824 C 272.137 0.901637 3.34771 0
M  V30 2825 C 271.198 2.06979 3.76109 0
M  V30 2826 C 270.431 1.78529 5.02954 0
M  V30 2827 O 270.654 0.717296 5.65872 0
M  V30 2828 O 269.588 2.64019 5.40905 0
M  V30 2829 H 273.414 2.15753 2.13739 0
M  V30 2830 H 270.999 1.10658 1.00375 0
M  V30 2831 H 272.881 0.750645 4.1466 0
M  V30 2832 H 271.556 -0.0256141 3.2369 0
M  V30 2833 H 270.463 2.27616 2.96887 0
M  V30 2834 H 271.796 2.97907 3.91807 0
M  V30 2835 N 273.449 -1.08991 1.13837 0
M  V30 2836 C 274.379 -2.17771 0.842507 0
M  V30 2837 C 275.36 -1.6892 -0.20001 0
M  V30 2838 O 276.545 -1.94113 -0.0579731 0
M  V30 2839 C 273.675 -3.4589 0.312644 0
M  V30 2840 C 272.629 -4.08099 1.28992 0
M  V30 2841 C 271.955 -5.31098 0.619623 0
M  V30 2842 C 273.255 -4.50077 2.65005 0
M  V30 2843 H 274.949 -2.42777 1.75213 0
M  V30 2844 H 272.495 -1.16682 0.843875 0
M  V30 2845 H 274.448 -4.21297 0.0933043 0
M  V30 2846 H 273.172 -3.20419 -0.632382 0
M  V30 2847 H 271.831 -3.34717 1.49533 0
M  V30 2848 H 271.479 -5.0191 -0.33102 0
M  V30 2849 H 271.179 -5.73674 1.27167 0
M  V30 2850 H 272.703 -6.09224 0.409669 0
M  V30 2851 H 274.117 -5.16688 2.48407 0
M  V30 2852 H 272.514 -5.03553 3.26427 0
M  V30 2853 H 273.584 -3.62257 3.22332 0
M  V30 2854 N 274.927 -0.932562 -1.27047 0
M  V30 2855 C 276.204 -0.49377 -1.89265 0
M  V30 2856 C 276.584 1.02833 -1.8436 0
M  V30 2857 O 275.932 1.88461 -1.29209 0
M  V30 2858 C 276.142 -1.04536 -3.32976 0
M  V30 2859 C 277.49 -1.10879 -4.09867 0
M  V30 2860 O 278.514 -0.995327 -3.42011 0
M  V30 2861 O 277.373 -1.28417 -5.31198 0
M  V30 2862 H 274.467 -0.159596 -0.811454 0
M  V30 2863 H 277.013 -1.02457 -1.3528 0
M  V30 2864 H 275.785 -2.08913 -3.30864 0
M  V30 2865 H 275.408 -0.496494 -3.94488 0
M  V30 2866 N 276.405 1.4127 -0.698611 0
M  V30 2867 C 277.335 2.33447 -0.049629 0
M  V30 2868 C 278.316 1.51982 0.763898 0
M  V30 2869 O 279.501 1.80509 0.716257 0
M  V30 2870 C 276.631 3.35828 0.885267 0
M  V30 2871 C 275.585 4.27627 0.178613 0
M  V30 2872 C 274.911 5.20406 1.22807 0
M  V30 2873 C 276.211 5.13459 -0.956933 0
M  V30 2874 H 277.905 2.87966 -0.81951 0
M  V30 2875 H 275.451 1.38461 -0.395538 0
M  V30 2876 H 277.404 3.9924 1.34854 0
M  V30 2877 H 276.128 2.79666 1.68685 0
M  V30 2878 H 274.787 3.65643 -0.26466 0
M  V30 2879 H 274.435 4.60558 2.02226 0
M  V30 2880 H 274.135 5.82661 0.760239 0
M  V30 2881 H 275.659 5.86695 1.69179 0
M  V30 2882 H 277.073 5.70421 -0.573805 0
M  V30 2883 H 275.47 5.8467 -1.35205 0
M  V30 2884 H 276.54 4.50443 -1.79524 0
M  V30 2885 N 277.883 0.443576 1.51229 0
M  V30 2886 C 279.131 -0.120557 2.0174 0
M  V30 2887 C 279.452 -1.42665 1.32935 0
M  V30 2888 O 278.722 -1.9028 0.465866 0
M  V30 2889 H 277.302 -0.0475426 0.745486 0
M  V30 2890 H 279.964 0.587711 1.85828 0
M  V30 2891 H 279.06 -0.291972 3.10731 0
M  V30 2892 N 279.361 -1.56624 0.175154 0
M  V30 2893 C 280.638 -1.88688 -0.515373 0
M  V30 2894 C 281.018 -1.08564 -1.81044 0
M  V30 2895 O 280.366 -0.180703 -2.27784 0
M  V30 2896 C 280.576 -3.40768 -0.753552 0
M  V30 2897 C 281.924 -4.10587 -1.08184 0
M  V30 2898 O 282.948 -3.46106 -0.841961 0
M  V30 2899 O 281.807 -5.24512 -1.53459 0
M  V30 2900 H 278.901 -0.78301 -0.26613 0
M  V30 2901 H 281.447 -1.68347 0.213877 0
M  V30 2902 H 280.219 -3.90965 0.161829 0
M  V30 2903 H 279.842 -3.66733 -1.53598 0
M  V30 2904 N 280.839 0.0985539 -1.57292 0
M  V30 2905 C 282.255 0.45267 -1.53046 0
M  V30 2906 C 282.455 1.80713 -0.891342 0
M  V30 2907 O 281.511 2.4785 -0.482375 0
M  V30 2908 C 282.824 0.418341 -2.97776 0
M  V30 2909 C 284.372 0.500443 -3.08973 0
M  V30 2910 C 284.847 0.496297 -4.55303 0
M  V30 2911 N 286.338 0.557151 -4.59837 0
M  V30 2912 C 287.073 0.575726 -5.70502 0
M  V30 2913 N 286.569 0.550714 -6.90608 0
M  V30 2914 N 288.362 0.620277 -5.58667 0
M  V30 2915 H 280.513 -0.788673 -1.97215 0
M  V30 2916 H 282.776 -0.293188 -0.901524 0
M  V30 2917 H 282.482 -0.509659 -3.47988 0
M  V30 2918 H 282.356 1.2386 -3.56284 0
M  V30 2919 H 284.743 1.41886 -2.58751 0
M  V30 2920 H 284.824 -0.347894 -2.53423 0
M  V30 2921 H 284.468 -0.418162 -5.06176 0
M  V30 2922 H 284.398 1.3618 -5.08687 0
M  V30 2923 H 286.889 0.581816 -3.73394 0
M  V30 2924 H 287.202 0.568075 -7.70709 0
M  V30 2925 H 285.547 0.517816 -6.93068 0
M  V30 2926 H 288.738 0.637322 -4.63741 0
M  V30 2927 H 288.911 0.631283 -6.44918 0
M  V30 2928 N 282.317 1.53212 0.369288 0
M  V30 2929 C 283.563 1.69466 1.11397 0
M  V30 2930 C 283.896 0.443257 1.89074 0
M  V30 2931 O 283.171 -0.559386 1.86282 0
M  V30 2932 C 283.454 2.9422 2.07621 0
M  V30 2933 C 283.307 4.29508 1.33577 0
M  V30 2934 C 284.626 3.14565 3.07794 0
M  V30 2935 H 281.745 0.616667 0.403597 0
M  V30 2936 H 284.387 1.85845 0.395179 0
M  V30 2937 H 282.537 2.80387 2.68916 0
M  V30 2938 H 284.209 4.55147 0.750955 0
M  V30 2939 H 282.452 4.29088 0.637618 0
M  V30 2940 H 283.123 5.12926 2.03989 0
M  V30 2941 H 285.599 3.2756 2.56601 0
M  V30 2942 H 284.475 4.03297 3.72348 0
M  V30 2943 H 284.736 2.29675 3.77759 0
M  V30 2944 N 283.795 -0.628877 1.44509 0
M  V30 2945 C 284.728 -1.75367 1.46019 0
M  V30 2946 C 285.706 -1.59444 0.318787 0
M  V30 2947 O 286.89 -1.81297 0.516099 0
M  V30 2948 C 284.017 -3.12965 1.29501 0
M  V30 2949 C 283.063 -3.47532 2.47233 0
M  V30 2950 S 283.896 -3.44758 4.09758 0
M  V30 2951 C 285.052 -4.84973 3.95667 0
M  V30 2952 H 285.285 -1.7382 2.41193 0
M  V30 2953 H 282.818 -0.803686 1.31834 0
M  V30 2954 H 284.776 -3.92367 1.20658 0
M  V30 2955 H 283.437 -3.12049 0.358341 0
M  V30 2956 H 282.63 -4.47664 2.31544 0
M  V30 2957 H 282.232 -2.75598 2.52828 0
M  V30 2958 H 284.524 -5.74255 3.59496 0
M  V30 2959 H 285.467 -5.05716 4.95638 0
M  V30 2960 H 285.875 -4.59653 3.27688 0
M  V30 2961 N 285.273 -1.31445 -0.869486 0
M  V30 2962 C 286.22 -1.19135 -1.97675 0
M  V30 2963 C 287.19 -0.0770266 -1.65921 0
M  V30 2964 O 288.375 -0.249972 -1.89155 0
M  V30 2965 C 285.515 -0.905149 -3.33018 0
M  V30 2966 C 284.628 -2.10285 -3.77365 0
M  V30 2967 C 283.763 -1.75339 -5.01427 0
M  V30 2968 C 282.802 -2.91515 -5.38224 0
M  V30 2969 N 281.939 -2.56762 -6.53466 0
M  V30 2970 H 286.779 -2.13853 -2.07535 0
M  V30 2971 H 284.316 -1.06379 -1.01597 0
M  V30 2972 H 286.274 -0.719765 -4.10944 0
M  V30 2973 H 284.904 0.00519624 -3.228 0
M  V30 2974 H 283.956 -2.39899 -2.95216 0
M  V30 2975 H 285.268 -2.97237 -4.00564 0
M  V30 2976 H 284.422 -1.53266 -5.87022 0
M  V30 2977 H 283.161 -0.855801 -4.80133 0
M  V30 2978 H 282.166 -3.14237 -4.51149 0
M  V30 2979 H 283.391 -3.81985 -5.61484 0
M  V30 2980 H 281.337 -1.69526 -6.33717 0
M  V30 2981 H 281.254 -3.37243 -6.76612 0
M  V30 2982 H 282.522 -2.38083 -7.42251 0
M  V30 2983 N 286.751 1.08385 -1.14413 0
M  V30 2984 C 287.681 2.17321 -0.854044 0
M  V30 2985 C 288.662 1.69024 0.191049 0
M  V30 2986 O 289.847 1.94141 0.0476779 0
M  V30 2987 C 286.977 3.45719 -0.330983 0
M  V30 2988 C 285.931 4.07409 -1.31155 0
M  V30 2989 C 285.257 5.30762 -0.64778 0
M  V30 2990 C 286.557 4.48665 -2.67388 0
M  V30 2991 H 288.251 2.41845 -1.76498 0
M  V30 2992 H 285.797 1.16233 -0.850051 0
M  V30 2993 H 287.75 4.21241 -0.115645 0
M  V30 2994 H 286.474 3.2075 0.615381 0
M  V30 2995 H 285.133 3.33919 -1.51306 0
M  V30 2996 H 284.781 5.02078 0.304398 0
M  V30 2997 H 284.481 5.72992 -1.30207 0
M  V30 2998 H 286.005 6.08998 -0.441972 0
M  V30 2999 H 287.419 5.15364 -2.51143 0
M  V30 3000 H 285.816 5.01814 -3.29093 0
M  V30 3001 H 286.886 3.60543 -3.24248 0
M  V30 3002 N 288.23 0.939286 1.26551 0
M  V30 3003 C 289.178 0.43815 2.28436 0
M  V30 3004 C 290.172 -0.483587 1.62351 0
M  V30 3005 O 291.378 -0.362009 1.76322 0
M  V30 3006 H 287.753 0.123149 0.741848 0
M  V30 3007 H 289.724 1.31002 2.68106 0
M  V30 3008 C 288.473 -0.283052 3.46546 0
M  V30 3009 H 287.796 0.417043 3.97619 0
M  V30 3010 H 289.236 -0.597948 4.19763 0
M  V30 3011 C 287.695 -1.50018 3.01656 0
M  V30 3012 O 288.225 -2.59855 3.0633 0
M  V30 3013 N 286.431 -1.35608 2.57019 0
M  V30 3014 H 285.978 -0.46244 2.53415 0
M  V30 3015 H 285.936 -2.17165 2.27347 0
M  V30 3016 N 289.708 -1.40897 0.706093 0
M  V30 3017 C 290.936 -2.05373 0.250887 0
M  V30 3018 C 291.351 -1.53172 -1.10381 0
M  V30 3019 O 290.708 -0.684305 -1.69185 0
M  V30 3020 C 290.759 -3.6088 0.211571 0
M  V30 3021 O 290.48 -4.11153 1.51276 0
M  V30 3022 C 291.981 -4.42517 -0.263346 0
M  V30 3023 H 289.201 -0.66115 0.114552 0
M  V30 3024 H 291.745 -1.80479 0.961635 0
M  V30 3025 H 289.9 -3.84777 -0.450073 0
M  V30 3026 H 290.314 -5.05279 1.40689 0
M  V30 3027 H 291.788 -5.51479 -0.239718 0
M  V30 3028 H 292.265 -4.19396 -1.30397 0
M  V30 3029 H 292.871 -4.23708 0.367677 0
M  V30 3030 N 291.186 -0.45159 -1.50991 0
M  V30 3031 C 292.096 0.358431 -2.31846 0
M  V30 3032 C 293.112 1.01438 -1.41373 0
M  V30 3033 O 294.288 1.00663 -1.74439 0
M  V30 3034 C 291.353 1.43704 -3.15515 0
M  V30 3035 C 290.414 0.799742 -4.21785 0
M  V30 3036 C 289.647 1.82696 -5.01456 0
M  V30 3037 O 289.87 3.05105 -4.81941 0
M  V30 3038 O 288.804 1.40958 -5.85162 0
M  V30 3039 H 292.63 -0.302032 -3.02194 0
M  V30 3040 H 290.215 -0.213825 -1.47862 0
M  V30 3041 H 292.097 2.06227 -3.67489 0
M  V30 3042 H 290.772 2.08133 -2.47916 0
M  V30 3043 H 289.679 0.136084 -3.73852 0
M  V30 3044 H 291.012 0.198718 -4.91799 0
M  V30 3045 N 292.664 1.56529 -0.183458 0
M  V30 3046 C 293.91 1.97537 0.459036 0
M  V30 3047 C 294.243 1.06989 1.62071 0
M  V30 3048 O 293.518 0.11948 1.94133 0
M  V30 3049 C 293.801 3.47874 0.930368 0
M  V30 3050 C 293.654 4.492 -0.232317 0
M  V30 3051 C 294.973 4.01612 1.79989 0
M  V30 3052 H 292.092 0.718204 0.165383 0
M  V30 3053 H 294.734 1.88042 -0.272038 0
M  V30 3054 H 292.884 3.56095 1.55333 0
M  V30 3055 H 294.556 4.53027 -0.86972 0
M  V30 3056 H 292.799 4.24657 -0.885928 0
M  V30 3057 H 293.47 5.51823 0.139796 0
M  V30 3058 H 295.946 3.96097 1.27461 0
M  V30 3059 H 294.822 5.07195 2.09867 0
M  V30 3060 H 295.083 3.46163 2.74998 0
M  V30 3061 N 294.142 -0.090211 1.57342 0
M  V30 3062 C 295.558 -0.444547 1.53284 0
M  V30 3063 C 295.758 -1.80238 0.900914 0
M  V30 3064 O 294.814 -2.4759 0.495513 0
M  V30 3065 C 296.127 -0.402543 2.97993 0
M  V30 3066 C 297.675 -0.48405 3.09234 0
M  V30 3067 C 298.15 -0.472144 4.5556 0
M  V30 3068 N 299.641 -0.532757 4.60126 0
M  V30 3069 C 300.376 -0.545462 5.708 0
M  V30 3070 N 299.872 -0.514082 6.9089 0
M  V30 3071 N 301.665 -0.59064 5.58988 0
M  V30 3072 H 293.816 0.799121 1.96794 0
M  V30 3073 H 296.079 0.297965 0.899956 0
M  V30 3074 H 295.785 0.528106 3.47712 0
M  V30 3075 H 295.659 -1.21969 3.56936 0
M  V30 3076 H 298.046 -1.40512 2.595 0
M  V30 3077 H 298.127 0.361328 2.53235 0
M  V30 3078 H 297.771 0.445 5.05947 0
M  V30 3079 H 297.701 -1.3348 5.09402 0
M  V30 3080 H 300.192 -0.562006 3.73698 0
M  V30 3081 H 300.505 -0.527195 7.71 0
M  V30 3082 H 298.85 -0.481054 6.93333 0
M  V30 3083 H 302.041 -0.61272 4.64073 0
M  V30 3084 H 302.214 -0.597073 6.45243 0
M  V30 3085 N 295.62 -1.53406 -0.361157 0
M  V30 3086 C 296.897 -1.60411 -1.11927 0
M  V30 3087 C 297.277 -0.414385 -2.06993 0
M  V30 3088 O 296.625 0.594976 -2.20618 0
M  V30 3089 C 296.835 -2.95652 -1.85448 0
M  V30 3090 C 298.183 -3.50386 -2.39823 0
M  V30 3091 O 299.207 -2.97711 -1.95568 0
M  V30 3092 O 298.066 -4.42482 -3.20737 0
M  V30 3093 H 295.16 -0.64811 -0.513695 0
M  V30 3094 H 297.706 -1.65749 -0.364065 0
M  V30 3095 H 296.478 -3.73682 -1.16091 0
M  V30 3096 H 296.101 -2.93825 -2.67866 0
M  V30 3097 N 297.098 0.621204 -1.44841 0
M  V30 3098 C 298.344 1.3826 -1.48365 0
M  V30 3099 C 298.677 1.93831 -0.119624 0
M  V30 3100 O 297.952 1.74251 0.864111 0
M  V30 3101 C 298.235 2.54058 -2.55199 0
M  V30 3102 C 298.088 2.03772 -4.00995 0
M  V30 3103 C 299.407 3.56225 -2.58442 0
M  V30 3104 H 296.526 0.501374 -0.540179 0
M  V30 3105 H 299.168 0.7015 -1.76576 0
M  V30 3106 H 297.318 3.12162 -2.31274 0
M  V30 3107 H 298.99 1.50423 -4.36086 0
M  V30 3108 H 297.233 1.34876 -4.12299 0
M  V30 3109 H 297.904 2.87185 -4.71411 0
M  V30 3110 H 300.38 3.07939 -2.79844 0
M  V30 3111 H 299.256 4.34756 -3.3508 0
M  V30 3112 H 299.517 4.10949 -1.63013 0
M  V30 3113 N 298.576 1.31904 0.862503 0
M  V30 3114 C 299.824 1.21776 1.61292 0
M  V30 3115 C 300.145 -0.222413 1.93727 0
M  V30 3116 O 299.415 -1.1451 1.58947 0
M  V30 3117 H 297.995 0.447717 0.597962 0
M  V30 3118 H 300.657 1.65326 1.03215 0
M  V30 3119 H 299.753 1.7948 2.5533 0
M  V30 3120 N 300.054 -1.07777 1.14986 0
M  V30 3121 C 301.465 -1.61766 0.932127 0
M  V30 3122 C 301.816 -1.88974 -0.527581 0
M  V30 3123 O 300.941 -1.65198 -1.39781 0
M  V30 3124 C 301.536 -2.93891 1.68563 0
M  V30 3125 C 300.095 -3.44639 1.5133 0
M  V30 3126 C 299.242 -2.18767 1.704 0
M  V30 3127 H 302.193 -0.909201 1.30074 0
M  V30 3128 H 302.214 -3.62623 1.15259 0
M  V30 3129 H 301.726 -2.74057 2.74799 0
M  V30 3130 H 299.827 -3.69564 0.474702 0
M  V30 3131 H 299.94 -4.20966 2.28746 0
M  V30 3132 H 298.304 -2.28253 1.13016 0
M  V30 3133 H 299.087 -2.01433 2.77992 0
M  V30 3134 N 301.532 -0.945985 -1.26051 0
M  V30 3135 C 302.462 -0.477172 -2.28572 0
M  V30 3136 C 303.443 0.472032 -1.63419 0
M  V30 3137 O 304.628 0.372853 -1.90587 0
M  V30 3138 C 301.758 0.253975 -3.4637 0
M  V30 3139 C 300.712 -0.609135 -4.23643 0
M  V30 3140 C 300.038 0.252252 -5.34105 0
M  V30 3141 C 301.338 -1.8829 -4.8718 0
M  V30 3142 H 303.032 -1.33402 -2.68038 0
M  V30 3143 H 300.578 -0.642904 -1.28852 0
M  V30 3144 H 302.531 0.593016 -4.17207 0
M  V30 3145 H 301.255 1.145 -3.05871 0
M  V30 3146 H 299.914 -0.931138 -3.54578 0
M  V30 3147 H 299.562 1.14278 -4.89846 0
M  V30 3148 H 299.262 -0.32188 -5.86718 0
M  V30 3149 H 300.786 0.586454 -6.07777 0
M  V30 3150 H 302.2 -1.61081 -5.50205 0
M  V30 3151 H 300.597 -2.40199 -5.49931 0
M  V30 3152 H 301.667 -2.59134 -4.09851 0
M  V30 3153 N 303.011 1.40521 -0.713556 0
M  V30 3154 C 304.236 2.05759 -0.26035 0
M  V30 3155 C 304.661 1.53403 1.08854 0
M  V30 3156 O 304.019 0.668535 1.68524 0
M  V30 3157 C 304.067 3.59745 -0.248122 0
M  V30 3158 O 303.171 4.05123 0.77131 0
M  V30 3159 H 302.512 0.652564 -0.122703 0
M  V30 3160 H 305.042 1.79958 -0.973467 0
M  V30 3161 H 305.052 4.07911 -0.0851129 0
M  V30 3162 H 303.727 3.97218 -1.2325 0
M  V30 3163 H 302.304 3.68422 0.57619 0
M  V30 3164 N 304.489 0.459591 1.5075 0
M  V30 3165 C 305.436 -0.340524 2.28274 0
M  V30 3166 C 306.406 -0.997371 1.32822 0
M  V30 3167 O 307.591 -1.01202 1.61749 0
M  V30 3168 C 304.731 -1.42317 3.14388 0
M  V30 3169 C 303.844 -0.782251 4.24859 0
M  V30 3170 C 302.979 -1.84182 4.98247 0
M  V30 3171 C 302.018 -1.18053 6.00608 0
M  V30 3172 N 301.155 -2.18244 6.67319 0
M  V30 3173 H 305.995 0.326899 2.96202 0
M  V30 3174 H 303.532 0.173057 1.46078 0
M  V30 3175 H 305.49 -2.06241 3.62658 0
M  V30 3176 H 304.12 -2.05992 2.4853 0
M  V30 3177 H 303.172 -0.0307404 3.80388 0
M  V30 3178 H 304.484 -0.259663 4.98124 0
M  V30 3179 H 303.638 -2.55714 5.50177 0
M  V30 3180 H 302.377 -2.39819 4.24662 0
M  V30 3181 H 301.382 -0.450776 5.47949 0
M  V30 3182 H 302.607 -0.631202 6.7616 0
M  V30 3183 H 300.553 -2.72919 5.96533 0
M  V30 3184 H 300.47 -1.70938 7.36421 0
M  V30 3185 H 301.738 -2.89191 7.23871 0
M  V30 3186 N 305.967 -1.56429 0.191757 0
M  V30 3187 C 306.914 -2.18936 -0.730454 0
M  V30 3188 C 307.884 -1.13557 -1.21219 0
M  V30 3189 O 309.069 -1.41794 -1.27668 0
M  V30 3190 C 306.209 -2.85013 -1.9458 0
M  V30 3191 C 305.322 -4.04909 -1.50574 0
M  V30 3192 C 304.457 -4.58853 -2.67634 0
M  V30 3193 C 303.496 -5.71114 -2.20217 0
M  V30 3194 N 302.633 -6.19478 -3.30442 0
M  V30 3195 H 307.473 -2.97389 -0.190664 0
M  V30 3196 H 305.01 -1.46869 -0.0823694 0
M  V30 3197 H 306.968 -3.21492 -2.65893 0
M  V30 3198 H 305.598 -2.09129 -2.45896 0
M  V30 3199 H 304.65 -3.74115 -0.688605 0
M  V30 3200 H 305.962 -4.86113 -1.11784 0
M  V30 3201 H 305.116 -4.97619 -3.47074 0
M  V30 3202 H 303.855 -3.76749 -3.09696 0
M  V30 3203 H 302.86 -5.31879 -1.3923 0
M  V30 3204 H 304.085 -6.55033 -1.79189 0
M  V30 3205 H 302.031 -5.40297 -3.72041 0
M  V30 3206 H 301.948 -6.95725 -2.9581 0
M  V30 3207 H 303.216 -6.62898 -4.10106 0
M  V30 3208 N 307.445 0.0818655 -1.57387 0
M  V30 3209 C 308.693 0.781368 -1.86384 0
M  V30 3210 C 309.014 1.78618 -0.782342 0
M  V30 3211 O 308.284 1.94976 0.190061 0
M  V30 3212 H 306.864 0.291562 -0.687751 0
M  V30 3213 H 309.526 0.060348 -1.94807 0
M  V30 3214 H 308.622 1.3038 -2.83562 0
M  V30 3215 N 308.923 1.53595 0.353017 0
M  V30 3216 C 310.17 1.70385 1.09431 0
M  V30 3217 C 310.498 0.462113 1.88931 0
M  V30 3218 O 309.753 -0.556074 1.87633 0
M  V30 3219 C 310.052 2.91313 2.07054 0
M  V30 3220 C 309.718 4.27308 1.43939 0
M  V30 3221 C 308.38 4.64287 1.26454 0
M  V30 3222 C 310.732 5.11829 0.983883 0
M  V30 3223 C 308.06 5.83412 0.620226 0
M  V30 3224 C 310.412 6.31611 0.353516 0
M  V30 3225 C 309.076 6.67293 0.166272 0
M  V30 3226 H 308.346 0.623484 0.400436 0
M  V30 3227 H 310.993 1.87799 0.374655 0
M  V30 3228 H 309.298 2.68463 2.85368 0
M  V30 3229 H 310.995 3.01497 2.64387 0
M  V30 3230 H 307.585 3.98198 1.58543 0
M  V30 3231 H 311.769 4.838 1.10685 0
M  V30 3232 H 307.025 6.09639 0.463681 0
M  V30 3233 H 311.199 6.964 -0.00757555 0
M  V30 3234 H 308.826 7.59461 -0.335047 0
M  V30 3235 N 310.401 -0.613514 1.45168 0
M  V30 3236 C 311.631 -1.39743 1.52169 0
M  V30 3237 C 312.039 -1.88596 0.151086 0
M  V30 3238 O 311.382 -1.6251 -0.856521 0
M  V30 3239 C 311.444 -2.64035 2.43979 0
M  V30 3240 C 311.108 -2.36861 3.90827 0
M  V30 3241 C 312.105 -1.97591 4.80889 0
M  V30 3242 C 309.79 -2.49956 4.35692 0
M  V30 3243 C 311.784 -1.71768 6.1382 0
M  V30 3244 C 309.471 -2.23747 5.68665 0
M  V30 3245 C 310.469 -1.84714 6.57548 0
M  V30 3246 O 310.157 -1.58809 7.88058 0
M  V30 3247 H 309.889 -0.434382 0.517966 0
M  V30 3248 H 312.443 -0.75587 1.90986 0
M  V30 3249 H 310.673 -3.3089 2.00122 0
M  V30 3250 H 312.362 -3.26069 2.41731 0
M  V30 3251 H 313.128 -1.87015 4.47493 0
M  V30 3252 H 309.007 -2.79305 3.66756 0
M  V30 3253 H 312.551 -1.41227 6.83155 0
M  V30 3254 H 308.448 -2.33938 6.01617 0
M  V30 3255 H 309.216 -1.7291 8.00028 0
M  V30 3256 N 311.879 -1.3236 -0.855495 0
M  V30 3257 C 312.809 -1.23833 -1.97958 0
M  V30 3258 C 313.79 -0.122361 -1.69659 0
M  V30 3259 O 314.975 -0.30939 -1.9172 0
M  V30 3260 C 312.105 -0.959772 -3.33775 0
M  V30 3261 C 311.059 -2.03689 -3.76424 0
M  V30 3262 C 310.385 -1.61075 -5.09862 0
M  V30 3263 C 311.685 -3.4518 -3.9198 0
M  V30 3264 H 313.379 -2.1788 -2.0535 0
M  V30 3265 H 310.925 -1.04891 -0.986605 0
M  V30 3266 H 312.878 -0.886678 -4.11966 0
M  V30 3267 H 311.602 0.0163404 -3.26596 0
M  V30 3268 H 310.261 -2.10012 -3.00484 0
M  V30 3269 H 309.909 -0.622107 -4.99138 0
M  V30 3270 H 309.609 -2.33143 -5.39368 0
M  V30 3271 H 311.133 -1.55201 -5.90546 0
M  V30 3272 H 312.547 -3.4145 -4.60526 0
M  V30 3273 H 310.944 -4.1559 -4.32903 0
M  V30 3274 H 312.014 -3.84903 -2.94919 0
M  V30 3275 N 313.357 1.07166 -1.15556 0
M  V30 3276 C 314.32 2.12589 -0.856644 0
M  V30 3277 C 315.32 1.6015 0.14444 0
M  V30 3278 O 316.51 1.7399 -0.0854163 0
M  V30 3279 C 313.642 3.39753 -0.279405 0
M  V30 3280 H 314.835 2.40539 -1.79112 0
M  V30 3281 H 312.388 1.23086 -0.963298 0
M  V30 3282 H 313.123 3.17447 0.663174 0
M  V30 3283 H 312.908 3.79117 -1.00063 0
M  V30 3284 H 314.398 4.17507 -0.0879113 0
M  V30 3285 N 314.835 0.952656 1.25548 0
M  V30 3286 C 316.082 0.606373 1.93208 0
M  V30 3287 C 316.41 -0.85631 1.74636 0
M  V30 3288 O 315.665 -1.62951 1.08376 0
M  V30 3289 C 315.964 0.908818 3.45652 0
M  V30 3290 C 315.63 2.35722 3.84378 0
M  V30 3291 C 314.292 2.75312 3.9466 0
M  V30 3292 C 316.644 3.29793 4.03591 0
M  V30 3293 C 313.972 4.08047 4.21562 0
M  V30 3294 C 316.324 4.62138 4.31985 0
M  V30 3295 C 314.988 5.01528 4.40484 0
M  V30 3296 H 314.258 0.221888 0.706998 0
M  V30 3297 H 316.905 1.20132 1.49133 0
M  V30 3298 H 315.21 0.231456 3.91116 0
M  V30 3299 H 316.907 0.619498 3.96186 0
M  V30 3300 H 313.497 2.04017 3.76928 0
M  V30 3301 H 317.681 3.00397 3.95064 0
M  V30 3302 H 312.937 4.38212 4.26357 0
M  V30 3303 H 317.111 5.35012 4.45797 0
M  V30 3304 H 314.738 6.04406 4.61083 0
M  V30 3305 N 316.313 -1.40141 0.720998 0
M  V30 3306 C 317.245 -2.29177 0.0324669 0
M  V30 3307 C 318.258 -1.46105 -0.718126 0
M  V30 3308 O 319.447 -1.69335 -0.564608 0
M  V30 3309 C 316.547 -3.24473 -0.978292 0
M  V30 3310 C 315.72 -4.36423 -0.292115 0
M  V30 3311 C 314.779 -5.12122 -1.20901 0
M  V30 3312 O 313.805 -5.64981 -0.691766 0
M  V30 3313 N 315.007 -5.21992 -2.53978 0
M  V30 3314 H 317.772 -2.88909 0.796984 0
M  V30 3315 H 315.333 -1.51569 0.569068 0
M  V30 3316 H 317.325 -3.71987 -1.59398 0
M  V30 3317 H 315.895 -2.65871 -1.64413 0
M  V30 3318 H 315.115 -3.90967 0.503847 0
M  V30 3319 H 316.403 -5.08467 0.183971 0
M  V30 3320 H 315.801 -4.8054 -2.98493 0
M  V30 3321 H 314.358 -5.72995 -3.10677 0
M  V30 3322 N 317.792 -0.46758 -1.50504 0
M  V30 3323 C 319.069 0.15003 -1.95024 0
M  V30 3324 C 319.449 1.57304 -1.40779 0
M  V30 3325 O 318.797 2.20281 -0.607319 0
M  V30 3326 C 319.007 0.0969324 -3.48865 0
M  V30 3327 C 320.355 0.287565 -4.23625 0
M  V30 3328 O 321.379 0.173678 -3.55776 0
M  V30 3329 O 320.238 0.517186 -5.44047 0
M  V30 3330 H 317.332 0.113582 -0.819163 0
M  V30 3331 H 319.878 -0.52773 -1.61286 0
M  V30 3332 H 318.65 -0.896732 -3.80886 0
M  V30 3333 H 318.273 0.816303 -3.8913 0
M  V30 3334 N 319.27 1.56325 -0.20005 0
M  V30 3335 C 320.516 1.98012 0.438059 0
M  V30 3336 C 320.849 1.08702 1.60927 0
M  V30 3337 O 320.124 0.140064 1.93995 0
M  V30 3338 C 320.407 3.48841 0.893419 0
M  V30 3339 C 320.26 4.48928 -0.279947 0
M  V30 3340 C 321.579 4.03498 1.75719 0
M  V30 3341 H 318.698 0.719918 0.157757 0
M  V30 3342 H 321.34 1.87743 -0.291968 0
M  V30 3343 H 319.49 3.57723 1.51547 0
M  V30 3344 H 321.162 4.52079 -0.91772 0
M  V30 3345 H 319.405 4.23694 -0.930919 0
M  V30 3346 H 320.076 5.5194 0.0812601 0
M  V30 3347 H 322.552 3.97427 1.23253 0
M  V30 3348 H 321.428 5.09393 2.04476 0
M  V30 3349 H 321.689 3.4906 2.71311 0
M  V30 3350 N 320.748 -0.0735177 1.57428 0
M  V30 3351 C 321.996 -0.771472 1.86796 0
M  V30 3352 C 322.317 -1.78201 0.791804 0
M  V30 3353 O 321.587 -1.95074 -0.179718 0
M  V30 3354 H 320.167 -0.28791 0.689287 0
M  V30 3355 H 322.829 -0.0500161 1.94836 0
M  V30 3356 H 321.925 -1.28874 2.8425 0
M  V30 3357 N 322.226 -1.5378 -0.344866 0
M  V30 3358 C 323.189 -1.80981 -1.40637 0
M  V30 3359 C 324.189 -0.680816 -1.45676 0
M  V30 3360 O 325.379 -0.949095 -1.46075 0
M  V30 3361 C 322.511 -1.95063 -2.79577 0
M  V30 3362 H 323.704 -2.75803 -1.17783 0
M  V30 3363 H 321.257 -1.45173 -0.579181 0
M  V30 3364 H 321.992 -1.02379 -3.07716 0
M  V30 3365 H 321.777 -2.77198 -2.77315 0
M  V30 3366 H 323.267 -2.17629 -3.56409 0
M  V30 3367 N 323.704 0.605807 -1.45491 0
M  V30 3368 C 324.944 1.37606 -1.51142 0
M  V30 3369 C 325.308 1.91413 -0.150075 0
M  V30 3370 O 326.509 2.68677 -0.0812828 0
M  V30 3371 C 324.78 2.49197 -2.56195 0
M  V30 3372 S 326.339 3.36953 -2.81083 0
M  V30 3373 H 323.157 0.469118 -0.534275 0
M  V30 3374 H 325.759 0.698845 -1.82583 0
M  V30 3375 H 324.463 2.0802 -3.53773 0
M  V30 3376 H 323.994 3.21717 -2.26411 0
M  V30 3377 H 326.009 4.47395 -2.14598 0
M  V30 3378 N 325.182 1.32811 0.848464 0
M  V30 3379 C 326.431 1.23075 1.59798 0
M  V30 3380 C 326.744 -0.204419 1.94529 0
M  V30 3381 O 327.95 -0.423701 2.68173 0
M  V30 3382 C 326.406 2.15594 2.88179 0
M  V30 3383 C 326.014 3.64228 2.60849 0
M  V30 3384 C 327.758 2.14709 3.66197 0
M  V30 3385 C 325.665 4.48689 3.85269 0
M  V30 3386 H 324.595 0.457091 0.599653 0
M  V30 3387 H 327.246 1.57813 0.936342 0
M  V30 3388 H 325.628 1.73778 3.55833 0
M  V30 3389 H 326.802 4.14424 2.01467 0
M  V30 3390 H 325.117 3.67306 1.96151 0
M  V30 3391 H 327.714 2.75046 4.58534 0
M  V30 3392 H 328.057 1.13966 4.00397 0
M  V30 3393 H 328.59 2.54837 3.05455 0
M  V30 3394 H 325.329 5.5027 3.56207 0
M  V30 3395 H 324.849 4.03241 4.44024 0
M  V30 3396 H 326.528 4.62006 4.52946 0
M  V30 3397 N 326.66 -1.06551 1.16123 0
M  V30 3398 C 327.623 -2.12132 0.867906 0
M  V30 3399 C 328.623 -1.60224 -0.135944 0
M  V30 3400 O 329.813 -1.73943 0.0946422 0
M  V30 3401 C 326.945 -3.396 0.297419 0
M  V30 3402 H 328.138 -2.39586 1.80385 0
M  V30 3403 H 325.691 -1.22574 0.969812 0
M  V30 3404 H 326.426 -3.17794 -0.64633 0
M  V30 3405 H 326.211 -3.78581 1.02073 0
M  V30 3406 H 327.701 -4.17455 0.110052 0
M  V30 3407 N 328.138 -0.959301 -1.25041 0
M  V30 3408 C 329.068 -0.501388 -2.28053 0
M  V30 3409 C 330.049 0.454673 -1.63911 0
M  V30 3410 O 331.234 0.352618 -1.90972 0
M  V30 3411 C 328.364 0.217224 -3.4662 0
M  V30 3412 C 327.318 -0.654034 -4.22973 0
M  V30 3413 C 326.644 0.195589 -5.34342 0
M  V30 3414 C 327.944 -1.93447 -4.85155 0
M  V30 3415 H 329.638 -1.36238 -2.66608 0
M  V30 3416 H 327.184 -0.656534 -1.28163 0
M  V30 3417 H 329.137 0.548732 -4.17812 0
M  V30 3418 H 327.861 1.1125 -3.07068 0
M  V30 3419 H 326.52 -0.968693 -3.5357 0
M  V30 3420 H 326.168 1.09076 -4.91031 0
M  V30 3421 H 325.868 -0.384091 -5.86343 0
M  V30 3422 H 327.392 0.521958 -6.08365 0
M  V30 3423 H 328.806 -1.66908 -5.48466 0
M  V30 3424 H 327.203 -2.46018 -5.47353 0
M  V30 3425 H 328.273 -2.63466 -4.07079 0
M  V30 3426 N 329.616 1.39756 -0.72842 0
M  V30 3427 C 330.862 2.00942 -0.273892 0
M  V30 3428 C 331.195 1.57656 1.13394 0
M  V30 3429 O 330.47 0.802434 1.77176 0
M  V30 3430 C 330.753 3.58211 -0.368346 0
M  V30 3431 C 330.606 4.11534 -1.81548 0
M  V30 3432 C 331.925 4.39372 0.253054 0
M  V30 3433 H 329.044 0.730047 -0.100996 0
M  V30 3434 H 331.686 1.66056 -0.923337 0
M  V30 3435 H 329.836 3.88061 0.184588 0
M  V30 3436 H 331.508 3.92431 -2.42478 0
M  V30 3437 H 329.751 3.65341 -2.33898 0
M  V30 3438 H 330.422 5.20682 -1.83288 0
M  V30 3439 H 332.898 4.15527 -0.218224 0
M  V30 3440 H 331.774 5.48677 0.156585 0
M  V30 3441 H 332.035 4.21358 1.33826 0
M  V30 3442 N 331.094 0.475555 1.50254 0
M  V30 3443 C 332.319 -0.0777042 2.07254 0
M  V30 3444 C 332.744 -1.3235 1.3366 0
M  V30 3445 O 332.102 -1.77152 0.385597 0
M  V30 3446 C 332.15 -0.340169 3.58992 0
M  V30 3447 O 331.254 -1.41982 3.87188 0
M  V30 3448 H 330.595 0.0149556 0.663832 0
M  V30 3449 H 333.125 0.667878 1.93392 0
M  V30 3450 H 333.135 -0.579332 4.03866 0
M  V30 3451 H 331.81 0.570167 4.11973 0
M  V30 3452 H 330.387 -1.16762 3.54148 0
M  V30 3453 N 332.573 -1.56217 0.208337 0
M  V30 3454 C 333.819 -1.98242 -0.427552 0
M  V30 3455 C 334.152 -1.09554 -1.60348 0
M  V30 3456 O 333.427 -0.15035 -1.93918 0
M  V30 3457 C 333.71 -3.4931 -0.874907 0
M  V30 3458 C 333.563 -4.48773 0.303751 0
M  V30 3459 C 334.882 -4.04424 -1.73577 0
M  V30 3460 H 332.001 -0.720744 -0.153936 0
M  V30 3461 H 334.643 -1.87586 0.30192 0
M  V30 3462 H 332.793 -3.58522 -1.49648 0
M  V30 3463 H 334.465 -4.51586 0.941682 0
M  V30 3464 H 332.708 -4.23194 0.953375 0
M  V30 3465 H 333.379 -5.51976 -0.0519883 0
M  V30 3466 H 335.855 -3.98075 -1.21143 0
M  V30 3467 H 334.731 -5.1047 -2.01771 0
M  V30 3468 H 334.992 -3.50494 -2.69456 0
M  V30 3469 N 334.051 0.0651679 -1.57465 0
M  V30 3470 C 335.467 0.420105 -1.53972 0
M  V30 3471 C 335.667 1.78782 -0.929474 0
M  V30 3472 O 334.723 2.46771 -0.534839 0
M  V30 3473 C 336.036 0.355084 -2.98596 0
M  V30 3474 C 337.584 0.434792 -3.09965 0
M  V30 3475 C 338.059 0.399609 -4.56253 0
M  V30 3476 N 339.55 0.459488 -4.60915 0
M  V30 3477 C 340.285 0.454584 -5.71595 0
M  V30 3478 N 339.781 0.404102 -6.9162 0
M  V30 3479 N 341.574 0.501635 -5.59857 0
M  V30 3480 H 333.725 -0.830328 -1.95498 0
M  V30 3481 H 335.988 -0.312244 -0.895102 0
M  V30 3482 H 335.694 -0.583357 -3.46828 0
M  V30 3483 H 335.568 1.16275 -3.58831 0
M  V30 3484 H 337.955 1.36366 -2.61703 0
M  V30 3485 H 338.036 -0.40157 -2.52628 0
M  V30 3486 H 337.68 -0.525436 -5.05175 0
M  V30 3487 H 337.61 1.25359 -5.11461 0
M  V30 3488 H 340.101 0.502482 -3.74544 0
M  V30 3489 H 340.414 0.404468 -7.71741 0
M  V30 3490 H 338.759 0.37069 -6.94011 0
M  V30 3491 H 341.95 0.538812 -4.64989 0
M  V30 3492 H 342.123 0.494345 -6.46112 0
M  V30 3493 N 335.529 1.53961 0.336706 0
M  V30 3494 C 336.775 1.7179 1.07777 0
M  V30 3495 C 337.108 0.483263 1.88091 0
M  V30 3496 O 336.383 -0.519747 1.87427 0
M  V30 3497 C 336.666 2.98558 2.01334 0
M  V30 3498 C 336.519 4.32245 1.24437 0
M  V30 3499 C 337.838 3.21023 3.01052 0
M  V30 3500 H 334.957 0.625089 0.390426 0
M  V30 3501 H 337.599 1.86641 0.35567 0
M  V30 3502 H 335.749 2.86028 2.62908 0
M  V30 3503 H 337.421 4.56637 0.654243 0
M  V30 3504 H 335.664 4.30344 0.546458 0
M  V30 3505 H 336.335 5.17137 1.93063 0
M  V30 3506 H 338.811 3.32929 2.49595 0
M  V30 3507 H 337.687 4.11104 3.6371 0
M  V30 3508 H 337.948 2.37637 3.72802 0
M  V30 3509 N 337.007 -0.598083 1.45811 0
M  V30 3510 C 338.237 -1.38121 1.53643 0
M  V30 3511 C 338.645 -1.88425 0.171081 0
M  V30 3512 O 337.988 -1.63409 -0.839237 0
M  V30 3513 C 338.05 -2.61432 2.46766 0
M  V30 3514 C 337.714 -2.32702 3.93318 0
M  V30 3515 C 338.711 -1.92479 4.82957 0
M  V30 3516 C 336.396 -2.45321 4.38318 0
M  V30 3517 C 338.39 -1.65248 6.15607 0
M  V30 3518 C 336.077 -2.17703 5.71007 0
M  V30 3519 C 337.075 -1.7773 6.5947 0
M  V30 3520 O 336.763 -1.50441 7.89698 0
M  V30 3521 H 336.495 -0.428863 0.522544 0
M  V30 3522 H 339.049 -0.73557 1.91777 0
M  V30 3523 H 337.279 -3.28749 2.0362 0
M  V30 3524 H 338.968 -3.23487 2.45175 0
M  V30 3525 H 339.734 -1.82258 4.49452 0
M  V30 3526 H 335.613 -2.75399 3.69697 0
M  V30 3527 H 339.157 -1.33973 6.84614 0
M  V30 3528 H 335.054 -2.27544 6.04065 0
M  V30 3529 H 335.822 -1.64415 8.01817 0
M  V30 3530 N 338.485 -1.33259 -0.841409 0
M  V30 3531 C 339.715 -1.2742 -1.62628 0
M  V30 3532 C 340.123 0.157604 -1.88542 0
M  V30 3533 O 339.466 1.10938 -1.46419 0
M  V30 3534 C 339.528 -1.97797 -3.00194 0
M  V30 3535 C 339.192 -3.47109 -2.97261 0
M  V30 3536 C 340.189 -4.42358 -2.73159 0
M  V30 3537 C 337.874 -3.89247 -3.17478 0
M  V30 3538 C 339.868 -5.77718 -2.69296 0
M  V30 3539 C 337.555 -5.24713 -3.13241 0
M  V30 3540 C 338.553 -6.1876 -2.89181 0
M  V30 3541 O 338.241 -7.51745 -2.84843 0
M  V30 3542 H 337.973 -0.440436 -0.512827 0
M  V30 3543 H 340.527 -1.76153 -1.05638 0
M  V30 3544 H 338.757 -1.43652 -3.59028 0
M  V30 3545 H 340.446 -1.8549 -3.61038 0
M  V30 3546 H 341.212 -4.11127 -2.57294 0
M  V30 3547 H 337.091 -3.16456 -3.35226 0
M  V30 3548 H 340.635 -6.51097 -2.50436 0
M  V30 3549 H 336.532 -5.55569 -3.28654 0
M  V30 3550 H 337.3 -7.61262 -3.00702 0
M  V30 3551 N 339.963 1.05934 -1.16686 0
M  V30 3552 C 340.91 2.13499 -0.876748 0
M  V30 3553 C 341.88 1.65162 0.176299 0
M  V30 3554 O 343.065 1.90757 0.0407143 0
M  V30 3555 C 340.205 3.42912 -0.387967 0
M  V30 3556 C 339.318 4.04964 -1.50426 0
M  V30 3557 C 338.453 5.22266 -0.970125 0
M  V30 3558 C 337.492 5.76309 -2.06238 0
M  V30 3559 N 336.629 6.84922 -1.54356 0
M  V30 3560 H 341.469 2.37654 -1.7979 0
M  V30 3561 H 339.006 1.16598 -0.896843 0
M  V30 3562 H 340.964 4.17111 -0.086186 0
M  V30 3563 H 339.594 3.18963 0.496235 0
M  V30 3564 H 338.646 3.28277 -1.92193 0
M  V30 3565 H 339.958 4.41122 -2.32836 0
M  V30 3566 H 339.112 6.03506 -0.621743 0
M  V30 3567 H 337.851 4.87564 -0.115377 0
M  V30 3568 H 336.856 4.93704 -2.41942 0
M  V30 3569 H 338.081 6.13062 -2.92115 0
M  V30 3570 H 336.027 6.52131 -0.711406 0
M  V30 3571 H 335.944 7.20043 -2.30379 0
M  V30 3572 H 337.212 7.69832 -1.22387 0
M  V30 3573 N 341.441 0.965919 1.2453 0
M  V30 3574 C 342.388 0.49402 2.25451 0
M  V30 3575 C 343.358 -0.45948 1.59618 0
M  V30 3576 O 344.543 -0.370238 1.87173 0
M  V30 3577 C 341.683 -0.211359 3.44452 0
M  V30 3578 C 340.796 0.7807 4.24887 0
M  V30 3579 C 339.931 0.0516105 5.31175 0
M  V30 3580 C 338.97 1.03385 6.03306 0
M  V30 3581 N 338.107 0.334887 7.01301 0
M  V30 3582 H 342.947 1.35946 2.65184 0
M  V30 3583 H 340.484 0.681515 1.3036 0
M  V30 3584 H 342.442 -0.637 4.12308 0
M  V30 3585 H 341.072 -1.04077 3.05562 0
M  V30 3586 H 340.124 1.32479 3.56586 0
M  V30 3587 H 341.436 1.52978 4.74762 0
M  V30 3588 H 340.59 -0.432114 6.05159 0
M  V30 3589 H 339.329 -0.730179 4.82203 0
M  V30 3590 H 338.334 1.52847 5.28127 0
M  V30 3591 H 339.559 1.81606 6.54367 0
M  V30 3592 H 337.505 -0.427959 6.54603 0
M  V30 3593 H 337.422 1.02287 7.49048 0
M  V30 3594 H 338.69 -0.126928 7.79397 0
M  V30 3595 N 342.919 -1.39368 0.735821 0
M  V30 3596 C 344.159 -2.02349 0.288813 0
M  V30 3597 C 344.523 -1.57127 -1.10341 0
M  V30 3598 O 345.724 -2.12312 -1.64854 0
M  V30 3599 C 343.995 -3.55288 0.387986 0
M  V30 3600 S 345.554 -4.38795 0.0209408 0
M  V30 3601 H 342.372 -0.701944 0.113115 0
M  V30 3602 H 344.974 -1.70164 0.962518 0
M  V30 3603 H 343.678 -3.85691 1.40252 0
M  V30 3604 H 343.209 -3.92227 -0.303512 0
M  V30 3605 H 345.224 -4.81595 -1.19503 0
M  V30 3606 N 344.397 -0.483516 -1.5 0
M  V30 3607 C 345.808 -0.0314176 -1.86674 0
M  V30 3608 C 346.159 1.37728 -1.39733 0
M  V30 3609 O 345.284 2.02327 -0.767635 0
M  V30 3610 C 345.879 -0.0502376 -3.38763 0
M  V30 3611 C 344.438 0.346442 -3.74802 0
M  V30 3612 C 343.585 -0.430366 -2.7394 0
M  V30 3613 H 346.536 -0.697182 -1.42566 0
M  V30 3614 H 346.557 0.749116 -3.73053 0
M  V30 3615 H 346.069 -1.07563 -3.72897 0
M  V30 3616 H 344.17 1.37572 -3.46273 0
M  V30 3617 H 344.283 0.0391486 -4.79084 0
M  V30 3618 H 342.647 0.117557 -2.54429 0
M  V30 3619 H 343.43 -1.4555 -3.10918 0
M  V30 3620 N 345.875 1.56104 -0.216619 0
M  V30 3621 C 347.1 2.0301 0.424462 0
M  V30 3622 C 347.525 1.0955 1.52907 0
M  V30 3623 O 346.883 0.0827914 1.81111 0
M  V30 3624 C 346.931 3.4819 0.937883 0
M  V30 3625 O 346.035 3.57865 2.04955 0
M  V30 3626 H 345.376 0.656925 0.0966755 0
M  V30 3627 H 347.906 2.01859 -0.33381 0
M  V30 3628 H 347.916 3.88413 1.24897 0
M  V30 3629 H 346.591 4.15699 0.129387 0
M  V30 3630 H 345.168 3.29527 1.74546 0
M  V30 3631 N 347.353 -0.0568162 1.57498 0
M  V30 3632 C 348.599 -0.75422 1.88253 0
M  V30 3633 C 348.932 -1.76461 0.810865 0
M  V30 3634 O 348.207 -1.93691 -0.177259 0
M  V30 3635 C 348.49 -1.44878 3.2967 0
M  V30 3636 C 348.343 -0.453789 4.47505 0
M  V30 3637 C 349.662 -2.38994 3.69554 0
M  V30 3638 H 346.781 -0.272724 0.684683 0
M  V30 3639 H 349.423 -0.0172113 1.89992 0
M  V30 3640 H 347.573 -2.077 3.28318 0
M  V30 3641 H 349.245 0.170371 4.60985 0
M  V30 3642 H 347.488 0.229552 4.33192 0
M  V30 3643 H 348.159 -0.977699 5.43273 0
M  V30 3644 H 350.635 -1.86239 3.72095 0
M  V30 3645 H 349.511 -2.84587 4.69363 0
M  V30 3646 H 349.772 -3.24461 3.00296 0
M  V30 3647 N 348.832 -1.54138 -0.328536 0
M  V30 3648 C 350.078 -1.7236 -1.06865 0
M  V30 3649 C 350.411 -0.493231 -1.87832 0
M  V30 3650 O 349.686 0.5098 -1.877 0
M  V30 3651 C 349.969 -2.99621 -1.99747 0
M  V30 3652 C 349.822 -4.32899 -1.22143 0
M  V30 3653 C 351.141 -3.22615 -2.99345 0
M  V30 3654 H 348.26 -0.627151 -0.387105 0
M  V30 3655 H 350.902 -1.86827 -0.345767 0
M  V30 3656 H 349.052 -2.87418 -2.61387 0
M  V30 3657 H 350.724 -4.56978 -0.630017 0
M  V30 3658 H 348.967 -4.30628 -0.523628 0
M  V30 3659 H 349.638 -5.18154 -1.90318 0
M  V30 3660 H 352.114 -3.34248 -2.47826 0
M  V30 3661 H 350.99 -4.13027 -3.61524 0
M  V30 3662 H 351.251 -2.3961 -3.71536 0
M  V30 3663 N 350.31 0.590341 -1.46126 0
M  V30 3664 C 351.726 0.912917 -1.30912 0
M  V30 3665 C 351.926 1.99616 -0.274893 0
M  V30 3666 O 350.982 2.50397 0.325197 0
M  V30 3667 C 352.295 1.3375 -2.69317 0
M  V30 3668 C 353.843 1.45077 -2.77348 0
M  V30 3669 C 354.318 1.90904 -4.16317 0
M  V30 3670 N 355.809 1.9811 -4.18696 0
M  V30 3671 C 356.544 2.34828 -5.23109 0
M  V30 3672 N 356.04 2.70393 -6.37856 0
M  V30 3673 N 357.833 2.35317 -5.10473 0
M  V30 3674 H 349.984 -0.125358 -2.1203 0
M  V30 3675 H 352.247 0.00658481 -0.947977 0
M  V30 3676 H 351.953 0.615614 -3.4627 0
M  V30 3677 H 351.827 2.30058 -2.9892 0
M  V30 3678 H 354.214 2.16353 -2.00687 0
M  V30 3679 H 354.295 0.4704 -2.51438 0
M  V30 3680 H 353.939 1.20209 -4.9347 0
M  V30 3681 H 353.869 2.89886 -4.39629 0
M  V30 3682 H 356.36 1.73146 -3.359 0
M  V30 3683 H 356.673 2.97341 -7.13308 0
M  V30 3684 H 355.018 2.68048 -6.41229 0
M  V30 3685 H 358.209 2.0695 -4.19868 0
M  V30 3686 H 358.382 2.63605 -5.9196 0
M  V30 3687 N 351.788 1.33704 0.83433 0
M  V30 3688 C 352.738 1.20899 1.93306 0
M  V30 3689 C 353.722 0.110783 1.60518 0
M  V30 3690 O 354.914 0.339331 1.73717 0
M  V30 3691 C 352.043 0.955018 3.29749 0
M  V30 3692 C 351.129 2.09587 3.68692 0
M  V30 3693 N 351.52 3.34621 3.79292 0
M  V30 3694 C 349.818 2.00358 3.98463 0
M  V30 3695 C 350.519 4.09472 4.13167 0
M  V30 3696 N 349.495 3.37954 4.25779 0
M  V30 3697 H 353.297 2.15665 1.99664 0
M  V30 3698 H 350.811 1.25777 1.02732 0
M  V30 3699 H 352.808 0.844208 4.08263 0
M  V30 3700 H 351.468 0.0159317 3.24696 0
M  V30 3701 H 352.479 3.69313 3.63082 0
M  V30 3702 H 349.156 1.14137 4.01596 0
M  V30 3703 H 350.546 5.17391 4.28668 0
M  V30 3704 N 353.266 -1.05314 1.17247 0
M  V30 3705 C 354.196 -2.1498 0.911362 0
M  V30 3706 C 355.177 -1.69471 -0.146169 0
M  V30 3707 O 356.362 -1.942 0.003812 0
M  V30 3708 C 353.492 -3.4472 0.422528 0
M  V30 3709 C 352.446 -4.03789 1.4191 0
M  V30 3710 C 351.772 -5.28858 0.788274 0
M  V30 3711 C 353.072 -4.41418 2.7919 0
M  V30 3712 H 354.766 -2.3708 1.82848 0
M  V30 3713 H 352.312 -1.13938 0.880569 0
M  V30 3714 H 354.265 -4.20787 0.227289 0
M  V30 3715 H 352.989 -3.22269 -0.530123 0
M  V30 3716 H 351.648 -3.2979 1.60106 0
M  V30 3717 H 351.296 -5.02709 -0.171173 0
M  V30 3718 H 350.996 -5.69338 1.45353 0
M  V30 3719 H 352.52 -6.07612 0.603282 0
M  V30 3720 H 353.934 -5.08524 2.64719 0
M  V30 3721 H 352.331 -4.92913 3.42282 0
M  V30 3722 H 353.401 -3.51819 3.33693 0
M  V30 3723 N 354.744 -0.972509 -1.24016 0
M  V30 3724 C 355.707 -0.511403 -2.23422 0
M  V30 3725 C 356.707 0.394679 -1.55881 0
M  V30 3726 O 357.897 0.189469 -1.73167 0
M  V30 3727 C 355.029 0.258769 -3.39916 0
M  V30 3728 H 356.222 -1.39024 -2.6573 0
M  V30 3729 H 353.775 -0.757585 -1.36713 0
M  V30 3730 H 354.51 1.1545 -3.03054 0
M  V30 3731 H 354.295 -0.391522 -3.9014 0
M  V30 3732 H 355.785 0.570244 -4.13688 0
M  V30 3733 N 356.222 1.38976 -0.743202 0
M  V30 3734 C 357.468 2.0064 -0.295189 0
M  V30 3735 C 357.801 1.5885 1.11716 0
M  V30 3736 O 357.076 0.821181 1.76315 0
M  V30 3737 C 357.359 3.578 -0.406318 0
M  V30 3738 C 357.212 4.09586 -1.85903 0
M  V30 3739 C 358.531 4.39616 0.206439 0
M  V30 3740 H 355.65 0.728935 -0.108733 0
M  V30 3741 H 358.292 1.65067 -0.940897 0
M  V30 3742 H 356.442 3.88235 0.143419 0
M  V30 3743 H 358.114 3.89837 -2.46627 0
M  V30 3744 H 356.357 3.6284 -2.3776 0
M  V30 3745 H 357.028 5.18708 -1.888 0
M  V30 3746 H 359.504 4.15273 -0.262283 0
M  V30 3747 H 358.38 5.48812 0.0983819 0
M  V30 3748 H 358.641 4.22754 1.2935 0
M  V30 3749 N 357.7 0.491464 1.49741 0
M  V30 3750 C 358.947 -0.0564256 2.02421 0
M  V30 3751 C 359.275 -1.37872 1.37192 0
M  V30 3752 O 358.53 -1.89375 0.493508 0
M  V30 3753 C 358.829 -0.267329 3.56399 0
M  V30 3754 C 358.495 0.975775 4.40215 0
M  V30 3755 C 357.157 1.31655 4.62839 0
M  V30 3756 C 359.509 1.80251 4.89039 0
M  V30 3757 C 356.837 2.48375 5.31532 0
M  V30 3758 C 359.189 2.96116 5.59015 0
M  V30 3759 C 357.853 3.30585 5.79888 0
M  V30 3760 H 357.123 -0.0206476 0.740712 0
M  V30 3761 H 359.77 0.649686 1.80143 0
M  V30 3762 H 358.075 -1.05588 3.77304 0
M  V30 3763 H 359.772 -0.705549 3.94744 0
M  V30 3764 H 356.362 0.700315 4.2284 0
M  V30 3765 H 360.546 1.55239 4.71396 0
M  V30 3766 H 355.802 2.7533 5.45897 0
M  V30 3767 H 359.976 3.60509 5.95824 0
M  V30 3768 H 357.603 4.21132 6.32892 0
M  V30 3769 N 359.178 -1.55987 0.224894 0
M  V30 3770 C 360.589 -1.84553 -0.282345 0
M  V30 3771 C 360.94 -1.14634 -1.59227 0
M  V30 3772 O 360.065 -0.417155 -2.12341 0
M  V30 3773 C 360.66 -3.348 -0.519062 0
M  V30 3774 C 359.219 -3.63671 -0.970604 0
M  V30 3775 C 358.366 -2.77277 -0.0355261 0
M  V30 3776 H 361.317 -1.52245 0.448006 0
M  V30 3777 H 361.338 -3.55187 -1.36463 0
M  V30 3778 H 360.85 -3.8566 0.43449 0
M  V30 3779 H 358.951 -3.1827 -1.9374 0
M  V30 3780 H 359.064 -4.71631 -0.842698 0
M  V30 3781 H 357.428 -2.48846 -0.542927 0
M  V30 3782 H 358.211 -3.30937 0.913003 0
M  V30 3783 N 360.656 0.0484629 -1.57525 0
M  V30 3784 C 361.933 0.777447 -1.79486 0
M  V30 3785 C 362.313 1.94597 -0.818251 0
M  V30 3786 O 361.661 2.28047 0.143767 0
M  V30 3787 C 361.871 1.22864 -3.26658 0
M  V30 3788 C 363.219 1.65251 -3.91123 0
M  V30 3789 O 364.243 1.32372 -3.3069 0
M  V30 3790 O 363.102 2.26207 -4.97486 0
M  V30 3791 H 360.196 0.374357 -0.737419 0
M  V30 3792 H 362.742 0.0267359 -1.69679 0
M  V30 3793 H 361.514 0.393589 -3.89316 0
M  V30 3794 H 361.137 2.03996 -3.41279 0
M  V30 3795 N 362.134 1.5431 0.320358 0
M  V30 3796 C 363.362 1.76636 1.07738 0
M  V30 3797 C 363.777 0.51649 1.81598 0
M  V30 3798 O 363.134 -0.512942 1.75143 0
M  V30 3799 C 363.185 2.96158 2.07299 0
M  V30 3800 O 362.906 4.16313 1.36438 0
M  V30 3801 C 364.407 3.3072 2.95193 0
M  V30 3802 H 361.627 0.589597 0.320339 0
M  V30 3803 H 364.171 2.01207 0.36551 0
M  V30 3804 H 362.326 2.73851 2.74016 0
M  V30 3805 H 362.74 4.83565 2.03138 0
M  V30 3806 H 364.214 4.17643 3.60941 0
M  V30 3807 H 364.691 2.48026 3.62463 0
M  V30 3808 H 365.297 3.55117 2.34034 0
M  V30 3809 N 363.613 -0.582584 1.46437 0
M  V30 3810 C 364.862 -1.337 1.5102 0
M  V30 3811 C 365.175 -1.94891 0.166359 0
M  V30 3812 O 366.381 -2.71351 0.0899954 0
M  V30 3813 C 364.837 -2.42315 2.66104 0
M  V30 3814 C 364.445 -1.87427 4.06909 0
M  V30 3815 C 366.189 -3.19099 2.79958 0
M  V30 3816 C 364.096 -2.93672 5.13333 0
M  V30 3817 H 363.026 -0.502619 0.562041 0
M  V30 3818 H 365.677 -0.621701 1.72647 0
M  V30 3819 H 364.059 -3.16645 2.37807 0
M  V30 3820 H 365.233 -1.19639 4.44998 0
M  V30 3821 H 363.548 -1.2331 3.97723 0
M  V30 3822 H 366.145 -3.9839 3.56636 0
M  V30 3823 H 366.488 -3.71695 1.87479 0
M  V30 3824 H 367.021 -2.51875 3.07902 0
M  V30 3825 H 363.76 -2.45962 6.07604 0
M  V30 3826 H 363.28 -3.59948 4.79789 0
M  V30 3827 H 364.959 -3.5762 5.39182 0
M  V30 3828 N 365.091 -1.34144 -0.827227 0
M  V30 3829 C 366.319 -1.29325 -1.61501 0
M  V30 3830 C 366.734 0.13354 -1.88327 0
M  V30 3831 O 366.091 1.0793 -1.47164 0
M  V30 3832 C 366.142 -2.07746 -2.95844 0
M  V30 3833 O 365.863 -3.4486 -2.70191 0
M  V30 3834 C 367.364 -2.10273 -3.90256 0
M  V30 3835 H 364.584 -0.445069 -0.50215 0
M  V30 3836 H 367.128 -1.76693 -1.02955 0
M  V30 3837 H 365.283 -1.6403 -3.5096 0
M  V30 3838 H 365.697 -3.85345 -3.55822 0
M  V30 3839 H 367.171 -2.69575 -4.81698 0
M  V30 3840 H 367.648 -1.096 -4.25305 0
M  V30 3841 H 368.254 -2.54059 -3.41078 0
M  V30 3842 N 366.569 1.04691 -1.17803 0
M  V30 3843 C 367.817 1.7743 -0.967617 0
M  V30 3844 C 368.138 1.88359 0.504574 0
M  V30 3845 O 367.408 1.40402 1.36617 0
M  V30 3846 H 365.988 0.657242 -0.355024 0
M  V30 3847 H 368.65 1.2638 -1.48371 0
M  V30 3848 H 367.746 2.78924 -1.40027 0
M  V30 3849 N 368.047 0.979072 1.23499 0
M  V30 3850 C 369.01 0.523244 2.23147 0
M  V30 3851 C 370.01 -0.386406 1.56088 0
M  V30 3852 O 371.2 -0.180283 1.73265 0
M  V30 3853 C 368.332 -0.240739 3.40049 0
M  V30 3854 H 369.525 1.40432 2.64989 0
M  V30 3855 H 367.078 0.764824 1.36309 0
M  V30 3856 H 367.813 -1.13841 3.03662 0
M  V30 3857 H 367.598 0.412207 3.89927 0
M  V30 3858 H 369.088 -0.548297 4.13985 0
M  V30 3859 N 369.525 -1.3858 0.750561 0
M  V30 3860 C 370.802 -1.94231 0.231009 0
M  V30 3861 C 371.182 -1.68611 -1.27018 0
M  V30 3862 O 370.53 -1.02296 -2.04323 0
M  V30 3863 C 370.74 -3.44123 0.581428 0
M  V30 3864 C 372.088 -4.2116 0.539389 0
M  V30 3865 O 373.112 -3.52391 0.519541 0
M  V30 3866 O 371.971 -5.43749 0.54765 0
M  V30 3867 H 369.065 -0.825639 0.0474263 0
M  V30 3868 H 371.611 -1.4799 0.830478 0
M  V30 3869 H 370.383 -3.56267 1.61833 0
M  V30 3870 H 370.006 -3.97573 -0.0462047 0
M  V30 3871 N 371.003 -0.499398 -1.49478 0
M  V30 3872 C 372.228 0.044722 -2.07352 0
M  V30 3873 C 372.653 1.30207 -1.35749 0
M  V30 3874 O 372.011 1.76516 -0.413732 0
M  V30 3875 C 372.059 0.283013 -3.59488 0
M  V30 3876 O 371.163 1.35804 -3.89398 0
M  V30 3877 H 370.504 -0.0255147 -0.66351 0
M  V30 3878 H 373.034 -0.698561 -1.92305 0
M  V30 3879 H 373.044 0.515007 -4.04737 0
M  V30 3880 H 371.719 -0.635636 -4.11014 0
M  V30 3881 H 370.296 1.11113 -3.55961 0
M  V30 3882 N 372.481 1.55866 -0.233164 0
M  V30 3883 C 373.706 2.03449 0.402906 0
M  V30 3884 C 374.131 1.11166 1.51736 0
M  V30 3885 O 373.489 0.101996 1.81013 0
M  V30 3886 C 373.537 3.49165 0.9009 0
M  V30 3887 O 372.641 3.60019 2.01147 0
M  V30 3888 H 371.982 0.657913 0.0897025 0
M  V30 3889 H 374.512 2.01493 -0.355201 0
M  V30 3890 H 374.522 3.89716 1.2077 0
M  V30 3891 H 373.197 4.15813 0.0852889 0
M  V30 3892 H 371.774 3.3136 1.71042 0
M  V30 3893 N 373.959 -0.0401083 1.57549 0
M  V30 3894 C 374.891 -1.07149 2.02612 0
M  V30 3895 C 375.904 -1.33126 0.937085 0
M  V30 3896 O 377.093 -1.30808 1.21456 0
M  V30 3897 C 374.193 -2.41561 2.37701 0
M  V30 3898 C 373.366 -2.35096 3.68848 0
M  V30 3899 C 372.425 -3.51867 3.91249 0
M  V30 3900 O 371.451 -3.3186 4.62447 0
M  V30 3901 N 372.653 -4.73351 3.36035 0
M  V30 3902 H 375.418 -0.687485 2.91708 0
M  V30 3903 H 372.979 -0.228248 1.60283 0
M  V30 3904 H 374.971 -3.18379 2.49833 0
M  V30 3905 H 373.541 -2.71846 1.54332 0
M  V30 3906 H 372.761 -1.4345 3.67173 0
M  V30 3907 H 374.049 -2.27908 4.54901 0
M  V30 3908 H 373.447 -4.92507 2.78304 0
M  V30 3909 H 372.004 -5.47572 3.53565 0
M  V30 3910 N 375.437 -1.54477 -0.31217 0
M  V30 3911 C 376.367 -1.87652 -1.38957 0
M  V30 3912 C 377.348 -0.734358 -1.53431 0
M  V30 3913 O 378.533 -0.98911 -1.67123 0
M  V30 3914 C 375.663 -2.11396 -2.75552 0
M  V30 3915 C 374.617 -3.27243 -2.75855 0
M  V30 3916 C 373.943 -3.36382 -4.15633 0
M  V30 3917 C 375.243 -4.64622 -2.38587 0
M  V30 3918 H 376.937 -2.77887 -1.11442 0
M  V30 3919 H 374.483 -1.33707 -0.534655 0
M  V30 3920 H 376.436 -2.33189 -3.51 0
M  V30 3921 H 375.16 -1.17921 -3.04569 0
M  V30 3922 H 373.819 -3.05356 -2.02863 0
M  V30 3923 H 373.467 -2.40445 -4.41809 0
M  V30 3924 H 373.167 -4.14249 -4.1674 0
M  V30 3925 H 374.691 -3.60422 -4.92877 0
M  V30 3926 H 376.105 -4.86219 -3.03749 0
M  V30 3927 H 374.502 -5.45121 -2.50925 0
M  V30 3928 H 375.572 -4.66097 -1.33723 0
M  V30 3929 N 376.915 0.57481 -1.46744 0
M  V30 3930 C 377.845 1.69337 -1.60771 0
M  V30 3931 C 378.826 1.63825 -0.457736 0
M  V30 3932 O 380.011 1.8172 -0.684947 0
M  V30 3933 C 377.141 3.0798 -1.60517 0
M  V30 3934 C 376.095 3.28327 -2.74564 0
M  V30 3935 C 375.421 4.67578 -2.59373 0
M  V30 3936 C 376.721 3.15398 -4.16319 0
M  V30 3937 H 378.415 1.57853 -2.54407 0
M  V30 3938 H 375.961 0.75799 -1.22436 0
M  V30 3939 H 377.914 3.86061 -1.68923 0
M  V30 3940 H 376.638 3.20381 -0.634305 0
M  V30 3941 H 375.297 2.52649 -2.65639 0
M  V30 3942 H 374.945 4.76755 -1.60353 0
M  V30 3943 H 374.645 4.82144 -3.35873 0
M  V30 3944 H 376.169 5.47817 -2.69682 0
M  V30 3945 H 377.583 3.83315 -4.26313 0
M  V30 3946 H 375.98 3.41482 -4.93468 0
M  V30 3947 H 377.05 2.12372 -4.3592 0
M  V30 3948 N 378.394 1.34581 0.820102 0
M  V30 3949 C 379.304 1.28471 1.96297 0
M  V30 3950 C 380.32 0.191902 1.72939 0
M  V30 3951 O 381.496 0.418879 1.96996 0
M  V30 3952 C 378.561 1.04281 3.30645 0
M  V30 3953 C 377.622 2.22745 3.66992 0
M  V30 3954 C 376.855 1.997 4.9493 0
M  V30 3955 O 377.078 0.956656 5.6232 0
M  V30 3956 O 376.012 2.86723 5.2922 0
M  V30 3957 H 379.838 2.24624 2.04396 0
M  V30 3958 H 377.423 1.14816 0.955913 0
M  V30 3959 H 379.305 0.925841 4.11104 0
M  V30 3960 H 377.98 0.111697 3.23507 0
M  V30 3961 H 376.887 2.40003 2.86966 0
M  V30 3962 H 378.22 3.14257 3.78819 0
M  V30 3963 N 379.872 -1.04064 1.18357 0
M  V30 3964 C 381.118 -1.77528 0.980397 0
M  V30 3965 C 381.451 -1.87948 -0.48879 0
M  V30 3966 O 380.726 -1.3876 -1.36293 0
M  V30 3967 C 381.009 -3.20797 1.63588 0
M  V30 3968 C 380.862 -3.1832 3.17793 0
M  V30 3969 C 382.181 -4.18911 1.34914 0
M  V30 3970 H 379.3 -0.644443 0.357578 0
M  V30 3971 H 381.942 -1.2156 1.46024 0
M  V30 3972 H 380.092 -3.68586 1.22788 0
M  V30 3973 H 381.764 -2.78521 3.67728 0
M  V30 3974 H 380.007 -2.56351 3.49952 0
M  V30 3975 H 380.678 -4.19489 3.58794 0
M  V30 3976 H 383.154 -3.7967 1.70265 0
M  V30 3977 H 382.03 -5.17374 1.83346 0
M  V30 3978 H 382.291 -4.41262 0.272027 0
M  V30 3979 N 381.35 -0.985608 -1.22978 0
M  V30 3980 C 382.575 -0.675254 -1.961 0
M  V30 3981 C 383 0.752154 -1.72407 0
M  V30 3982 O 382.358 1.5131 -0.998751 0
M  V30 3983 C 382.406 -0.977899 -3.47087 0
M  V30 3984 O 381.51 -0.072685 -4.12336 0
M  V30 3985 H 380.851 -0.253443 -0.613728 0
M  V30 3986 H 383.381 -1.32061 -1.56272 0
M  V30 3987 H 383.391 -0.916739 -3.97567 0
M  V30 3988 H 382.066 -2.01807 -3.63657 0
M  V30 3989 H 380.643 -0.188703 -3.72422 0
M  V30 3990 N 382.828 1.3818 -0.7579 0
M  V30 3991 C 384.076 1.99624 -0.315361 0
M  V30 3992 C 384.397 1.60464 1.10799 0
M  V30 3993 O 383.667 0.863507 1.75842 0
M  V30 3994 H 382.247 0.73831 -0.113611 0
M  V30 3995 H 384.909 1.68878 -0.972952 0
M  V30 3996 H 384.005 3.09754 -0.381931 0
M  V30 3997 N 384.306 0.507319 1.49211 0
M  V30 3998 C 385.531 -0.033725 2.07373 0
M  V30 3999 C 385.956 -1.29485 1.36437 0
M  V30 4000 O 385.314 -1.76294 0.423087 0
M  V30 4001 C 385.362 -0.263945 3.59633 0
M  V30 4002 O 384.466 -1.33737 3.90113 0
M  V30 4003 H 383.807 0.0290331 0.663365 0
M  V30 4004 H 386.337 0.708749 1.91932 0
M  V30 4005 H 386.347 -0.493536 4.05004 0
M  V30 4006 H 385.022 0.657424 4.10671 0
M  V30 4007 H 383.599 -1.09224 3.56545 0
M  V30 4008 N 385.784 -1.5574 0.241426 0
M  V30 4009 C 387.024 -2.00714 -0.38644 0
M  V30 4010 C 387.388 -1.12586 -1.55526 0
M  V30 4011 O 388.589 -1.46992 -2.25048 0
M  V30 4012 C 386.86 -3.48534 -0.791128 0
M  V30 4013 S 388.419 -4.15519 -1.41029 0
M  V30 4014 H 385.237 -0.700484 -0.121834 0
M  V30 4015 H 387.839 -1.92243 0.355377 0
M  V30 4016 H 386.543 -4.10342 0.0689225 0
M  V30 4017 H 386.074 -3.6092 -1.56526 0
M  V30 4018 H 388.089 -4.16352 -2.69936 0
M  V30 4019 N 387.262 0.0317525 -1.57568 0
M  V30 4020 C 388.508 0.724175 -1.8943 0
M  V30 4021 C 388.841 1.75149 -0.838836 0
M  V30 4022 O 388.116 1.93948 0.146422 0
M  V30 4023 C 388.399 1.39615 -3.31933 0
M  V30 4024 C 388.252 0.382537 -4.4817 0
M  V30 4025 C 389.571 2.33084 -3.73309 0
M  V30 4026 H 386.69 0.261797 -0.688935 0
M  V30 4027 H 389.332 -0.013017 -1.89996 0
M  V30 4028 H 387.482 2.02451 -3.31581 0
M  V30 4029 H 389.154 -0.243689 -4.60656 0
M  V30 4030 H 387.397 -0.29844 -4.32772 0
M  V30 4031 H 388.068 0.891145 -5.44759 0
M  V30 4032 H 390.544 1.80295 -3.7501 0
M  V30 4033 H 389.42 2.77084 -4.73831 0
M  V30 4034 H 389.681 3.19643 -3.05419 0
M  V30 4035 N 388.74 1.54641 0.303973 0
M  V30 4036 C 389.688 1.86137 1.39484 0
M  V30 4037 C 390.682 0.734854 1.52631 0
M  V30 4038 O 391.888 0.918803 1.54784 0
M  V30 4039 H 388.263 0.590324 0.465856 0
M  V30 4040 H 390.234 2.77324 1.10154 0
M  V30 4041 C 388.983 2.12274 2.75382 0
M  V30 4042 H 388.306 2.98429 2.66046 0
M  V30 4043 H 389.746 2.38254 3.5073 0
M  V30 4044 C 388.205 0.920365 3.24085 0
M  V30 4045 O 388.735 0.139377 4.01458 0
M  V30 4046 N 386.941 0.726566 2.81371 0
M  V30 4047 H 386.488 1.36332 2.18567 0
M  V30 4048 H 386.446 -0.0763799 3.14307 0
M  V30 4049 N 390.218 -0.567019 1.47046 0
M  V30 4050 C 391.168 -1.67018 1.55207 0
M  V30 4051 C 392.152 -1.55543 0.411714 0
M  V30 4052 O 393.344 -1.64192 0.661064 0
M  V30 4053 C 390.473 -3.05801 1.56014 0
M  V30 4054 C 389.559 -3.22515 2.75399 0
M  V30 4055 N 389.95 -3.09329 4.00186 0
M  V30 4056 C 388.248 -3.53493 2.71954 0
M  V30 4057 C 388.949 -3.2847 4.80086 0
M  V30 4058 N 387.925 -3.54352 4.12233 0
M  V30 4059 H 391.727 -1.55377 2.4947 0
M  V30 4060 H 389.241 -0.771503 1.42904 0
M  V30 4061 H 391.238 -3.84996 1.59949 0
M  V30 4062 H 389.898 -3.18561 0.628396 0
M  V30 4063 H 390.909 -2.86863 4.31196 0
M  V30 4064 H 387.586 -3.7284 1.87873 0
M  V30 4065 H 388.976 -3.23326 5.88991 0
M  V30 4066 N 391.696 -1.35014 -0.812953 0
M  V30 4067 C 392.921 -1.31187 -1.60639 0
M  V30 4068 C 393.346 0.109382 -1.87782 0
M  V30 4069 O 392.704 1.07424 -1.46047 0
M  V30 4070 C 392.752 -2.11809 -2.91838 0
M  V30 4071 O 391.856 -1.49444 -3.8437 0
M  V30 4072 H 391.197 -0.450084 -0.488181 0
M  V30 4073 H 393.727 -1.77963 -1.00947 0
M  V30 4074 H 393.737 -2.23531 -3.41318 0
M  V30 4075 H 392.412 -3.15137 -2.71407 0
M  V30 4076 H 390.989 -1.46524 -3.42907 0
M  V30 4077 N 393.175 1.03435 -1.18907 0
M  V30 4078 C 394.421 1.77005 -0.989798 0
M  V30 4079 C 394.754 1.88205 0.478816 0
M  V30 4080 O 394.029 1.39481 1.35556 0
M  V30 4081 C 394.312 3.19925 -1.65287 0
M  V30 4082 C 394.165 3.1663 -3.19477 0
M  V30 4083 C 395.484 4.18189 -1.37134 0
M  V30 4084 H 392.603 0.642538 -0.360991 0
M  V30 4085 H 395.245 1.20784 -1.46667 0
M  V30 4086 H 393.395 3.67929 -1.24741 0
M  V30 4087 H 395.067 2.76567 -3.692 0
M  V30 4088 H 393.31 2.54491 -3.51307 0
M  V30 4089 H 393.981 4.1758 -3.61013 0
M  V30 4090 H 396.457 3.78761 -1.72276 0
M  V30 4091 H 395.333 5.16394 -1.86087 0
M  V30 4092 H 395.594 4.41112 -0.295424 0
M  V30 4093 N 394.653 0.992116 1.22453 0
M  V30 4094 C 395.881 0.685944 1.95198 0
M  V30 4095 C 396.296 -0.749233 1.73297 0
M  V30 4096 O 395.653 -1.50549 1.03156 0
M  V30 4097 C 395.704 0.981395 3.47924 0
M  V30 4098 O 395.425 2.36018 3.6909 0
M  V30 4099 C 396.926 0.692815 4.37853 0
M  V30 4100 H 394.146 0.253821 0.621141 0
M  V30 4101 H 396.69 1.32668 1.55626 0
M  V30 4102 H 394.845 0.386481 3.85467 0
M  V30 4103 H 395.259 2.45884 4.63294 0
M  V30 4104 H 396.733 0.949818 5.43767 0
M  V30 4105 H 397.21 -0.373181 4.37612 0
M  V30 4106 H 397.816 1.26874 4.05935 0
M  V30 4107 N 396.131 -1.37776 0.765217 0
M  V30 4108 C 397.408 -1.93975 0.251596 0
M  V30 4109 C 397.788 -1.69949 -1.25222 0
M  V30 4110 O 397.136 -1.04457 -2.03226 0
M  V30 4111 C 397.346 -3.43487 0.617895 0
M  V30 4112 C 398.694 -4.20564 0.584029 0
M  V30 4113 O 399.718 -3.5182 0.556888 0
M  V30 4114 O 398.577 -5.43138 0.605291 0
M  V30 4115 H 395.671 -0.82509 0.0561806 0
M  V30 4116 H 398.217 -1.47101 0.846128 0
M  V30 4117 H 396.989 -3.5453 1.65602 0
M  V30 4118 H 396.612 -3.976 -0.00403411 0
M  V30 4119 N 397.609 -0.515225 -1.4894 0
M  V30 4120 C 398.519 0.259774 -2.33157 0
M  V30 4121 C 399.535 0.953501 -1.45548 0
M  V30 4122 O 400.711 0.931735 -1.78552 0
M  V30 4123 C 397.776 1.30193 -3.21326 0
M  V30 4124 C 396.837 0.620129 -4.24797 0
M  V30 4125 C 396.07 1.61263 -5.08753 0
M  V30 4126 O 396.293 2.84389 -4.94448 0
M  V30 4127 O 395.227 1.16013 -5.90614 0
M  V30 4128 H 399.053 -0.429932 -3.00641 0
M  V30 4129 H 396.638 -0.276346 -1.46822 0
M  V30 4130 H 398.52 1.90455 -3.75905 0
M  V30 4131 H 397.195 1.97431 -2.56521 0
M  V30 4132 H 396.102 -0.0226019 -3.74093 0
M  V30 4133 H 397.435 -0.0100493 -4.92199 0
M  V30 4134 N 399.087 1.5561 -0.249682 0
M  V30 4135 C 400.498 1.84979 0.252949 0
M  V30 4136 C 400.849 1.17153 1.57384 0
M  V30 4137 O 399.974 0.450884 2.11651 0
M  V30 4138 C 400.569 3.35584 0.465732 0
M  V30 4139 C 399.128 3.65169 0.912624 0
M  V30 4140 C 398.275 2.77299 -0.00859085 0
M  V30 4141 H 401.226 1.51513 -0.47217 0
M  V30 4142 H 401.247 3.57313 1.30795 0
M  V30 4143 H 400.759 3.8492 -0.49579 0
M  V30 4144 H 398.86 3.21312 1.88652 0
M  V30 4145 H 398.973 4.72912 0.767559 0
M  V30 4146 H 397.337 2.49678 0.50327 0
M  V30 4147 H 398.12 3.29442 -0.965537 0
M  V30 4148 N 400.565 -0.0233959 1.57583 0
M  V30 4149 C 401.976 -0.56927 1.77809 0
M  V30 4150 C 402.327 -1.75284 0.881472 0
M  V30 4151 O 401.452 -2.1626 0.0777805 0
M  V30 4152 C 402.047 -1.03949 3.22459 0
M  V30 4153 C 400.606 -1.53084 3.43864 0
M  V30 4154 C 399.753 -0.471454 2.73263 0
M  V30 4155 H 402.704 0.202825 1.57399 0
M  V30 4156 H 402.725 -1.90661 3.29285 0
M  V30 4157 H 402.237 -0.177865 3.87692 0
M  V30 4158 H 400.338 -2.41414 2.83814 0
M  V30 4159 H 400.451 -1.57443 4.52491 0
M  V30 4160 H 398.815 -0.927788 2.37201 0
M  V30 4161 H 399.598 0.380808 3.41181 0
M  V30 4162 N 402.043 -1.548 -0.295768 0
M  V30 4163 C 402.99 -1.86113 -1.36494 0
M  V30 4164 C 403.96 -0.7105 -1.50137 0
M  V30 4165 O 405.145 -0.959626 -1.64912 0
M  V30 4166 C 402.285 -2.11861 -2.72413 0
M  V30 4167 C 401.398 -3.39471 -2.67177 0
M  V30 4168 C 400.533 -3.55035 -3.95125 0
M  V30 4169 C 399.572 -4.76418 -3.84308 0
M  V30 4170 N 398.709 -4.8876 -5.04042 0
M  V30 4171 H 403.549 -2.77314 -1.09091 0
M  V30 4172 H 401.086 -1.37315 -0.52753 0
M  V30 4173 H 403.044 -2.24786 -3.51464 0
M  V30 4174 H 401.674 -1.2392 -2.98066 0
M  V30 4175 H 400.726 -3.35139 -1.79962 0
M  V30 4176 H 402.038 -4.28646 -2.55076 0
M  V30 4177 H 401.192 -3.67653 -4.82614 0
M  V30 4178 H 399.931 -2.64002 -4.10066 0
M  V30 4179 H 398.936 -4.63827 -2.95202 0
M  V30 4180 H 400.161 -5.68863 -3.70906 0
M  V30 4181 H 398.107 -4.00652 -5.19436 0
M  V30 4182 H 398.024 -5.71945 -4.94384 0
M  V30 4183 H 399.292 -5.0574 -5.93167 0
M  V30 4184 N 403.521 0.559213 -1.47345 0
M  V30 4185 C 404.454 1.68201 -1.5422 0
M  V30 4186 C 405.432 1.57742 -0.394497 0
M  V30 4187 O 406.616 1.78628 -0.60201 0
M  V30 4188 C 403.743 3.0643 -1.44285 0
M  V30 4189 C 402.789 3.3534 -2.63532 0
M  V30 4190 S 403.622 3.24816 -4.25741 0
M  V30 4191 C 404.778 4.65542 -4.18355 0
M  V30 4192 H 405.011 1.62114 -2.49211 0
M  V30 4193 H 402.544 0.739871 -1.35519 0
M  V30 4194 H 404.502 3.86164 -1.3924 0
M  V30 4195 H 403.163 3.09984 -0.506816 0
M  V30 4196 H 402.356 4.36107 -2.52639 0
M  V30 4197 H 401.958 2.63221 -2.65689 0
M  V30 4198 H 404.25 5.56449 -3.86485 0
M  V30 4199 H 405.193 4.81493 -5.19202 0
M  V30 4200 H 405.601 4.43495 -3.49246 0
M  V30 4201 N 404.999 1.35443 0.805782 0
M  V30 4202 C 405.949 1.24972 1.90699 0
M  V30 4203 C 406.933 0.144806 1.60247 0
M  V30 4204 O 408.125 0.376102 1.72958 0
M  V30 4205 C 405.254 1.02475 3.27649 0
M  V30 4206 C 404.34 2.17361 3.64164 0
M  V30 4207 N 404.731 3.42591 3.72109 0
M  V30 4208 C 403.029 2.08765 3.94123 0
M  V30 4209 C 403.73 4.18144 4.04389 0
M  V30 4210 N 402.706 3.4691 4.18515 0
M  V30 4211 H 406.508 2.19852 1.95044 0
M  V30 4212 H 404.022 1.27928 1.00041 0
M  V30 4213 H 406.019 0.930617 4.06381 0
M  V30 4214 H 404.679 0.0848009 3.24589 0
M  V30 4215 H 405.69 3.76932 3.55166 0
M  V30 4216 H 402.367 1.22629 3.99084 0
M  V30 4217 H 403.757 5.26367 4.17597 0
M  V30 4218 N 406.477 -1.02803 1.19454 0
M  V30 4219 C 407.717 -1.77769 1.00883 0
M  V30 4220 C 408.081 -1.86596 -0.45233 0
M  V30 4221 O 409.282 -2.57895 -0.757877 0
M  V30 4222 C 407.553 -3.16486 1.66046 0
M  V30 4223 S 409.112 -4.07632 1.62424 0
M  V30 4224 H 405.93 -0.611949 0.361993 0
M  V30 4225 H 408.532 -1.23175 1.51816 0
M  V30 4226 H 407.236 -3.0768 2.7159 0
M  V30 4227 H 406.767 -3.76156 1.15196 0
M  V30 4228 H 408.782 -4.91937 0.64903 0
M  V30 4229 N 407.956 -0.998596 -1.21925 0
M  V30 4230 C 409.181 -0.696015 -1.95372 0
M  V30 4231 C 409.606 0.733826 -1.73195 0
M  V30 4232 O 408.964 1.50242 -1.01474 0
M  V30 4233 C 409.012 -1.01466 -3.4603 0
M  V30 4234 O 408.116 -0.116415 -4.12236 0
M  V30 4235 H 407.457 -0.259938 -0.611006 0
M  V30 4236 H 409.987 -1.33711 -1.54863 0
M  V30 4237 H 409.997 -0.958855 -3.96573 0
M  V30 4238 H 408.672 -2.05653 -3.61497 0
M  V30 4239 H 407.249 -0.228193 -3.72201 0
M  V30 4240 N 409.434 1.37368 -0.772513 0
M  V30 4241 C 410.397 2.28601 -0.165541 0
M  V30 4242 C 411.397 1.48062 0.627238 0
M  V30 4243 O 412.587 1.68268 0.450715 0
M  V30 4244 C 409.719 3.32023 0.772897 0
M  V30 4245 H 410.912 2.83787 -0.969787 0
M  V30 4246 H 408.465 1.46647 -0.540775 0
M  V30 4247 H 409.2 2.81962 1.60212 0
M  V30 4248 H 408.985 3.91555 0.206585 0
M  V30 4249 H 410.475 4.00197 1.19298 0
M  V30 4250 N 410.912 0.523116 1.48665 0
M  V30 4251 C 411.822 -0.247406 2.33292 0
M  V30 4252 C 412.838 -0.945769 1.46052 0
M  V30 4253 O 414.014 -0.922253 1.79043 0
M  V30 4254 C 411.079 -1.28487 3.22012 0
M  V30 4255 C 410.14 -0.597592 4.2512 0
M  V30 4256 C 409.373 -1.58563 5.09601 0
M  V30 4257 O 409.596 -2.81763 4.95949 0
M  V30 4258 O 408.53 -1.12879 5.91221 0
M  V30 4259 H 412.356 0.445869 3.00409 0
M  V30 4260 H 409.941 0.284128 1.46673 0
M  V30 4261 H 411.823 -1.88459 3.7691 0
M  V30 4262 H 410.498 -1.96068 2.57564 0
M  V30 4263 H 409.405 0.0424407 3.74076 0
M  V30 4264 H 410.738 0.0361517 4.92187 0
M  V30 4265 N 412.39 -1.55475 0.257931 0
M  V30 4266 C 413.638 -1.98813 -0.363009 0
M  V30 4267 C 413.959 -1.14757 -1.57657 0
M  V30 4268 O 413.229 -0.232956 -1.9451 0
M  V30 4269 H 411.809 -0.734308 -0.137113 0
M  V30 4270 H 414.471 -1.9156 0.359281 0
M  V30 4271 H 413.567 -3.04941 -0.664634 0
M  V30 4272 N 413.868 0.0150385 -1.57593 0
M  V30 4273 C 414.778 1.02791 -2.10882 0
M  V30 4274 C 415.794 1.38702 -1.0506 0
M  V30 4275 O 416.97 1.47739 -1.36877 0
M  V30 4276 C 414.035 2.30568 -2.58919 0
M  V30 4277 C 413.096 2.01108 -3.79281 0
M  V30 4278 C 412.329 3.22794 -4.25018 0
M  V30 4279 O 412.552 4.33959 -3.70183 0
M  V30 4280 O 411.486 3.07672 -5.17322 0
M  V30 4281 H 415.312 0.604973 -2.97613 0
M  V30 4282 H 412.897 0.23292 -1.47573 0
M  V30 4283 H 414.779 3.05662 -2.90084 0
M  V30 4284 H 413.454 2.72129 -1.75293 0
M  V30 4285 H 412.361 1.23537 -3.53114 0
M  V30 4286 H 413.694 1.64394 -4.63935 0
M  V30 4287 N 415.346 1.54954 0.287554 0
M  V30 4288 C 416.592 1.76059 1.01856 0
M  V30 4289 C 416.947 0.547056 1.84459 0
M  V30 4290 O 416.24 -0.460442 1.85985 0
M  V30 4291 C 416.434 2.99833 1.94512 0
M  V30 4292 C 416.263 4.33108 1.21026 0
M  V30 4293 C 415.033 4.96632 0.931896 0
M  V30 4294 C 417.231 5.10694 0.607949 0
M  V30 4295 N 415.213 6.13668 0.168716 0
M  V30 4296 C 416.584 6.19996 -0.0217865 0
M  V30 4297 C 418.639 4.95236 0.514338 0
M  V30 4298 C 417.342 7.15524 -0.736092 0
M  V30 4299 C 419.368 5.91106 -0.186343 0
M  V30 4300 C 418.73 6.99786 -0.804875 0
M  V30 4301 H 414.829 0.696679 0.355193 0
M  V30 4302 H 417.413 1.92441 0.295741 0
M  V30 4303 H 415.584 2.84853 2.64033 0
M  V30 4304 H 417.316 3.09405 2.60865 0
M  V30 4305 H 414.071 4.57255 1.23348 0
M  V30 4306 H 414.495 6.76705 -0.199781 0
M  V30 4307 H 419.137 4.11328 0.978234 0
M  V30 4308 H 416.855 7.98964 -1.21172 0
M  V30 4309 H 420.441 5.81224 -0.258897 0
M  V30 4310 H 419.321 7.72694 -1.33843 0
M  V30 4311 N 416.824 -0.551391 1.4764 0
M  V30 4312 C 417.754 -1.66757 1.63445 0
M  V30 4313 C 418.735 -1.63077 0.483742 0
M  V30 4314 O 419.92 -1.80607 0.71377 0
M  V30 4315 C 417.05 -3.05387 1.65396 0
M  V30 4316 C 416.004 -3.23918 2.79752 0
M  V30 4317 C 415.33 -4.63393 2.66779 0
M  V30 4318 C 416.63 -3.08735 4.21284 0
M  V30 4319 H 418.324 -1.53786 2.56886 0
M  V30 4320 H 415.87 -0.738415 1.23626 0
M  V30 4321 H 417.823 -3.83325 1.75043 0
M  V30 4322 H 416.547 -3.19332 0.685195 0
M  V30 4323 H 415.206 -2.48391 2.69625 0
M  V30 4324 H 414.854 -4.74144 1.67918 0
M  V30 4325 H 414.554 -4.7674 3.43501 0
M  V30 4326 H 416.078 -5.43458 2.78364 0
M  V30 4327 H 417.492 -3.76484 4.32357 0
M  V30 4328 H 415.889 -3.33588 4.98838 0
M  V30 4329 H 416.959 -2.0541 4.39243 0
M  V30 4330 N 418.302 -1.35869 -0.798587 0
M  V30 4331 C 419.548 -1.2978 -1.55836 0
M  V30 4332 C 419.881 0.125322 -1.93795 0
M  V30 4333 O 419.156 1.07658 -1.61987 0
M  V30 4334 C 419.439 -2.21188 -2.84162 0
M  V30 4335 C 419.292 -3.72155 -2.52628 0
M  V30 4336 C 420.611 -2.11545 -3.85923 0
M  V30 4337 H 417.73 -0.472769 -0.565383 0
M  V30 4338 H 420.372 -1.66341 -0.918192 0
M  V30 4339 H 418.522 -1.90139 -3.38791 0
M  V30 4340 H 420.194 -4.13682 -2.04121 0
M  V30 4341 H 418.437 -3.92042 -1.85704 0
M  V30 4342 H 419.108 -4.31511 -3.44242 0
M  V30 4343 H 421.584 -2.38855 -3.40716 0
M  V30 4344 H 420.46 -2.77688 -4.73477 0
M  V30 4345 H 420.721 -1.09987 -4.282 0
M  V30 4346 N 419.78 1.02168 -1.19998 0
M  V30 4347 C 421.191 1.57135 -1.00825 0
M  V30 4348 C 421.542 1.91276 0.436818 0
M  V30 4349 O 420.667 1.71679 1.3174 0
M  V30 4350 C 421.262 2.85514 -1.82393 0
M  V30 4351 C 419.821 3.37027 -1.67601 0
M  V30 4352 C 418.968 2.10388 -1.80644 0
M  V30 4353 H 421.919 0.846106 -1.34264 0
M  V30 4354 H 421.94 3.56711 -1.32429 0
M  V30 4355 H 421.452 2.60634 -2.87561 0
M  V30 4356 H 419.553 3.66878 -0.650485 0
M  V30 4357 H 419.666 4.09572 -2.4857 0
M  V30 4358 H 418.03 2.22601 -1.23778 0
M  V30 4359 H 418.813 1.8794 -2.87286 0
M  V30 4360 N 421.258 1.00505 1.21394 0
M  V30 4361 C 422.507 0.683159 1.89778 0
M  V30 4362 C 422.82 -0.789471 1.7896 0
M  V30 4363 O 424.026 -1.22344 2.42372 0
M  V30 4364 C 422.482 1.17146 3.40301 0
M  V30 4365 C 422.09 2.67017 3.5973 0
M  V30 4366 C 423.834 0.924461 4.14311 0
M  V30 4367 C 421.741 3.09387 5.04017 0
M  V30 4368 H 420.671 0.25183 0.710702 0
M  V30 4369 H 423.322 1.21622 1.37406 0
M  V30 4370 H 421.704 0.566451 3.91928 0
M  V30 4371 H 422.878 3.32968 3.18542 0
M  V30 4372 H 421.193 2.89732 2.99073 0
M  V30 4373 H 423.79 1.21658 5.20676 0
M  V30 4374 H 424.133 -0.139286 4.16067 0
M  V30 4375 H 424.666 1.49226 3.6875 0
M  V30 4376 H 421.405 4.14989 5.07409 0
M  V30 4377 H 420.925 2.48149 5.46061 0
M  V30 4378 H 422.604 3.01371 5.72525 0
M  V30 4379 N 422.737 -1.36956 0.779787 0
M  V30 4380 C 423.985 -1.99097 0.347079 0
M  V30 4381 C 424.306 -1.62206 -1.08232 0
M  V30 4382 O 423.576 -0.891373 -1.74446 0
M  V30 4383 H 422.156 -0.736409 0.125342 0
M  V30 4384 H 424.818 -1.67308 0.999696 0
M  V30 4385 H 423.914 -3.09107 0.431162 0
M  V30 4386 N 424.215 -0.530993 -1.48385 0
M  V30 4387 C 425.162 0.231223 -2.29639 0
M  V30 4388 C 426.132 0.932864 -1.37429 0
M  V30 4389 O 427.317 0.933692 -1.66394 0
M  V30 4390 C 424.457 1.27155 -3.2082 0
M  V30 4391 C 423.57 0.578655 -4.28107 0
M  V30 4392 C 422.705 1.602 -5.06467 0
M  V30 4393 C 421.744 0.892625 -6.05556 0
M  V30 4394 N 420.881 1.86157 -6.76971 0
M  V30 4395 H 425.721 -0.467848 -2.94305 0
M  V30 4396 H 423.258 -0.242556 -1.45086 0
M  V30 4397 H 425.216 1.88703 -3.72085 0
M  V30 4398 H 423.846 1.939 -2.58075 0
M  V30 4399 H 422.898 -0.150782 -3.80101 0
M  V30 4400 H 424.21 0.0217065 -4.98795 0
M  V30 4401 H 423.364 2.29173 -5.61751 0
M  V30 4402 H 422.103 2.19285 -4.35621 0
M  V30 4403 H 421.108 0.188829 -5.49476 0
M  V30 4404 H 422.333 0.307878 -6.78402 0
M  V30 4405 H 420.279 2.44147 -6.08875 0
M  V30 4406 H 420.196 1.35608 -7.43738 0
M  V30 4407 H 421.464 2.54325 -7.36844 0
M  V30 4408 N 425.693 1.55336 -0.266172 0
M  V30 4409 C 426.933 2.01303 0.354459 0
M  V30 4410 C 427.297 1.15046 1.53715 0
M  V30 4411 O 428.498 1.50554 2.22681 0
M  V30 4412 C 426.769 3.49748 0.735579 0
M  V30 4413 S 428.328 4.1771 1.34401 0
M  V30 4414 H 425.146 0.702333 0.110674 0
M  V30 4415 H 427.748 1.91653 -0.385916 0
M  V30 4416 H 426.452 4.10181 -0.134196 0
M  V30 4417 H 425.983 3.63364 1.50764 0
M  V30 4418 H 427.998 4.20594 2.63278 0
M  V30 4419 N 427.171 -0.0066808 1.57599 0
M  V30 4420 C 428.104 -1.03397 2.03431 0
M  V30 4421 C 429.082 -1.33872 0.922877 0
M  V30 4422 O 430.266 -1.4615 1.19048 0
M  V30 4423 C 427.393 -2.36325 2.42628 0
M  V30 4424 C 426.439 -2.21557 3.64438 0
M  V30 4425 S 427.272 -1.54789 5.12641 0
M  V30 4426 C 428.428 -2.8916 5.55101 0
M  V30 4427 H 428.661 -0.643687 2.90248 0
M  V30 4428 H 426.194 -0.217349 1.52863 0
M  V30 4429 H 428.152 -3.12759 2.65879 0
M  V30 4430 H 426.813 -2.72495 1.56222 0
M  V30 4431 H 426.006 -3.1974 3.89592 0
M  V30 4432 H 425.608 -1.53267 3.41153 0
M  V30 4433 H 427.9 -3.8547 5.57153 0
M  V30 4434 H 428.843 -2.68713 6.55133 0
M  V30 4435 H 429.251 -2.92762 4.82649 0
M  V30 4436 N 428.649 -1.55105 -0.279332 0
M  V30 4437 C 429.889 -1.7716 -1.01949 0
M  V30 4438 C 430.253 -0.557511 -1.83728 0
M  V30 4439 O 431.454 -0.656198 -2.60667 0
M  V30 4440 C 429.725 -3.0372 -1.88385 0
M  V30 4441 S 431.284 -3.46868 -2.68752 0
M  V30 4442 H 428.102 -0.62253 -0.343478 0
M  V30 4443 H 430.704 -1.93329 -0.290572 0
M  V30 4444 H 429.408 -3.90184 -1.2722 0
M  V30 4445 H 428.939 -2.902 -2.65608 0
M  V30 4446 H 430.954 -3.05643 -3.90892 0
M  V30 4447 N 430.127 0.543554 -1.4793 0
M  V30 4448 C 431.074 1.64942 -1.6144 0
M  V30 4449 C 432.044 1.59692 -0.456903 0
M  V30 4450 O 433.229 1.78321 -0.678688 0
M  V30 4451 C 430.369 3.03238 -1.64744 0
M  V30 4452 C 429.482 3.18823 -2.91506 0
M  V30 4453 C 428.617 4.47599 -2.86057 0
M  V30 4454 C 427.656 4.56664 -4.07584 0
M  V30 4455 N 426.793 5.76811 -4.00292 0
M  V30 4456 H 431.633 1.52733 -2.55884 0
M  V30 4457 H 429.17 0.7438 -1.2691 0
M  V30 4458 H 431.128 3.83339 -1.64641 0
M  V30 4459 H 429.758 3.1425 -0.738017 0
M  V30 4460 H 428.81 2.32064 -3.01414 0
M  V30 4461 H 430.122 3.21384 -3.81463 0
M  V30 4462 H 429.276 5.35975 -2.84281 0
M  V30 4463 H 428.015 4.47538 -1.93807 0
M  V30 4464 H 427.02 3.66697 -4.09651 0
M  V30 4465 H 428.245 4.58474 -5.00978 0
M  V30 4466 H 426.191 5.77673 -3.10853 0
M  V30 4467 H 426.108 5.80808 -4.8394 0
M  V30 4468 H 427.376 6.67512 -4.02553 0
M  V30 4469 N 431.605 1.3629 0.791371 0
M  V30 4470 C 432.568 1.30309 1.88553 0
M  V30 4471 C 433.568 0.211204 1.59407 0
M  V30 4472 O 434.758 0.465865 1.67855 0
M  V30 4473 C 431.89 1.01956 3.25297 0
M  V30 4474 H 433.083 2.27614 1.95273 0
M  V30 4475 H 430.636 1.21035 0.988953 0
M  V30 4476 H 431.371 0.050998 3.2426 0
M  V30 4477 H 431.156 1.80968 3.4784 0
M  V30 4478 H 432.646 1.0037 4.05359 0
M  V30 4479 N 433.083 -1.0153 1.20538 0
M  V30 4480 C 434.331 -1.74803 1.01432 0
M  V30 4481 C 434.652 -1.8963 -0.454456 0
M  V30 4482 O 433.922 -1.43975 -1.32846 0
M  V30 4483 H 432.502 -0.647598 0.372324 0
M  V30 4484 H 435.164 -1.22402 1.5167 0
M  V30 4485 H 434.26 -2.75114 1.47373 0
M  V30 4486 N 434.561 -1.01147 -1.20859 0
M  V30 4487 C 435.791 -0.715872 -1.93801 0
M  V30 4488 C 436.199 0.726592 -1.74692 0
M  V30 4489 O 435.542 1.50397 -1.05482 0
M  V30 4490 C 435.604 -0.965269 -3.46299 0
M  V30 4491 C 435.268 -2.39584 -3.89164 0
M  V30 4492 C 436.265 -3.3764 -3.95342 0
M  V30 4493 C 433.95 -2.73522 -4.21297 0
M  V30 4494 C 435.944 -4.67698 -4.33056 0
M  V30 4495 C 433.631 -4.03794 -4.58687 0
M  V30 4496 C 434.629 -5.00693 -4.64538 0
M  V30 4497 O 434.317 -6.28635 -5.01072 0
M  V30 4498 H 434.049 -0.262524 -0.622942 0
M  V30 4499 H 436.603 -1.35413 -1.54443 0
M  V30 4500 H 434.833 -0.269847 -3.85757 0
M  V30 4501 H 436.522 -0.662051 -4.00464 0
M  V30 4502 H 437.288 -3.12757 -3.70686 0
M  V30 4503 H 433.167 -1.9879 -4.15937 0
M  V30 4504 H 436.711 -5.4333 -4.37537 0
M  V30 4505 H 432.608 -4.28459 -4.82797 0
M  V30 4506 H 433.376 -6.32847 -5.19083 0
M  V30 4507 N 436.039 1.36541 -0.78704 0
M  V30 4508 C 436.949 2.3387 -0.184896 0
M  V30 4509 C 437.965 1.60927 0.661697 0
M  V30 4510 O 439.141 1.92927 0.57804 0
M  V30 4511 C 436.206 3.40122 0.672145 0
M  V30 4512 C 435.267 4.28867 -0.19267 0
M  V30 4513 C 434.5 5.30045 0.623561 0
M  V30 4514 O 434.723 5.39232 1.8597 0
M  V30 4515 O 433.657 6.01895 0.0247068 0
M  V30 4516 H 437.483 2.87126 -0.989562 0
M  V30 4517 H 435.068 1.38969 -0.548455 0
M  V30 4518 H 436.95 4.05093 1.16094 0
M  V30 4519 H 435.625 2.89169 1.45474 0
M  V30 4520 H 434.532 3.66945 -0.728166 0
M  V30 4521 H 435.865 4.83165 -0.938722 0
M  V30 4522 N 437.518 0.538854 1.48102 0
M  V30 4523 C 438.428 -0.222648 2.33541 0
M  V30 4524 C 439.444 -0.930225 1.47047 0
M  V30 4525 O 440.62 -0.903211 1.80011 0
M  V30 4526 C 437.685 -1.25064 3.23357 0
M  V30 4527 C 436.746 -0.552469 4.2573 0
M  V30 4528 C 435.979 -1.53149 5.11254 0
M  V30 4529 O 436.202 -2.76487 4.9891 0
M  V30 4530 O 435.136 -1.06602 5.92385 0
M  V30 4531 H 438.962 0.477707 2.99919 0
M  V30 4532 H 436.547 0.299669 1.46364 0
M  V30 4533 H 438.429 -1.8445 3.78888 0
M  V30 4534 H 437.104 -1.93325 2.59629 0
M  V30 4535 H 436.011 0.082114 3.7401 0
M  V30 4536 H 437.344 0.0883526 4.92121 0
M  V30 4537 N 438.996 -1.55193 0.274407 0
M  V30 4538 C 439.943 -2.225 -0.613374 0
M  V30 4539 C 440.913 -1.19823 -1.15029 0
M  V30 4540 O 442.098 -1.48362 -1.19973 0
M  V30 4541 C 439.238 -2.94927 -1.79199 0
M  V30 4542 C 438.351 -4.12322 -1.28899 0
M  V30 4543 C 437.486 -4.72394 -2.42934 0
M  V30 4544 C 436.525 -5.81984 -1.89634 0
M  V30 4545 N 435.662 -6.36123 -2.9714 0
M  V30 4546 H 440.502 -2.97982 -0.032756 0
M  V30 4547 H 438.039 -1.47099 -0.00440146 0
M  V30 4548 H 439.997 -3.35134 -2.48478 0
M  V30 4549 H 438.627 -2.2187 -2.34465 0
M  V30 4550 H 437.679 -3.7724 -0.489327 0
M  V30 4551 H 438.991 -4.91355 -0.858587 0
M  V30 4552 H 438.145 -5.15317 -3.20208 0
M  V30 4553 H 436.884 -3.92636 -2.8929 0
M  V30 4554 H 435.889 -5.38511 -1.1084 0
M  V30 4555 H 437.114 -6.6361 -1.44215 0
M  V30 4556 H 435.06 -5.59259 -3.42878 0
M  V30 4557 H 434.977 -7.10427 -2.58515 0
M  V30 4558 H 436.245 -6.83704 -3.74391 0
M  V30 4559 N 440.474 -0.00167713 -1.576 0
M  V30 4560 C 441.422 1.0074 -2.09652 0
M  V30 4561 C 442.416 1.35483 -1.01689 0
M  V30 4562 O 443.622 1.34028 -1.20152 0
M  V30 4563 H 439.997 0.342537 -0.669457 0
M  V30 4564 H 441.968 0.542841 -2.93421 0
M  V30 4565 C 440.717 2.2899 -2.61647 0
M  V30 4566 H 440.04 2.03124 -3.44355 0
M  V30 4567 H 441.48 2.9787 -3.01744 0
M  V30 4568 C 439.939 3.00085 -1.53136 0
M  V30 4569 O 440.469 3.91135 -0.91524 0
M  V30 4570 N 438.675 2.6194 -1.25841 0
M  V30 4571 H 438.222 1.8798 -1.76129 0
M  V30 4572 H 438.18 3.09822 -0.534576 0
M  V30 4573 N 441.952 1.55251 0.271103 0
M  V30 4574 C 443.2 1.75599 1.00047 0
M  V30 4575 C 443.521 0.561188 1.8675 0
M  V30 4576 O 442.791 -0.423846 1.9126 0
M  V30 4577 H 441.371 0.647562 0.372387 0
M  V30 4578 H 444.033 1.92656 0.294876 0
M  V30 4579 H 443.129 2.65766 1.6363 0
M  V30 4580 N 443.43 -0.535701 1.48216 0
M  V30 4581 C 444.658 -1.31671 1.59594 0
M  V30 4582 C 445.073 -1.87083 0.254056 0
M  V30 4583 O 444.43 -1.66112 -0.755854 0
M  V30 4584 C 444.481 -2.47158 2.63809 0
M  V30 4585 O 444.202 -1.94032 3.92789 0
M  V30 4586 C 445.703 -3.39062 2.85573 0
M  V30 4587 H 442.923 -0.400623 0.538277 0
M  V30 4588 H 445.467 -0.646827 1.94001 0
M  V30 4589 H 443.622 -3.10043 2.32276 0
M  V30 4590 H 444.036 -2.69585 4.49916 0
M  V30 4591 H 445.51 -4.16459 3.62306 0
M  V30 4592 H 445.987 -3.93941 1.94184 0
M  V30 4593 H 446.593 -2.81975 3.18387 0
M  V30 4594 N 444.908 -1.36708 -0.784132 0
M  V30 4595 C 446.148 -1.32618 -1.55537 0
M  V30 4596 C 446.512 0.0920681 -1.91779 0
M  V30 4597 O 447.713 0.257573 -2.67563 0
M  V30 4598 C 445.984 -2.22788 -2.79464 0
M  V30 4599 S 447.543 -2.36432 -3.69656 0
M  V30 4600 H 444.361 -0.470973 -0.53264 0
M  V30 4601 H 446.963 -1.72333 -0.92312 0
M  V30 4602 H 445.667 -3.24774 -2.50899 0
M  V30 4603 H 445.198 -1.84112 -3.47658 0
M  V30 4604 H 447.213 -1.56573 -4.7085 0
M  V30 4605 N 446.386 1.0089 -1.21074 0
M  V30 4606 C 447.318 2.09737 -0.924291 0
M  V30 4607 C 448.331 1.62546 0.0909809 0
M  V30 4608 O 449.52 1.77942 -0.141021 0
M  V30 4609 C 446.62 3.36922 -0.36559 0
M  V30 4610 C 445.793 4.13216 -1.43426 0
M  V30 4611 C 444.852 5.18696 -0.885496 0
M  V30 4612 O 443.878 5.47176 -1.56801 0
M  V30 4613 N 445.08 5.79718 0.301227 0
M  V30 4614 H 447.845 2.34895 -1.8613 0
M  V30 4615 H 445.406 1.17341 -1.11546 0
M  V30 4616 H 447.398 4.04697 0.0158407 0
M  V30 4617 H 445.968 3.08952 0.476149 0
M  V30 4618 H 445.188 3.40301 -1.9897 0
M  V30 4619 H 446.476 4.60967 -2.15376 0
M  V30 4620 H 445.874 5.58926 0.872849 0
M  V30 4621 H 444.431 6.48804 0.624211 0
M  V30 4622 N 447.864 1.01787 1.20321 0
M  V30 4623 C 449.11 0.708985 1.90003 0
M  V30 4624 C 449.443 -0.759572 1.78729 0
M  V30 4625 O 448.718 -1.55198 1.17234 0
M  V30 4626 C 449.001 1.1469 3.41348 0
M  V30 4627 C 448.854 2.67586 3.61549 0
M  V30 4628 C 450.173 0.71915 4.34185 0
M  V30 4629 H 447.292 0.259034 0.689978 0
M  V30 4630 H 449.934 1.26584 1.41692 0
M  V30 4631 H 448.084 0.673128 3.82624 0
M  V30 4632 H 449.756 3.22826 3.29517 0
M  V30 4633 H 447.999 3.085 3.04976 0
M  V30 4634 H 448.67 2.93281 4.67643 0
M  V30 4635 H 451.146 1.12647 4.00562 0
M  V30 4636 H 450.022 1.05358 5.38694 0
M  V30 4637 H 450.283 -0.379111 4.40472 0
M  V30 4638 N 449.342 -1.36122 0.79427 0
M  V30 4639 C 450.582 -2.00942 0.374376 0
M  V30 4640 C 450.946 -1.61666 -1.03577 0
M  V30 4641 O 452.147 -2.19113 -1.55701 0
M  V30 4642 C 450.418 -3.53323 0.538327 0
M  V30 4643 S 451.977 -4.38311 0.20703 0
M  V30 4644 H 448.795 -0.696515 0.142785 0
M  V30 4645 H 451.397 -1.65929 1.03382 0
M  V30 4646 H 450.101 -3.79395 1.56484 0
M  V30 4647 H 449.632 -3.93162 -0.136882 0
M  V30 4648 H 451.647 -4.8623 -0.989695 0
M  V30 4649 N 450.82 -0.546701 -1.47814 0
M  V30 4650 C 452.236 -0.205717 -1.58269 0
M  V30 4651 C 452.436 1.29153 -1.54667 0
M  V30 4652 O 451.492 2.07098 -1.44453 0
M  V30 4653 C 452.805 -0.823065 -2.89216 0
M  V30 4654 C 454.353 -0.793328 -3.02779 0
M  V30 4655 C 454.828 -1.38955 -4.36412 0
M  V30 4656 N 456.319 -1.35227 -4.43021 0
M  V30 4657 C 457.054 -1.78333 -5.44963 0
M  V30 4658 N 456.55 -2.29246 -6.53772 0
M  V30 4659 N 458.343 -1.69467 -5.35945 0
M  V30 4660 H 450.494 -1.5196 -1.48398 0
M  V30 4661 H 452.757 -0.633078 -0.705632 0
M  V30 4662 H 452.463 -1.8749 -2.97558 0
M  V30 4663 H 452.337 -0.309915 -3.75925 0
M  V30 4664 H 454.724 0.249784 -2.94041 0
M  V30 4665 H 454.805 -1.34412 -2.17639 0
M  V30 4666 H 454.449 -2.43168 -4.45906 0
M  V30 4667 H 454.379 -0.814291 -5.20266 0
M  V30 4668 H 456.87 -0.979739 -3.64979 0
M  V30 4669 H 457.183 -2.60089 -7.27718 0
M  V30 4670 H 455.528 -2.3325 -6.5469 0
M  V30 4671 H 458.719 -1.29477 -4.49837 0
M  V30 4672 H 458.892 -2.03381 -6.15256 0
M  V30 4673 N 452.299 1.55045 -0.282633 0
M  V30 4674 C 453.71 1.85473 0.213655 0
M  V30 4675 C 454.061 1.20465 1.54863 0
M  V30 4676 O 453.186 0.495676 2.10647 0
M  V30 4677 C 453.781 3.36496 0.394445 0
M  V30 4678 C 452.34 3.67022 0.834961 0
M  V30 4679 C 451.487 2.77218 -0.0674081 0
M  V30 4680 H 454.438 1.50478 -0.504202 0
M  V30 4681 H 454.459 3.60007 1.23186 0
M  V30 4682 H 453.971 3.83782 -0.577326 0
M  V30 4683 H 452.072 3.25241 1.81794 0
M  V30 4684 H 452.185 4.74433 0.667075 0
M  V30 4685 H 450.549 2.5069 0.450196 0
M  V30 4686 H 451.332 3.2732 -1.0352 0
M  V30 4687 N 453.777 0.010035 1.57597 0
M  V30 4688 C 455.025 -0.671371 1.90623 0
M  V30 4689 C 455.346 -1.73753 0.885151 0
M  V30 4690 O 454.616 -1.95752 -0.0760611 0
M  V30 4691 H 453.196 -0.250968 0.703579 0
M  V30 4692 H 455.858 0.0533325 1.94827 0
M  V30 4693 H 454.954 -1.13626 2.90681 0
M  V30 4694 N 455.255 -1.55392 -0.262866 0
M  V30 4695 C 456.502 -1.76476 -0.993109 0
M  V30 4696 C 456.83 -0.571479 -1.85915 0
M  V30 4697 O 456.085 0.445733 -1.90556 0
M  V30 4698 C 456.384 -3.02889 -1.89718 0
M  V30 4699 C 456.05 -4.34974 -1.18781 0
M  V30 4700 C 454.712 -4.7087 -0.991699 0
M  V30 4701 C 457.064 -5.16695 -0.683798 0
M  V30 4702 C 454.392 -5.86036 -0.279024 0
M  V30 4703 C 456.744 -6.32598 0.0153327 0
M  V30 4704 C 455.408 -6.67127 0.223062 0
M  V30 4705 H 454.678 -0.64577 -0.363404 0
M  V30 4706 H 457.325 -1.89664 -0.264525 0
M  V30 4707 H 455.63 -2.84644 -2.6923 0
M  V30 4708 H 457.327 -3.16399 -2.46359 0
M  V30 4709 H 453.917 -4.06765 -1.35058 0
M  V30 4710 H 458.101 -4.8943 -0.8229 0
M  V30 4711 H 453.357 -6.11306 -0.107456 0
M  V30 4712 H 457.531 -6.95171 0.413584 0
M  V30 4713 H 455.158 -7.56216 0.777265 0
M  V30 4714 N 456.733 0.527833 -1.48498 0
M  V30 4715 C 457.98 1.28354 -1.56625 0
M  V30 4716 C 458.308 1.93 -0.241096 0
M  V30 4717 O 457.563 1.79967 0.768798 0
M  V30 4718 C 457.862 2.39275 -2.65485 0
M  V30 4719 C 457.528 1.92268 -4.07853 0
M  V30 4720 C 456.19 1.79166 -4.46602 0
M  V30 4721 C 458.542 1.56771 -4.97064 0
M  V30 4722 C 455.87 1.28905 -5.72364 0
M  V30 4723 C 458.222 1.07972 -6.23318 0
M  V30 4724 C 456.886 0.934887 -6.60921 0
M  V30 4725 H 456.156 0.469682 -0.573131 0
M  V30 4726 H 458.803 0.588781 -1.82224 0
M  V30 4727 H 457.108 3.1443 -2.33754 0
M  V30 4728 H 458.805 2.974 -2.68988 0
M  V30 4729 H 455.395 2.03417 -3.77252 0
M  V30 4730 H 459.579 1.65753 -4.67803 0
M  V30 4731 H 454.835 1.16381 -6.00221 0
M  V30 4732 H 459.009 0.795775 -6.91838 0
M  V30 4733 H 456.636 0.543231 -7.58257 0
M  V30 4734 N 458.211 1.37122 0.776871 0
M  V30 4735 C 459.158 1.3247 1.88998 0
M  V30 4736 C 460.128 0.191143 1.64997 0
M  V30 4737 O 461.313 0.379683 1.86984 0
M  V30 4738 C 458.453 1.13241 3.25992 0
M  V30 4739 C 457.566 2.35782 3.61982 0
M  V30 4740 C 456.701 2.09465 4.88158 0
M  V30 4741 C 455.74 3.279 5.16864 0
M  V30 4742 N 454.877 3.01167 6.34226 0
M  V30 4743 H 459.717 2.27642 1.9231 0
M  V30 4744 H 457.254 1.13125 0.94027 0
M  V30 4745 H 459.212 1.00115 4.0501 0
M  V30 4746 H 457.842 0.217186 3.22069 0
M  V30 4747 H 456.894 2.59666 2.77989 0
M  V30 4748 H 458.206 3.24125 3.79137 0
M  V30 4749 H 457.36 1.93341 5.75069 0
M  V30 4750 H 456.099 1.18452 4.73097 0
M  V30 4751 H 455.104 3.44569 4.2843 0
M  V30 4752 H 456.329 4.19757 5.33836 0
M  V30 4753 H 454.275 2.12779 6.20533 0
M  V30 4754 H 454.192 3.83052 6.51772 0
M  V30 4755 H 455.46 2.88649 7.24087 0
M  V30 4756 N 459.689 -1.00246 1.21608 0
M  V30 4757 C 460.652 -2.07233 0.979133 0
M  V30 4758 C 461.652 -1.6072 -0.0508219 0
M  V30 4759 O 462.842 -1.73196 0.186712 0
M  V30 4760 C 459.974 -3.37546 0.477016 0
M  V30 4761 H 461.167 -2.29687 1.92831 0
M  V30 4762 H 458.72 -1.17261 1.03342 0
M  V30 4763 H 459.455 -3.20773 -0.476966 0
M  V30 4764 H 459.24 -3.72638 1.21997 0
M  V30 4765 H 460.73 -4.16285 0.331181 0
M  V30 4766 N 461.167 -1.02423 -1.1978 0
M  V30 4767 C 462.392 -0.7373 -1.93852 0
M  V30 4768 C 462.817 0.696923 -1.74713 0
M  V30 4769 O 462.175 1.48056 -1.04638 0
M  V30 4770 C 462.223 -1.08783 -3.438 0
M  V30 4771 O 461.327 -0.20383 -4.11896 0
M  V30 4772 H 460.668 -0.27284 -0.605355 0
M  V30 4773 H 463.198 -1.36966 -1.51992 0
M  V30 4774 H 463.208 -1.04276 -3.9445 0
M  V30 4775 H 461.883 -2.13274 -3.57053 0
M  V30 4776 H 460.46 -0.307091 -3.71633 0
M  V30 4777 N 462.645 1.35699 -0.801477 0
M  V30 4778 C 464.056 1.81415 -0.441073 0
M  V30 4779 C 464.407 1.66595 1.03636 0
M  V30 4780 O 463.532 1.19369 1.80499 0
M  V30 4781 C 464.127 3.29369 -0.793819 0
M  V30 4782 C 462.686 3.73248 -0.486083 0
M  V30 4783 C 461.833 2.57775 -1.02213 0
M  V30 4784 H 464.784 1.23749 -0.993572 0
M  V30 4785 H 464.805 3.80395 -0.0894158 0
M  V30 4786 H 464.317 3.40123 -1.86917 0
M  V30 4787 H 462.418 3.68046 0.580735 0
M  V30 4788 H 462.531 4.68222 -1.01513 0
M  V30 4789 H 460.895 2.50788 -0.444712 0
M  V30 4790 H 461.678 2.71309 -2.10348 0
M  V30 4791 N 464.123 0.554532 1.47522 0
M  V30 4792 C 465.073 -0.215008 2.26984 0
M  V30 4793 C 466.057 -0.88774 1.34194 0
M  V30 4794 O 467.249 -0.786489 1.58567 0
M  V30 4795 C 464.378 -1.24604 3.19889 0
M  V30 4796 C 463.464 -0.576857 4.20159 0
M  V30 4797 N 463.855 0.351541 5.04577 0
M  V30 4798 C 462.153 -0.831104 4.38188 0
M  V30 4799 C 462.854 0.739995 5.76974 0
M  V30 4800 N 461.83 0.0954407 5.43516 0
M  V30 4801 H 465.632 0.498843 2.89636 0
M  V30 4802 H 463.146 0.374279 1.58028 0
M  V30 4803 H 465.143 -1.81128 3.75498 0
M  V30 4804 H 463.803 -1.96101 2.58794 0
M  V30 4805 H 464.814 0.725556 5.12792 0
M  V30 4806 H 461.491 -1.53479 3.88266 0
M  V30 4807 H 462.881 1.50271 6.5488 0
M  V30 4808 N 465.601 -1.54893 0.290851 0
M  V30 4809 C 466.85 -1.99111 -0.322113 0
M  V30 4810 C 467.163 -1.18283 -1.55784 0
M  V30 4811 O 468.369 -1.5272 -2.24475 0
M  V30 4812 C 466.825 -3.54442 -0.624438 0
M  V30 4813 C 466.433 -4.44066 0.592373 0
M  V30 4814 C 468.177 -4.07211 -1.19916 0
M  V30 4815 C 466.084 -5.90812 0.263762 0
M  V30 4816 H 465.014 -0.743712 -0.124133 0
M  V30 4817 H 467.665 -1.79132 0.39797 0
M  V30 4818 H 466.047 -3.70281 -1.40384 0
M  V30 4819 H 467.221 -4.39999 1.36886 0
M  V30 4820 H 465.536 -4.02015 1.08502 0
M  V30 4821 H 468.133 -5.14407 -1.45909 0
M  V30 4822 H 468.476 -3.57196 -2.13815 0
M  V30 4823 H 469.009 -3.94873 -0.481687 0
M  V30 4824 H 465.748 -6.44955 1.17105 0
M  V30 4825 H 465.268 -5.97911 -0.475655 0
M  V30 4826 H 466.947 -6.46852 -0.138354 0
M  V30 4827 N 467.08 -0.0183926 -1.57589 0
M  V30 4828 C 468.012 0.995557 -2.06449 0
M  V30 4829 C 469.025 1.29556 -0.985849 0
M  V30 4830 O 470.214 1.2621 -1.26227 0
M  V30 4831 C 467.314 2.32572 -2.46502 0
M  V30 4832 C 466.487 2.21245 -3.77319 0
M  V30 4833 C 465.546 3.37104 -4.04039 0
M  V30 4834 O 464.572 3.14468 -4.74445 0
M  V30 4835 N 465.774 4.60553 -3.53372 0
M  V30 4836 H 468.539 0.578746 -2.94059 0
M  V30 4837 H 466.1 0.168603 -1.6102 0
M  V30 4838 H 468.092 3.08887 -2.61478 0
M  V30 4839 H 466.662 2.65931 -1.64315 0
M  V30 4840 H 465.882 1.29723 -3.72244 0
M  V30 4841 H 467.17 2.10868 -4.63047 0
M  V30 4842 H 466.568 4.81839 -2.96391 0
M  V30 4843 H 465.125 5.34072 -3.73644 0
M  V30 4844 N 468.558 1.5553 0.254621 0
M  V30 4845 C 469.783 1.81383 1.00573 0
M  V30 4846 C 470.208 0.594419 1.78461 0
M  V30 4847 O 469.566 -0.456403 1.75461 0
M  V30 4848 C 469.614 3.04892 1.92545 0
M  V30 4849 O 468.718 2.81266 3.01601 0
M  V30 4850 H 468.059 0.598969 0.286587 0
M  V30 4851 H 470.589 2.02703 0.277952 0
M  V30 4852 H 470.599 3.34119 2.34155 0
M  V30 4853 H 469.274 3.93287 1.3527 0
M  V30 4854 H 467.851 2.63185 2.64174 0
M  V30 4855 N 470.036 -0.519951 1.48776 0
M  V30 4856 C 471.276 -1.2856 1.58908 0
M  V30 4857 C 471.64 -1.90212 0.261418 0
M  V30 4858 O 472.841 -2.67746 0.237791 0
M  V30 4859 C 471.112 -2.33836 2.70288 0
M  V30 4860 S 472.671 -3.19992 3.0025 0
M  V30 4861 H 469.489 -0.43717 0.560717 0
M  V30 4862 H 472.091 -0.591205 1.86346 0
M  V30 4863 H 470.795 -1.87041 3.653 0
M  V30 4864 H 470.326 -3.07969 2.44783 0
M  V30 4865 H 472.341 -4.34122 2.40317 0
M  V30 4866 N 471.514 -1.37532 -0.769588 0
M  V30 4867 C 472.762 -1.32597 -1.5252 0
M  V30 4868 C 473.083 0.0884294 -1.94799 0
M  V30 4869 O 472.353 1.03289 -1.66458 0
M  V30 4870 H 470.933 -0.487846 -0.565699 0
M  V30 4871 H 473.595 -1.72044 -0.915806 0
M  V30 4872 H 472.691 -1.96643 -2.42359 0
M  V30 4873 N 472.992 0.995999 -1.22138 0
M  V30 4874 C 473.939 2.08551 -0.988687 0
M  V30 4875 C 474.909 1.65864 0.0885021 0
M  V30 4876 O 476.094 1.90704 -0.0604589 0
M  V30 4877 C 473.234 3.40374 -0.569191 0
M  V30 4878 C 472.347 3.96421 -1.71681 0
M  V30 4879 C 471.482 5.1639 -1.2456 0
M  V30 4880 C 470.521 5.64567 -2.36497 0
M  V30 4881 N 469.658 6.75777 -1.90445 0
M  V30 4882 H 474.498 2.2779 -1.92135 0
M  V30 4883 H 472.035 1.1168 -0.957388 0
M  V30 4884 H 473.993 4.16068 -0.307166 0
M  V30 4885 H 472.623 3.21145 0.326462 0
M  V30 4886 H 471.675 3.17628 -2.09324 0
M  V30 4887 H 472.987 4.2816 -2.55891 0
M  V30 4888 H 472.141 5.99362 -0.940774 0
M  V30 4889 H 470.88 4.86266 -0.373662 0
M  V30 4890 H 469.885 4.80185 -2.67772 0
M  V30 4891 H 471.11 5.96716 -3.24202 0
M  V30 4892 H 469.056 6.47443 -1.05609 0
M  V30 4893 H 468.973 7.06818 -2.68223 0
M  V30 4894 H 470.241 7.62262 -1.63022 0
M  V30 4895 N 474.47 1.03057 1.19235 0
M  V30 4896 C 475.71 0.736757 1.9066 0
M  V30 4897 C 476.074 -0.721521 1.77927 0
M  V30 4898 O 477.275 -1.12849 2.43964 0
M  V30 4899 C 475.546 1.17755 3.37444 0
M  V30 4900 S 477.105 1.00783 4.27069 0
M  V30 4901 H 473.923 0.268174 0.658486 0
M  V30 4902 H 476.525 1.32076 1.4414 0
M  V30 4903 H 475.229 2.23448 3.44237 0
M  V30 4904 H 474.76 0.586912 3.88997 0
M  V30 4905 H 476.775 -0.0806356 4.96134 0
M  V30 4906 N 475.948 -1.35272 0.808662 0
M  V30 4907 C 477.359 -1.81179 0.450688 0
M  V30 4908 C 477.71 -1.67143 -1.02751 0
M  V30 4909 O 476.835 -1.20325 -1.79864 0
M  V30 4910 C 477.43 -3.28943 0.811275 0
M  V30 4911 C 475.989 -3.72985 0.505871 0
M  V30 4912 C 475.136 -2.57229 1.03578 0
M  V30 4913 H 478.087 -1.2322 1.00012 0
M  V30 4914 H 478.108 -3.80342 0.109588 0
M  V30 4915 H 477.62 -3.39127 1.88718 0
M  V30 4916 H 475.721 -3.68349 -0.561209 0
M  V30 4917 H 475.834 -4.67677 1.03995 0
M  V30 4918 H 474.198 -2.50548 0.458005 0
M  V30 4919 H 474.981 -2.7019 2.11784 0
M  V30 4920 N 477.426 -0.562348 -1.47226 0
M  V30 4921 C 478.837 -0.130325 -1.86245 0
M  V30 4922 C 479.188 1.30128 -1.46838 0
M  V30 4923 O 478.313 1.97974 -0.873805 0
M  V30 4924 C 478.908 -0.229738 -3.3802 0
M  V30 4925 C 477.467 0.14728 -3.76112 0
M  V30 4926 C 476.614 -0.574971 -2.71274 0
M  V30 4927 H 479.565 -0.771773 -1.3867 0
M  V30 4928 H 479.586 0.550316 -3.76499 0
M  V30 4929 H 479.098 -1.27178 -3.66671 0
M  V30 4930 H 477.199 1.19023 -3.53078 0
M  V30 4931 H 477.312 -0.214858 -4.78618 0
M  V30 4932 H 475.676 -0.0174756 -2.54694 0
M  V30 4933 H 476.459 -1.61827 -3.02766 0
M  V30 4934 N 478.904 1.54736 -0.299062 0
M  V30 4935 C 479.854 2.20155 0.592932 0
M  V30 4936 C 480.838 1.1739 1.10038 0
M  V30 4937 O 482.03 1.43116 1.04147 0
M  V30 4938 C 479.159 2.94437 1.76527 0
M  V30 4939 C 478.245 4.04516 1.27388 0
M  V30 4940 N 478.636 5.03319 0.500339 0
M  V30 4941 C 476.934 4.18022 1.55478 0
M  V30 4942 C 477.635 5.81209 0.238909 0
M  V30 4943 N 476.611 5.37408 0.818163 0
M  V30 4944 H 480.413 2.93899 -0.00563596 0
M  V30 4945 H 477.927 1.62068 -0.103732 0
M  V30 4946 H 479.924 3.3977 2.41582 0
M  V30 4947 H 478.584 2.22209 2.36756 0
M  V30 4948 H 479.595 5.17696 0.145419 0
M  V30 4949 H 476.272 3.56998 2.16469 0
M  V30 4950 H 477.662 6.70812 -0.382223 0
M  V30 4951 N 480.382 0.0267497 1.57577 0
M  V30 4952 C 481.607 -0.666227 1.96408 0
M  V30 4953 C 482.032 -1.65004 0.903071 0
M  V30 4954 O 481.39 -1.80787 -0.136263 0
M  V30 4955 C 481.438 -1.35101 3.34335 0
M  V30 4956 O 480.542 -2.46623 3.30531 0
M  V30 4957 H 479.883 -0.175206 0.640468 0
M  V30 4958 H 482.413 0.0878977 2.04411 0
M  V30 4959 H 482.423 -1.70834 3.70513 0
M  V30 4960 H 481.098 -0.629844 4.11103 0
M  V30 4961 H 479.675 -2.13019 3.06068 0
M  V30 4962 N 481.861 -1.55662 -0.24637 0
M  V30 4963 C 483.091 -1.81312 -0.990438 0
M  V30 4964 C 483.499 -0.600234 -1.79426 0
M  V30 4965 O 482.842 0.440537 -1.78339 0
M  V30 4966 C 482.904 -3.0032 -1.97607 0
M  V30 4967 C 482.568 -4.36322 -1.35912 0
M  V30 4968 C 483.565 -5.14295 -0.761348 0
M  V30 4969 C 481.25 -4.83019 -1.37833 0
M  V30 4970 C 483.244 -6.37114 -0.190998 0
M  V30 4971 C 480.931 -6.05786 -0.804128 0
M  V30 4972 C 481.929 -6.82672 -0.211489 0
M  V30 4973 O 481.617 -8.03121 0.353845 0
M  V30 4974 H 481.349 -0.607233 -0.297058 0
M  V30 4975 H 483.903 -2.0356 -0.274351 0
M  V30 4976 H 482.133 -2.73829 -2.73047 0
M  V30 4977 H 483.822 -3.13057 -2.58361 0
M  V30 4978 H 484.588 -4.79337 -0.739013 0
M  V30 4979 H 480.467 -4.23165 -1.829 0
M  V30 4980 H 484.011 -6.97069 0.272206 0
M  V30 4981 H 479.908 -6.40222 -0.823792 0
M  V30 4982 H 480.676 -8.18131 0.245761 0
M  V30 4983 N 483.339 0.512053 -1.4905 0
M  V30 4984 C 484.567 1.29116 -1.61669 0
M  V30 4985 C 484.982 1.86655 -0.283787 0
M  V30 4986 O 484.339 1.67293 0.729331 0
M  V30 4987 C 484.39 2.4293 -2.67707 0
M  V30 4988 O 484.111 1.87758 -3.95826 0
M  V30 4989 C 485.612 3.34476 -2.90931 0
M  V30 4990 H 482.832 0.392009 -0.544583 0
M  V30 4991 H 485.376 0.615881 -1.95006 0
M  V30 4992 H 483.531 3.06308 -2.37179 0
M  V30 4993 H 483.945 2.62393 -4.54148 0
M  V30 4994 H 485.419 4.10642 -3.68886 0
M  V30 4995 H 485.896 3.90801 -2.00427 0
M  V30 4996 H 486.502 2.76874 -3.22832 0
M  V30 4997 N 484.817 1.37938 0.762283 0
M  V30 4998 C 485.767 1.30976 1.86626 0
M  V30 4999 C 486.751 0.195714 1.59705 0
M  V30 5000 O 487.943 0.430937 1.71674 0
M  V30 5001 C 485.072 1.12847 3.24223 0
M  V30 5002 C 484.158 2.28836 3.57064 0
M  V30 5003 N 484.549 3.54256 3.61022 0
M  V30 5004 C 482.847 2.21198 3.87282 0
M  V30 5005 C 483.548 4.30798 3.90881 0
M  V30 5006 N 482.524 3.60049 4.07266 0
M  V30 5007 H 486.326 2.25946 1.87951 0
M  V30 5008 H 483.84 1.31046 0.959206 0
M  V30 5009 H 485.837 1.05943 4.03214 0
M  V30 5010 H 484.497 0.188024 3.24155 0
M  V30 5011 H 485.508 3.8804 3.42995 0
M  V30 5012 H 482.185 1.35264 3.94981 0
M  V30 5013 H 483.575 5.39386 4.00639 0
M  V30 5014 N 486.295 -0.989507 1.22664 0
M  V30 5015 C 487.205 -2.11449 1.01619 0
M  V30 5016 C 488.221 -1.73962 -0.036545 0
M  V30 5017 O 489.397 -2.00788 0.156924 0
M  V30 5018 C 486.462 -3.41465 0.600204 0
M  V30 5019 C 485.523 -3.93033 1.72695 0
M  V30 5020 C 484.756 -5.16844 1.33071 0
M  V30 5021 O 484.979 -5.7001 0.210975 0
M  V30 5022 O 483.913 -5.6225 2.14845 0
M  V30 5023 H 487.739 -2.32088 1.9588 0
M  V30 5024 H 485.324 -1.09823 1.01289 0
M  V30 5025 H 487.206 -4.19695 0.37873 0
M  V30 5026 H 485.881 -3.22178 -0.313511 0
M  V30 5027 H 484.788 -3.15961 2.00298 0
M  V30 5028 H 486.121 -4.16758 2.61865 0
M  V30 5029 N 487.773 -1.03688 -1.18687 0
M  V30 5030 C 488.683 -0.634908 -2.25845 0
M  V30 5031 C 489.699 0.337065 -1.70704 0
M  V30 5032 O 490.875 0.192943 -2.00474 0
M  V30 5033 C 487.94 -0.000180054 -3.467 0
M  V30 5034 C 487.001 -1.02067 -4.1699 0
M  V30 5035 C 486.234 -0.41614 -5.32075 0
M  V30 5036 O 486.457 0.778712 -5.65059 0
M  V30 5037 O 485.391 -1.14296 -5.90948 0
M  V30 5038 H 489.217 -1.52757 -2.62486 0
M  V30 5039 H 486.802 -0.807533 -1.25695 0
M  V30 5040 H 488.684 0.353342 -4.19916 0
M  V30 5041 H 487.359 0.866367 -3.11891 0
M  V30 5042 H 486.266 -1.42592 -3.45859 0
M  V30 5043 H 487.599 -1.85786 -4.5579 0
M  V30 5044 N 489.251 1.34841 -0.815825 0
M  V30 5045 C 490.214 2.27959 -0.238185 0
M  V30 5046 C 491.214 1.49983 0.579816 0
M  V30 5047 O 492.404 1.69617 0.396953 0
M  V30 5048 C 489.536 3.34314 0.666876 0
M  V30 5049 H 490.729 2.80558 -1.05958 0
M  V30 5050 H 488.282 1.44852 -0.587156 0
M  V30 5051 H 489.017 2.86916 1.5116 0
M  V30 5052 H 488.802 3.92014 0.0819106 0
M  V30 5053 H 490.292 4.0379 1.06506 0
M  V30 5054 N 490.729 0.570148 1.46925 0
M  V30 5055 C 491.954 0.0542592 2.07329 0
M  V30 5056 C 492.379 -1.23582 1.41806 0
M  V30 5057 O 491.737 -1.74341 0.497479 0
M  V30 5058 C 491.785 -0.111175 3.60429 0
M  V30 5059 O 490.889 -1.17071 3.95434 0
M  V30 5060 H 490.23 0.0571425 0.661537 0
M  V30 5061 H 492.76 0.789516 1.88753 0
M  V30 5062 H 492.77 -0.321315 4.06733 0
M  V30 5063 H 491.445 0.831012 4.07513 0
M  V30 5064 H 490.022 -0.940029 3.60857 0
M  V30 5065 N 492.207 -1.54576 0.307264 0
M  V30 5066 C 493.435 -2.04675 -0.302597 0
M  V30 5067 C 493.85 -1.18425 -1.47041 0
M  V30 5068 O 493.207 -0.211257 -1.81273 0
M  V30 5069 C 493.258 -3.53575 -0.752801 0
M  V30 5070 O 492.979 -4.36547 0.368536 0
M  V30 5071 C 494.48 -4.19699 -1.42717 0
M  V30 5072 H 491.7 -0.66786 -0.0648374 0
M  V30 5073 H 494.244 -1.99516 0.448716 0
M  V30 5074 H 492.399 -3.59074 -1.45412 0
M  V30 5075 H 492.813 -5.24497 0.0168937 0
M  V30 5076 H 494.287 -5.25388 -1.69327 0
M  V30 5077 H 494.764 -3.69815 -2.36925 0
M  V30 5078 H 495.37 -4.18293 -0.768856 0
M  V30 5079 N 493.685 -0.035106 -1.57561 0
M  V30 5080 C 494.91 0.655802 -1.96759 0
M  V30 5081 C 495.335 1.64523 -0.911809 0
M  V30 5082 O 494.693 1.80857 0.126673 0
M  V30 5083 C 494.741 1.33326 -3.35047 0
M  V30 5084 O 493.845 2.44866 -3.31835 0
M  V30 5085 H 493.186 0.171807 -0.641388 0
M  V30 5086 H 495.716 -0.0987369 -2.04362 0
M  V30 5087 H 495.726 1.68867 -3.71413 0
M  V30 5088 H 494.401 0.608033 -4.11431 0
M  V30 5089 H 492.978 2.11392 -3.07193 0
M  V30 5090 N 495.163 1.55791 0.238111 0
M  V30 5091 C 496.403 1.79801 0.972163 0
M  V30 5092 C 496.767 0.606027 1.82185 0
M  V30 5093 O 497.968 0.725079 2.58836 0
M  V30 5094 C 496.239 3.08608 1.80266 0
M  V30 5095 S 497.798 3.53872 2.59461 0
M  V30 5096 H 494.616 0.631418 0.326852 0
M  V30 5097 H 497.218 1.94031 0.239212 0
M  V30 5098 H 495.922 3.93419 1.1683 0
M  V30 5099 H 495.453 2.9714 2.57821 0
M  V30 5100 H 497.468 3.15899 3.82651 0
M  V30 5101 N 496.642 -0.504142 1.49319 0
M  V30 5102 C 497.888 -1.26033 1.58882 0
M  V30 5103 C 498.221 -1.92268 0.273274 0
M  V30 5104 O 497.496 -1.80567 -0.72291 0
M  V30 5105 C 497.779 -2.32976 2.7458 0
M  V30 5106 C 497.632 -1.71263 4.1592 0
M  V30 5107 C 498.951 -3.34561 2.85932 0
M  V30 5108 H 496.07 -0.456863 0.578312 0
M  V30 5109 H 498.712 -0.558965 1.81592 0
M  V30 5110 H 496.862 -2.92796 2.55348 0
M  V30 5111 H 498.534 -1.15294 4.4666 0
M  V30 5112 H 496.777 -1.01686 4.21714 0
M  V30 5113 H 497.448 -2.48816 4.92742 0
M  V30 5114 H 499.924 -2.84727 3.0343 0
M  V30 5115 H 498.8 -4.06754 3.68568 0
M  V30 5116 H 499.061 -3.96695 1.95154 0
M  V30 5117 N 498.12 -1.38341 -0.754957 0
M  V30 5118 C 499.36 -1.35888 -1.52689 0
M  V30 5119 C 499.724 0.0513682 -1.91931 0
M  V30 5120 O 500.925 0.200761 -2.68049 0
M  V30 5121 C 499.196 -2.28666 -2.74676 0
M  V30 5122 S 500.755 -2.4422 -3.64558 0
M  V30 5123 H 497.573 -0.482165 -0.522531 0
M  V30 5124 H 500.175 -1.74253 -0.886358 0
M  V30 5125 H 498.879 -3.30023 -2.43953 0
M  V30 5126 H 498.41 -1.91445 -3.43675 0
M  V30 5127 H 500.425 -1.66525 -4.67423 0
M  V30 5128 N 499.598 0.982988 -1.23187 0
M  V30 5129 C 500.508 2.10907 -1.02739 0
M  V30 5130 C 501.524 1.73979 0.0273188 0
M  V30 5131 O 502.7 2.00702 -0.16757 0
M  V30 5132 C 499.765 3.41142 -0.618304 0
M  V30 5133 C 498.826 3.92112 -1.74777 0
M  V30 5134 C 498.059 5.16131 -1.3581 0
M  V30 5135 O 498.282 5.6989 -0.241201 0
M  V30 5136 O 497.216 5.61103 -2.17824 0
M  V30 5137 H 501.042 2.31046 -1.97108 0
M  V30 5138 H 498.627 1.09284 -1.01869 0
M  V30 5139 H 500.509 4.19488 -0.400982 0
M  V30 5140 H 499.184 3.2234 0.296421 0
M  V30 5141 H 498.091 3.14895 -2.0197 0
M  V30 5142 H 499.424 4.15364 -2.64071 0
M  V30 5143 N 501.076 1.04316 1.18135 0
M  V30 5144 C 502.023 0.636398 2.21853 0
M  V30 5145 C 502.993 -0.357039 1.62217 0
M  V30 5146 O 504.178 -0.250453 1.89149 0
M  V30 5147 C 501.318 0.00812779 3.45099 0
M  V30 5148 C 500.431 1.04933 4.19062 0
M  V30 5149 C 499.566 0.389313 5.29771 0
M  V30 5150 C 498.605 1.41544 5.9551 0
M  V30 5151 N 497.742 0.78021 6.97751 0
M  V30 5152 H 502.582 1.52536 2.56002 0
M  V30 5153 H 500.119 0.76304 1.25762 0
M  V30 5154 H 502.077 -0.373497 4.15525 0
M  V30 5155 H 500.707 -0.844336 3.11562 0
M  V30 5156 H 499.759 1.54888 3.47439 0
M  V30 5157 H 501.071 1.82862 4.64072 0
M  V30 5158 H 500.225 -0.0463805 6.06682 0
M  V30 5159 H 498.964 -0.422038 4.8587 0
M  V30 5160 H 497.969 1.86124 5.17337 0
M  V30 5161 H 499.194 2.22854 6.41493 0
M  V30 5162 H 497.14 -0.0107899 6.55999 0
M  V30 5163 H 497.057 1.49716 7.41027 0
M  V30 5164 H 498.325 0.368996 7.78626 0
M  V30 5165 N 502.554 -1.34406 0.822964 0
M  V30 5166 C 503.831 -1.92733 0.333641 0
M  V30 5167 C 504.211 -1.75107 -1.17901 0
M  V30 5168 O 503.559 -1.12983 -1.98613 0
M  V30 5169 C 503.769 -3.40557 0.763023 0
M  V30 5170 C 505.117 -4.17709 0.761879 0
M  V30 5171 O 506.141 -3.49141 0.705606 0
M  V30 5172 O 505 -5.40082 0.835109 0
M  V30 5173 H 502.094 -0.821964 0.0911249 0
M  V30 5174 H 504.64 -1.4338 0.907757 0
M  V30 5175 H 503.412 -3.47187 1.8049 0
M  V30 5176 H 503.035 -3.97259 0.164605 0
M  V30 5177 N 504.032 -0.577932 -1.46621 0
M  V30 5178 C 505.262 -0.0670668 -2.06491 0
M  V30 5179 C 505.67 1.24119 -1.42798 0
M  V30 5180 O 505.013 1.76016 -0.525759 0
M  V30 5181 C 505.075 0.177995 -3.59059 0
M  V30 5182 C 504.739 -1.04394 -4.44917 0
M  V30 5183 C 505.736 -1.95479 -4.81751 0
M  V30 5184 C 503.421 -1.26444 -4.86125 0
M  V30 5185 C 505.415 -3.06965 -5.58615 0
M  V30 5186 C 503.102 -2.38237 -5.62749 0
M  V30 5187 C 504.1 -3.28327 -5.98908 0
M  V30 5188 O 503.788 -4.38179 -6.73984 0
M  V30 5189 H 503.52 -0.0523159 -0.673973 0
M  V30 5190 H 506.074 -0.796966 -1.89308 0
M  V30 5191 H 504.304 0.962451 -3.74531 0
M  V30 5192 H 505.993 0.636782 -4.00874 0
M  V30 5193 H 506.759 -1.79657 -4.50498 0
M  V30 5194 H 502.638 -0.572316 -4.57434 0
M  V30 5195 H 506.182 -3.77309 -5.86757 0
M  V30 5196 H 502.079 -2.54023 -5.93416 0
M  V30 5197 H 502.847 -4.36486 -6.92403 0
M  V30 5198 N 505.51 1.54411 -0.315457 0
M  V30 5199 C 506.757 2.00419 0.289543 0
M  V30 5200 C 507.085 1.20373 1.52776 0
M  V30 5201 O 506.34 0.271769 1.93804 0
M  V30 5202 C 506.639 3.50936 0.676652 0
M  V30 5203 C 506.305 4.48532 -0.461472 0
M  V30 5204 C 504.967 4.74936 -0.773879 0
M  V30 5205 C 507.319 5.06567 -1.22637 0
M  V30 5206 C 504.647 5.56634 -1.85405 0
M  V30 5207 C 506.999 5.89441 -2.29657 0
M  V30 5208 C 505.663 6.1415 -2.61488 0
M  V30 5209 H 504.933 0.733386 0.105951 0
M  V30 5210 H 507.58 1.86434 -0.437554 0
M  V30 5211 H 505.885 3.62606 1.48405 0
M  V30 5212 H 507.582 3.83971 1.15618 0
M  V30 5213 H 504.172 4.28096 -0.207893 0
M  V30 5214 H 508.356 4.86157 -0.998271 0
M  V30 5215 H 503.612 5.74012 -2.10523 0
M  V30 5216 H 507.786 6.33432 -2.89374 0
M  V30 5217 H 505.413 6.77245 -3.45317 0
M  V30 5218 N 506.988 0.0434614 1.5754 0
M  V30 5219 C 508.404 -0.313039 1.565 0
M  V30 5220 C 508.604 -1.71954 1.05043 0
M  V30 5221 O 507.66 -2.425 0.703564 0
M  V30 5222 C 508.973 -0.148544 3.00333 0
M  V30 5223 C 510.521 -0.220231 3.12224 0
M  V30 5224 C 510.996 -0.0843565 4.57922 0
M  V30 5225 N 512.487 -0.140881 4.62986 0
M  V30 5226 C 513.222 -0.0597443 5.73369 0
M  V30 5227 N 512.718 0.0733004 6.92761 0
M  V30 5228 N 514.511 -0.11477 5.61983 0
M  V30 5229 H 506.662 0.96303 1.89313 0
M  V30 5230 H 508.925 0.373164 0.871466 0
M  V30 5231 H 508.631 0.820894 3.41986 0
M  V30 5232 H 508.505 -0.912798 3.65989 0
M  V30 5233 H 510.892 -1.18014 2.70475 0
M  V30 5234 H 510.973 0.574646 2.49262 0
M  V30 5235 H 510.617 0.872192 5.00355 0
M  V30 5236 H 510.547 -0.898281 5.18882 0
M  V30 5237 H 513.038 -0.243273 3.77116 0
M  V30 5238 H 513.351 0.128128 7.72694 0
M  V30 5239 H 511.696 0.10828 6.94916 0
M  V30 5240 H 514.887 -0.217212 4.67596 0
M  V30 5241 H 515.06 -0.0480779 6.47982 0
M  V30 5242 N 508.466 -1.55915 -0.229846 0
M  V30 5243 C 509.882 -1.48721 -0.579166 0
M  V30 5244 C 510.082 -0.736976 -1.87539 0
M  V30 5245 O 509.138 -0.273258 -2.51017 0
M  V30 5246 C 510.451 -2.9323 -0.666082 0
M  V30 5247 C 511.999 -3.03701 -0.757267 0
M  V30 5248 C 512.474 -4.49552 -0.8756 0
M  V30 5249 N 513.965 -4.53561 -0.940035 0
M  V30 5250 C 514.7 -5.63683 -1.05116 0
M  V30 5251 N 514.196 -6.83576 -1.12675 0
M  V30 5252 N 515.989 -5.51516 -1.08565 0
M  V30 5253 H 508.14 -2.03123 0.620857 0
M  V30 5254 H 510.403 -0.922898 0.21671 0
M  V30 5255 H 510.109 -3.51032 0.21664 0
M  V30 5256 H 509.983 -3.44668 -1.53243 0
M  V30 5257 H 512.37 -2.45969 -1.63043 0
M  V30 5258 H 512.451 -2.55446 0.134583 0
M  V30 5259 H 512.095 -5.079 -0.00692351 0
M  V30 5260 H 512.025 -4.95506 -1.78274 0
M  V30 5261 H 514.516 -3.67215 -0.892269 0
M  V30 5262 H 514.829 -7.63251 -1.21109 0
M  V30 5263 H 513.174 -6.86303 -1.09603 0
M  V30 5264 H 516.365 -4.5678 -1.02319 0
M  V30 5265 H 516.538 -6.37372 -1.1688 0
M  V30 5266 N 509.944 0.496216 -1.49584 0
M  V30 5267 C 510.854 1.62352 -1.69349 0
M  V30 5268 C 511.87 1.64184 -0.576147 0
M  V30 5269 O 513.046 1.82517 -0.85144 0
M  V30 5270 C 510.111 2.98698 -1.76013 0
M  V30 5271 C 509.172 3.07454 -2.99617 0
M  V30 5272 C 508.405 4.37296 -3.05953 0
M  V30 5273 O 508.628 5.2637 -2.19752 0
M  V30 5274 O 507.562 4.51124 -3.9846 0
M  V30 5275 H 511.388 1.48606 -2.64859 0
M  V30 5276 H 508.973 0.673022 -1.33382 0
M  V30 5277 H 510.855 3.79725 -1.82721 0
M  V30 5278 H 509.53 3.12696 -0.836828 0
M  V30 5279 H 508.437 2.25597 -2.98424 0
M  V30 5280 H 509.77 2.98385 -3.91443 0
M  V30 5281 N 511.423 1.38739 0.74761 0
M  V30 5282 C 512.648 1.38702 1.54197 0
M  V30 5283 C 513.073 -0.019664 1.8809 0
M  V30 5284 O 512.431 -1.00333 1.51006 0
M  V30 5285 C 512.479 2.25492 2.814 0
M  V30 5286 O 511.583 1.67613 3.76802 0
M  V30 5287 H 510.924 0.472863 0.466151 0
M  V30 5288 H 513.454 1.82577 0.923413 0
M  V30 5289 H 513.464 2.39561 3.30264 0
M  V30 5290 H 512.139 3.27727 2.56062 0
M  V30 5291 H 510.716 1.62718 3.35526 0
M  V30 5292 N 512.901 -0.976442 1.23707 0
M  V30 5293 C 514.178 -1.69296 0.979699 0
M  V30 5294 C 514.558 -2.0508 -0.500555 0
M  V30 5295 O 513.906 -1.74708 -1.47273 0
M  V30 5296 C 514.116 -2.93143 1.89389 0
M  V30 5297 C 515.464 -3.65572 2.15968 0
M  V30 5298 O 516.488 -3.03184 1.86971 0
M  V30 5299 O 515.347 -4.77859 2.65167 0
M  V30 5300 H 512.441 -0.739708 0.369812 0
M  V30 5301 H 514.987 -1.03131 1.34767 0
M  V30 5302 H 513.759 -2.63327 2.89439 0
M  V30 5303 H 513.382 -3.67044 1.52854 0
M  V30 5304 N 514.379 -1.04941 -1.1758 0
M  V30 5305 C 515.79 -0.784501 -1.69418 0
M  V30 5306 C 516.141 0.693625 -1.8353 0
M  V30 5307 O 515.266 1.53925 -1.52106 0
M  V30 5308 C 515.861 -1.41746 -3.07723 0
M  V30 5309 C 514.42 -1.20066 -3.56737 0
M  V30 5310 C 513.567 -1.5026 -2.33061 0
M  V30 5311 H 516.518 -1.21469 -1.02133 0
M  V30 5312 H 516.539 -0.825381 -3.7144 0
M  V30 5313 H 516.051 -2.49325 -2.9742 0
M  V30 5314 H 514.152 -0.144006 -3.72322 0
M  V30 5315 H 514.265 -1.90384 -4.39648 0
M  V30 5316 H 512.629 -0.922598 -2.37403 0
M  V30 5317 H 513.412 -2.58967 -2.25368 0
M  V30 5318 N 515.857 1.33968 -0.830081 0
M  V30 5319 C 517.268 1.80439 -0.479455 0
M  V30 5320 C 517.619 1.68756 1.00079 0
M  V30 5321 O 516.744 1.23171 1.77927 0
M  V30 5322 C 517.339 3.27611 -0.863505 0
M  V30 5323 C 515.898 3.72133 -0.565145 0
M  V30 5324 C 515.045 2.55549 -1.07657 0
M  V30 5325 H 517.996 1.21614 -1.0196 0
M  V30 5326 H 518.017 3.8012 -0.170083 0
M  V30 5327 H 517.529 3.36082 -1.94089 0
M  V30 5328 H 515.63 3.69196 0.502536 0
M  V30 5329 H 515.743 4.65963 -1.11422 0
M  V30 5330 H 514.107 2.49788 -0.497807 0
M  V30 5331 H 514.89 2.66786 -2.16055 0
M  V30 5332 N 517.335 0.585699 1.46312 0
M  V30 5333 C 518.563 0.0781299 2.06752 0
M  V30 5334 C 518.978 -1.22812 1.43396 0
M  V30 5335 O 518.335 -1.74318 0.540314 0
M  V30 5336 C 518.386 -0.0911927 3.61385 0
M  V30 5337 O 518.107 1.16336 4.22371 0
M  V30 5338 C 519.608 -0.632765 4.38761 0
M  V30 5339 H 516.828 0.0588188 0.668417 0
M  V30 5340 H 519.372 0.807218 1.87894 0
M  V30 5341 H 517.527 -0.770514 3.7966 0
M  V30 5342 H 517.941 0.979082 5.15281 0
M  V30 5343 H 519.415 -0.70041 5.47538 0
M  V30 5344 H 519.892 -1.65039 4.07012 0
M  V30 5345 H 520.498 0.0117856 4.25298 0
M  V30 5346 N 518.813 -1.54241 0.323641 0
M  V30 5347 C 519.746 -2.20579 -0.584833 0
M  V30 5348 C 520.724 -1.18286 -1.11567 0
M  V30 5349 O 521.908 -1.47025 -1.17966 0
M  V30 5350 C 519.035 -2.86754 -1.80249 0
M  V30 5351 C 518.081 -4.02767 -1.4029 0
M  V30 5352 S 518.914 -5.33693 -0.439539 0
M  V30 5353 C 520.07 -6.03362 -1.66448 0
M  V30 5354 H 520.303 -2.97292 -0.0213238 0
M  V30 5355 H 517.836 -1.54024 0.107726 0
M  V30 5356 H 519.794 -3.25503 -2.50116 0
M  V30 5357 H 518.455 -2.09844 -2.33719 0
M  V30 5358 H 517.648 -4.47933 -2.31024 0
M  V30 5359 H 517.25 -3.65692 -0.783928 0
M  V30 5360 H 519.542 -6.25546 -2.6019 0
M  V30 5361 H 520.485 -6.9689 -1.25498 0
M  V30 5362 H 520.893 -5.33273 -1.85149 0
M  V30 5363 N 520.291 -0.0518155 -1.57515 0
M  V30 5364 C 521.254 0.907547 -2.10467 0
M  V30 5365 C 522.254 1.23947 -1.02439 0
M  V30 5366 O 523.444 1.17604 -1.2851 0
M  V30 5367 C 520.576 2.21723 -2.58944 0
M  V30 5368 H 521.769 0.44851 -2.96527 0
M  V30 5369 H 519.322 0.196598 -1.55059 0
M  V30 5370 H 520.057 2.72206 -1.76279 0
M  V30 5371 H 519.842 1.98935 -3.37886 0
M  V30 5372 H 521.332 2.90441 -3.00056 0
M  V30 5373 N 521.769 1.56035 0.221574 0
M  V30 5374 C 523.009 1.80822 0.953038 0
M  V30 5375 C 523.373 0.625316 1.81532 0
M  V30 5376 O 524.574 0.752491 2.58052 0
M  V30 5377 C 522.845 3.10503 1.76983 0
M  V30 5378 S 524.404 3.56604 2.55693 0
M  V30 5379 H 521.222 0.634849 0.320137 0
M  V30 5380 H 523.824 1.94274 0.218619 0
M  V30 5381 H 522.528 3.94636 1.12651 0
M  V30 5382 H 522.059 2.99858 2.54655 0
M  V30 5383 H 524.074 3.1994 3.79279 0
M  V30 5384 N 523.247 -0.488276 1.49845 0
M  V30 5385 C 524.475 -1.26527 1.63702 0
M  V30 5386 C 524.89 -1.8618 0.313447 0
M  V30 5387 O 524.247 -1.68432 -0.702624 0
M  V30 5388 C 524.298 -2.3864 2.71538 0
M  V30 5389 O 524.019 -1.81437 3.98763 0
M  V30 5390 C 525.52 -3.29805 2.96215 0
M  V30 5391 H 522.74 -0.383295 0.55075 0
M  V30 5392 H 525.284 -0.584779 1.95961 0
M  V30 5393 H 523.439 -3.02496 2.42023 0
M  V30 5394 H 523.853 -2.55135 4.58265 0
M  V30 5395 H 525.327 -4.04722 3.75372 0
M  V30 5396 H 525.804 -3.87563 2.06619 0
M  V30 5397 H 526.41 -2.71703 3.27196 0
M  V30 5398 N 524.725 -1.39134 -0.740242 0
M  V30 5399 C 526.141 -1.20623 -1.0451 0
M  V30 5400 C 526.341 -0.0641651 -2.01398 0
M  V30 5401 O 525.397 0.585843 -2.4561 0
M  V30 5402 C 526.71 -2.53815 -1.6124 0
M  V30 5403 C 528.258 -2.60615 -1.73346 0
M  V30 5404 C 528.733 -3.94015 -2.33486 0
M  V30 5405 N 530.224 -3.95627 -2.40902 0
M  V30 5406 C 530.959 -4.95616 -2.88361 0
M  V30 5407 N 530.455 -6.06003 -3.35756 0
M  V30 5408 N 532.248 -4.82998 -2.87523 0
M  V30 5409 H 524.399 -2.12176 -0.0975576 0
M  V30 5410 H 526.662 -0.942066 -0.105904 0
M  V30 5411 H 526.368 -3.37911 -0.975144 0
M  V30 5412 H 526.242 -2.73162 -2.6012 0
M  V30 5413 H 528.629 -1.76906 -2.36195 0
M  V30 5414 H 528.71 -2.45123 -0.731336 0
M  V30 5415 H 528.354 -4.78153 -1.71267 0
M  V30 5416 H 528.284 -4.06825 -3.34366 0
M  V30 5417 H 530.775 -3.15903 -2.07398 0
M  V30 5418 H 531.088 -6.78215 -3.70464 0
M  V30 5419 H 529.433 -6.09604 -3.33778 0
M  V30 5420 H 532.624 -3.95866 -2.49816 0
M  V30 5421 H 532.797 -5.61072 -3.24196 0
M  V30 5422 N 526.204 0.969867 -1.24223 0
M  V30 5423 C 527.615 1.52717 -1.07399 0
M  V30 5424 C 527.966 1.92956 0.355298 0
M  V30 5425 O 527.091 1.77112 1.2434 0
M  V30 5426 C 527.686 2.77521 -1.94339 0
M  V30 5427 C 526.245 3.29615 -1.81744 0
M  V30 5428 C 525.392 2.02537 -1.89405 0
M  V30 5429 H 528.343 0.788399 -1.37732 0
M  V30 5430 H 528.364 3.50773 -1.47439 0
M  V30 5431 H 527.876 2.48203 -2.98357 0
M  V30 5432 H 525.977 3.63789 -0.805505 0
M  V30 5433 H 526.09 3.98661 -2.65718 0
M  V30 5434 H 524.454 2.17151 -1.33108 0
M  V30 5435 H 525.237 1.75587 -2.94999 0
M  V30 5436 N 527.682 1.05563 1.17022 0
M  V30 5437 C 529.093 0.793475 1.69 0
M  V30 5438 C 529.444 -0.683882 1.83895 0
M  V30 5439 O 528.569 -1.53116 1.5292 0
M  V30 5440 C 529.164 1.43376 3.06967 0
M  V30 5441 C 527.723 1.21956 3.56095 0
M  V30 5442 C 526.87 1.51494 2.3226 0
M  V30 5443 H 529.821 1.22008 1.01487 0
M  V30 5444 H 529.842 0.845068 3.70997 0
M  V30 5445 H 529.354 2.50899 2.96093 0
M  V30 5446 H 527.455 0.163749 3.7224 0
M  V30 5447 H 527.568 1.92713 4.38633 0
M  V30 5448 H 525.932 0.935175 2.3691 0
M  V30 5449 H 526.715 2.60159 2.23992 0
M  V30 5450 N 529.16 -1.33526 0.837174 0
M  V30 5451 C 530.385 -2.0258 0.444545 0
M  V30 5452 C 530.81 -1.6258 -0.946006 0
M  V30 5453 O 530.168 -0.817548 -1.6182 0
M  V30 5454 C 530.216 -3.5605 0.571006 0
M  V30 5455 O 529.32 -4.10422 -0.403431 0
M  V30 5456 H 528.661 -0.638866 0.180958 0
M  V30 5457 H 531.191 -1.70462 1.13154 0
M  V30 5458 H 531.201 -4.05488 0.452024 0
M  V30 5459 H 529.876 -3.84509 1.58512 0
M  V30 5460 H 528.453 -3.72113 -0.242147 0
M  V30 5461 N 530.638 -0.59345 -1.46 0
M  V30 5462 C 531.601 0.123538 -2.28867 0
M  V30 5463 C 532.601 0.808628 -1.38989 0
M  V30 5464 O 533.791 0.658945 -1.61256 0
M  V30 5465 C 530.923 1.1847 -3.19653 0
M  V30 5466 H 532.116 -0.604843 -2.93737 0
M  V30 5467 H 529.669 -0.351875 -1.52288 0
M  V30 5468 H 530.404 1.94431 -2.59552 0
M  V30 5469 H 530.189 0.69783 -3.8584 0
M  V30 5470 H 531.679 1.68726 -3.81997 0
M  V30 5471 N 532.116 1.54067 -0.331816 0
M  V30 5472 C 533.527 1.86059 0.15454 0
M  V30 5473 C 533.878 1.25331 1.50952 0
M  V30 5474 O 533.003 0.562441 2.08963 0
M  V30 5475 C 533.598 3.37581 0.287192 0
M  V30 5476 C 532.157 3.69493 0.717773 0
M  V30 5477 C 531.304 2.76863 -0.155569 0
M  V30 5478 H 534.255 1.48797 -0.55182 0
M  V30 5479 H 534.276 3.63744 1.11671 0
M  V30 5480 H 533.788 3.81751 -0.699131 0
M  V30 5481 H 531.889 3.3086 1.71354 0
M  V30 5482 H 532.002 4.76315 0.5158 0
M  V30 5483 H 530.366 2.51995 0.370213 0
M  V30 5484 H 531.149 3.23861 -1.13881 0
M  V30 5485 N 533.594 0.0601682 1.57485 0
M  V30 5486 C 535.01 -0.296422 1.56823 0
M  V30 5487 C 535.21 -1.70831 1.0686 0
M  V30 5488 O 534.266 -2.4174 0.729245 0
M  V30 5489 C 535.579 -0.116681 3.00474 0
M  V30 5490 C 537.127 -0.187103 3.1244 0
M  V30 5491 C 537.602 -0.035783 4.57986 0
M  V30 5492 N 539.093 -0.0917676 4.63109 0
M  V30 5493 C 539.828 0.00107251 5.734 0
M  V30 5494 N 539.324 0.146773 6.92645 0
M  V30 5495 N 541.117 -0.0551577 5.62073 0
M  V30 5496 H 533.268 0.983055 1.88281 0
M  V30 5497 H 535.531 0.382386 0.867459 0
M  V30 5498 H 535.237 0.85712 3.41096 0
M  V30 5499 H 535.111 -0.873929 3.66936 0
M  V30 5500 H 537.498 -1.15138 2.71712 0
M  V30 5501 H 537.579 0.601052 2.48638 0
M  V30 5502 H 537.223 0.925212 4.99402 0
M  V30 5503 H 537.153 -0.843196 5.19806 0
M  V30 5504 H 539.644 -0.203261 3.77353 0
M  V30 5505 H 539.957 0.210076 7.72514 0
M  V30 5506 H 538.302 0.181979 6.94762 0
M  V30 5507 H 541.493 -0.167605 4.678 0
M  V30 5508 H 541.666 0.020652 6.47997 0
M  V30 5509 N 535.072 -1.5615 -0.213296 0
M  V30 5510 C 536.02 -1.93953 -1.28394 0
M  V30 5511 C 537.014 -0.822592 -1.48087 0
M  V30 5512 O 538.22 -1.00748 -1.49164 0
M  V30 5513 H 534.595 -0.61648 -0.430646 0
M  V30 5514 H 536.566 -2.83275 -0.937977 0
M  V30 5515 C 535.315 -2.27969 -2.62537 0
M  V30 5516 H 534.638 -3.13432 -2.48194 0
M  V30 5517 H 536.078 -2.58297 -3.36242 0
M  V30 5518 C 534.537 -1.10775 -3.18167 0
M  V30 5519 O 535.067 -0.373201 -3.99963 0
M  V30 5520 N 533.273 -0.889377 -2.76656 0
M  V30 5521 H 532.82 -1.48843 -2.10246 0
M  V30 5522 H 532.778 -0.107 -3.14218 0
M  V30 5523 N 536.55 0.480323 -1.50102 0
M  V30 5524 C 537.513 1.56181 -1.6775 0
M  V30 5525 C 538.513 1.51156 -0.548503 0
M  V30 5526 O 539.703 1.5394 -0.815363 0
M  V30 5527 C 536.835 2.95823 -1.69415 0
M  V30 5528 H 538.028 1.41855 -2.6423 0
M  V30 5529 H 535.581 0.70605 -1.39444 0
M  V30 5530 H 536.316 3.15604 -0.745948 0
M  V30 5531 H 536.101 3.00878 -2.51425 0
M  V30 5532 H 537.591 3.74359 -1.85054 0
M  V30 5533 N 538.028 1.39524 0.732853 0
M  V30 5534 C 539.277 1.36175 1.48792 0
M  V30 5535 C 539.59 -0.0388195 1.95561 0
M  V30 5536 O 540.796 -0.194899 2.708 0
M  V30 5537 C 539.252 2.39242 2.68871 0
M  V30 5538 C 538.86 3.85024 2.29042 0
M  V30 5539 C 540.604 2.44972 3.46683 0
M  V30 5540 C 538.511 4.79727 3.45856 0
M  V30 5541 H 537.441 0.506267 0.558757 0
M  V30 5542 H 540.092 1.65181 0.799226 0
M  V30 5543 H 538.474 2.0331 3.39825 0
M  V30 5544 H 539.648 4.30008 1.6562 0
M  V30 5545 H 537.963 3.82609 1.64316 0
M  V30 5546 H 540.56 3.12918 4.33574 0
M  V30 5547 H 540.903 1.4749 3.89297 0
M  V30 5548 H 541.436 2.79808 2.82759 0
M  V30 5549 H 538.175 5.78479 3.08289 0
M  V30 5550 H 537.695 4.39421 4.08251 0
M  V30 5551 H 539.374 4.98731 4.12161 0
M  V30 5552 N 539.506 -0.963266 1.24736 0
M  V30 5553 C 540.731 -1.74699 1.11781 0
M  V30 5554 C 541.156 -1.85267 -0.325258 0
M  V30 5555 O 540.514 -1.32681 -1.23553 0
M  V30 5556 C 540.562 -3.14322 1.76731 0
M  V30 5557 O 539.666 -3.99043 1.04109 0
M  V30 5558 H 539.007 -0.53684 0.390767 0
M  V30 5559 H 541.537 -1.20801 1.65131 0
M  V30 5560 H 541.547 -3.64824 1.82668 0
M  V30 5561 H 540.222 -3.05946 2.81726 0
M  V30 5562 H 538.799 -3.5752 1.05991 0
M  V30 5563 N 540.985 -1.06182 -1.16461 0
M  V30 5564 C 541.933 -0.665716 -2.2287 0
M  V30 5565 C 542.927 0.317822 -1.66392 0
M  V30 5566 O 544.133 0.182807 -1.79069 0
M  V30 5567 H 540.508 -0.197148 -0.725697 0
M  V30 5568 H 542.479 -1.57307 -2.53569 0
M  V30 5569 C 541.228 -0.0669803 -3.47635 0
M  V30 5570 H 540.551 -0.814899 -3.91407 0
M  V30 5571 H 541.991 0.172669 -4.23648 0
M  V30 5572 C 540.45 1.18913 -3.15216 0
M  V30 5573 O 540.98 2.27723 -3.30916 0
M  V30 5574 N 539.186 1.09066 -2.69357 0
M  V30 5575 H 538.733 0.20518 -2.56782 0
M  V30 5576 H 538.691 1.93195 -2.48039 0
M  V30 5577 N 542.463 1.3308 -0.844243 0
M  V30 5578 C 543.709 1.97898 -0.443206 0
M  V30 5579 C 544.042 1.66699 0.99625 0
M  V30 5580 O 543.317 0.949704 1.69738 0
M  V30 5581 C 543.6 3.53801 -0.670606 0
M  V30 5582 C 543.453 3.94667 -2.15772 0
M  V30 5583 C 544.772 4.39936 -0.120226 0
M  V30 5584 H 541.891 0.718861 -0.162504 0
M  V30 5585 H 544.533 1.57633 -1.06075 0
M  V30 5586 H 542.683 3.88229 -0.14496 0
M  V30 5587 H 544.355 3.70469 -2.74865 0
M  V30 5588 H 542.598 3.44203 -2.6402 0
M  V30 5589 H 543.269 5.03275 -2.26757 0
M  V30 5590 H 545.745 4.12183 -0.5696 0
M  V30 5591 H 544.621 5.4803 -0.308984 0
M  V30 5592 H 544.882 4.31184 0.976347 0
M  V30 5593 N 543.941 0.601185 1.45683 0
M  V30 5594 C 544.889 -0.133955 2.32214 0
M  V30 5595 C 545.883 -0.866034 1.45589 0
M  V30 5596 O 547.089 -0.782326 1.6211 0
M  V30 5597 H 543.464 -0.0620613 0.749435 0
M  V30 5598 H 545.435 0.614389 2.92007 0
M  V30 5599 C 544.184 -1.12216 3.29094 0
M  V30 5600 H 543.507 -0.568273 3.95741 0
M  V30 5601 H 544.947 -1.60659 3.92383 0
M  V30 5602 C 543.406 -2.19251 2.55794 0
M  V30 5603 O 543.936 -3.26894 2.33459 0
M  V30 5604 N 542.142 -1.9436 2.16039 0
M  V30 5605 H 541.689 -1.06829 2.34404 0
M  V30 5606 H 541.647 -2.66181 1.67318 0
M  V30 5607 N 545.419 -1.53889 0.339982 0
M  V30 5608 C 546.329 -2.28604 -0.526988 0
M  V30 5609 C 547.345 -1.33578 -1.11503 0
M  V30 5610 O 548.521 -1.66612 -1.13148 0
M  V30 5611 C 545.586 -3.04164 -1.66389 0
M  V30 5612 C 544.647 -4.14809 -1.10599 0
M  V30 5613 C 543.88 -4.86756 -2.18871 0
M  V30 5614 O 544.103 -4.58343 -3.39526 0
M  V30 5615 O 543.037 -5.73289 -1.83366 0
M  V30 5616 H 546.863 -3.03594 0.0802707 0
M  V30 5617 H 544.448 -1.4903 0.105141 0
M  V30 5618 H 546.33 -3.51427 -2.32544 0
M  V30 5619 H 545.005 -2.32035 -2.25703 0
M  V30 5620 H 543.912 -3.71857 -0.409067 0
M  V30 5621 H 545.245 -4.89029 -0.557771 0
M  V30 5622 N 546.897 -0.0685191 -1.57451 0
M  V30 5623 C 548.125 0.610462 -1.97689 0
M  V30 5624 C 548.54 1.63346 -0.946758 0
M  V30 5625 O 547.897 1.82377 0.0669868 0
M  V30 5626 C 547.948 1.28196 -3.38006 0
M  V30 5627 O 547.669 0.299906 -4.37072 0
M  V30 5628 C 549.17 2.04907 -3.931 0
M  V30 5629 H 546.39 0.165689 -0.650222 0
M  V30 5630 H 548.934 -0.139953 -2.04021 0
M  V30 5631 H 547.089 1.98348 -3.32771 0
M  V30 5632 H 547.503 0.78126 -5.18649 0
M  V30 5633 H 548.977 2.47287 -4.93511 0
M  V30 5634 H 549.454 2.9043 -3.29465 0
M  V30 5635 H 550.06 1.39629 -4.01726 0
M  V30 5636 N 548.375 1.56261 0.205012 0
M  V30 5637 C 549.6 1.84491 0.947512 0
M  V30 5638 C 550.025 0.650894 1.76479 0
M  V30 5639 O 549.383 -0.40035 1.76824 0
M  V30 5640 C 549.431 3.10863 1.82747 0
M  V30 5641 O 548.535 2.90719 2.925 0
M  V30 5642 H 547.876 0.607783 0.267386 0
M  V30 5643 H 550.406 2.03485 0.213323 0
M  V30 5644 H 550.416 3.41399 2.23407 0
M  V30 5645 H 549.091 3.97392 1.2269 0
M  V30 5646 H 547.668 2.71457 2.55667 0
M  V30 5647 N 549.853 -0.472356 1.50355 0
M  V30 5648 C 551.099 -1.22634 1.6152 0
M  V30 5649 C 551.432 -1.91645 0.313995 0
M  V30 5650 O 550.707 -1.82059 -0.684446 0
M  V30 5651 C 550.99 -2.27099 2.7946 0
M  V30 5652 C 550.843 -1.62402 4.19459 0
M  V30 5653 C 552.162 -3.28421 2.92964 0
M  V30 5654 H 549.281 -0.444494 0.587873 0
M  V30 5655 H 551.923 -0.520321 1.82737 0
M  V30 5656 H 550.073 -2.87314 2.61501 0
M  V30 5657 H 551.745 -1.05793 4.49005 0
M  V30 5658 H 549.988 -0.927184 4.23776 0
M  V30 5659 H 550.659 -2.38309 4.97909 0
M  V30 5660 H 553.135 -2.78227 3.09401 0
M  V30 5661 H 552.011 -3.98845 3.77113 0
M  V30 5662 H 552.272 -3.92467 2.03525 0
M  V30 5663 N 551.331 -1.39911 -0.725443 0
M  V30 5664 C 552.578 -1.37654 -1.48518 0
M  V30 5665 C 552.906 0.0243982 -1.94485 0
M  V30 5666 O 552.161 1.00708 -1.67799 0
M  V30 5667 C 552.46 -2.30368 -2.7325 0
M  V30 5668 C 552.126 -3.77817 -2.461 0
M  V30 5669 C 550.788 -4.17991 -2.38405 0
M  V30 5670 C 553.14 -4.71036 -2.23103 0
M  V30 5671 C 550.468 -5.49433 -2.05768 0
M  V30 5672 C 552.82 -6.02766 -1.9198 0
M  V30 5673 C 551.484 -6.41993 -1.82761 0
M  V30 5674 H 550.754 -0.503713 -0.543465 0
M  V30 5675 H 553.401 -1.7249 -0.831822 0
M  V30 5676 H 551.706 -1.88683 -3.43375 0
M  V30 5677 H 553.403 -2.2591 -3.31309 0
M  V30 5678 H 549.993 -3.45982 -2.52972 0
M  V30 5679 H 554.177 -4.40823 -2.2801 0
M  V30 5680 H 549.433 -5.78738 -1.9716 0
M  V30 5681 H 553.607 -6.74519 -1.73197 0
M  V30 5682 H 551.234 -7.43761 -1.57237 0
M  V30 5683 N 552.809 0.956637 -1.25245 0
M  V30 5684 C 553.739 2.07058 -1.07931 0
M  V30 5685 C 554.72 1.70096 0.0110361 0
M  V30 5686 O 555.905 1.93555 -0.158121 0
M  V30 5687 C 553.035 3.40272 -0.695124 0
M  V30 5688 C 551.989 3.91235 -1.73549 0
M  V30 5689 C 551.315 5.20921 -1.20604 0
M  V30 5690 C 552.615 4.17837 -3.13385 0
M  V30 5691 H 554.309 2.218 -2.01109 0
M  V30 5692 H 551.855 1.06581 -0.968326 0
M  V30 5693 H 553.808 4.1765 -0.560949 0
M  V30 5694 H 552.532 3.25462 0.272355 0
M  V30 5695 H 551.191 3.16025 -1.85807 0
M  V30 5696 H 550.839 5.02479 -0.228846 0
M  V30 5697 H 550.539 5.55987 -1.90136 0
M  V30 5698 H 552.063 6.00897 -1.08421 0
M  V30 5699 H 553.477 4.8588 -3.04292 0
M  V30 5700 H 551.874 4.64154 -3.80369 0
M  V30 5701 H 552.944 3.2419 -3.60595 0
M  V30 5702 N 554.287 1.06798 1.15896 0
M  V30 5703 C 555.197 0.694564 2.24083 0
M  V30 5704 C 556.213 -0.291687 1.71538 0
M  V30 5705 O 557.389 -0.139723 2.00915 0
M  V30 5706 C 554.454 0.0921014 3.46578 0
M  V30 5707 C 553.515 1.13087 4.14137 0
M  V30 5708 C 552.748 0.557064 5.30785 0
M  V30 5709 O 552.971 -0.628623 5.66925 0
M  V30 5710 O 551.905 1.29924 5.8771 0
M  V30 5711 H 555.731 1.59663 2.58344 0
M  V30 5712 H 553.316 0.840575 1.2351 0
M  V30 5713 H 555.198 -0.241884 4.20705 0
M  V30 5714 H 553.873 -0.78337 3.14078 0
M  V30 5715 H 552.78 1.51712 3.41957 0
M  V30 5716 H 554.113 1.97805 4.50704 0
M  V30 5717 N 555.766 -1.3263 0.851289 0
M  V30 5718 C 557.012 -1.98061 0.462963 0
M  V30 5719 C 557.367 -1.66162 -0.969948 0
M  V30 5720 O 556.66 -0.937723 -1.67085 0
M  V30 5721 C 556.854 -3.51713 0.635015 0
M  V30 5722 C 556.683 -3.98544 2.0831 0
M  V30 5723 C 555.453 -4.25787 2.72091 0
M  V30 5724 C 557.651 -4.13858 3.0533 0
M  V30 5725 N 555.633 -4.58842 4.07845 0
M  V30 5726 C 557.004 -4.50412 4.26063 0
M  V30 5727 C 559.059 -3.96182 3.0157 0
M  V30 5728 C 557.762 -4.71136 5.43529 0
M  V30 5729 C 559.788 -4.18088 4.18278 0
M  V30 5730 C 559.15 -4.54956 5.37768 0
M  V30 5731 H 555.249 -0.750976 0.218082 0
M  V30 5732 H 557.833 -1.60514 1.10197 0
M  V30 5733 H 556.004 -3.88391 0.0257298 0
M  V30 5734 H 557.736 -4.04118 0.216915 0
M  V30 5735 H 554.491 -4.17734 2.23149 0
M  V30 5736 H 554.915 -4.7956 4.77862 0
M  V30 5737 H 559.557 -3.66783 2.1031 0
M  V30 5738 H 557.275 -4.9939 6.35323 0
M  V30 5739 H 560.861 -4.05918 4.168 0
M  V30 5740 H 559.741 -4.71567 6.26573 0
M  V30 5741 N 557.244 -0.608902 -1.45362 0
M  V30 5742 C 558.493 -0.10218 -2.01441 0
M  V30 5743 C 558.806 1.27546 -1.48295 0
M  V30 5744 O 560.012 1.87498 -1.96359 0
M  V30 5745 C 558.468 -0.131985 -3.59658 0
M  V30 5746 C 558.076 -1.50956 -4.21801 0
M  V30 5747 C 559.82 0.319427 -4.23296 0
M  V30 5748 C 557.727 -1.49568 -5.72174 0
M  V30 5749 H 556.657 -0.0344314 -0.753213 0
M  V30 5750 H 559.308 -0.764426 -1.6682 0
M  V30 5751 H 557.69 0.596939 -3.91475 0
M  V30 5752 H 558.864 -2.26029 -4.01556 0
M  V30 5753 H 557.179 -1.90318 -3.70362 0
M  V30 5754 H 559.776 0.349013 -5.3356 0
M  V30 5755 H 560.119 1.34237 -3.94064 0
M  V30 5756 H 560.652 -0.356273 -3.96201 0
M  V30 5757 H 557.391 -2.49626 -6.06108 0
M  V30 5758 H 556.911 -0.787542 -5.94607 0
M  V30 5759 H 558.59 -1.21989 -6.35396 0
M  V30 5760 N 558.722 1.53707 -0.348139 0
M  V30 5761 C 560.133 1.86213 0.134797 0
M  V30 5762 C 560.484 1.26925 1.49614 0
M  V30 5763 O 559.609 0.584573 2.08355 0
M  V30 5764 C 560.204 3.37866 0.251371 0
M  V30 5765 C 558.763 3.70233 0.678543 0
M  V30 5766 C 557.91 2.76683 -0.184925 0
M  V30 5767 H 560.861 1.48204 -0.567571 0
M  V30 5768 H 560.882 3.64908 1.07806 0
M  V30 5769 H 560.394 3.80988 -0.739581 0
M  V30 5770 H 558.495 3.32659 1.67835 0
M  V30 5771 H 558.608 4.76836 0.465251 0
M  V30 5772 H 556.972 2.52374 0.343465 0
M  V30 5773 H 557.755 3.22635 -1.1731 0
M  V30 5774 N 560.2 0.0768682 1.57412 0
M  V30 5775 C 561.611 -0.455037 1.8107 0
M  V30 5776 C 561.962 -1.69323 0.991162 0
M  V30 5777 O 561.087 -2.15328 0.215156 0
M  V30 5778 C 561.682 -0.832316 3.28417 0
M  V30 5779 C 560.241 -1.30906 3.52903 0
M  V30 5780 C 559.388 -0.296714 2.75708 0
M  V30 5781 H 562.339 0.302514 1.5579 0
M  V30 5782 H 562.36 -1.69333 3.40744 0
M  V30 5783 H 561.872 0.0690532 3.88039 0
M  V30 5784 H 559.973 -2.22875 2.98592 0
M  V30 5785 H 560.086 -1.28348 4.61588 0
M  V30 5786 H 558.45 -0.775059 2.42621 0
M  V30 5787 H 559.233 0.597015 3.38069 0
M  V30 5788 N 561.678 -1.56367 -0.196722 0
M  V30 5789 C 562.641 -1.93561 -1.22746 0
M  V30 5790 C 563.641 -0.816566 -1.38524 0
M  V30 5791 O 564.831 -1.084 -1.36363 0
M  V30 5792 C 561.963 -2.20823 -2.59712 0
M  V30 5793 H 563.156 -2.85774 -0.909586 0
M  V30 5794 H 560.709 -1.50032 -0.438174 0
M  V30 5795 H 561.444 -1.31243 -2.96557 0
M  V30 5796 H 561.229 -3.02368 -2.49632 0
M  V30 5797 H 562.719 -2.50608 -3.34044 0
M  V30 5798 N 563.156 0.464375 -1.50603 0
M  V30 5799 C 564.433 1.22549 -1.5245 0
M  V30 5800 C 564.813 2.09327 -0.273035 0
M  V30 5801 O 564.161 2.16074 0.743242 0
M  V30 5802 C 564.371 2.05074 -2.82393 0
M  V30 5803 C 565.719 2.63036 -3.33313 0
M  V30 5804 O 566.743 2.1531 -2.8376 0
M  V30 5805 O 565.602 3.5001 -4.19709 0
M  V30 5806 H 562.696 0.556471 -0.611775 0
M  V30 5807 H 565.242 0.475648 -1.62898 0
M  V30 5808 H 564.014 1.41169 -3.64948 0
M  V30 5809 H 563.637 2.87179 -2.7498 0
M  V30 5810 N 564.634 1.40294 0.718013 0
M  V30 5811 C 565.862 1.4175 1.50714 0
M  V30 5812 C 566.277 0.0165366 1.88793 0
M  V30 5813 O 565.634 -0.958942 1.55276 0
M  V30 5814 C 565.685 2.30598 2.784 0
M  V30 5815 O 565.406 3.6524 2.41932 0
M  V30 5816 C 566.907 2.4062 3.72313 0
M  V30 5817 H 564.127 0.483565 0.465194 0
M  V30 5818 H 566.671 1.84316 0.885889 0
M  V30 5819 H 564.826 1.91401 3.36815 0
M  V30 5820 H 565.24 4.12402 3.24076 0
M  V30 5821 H 566.714 3.07001 4.58753 0
M  V30 5822 H 567.191 1.4305 4.15251 0
M  V30 5823 H 567.797 2.80359 3.19811 0
M  V30 5824 N 566.112 -0.949982 1.2575 0
M  V30 5825 C 567.36 -1.6918 1.10555 0
M  V30 5826 C 567.681 -1.91773 -0.353298 0
M  V30 5827 O 566.951 -1.50814 -1.25027 0
M  V30 5828 H 565.531 -0.626952 0.406129 0
M  V30 5829 H 568.193 -1.1419 1.57945 0
M  V30 5830 H 567.289 -2.66915 1.61749 0
M  V30 5831 N 567.59 -1.07411 -1.15328 0
M  V30 5832 C 568.838 -0.796073 -1.85761 0
M  V30 5833 C 569.159 0.679864 -1.82764 0
M  V30 5834 O 568.429 1.49242 -1.269 0
M  V30 5835 H 567.009 -0.291495 -0.687779 0
M  V30 5836 H 569.671 -1.35799 -1.39802 0
M  V30 5837 H 568.767 -1.13114 -2.90881 0
M  V30 5838 N 569.068 1.32177 -0.85831 0
M  V30 5839 C 570.484 1.49873 -0.548656 0
M  V30 5840 C 570.684 1.79278 0.919874 0
M  V30 5841 O 569.74 1.86451 1.70271 0
M  V30 5842 C 571.053 2.64043 -1.4388 0
M  V30 5843 C 572.601 2.77928 -1.43961 0
M  V30 5844 C 573.076 3.95182 -2.31506 0
M  V30 5845 N 574.567 4.0245 -2.29321 0
M  V30 5846 C 575.302 4.9242 -2.93786 0
M  V30 5847 N 574.798 5.87373 -3.67376 0
M  V30 5848 N 576.591 4.85572 -2.83155 0
M  V30 5849 H 568.742 1.11357 -1.80868 0
M  V30 5850 H 571.005 0.549175 -0.772729 0
M  V30 5851 H 570.711 2.49055 -2.48324 0
M  V30 5852 H 570.585 3.59912 -1.12885 0
M  V30 5853 H 572.972 2.92338 -0.402813 0
M  V30 5854 H 573.053 1.82762 -1.78974 0
M  V30 5855 H 572.697 3.81531 -3.35256 0
M  V30 5856 H 572.627 4.89633 -1.93823 0
M  V30 5857 H 575.118 3.34507 -1.75822 0
M  V30 5858 H 575.431 6.52728 -4.13722 0
M  V30 5859 H 573.776 5.87388 -3.71484 0
M  V30 5860 H 576.967 4.10363 -2.25211 0
M  V30 5861 H 577.14 5.55486 -3.33676 0
M  V30 5862 N 570.547 0.616602 1.45037 0
M  V30 5863 C 571.494 -0.0969439 2.30596 0
M  V30 5864 C 572.464 -0.851151 1.42635 0
M  V30 5865 O 573.649 -0.835092 1.71554 0
M  V30 5866 C 570.789 -1.08234 3.27688 0
M  V30 5867 C 569.902 -0.328072 4.30752 0
M  V30 5868 C 569.037 -1.30399 5.14946 0
M  V30 5869 C 568.076 -0.538049 6.09731 0
M  V30 5870 N 567.213 -1.46371 6.86673 0
M  V30 5871 H 572.053 0.63864 2.91076 0
M  V30 5872 H 569.59 0.326733 1.43425 0
M  V30 5873 H 571.548 -1.66688 3.82454 0
M  V30 5874 H 570.178 -1.78523 2.68941 0
M  V30 5875 H 569.23 0.372136 3.78575 0
M  V30 5876 H 570.542 0.269142 4.98073 0
M  V30 5877 H 569.696 -1.96032 5.74157 0
M  V30 5878 H 568.435 -1.93514 4.47665 0
M  V30 5879 H 567.44 0.131852 5.49642 0
M  V30 5880 H 568.665 0.0881732 6.79043 0
M  V30 5881 H 566.611 -2.08233 6.22073 0
M  V30 5882 H 566.528 -0.920152 7.50379 0
M  V30 5883 H 567.796 -2.10932 7.50418 0
M  V30 5884 N 572.025 -1.5352 0.356285 0
M  V30 5885 C 573.302 -1.93405 -0.292223 0
M  V30 5886 C 573.682 -1.28901 -1.67176 0
M  V30 5887 O 573.03 -0.444632 -2.24132 0
M  V30 5888 C 573.24 -3.47223 -0.35175 0
M  V30 5889 C 574.588 -4.20389 -0.596534 0
M  V30 5890 O 575.612 -3.53554 -0.433344 0
M  V30 5891 O 574.471 -5.3881 -0.913589 0
M  V30 5892 H 571.565 -0.808666 -0.173172 0
M  V30 5893 H 574.111 -1.64713 0.408391 0
M  V30 5894 H 572.883 -3.86423 0.615841 0
M  V30 5895 H 572.506 -3.8212 -1.09864 0
M  V30 5896 N 573.503 -0.0852151 -1.57369 0
M  V30 5897 C 574.749 0.581666 -1.94279 0
M  V30 5898 C 575.082 1.68444 -0.966446 0
M  V30 5899 O 574.357 1.945 0.00215277 0
M  V30 5900 C 574.64 1.14609 -3.41375 0
M  V30 5901 C 574.493 0.0490414 -4.49773 0
M  V30 5902 C 575.812 2.04751 -3.8957 0
M  V30 5903 H 572.931 0.209972 -0.706456 0
M  V30 5904 H 575.573 -0.153915 -1.89376 0
M  V30 5905 H 573.723 1.77297 -3.45685 0
M  V30 5906 H 575.395 -0.584721 -4.57579 0
M  V30 5907 H 573.638 -0.618638 -4.29366 0
M  V30 5908 H 574.309 0.484601 -5.49869 0
M  V30 5909 H 576.785 1.51981 -3.87351 0
M  V30 5910 H 575.661 2.41173 -4.93079 0
M  V30 5911 H 575.922 2.96107 -3.28288 0
M  V30 5912 N 574.981 1.5647 0.188427 0
M  V30 5913 C 576.206 1.85486 0.927891 0
M  V30 5914 C 576.631 0.669575 1.75779 0
M  V30 5915 O 575.989 -0.381573 1.77239 0
M  V30 5916 C 576.037 3.12784 1.7944 0
M  V30 5917 O 575.141 2.93805 2.894 0
M  V30 5918 H 574.482 0.610585 0.260925 0
M  V30 5919 H 577.012 2.037 0.191729 0
M  V30 5920 H 577.022 3.43749 2.19774 0
M  V30 5921 H 575.697 3.98671 1.18468 0
M  V30 5922 H 574.274 2.74153 2.52774 0
M  V30 5923 N 576.459 -0.456382 1.50847 0
M  V30 5924 C 577.689 -1.22848 1.66108 0
M  V30 5925 C 578.097 -1.85936 0.349897 0
M  V30 5926 O 577.44 -1.70664 -0.679665 0
M  V30 5927 C 577.502 -2.36722 2.70561 0
M  V30 5928 C 577.166 -1.94154 4.13707 0
M  V30 5929 C 578.163 -1.4557 4.99105 0
M  V30 5930 C 575.848 -2.02426 4.59705 0
M  V30 5931 C 577.842 -1.0582 6.28555 0
M  V30 5932 C 575.529 -1.62287 5.89157 0
M  V30 5933 C 576.527 -1.14064 6.73408 0
M  V30 5934 O 576.215 -0.744873 8.00442 0
M  V30 5935 H 575.947 -0.377105 0.561042 0
M  V30 5936 H 578.501 -0.549431 1.97915 0
M  V30 5937 H 576.731 -3.07844 2.34027 0
M  V30 5938 H 578.42 -2.98646 2.74892 0
M  V30 5939 H 579.186 -1.38589 4.64777 0
M  V30 5940 H 575.065 -2.38908 3.94264 0
M  V30 5941 H 578.609 -0.6811 6.94267 0
M  V30 5942 H 574.506 -1.68932 6.23003 0
M  V30 5943 H 575.274 -0.87242 8.13837 0
M  V30 5944 N 577.937 -1.40673 -0.710563 0
M  V30 5945 C 579.167 -1.4234 -1.49742 0
M  V30 5946 C 579.575 -0.022821 -1.89186 0
M  V30 5947 O 578.918 0.964773 -1.56326 0
M  V30 5948 C 578.98 -2.25509 -2.79975 0
M  V30 5949 C 578.644 -3.73862 -2.62824 0
M  V30 5950 C 579.641 -4.66379 -2.29752 0
M  V30 5951 C 577.326 -4.17735 -2.78932 0
M  V30 5952 C 579.32 -6.00756 -2.13006 0
M  V30 5953 C 577.007 -5.5218 -2.61802 0
M  V30 5954 C 578.005 -6.43505 -2.28888 0
M  V30 5955 O 577.693 -7.75472 -2.11894 0
M  V30 5956 H 577.425 -0.487311 -0.468513 0
M  V30 5957 H 579.979 -1.8542 -0.883668 0
M  V30 5958 H 578.209 -1.77218 -3.43701 0
M  V30 5959 H 579.898 -2.19058 -3.41714 0
M  V30 5960 H 580.664 -4.33778 -2.16936 0
M  V30 5961 H 576.543 -3.46967 -3.03537 0
M  V30 5962 H 580.087 -6.72003 -1.87237 0
M  V30 5963 H 575.984 -5.84365 -2.74204 0
M  V30 5964 H 576.752 -7.86458 -2.26775 0
M  V30 5965 N 579.415 0.9433 -1.26252 0
M  V30 5966 C 580.664 1.68369 -1.11062 0
M  V30 5967 C 580.977 1.92514 0.346104 0
M  V30 5968 O 582.183 2.64358 0.618646 0
M  V30 5969 C 580.639 3.03171 -1.93946 0
M  V30 5970 C 580.247 2.86782 -3.4418 0
M  V30 5971 C 581.991 3.80916 -1.87359 0
M  V30 5972 C 579.898 4.17044 -4.19319 0
M  V30 5973 H 578.828 0.631469 -0.412023 0
M  V30 5974 H 581.479 1.04922 -1.50544 0
M  V30 5975 H 579.861 3.67587 -1.47296 0
M  V30 5976 H 581.035 2.31229 -3.98585 0
M  V30 5977 H 579.35 2.22482 -3.51981 0
M  V30 5978 H 581.947 4.77417 -2.40784 0
M  V30 5979 H 582.29 4.07658 -0.843857 0
M  V30 5980 H 582.823 3.2327 -2.31821 0
M  V30 5981 H 579.562 3.95487 -5.22753 0
M  V30 5982 H 579.082 4.72319 -3.69696 0
M  V30 5983 H 580.761 4.85513 -4.27651 0
M  V30 5984 N 580.893 1.08022 1.14757 0
M  V30 5985 C 581.856 0.71048 2.1791 0
M  V30 5986 C 582.856 -0.252731 1.58801 0
M  V30 5987 O 584.046 -0.0327915 1.74169 0
M  V30 5988 C 581.178 0.0483203 3.40866 0
M  V30 5989 H 582.371 1.62384 2.52134 0
M  V30 5990 H 579.924 0.877595 1.29337 0
M  V30 5991 H 580.659 -0.876959 3.12218 0
M  V30 5992 H 580.444 0.741189 3.85031 0
M  V30 5993 H 581.934 -0.195471 4.17142 0
M  V30 5994 N 582.371 -1.3172 0.865308 0
M  V30 5995 C 583.611 -1.98675 0.480365 0
M  V30 5996 C 583.975 -1.66929 -0.948621 0
M  V30 5997 O 585.176 -2.27059 -1.43867 0
M  V30 5998 C 583.447 -3.49972 0.724858 0
M  V30 5999 S 585.006 -4.36598 0.439078 0
M  V30 6000 H 581.824 -0.687967 0.179506 0
M  V30 6001 H 584.426 -1.60215 1.12033 0
M  V30 6002 H 583.13 -3.70567 1.76375 0
M  V30 6003 H 582.661 -3.93335 0.0717173 0
M  V30 6004 H 584.676 -4.90792 -0.730564 0
M  V30 6005 N 583.85 -0.624285 -1.44708 0
M  V30 6006 C 584.797 0.0847135 -2.30644 0
M  V30 6007 C 585.767 0.843575 -1.43084 0
M  V30 6008 O 586.952 0.825982 -1.71995 0
M  V30 6009 C 584.091 1.06495 -3.28257 0
M  V30 6010 C 583.205 0.305224 -4.3092 0
M  V30 6011 C 582.34 1.27667 -5.1563 0
M  V30 6012 C 581.379 0.505706 -6.10007 0
M  V30 6013 N 580.516 1.42727 -6.8744 0
M  V30 6014 H 585.356 -0.654068 -2.90733 0
M  V30 6015 H 582.893 -0.334334 -1.4325 0
M  V30 6016 H 584.851 1.64658 -3.83332 0
M  V30 6017 H 583.481 1.77094 -2.69884 0
M  V30 6018 H 582.533 -0.392207 -3.78373 0
M  V30 6019 H 583.845 -0.295553 -4.97924 0
M  V30 6020 H 582.999 1.92984 -5.75189 0
M  V30 6021 H 581.738 1.91137 -4.48685 0
M  V30 6022 H 580.743 -0.160999 -5.49564 0
M  V30 6023 H 581.968 -0.124183 -6.78986 0
M  V30 6024 H 579.913 2.04931 -6.23169 0
M  V30 6025 H 579.831 0.880345 -7.50857 0
M  V30 6026 H 581.099 2.0695 -7.51526 0
M  V30 6027 N 585.328 1.53329 -0.364422 0
M  V30 6028 C 586.275 2.25698 0.482607 0
M  V30 6029 C 587.245 1.26325 1.07848 0
M  V30 6030 O 588.43 1.55104 1.11119 0
M  V30 6031 C 585.57 3.04873 1.61699 0
M  V30 6032 C 584.683 4.19135 1.0464 0
M  V30 6033 C 583.818 4.85754 2.14979 0
M  V30 6034 C 582.857 5.9205 1.5538 0
M  V30 6035 N 581.994 6.52365 2.59547 0
M  V30 6036 H 586.834 2.97666 -0.141032 0
M  V30 6037 H 584.371 1.46875 -0.0813692 0
M  V30 6038 H 586.329 3.49051 2.28516 0
M  V30 6039 H 584.959 2.35162 2.2113 0
M  V30 6040 H 584.011 3.79451 0.268553 0
M  V30 6041 H 585.323 4.95525 0.570653 0
M  V30 6042 H 584.477 5.3311 2.89619 0
M  V30 6043 H 583.216 4.08834 2.65906 0
M  V30 6044 H 582.221 5.44058 0.792549 0
M  V30 6045 H 583.446 6.7089 1.0528 0
M  V30 6046 H 581.392 5.78298 3.09689 0
M  V30 6047 H 581.309 7.2429 2.16655 0
M  V30 6048 H 582.577 7.0437 3.33892 0
M  V30 6049 N 586.806 0.0935595 1.57322 0
M  V30 6050 C 588.046 -0.573901 1.96178 0
M  V30 6051 C 588.41 -1.65445 0.97426 0
M  V30 6052 O 589.611 -2.37901 1.25126 0
M  V30 6053 C 587.882 -1.11612 3.39526 0
M  V30 6054 S 589.441 -1.79566 4.00377 0
M  V30 6055 H 586.259 -0.187315 0.685882 0
M  V30 6056 H 588.861 0.172597 1.94737 0
M  V30 6057 H 587.565 -0.31815 4.09165 0
M  V30 6058 H 587.096 -1.89848 3.4456 0
M  V30 6059 H 589.111 -3.07978 3.89056 0
M  V30 6060 N 588.284 -1.56567 -0.180126 0
M  V30 6061 C 589.232 -1.96632 -1.24251 0
M  V30 6062 C 590.226 -0.853818 -1.46309 0
M  V30 6063 O 591.432 -1.0389 -1.46993 0
M  V30 6064 H 587.807 -0.625476 -0.417473 0
M  V30 6065 H 589.778 -2.85201 -0.877679 0
M  V30 6066 C 588.527 -2.33486 -2.57642 0
M  V30 6067 H 587.85 -3.18626 -2.4149 0
M  V30 6068 H 589.29 -2.65371 -3.30688 0
M  V30 6069 C 587.749 -1.17499 -3.15746 0
M  V30 6070 O 588.279 -0.457956 -3.99081 0
M  V30 6071 N 586.485 -0.94786 -2.74707 0
M  V30 6072 H 586.032 -1.53269 -2.07042 0
M  V30 6073 H 585.99 -0.173626 -3.1392 0
M  V30 6074 N 589.762 0.448376 -1.51087 0
M  V30 6075 C 590.987 1.22605 -1.6728 0
M  V30 6076 C 591.412 1.84524 -0.365045 0
M  V30 6077 O 590.77 1.6832 0.673642 0
M  V30 6078 C 590.818 2.29393 -2.78229 0
M  V30 6079 O 589.922 3.34608 -2.41063 0
M  V30 6080 H 589.263 0.359705 -0.558129 0
M  V30 6081 H 591.793 0.530903 -1.97592 0
M  V30 6082 H 591.803 2.74352 -3.01986 0
M  V30 6083 H 590.478 1.83701 -3.73131 0
M  V30 6084 H 589.055 2.95202 -2.27838 0
M  V30 6085 N 591.24 1.41047 0.703093 0
M  V30 6086 C 592.19 1.38774 1.80903 0
M  V30 6087 C 593.174 0.263275 1.58731 0
M  V30 6088 O 594.366 0.503362 1.69692 0
M  V30 6089 C 591.495 1.26497 3.19145 0
M  V30 6090 C 590.581 2.43775 3.47037 0
M  V30 6091 N 590.972 3.69249 3.45672 0
M  V30 6092 C 589.27 2.37425 3.77552 0
M  V30 6093 C 589.971 4.46989 3.72258 0
M  V30 6094 N 588.947 3.76998 3.91629 0
M  V30 6095 H 592.749 2.33714 1.78199 0
M  V30 6096 H 590.263 1.34996 0.902762 0
M  V30 6097 H 592.26 1.2295 3.98358 0
M  V30 6098 H 590.92 0.32534 3.23066 0
M  V30 6099 H 591.931 4.02239 3.26228 0
M  V30 6100 H 588.608 1.51895 3.88888 0
M  V30 6101 H 589.998 5.55894 3.77402 0
M  V30 6102 N 592.718 -0.936591 1.26751 0
M  V30 6103 C 593.681 -2.01752 1.08761 0
M  V30 6104 C 594.681 -1.60763 0.0344435 0
M  V30 6105 O 595.871 -1.71963 0.278258 0
M  V30 6106 C 593.003 -3.34543 0.655271 0
M  V30 6107 H 594.196 -2.19143 2.04735 0
M  V30 6108 H 591.749 -1.11618 1.09413 0
M  V30 6109 H 592.484 -3.22851 -0.30626 0
M  V30 6110 H 592.269 -3.65647 1.41578 0
M  V30 6111 H 593.759 -4.13944 0.551378 0
M  V30 6112 N 594.196 -1.08629 -1.14182 0
M  V30 6113 C 595.444 -0.815731 -1.84906 0
M  V30 6114 C 595.765 0.660441 -1.83475 0
M  V30 6115 O 595.035 1.47888 -1.28476 0
M  V30 6116 H 593.615 -0.298773 -0.684648 0
M  V30 6117 H 596.277 -1.37274 -1.38354 0
M  V30 6118 H 595.373 -1.16193 -2.89665 0
M  V30 6119 N 595.674 1.31259 -0.872281 0
M  V30 6120 C 596.92 1.96913 -0.485083 0
M  V30 6121 C 597.253 1.68774 0.960667 0
M  V30 6122 O 596.528 0.985495 1.67685 0
M  V30 6123 C 596.811 3.52299 -0.745502 0
M  V30 6124 C 596.664 3.90002 -2.24095 0
M  V30 6125 C 597.983 4.39582 -0.213516 0
M  V30 6126 H 595.102 0.715252 -0.177716 0
M  V30 6127 H 597.744 1.55347 -1.09395 0
M  V30 6128 H 595.894 3.87835 -0.227276 0
M  V30 6129 H 597.566 3.64555 -2.82661 0
M  V30 6130 H 595.809 3.38526 -2.71261 0
M  V30 6131 H 596.48 4.98352 -2.37381 0
M  V30 6132 H 598.956 4.10882 -0.656902 0
M  V30 6133 H 597.832 5.47251 -0.42516 0
M  V30 6134 H 598.093 4.33158 0.884666 0
M  V30 6135 N 597.152 0.631951 1.44375 0
M  V30 6136 C 598.392 0.14009 2.03919 0
M  V30 6137 C 598.756 -1.21534 1.48639 0
M  V30 6138 O 599.957 -1.79936 1.99691 0
M  V30 6139 C 598.228 0.127174 3.57174 0
M  V30 6140 S 599.787 -0.299946 4.37774 0
M  V30 6141 H 596.605 0.0614891 0.708336 0
M  V30 6142 H 599.207 0.835524 1.76746 0
M  V30 6143 H 597.911 1.11676 3.94913 0
M  V30 6144 H 597.442 -0.589482 3.88958 0
M  V30 6145 H 599.457 -1.54396 4.71568 0
M  V30 6146 N 598.631 -1.53133 0.372548 0
M  V30 6147 C 599.541 -2.29671 -0.478379 0
M  V30 6148 C 600.557 -1.35913 -1.08644 0
M  V30 6149 O 601.733 -1.68975 -1.09588 0
M  V30 6150 C 598.798 -3.07625 -1.599 0
M  V30 6151 C 597.859 -4.17061 -1.01776 0
M  V30 6152 C 597.092 -4.91289 -2.08497 0
M  V30 6153 O 597.315 -4.65442 -3.29727 0
M  V30 6154 O 596.249 -5.7705 -1.71164 0
M  V30 6155 H 600.075 -3.03355 0.144649 0
M  V30 6156 H 597.66 -1.48773 0.136729 0
M  V30 6157 H 599.542 -3.56281 -2.25038 0
M  V30 6158 H 598.217 -2.3677 -2.2073 0
M  V30 6159 H 597.124 -3.72641 -0.330098 0
M  V30 6160 H 598.457 -4.90102 -0.453915 0
M  V30 6161 N 600.109 -0.101901 -1.5727 0
M  V30 6162 C 601.019 0.868647 -2.17926 0
M  V30 6163 C 602.035 1.30527 -1.1506 0
M  V30 6164 O 603.211 1.37178 -1.47459 0
M  V30 6165 C 600.276 2.10727 -2.75309 0
M  V30 6166 C 599.337 1.7242 -3.93154 0
M  V30 6167 C 598.57 2.90377 -4.47791 0
M  V30 6168 O 598.793 4.05305 -4.01353 0
M  V30 6169 O 597.727 2.6845 -5.38719 0
M  V30 6170 H 601.553 0.382544 -3.01281 0
M  V30 6171 H 599.138 0.122812 -1.48894 0
M  V30 6172 H 601.02 2.83303 -3.11958 0
M  V30 6173 H 599.695 2.58376 -1.94996 0
M  V30 6174 H 598.602 0.970039 -3.61305 0
M  V30 6175 H 599.935 1.29528 -4.74851 0
M  V30 6176 N 601.587 1.56661 0.17182 0
M  V30 6177 C 602.827 1.83762 0.895029 0
M  V30 6178 C 603.191 0.682752 1.79451 0
M  V30 6179 O 604.392 0.834208 2.55528 0
M  V30 6180 C 602.663 3.15976 1.67015 0
M  V30 6181 S 604.222 3.64558 2.44219 0
M  V30 6182 H 601.04 0.644713 0.299778 0
M  V30 6183 H 603.642 1.94871 0.156701 0
M  V30 6184 H 602.346 3.98021 1.00039 0
M  V30 6185 H 601.877 3.07807 2.44986 0
M  V30 6186 H 603.892 3.31845 3.68909 0
M  V30 6187 N 603.065 -0.440357 1.51323 0
M  V30 6188 C 604.313 -1.18769 1.63518 0
M  V30 6189 C 604.634 -1.91793 0.352201 0
M  V30 6190 O 603.904 -1.85432 -0.631811 0
M  V30 6191 H 602.484 -0.441408 0.602634 0
M  V30 6192 H 605.146 -0.505162 1.8824 0
M  V30 6193 H 604.242 -1.91892 2.46138 0
M  V30 6194 N 604.543 -1.41418 -0.695603 0
M  V30 6195 C 605.791 -1.40496 -1.45277 0
M  V30 6196 C 606.112 -0.0149538 -1.94994 0
M  V30 6197 O 605.382 0.9432 -1.71699 0
M  V30 6198 H 603.962 -0.517147 -0.539044 0
M  V30 6199 H 606.624 -1.76656 -0.823321 0
M  V30 6200 H 605.72 -2.09214 -2.31595 0
M  V30 6201 N 606.021 0.929856 -1.27246 0
M  V30 6202 C 606.971 2.01629 -1.06442 0
M  V30 6203 C 607.955 1.60899 0.00687842 0
M  V30 6204 O 609.147 1.75733 -0.211407 0
M  V30 6205 C 606.276 3.35849 -0.711361 0
M  V30 6206 C 605.362 3.8303 -1.82069 0
M  V30 6207 N 605.753 4.02743 -3.05993 0
M  V30 6208 C 604.051 4.12046 -1.70687 0
M  V30 6209 C 604.752 4.42001 -3.78167 0
M  V30 6210 N 603.728 4.4935 -3.05918 0
M  V30 6211 H 607.53 2.14898 -2.00489 0
M  V30 6212 H 605.044 1.11654 -1.17929 0
M  V30 6213 H 607.041 4.13343 -0.543442 0
M  V30 6214 H 605.701 3.23944 0.221517 0
M  V30 6215 H 606.712 3.89112 -3.41778 0
M  V30 6216 H 603.389 4.08866 -0.844681 0
M  V30 6217 H 604.779 4.6535 -4.84664 0
M  V30 6218 N 607.499 1.09233 1.13605 0
M  V30 6219 C 608.745 0.828385 1.8511 0
M  V30 6220 C 609.078 -0.64437 1.83198 0
M  V30 6221 O 608.353 -1.47428 1.26867 0
M  V30 6222 C 608.636 1.36167 3.33363 0
M  V30 6223 C 608.489 2.90038 3.438 0
M  V30 6224 C 609.808 0.993819 4.28732 0
M  V30 6225 H 606.927 0.30239 0.672108 0
M  V30 6226 H 609.569 1.35339 1.33355 0
M  V30 6227 H 607.719 0.9151 3.77569 0
M  V30 6228 H 609.391 3.43128 3.08319 0
M  V30 6229 H 607.634 3.27271 2.84739 0
M  V30 6230 H 608.305 3.22428 4.48045 0
M  V30 6231 H 610.781 1.37893 3.92587 0
M  V30 6232 H 609.657 1.39403 5.30903 0
M  V30 6233 H 609.918 -0.0982206 4.41991 0
M  V30 6234 N 608.977 -1.30795 0.87923 0
M  V30 6235 C 610.393 -1.48981 0.57243 0
M  V30 6236 C 610.593 -1.80719 -0.891236 0
M  V30 6237 O 609.649 -1.89136 -1.67283 0
M  V30 6238 C 610.962 -2.61721 1.48063 0
M  V30 6239 C 612.51 -2.75603 1.48365 0
M  V30 6240 C 612.985 -3.91449 2.37763 0
M  V30 6241 N 614.476 -3.98751 2.35695 0
M  V30 6242 C 615.211 -4.87684 3.01583 0
M  V30 6243 N 614.707 -5.81454 3.76674 0
M  V30 6244 N 616.5 -4.81005 2.90844 0
M  V30 6245 H 608.651 -1.08465 1.82617 0
M  V30 6246 H 610.914 -0.536813 0.781368 0
M  V30 6247 H 610.62 -2.45073 2.52254 0
M  V30 6248 H 610.494 -3.58071 1.18596 0
M  V30 6249 H 612.881 -2.9166 0.44927 0
M  V30 6250 H 612.962 -1.79891 1.81859 0
M  V30 6251 H 612.606 -3.76149 3.41283 0
M  V30 6252 H 612.536 -4.86487 2.01589 0
M  V30 6253 H 615.027 -3.31668 1.81121 0
M  V30 6254 H 615.34 -6.46063 4.24054 0
M  V30 6255 H 613.685 -5.81403 3.80782 0
M  V30 6256 H 616.876 -4.06728 2.31711 0
M  V30 6257 H 617.049 -5.50107 3.42471 0
M  V30 6258 N 610.455 -0.639598 -1.44038 0
M  V30 6259 C 611.685 -0.154586 -2.06021 0
M  V30 6260 C 612.093 1.17951 -1.47933 0
M  V30 6261 O 611.436 1.73627 -0.59994 0
M  V30 6262 C 611.498 0.0255459 -3.59491 0
M  V30 6263 C 611.162 -1.2317 -4.40089 0
M  V30 6264 C 612.159 -2.15735 -4.73027 0
M  V30 6265 C 609.844 -1.46949 -4.80324 0
M  V30 6266 C 611.838 -3.30382 -5.45093 0
M  V30 6267 C 609.525 -2.61891 -5.52138 0
M  V30 6268 C 610.523 -3.53433 -5.84443 0
M  V30 6269 O 610.211 -4.6637 -6.54793 0
M  V30 6270 H 609.943 -0.0808543 -0.671147 0
M  V30 6271 H 612.497 -0.876541 -1.85758 0
M  V30 6272 H 610.727 0.802733 -3.78276 0
M  V30 6273 H 612.416 0.466184 -4.03214 0
M  V30 6274 H 613.182 -1.98602 -4.42473 0
M  V30 6275 H 609.061 -0.765815 -4.54595 0
M  V30 6276 H 612.605 -4.01856 -5.70226 0
M  V30 6277 H 608.502 -2.78964 -5.82108 0
M  V30 6278 H 609.27 -4.6546 -6.73267 0
M  V30 6279 N 611.933 1.52934 -0.380664 0
M  V30 6280 C 612.863 2.29118 0.450268 0
M  V30 6281 C 613.844 1.32153 1.07096 0
M  V30 6282 O 615.029 1.61038 1.08537 0
M  V30 6283 C 612.159 3.09161 1.58231 0
M  V30 6284 C 611.113 4.13938 1.0881 0
M  V30 6285 C 610.439 4.82153 2.31155 0
M  V30 6286 C 611.739 5.22048 0.162146 0
M  V30 6287 H 613.433 2.98826 -0.185361 0
M  V30 6288 H 610.979 1.43715 -0.0905886 0
M  V30 6289 H 612.932 3.61211 2.17036 0
M  V30 6290 H 611.656 2.3717 2.2454 0
M  V30 6291 H 610.315 3.62855 0.522633 0
M  V30 6292 H 609.963 4.06719 2.95953 0
M  V30 6293 H 609.663 5.52966 1.98752 0
M  V30 6294 H 611.187 5.37004 2.90618 0
M  V30 6295 H 612.601 5.6951 0.658126 0
M  V30 6296 H 610.998 6.00057 -0.0717122 0
M  V30 6297 H 612.068 4.78398 -0.791438 0
M  V30 6298 N 613.412 0.11024 1.57214 0
M  V30 6299 C 614.823 -0.416527 1.81994 0
M  V30 6300 C 615.174 -1.67183 1.02686 0
M  V30 6301 O 614.299 -2.14823 0.260782 0
M  V30 6302 C 614.894 -0.762466 3.30109 0
M  V30 6303 C 613.453 -1.23391 3.556 0
M  V30 6304 C 612.6 -0.238166 2.76275 0
M  V30 6305 H 615.551 0.335491 1.55113 0
M  V30 6306 H 615.572 -1.62068 3.44259 0
M  V30 6307 H 615.084 0.151346 3.87805 0
M  V30 6308 H 613.185 -2.16492 3.03253 0
M  V30 6309 H 613.298 -1.18528 4.64207 0
M  V30 6310 H 611.662 -0.723421 2.4421 0
M  V30 6311 H 612.445 0.668591 3.36727 0
M  V30 6312 N 614.89 -1.56749 -0.16351 0
M  V30 6313 C 616.306 -1.51043 -0.515567 0
M  V30 6314 C 616.506 -0.815855 -1.84245 0
M  V30 6315 O 615.562 -0.379477 -2.49632 0
M  V30 6316 C 616.875 -2.95791 -0.541114 0
M  V30 6317 C 618.423 -3.0664 -0.627776 0
M  V30 6318 C 618.898 -4.52861 -0.684141 0
M  V30 6319 N 620.389 -4.5714 -0.746818 0
M  V30 6320 C 621.124 -5.67634 -0.811137 0
M  V30 6321 N 620.62 -6.8774 -0.835811 0
M  V30 6322 N 622.413 -5.55624 -0.850756 0
M  V30 6323 H 614.564 -2.00307 0.70645 0
M  V30 6324 H 616.827 -0.912876 0.255659 0
M  V30 6325 H 616.533 -3.49797 0.365329 0
M  V30 6326 H 616.407 -3.50858 -1.38487 0
M  V30 6327 H 618.794 -2.52663 -1.52464 0
M  V30 6328 H 618.875 -2.54645 0.242805 0
M  V30 6329 H 618.519 -5.07472 0.2085 0
M  V30 6330 H 618.449 -5.02621 -1.57098 0
M  V30 6331 H 620.94 -3.70669 -0.735717 0
M  V30 6332 H 621.253 -7.67701 -0.886279 0
M  V30 6333 H 619.598 -6.90334 -0.803958 0
M  V30 6334 H 622.789 -4.60709 -0.828535 0
M  V30 6335 H 622.962 -6.41756 -0.897418 0
M  V30 6336 N 616.368 0.432326 -1.51554 0
M  V30 6337 C 617.3 1.54357 -1.6943 0
M  V30 6338 C 618.313 1.52311 -0.574897 0
M  V30 6339 O 619.502 1.56997 -0.849369 0
M  V30 6340 C 616.602 2.93273 -1.69836 0
M  V30 6341 C 615.775 3.19768 -2.98442 0
M  V30 6342 C 614.834 4.38433 -2.90969 0
M  V30 6343 O 613.86 4.36842 -3.64908 0
M  V30 6344 N 615.062 5.42276 -2.07163 0
M  V30 6345 H 617.827 1.39426 -2.65293 0
M  V30 6346 H 615.388 0.621331 -1.49503 0
M  V30 6347 H 617.38 3.70687 -1.62399 0
M  V30 6348 H 615.95 3.01777 -0.815456 0
M  V30 6349 H 615.17 2.30607 -3.19709 0
M  V30 6350 H 616.458 3.343 -3.83563 0
M  V30 6351 H 615.856 5.46407 -1.46477 0
M  V30 6352 H 614.413 6.18524 -2.05601 0
M  V30 6353 N 617.846 1.41785 0.688094 0
M  V30 6354 C 619.071 1.45117 1.48175 0
M  V30 6355 C 619.496 0.060129 1.88004 0
M  V30 6356 O 618.854 -0.938385 1.55126 0
M  V30 6357 C 618.902 2.37224 2.71583 0
M  V30 6358 O 618.006 1.83443 3.69354 0
M  V30 6359 H 617.347 0.492208 0.445676 0
M  V30 6360 H 619.877 1.86329 0.845145 0
M  V30 6361 H 619.887 2.53353 3.19806 0
M  V30 6362 H 618.562 3.38293 2.41931 0
M  V30 6363 H 617.139 1.76802 3.28322 0
M  V30 6364 N 619.324 -0.923095 1.27737 0
M  V30 6365 C 620.572 -1.66797 1.14119 0
M  V30 6366 C 620.893 -1.92479 -0.312541 0
M  V30 6367 O 620.163 -1.53432 -1.218 0
M  V30 6368 H 618.743 -0.618196 0.419336 0
M  V30 6369 H 621.405 -1.10815 1.60331 0
M  V30 6370 H 620.501 -2.63424 1.67374 0
M  V30 6371 N 620.802 -1.09834 -1.13024 0
M  V30 6372 C 621.732 -0.763451 -2.20666 0
M  V30 6373 C 622.713 0.260778 -1.68089 0
M  V30 6374 O 623.898 0.127915 -1.93778 0
M  V30 6375 C 621.028 -0.187744 -3.46792 0
M  V30 6376 C 619.982 -1.14196 -4.12484 0
M  V30 6377 C 619.308 -0.427755 -5.32986 0
M  V30 6378 C 620.608 -2.48607 -4.59338 0
M  V30 6379 H 622.302 -1.66347 -2.48936 0
M  V30 6380 H 619.848 -0.801261 -1.19649 0
M  V30 6381 H 621.801 0.0586375 -4.21359 0
M  V30 6382 H 620.525 0.747485 -3.17931 0
M  V30 6383 H 619.184 -1.37369 -3.3989 0
M  V30 6384 H 618.832 0.511747 -5.0039 0
M  V30 6385 H 618.532 -1.06403 -5.77886 0
M  V30 6386 H 620.056 -0.189772 -6.10305 0
M  V30 6387 H 621.47 -2.29618 -5.25308 0
M  V30 6388 H 619.867 -3.08062 -5.14993 0
M  V30 6389 H 620.937 -3.09062 -3.73642 0
M  V30 6390 N 622.28 1.30327 -0.886154 0
M  V30 6391 C 623.227 2.28099 -0.352069 0
M  V30 6392 C 624.197 1.56433 0.558397 0
M  V30 6393 O 625.382 1.84492 0.486561 0
M  V30 6394 C 622.522 3.42456 0.426346 0
M  V30 6395 C 621.635 4.28938 -0.513472 0
M  V30 6396 C 620.77 5.30458 0.280657 0
M  V30 6397 C 619.809 6.0859 -0.654556 0
M  V30 6398 N 618.946 7.02022 0.104322 0
M  V30 6399 H 623.786 2.73166 -1.19097 0
M  V30 6400 H 621.323 1.34367 -0.598662 0
M  V30 6401 H 623.281 4.07518 0.893587 0
M  V30 6402 H 621.911 2.98455 1.22981 0
M  V30 6403 H 620.963 3.64173 -1.09921 0
M  V30 6404 H 622.275 4.83399 -1.2299 0
M  V30 6405 H 621.429 6.01273 0.8097 0
M  V30 6406 H 620.168 4.76693 1.03029 0
M  V30 6407 H 619.173 5.36651 -1.19522 0
M  V30 6408 H 620.398 6.64443 -1.4033 0
M  V30 6409 H 618.344 6.50645 0.836472 0
M  V30 6410 H 618.261 7.53979 -0.552453 0
M  V30 6411 H 619.529 7.77077 0.614069 0
M  V30 6412 N 623.758 0.647228 1.43697 0
M  V30 6413 C 624.706 -0.0600105 2.32523 0
M  V30 6414 C 625.7 -0.819277 1.48271 0
M  V30 6415 O 626.906 -0.730356 1.64517 0
M  V30 6416 H 623.281 -0.0381872 0.75103 0
M  V30 6417 H 625.252 0.706978 2.89904 0
M  V30 6418 C 624.001 -1.0169 3.32497 0
M  V30 6419 H 623.324 -0.442083 3.97348 0
M  V30 6420 H 624.764 -1.48095 3.97296 0
M  V30 6421 C 623.223 -2.11002 2.6264 0
M  V30 6422 O 623.753 -3.19302 2.4374 0
M  V30 6423 N 621.959 -1.87388 2.22113 0
M  V30 6424 H 621.506 -0.993174 2.37684 0
M  V30 6425 H 621.464 -2.60723 1.75701 0
M  V30 6426 N 625.236 -1.5273 0.388769 0
M  V30 6427 C 626.464 -2.05992 -0.193677 0
M  V30 6428 C 626.879 -1.26053 -1.40557 0
M  V30 6429 O 626.236 -0.307049 -1.79898 0
M  V30 6430 C 626.287 -3.57068 -0.564321 0
M  V30 6431 O 626.008 -4.3398 0.599422 0
M  V30 6432 C 627.509 -4.26674 -1.20269 0
M  V30 6433 H 624.729 -0.670358 -0.0293445 0
M  V30 6434 H 627.273 -1.96857 0.553844 0
M  V30 6435 H 625.428 -3.66277 -1.26174 0
M  V30 6436 H 625.842 -5.2367 0.294895 0
M  V30 6437 H 627.316 -5.33625 -1.4124 0
M  V30 6438 H 627.793 -3.81854 -2.16989 0
M  V30 6439 H 628.399 -4.2178 -0.546047 0
M  V30 6440 N 626.714 -0.118576 -1.57153 0
M  V30 6441 C 627.939 0.550582 -1.99958 0
M  V30 6442 C 628.364 1.59458 -0.997736 0
M  V30 6443 O 627.722 1.81274 0.0306269 0
M  V30 6444 C 627.77 1.15379 -3.41643 0
M  V30 6445 O 626.874 2.26932 -3.44348 0
M  V30 6446 H 626.215 0.137567 -0.649593 0
M  V30 6447 H 628.745 -0.206926 -2.03551 0
M  V30 6448 H 628.755 1.48942 -3.79843 0
M  V30 6449 H 627.43 0.389087 -4.14076 0
M  V30 6450 H 626.007 1.94812 -3.17967 0
M  V30 6451 N 628.193 1.56834 0.155195 0
M  V30 6452 C 629.439 1.83169 0.870467 0
M  V30 6453 C 629.772 0.698929 1.81187 0
M  V30 6454 O 629.047 -0.298035 1.92203 0
M  V30 6455 C 629.33 3.19965 1.65211 0
M  V30 6456 C 629.183 4.43792 0.732744 0
M  V30 6457 C 630.502 3.53885 2.61636 0
M  V30 6458 H 627.621 0.666288 0.315006 0
M  V30 6459 H 630.263 1.89513 0.135988 0
M  V30 6460 H 628.413 3.14687 2.27825 0
M  V30 6461 H 630.085 4.61148 0.118236 0
M  V30 6462 H 628.328 4.3378 0.0417906 0
M  V30 6463 H 628.999 5.36095 1.31552 0
M  V30 6464 H 631.475 3.5972 2.09143 0
M  V30 6465 H 630.351 4.50648 3.13381 0
M  V30 6466 H 630.612 2.79418 3.42605 0
M  V30 6467 N 629.671 -0.424282 1.51781 0
M  V30 6468 C 630.604 -1.53633 1.68737 0
M  V30 6469 C 631.582 -1.53549 0.534915 0
M  V30 6470 O 632.766 -1.72483 0.760391 0
M  V30 6471 C 629.893 -2.92195 1.71288 0
M  V30 6472 C 628.939 -3.10251 2.92654 0
M  V30 6473 S 629.772 -2.85166 4.53256 0
M  V30 6474 C 630.928 -4.25986 4.58571 0
M  V30 6475 H 631.161 -1.39018 2.62795 0
M  V30 6476 H 628.694 -0.614854 1.41629 0
M  V30 6477 H 630.652 -3.72059 1.73443 0
M  V30 6478 H 629.313 -3.04162 0.783847 0
M  V30 6479 H 628.506 -4.1159 2.90877 0
M  V30 6480 H 628.108 -2.38231 2.88308 0
M  V30 6481 H 630.4 -5.19392 4.35015 0
M  V30 6482 H 631.343 -4.32792 5.60444 0
M  V30 6483 H 631.751 -4.1025 3.87757 0
M  V30 6484 N 631.149 -1.42148 -0.680565 0
M  V30 6485 C 632.082 -1.39602 -1.80517 0
M  V30 6486 C 633.06 -0.261098 -1.6049 0
M  V30 6487 O 634.244 -0.450404 -1.8304 0
M  V30 6488 C 631.371 -1.18134 -3.1743 0
M  V30 6489 C 630.417 -2.34543 -3.56219 0
M  V30 6490 S 631.25 -3.97063 -3.59306 0
M  V30 6491 C 632.406 -3.77926 -4.98921 0
M  V30 6492 H 632.639 -2.3477 -1.82402 0
M  V30 6493 H 630.172 -1.28851 -0.850691 0
M  V30 6494 H 632.13 -1.06434 -3.96462 0
M  V30 6495 H 630.791 -0.245611 -3.13138 0
M  V30 6496 H 629.984 -2.15255 -4.55721 0
M  V30 6497 H 629.586 -2.42728 -2.84533 0
M  V30 6498 H 631.878 -3.3856 -5.86842 0
M  V30 6499 H 632.821 -4.77084 -5.23256 0
M  V30 6500 H 633.229 -3.10904 -4.71167 0
M  V30 6501 N 632.627 0.916307 -1.28225 0
M  V30 6502 C 633.873 1.66765 -1.154 0
M  V30 6503 C 634.206 1.91912 0.297251 0
M  V30 6504 O 633.481 1.51766 1.21644 0
M  V30 6505 C 633.764 3.02715 -1.95028 0
M  V30 6506 C 633.617 2.84738 -3.48201 0
M  V30 6507 C 634.936 4.03215 -1.76369 0
M  V30 6508 H 632.055 0.605205 -0.42059 0
M  V30 6509 H 634.697 1.06255 -1.57512 0
M  V30 6510 H 632.847 3.54365 -1.59242 0
M  V30 6511 H 634.519 2.40118 -3.9388 0
M  V30 6512 H 632.762 2.19848 -3.73964 0
M  V30 6513 H 633.433 3.8127 -3.99171 0
M  V30 6514 H 635.909 3.60617 -2.07593 0
M  V30 6515 H 634.785 4.96306 -2.34459 0
M  V30 6516 H 635.046 4.36288 -0.71452 0
M  V30 6517 N 634.105 1.10431 1.1244 0
M  V30 6518 C 635.382 0.758797 1.80282 0
M  V30 6519 C 635.762 -0.754727 1.97147 0
M  V30 6520 O 635.11 -1.68094 1.54779 0
M  V30 6521 C 635.32 1.50982 3.14651 0
M  V30 6522 C 636.668 1.68232 3.8985 0
M  V30 6523 O 637.692 1.47319 3.24308 0
M  V30 6524 O 636.551 2.02905 5.07437 0
M  V30 6525 H 633.645 0.273756 0.780376 0
M  V30 6526 H 636.191 1.20713 1.19275 0
M  V30 6527 H 634.963 2.53989 2.97666 0
M  V30 6528 H 634.586 1.05435 3.83366 0
M  V30 6529 N 635.583 -1.29855 0.893053 0
M  V30 6530 C 636.513 -2.3035 0.382249 0
M  V30 6531 C 637.494 -1.61328 -0.539203 0
M  V30 6532 O 638.679 -1.88882 -0.451342 0
M  V30 6533 C 635.809 -3.45024 -0.396983 0
M  V30 6534 C 634.763 -4.258 0.433437 0
M  V30 6535 C 634.089 -5.32605 -0.472889 0
M  V30 6536 C 635.389 -4.94549 1.67984 0
M  V30 6537 H 637.083 -2.73325 1.22205 0
M  V30 6538 H 634.629 -1.314 0.589073 0
M  V30 6539 H 636.582 -4.14398 -0.765024 0
M  V30 6540 H 635.306 -3.00875 -1.2705 0
M  V30 6541 H 633.965 -3.58125 0.783723 0
M  V30 6542 H 633.613 -4.84702 -1.34435 0
M  V30 6543 H 633.313 -5.87547 0.0789958 0
M  V30 6544 H 634.837 -6.04832 -0.837269 0
M  V30 6545 H 636.251 -5.56395 1.38192 0
M  V30 6546 H 634.648 -5.59393 2.17254 0
M  V30 6547 H 635.718 -4.20215 2.41965 0
M  V30 6548 N 637.061 -0.65484 -1.43351 0
M  V30 6549 C 637.991 0.0221809 -2.33489 0
M  V30 6550 C 638.972 0.810272 -1.49561 0
M  V30 6551 O 640.157 0.771426 -1.78221 0
M  V30 6552 C 637.287 0.988117 -3.32947 0
M  V30 6553 C 636.241 0.310026 -4.26876 0
M  V30 6554 C 635.567 1.38752 -5.16384 0
M  V30 6555 C 636.867 -0.798589 -5.16159 0
M  V30 6556 H 638.561 -0.730571 -2.9035 0
M  V30 6557 H 636.107 -0.352773 -1.39612 0
M  V30 6558 H 638.06 1.47067 -3.94904 0
M  V30 6559 H 636.784 1.77205 -2.74346 0
M  V30 6560 H 635.443 -0.152097 -3.66284 0
M  V30 6561 H 635.091 2.16293 -4.54121 0
M  V30 6562 H 634.791 0.939051 -5.80048 0
M  V30 6563 H 636.315 1.87141 -5.81215 0
M  V30 6564 H 637.729 -0.398126 -5.71916 0
M  V30 6565 H 636.126 -1.17163 -5.88552 0
M  V30 6566 H 637.196 -1.65588 -4.55751 0
M  V30 6567 N 638.539 1.52521 -0.396863 0
M  V30 6568 C 639.502 2.2527 0.422604 0
M  V30 6569 C 640.502 1.27184 0.983913 0
M  V30 6570 O 641.692 1.51222 0.864723 0
M  V30 6571 C 638.824 3.01356 1.59365 0
M  V30 6572 H 640.017 2.99133 -0.214416 0
M  V30 6573 H 637.57 1.55587 -0.149128 0
M  V30 6574 H 638.305 2.31813 2.26789 0
M  V30 6575 H 638.09 3.73357 1.19779 0
M  V30 6576 H 639.58 3.56571 2.17363 0
M  V30 6577 N 640.017 0.126909 1.57088 0
M  V30 6578 C 640.967 -0.831678 2.1229 0
M  V30 6579 C 641.951 -1.22292 1.04564 0
M  V30 6580 O 643.143 -1.19269 1.30782 0
M  V30 6581 C 640.272 -2.07866 2.73215 0
M  V30 6582 C 639.358 -1.71143 3.88035 0
M  V30 6583 N 639.749 -1.05136 4.94753 0
M  V30 6584 C 638.047 -2.00549 3.98367 0
M  V30 6585 C 638.748 -0.877257 5.75047 0
M  V30 6586 N 637.724 -1.40477 5.25135 0
M  V30 6587 H 641.526 -0.317926 2.92175 0
M  V30 6588 H 639.04 -0.0753052 1.62225 0
M  V30 6589 H 641.037 -2.77516 3.11111 0
M  V30 6590 H 639.697 -2.59778 1.94796 0
M  V30 6591 H 640.708 -0.71442 5.12949 0
M  V30 6592 H 637.385 -2.54452 3.30999 0
M  V30 6593 H 638.775 -0.358536 6.70943 0
M  V30 6594 N 641.495 -1.56914 -0.146875 0
M  V30 6595 C 642.723 -1.87515 -0.874394 0
M  V30 6596 C 643.138 -0.715116 -1.74733 0
M  V30 6597 O 642.495 0.315113 -1.79759 0
M  V30 6598 C 642.546 -3.17362 -1.731 0
M  V30 6599 O 642.267 -4.28897 -0.893245 0
M  V30 6600 C 643.768 -3.61479 -2.56609 0
M  V30 6601 H 640.988 -0.621546 -0.252827 0
M  V30 6602 H 643.532 -2.04023 -0.139627 0
M  V30 6603 H 641.687 -3.02608 -2.41883 0
M  V30 6604 H 642.101 -5.03146 -1.48137 0
M  V30 6605 H 643.575 -4.5517 -3.12289 0
M  V30 6606 H 644.052 -2.86773 -3.32653 0
M  V30 6607 H 644.658 -3.78927 -1.93117 0
M  V30 6608 N 642.974 0.416227 -1.52004 0
M  V30 6609 C 643.922 1.5272 -1.7544 0
M  V30 6610 C 644.916 1.57596 -0.621289 0
M  V30 6611 O 646.122 1.61087 -0.803172 0
M  V30 6612 H 642.497 0.507772 -0.554682 0
M  V30 6613 H 644.468 1.30136 -2.68528 0
M  V30 6614 C 643.217 2.90165 -1.91571 0
M  V30 6615 H 642.54 2.87154 -2.78178 0
M  V30 6616 H 643.98 3.67211 -2.11972 0
M  V30 6617 C 642.439 3.29947 -0.680942 0
M  V30 6618 O 642.969 4.01403 0.154527 0
M  V30 6619 N 641.175 2.8593 -0.518894 0
M  V30 6620 H 640.722 2.2795 -1.19986 0
M  V30 6621 H 640.68 3.12907 0.305985 0
M  V30 6622 N 644.452 1.42507 0.673017 0
M  V30 6623 C 645.682 1.46261 1.45916 0
M  V30 6624 C 646.09 0.0729724 1.89059 0
M  V30 6625 O 645.433 -0.922987 1.58829 0
M  V30 6626 C 645.495 2.32853 2.73898 0
M  V30 6627 C 645.159 3.80699 2.52819 0
M  V30 6628 C 646.156 4.72307 2.17306 0
M  V30 6629 C 643.841 4.24983 2.67758 0
M  V30 6630 C 645.835 6.06192 1.97003 0
M  V30 6631 C 643.522 5.58927 2.4707 0
M  V30 6632 C 644.52 6.49348 2.11746 0
M  V30 6633 O 644.208 7.80817 1.91259 0
M  V30 6634 H 643.94 0.499561 0.455428 0
M  V30 6635 H 646.494 1.87697 0.834196 0
M  V30 6636 H 644.724 1.86268 3.38882 0
M  V30 6637 H 646.413 2.28041 3.35786 0
M  V30 6638 H 647.179 4.39378 2.05359 0
M  V30 6639 H 643.058 3.54893 2.94231 0
M  V30 6640 H 646.602 6.76731 1.69355 0
M  V30 6641 H 642.499 5.91429 2.58615 0
M  V30 6642 H 643.267 7.92194 2.05843 0
M  V30 6643 N 645.93 -0.909495 1.28709 0
M  V30 6644 C 647.158 -1.69272 1.18973 0
M  V30 6645 C 647.573 -1.87123 -0.251048 0
M  V30 6646 O 646.93 -1.40127 -1.16922 0
M  V30 6647 C 646.981 -3.08257 1.88839 0
M  V30 6648 O 646.702 -2.91228 3.27289 0
M  V30 6649 C 648.203 -4.02642 1.85457 0
M  V30 6650 H 645.423 -0.528999 0.412797 0
M  V30 6651 H 647.967 -1.13803 1.69909 0
M  V30 6652 H 646.122 -3.6053 1.41762 0
M  V30 6653 H 646.536 -3.79223 3.6234 0
M  V30 6654 H 648.01 -4.97613 2.38925 0
M  V30 6655 H 648.487 -4.31327 0.827893 0
M  V30 6656 H 649.093 -3.56298 2.32233 0
M  V30 6657 N 647.408 -1.11026 -1.11852 0
M  V30 6658 C 648.655 -0.85646 -1.83497 0
M  V30 6659 C 648.983 0.617938 -1.84423 0
M  V30 6660 O 648.238 1.47194 -1.28966 0
M  V30 6661 C 648.537 -1.35777 -3.30604 0
M  V30 6662 C 648.203 -2.84465 -3.49843 0
M  V30 6663 C 646.865 -3.25068 -3.54802 0
M  V30 6664 C 649.217 -3.80251 -3.56453 0
M  V30 6665 C 646.545 -4.60194 -3.63921 0
M  V30 6666 C 648.897 -5.15188 -3.67102 0
M  V30 6667 C 647.561 -5.55356 -3.70319 0
M  V30 6668 H 646.831 -0.313401 -0.671462 0
M  V30 6669 H 649.478 -1.38792 -1.31943 0
M  V30 6670 H 647.783 -0.746455 -3.84624 0
M  V30 6671 H 649.48 -1.13779 -3.8452 0
M  V30 6672 H 646.07 -2.52054 -3.46651 0
M  V30 6673 H 650.254 -3.49986 -3.51886 0
M  V30 6674 H 645.51 -4.90728 -3.64686 0
M  V30 6675 H 649.684 -5.89248 -3.71159 0
M  V30 6676 H 647.311 -6.60054 -3.77138 0
M  V30 6677 N 648.886 1.2938 -0.899927 0
M  V30 6678 C 649.796 2.31462 -0.382437 0
M  V30 6679 C 650.812 1.65956 0.522929 0
M  V30 6680 O 651.988 1.97131 0.412454 0
M  V30 6681 C 649.053 3.44595 0.381472 0
M  V30 6682 C 648.114 4.25692 -0.555444 0
M  V30 6683 C 647.347 5.33422 0.172102 0
M  V30 6684 O 647.57 5.53053 1.396 0
M  V30 6685 O 646.504 5.99939 -0.485491 0
M  V30 6686 H 650.33 2.77706 -1.22934 0
M  V30 6687 H 647.915 1.33821 -0.664259 0
M  V30 6688 H 649.797 4.13474 0.813442 0
M  V30 6689 H 648.472 3.00458 1.20443 0
M  V30 6690 H 647.379 3.59453 -1.03653 0
M  V30 6691 H 648.712 4.73471 -1.34483 0
M  V30 6692 N 650.364 0.662433 1.43002 0
M  V30 6693 C 651.613 0.176873 2.00923 0
M  V30 6694 C 651.926 -1.21954 1.52927 0
M  V30 6695 O 653.132 -1.80081 2.03182 0
M  V30 6696 C 651.588 0.265379 3.5892 0
M  V30 6697 C 651.196 1.66507 4.15908 0
M  V30 6698 C 652.94 -0.162103 4.2419 0
M  V30 6699 C 650.847 1.707 5.66229 0
M  V30 6700 H 649.777 0.0623627 0.751417 0
M  V30 6701 H 652.428 0.825813 1.63868 0
M  V30 6702 H 650.81 -0.451235 3.93421 0
M  V30 6703 H 651.984 2.40777 3.92891 0
M  V30 6704 H 650.299 2.03932 3.63044 0
M  V30 6705 H 652.896 -0.150745 5.34487 0
M  V30 6706 H 653.239 -1.19519 3.98774 0
M  V30 6707 H 653.772 0.503075 3.94606 0
M  V30 6708 H 650.511 2.7195 5.96426 0
M  V30 6709 H 650.031 1.00768 5.91275 0
M  V30 6710 H 651.71 1.45487 6.3043 0
M  V30 6711 N 651.842 -1.52309 0.404946 0
M  V30 6712 C 652.752 -2.30634 -0.429555 0
M  V30 6713 C 653.768 -1.38187 -1.05737 0
M  V30 6714 O 654.944 -1.71261 -1.05979 0
M  V30 6715 C 652.009 -3.10947 -1.53339 0
M  V30 6716 C 651.07 -4.19126 -0.929065 0
M  V30 6717 C 650.303 -4.95601 -1.9803 0
M  V30 6718 O 650.526 -4.72331 -3.1978 0
M  V30 6719 O 649.46 -5.80551 -1.58886 0
M  V30 6720 H 653.286 -3.0298 0.208963 0
M  V30 6721 H 650.871 -1.4845 0.168255 0
M  V30 6722 H 652.753 -3.60974 -2.1743 0
M  V30 6723 H 651.428 -2.41399 -2.15658 0
M  V30 6724 H 650.335 -3.73257 -0.250982 0
M  V30 6725 H 651.668 -4.90955 -0.349855 0
M  V30 6726 N 653.32 -0.135238 -1.57019 0
M  V30 6727 C 654.283 0.794707 -2.14981 0
M  V30 6728 C 655.283 1.18342 -1.08866 0
M  V30 6729 O 656.473 1.10627 -1.34563 0
M  V30 6730 C 653.605 2.07685 -2.70333 0
M  V30 6731 H 654.798 0.290696 -2.98488 0
M  V30 6732 H 652.351 0.114128 -1.55883 0
M  V30 6733 H 653.086 2.6248 -1.9046 0
M  V30 6734 H 652.871 1.80745 -3.47957 0
M  V30 6735 H 654.361 2.74127 -3.1503 0
M  V30 6736 N 654.798 1.5699 0.138552 0
M  V30 6737 C 656.044 1.84081 0.85099 0
M  V30 6738 C 656.377 0.718107 1.80435 0
M  V30 6739 O 655.652 -0.277633 1.92508 0
M  V30 6740 C 655.935 3.21699 1.61808 0
M  V30 6741 C 655.788 4.44544 0.685633 0
M  V30 6742 C 657.107 3.5664 2.57868 0
M  V30 6743 H 654.226 0.669592 0.307922 0
M  V30 6744 H 656.868 1.89646 0.11588 0
M  V30 6745 H 655.018 3.17086 2.24474 0
M  V30 6746 H 656.69 4.61248 0.0693179 0
M  V30 6747 H 654.933 4.338 -0.00421993 0
M  V30 6748 H 655.604 5.3746 1.25858 0
M  V30 6749 H 658.08 3.61918 2.05316 0
M  V30 6750 H 656.956 4.53946 3.08584 0
M  V30 6751 H 657.217 2.83036 3.39622 0
M  V30 6752 N 656.276 -0.40816 1.52223 0
M  V30 6753 C 657.224 -1.51788 1.76248 0
M  V30 6754 C 658.218 -1.57264 0.629638 0
M  V30 6755 O 659.424 -1.60659 0.811704 0
M  V30 6756 H 655.799 -0.504823 0.557367 0
M  V30 6757 H 657.77 -1.2871 2.69214 0
M  V30 6758 C 656.519 -2.89145 1.93107 0
M  V30 6759 H 655.842 -2.85674 2.79697 0
M  V30 6760 H 657.282 -3.66082 2.13916 0
M  V30 6761 C 655.741 -3.29581 0.698431 0
M  V30 6762 O 656.271 -4.01479 -0.133238 0
M  V30 6763 N 654.477 -2.85651 0.53405 0
M  V30 6764 H 654.024 -2.2731 1.21194 0
M  V30 6765 H 653.982 -3.13065 -0.289387 0
M  V30 6766 N 657.755 -1.42862 -0.66545 0
M  V30 6767 C 659.003 -1.43546 -1.42264 0
M  V30 6768 C 659.324 -0.0563116 -1.94919 0
M  V30 6769 O 658.594 0.906568 -1.73661 0
M  V30 6770 H 657.174 -0.528464 -0.527953 0
M  V30 6771 H 659.836 -1.78363 -0.785665 0
M  V30 6772 H 658.932 -2.14079 -2.27105 0
M  V30 6773 N 659.233 0.902656 -1.29189 0
M  V30 6774 C 660.479 1.65532 -1.17163 0
M  V30 6775 C 660.812 1.92216 0.276879 0
M  V30 6776 O 660.087 1.53048 1.20027 0
M  V30 6777 C 660.37 3.00629 -1.98228 0
M  V30 6778 C 660.223 2.81029 -3.51202 0
M  V30 6779 C 661.542 4.01321 -1.80635 0
M  V30 6780 H 658.661 0.60071 -0.426985 0
M  V30 6781 H 661.303 1.04578 -1.5863 0
M  V30 6782 H 659.453 3.52656 -1.62991 0
M  V30 6783 H 661.125 2.35927 -3.96404 0
M  V30 6784 H 659.368 2.1587 -3.76275 0
M  V30 6785 H 660.039 3.77014 -4.03192 0
M  V30 6786 H 662.515 3.58394 -2.11406 0
M  V30 6787 H 661.391 4.93792 -2.3971 0
M  V30 6788 H 661.652 4.35505 -0.760754 0
M  V30 6789 N 660.711 1.11618 1.11262 0
M  V30 6790 C 661.936 0.889013 1.8738 0
M  V30 6791 C 662.361 -0.555884 1.79698 0
M  V30 6792 O 661.719 -1.39272 1.16073 0
M  V30 6793 C 661.767 1.35759 3.34069 0
M  V30 6794 O 660.871 0.530499 4.08974 0
M  V30 6795 H 660.212 0.320082 0.581759 0
M  V30 6796 H 662.742 1.48611 1.40627 0
M  V30 6797 H 662.752 1.35291 3.84916 0
M  V30 6798 H 661.427 2.40973 3.38976 0
M  V30 6799 H 660.004 0.601439 3.68018 0
M  V30 6800 N 662.189 -1.289 0.906776 0
M  V30 6801 C 663.466 -1.90221 0.455537 0
M  V30 6802 C 663.846 -1.82251 -1.06527 0
M  V30 6803 O 663.194 -1.25385 -1.91026 0
M  V30 6804 C 663.404 -3.35015 0.97806 0
M  V30 6805 C 664.752 -4.12018 1.02598 0
M  V30 6806 O 665.776 -3.43947 0.926218 0
M  V30 6807 O 664.635 -5.33677 1.17689 0
M  V30 6808 H 661.729 -0.814505 0.143214 0
M  V30 6809 H 664.275 -1.37317 0.997104 0
M  V30 6810 H 663.047 -3.35006 2.02204 0
M  V30 6811 H 662.67 -3.95408 0.416914 0
M  V30 6812 N 663.667 -0.670007 -1.42649 0
M  V30 6813 C 664.597 -0.00258501 -2.335 0
M  V30 6814 C 665.578 0.794364 -1.50412 0
M  V30 6815 O 666.763 0.75248 -1.79029 0
M  V30 6816 C 663.893 0.952748 -3.33976 0
M  V30 6817 C 662.847 0.264733 -4.2718 0
M  V30 6818 C 662.173 1.33267 -5.17826 0
M  V30 6819 C 663.473 -0.853289 -5.15283 0
M  V30 6820 H 665.167 -0.761326 -2.89559 0
M  V30 6821 H 662.713 -0.367561 -1.3923 0
M  V30 6822 H 664.666 1.4287 -3.96442 0
M  V30 6823 H 663.39 1.74285 -2.7621 0
M  V30 6824 H 662.049 -0.190938 -3.66102 0
M  V30 6825 H 661.697 2.11464 -4.5639 0
M  V30 6826 H 661.397 0.877476 -5.81011 0
M  V30 6827 H 662.921 1.80965 -5.83167 0
M  V30 6828 H 664.335 -0.458763 -5.71462 0
M  V30 6829 H 662.732 -1.23398 -5.87276 0
M  V30 6830 H 663.802 -1.70412 -4.53969 0
M  V30 6831 N 665.145 1.52092 -0.413018 0
M  V30 6832 C 666.37 2.06756 0.163338 0
M  V30 6833 C 666.795 1.28073 1.37764 0
M  V30 6834 O 666.153 0.312015 1.78595 0
M  V30 6835 C 666.201 3.57278 0.488322 0
M  V30 6836 O 665.305 3.80986 1.57871 0
M  V30 6837 H 664.646 0.663882 0.0125068 0
M  V30 6838 H 667.176 1.95988 -0.587339 0
M  V30 6839 H 667.186 4.01125 0.745836 0
M  V30 6840 H 665.861 4.13978 -0.399327 0
M  V30 6841 H 664.438 3.49017 1.31306 0
M  V30 6842 N 666.623 0.143563 1.56945 0
M  V30 6843 C 668.034 -0.37783 1.82837 0
M  V30 6844 C 668.385 -1.64967 1.06209 0
M  V30 6845 O 667.51 -2.14221 0.306291 0
M  V30 6846 C 668.105 -0.692274 3.31652 0
M  V30 6847 C 666.664 -1.1582 3.58138 0
M  V30 6848 C 665.811 -0.17951 2.76718 0
M  V30 6849 H 668.762 0.368317 1.54367 0
M  V30 6850 H 668.783 -1.54729 3.47619 0
M  V30 6851 H 668.295 0.233572 3.87397 0
M  V30 6852 H 666.396 -2.10011 3.07776 0
M  V30 6853 H 666.509 -1.08655 4.66616 0
M  V30 6854 H 664.873 -0.671458 2.4569 0
M  V30 6855 H 665.656 0.739865 3.35233 0
M  V30 6856 N 668.101 -1.57061 -0.130224 0
M  V30 6857 C 669.349 -1.83893 -0.838313 0
M  V30 6858 C 669.67 -0.727046 -1.80939 0
M  V30 6859 O 668.94 0.249927 -1.94299 0
M  V30 6860 H 667.52 -0.67846 -0.312573 0
M  V30 6861 H 670.182 -1.94529 -0.120224 0
M  V30 6862 H 669.278 -2.79419 -1.39038 0
M  V30 6863 N 669.579 0.400081 -1.52437 0
M  V30 6864 C 670.542 1.4707 -1.75793 0
M  V30 6865 C 671.542 1.48036 -0.627856 0
M  V30 6866 O 672.732 1.49401 -0.895817 0
M  V30 6867 C 669.864 2.86427 -1.84858 0
M  V30 6868 H 671.057 1.27649 -2.71377 0
M  V30 6869 H 668.61 0.631141 -1.42991 0
M  V30 6870 H 669.345 3.11207 -0.912194 0
M  V30 6871 H 669.13 2.87128 -2.6702 0
M  V30 6872 H 670.62 3.64023 -2.04638 0
M  V30 6873 N 671.057 1.43213 0.657864 0
M  V30 6874 C 672.473 1.26511 0.972992 0
M  V30 6875 C 672.673 0.181477 2.00681 0
M  V30 6876 O 671.729 -0.441649 2.48608 0
M  V30 6877 C 673.042 2.62784 1.46168 0
M  V30 6878 C 674.59 2.70278 1.57857 0
M  V30 6879 C 675.065 4.06958 2.10117 0
M  V30 6880 N 676.556 4.08999 2.17426 0
M  V30 6881 C 677.291 5.11585 2.58975 0
M  V30 6882 N 676.787 6.24548 2.99853 0
M  V30 6883 N 678.58 4.9894 2.58873 0
M  V30 6884 H 670.731 2.12384 -0.0263129 0
M  V30 6885 H 672.994 0.946638 0.0507992 0
M  V30 6886 H 672.7 3.43022 0.776474 0
M  V30 6887 H 672.574 2.87863 2.43751 0
M  V30 6888 H 674.961 1.90376 2.25479 0
M  V30 6889 H 675.042 2.4897 0.587179 0
M  V30 6890 H 674.686 4.87325 1.43098 0
M  V30 6891 H 674.616 4.25628 3.10078 0
M  V30 6892 H 677.107 3.27457 1.88627 0
M  V30 6893 H 677.42 6.98661 3.30292 0
M  V30 6894 H 675.765 6.28027 2.97669 0
M  V30 6895 H 678.956 4.09757 2.26311 0
M  V30 6896 H 679.129 5.79019 2.90932 0
M  V30 6897 N 672.536 -0.895792 1.29666 0
M  V30 6898 C 673.468 -2.00563 1.10937 0
M  V30 6899 C 674.481 -1.62705 0.055734 0
M  V30 6900 O 675.67 -1.7595 0.300656 0
M  V30 6901 C 672.77 -3.32262 0.667448 0
M  V30 6902 C 671.943 -3.98625 1.80047 0
M  V30 6903 C 671.002 -5.08617 1.3489 0
M  V30 6904 O 670.028 -5.30837 2.05429 0
M  V30 6905 N 671.23 -5.80076 0.221937 0
M  V30 6906 H 673.995 -2.17184 2.06522 0
M  V30 6907 H 671.556 -1.06822 1.21658 0
M  V30 6908 H 673.548 -4.03196 0.348586 0
M  V30 6909 H 672.118 -3.11985 -0.196055 0
M  V30 6910 H 671.338 -3.21005 2.28801 0
M  V30 6911 H 672.626 -4.39704 2.56003 0
M  V30 6912 H 672.024 -5.64514 -0.366084 0
M  V30 6913 H 670.581 -6.51789 -0.0375346 0
M  V30 6914 N 674.014 -1.12206 -1.10668 0
M  V30 6915 C 675.244 -0.897332 -1.86095 0
M  V30 6916 C 675.652 0.556778 -1.80822 0
M  V30 6917 O 674.995 1.39658 -1.19337 0
M  V30 6918 C 675.057 -1.29095 -3.35522 0
M  V30 6919 C 674.721 -2.75586 -3.64556 0
M  V30 6920 C 675.718 -3.73785 -3.6136 0
M  V30 6921 C 673.403 -3.12432 -3.93309 0
M  V30 6922 C 675.397 -5.06845 -3.86506 0
M  V30 6923 C 673.084 -4.45675 -4.18111 0
M  V30 6924 C 674.082 -5.42691 -4.147 0
M  V30 6925 O 673.77 -6.73532 -4.38873 0
M  V30 6926 H 673.502 -0.320704 -0.595084 0
M  V30 6927 H 676.056 -1.49517 -1.40833 0
M  V30 6928 H 674.286 -0.636299 -3.81429 0
M  V30 6929 H 675.975 -1.04073 -3.92331 0
M  V30 6930 H 676.741 -3.46664 -3.39189 0
M  V30 6931 H 672.62 -2.3753 -3.95096 0
M  V30 6932 H 676.164 -5.82559 -3.83758 0
M  V30 6933 H 672.061 -4.72526 -4.39761 0
M  V30 6934 H 672.829 -6.79442 -4.564 0
M  V30 6935 N 675.492 1.28418 -0.913599 0
M  V30 6936 C 676.738 1.9527 -0.547484 0
M  V30 6937 C 677.071 1.71745 0.906486 0
M  V30 6938 O 676.346 1.03834 1.64465 0
M  V30 6939 C 676.629 3.49748 -0.857205 0
M  V30 6940 C 676.482 3.82675 -2.3639 0
M  V30 6941 C 677.801 4.3868 -0.353258 0
M  V30 6942 H 674.92 0.709236 -0.200381 0
M  V30 6943 H 677.562 1.51789 -1.14281 0
M  V30 6944 H 675.712 3.86915 -0.350548 0
M  V30 6945 H 677.384 3.55378 -2.94116 0
M  V30 6946 H 675.627 3.29724 -2.81894 0
M  V30 6947 H 676.298 4.90547 -2.53115 0
M  V30 6948 H 678.774 4.08584 -0.787288 0
M  V30 6949 H 677.65 5.45621 -0.599049 0
M  V30 6950 H 677.911 4.35753 0.746413 0
M  V30 6951 N 676.97 0.677563 1.42291 0
M  V30 6952 C 678.195 0.207901 2.06355 0
M  V30 6953 C 678.62 -1.12723 1.50583 0
M  V30 6954 O 677.978 -1.70171 0.62543 0
M  V30 6955 C 678.026 0.156489 3.6026 0
M  V30 6956 O 677.13 -0.874162 4.03029 0
M  V30 6957 H 676.471 0.106056 0.655475 0
M  V30 6958 H 679.001 0.927354 1.82377 0
M  V30 6959 H 679.011 -0.0187258 4.07996 0
M  V30 6960 H 677.686 1.13101 4.00226 0
M  V30 6961 H 676.263 -0.669764 3.66836 0
M  V30 6962 N 678.448 -1.51871 0.421078 0
M  V30 6963 C 679.694 -2.02237 -0.151014 0
M  V30 6964 C 680.027 -1.30554 -1.43768 0
M  V30 6965 O 679.302 -0.41546 -1.90011 0
M  V30 6966 C 679.585 -3.5802 -0.386482 0
M  V30 6967 C 679.438 -4.40339 0.9177 0
M  V30 6968 C 680.757 -4.24444 -1.16342 0
M  V30 6969 H 677.876 -0.735062 -0.0534102 0
M  V30 6970 H 680.518 -1.81656 0.556888 0
M  V30 6971 H 678.668 -3.75688 -0.989494 0
M  V30 6972 H 680.34 -4.34357 1.55344 0
M  V30 6973 H 678.583 -4.06073 1.526 0
M  V30 6974 H 679.254 -5.47451 0.707187 0
M  V30 6975 H 681.73 -4.10948 -0.652788 0
M  V30 6976 H 680.606 -5.33358 -1.29693 0
M  V30 6977 H 680.867 -3.84204 -2.18724 0
M  V30 6978 N 679.926 -0.151884 -1.56866 0
M  V30 6979 C 680.874 0.80299 -2.183 0
M  V30 6980 C 681.868 1.25174 -1.14139 0
M  V30 6981 O 683.074 1.21966 -1.3238 0
M  V30 6982 H 679.449 0.277169 -0.699057 0
M  V30 6983 H 681.42 0.260699 -2.97259 0
M  V30 6984 C 680.169 2.03009 -2.82281 0
M  V30 6985 H 679.492 1.69377 -3.62148 0
M  V30 6986 H 680.932 2.67753 -3.28762 0
M  V30 6987 C 679.391 2.84123 -1.81041 0
M  V30 6988 O 679.921 3.8063 -1.28388 0
M  V30 6989 N 678.127 2.48753 -1.50234 0
M  V30 6990 H 677.674 1.70337 -1.93244 0
M  V30 6991 H 677.632 3.03316 -0.827445 0
M  V30 6992 N 681.404 1.57128 0.121893 0
M  V30 6993 C 682.65 1.84974 0.831418 0
M  V30 6994 C 682.983 0.737204 1.79663 0
M  V30 6995 O 682.258 -0.257199 1.92792 0
M  V30 6996 C 682.541 3.23397 1.58386 0
M  V30 6997 C 682.394 4.45246 0.638445 0
M  V30 6998 C 683.713 3.59355 2.54071 0
M  V30 6999 H 680.832 0.67282 0.300803 0
M  V30 7000 H 683.474 1.89759 0.0957587 0
M  V30 7001 H 681.624 3.19449 2.21098 0
M  V30 7002 H 683.296 4.61295 0.0203925 0
M  V30 7003 H 681.539 4.33771 -0.05023 0
M  V30 7004 H 682.21 5.38765 1.20151 0
M  V30 7005 H 684.686 3.64075 2.01465 0
M  V30 7006 H 683.562 4.57193 3.03752 0
M  V30 7007 H 683.823 2.86622 3.36601 0
M  V30 7008 N 682.882 -0.391992 1.52647 0
M  V30 7009 C 684.11 -1.1586 1.71418 0
M  V30 7010 C 684.525 -1.8381 0.431216 0
M  V30 7011 O 683.882 -1.7256 -0.594085 0
M  V30 7012 C 683.933 -2.20888 2.86165 0
M  V30 7013 O 683.654 -1.5571 4.09495 0
M  V30 7014 C 685.155 -3.103 3.1659 0
M  V30 7015 H 682.375 -0.347494 0.574011 0
M  V30 7016 H 684.919 -0.458972 1.99283 0
M  V30 7017 H 683.074 -2.86492 2.6077 0
M  V30 7018 H 683.488 -2.25474 4.73563 0
M  V30 7019 H 684.962 -3.8003 4.00351 0
M  V30 7020 H 685.439 -3.73639 2.30848 0
M  V30 7021 H 686.045 -2.50345 3.43813 0
M  V30 7022 N 684.36 -1.4356 -0.65026 0
M  V30 7023 C 685.588 -1.48779 -1.43779 0
M  V30 7024 C 686.003 -0.106593 -1.88499 0
M  V30 7025 O 685.36 0.883766 -1.59674 0
M  V30 7026 C 685.411 -2.43618 -2.67081 0
M  V30 7027 O 685.132 -3.76367 -2.24231 0
M  V30 7028 C 686.633 -2.5811 -3.60409 0
M  V30 7029 H 683.853 -0.50521 -0.441593 0
M  V30 7030 H 686.397 -1.88332 -0.796941 0
M  V30 7031 H 684.552 -2.07253 -3.273 0
M  V30 7032 H 684.966 -4.27394 -3.0403 0
M  V30 7033 H 686.44 -3.28539 -4.43583 0
M  V30 7034 H 686.917 -1.627 -4.07953 0
M  V30 7035 H 687.523 -2.95298 -3.0607 0
M  V30 7036 N 685.838 0.888903 -1.30139 0
M  V30 7037 C 686.786 2.0156 -1.16088 0
M  V30 7038 C 687.78 1.69239 -0.0737413 0
M  V30 7039 O 688.986 1.78468 -0.234313 0
M  V30 7040 H 685.361 0.660825 -0.358907 0
M  V30 7041 H 687.332 2.10547 -2.11453 0
M  V30 7042 C 686.081 3.36758 -0.865426 0
M  V30 7043 H 685.404 3.62137 -1.69402 0
M  V30 7044 H 686.844 4.16246 -0.807192 0
M  V30 7045 C 685.303 3.34124 0.431577 0
M  V30 7046 O 685.833 3.7445 1.45431 0
M  V30 7047 N 684.039 2.87229 0.441321 0
M  V30 7048 H 683.586 2.54609 -0.391433 0
M  V30 7049 H 683.544 2.8585 1.30909 0
M  V30 7050 N 687.317 1.12792 1.10072 0
M  V30 7051 C 688.249 0.757003 2.16338 0
M  V30 7052 C 689.262 -0.218144 1.61332 0
M  V30 7053 O 690.451 0.0010727 1.785 0
M  V30 7054 C 687.551 0.100303 3.38752 0
M  V30 7055 C 686.724 1.10586 4.2319 0
M  V30 7056 C 685.783 0.47609 5.24042 0
M  V30 7057 O 684.809 1.13418 5.57786 0
M  V30 7058 N 686.011 -0.754823 5.75572 0
M  V30 7059 H 688.776 1.6714 2.48766 0
M  V30 7060 H 686.337 1.02003 1.25726 0
M  V30 7061 H 688.329 -0.333092 4.03327 0
M  V30 7062 H 686.899 -0.716915 3.04268 0
M  V30 7063 H 686.119 1.71677 3.54853 0
M  V30 7064 H 687.407 1.78571 4.76435 0
M  V30 7065 H 686.805 -1.30838 5.50362 0
M  V30 7066 H 685.362 -1.13098 6.41913 0
M  V30 7067 N 688.795 -1.27931 0.920396 0
M  V30 7068 C 689.758 -2.25345 0.41858 0
M  V30 7069 C 690.758 -1.54116 -0.458798 0
M  V30 7070 O 691.948 -1.72235 -0.260912 0
M  V30 7071 C 689.08 -3.38556 -0.399104 0
M  V30 7072 H 690.273 -2.71251 1.27918 0
M  V30 7073 H 687.826 -1.39728 0.700406 0
M  V30 7074 H 688.561 -2.98021 -1.27882 0
M  V30 7075 H 688.346 -3.91426 0.229863 0
M  V30 7076 H 689.836 -4.10976 -0.740817 0
M  V30 7077 N 690.273 -0.685099 -1.4193 0
M  V30 7078 C 691.236 -0.0222632 -2.29189 0
M  V30 7079 C 692.236 0.7186 -1.4385 0
M  V30 7080 O 693.426 0.555058 -1.6512 0
M  V30 7081 C 690.558 0.979013 -3.2654 0
M  V30 7082 H 691.751 -0.790424 -2.89296 0
M  V30 7083 H 689.304 -0.448012 -1.49742 0
M  V30 7084 H 690.039 1.77531 -2.71392 0
M  V30 7085 H 689.824 0.451037 -3.89497 0
M  V30 7086 H 691.314 1.44091 -3.91954 0
M  V30 7087 N 691.751 1.51645 -0.429126 0
M  V30 7088 C 693.162 1.86665 0.0359003 0
M  V30 7089 C 693.513 1.34677 1.42676 0
M  V30 7090 O 692.638 0.694195 2.04963 0
M  V30 7091 C 693.233 3.38724 0.0719221 0
M  V30 7092 C 691.792 3.7331 0.481336 0
M  V30 7093 C 690.939 2.75313 -0.331329 0
M  V30 7094 H 693.89 1.44987 -0.645333 0
M  V30 7095 H 693.911 3.7011 0.883118 0
M  V30 7096 H 693.423 3.76532 -0.940495 0
M  V30 7097 H 691.524 3.41088 1.49966 0
M  V30 7098 H 691.637 4.78631 0.211837 0
M  V30 7099 H 690.001 2.53839 0.209204 0
M  V30 7100 H 690.784 3.15963 -1.34247 0
M  V30 7101 N 693.229 0.160201 1.56784 0
M  V30 7102 C 694.454 -0.497373 2.01348 0
M  V30 7103 C 694.879 -1.56757 1.03966 0
M  V30 7104 O 694.237 -1.81292 0.0174455 0
M  V30 7105 C 694.285 -1.0628 3.44582 0
M  V30 7106 O 693.389 -2.17723 3.50244 0
M  V30 7107 H 692.73 -0.120295 0.653012 0
M  V30 7108 H 695.26 0.260821 2.02931 0
M  V30 7109 H 695.27 -1.38819 3.83658 0
M  V30 7110 H 693.945 -0.279166 4.14962 0
M  V30 7111 H 692.522 -1.86313 3.2302 0
M  V30 7112 N 694.707 -1.5719 -0.113559 0
M  V30 7113 C 696.118 -1.74259 -0.670116 0
M  V30 7114 C 696.469 -0.779694 -1.80042 0
M  V30 7115 O 695.594 0.0461353 -2.16351 0
M  V30 7116 C 696.189 -3.15981 -1.22236 0
M  V30 7117 C 694.748 -3.34537 -1.72516 0
M  V30 7118 C 693.895 -2.70116 -0.627098 0
M  V30 7119 H 696.846 -1.58301 0.112396 0
M  V30 7120 H 696.867 -3.17832 -2.09197 0
M  V30 7121 H 696.379 -3.86038 -0.39949 0
M  V30 7122 H 694.48 -2.6953 -2.57263 0
M  V30 7123 H 694.593 -4.42737 -1.83086 0
M  V30 7124 H 692.957 -2.31501 -1.06204 0
M  V30 7125 H 693.74 -3.42802 0.184889 0
M  V30 7126 N 696.185 0.383891 -1.52853 0
M  V30 7127 C 697.431 1.13009 -1.68395 0
M  V30 7128 C 697.764 1.89488 -0.425195 0
M  V30 7129 O 697.039 1.8574 0.577136 0
M  V30 7130 C 697.322 2.10419 -2.92226 0
M  V30 7131 C 697.175 1.3767 -4.28214 0
M  V30 7132 C 698.494 3.10781 -3.11614 0
M  V30 7133 H 695.613 0.409463 -0.612788 0
M  V30 7134 H 698.255 0.412895 -1.85459 0
M  V30 7135 H 696.405 2.71579 -2.77808 0
M  V30 7136 H 698.077 0.794352 -4.54409 0
M  V30 7137 H 696.32 0.678533 -4.2846 0
M  V30 7138 H 696.991 2.08874 -5.10956 0
M  V30 7139 H 699.467 2.59715 -3.25096 0
M  V30 7140 H 698.343 3.76179 -3.99725 0
M  V30 7141 H 698.604 3.79933 -2.2606 0
M  V30 7142 N 697.663 1.43903 0.642637 0
M  V30 7143 C 698.891 1.4954 1.42988 0
M  V30 7144 C 699.306 0.116588 1.8844 0
M  V30 7145 O 698.663 -0.875285 1.60141 0
M  V30 7146 C 698.714 2.45031 2.65785 0
M  V30 7147 O 698.435 3.77551 2.22232 0
M  V30 7148 C 699.936 2.60017 3.59035 0
M  V30 7149 H 697.156 0.507544 0.438907 0
M  V30 7150 H 699.7 1.88752 0.786942 0
M  V30 7151 H 697.855 2.08985 3.26196 0
M  V30 7152 H 698.269 4.29001 3.01759 0
M  V30 7153 H 699.743 3.30887 4.41835 0
M  V30 7154 H 700.22 1.64861 4.07084 0
M  V30 7155 H 700.826 2.96918 3.045 0
M  V30 7156 N 699.141 -0.881989 1.30609 0
M  V30 7157 C 700.089 -2.00942 1.17155 0
M  V30 7158 C 701.083 -1.69198 0.0827154 0
M  V30 7159 O 702.289 -1.78342 0.243775 0
M  V30 7160 H 698.664 -0.658913 0.362406 0
M  V30 7161 H 700.635 -2.09423 2.12567 0
M  V30 7162 C 699.384 -3.36294 0.883273 0
M  V30 7163 H 698.707 -3.61233 1.7132 0
M  V30 7164 H 700.147 -4.15812 0.829255 0
M  V30 7165 C 698.606 -3.34348 -0.413851 0
M  V30 7166 O 699.136 -3.75216 -1.43444 0
M  V30 7167 N 697.342 -2.87459 -0.426082 0
M  V30 7168 H 696.889 -2.54397 0.40493 0
M  V30 7169 H 696.847 -2.8654 -1.29391 0
M  V30 7170 N 700.619 -1.13374 -1.09472 0
M  V30 7171 C 701.865 -0.896516 -1.81908 0
M  V30 7172 C 702.198 0.575933 -1.85463 0
M  V30 7173 O 701.473 1.42618 -1.32251 0
M  V30 7174 C 701.756 -1.48445 -3.28079 0
M  V30 7175 C 701.609 -3.02598 -3.32798 0
M  V30 7176 C 702.928 -1.15226 -4.24748 0
M  V30 7177 H 700.047 -0.327127 -0.660422 0
M  V30 7178 H 702.689 -1.40195 -1.2824 0
M  V30 7179 H 700.839 -1.0546 -3.73912 0
M  V30 7180 H 702.511 -3.54335 -2.95372 0
M  V30 7181 H 700.754 -3.37613 -2.72397 0
M  V30 7182 H 701.425 -3.38835 -4.3577 0
M  V30 7183 H 703.901 -1.52369 -3.87199 0
M  V30 7184 H 702.777 -1.59012 -5.25363 0
M  V30 7185 H 703.038 -0.0658891 -4.42051 0
M  V30 7186 N 702.098 1.27442 -0.927168 0
M  V30 7187 C 703.045 2.26863 -0.424459 0
M  V30 7188 C 704.015 1.5813 0.508346 0
M  V30 7189 O 705.2 1.85946 0.42762 0
M  V30 7190 C 702.34 3.43639 0.31718 0
M  V30 7191 C 701.453 4.27087 -0.649675 0
M  V30 7192 C 700.588 5.31082 0.111753 0
M  V30 7193 C 699.627 6.062 -0.847843 0
M  V30 7194 N 698.764 7.01999 -0.119074 0
M  V30 7195 H 703.604 2.69239 -1.27728 0
M  V30 7196 H 701.141 1.32394 -0.641106 0
M  V30 7197 H 703.099 4.10155 0.763486 0
M  V30 7198 H 701.729 3.02217 1.13424 0
M  V30 7199 H 700.781 3.60491 -1.21451 0
M  V30 7200 H 702.093 4.79242 -1.38307 0
M  V30 7201 H 701.247 6.03544 0.618 0
M  V30 7202 H 699.986 4.7973 0.878114 0
M  V30 7203 H 698.991 5.32577 -1.36534 0
M  V30 7204 H 700.216 6.59642 -1.61398 0
M  V30 7205 H 698.162 6.52977 0.629051 0
M  V30 7206 H 698.079 7.5184 -0.792046 0
M  V30 7207 H 699.347 7.78638 0.366537 0
M  V30 7208 N 703.576 0.692616 1.41565 0
M  V30 7209 C 704.523 0.0254264 2.30786 0
M  V30 7210 C 705.493 -0.774347 1.46946 0
M  V30 7211 O 706.678 -0.742981 1.7574 0
M  V30 7212 C 703.818 -0.907123 3.32964 0
M  V30 7213 C 702.931 -0.0992784 4.31886 0
M  V30 7214 C 702.066 -1.0292 5.21134 0
M  V30 7215 C 701.105 -0.214088 6.11725 0
M  V30 7216 N 700.242 -1.09766 6.93467 0
M  V30 7217 H 705.082 0.792036 2.87282 0
M  V30 7218 H 702.619 0.4023 1.41492 0
M  V30 7219 H 704.577 -1.46181 3.90752 0
M  V30 7220 H 703.207 -1.64016 2.78026 0
M  V30 7221 H 702.259 0.572287 3.76071 0
M  V30 7222 H 703.571 0.532782 4.95946 0
M  V30 7223 H 702.725 -1.65321 5.83741 0
M  V30 7224 H 701.464 -1.69512 4.57293 0
M  V30 7225 H 700.469 0.42302 5.4817 0
M  V30 7226 H 701.694 0.447995 6.77621 0
M  V30 7227 H 699.64 -1.74965 6.32237 0
M  V30 7228 H 699.557 -0.521099 7.54202 0
M  V30 7229 H 700.825 -1.70858 7.60544 0
M  V30 7230 N 705.054 -1.51416 0.437162 0
M  V30 7231 C 706.302 -2.01687 -0.129108 0
M  V30 7232 C 706.623 -1.32329 -1.43227 0
M  V30 7233 O 705.893 -0.457796 -1.90476 0
M  V30 7234 H 704.473 -0.745277 -0.0507023 0
M  V30 7235 H 707.135 -1.86075 0.579828 0
M  V30 7236 H 706.231 -3.10605 -0.305141 0
M  V30 7237 N 706.532 -0.168513 -1.56696 0
M  V30 7238 C 707.479 0.762875 -2.17828 0
M  V30 7239 C 708.449 1.22892 -1.11745 0
M  V30 7240 O 709.634 1.29759 -1.39883 0
M  V30 7241 C 706.774 1.9879 -2.82093 0
M  V30 7242 C 705.887 1.56568 -4.02629 0
M  V30 7243 C 705.022 2.74416 -4.54829 0
M  V30 7244 C 704.061 2.28671 -5.67782 0
M  V30 7245 N 703.198 3.39602 -6.14504 0
M  V30 7246 H 708.038 0.23479 -2.97074 0
M  V30 7247 H 705.575 0.104163 -1.46731 0
M  V30 7248 H 707.533 2.70636 -3.17509 0
M  V30 7249 H 706.163 2.48973 -2.05456 0
M  V30 7250 H 705.215 0.744067 -3.73052 0
M  V30 7251 H 706.527 1.18988 -4.844 0
M  V30 7252 H 705.681 3.54423 -4.92412 0
M  V30 7253 H 704.42 3.15254 -3.7211 0
M  V30 7254 H 703.425 1.4711 -5.29753 0
M  V30 7255 H 704.65 1.88894 -6.52301 0
M  V30 7256 H 702.596 3.80021 -5.34715 0
M  V30 7257 H 702.513 3.06105 -6.91257 0
M  V30 7258 H 703.781 4.19902 -6.56737 0
M  V30 7259 N 708.01 1.57248 0.105221 0
M  V30 7260 C 709.259 1.84756 0.809198 0
M  V30 7261 C 709.572 0.756262 1.80389 0
M  V30 7262 O 710.778 0.918158 2.55504 0
M  V30 7263 C 709.234 3.27613 1.48989 0
M  V30 7264 C 708.842 4.44788 0.535484 0
M  V30 7265 C 710.586 3.64356 2.17819 0
M  V30 7266 C 708.493 5.78676 1.22019 0
M  V30 7267 H 707.423 0.689139 0.305946 0
M  V30 7268 H 710.074 1.83395 0.0620371 0
M  V30 7269 H 708.456 3.23485 2.28415 0
M  V30 7270 H 709.63 4.60243 -0.226557 0
M  V30 7271 H 707.945 4.16374 -0.0465769 0
M  V30 7272 H 710.542 4.61663 2.69761 0
M  V30 7273 H 710.885 2.92474 2.96251 0
M  V30 7274 H 711.418 3.70328 1.45264 0
M  V30 7275 H 708.157 6.53763 0.476875 0
M  V30 7276 H 707.677 5.67083 1.9539 0
M  V30 7277 H 709.356 6.22897 1.74952 0
M  V30 7278 N 709.488 -0.375779 1.53054 0
M  V30 7279 C 710.451 -1.44254 1.7811 0
M  V30 7280 C 711.451 -1.47018 0.651328 0
M  V30 7281 O 712.641 -1.47957 0.919472 0
M  V30 7282 C 709.773 -2.8345 1.89391 0
M  V30 7283 H 710.966 -1.23316 2.73374 0
M  V30 7284 H 708.519 -0.608312 1.43977 0
M  V30 7285 H 709.254 -3.09716 0.961589 0
M  V30 7286 H 709.039 -2.82844 2.71555 0
M  V30 7287 H 710.529 -3.60722 2.10404 0
M  V30 7288 N 710.966 -1.44241 -0.634997 0
M  V30 7289 C 711.913 -1.5081 -1.74714 0
M  V30 7290 C 712.883 -0.356147 -1.62237 0
M  V30 7291 O 714.068 -0.565848 -1.82216 0
M  V30 7292 C 711.208 -1.45458 -3.12947 0
M  V30 7293 C 710.321 -2.70998 -3.36428 0
M  V30 7294 C 709.456 -2.57507 -4.64611 0
M  V30 7295 C 708.495 -3.78229 -4.81258 0
M  V30 7296 N 707.632 -3.63438 -6.00714 0
M  V30 7297 H 712.472 -2.45832 -1.68436 0
M  V30 7298 H 710.009 -1.2201 -0.821706 0
M  V30 7299 H 711.967 -1.40347 -3.92885 0
M  V30 7300 H 710.597 -0.540058 -3.1825 0
M  V30 7301 H 709.649 -2.86312 -2.50458 0
M  V30 7302 H 710.961 -3.60619 -3.44609 0
M  V30 7303 H 710.115 -2.50207 -5.52703 0
M  V30 7304 H 708.854 -1.65441 -4.58782 0
M  V30 7305 H 707.859 -3.85918 -3.91596 0
M  V30 7306 H 709.084 -4.71327 -4.88904 0
M  V30 7307 H 707.03 -2.7412 -5.95982 0
M  V30 7308 H 706.947 -4.46672 -6.09934 0
M  V30 7309 H 708.215 -3.60022 -6.91378 0
M  V30 7310 N 712.444 0.87505 -1.31075 0
M  V30 7311 C 713.392 2.00317 -1.18219 0
M  V30 7312 C 714.386 1.69152 -0.0916872 0
M  V30 7313 O 715.592 1.7821 -0.253229 0
M  V30 7314 H 711.967 0.656981 -0.365895 0
M  V30 7315 H 713.938 2.08293 -2.13674 0
M  V30 7316 C 712.687 3.35821 -0.901095 0
M  V30 7317 H 712.01 3.6032 -1.73233 0
M  V30 7318 H 713.45 4.15366 -0.851295 0
M  V30 7319 C 711.909 3.34563 0.396114 0
M  V30 7320 O 712.439 3.75971 1.41452 0
M  V30 7321 N 710.645 2.87681 0.410832 0
M  V30 7322 H 710.192 2.54179 -0.418415 0
M  V30 7323 H 710.15 2.87223 1.27869 0
M  V30 7324 N 713.922 1.13953 1.08869 0
M  V30 7325 C 715.147 0.928559 1.85452 0
M  V30 7326 C 715.572 -0.517642 1.80837 0
M  V30 7327 O 714.93 -1.36779 1.19001 0
M  V30 7328 C 714.978 1.42814 3.31114 0
M  V30 7329 O 714.082 0.617129 4.07756 0
M  V30 7330 H 713.423 0.33235 0.574839 0
M  V30 7331 H 715.953 1.5156 1.37443 0
M  V30 7332 H 715.963 1.43425 3.8196 0
M  V30 7333 H 714.638 2.48109 3.33788 0
M  V30 7334 H 713.215 0.679365 3.66659 0
M  V30 7335 N 715.4 -1.26948 0.933913 0
M  V30 7336 C 716.649 -1.93378 0.573409 0
M  V30 7337 C 716.962 -1.74148 -0.890614 0
M  V30 7338 O 718.168 -2.34971 -1.36017 0
M  V30 7339 C 716.624 -3.46449 0.974747 0
M  V30 7340 C 716.232 -3.74425 2.45988 0
M  V30 7341 C 717.976 -4.18924 0.685791 0
M  V30 7342 C 715.883 -5.209 2.8003 0
M  V30 7343 H 714.813 -0.723952 0.210736 0
M  V30 7344 H 717.464 -1.44143 1.13557 0
M  V30 7345 H 715.846 -3.94528 0.341181 0
M  V30 7346 H 717.02 -3.37079 3.14188 0
M  V30 7347 H 715.335 -3.15167 2.72138 0
M  V30 7348 H 717.932 -5.26786 0.916546 0
M  V30 7349 H 718.275 -4.14587 -0.377217 0
M  V30 7350 H 718.808 -3.76687 1.27874 0
M  V30 7351 H 715.547 -5.30332 3.85264 0
M  V30 7352 H 715.067 -5.59369 2.16485 0
M  V30 7353 H 716.746 -5.88837 2.68105 0
M  V30 7354 N 716.879 -0.700114 -1.41195 0
M  V30 7355 C 718.104 -0.240704 -2.05998 0
M  V30 7356 C 718.529 1.10313 -1.52357 0
M  V30 7357 O 717.887 1.69154 -0.652424 0
M  V30 7358 C 717.935 -0.213783 -3.59966 0
M  V30 7359 O 717.039 0.809933 -4.04368 0
M  V30 7360 H 716.38 -0.116471 -0.653705 0
M  V30 7361 H 718.91 -0.956251 -1.80878 0
M  V30 7362 H 718.92 -0.0461852 -4.07974 0
M  V30 7363 H 717.595 -1.19454 -3.98376 0
M  V30 7364 H 716.172 0.611319 -3.67855 0
M  V30 7365 N 718.357 1.51182 -0.445186 0
M  V30 7366 C 719.287 2.30821 0.352686 0
M  V30 7367 C 720.268 1.36576 1.01395 0
M  V30 7368 O 721.453 1.65497 1.01609 0
M  V30 7369 C 718.583 3.15593 1.44976 0
M  V30 7370 C 717.537 4.1818 0.911553 0
M  V30 7371 C 716.863 4.91523 2.10497 0
M  V30 7372 C 718.163 5.22266 -0.059418 0
M  V30 7373 H 719.857 2.97771 -0.311936 0
M  V30 7374 H 717.403 1.43201 -0.151461 0
M  V30 7375 H 719.356 3.70091 2.01521 0
M  V30 7376 H 718.08 2.4648 2.14278 0
M  V30 7377 H 716.739 3.64746 0.368264 0
M  V30 7378 H 716.387 4.18906 2.78437 0
M  V30 7379 H 716.087 5.60898 1.7512 0
M  V30 7380 H 717.611 5.48847 2.6758 0
M  V30 7381 H 719.025 5.71789 0.415985 0
M  V30 7382 H 717.422 5.99213 -0.326152 0
M  V30 7383 H 718.492 4.7461 -0.993631 0
M  V30 7384 N 719.835 0.176821 1.56605 0
M  V30 7385 C 721.06 -0.47599 2.01864 0
M  V30 7386 C 721.485 -1.55645 1.05623 0
M  V30 7387 O 720.843 -1.81263 0.0366729 0
M  V30 7388 C 720.891 -1.02619 3.4569 0
M  V30 7389 O 719.995 -2.13996 3.52533 0
M  V30 7390 H 719.336 -0.113363 0.654251 0
M  V30 7391 H 721.866 0.28233 2.02643 0
M  V30 7392 H 721.876 -1.34742 3.85109 0
M  V30 7393 H 720.551 -0.235138 4.15235 0
M  V30 7394 H 719.128 -1.82876 3.24978 0
M  V30 7395 N 721.313 -1.57302 -0.09688 0
M  V30 7396 C 722.559 -1.87144 -0.796778 0
M  V30 7397 C 722.914 -0.767428 -1.76432 0
M  V30 7398 O 722.207 0.230728 -1.90206 0
M  V30 7399 C 722.401 -3.21272 -1.56586 0
M  V30 7400 C 722.23 -4.44616 -0.674295 0
M  V30 7401 C 721 -5.04281 -0.320705 0
M  V30 7402 C 723.198 -5.14297 0.0179445 0
M  V30 7403 N 721.18 -6.11162 0.579206 0
M  V30 7404 C 722.551 -6.15125 0.775992 0
M  V30 7405 C 724.606 -4.97815 0.0920521 0
M  V30 7406 C 723.309 -7.01251 1.60122 0
M  V30 7407 C 725.335 -5.84447 0.904175 0
M  V30 7408 C 724.697 -6.84794 1.65035 0
M  V30 7409 H 720.796 -0.734721 -0.267787 0
M  V30 7410 H 723.38 -1.94609 -0.0593955 0
M  V30 7411 H 721.551 -3.14862 -2.27413 0
M  V30 7412 H 723.283 -3.38846 -2.21281 0
M  V30 7413 H 720.038 -4.68866 -0.667961 0
M  V30 7414 H 720.462 -6.69247 1.02166 0
M  V30 7415 H 725.104 -4.20174 -0.470492 0
M  V30 7416 H 722.822 -7.78284 2.17484 0
M  V30 7417 H 726.408 -5.73755 0.964165 0
M  V30 7418 H 725.288 -7.50668 2.26864 0
M  V30 7419 N 722.791 0.367657 -1.53252 0
M  V30 7420 C 723.723 1.47032 -1.75824 0
M  V30 7421 C 724.736 1.49736 -0.63898 0
M  V30 7422 O 725.925 1.53253 -0.915193 0
M  V30 7423 C 723.025 2.85805 -1.82122 0
M  V30 7424 C 722.198 3.06822 -3.11736 0
M  V30 7425 C 721.257 4.25698 -3.09302 0
M  V30 7426 O 720.283 4.20972 -3.83107 0
M  V30 7427 N 721.485 5.33002 -2.29977 0
M  V30 7428 H 724.25 1.28048 -2.70968 0
M  V30 7429 H 721.811 0.557363 -1.52004 0
M  V30 7430 H 723.803 3.63465 -1.77975 0
M  V30 7431 H 722.373 2.98046 -0.942716 0
M  V30 7432 H 721.593 2.1684 -3.29202 0
M  V30 7433 H 722.881 3.17731 -3.97397 0
M  V30 7434 H 722.279 5.39703 -1.69521 0
M  V30 7435 H 720.836 6.09247 -2.3165 0
M  V30 7436 N 724.269 1.44576 0.627338 0
M  V30 7437 C 725.179 1.54232 1.76776 0
M  V30 7438 C 726.195 0.427782 1.6866 0
M  V30 7439 O 727.371 0.685671 1.89369 0
M  V30 7440 C 724.436 1.48738 3.13174 0
M  V30 7441 C 723.497 2.71074 3.32893 0
M  V30 7442 C 722.73 2.65832 4.62784 0
M  V30 7443 O 722.953 1.72048 5.43834 0
M  V30 7444 O 721.887 3.56742 4.84787 0
M  V30 7445 H 725.713 2.50586 1.71582 0
M  V30 7446 H 723.298 1.26865 0.789028 0
M  V30 7447 H 725.18 1.48211 3.94476 0
M  V30 7448 H 723.855 0.555292 3.18902 0
M  V30 7449 H 722.762 2.77168 2.51254 0
M  V30 7450 H 724.095 3.63342 3.32029 0
M  V30 7451 N 725.747 -0.868086 1.31537 0
M  V30 7452 C 727.158 -1.437 1.19195 0
M  V30 7453 C 727.509 -1.95169 -0.200842 0
M  V30 7454 O 726.634 -1.86432 -1.09872 0
M  V30 7455 C 727.229 -2.612 2.15778 0
M  V30 7456 C 725.788 -3.1413 2.07363 0
M  V30 7457 C 724.935 -1.86845 2.049 0
M  V30 7458 H 727.886 -0.676457 1.43561 0
M  V30 7459 H 727.907 -3.37948 1.74847 0
M  V30 7460 H 727.419 -2.23709 3.17137 0
M  V30 7461 H 725.52 -3.56238 1.09204 0
M  V30 7462 H 725.633 -3.76285 2.96557 0
M  V30 7463 H 723.997 -2.05886 1.49943 0
M  V30 7464 H 724.78 -1.51589 3.08019 0
M  V30 7465 N 727.225 -1.14528 -1.08264 0
M  V30 7466 C 728.502 -0.825185 -1.77342 0
M  V30 7467 C 728.882 0.681037 -1.99813 0
M  V30 7468 O 728.23 1.62234 -1.60912 0
M  V30 7469 C 728.44 -1.62556 -3.08831 0
M  V30 7470 C 729.788 -1.82585 -3.83338 0
M  V30 7471 O 730.812 -1.59254 -3.18617 0
M  V30 7472 O 729.671 -2.21598 -4.99556 0
M  V30 7473 H 726.765 -0.302531 -0.769678 0
M  V30 7474 H 729.311 -1.25056 -1.14713 0
M  V30 7475 H 728.083 -2.64862 -2.88035 0
M  V30 7476 H 727.706 -1.1959 -3.79189 0
M  V30 7477 N 728.703 1.26451 -0.940633 0
M  V30 7478 C 730.119 1.4608 -0.642859 0
M  V30 7479 C 730.319 1.84765 0.803998 0
M  V30 7480 O 729.375 1.96902 1.58069 0
M  V30 7481 C 730.688 2.54359 -1.60381 0
M  V30 7482 C 732.236 2.6821 -1.61345 0
M  V30 7483 C 732.711 3.79659 -2.56169 0
M  V30 7484 N 734.202 3.87051 -2.54452 0
M  V30 7485 C 734.937 4.72739 -3.24507 0
M  V30 7486 N 734.433 5.6282 -4.03987 0
M  V30 7487 N 736.226 4.66581 -3.13462 0
M  V30 7488 H 728.377 0.996289 -1.87584 0
M  V30 7489 H 730.64 0.498921 -0.80609 0
M  V30 7490 H 730.346 2.32758 -2.6366 0
M  V30 7491 H 730.22 3.52005 -1.35545 0
M  V30 7492 H 732.607 2.89184 -0.587913 0
M  V30 7493 H 732.688 1.7101 -1.90235 0
M  V30 7494 H 732.332 3.59438 -3.58841 0
M  V30 7495 H 732.262 4.76315 -2.2457 0
M  V30 7496 H 734.753 3.22649 -1.96739 0
M  V30 7497 H 735.066 6.25095 -4.54396 0
M  V30 7498 H 733.411 5.62574 -4.08088 0
M  V30 7499 H 736.602 3.9521 -2.50852 0
M  V30 7500 H 736.775 5.33141 -3.68327 0
M  V30 7501 N 730.181 0.707592 1.40822 0
M  V30 7502 C 731.592 0.317011 1.83989 0
M  V30 7503 C 731.943 -1.14697 1.59182 0
M  V30 7504 O 731.068 -1.8818 1.06852 0
M  V30 7505 C 731.663 0.568593 3.33995 0
M  V30 7506 C 730.222 0.231804 3.75686 0
M  V30 7507 C 729.369 0.844933 2.64114 0
M  V30 7508 H 732.32 0.907349 1.30203 0
M  V30 7509 H 732.341 -0.168798 3.80125 0
M  V30 7510 H 731.853 1.63417 3.52018 0
M  V30 7511 H 729.954 -0.82903 3.6326 0
M  V30 7512 H 730.067 0.695219 4.74029 0
M  V30 7513 H 728.431 0.273588 2.53226 0
M  V30 7514 H 729.214 1.91462 2.84951 0
M  V30 7515 N 731.66 -1.50943 0.453197 0
M  V30 7516 C 732.608 -2.29728 -0.364419 0
M  V30 7517 C 733.602 -1.36246 -1.00664 0
M  V30 7518 O 734.808 -1.53518 -0.939794 0
M  V30 7519 H 731.183 -0.739536 -0.136347 0
M  V30 7520 H 733.154 -2.96672 0.320696 0
M  V30 7521 C 731.903 -3.1629 -1.44415 0
M  V30 7522 H 731.226 -3.88119 -0.959343 0
M  V30 7523 H 732.666 -3.74444 -1.98917 0
M  V30 7524 C 731.125 -2.32702 -2.43622 0
M  V30 7525 O 731.655 -1.99763 -3.48508 0
M  V30 7526 N 729.861 -1.95621 -2.14897 0
M  V30 7527 H 729.408 -2.22607 -1.29629 0
M  V30 7528 H 729.366 -1.39993 -2.81513 0
M  V30 7529 N 733.138 -0.185124 -1.56509 0
M  V30 7530 C 734.386 0.455357 -1.96903 0
M  V30 7531 C 734.707 1.62839 -1.07277 0
M  V30 7532 O 733.977 1.95385 -0.141966 0
M  V30 7533 H 732.557 0.171218 -0.727113 0
M  V30 7534 H 735.219 -0.26953 -1.93027 0
M  V30 7535 H 734.315 0.80616 -3.01509 0
M  V30 7536 N 734.616 1.57351 0.0885366 0
M  V30 7537 C 735.865 1.85604 0.789556 0
M  V30 7538 C 736.178 0.775352 1.79576 0
M  V30 7539 O 737.384 0.945206 2.54515 0
M  V30 7540 C 735.84 3.29175 1.45506 0
M  V30 7541 C 735.448 4.45331 0.488278 0
M  V30 7542 C 737.192 3.66646 2.13942 0
M  V30 7543 C 735.099 5.79937 1.15874 0
M  V30 7544 H 734.029 0.692346 0.298619 0
M  V30 7545 H 736.68 1.83451 0.0425821 0
M  V30 7546 H 735.062 3.25889 2.24972 0
M  V30 7547 H 736.236 4.59977 -0.275359 0
M  V30 7548 H 734.551 4.16301 -0.0907363 0
M  V30 7549 H 737.148 4.64498 2.6485 0
M  V30 7550 H 737.491 2.956 2.93132 0
M  V30 7551 H 738.024 3.71848 1.41328 0
M  V30 7552 H 734.763 6.54232 0.407508 0
M  V30 7553 H 734.283 5.69123 1.89364 0
M  V30 7554 H 735.962 6.24718 1.68336 0
M  V30 7555 N 736.094 -0.359525 1.53444 0
M  V30 7556 C 737.343 -1.09886 1.69139 0
M  V30 7557 C 737.656 -1.90285 0.452863 0
M  V30 7558 O 738.862 -2.67033 0.490459 0
M  V30 7559 C 737.318 -2.0028 2.99025 0
M  V30 7560 C 736.926 -1.25164 4.30161 0
M  V30 7561 C 738.67 -2.74168 3.24086 0
M  V30 7562 C 736.577 -2.14494 5.51132 0
M  V30 7563 H 735.507 -0.413936 0.630217 0
M  V30 7564 H 738.158 -0.359434 1.79945 0
M  V30 7565 H 736.54 -2.77978 2.82036 0
M  V30 7566 H 737.714 -0.524867 4.57801 0
M  V30 7567 H 736.029 -0.631116 4.11589 0
M  V30 7568 H 738.626 -3.41243 4.11652 0
M  V30 7569 H 738.969 -3.39868 2.40407 0
M  V30 7570 H 739.502 -2.0355 3.41778 0
M  V30 7571 H 736.241 -1.53362 6.37307 0
M  V30 7572 H 735.761 -2.85004 5.27762 0
M  V30 7573 H 737.44 -2.73914 5.86157 0
M  V30 7574 N 737.572 -1.44907 -0.619662 0
M  V30 7575 C 738.502 -1.55488 -1.742 0
M  V30 7576 C 739.483 -0.407143 -1.65156 0
M  V30 7577 O 740.668 -0.628743 -1.8374 0
M  V30 7578 C 737.798 -1.5097 -3.1277 0
M  V30 7579 C 736.752 -2.64337 -3.36615 0
M  V30 7580 C 736.078 -2.44872 -4.75333 0
M  V30 7581 C 737.378 -4.06423 -3.28051 0
M  V30 7582 H 739.072 -2.49432 -1.65602 0
M  V30 7583 H 736.618 -1.20047 -0.795281 0
M  V30 7584 H 738.571 -1.56971 -3.91073 0
M  V30 7585 H 737.295 -0.535486 -3.2218 0
M  V30 7586 H 735.954 -2.57744 -2.60698 0
M  V30 7587 H 735.602 -1.45617 -4.81461 0
M  V30 7588 H 735.302 -3.20888 -4.92244 0
M  V30 7589 H 736.826 -2.52709 -5.55851 0
M  V30 7590 H 738.24 -4.14324 -3.96243 0
M  V30 7591 H 736.637 -4.82733 -3.56495 0
M  V30 7592 H 737.707 -4.29183 -2.25676 0
M  V30 7593 N 739.05 0.861098 -1.31996 0
M  V30 7594 C 739.96 2.00154 -1.22374 0
M  V30 7595 C 740.976 1.73447 -0.138631 0
M  V30 7596 O 742.152 1.98191 -0.358104 0
M  V30 7597 C 739.217 3.33696 -0.940645 0
M  V30 7598 C 738.278 3.73668 -2.11355 0
M  V30 7599 C 737.511 5.00837 -1.84386 0
M  V30 7600 O 737.734 5.64996 -0.783287 0
M  V30 7601 O 736.668 5.37787 -2.70313 0
M  V30 7602 H 740.494 2.11207 -2.18233 0
M  V30 7603 H 738.079 0.990768 -1.11822 0
M  V30 7604 H 739.961 4.13756 -0.798987 0
M  V30 7605 H 738.636 3.23698 -0.0121636 0
M  V30 7606 H 737.543 2.94211 -2.31065 0
M  V30 7607 H 738.876 3.88303 -3.02459 0
M  V30 7608 N 740.528 1.15101 1.07655 0
M  V30 7609 C 741.758 0.946357 1.83651 0
M  V30 7610 C 742.166 -0.508641 1.82235 0
M  V30 7611 O 741.509 -1.36445 1.22997 0
M  V30 7612 C 741.571 1.37945 3.31981 0
M  V30 7613 C 741.235 2.85155 3.57122 0
M  V30 7614 C 742.232 3.83234 3.51323 0
M  V30 7615 C 739.917 3.2275 3.84887 0
M  V30 7616 C 741.911 5.16914 3.72932 0
M  V30 7617 C 739.598 4.56604 4.06148 0
M  V30 7618 C 740.596 5.53495 4.00165 0
M  V30 7619 O 740.284 6.84931 4.20861 0
M  V30 7620 H 740.016 0.336368 0.586372 0
M  V30 7621 H 742.57 1.53198 1.36819 0
M  V30 7622 H 740.8 0.737205 3.79608 0
M  V30 7623 H 742.489 1.14439 3.89434 0
M  V30 7624 H 743.255 3.55535 3.29878 0
M  V30 7625 H 739.134 2.47921 3.88659 0
M  V30 7626 H 742.678 5.92529 3.68178 0
M  V30 7627 H 738.575 4.84019 4.27078 0
M  V30 7628 H 739.343 6.91304 4.38226 0
M  V30 7629 N 742.006 -1.2595 0.947325 0
M  V30 7630 C 742.916 -2.29883 0.468079 0
M  V30 7631 C 743.932 -1.67783 -0.460975 0
M  V30 7632 O 745.108 -1.98526 -0.339006 0
M  V30 7633 C 742.173 -3.45773 -0.253315 0
M  V30 7634 C 741.234 -4.23337 0.713054 0
M  V30 7635 C 740.467 -5.33694 0.025993 0
M  V30 7636 O 740.69 -5.57853 -1.18978 0
M  V30 7637 O 739.624 -5.97724 0.70782 0
M  V30 7638 H 743.45 -2.72952 1.33156 0
M  V30 7639 H 741.035 -1.31263 0.713468 0
M  V30 7640 H 742.917 -4.16209 -0.659423 0
M  V30 7641 H 741.592 -3.04721 -1.09209 0
M  V30 7642 H 740.499 -3.55359 1.16923 0
M  V30 7643 H 741.832 -4.68154 1.51963 0
M  V30 7644 N 743.484 -0.715051 -1.40445 0
M  V30 7645 C 744.733 -0.251322 -2.00128 0
M  V30 7646 C 745.046 1.16194 -1.57347 0
M  V30 7647 O 746.252 1.72416 -2.09726 0
M  V30 7648 C 744.708 -0.398407 -3.57688 0
M  V30 7649 C 744.316 -1.81828 -4.09442 0
M  V30 7650 C 746.06 0.00455625 -4.245 0
M  V30 7651 C 743.967 -1.91598 -5.59503 0
M  V30 7652 H 742.897 -0.0902081 -0.748584 0
M  V30 7653 H 745.548 -0.886062 -1.6069 0
M  V30 7654 H 743.93 0.304908 -3.94824 0
M  V30 7655 H 745.104 -2.55193 -3.83684 0
M  V30 7656 H 743.419 -2.17266 -3.55225 0
M  V30 7657 H 746.016 -0.0477303 -5.34679 0
M  V30 7658 H 746.359 1.04636 -4.02935 0
M  V30 7659 H 746.892 -0.649184 -3.92467 0
M  V30 7660 H 743.631 -2.93898 -5.85922 0
M  V30 7661 H 743.151 -1.22644 -5.87127 0
M  V30 7662 H 744.83 -1.68785 -6.24596 0
M  V30 7663 N 744.962 1.50701 -0.461195 0
M  V30 7664 C 745.909 2.2831 0.338094 0
M  V30 7665 C 746.879 1.32928 0.995957 0
M  V30 7666 O 748.064 1.61857 1.0103 0
M  V30 7667 C 745.204 3.14539 1.41983 0
M  V30 7668 C 744.317 4.24942 0.77773 0
M  V30 7669 C 743.452 4.98443 1.83652 0
M  V30 7670 C 742.491 6.00733 1.17413 0
M  V30 7671 N 741.628 6.6755 2.17533 0
M  V30 7672 H 746.468 2.96167 -0.330051 0
M  V30 7673 H 744.005 1.4606 -0.174611 0
M  V30 7674 H 745.963 3.62877 2.05855 0
M  V30 7675 H 744.593 2.48749 2.05727 0
M  V30 7676 H 743.645 3.80391 0.0266924 0
M  V30 7677 H 744.957 4.98151 0.254362 0
M  V30 7678 H 744.111 5.50449 2.55129 0
M  V30 7679 H 742.85 4.24917 2.39367 0
M  V30 7680 H 741.855 5.47997 0.444944 0
M  V30 7681 H 743.08 6.76227 0.624006 0
M  V30 7682 H 741.026 5.96823 2.72284 0
M  V30 7683 H 740.943 7.36603 1.70154 0
M  V30 7684 H 742.211 7.24178 2.88421 0
M  V30 7685 N 746.441 0.193421 1.56409 0
M  V30 7686 C 747.671 -0.450783 2.01622 0
M  V30 7687 C 748.079 -1.5585 1.07273 0
M  V30 7688 O 747.422 -1.83569 0.0694875 0
M  V30 7689 C 747.484 -1.06913 3.43235 0
M  V30 7690 C 747.148 -0.100352 4.5689 0
M  V30 7691 C 748.145 0.689633 5.15306 0
M  V30 7692 C 745.83 0.0102436 5.02299 0
M  V30 7693 C 747.824 1.5772 6.17579 0
M  V30 7694 C 745.511 0.901368 6.04416 0
M  V30 7695 C 746.509 1.68341 6.61929 0
M  V30 7696 O 746.197 2.5596 7.62063 0
M  V30 7697 H 745.929 -0.117671 0.66568 0
M  V30 7698 H 748.483 0.2989 2.03214 0
M  V30 7699 H 746.713 -1.86736 3.38624 0
M  V30 7700 H 748.402 -1.61781 3.72266 0
M  V30 7701 H 749.168 0.614485 4.81092 0
M  V30 7702 H 745.047 -0.58829 4.57231 0
M  V30 7703 H 748.591 2.18805 6.62397 0
M  V30 7704 H 744.488 0.977637 6.38054 0
M  V30 7705 H 745.256 2.49721 7.79475 0
M  V30 7706 N 747.919 -1.57396 -0.0801906 0
M  V30 7707 C 749.166 -1.86836 -0.780927 0
M  V30 7708 C 749.494 -0.784012 -1.77999 0
M  V30 7709 O 748.749 0.220881 -1.94449 0
M  V30 7710 C 749.048 -3.22915 -1.53169 0
M  V30 7711 C 748.714 -4.45843 -0.67339 0
M  V30 7712 C 747.376 -4.79213 -0.436829 0
M  V30 7713 C 749.728 -5.21142 -0.0776786 0
M  V30 7714 C 747.056 -5.853 0.405062 0
M  V30 7715 C 749.408 -6.28119 0.751619 0
M  V30 7716 C 748.072 -6.59995 0.998131 0
M  V30 7717 H 747.342 -0.683682 -0.285761 0
M  V30 7718 H 749.989 -1.91454 -0.0419435 0
M  V30 7719 H 748.294 -3.14049 -2.34265 0
M  V30 7720 H 749.991 -3.42926 -2.07853 0
M  V30 7721 H 746.581 -4.19721 -0.867891 0
M  V30 7722 H 750.765 -4.95682 -0.247572 0
M  V30 7723 H 746.021 -6.084 0.60488 0
M  V30 7724 H 750.195 -6.8563 1.22 0
M  V30 7725 H 747.822 -7.42027 1.65227 0
M  V30 7726 N 749.397 0.351382 -1.53633 0
M  V30 7727 C 750.307 1.45471 -1.84052 0
M  V30 7728 C 751.323 1.57945 -0.730015 0
M  V30 7729 O 752.499 1.73571 -1.02153 0
M  V30 7730 C 749.564 2.80562 -2.03681 0
M  V30 7731 C 748.625 2.77497 -3.27558 0
M  V30 7732 C 747.858 4.06144 -3.46241 0
M  V30 7733 O 748.081 5.03028 -2.68922 0
M  V30 7734 O 747.015 4.11092 -4.39645 0
M  V30 7735 H 750.841 1.22684 -2.77817 0
M  V30 7736 H 748.426 0.542827 -1.3919 0
M  V30 7737 H 750.308 3.6058 -2.18082 0
M  V30 7738 H 748.983 3.03296 -1.13106 0
M  V30 7739 H 747.89 1.96126 -3.18568 0
M  V30 7740 H 749.223 2.59716 -4.18101 0
M  V30 7741 N 750.875 1.45233 0.611969 0
M  V30 7742 C 751.822 1.5357 1.72293 0
M  V30 7743 C 752.792 0.381912 1.6165 0
M  V30 7744 O 753.977 0.594765 1.81293 0
M  V30 7745 C 751.117 1.50419 3.10593 0
M  V30 7746 C 750.23 2.76316 3.32074 0
M  V30 7747 C 749.365 2.64866 4.60456 0
M  V30 7748 C 748.404 3.85838 4.7518 0
M  V30 7749 N 747.541 3.72949 5.94856 0
M  V30 7750 H 752.381 2.4848 1.64504 0
M  V30 7751 H 749.918 1.23302 0.802191 0
M  V30 7752 H 751.876 1.4658 3.90602 0
M  V30 7753 H 750.506 0.590621 3.17351 0
M  V30 7754 H 749.558 2.90261 2.45872 0
M  V30 7755 H 750.87 3.66055 3.38829 0
M  V30 7756 H 750.024 2.58969 5.48653 0
M  V30 7757 H 748.763 1.72719 4.56092 0
M  V30 7758 H 747.768 3.92099 3.85407 0
M  V30 7759 H 748.993 4.79045 4.81344 0
M  V30 7760 H 746.939 2.83567 5.91545 0
M  V30 7761 H 746.856 4.56319 6.02751 0
M  V30 7762 H 748.124 3.70976 6.85563 0
M  V30 7763 N 752.353 -0.854086 1.3245 0
M  V30 7764 C 753.63 -1.59188 1.1366 0
M  V30 7765 C 754.01 -2.08917 -0.302807 0
M  V30 7766 O 753.358 -1.8795 -1.29951 0
M  V30 7767 C 753.568 -2.73757 2.16467 0
M  V30 7768 C 754.916 -3.43323 2.49829 0
M  V30 7769 O 755.94 -2.83983 2.15017 0
M  V30 7770 O 754.799 -4.50409 3.09506 0
M  V30 7771 H 751.893 -0.701092 0.438633 0
M  V30 7772 H 754.439 -0.898165 1.43983 0
M  V30 7773 H 753.211 -2.3454 3.1322 0
M  V30 7774 H 752.834 -3.50804 1.87142 0
M  V30 7775 N 753.831 -1.1567 -1.07043 0
M  V30 7776 C 754.763 -0.814095 -2.14255 0
M  V30 7777 C 755.776 0.175293 -1.61854 0
M  V30 7778 O 756.965 -0.0483984 -1.78434 0
M  V30 7779 C 754.065 -0.190082 -3.38367 0
M  V30 7780 C 753.238 -1.21768 -4.20109 0
M  V30 7781 C 752.297 -0.614863 -5.22595 0
M  V30 7782 O 751.323 -1.28167 -5.54583 0
M  V30 7783 N 752.525 0.601955 -5.77371 0
M  V30 7784 H 755.29 -1.73677 -2.44247 0
M  V30 7785 H 752.851 -1.05301 -1.22977 0
M  V30 7786 H 754.843 0.22604 -4.04068 0
M  V30 7787 H 753.413 0.635992 -3.06062 0
M  V30 7788 H 752.633 -1.81025 -3.50177 0
M  V30 7789 H 753.921 -1.9114 -4.71533 0
M  V30 7790 H 753.319 1.162 -5.53637 0
M  V30 7791 H 751.876 0.96039 -6.44686 0
M  V30 7792 N 755.309 1.25446 -0.953992 0
M  V30 7793 C 756.219 2.29632 -0.480264 0
M  V30 7794 C 757.235 1.68025 0.452071 0
M  V30 7795 O 758.411 1.98703 0.328472 0
M  V30 7796 C 755.476 3.45903 0.234974 0
M  V30 7797 C 754.537 4.22953 -0.735495 0
M  V30 7798 C 753.77 5.33672 -0.0542957 0
M  V30 7799 O 753.993 5.58477 1.16018 0
M  V30 7800 O 752.927 5.9734 -0.739509 0
M  V30 7801 H 756.753 2.72242 -1.34602 0
M  V30 7802 H 754.338 1.30883 -0.720419 0
M  V30 7803 H 756.22 4.16552 0.637341 0
M  V30 7804 H 754.895 3.05296 1.07592 0
M  V30 7805 H 753.802 3.54734 -1.18806 0
M  V30 7806 H 755.135 4.67341 -1.54444 0
M  V30 7807 N 756.787 0.722489 1.40064 0
M  V30 7808 C 758.015 0.274838 2.05066 0
M  V30 7809 C 758.43 -1.08586 1.54449 0
M  V30 7810 O 757.787 -1.68375 0.704003 0
M  V30 7811 C 757.838 0.253673 3.60609 0
M  V30 7812 O 757.559 1.56064 4.0936 0
M  V30 7813 C 759.06 -0.211684 4.42794 0
M  V30 7814 H 756.28 0.12226 0.659768 0
M  V30 7815 H 758.824 0.982632 1.79345 0
M  V30 7816 H 756.979 -0.405137 3.85276 0
M  V30 7817 H 757.393 1.46576 5.03603 0
M  V30 7818 H 758.867 -0.175341 5.51721 0
M  V30 7819 H 759.344 -1.25493 4.2089 0
M  V30 7820 H 759.95 0.4171 4.2325 0
M  V30 7821 N 758.265 -1.50454 0.469181 0
M  V30 7822 C 759.49 -2.0722 -0.0864892 0
M  V30 7823 C 759.915 -1.33098 -1.32916 0
M  V30 7824 O 759.273 -0.378084 -1.77314 0
M  V30 7825 C 759.321 -3.58845 -0.355384 0
M  V30 7826 O 758.425 -3.86583 -1.43622 0
M  V30 7827 H 757.766 -0.663889 0.0121414 0
M  V30 7828 H 760.296 -1.93674 0.659674 0
M  V30 7829 H 760.306 -4.03617 -0.596447 0
M  V30 7830 H 758.981 -4.12211 0.552698 0
M  V30 7831 H 757.558 -3.5365 -1.18262 0
M  V30 7832 N 759.743 -0.201713 -1.56304 0
M  V30 7833 C 760.973 0.440084 -2.01858 0
M  V30 7834 C 761.381 1.55279 -1.08098 0
M  V30 7835 O 760.724 1.83529 -0.0792216 0
M  V30 7836 C 760.786 1.05091 -3.43797 0
M  V30 7837 C 760.45 0.0761208 -4.56937 0
M  V30 7838 C 761.447 -0.716951 -5.14933 0
M  V30 7839 C 759.132 -0.0368815 -5.02286 0
M  V30 7840 C 761.126 -1.60993 -6.16733 0
M  V30 7841 C 758.813 -0.933409 -6.03929 0
M  V30 7842 C 759.811 -1.71849 -6.61027 0
M  V30 7843 O 759.499 -2.59998 -7.60695 0
M  V30 7844 H 759.231 0.114139 -0.666294 0
M  V30 7845 H 761.785 -0.309672 -2.03052 0
M  V30 7846 H 760.015 1.84938 -3.3961 0
M  V30 7847 H 761.704 1.59804 -3.73118 0
M  V30 7848 H 762.47 -0.63999 -4.80759 0
M  V30 7849 H 758.349 0.564034 -4.57537 0
M  V30 7850 H 761.893 -2.22315 -6.61227 0
M  V30 7851 H 757.79 -1.01146 -6.37526 0
M  V30 7852 H 758.558 -2.53851 -7.7814 0
M  V30 7853 N 761.222 1.57436 0.0718424 0
M  V30 7854 C 762.45 1.91474 0.783932 0
M  V30 7855 C 762.865 0.797669 1.71122 0
M  V30 7856 O 762.222 -0.228989 1.81058 0
M  V30 7857 C 762.273 3.25259 1.57761 0
M  V30 7858 O 761.994 4.3267 0.687596 0
M  V30 7859 C 763.495 3.7331 2.3907 0
M  V30 7860 H 760.715 0.632901 0.222885 0
M  V30 7861 H 763.259 2.04457 0.0421262 0
M  V30 7862 H 761.414 3.13804 2.27169 0
M  V30 7863 H 761.828 5.09641 1.23962 0
M  V30 7864 H 763.302 4.69551 2.90216 0
M  V30 7865 H 763.779 3.02318 3.18591 0
M  V30 7866 H 764.385 3.8771 1.74818 0
M  V30 7867 N 762.7 -0.34323 1.53817 0
M  V30 7868 C 763.949 -1.08086 1.70295 0
M  V30 7869 C 764.262 -1.89794 0.47302 0
M  V30 7870 O 765.468 -2.66498 0.518754 0
M  V30 7871 C 763.924 -1.97097 3.01133 0
M  V30 7872 C 763.532 -1.20594 4.31464 0
M  V30 7873 C 765.276 -2.70715 3.26976 0
M  V30 7874 C 763.183 -2.08636 5.53376 0
M  V30 7875 H 762.113 -0.407228 0.634572 0
M  V30 7876 H 764.764 -0.340328 1.80316 0
M  V30 7877 H 763.146 -2.74971 2.84969 0
M  V30 7878 H 764.32 -0.476282 4.58332 0
M  V30 7879 H 762.635 -0.587426 4.12236 0
M  V30 7880 H 765.232 -3.36857 4.15248 0
M  V30 7881 H 765.575 -3.37299 2.43998 0
M  V30 7882 H 766.108 -1.99914 3.43917 0
M  V30 7883 H 762.847 -1.46594 6.38898 0
M  V30 7884 H 762.367 -2.7939 5.30755 0
M  V30 7885 H 764.046 -2.67682 5.89029 0
M  V30 7886 N 764.178 -1.45556 -0.604258 0
M  V30 7887 C 765.427 -1.49019 -1.35928 0
M  V30 7888 C 765.74 -0.137409 -1.95117 0
M  V30 7889 O 766.946 -0.0497032 -2.71455 0
M  V30 7890 C 765.402 -2.62477 -2.46239 0
M  V30 7891 C 765.01 -4.04082 -1.93447 0
M  V30 7892 C 766.754 -2.7519 -3.23219 0
M  V30 7893 C 764.661 -5.08917 -3.0126 0
M  V30 7894 H 763.591 -0.554518 -0.510907 0
M  V30 7895 H 766.242 -1.71705 -0.647262 0
M  V30 7896 H 764.624 -2.3308 -3.2014 0
M  V30 7897 H 765.798 -4.43173 -1.26232 0
M  V30 7898 H 764.113 -3.95849 -1.29201 0
M  V30 7899 H 766.71 -3.50683 -4.0364 0
M  V30 7900 H 767.053 -1.81941 -3.74437 0
M  V30 7901 H 767.586 -3.04129 -2.56418 0
M  V30 7902 H 764.325 -6.03886 -2.54955 0
M  V30 7903 H 763.845 -4.74393 -3.67031 0
M  V30 7904 H 765.524 -5.33814 -3.65584 0
M  V30 7905 N 765.656 0.84705 -1.32902 0
M  V30 7906 C 766.603 1.95624 -1.22473 0
M  V30 7907 C 767.573 1.65767 -0.105178 0
M  V30 7908 O 768.758 1.88704 -0.282042 0
M  V30 7909 C 765.898 3.31434 -0.961542 0
M  V30 7910 C 765.011 3.73741 -2.1666 0
M  V30 7911 C 764.146 4.98379 -1.83825 0
M  V30 7912 C 763.185 5.33199 -3.00609 0
M  V30 7913 N 762.322 6.49014 -2.67816 0
M  V30 7914 H 767.162 2.03875 -2.17345 0
M  V30 7915 H 764.699 0.997764 -1.08088 0
M  V30 7916 H 766.657 4.09663 -0.789411 0
M  V30 7917 H 765.287 3.22762 -0.0495938 0
M  V30 7918 H 764.339 2.91102 -2.44875 0
M  V30 7919 H 765.651 3.95462 -3.03993 0
M  V30 7920 H 764.805 5.84336 -1.63208 0
M  V30 7921 H 763.544 4.78611 -0.937172 0
M  V30 7922 H 762.549 4.4575 -3.21849 0
M  V30 7923 H 763.774 5.5492 -3.9146 0
M  V30 7924 H 761.72 6.30748 -1.80258 0
M  V30 7925 H 761.637 6.7079 -3.48679 0
M  V30 7926 H 762.905 7.38103 -2.50647 0
M  V30 7927 N 767.134 1.16236 1.06428 0
M  V30 7928 C 768.359 0.967688 1.83441 0
M  V30 7929 C 768.784 -0.479167 1.81894 0
M  V30 7930 O 768.142 -1.34224 1.21875 0
M  V30 7931 C 768.19 1.49806 3.2801 0
M  V30 7932 O 767.294 0.703481 4.06356 0
M  V30 7933 H 766.635 0.344468 0.56766 0
M  V30 7934 H 769.165 1.54442 1.34197 0
M  V30 7935 H 769.175 1.51495 3.78831 0
M  V30 7936 H 767.85 2.55133 3.2845 0
M  V30 7937 H 766.427 0.756986 3.65136 0
M  V30 7938 N 768.612 -1.24939 0.960631 0
M  V30 7939 C 769.559 -2.25658 0.484459 0
M  V30 7940 C 770.529 -1.59422 -0.466242 0
M  V30 7941 O 771.714 -1.87015 -0.378169 0
M  V30 7942 C 768.854 -3.44359 -0.225958 0
M  V30 7943 C 767.967 -4.25214 0.762682 0
M  V30 7944 C 767.102 -5.31192 0.0290931 0
M  V30 7945 C 766.141 -6.03739 1.00827 0
M  V30 7946 N 765.278 -7.01437 0.305155 0
M  V30 7947 H 770.118 -2.65758 1.34821 0
M  V30 7948 H 767.655 -1.30648 0.675983 0
M  V30 7949 H 769.613 -4.12035 -0.654472 0
M  V30 7950 H 768.243 -3.05118 -1.05371 0
M  V30 7951 H 767.295 -3.57144 1.30966 0
M  V30 7952 H 768.607 -4.75406 1.50964 0
M  V30 7953 H 767.761 -6.04971 -0.457763 0
M  V30 7954 H 766.5 -4.81889 -0.750614 0
M  V30 7955 H 765.505 -5.2877 1.50607 0
M  V30 7956 H 766.73 -6.55131 1.7883 0
M  V30 7957 H 764.676 -6.54415 -0.455704 0
M  V30 7958 H 764.593 -7.49475 0.991104 0
M  V30 7959 H 765.861 -7.79336 -0.159966 0
M  V30 7960 N 770.09 -0.729906 -1.39679 0
M  V30 7961 C 771 -0.0880322 -2.34435 0
M  V30 7962 C 772.016 0.727674 -1.58053 0
M  V30 7963 O 773.192 0.657321 -1.90371 0
M  V30 7964 C 770.257 0.812211 -3.37052 0
M  V30 7965 C 769.318 -0.0151681 -4.29297 0
M  V30 7966 C 768.551 0.842202 -5.27013 0
M  V30 7967 O 768.774 2.08108 -5.31081 0
M  V30 7968 O 767.708 0.27357 -6.01278 0
M  V30 7969 H 771.534 -0.869989 -2.90972 0
M  V30 7970 H 769.119 -0.490522 -1.41118 0
M  V30 7971 H 771.001 1.32745 -3.99946 0
M  V30 7972 H 769.676 1.57307 -2.82907 0
M  V30 7973 H 768.583 -0.575811 -3.69642 0
M  V30 7974 H 769.916 -0.738129 -4.86634 0
M  V30 7975 N 771.568 1.50203 -0.477153 0
M  V30 7976 C 772.796 2.0677 0.0732489 0
M  V30 7977 C 773.211 1.34033 1.32968 0
M  V30 7978 O 772.568 0.411412 1.77802 0
M  V30 7979 C 772.619 3.59751 0.35518 0
M  V30 7980 O 772.34 4.29747 -0.851425 0
M  V30 7981 C 773.841 4.3296 0.951877 0
M  V30 7982 H 771.061 0.670929 -0.00978923 0
M  V30 7983 H 773.605 1.93293 -0.667676 0
M  V30 7984 H 771.76 3.7301 1.04605 0
M  V30 7985 H 772.174 5.2106 -0.599708 0
M  V30 7986 H 773.648 5.40952 1.09888 0
M  V30 7987 H 774.125 3.93856 1.94356 0
M  V30 7988 H 774.731 4.24246 0.299208 0
M  V30 7989 N 773.046 0.209999 1.56195 0
M  V30 7990 C 774.274 -0.429996 2.02382 0
M  V30 7991 C 774.689 -1.54159 1.08998 0
M  V30 7992 O 774.046 -1.82239 0.0974856 0
M  V30 7993 C 774.097 -0.972433 3.48175 0
M  V30 7994 O 773.818 0.0948231 4.37997 0
M  V30 7995 C 775.319 -1.68683 4.09952 0
M  V30 7996 H 772.539 -0.106475 0.662498 0
M  V30 7997 H 775.083 0.323072 2.01932 0
M  V30 7998 H 773.238 -1.67582 3.49278 0
M  V30 7999 H 773.652 -0.31113 5.23576 0
M  V30 8000 H 775.126 -2.01851 5.13771 0
M  V30 8001 H 775.603 -2.59587 3.54276 0
M  V30 8002 H 776.209 -1.02893 4.12666 0
M  V30 8003 N 774.524 -1.57472 -0.0634922 0
M  V30 8004 C 775.773 -1.86837 -0.759928 0
M  V30 8005 C 776.086 -0.803823 -1.7832 0
M  V30 8006 O 777.292 -0.985578 -2.52979 0
M  V30 8007 C 775.748 -3.31448 -1.4025 0
M  V30 8008 C 775.356 -4.46052 -0.417368 0
M  V30 8009 C 777.1 -3.70003 -2.08082 0
M  V30 8010 C 775.007 -5.81707 -1.06633 0
M  V30 8011 H 773.937 -0.697009 -0.287567 0
M  V30 8012 H 776.588 -1.83495 -0.0133914 0
M  V30 8013 H 774.97 -3.29427 -2.19759 0
M  V30 8014 H 776.144 -4.5948 0.348503 0
M  V30 8015 H 774.459 -4.16104 0.156955 0
M  V30 8016 H 777.056 -4.68653 -2.57426 0
M  V30 8017 H 777.399 -3.00226 -2.88393 0
M  V30 8018 H 777.932 -3.7405 -1.35394 0
M  V30 8019 H 774.671 -6.54798 -0.303374 0
M  V30 8020 H 774.191 -5.72064 -1.80286 0
M  V30 8021 H 775.87 -6.27317 -1.58376 0
M  V30 8022 N 776.003 0.335068 -1.53997 0
M  V30 8023 C 777.231 1.09418 -1.756 0
M  V30 8024 C 777.646 1.82083 -0.499138 0
M  V30 8025 O 777.003 1.74646 0.529631 0
M  V30 8026 C 777.054 2.10115 -2.94166 0
M  V30 8027 O 776.775 1.40404 -4.14992 0
M  V30 8028 C 778.276 2.98336 -3.27888 0
M  V30 8029 H 775.496 0.32595 -0.586513 0
M  V30 8030 H 778.04 0.384693 -2.00849 0
M  V30 8031 H 776.195 2.76616 -2.71224 0
M  V30 8032 H 776.609 2.07743 -4.81605 0
M  V30 8033 H 778.083 3.6491 -4.1418 0
M  V30 8034 H 778.56 3.64814 -2.44556 0
M  V30 8035 H 779.166 2.37412 -3.52868 0
M  V30 8036 N 777.481 1.45874 0.596531 0
M  V30 8037 C 778.444 1.54988 1.68853 0
M  V30 8038 C 779.444 0.428302 1.54991 0
M  V30 8039 O 780.634 0.692158 1.59859 0
M  V30 8040 C 777.766 1.457 3.08195 0
M  V30 8041 H 778.959 2.52294 1.62135 0
M  V30 8042 H 776.512 1.33479 0.813206 0
M  V30 8043 H 777.247 0.496204 3.20481 0
M  V30 8044 H 777.032 2.27061 3.19665 0
M  V30 8045 H 778.522 1.55133 3.87716 0
M  V30 8046 N 778.959 -0.83999 1.33349 0
M  V30 8047 C 779.869 -1.98182 1.25543 0
M  V30 8048 C 780.885 -1.73204 0.166208 0
M  V30 8049 O 782.061 -1.97596 0.389589 0
M  V30 8050 C 779.126 -3.32157 0.993614 0
M  V30 8051 C 778.187 -3.70258 2.17273 0
M  V30 8052 C 777.42 -4.9784 1.92331 0
M  V30 8053 O 777.643 -5.63679 0.873074 0
M  V30 8054 O 776.577 -5.33418 2.78835 0
M  V30 8055 H 780.403 -2.07708 2.21565 0
M  V30 8056 H 777.988 -0.972852 1.13384 0
M  V30 8057 H 779.87 -4.12433 0.864711 0
M  V30 8058 H 778.545 -3.23637 0.0636596 0
M  V30 8059 H 777.452 -2.90497 2.35716 0
M  V30 8060 H 778.785 -3.83442 3.08598 0
M  V30 8061 N 780.437 -1.16799 -1.0581 0
M  V30 8062 C 781.685 -0.950642 -1.78346 0
M  V30 8063 C 782.006 0.522524 -1.87869 0
M  V30 8064 O 781.276 1.3795 -1.39092 0
M  V30 8065 H 779.856 -0.348736 -0.6606 0
M  V30 8066 H 782.518 -1.47158 -1.27791 0
M  V30 8067 H 781.614 -1.37359 -2.80248 0
M  V30 8068 N 781.915 1.24427 -0.967243 0
M  V30 8069 C 782.845 2.2773 -0.515899 0
M  V30 8070 C 783.826 1.64197 0.444227 0
M  V30 8071 O 785.011 1.91193 0.340451 0
M  V30 8072 C 782.141 3.46751 0.195149 0
M  V30 8073 C 781.095 4.22548 -0.680953 0
M  V30 8074 C 780.421 5.34456 0.161561 0
M  V30 8075 C 781.721 4.83914 -1.96532 0
M  V30 8076 H 783.415 2.65735 -1.37933 0
M  V30 8077 H 780.961 1.27742 -0.664681 0
M  V30 8078 H 782.914 4.18153 0.522117 0
M  V30 8079 H 781.638 3.07771 1.09292 0
M  V30 8080 H 780.297 3.52946 -0.991186 0
M  V30 8081 H 779.945 4.91716 1.05947 0
M  V30 8082 H 779.645 5.86087 -0.421418 0
M  V30 8083 H 781.169 6.08685 0.483211 0
M  V30 8084 H 782.583 5.47392 -1.70396 0
M  V30 8085 H 780.98 5.45775 -2.49499 0
M  V30 8086 H 782.05 4.05393 -2.66053 0
M  V30 8087 N 783.393 0.737304 1.3929 0
M  V30 8088 C 784.34 0.0988364 2.30588 0
M  V30 8089 C 785.31 -0.727206 1.49335 0
M  V30 8090 O 786.495 -0.686694 1.78014 0
M  V30 8091 C 783.635 -0.800734 3.35682 0
M  V30 8092 C 782.748 0.0381731 4.31983 0
M  V30 8093 C 781.883 -0.862884 5.24145 0
M  V30 8094 C 780.922 -0.0193639 6.12097 0
M  V30 8095 N 780.059 -0.87648 6.96608 0
M  V30 8096 H 784.899 0.883031 2.84617 0
M  V30 8097 H 782.436 0.447111 1.4014 0
M  V30 8098 H 784.394 -1.33676 3.95205 0
M  V30 8099 H 783.024 -1.55088 2.83103 0
M  V30 8100 H 782.076 0.691641 3.74059 0
M  V30 8101 H 783.388 0.690294 4.94 0
M  V30 8102 H 782.542 -1.46667 5.88705 0
M  V30 8103 H 781.281 -1.54878 4.62454 0
M  V30 8104 H 780.286 0.597202 5.46547 0
M  V30 8105 H 781.511 0.663348 6.75852 0
M  V30 8106 H 779.457 -1.54762 6.37483 0
M  V30 8107 H 779.374 -0.280892 7.55478 0
M  V30 8108 H 780.642 -1.46575 7.65595 0
M  V30 8109 N 784.871 -1.49948 0.485112 0
M  V30 8110 C 786.282 -1.8667 0.0334041 0
M  V30 8111 C 786.633 -1.3988 -1.37579 0
M  V30 8112 O 785.758 -0.769788 -2.02245 0
M  V30 8113 C 786.353 -3.38757 0.0538426 0
M  V30 8114 C 784.912 -3.74839 -0.342453 0
M  V30 8115 C 784.059 -2.73894 0.433281 0
M  V30 8116 H 787.01 -1.42492 0.698699 0
M  V30 8117 H 787.031 -3.73132 -0.745146 0
M  V30 8118 H 786.543 -3.72782 1.07959 0
M  V30 8119 H 784.644 -3.46419 -1.37203 0
M  V30 8120 H 784.757 -4.79088 -0.0340503 0
M  V30 8121 H 783.121 -2.54441 -0.114849 0
M  V30 8122 H 783.904 -3.10763 1.45881 0
M  V30 8123 N 786.349 -0.21828 -1.56081 0
M  V30 8124 C 787.312 0.679633 -2.18892 0
M  V30 8125 C 788.312 1.12405 -1.14986 0
M  V30 8126 O 789.502 1.03339 -1.40238 0
M  V30 8127 C 786.634 1.93063 -2.80962 0
M  V30 8128 H 787.827 0.132066 -2.99609 0
M  V30 8129 H 785.38 0.0313374 -1.56269 0
M  V30 8130 H 786.115 2.52015 -2.04106 0
M  V30 8131 H 785.9 1.62046 -3.57048 0
M  V30 8132 H 787.39 2.57043 -3.29118 0
M  V30 8133 N 787.827 1.57504 0.0551401 0
M  V30 8134 C 789.052 1.92682 0.767352 0
M  V30 8135 C 789.477 0.81614 1.69472 0
M  V30 8136 O 788.835 -0.229989 1.79835 0
M  V30 8137 C 788.883 3.26866 1.52286 0
M  V30 8138 O 787.987 3.17274 2.63459 0
M  V30 8139 H 787.328 0.630502 0.208238 0
M  V30 8140 H 789.858 2.04592 0.0184026 0
M  V30 8141 H 789.868 3.61138 1.8985 0
M  V30 8142 H 788.543 4.07276 0.842541 0
M  V30 8143 H 787.12 2.94589 2.2863 0
M  V30 8144 N 789.305 -0.326896 1.54172 0
M  V30 8145 C 790.551 -1.06681 1.72473 0
M  V30 8146 C 790.884 -1.87779 0.49523 0
M  V30 8147 O 790.159 -1.87754 -0.507803 0
M  V30 8148 C 790.442 -1.99429 2.99834 0
M  V30 8149 C 790.295 -1.21682 4.33028 0
M  V30 8150 C 791.614 -2.99002 3.22933 0
M  V30 8151 H 788.733 -0.386438 0.627563 0
M  V30 8152 H 791.375 -0.343779 1.86864 0
M  V30 8153 H 789.525 -2.61081 2.87696 0
M  V30 8154 H 791.197 -0.625153 4.57044 0
M  V30 8155 H 789.44 -0.519045 4.30684 0
M  V30 8156 H 790.111 -1.89766 5.18356 0
M  V30 8157 H 792.587 -2.4747 3.34511 0
M  V30 8158 H 791.463 -3.61085 4.13412 0
M  V30 8159 H 791.724 -3.71281 2.40006 0
M  V30 8160 N 790.784 -1.46188 -0.588786 0
M  V30 8161 C 792.014 -1.54519 -1.3714 0
M  V30 8162 C 792.422 -0.183075 -1.88312 0
M  V30 8163 O 791.765 0.828815 -1.6394 0
M  V30 8164 C 791.827 -2.48426 -2.59856 0
M  V30 8165 C 791.491 -3.94791 -2.30193 0
M  V30 8166 C 792.488 -4.84173 -1.894 0
M  V30 8167 C 790.173 -4.39872 -2.42525 0
M  V30 8168 C 792.167 -6.16647 -1.61325 0
M  V30 8169 C 789.854 -5.72381 -2.14063 0
M  V30 8170 C 790.852 -6.60589 -1.73527 0
M  V30 8171 O 790.54 -7.9064 -1.4541 0
M  V30 8172 H 790.272 -0.525264 -0.425527 0
M  V30 8173 H 792.826 -1.92242 -0.723344 0
M  V30 8174 H 791.056 -2.05709 -3.27446 0
M  V30 8175 H 792.745 -2.4723 -3.21919 0
M  V30 8176 H 793.511 -4.50603 -1.79393 0
M  V30 8177 H 789.39 -3.71444 -2.7304 0
M  V30 8178 H 792.934 -6.85454 -1.29611 0
M  V30 8179 H 788.831 -6.05501 -2.23693 0
M  V30 8180 H 789.599 -8.02847 -1.59306 0
M  V30 8181 N 792.262 0.832906 -1.33792 0
M  V30 8182 C 793.508 1.59089 -1.25772 0
M  V30 8183 C 793.841 1.93414 0.174601 0
M  V30 8184 O 793.116 1.59195 1.11746 0
M  V30 8185 C 793.399 2.89699 -2.13885 0
M  V30 8186 C 793.252 2.62017 -3.65605 0
M  V30 8187 C 794.571 3.91182 -2.01654 0
M  V30 8188 H 791.69 0.577232 -0.458227 0
M  V30 8189 H 794.332 0.960227 -1.6395 0
M  V30 8190 H 792.482 3.4352 -1.81456 0
M  V30 8191 H 794.154 2.14582 -4.08353 0
M  V30 8192 H 792.397 1.95621 -3.87189 0
M  V30 8193 H 793.068 3.55112 -4.2261 0
M  V30 8194 H 795.544 3.46684 -2.30107 0
M  V30 8195 H 794.42 4.80391 -2.65548 0
M  V30 8196 H 794.681 4.30861 -0.990536 0
M  V30 8197 N 793.74 1.17359 1.05189 0
M  V30 8198 C 794.987 0.961987 1.78191 0
M  V30 8199 C 795.315 -0.509363 1.87712 0
M  V30 8200 O 794.57 -1.39425 1.37329 0
M  V30 8201 C 794.869 1.54821 3.22126 0
M  V30 8202 C 794.535 3.04378 3.32663 0
M  V30 8203 C 793.197 3.45201 3.35246 0
M  V30 8204 C 795.549 4.00387 3.33677 0
M  V30 8205 C 792.877 4.80629 3.36471 0
M  V30 8206 C 795.229 5.35715 3.36441 0
M  V30 8207 C 793.893 5.76002 3.37311 0
M  V30 8208 H 793.163 0.352016 0.652047 0
M  V30 8209 H 795.81 1.46249 1.23627 0
M  V30 8210 H 794.115 0.969432 3.79617 0
M  V30 8211 H 795.812 1.36004 3.77232 0
M  V30 8212 H 792.402 2.71836 3.31366 0
M  V30 8213 H 796.586 3.69906 3.30882 0
M  V30 8214 H 791.842 5.11155 3.35455 0
M  V30 8215 H 796.016 6.09886 3.36173 0
M  V30 8216 H 793.643 6.80919 3.38013 0
M  V30 8217 N 795.218 -1.23913 0.973828 0
M  V30 8218 C 796.15 -2.24397 0.466763 0
M  V30 8219 C 797.163 -1.57078 -0.427828 0
M  V30 8220 O 798.352 -1.76973 -0.233019 0
M  V30 8221 C 795.452 -3.37141 -0.344798 0
M  V30 8222 C 794.625 -4.34037 0.541349 0
M  V30 8223 C 793.684 -5.2576 -0.215243 0
M  V30 8224 O 792.71 -5.67842 0.39291 0
M  V30 8225 N 793.912 -5.60702 -1.5031 0
M  V30 8226 H 796.677 -2.68536 1.33074 0
M  V30 8227 H 794.238 -1.38017 0.846346 0
M  V30 8228 H 796.23 -3.95476 -0.859133 0
M  V30 8229 H 794.8 -2.92239 -1.10974 0
M  V30 8230 H 794.02 -3.74302 1.23659 0
M  V30 8231 H 795.308 -4.95738 1.1455 0
M  V30 8232 H 794.706 -5.28451 -2.01882 0
M  V30 8233 H 793.263 -6.21538 -1.96301 0
M  V30 8234 N 796.696 -0.74468 -1.38897 0
M  V30 8235 C 797.945 -0.293716 -1.9955 0
M  V30 8236 C 798.258 1.12831 -1.59777 0
M  V30 8237 O 799.464 1.67929 -2.13336 0
M  V30 8238 C 797.92 -0.474188 -3.56762 0
M  V30 8239 C 797.528 -1.90472 -4.05493 0
M  V30 8240 C 799.272 -0.0854875 -4.24414 0
M  V30 8241 C 797.179 -2.03423 -5.55314 0
M  V30 8242 H 796.109 -0.106066 -0.746502 0
M  V30 8243 H 798.76 -0.919948 -1.58774 0
M  V30 8244 H 797.142 0.221092 -3.95382 0
M  V30 8245 H 798.316 -2.63274 -3.78184 0
M  V30 8246 H 796.631 -2.24752 -3.50536 0
M  V30 8247 H 799.228 -0.161133 -5.34457 0
M  V30 8248 H 799.571 0.96066 -4.05064 0
M  V30 8249 H 800.104 -0.732286 -3.91002 0
M  V30 8250 H 796.843 -3.0626 -5.79556 0
M  V30 8251 H 796.363 -1.3507 -5.84394 0
M  V30 8252 H 798.042 -1.81996 -6.20876 0
M  V30 8253 N 798.174 1.49689 -0.493057 0
M  V30 8254 C 799.59 1.58907 -0.148526 0
M  V30 8255 C 799.79 1.4991 1.34645 0
M  V30 8256 O 798.846 1.36893 2.12171 0
M  V30 8257 C 800.159 2.91996 -0.718265 0
M  V30 8258 C 801.707 3.05443 -0.683658 0
M  V30 8259 C 802.182 4.41138 -1.23132 0
M  V30 8260 N 803.673 4.47608 -1.19167 0
M  V30 8261 C 804.408 5.51038 -1.5857 0
M  V30 8262 N 803.904 6.61612 -2.05528 0
M  V30 8263 N 805.697 5.41706 -1.50036 0
M  V30 8264 H 797.848 1.5378 -1.46511 0
M  V30 8265 H 800.111 0.727996 -0.607228 0
M  V30 8266 H 799.817 3.04123 -1.7664 0
M  V30 8267 H 799.691 3.76798 -0.17419 0
M  V30 8268 H 802.078 2.92949 0.355626 0
M  V30 8269 H 802.159 2.22344 -1.26479 0
M  V30 8270 H 801.803 4.54382 -2.26935 0
M  V30 8271 H 801.733 5.22864 -0.626201 0
M  V30 8272 H 804.224 3.68274 -0.847524 0
M  V30 8273 H 804.537 7.36622 -2.33685 0
M  V30 8274 H 802.882 6.62674 -2.09497 0
M  V30 8275 H 806.073 4.54212 -1.13176 0
M  V30 8276 H 806.246 6.22188 -1.81068 0
M  V30 8277 N 799.652 0.226554 1.55963 0
M  V30 8278 C 800.615 -0.668015 2.19249 0
M  V30 8279 C 801.615 -1.11794 1.1558 0
M  V30 8280 O 802.805 -1.02593 1.40784 0
M  V30 8281 C 799.937 -1.91571 2.81981 0
M  V30 8282 H 801.13 -0.116175 2.99675 0
M  V30 8283 H 798.683 -0.0230497 1.56283 0
M  V30 8284 H 799.418 -2.50929 2.05439 0
M  V30 8285 H 799.203 -1.6015 3.57903 0
M  V30 8286 H 800.693 -2.55294 3.30477 0
M  V30 8287 N 801.13 -1.57531 -0.0467866 0
M  V30 8288 C 802.546 -1.54451 -0.402107 0
M  V30 8289 C 802.746 -0.950275 -1.77685 0
M  V30 8290 O 801.802 -0.563602 -2.4613 0
M  V30 8291 C 803.115 -2.9899 -0.320212 0
M  V30 8292 C 804.663 -3.10452 -0.398588 0
M  V30 8293 C 805.138 -4.56689 -0.346335 0
M  V30 8294 N 806.629 -4.6142 -0.405666 0
M  V30 8295 C 807.364 -5.72087 -0.387845 0
M  V30 8296 N 806.86 -6.92045 -0.32336 0
M  V30 8297 N 808.653 -5.60404 -0.436263 0
M  V30 8298 H 800.804 -1.94515 0.853087 0
M  V30 8299 H 803.067 -0.891397 0.322669 0
M  V30 8300 H 802.773 -3.46124 0.623794 0
M  V30 8301 H 802.647 -3.60164 -1.1208 0
M  V30 8302 H 805.034 -2.63276 -1.33302 0
M  V30 8303 H 805.115 -2.52142 0.431026 0
M  V30 8304 H 804.759 -5.04527 0.584356 0
M  V30 8305 H 804.689 -5.12889 -1.19382 0
M  V30 8306 H 807.18 -3.75105 -0.458737 0
M  V30 8307 H 807.493 -7.7216 -0.314375 0
M  V30 8308 H 805.838 -6.94396 -0.28967 0
M  V30 8309 H 809.029 -4.65586 -0.48451 0
M  V30 8310 H 809.202 -6.46645 -0.418907 0
M  V30 8311 N 802.608 0.318715 -1.54344 0
M  V30 8312 C 803.836 1.0755 -1.7675 0
M  V30 8313 C 804.251 1.81543 -0.518422 0
M  V30 8314 O 803.608 1.75198 0.511078 0
M  V30 8315 C 803.659 2.06983 -2.96378 0
M  V30 8316 O 803.38 1.35995 -4.16458 0
M  V30 8317 C 804.881 2.94841 -3.31034 0
M  V30 8318 H 802.101 0.319711 -0.589937 0
M  V30 8319 H 804.645 0.363369 -2.01246 0
M  V30 8320 H 802.8 2.73724 -2.74142 0
M  V30 8321 H 803.214 2.02623 -4.83781 0
M  V30 8322 H 804.688 3.60496 -4.18027 0
M  V30 8323 H 805.165 3.62199 -2.48412 0
M  V30 8324 H 805.771 2.33656 -3.55366 0
M  V30 8325 N 804.086 1.46499 0.581025 0
M  V30 8326 C 805.049 1.5677 1.672 0
M  V30 8327 C 806.049 0.444716 1.54528 0
M  V30 8328 O 807.239 0.709074 1.59116 0
M  V30 8329 C 804.371 1.4896 3.06633 0
M  V30 8330 H 805.564 2.54 1.5945 0
M  V30 8331 H 803.117 1.34334 0.799003 0
M  V30 8332 H 803.852 0.530168 3.19937 0
M  V30 8333 H 803.637 2.30439 3.17239 0
M  V30 8334 H 805.127 1.59237 3.86048 0
M  V30 8335 N 805.565 -0.825799 1.34232 0
M  V30 8336 C 806.528 -1.91808 1.25468 0
M  V30 8337 C 807.528 -1.59893 0.170567 0
M  V30 8338 O 808.718 -1.68986 0.422996 0
M  V30 8339 C 805.85 -3.27786 0.93644 0
M  V30 8340 H 807.043 -2.01003 2.22571 0
M  V30 8341 H 804.596 -1.01944 1.18479 0
M  V30 8342 H 805.331 -3.24285 -0.0315408 0
M  V30 8343 H 805.116 -3.52333 1.72057 0
M  V30 8344 H 806.606 -4.07782 0.900214 0
M  V30 8345 N 807.043 -1.17915 -1.04565 0
M  V30 8346 C 808.291 -0.969505 -1.77327 0
M  V30 8347 C 808.612 0.502569 -1.88412 0
M  V30 8348 O 807.882 1.36467 -1.40547 0
M  V30 8349 H 806.462 -0.355723 -0.656864 0
M  V30 8350 H 809.124 -1.48506 -1.26223 0
M  V30 8351 H 808.22 -1.40324 -2.78775 0
M  V30 8352 N 808.521 1.23394 -0.980386 0
M  V30 8353 C 809.751 1.9556 -0.666319 0
M  V30 8354 C 810.159 1.72786 0.770815 0
M  V30 8355 O 809.502 1.0162 1.53033 0
M  V30 8356 C 809.564 3.48643 -0.876825 0
M  V30 8357 C 809.228 3.95135 -2.29602 0
M  V30 8358 C 810.225 4.03806 -3.2747 0
M  V30 8359 C 807.91 4.28122 -2.62711 0
M  V30 8360 C 809.904 4.44818 -4.56526 0
M  V30 8361 C 807.591 4.68814 -3.9199 0
M  V30 8362 C 808.589 4.77129 -4.88709 0
M  V30 8363 O 808.277 5.16908 -6.15679 0
M  V30 8364 H 808.009 0.629422 -0.246585 0
M  V30 8365 H 810.563 1.57839 -1.31438 0
M  V30 8366 H 808.793 3.86319 -0.171587 0
M  V30 8367 H 810.482 4.0202 -0.55992 0
M  V30 8368 H 811.248 3.78526 -3.03222 0
M  V30 8369 H 807.127 4.20861 -1.8814 0
M  V30 8370 H 810.671 4.51223 -5.32018 0
M  V30 8371 H 806.568 4.93545 -4.16033 0
M  V30 8372 H 807.336 5.3502 -6.19432 0
M  V30 8373 N 809.999 0.752036 1.385 0
M  V30 8374 C 811.247 0.306895 1.99756 0
M  V30 8375 C 811.568 -1.11478 1.59992 0
M  V30 8376 O 810.838 -1.76206 0.856045 0
M  V30 8377 H 809.418 0.11048 0.738785 0
M  V30 8378 H 812.08 0.965785 1.69289 0
M  V30 8379 H 811.176 0.368797 3.09913 0
M  V30 8380 N 811.477 -1.49425 0.500989 0
M  V30 8381 C 812.723 -2.02753 -0.0436 0
M  V30 8382 C 813.056 -1.37991 -1.36646 0
M  V30 8383 O 812.331 -0.515597 -1.87542 0
M  V30 8384 C 812.614 -3.59565 -0.19616 0
M  V30 8385 C 812.467 -4.34855 1.14982 0
M  V30 8386 C 813.786 -4.30014 -0.936795 0
M  V30 8387 H 810.905 -0.73686 -0.0143711 0
M  V30 8388 H 813.547 -1.78448 0.652397 0
M  V30 8389 H 811.697 -3.80405 -0.788959 0
M  V30 8390 H 813.369 -4.25512 1.7815 0
M  V30 8391 H 811.612 -3.97414 1.73911 0
M  V30 8392 H 812.283 -5.42933 0.996385 0
M  V30 8393 H 814.759 -4.1383 -0.434036 0
M  V30 8394 H 813.635 -5.39483 -1.01238 0
M  V30 8395 H 813.896 -3.95257 -1.9805 0
M  V30 8396 N 812.955 -0.234822 -1.55841 0
M  V30 8397 C 814.202 0.39326 -1.98645 0
M  V30 8398 C 814.53 1.58823 -1.12274 0
M  V30 8399 O 813.785 1.94954 -0.170731 0
M  V30 8400 C 814.084 0.858032 -3.46947 0
M  V30 8401 C 813.75 -0.227858 -4.50324 0
M  V30 8402 C 812.412 -0.526128 -4.78315 0
M  V30 8403 C 814.764 -0.961576 -5.12253 0
M  V30 8404 C 812.092 -1.5624 -5.65514 0
M  V30 8405 C 814.444 -1.98728 -6.00575 0
M  V30 8406 C 813.108 -2.29233 -6.26904 0
M  V30 8407 H 812.378 0.143904 -0.726892 0
M  V30 8408 H 815.025 -0.34012 -1.88455 0
M  V30 8409 H 813.33 1.67041 -3.54408 0
M  V30 8410 H 815.027 1.35407 -3.77447 0
M  V30 8411 H 811.617 0.0147624 -4.28597 0
M  V30 8412 H 815.801 -0.744388 -4.90686 0
M  V30 8413 H 811.057 -1.80422 -5.84173 0
M  V30 8414 H 815.231 -2.5608 -6.47608 0
M  V30 8415 H 812.858 -3.09671 -6.94268 0
M  V30 8416 N 814.433 1.57553 0.0384317 0
M  V30 8417 C 815.658 1.93485 0.746872 0
M  V30 8418 C 816.083 0.834069 1.68597 0
M  V30 8419 O 815.441 -0.210902 1.80069 0
M  V30 8420 C 815.489 3.28463 1.4881 0
M  V30 8421 O 814.593 3.20051 2.60079 0
M  V30 8422 H 813.934 0.632675 0.201539 0
M  V30 8423 H 816.464 2.046 -0.00329815 0
M  V30 8424 H 816.474 3.63132 1.86009 0
M  V30 8425 H 815.149 4.08147 0.799297 0
M  V30 8426 H 813.726 2.96998 2.25492 0
M  V30 8427 N 815.911 -0.310526 1.54511 0
M  V30 8428 C 817.327 -0.655637 1.45511 0
M  V30 8429 C 817.527 -1.91114 0.638564 0
M  V30 8430 O 816.583 -2.52098 0.142497 0
M  V30 8431 C 817.896 -0.817501 2.89374 0
M  V30 8432 C 819.444 -0.914003 2.99358 0
M  V30 8433 C 819.919 -1.10794 4.44397 0
M  V30 8434 N 821.41 -1.17437 4.48066 0
M  V30 8435 C 822.145 -1.34255 5.57461 0
M  V30 8436 N 821.641 -1.48032 6.768 0
M  V30 8437 N 823.434 -1.37067 5.45132 0
M  V30 8438 H 815.585 0.514506 2.06074 0
M  V30 8439 H 817.848 0.168478 0.932909 0
M  V30 8440 H 817.554 0.034003 3.51684 0
M  V30 8441 H 817.428 -1.7094 3.36243 0
M  V30 8442 H 819.815 -1.756 2.37168 0
M  V30 8443 H 819.896 0.00170958 2.558 0
M  V30 8444 H 819.54 -0.270743 5.07178 0
M  V30 8445 H 819.47 -2.03773 4.85576 0
M  V30 8446 H 821.961 -1.08181 3.62084 0
M  V30 8447 H 822.274 -1.60593 7.5593 0
M  V30 8448 H 820.619 -1.45105 6.79683 0
M  V30 8449 H 823.81 -1.25909 4.50849 0
M  V30 8450 H 823.983 -1.49831 6.3044 0
M  V30 8451 N 817.389 -1.46805 -0.573248 0
M  V30 8452 C 818.805 -1.31969 -0.897577 0
M  V30 8453 C 819.005 -0.298171 -1.99282 0
M  V30 8454 O 818.061 0.295953 -2.5076 0
M  V30 8455 C 819.374 -2.70859 -1.30598 0
M  V30 8456 C 820.922 -2.79022 -1.4183 0
M  V30 8457 C 821.397 -4.18516 -1.86033 0
M  V30 8458 N 822.888 -4.2098 -1.9321 0
M  V30 8459 C 823.623 -5.25814 -2.28707 0
M  V30 8460 N 823.119 -6.40968 -2.6293 0
M  V30 8461 N 824.912 -5.13184 -2.29343 0
M  V30 8462 H 817.063 -2.11869 0.150094 0
M  V30 8463 H 819.326 -0.947989 0.00447895 0
M  V30 8464 H 819.032 -3.46965 -0.575161 0
M  V30 8465 H 818.906 -3.01585 -2.26554 0
M  V30 8466 H 821.293 -2.03198 -2.13996 0
M  V30 8467 H 821.374 -2.51969 -0.441024 0
M  V30 8468 H 821.018 -4.94839 -1.14442 0
M  V30 8469 H 820.948 -4.42982 -2.84735 0
M  V30 8470 H 823.439 -3.37898 -1.69214 0
M  V30 8471 H 823.752 -7.16729 -2.88996 0
M  V30 8472 H 822.097 -6.44314 -2.60547 0
M  V30 8473 H 825.288 -4.22255 -2.02036 0
M  V30 8474 H 825.461 -5.94996 -2.56679 0
M  V30 8475 N 818.867 0.818669 -1.34668 0
M  V30 8476 C 820.114 1.57512 -1.27264 0
M  V30 8477 C 820.442 1.93871 0.156254 0
M  V30 8478 O 819.697 1.60582 1.11857 0
M  V30 8479 C 819.996 2.88245 -2.11304 0
M  V30 8480 C 819.662 2.71159 -3.60255 0
M  V30 8481 C 818.324 2.66207 -4.00858 0
M  V30 8482 C 820.676 2.54538 -4.54819 0
M  V30 8483 C 818.004 2.4256 -5.34211 0
M  V30 8484 C 820.356 2.32421 -5.88356 0
M  V30 8485 C 819.02 2.25884 -6.28118 0
M  V30 8486 H 818.29 0.576378 -0.465692 0
M  V30 8487 H 820.937 0.9469 -1.66451 0
M  V30 8488 H 819.242 3.55381 -1.64958 0
M  V30 8489 H 820.939 3.45869 -2.02919 0
M  V30 8490 H 817.529 2.75856 -3.28027 0
M  V30 8491 H 821.713 2.57384 -4.24343 0
M  V30 8492 H 816.969 2.35959 -5.64033 0
M  V30 8493 H 821.143 2.18548 -6.61218 0
M  V30 8494 H 818.77 2.07322 -7.31383 0
M  V30 8495 N 820.346 1.18468 1.03938 0
M  V30 8496 C 821.256 0.927889 2.1547 0
M  V30 8497 C 822.272 -0.108447 1.73662 0
M  V30 8498 O 823.448 0.0737636 2.01265 0
M  V30 8499 C 820.513 0.458494 3.43655 0
M  V30 8500 C 819.574 1.56295 3.99838 0
M  V30 8501 C 818.807 1.11586 5.21904 0
M  V30 8502 O 819.03 -0.0249057 5.70395 0
M  V30 8503 O 817.964 1.91412 5.70653 0
M  V30 8504 H 821.79 1.86116 2.39989 0
M  V30 8505 H 819.375 0.966607 1.13917 0
M  V30 8506 H 821.257 0.204861 4.20902 0
M  V30 8507 H 819.932 -0.446464 3.20606 0
M  V30 8508 H 818.839 1.87061 3.23974 0
M  V30 8509 H 820.172 2.44408 4.2723 0
M  V30 8510 N 821.824 -1.22873 0.986916 0
M  V30 8511 C 823.071 -1.91462 0.659424 0
M  V30 8512 C 823.399 -1.76931 -0.807825 0
M  V30 8513 O 822.654 -1.12829 -1.59901 0
M  V30 8514 C 822.953 -3.43014 1.00379 0
M  V30 8515 C 822.619 -3.77731 2.46232 0
M  V30 8516 C 821.281 -3.86918 2.86091 0
M  V30 8517 C 823.633 -3.94343 3.40798 0
M  V30 8518 C 820.961 -4.10149 4.19518 0
M  V30 8519 C 823.313 -4.19076 4.73875 0
M  V30 8520 C 821.977 -4.26486 5.13484 0
M  V30 8521 H 821.247 -0.700611 0.2413 0
M  V30 8522 H 823.894 -1.45763 1.24199 0
M  V30 8523 H 822.199 -3.90329 0.339226 0
M  V30 8524 H 823.896 -3.94327 0.728518 0
M  V30 8525 H 820.486 -3.71159 2.14334 0
M  V30 8526 H 824.67 -3.86629 3.11178 0
M  V30 8527 H 819.926 -4.1411 4.49803 0
M  V30 8528 H 824.1 -4.30873 5.47102 0
M  V30 8529 H 821.727 -4.4424 6.16891 0
M  V30 8530 N 823.302 -0.75937 -1.38099 0
M  V30 8531 C 824.212 -0.13774 -2.34195 0
M  V30 8532 C 825.228 0.693985 -1.59561 0
M  V30 8533 O 826.404 0.616792 -1.91723 0
M  V30 8534 C 823.469 0.740535 -3.38699 0
M  V30 8535 C 822.53 -0.106225 -4.29169 0
M  V30 8536 C 821.763 0.730225 -5.28681 0
M  V30 8537 O 821.986 1.96796 -5.35376 0
M  V30 8538 O 820.92 0.145969 -6.01723 0
M  V30 8539 H 824.746 -0.931512 -2.89061 0
M  V30 8540 H 822.331 -0.520345 -1.40046 0
M  V30 8541 H 824.213 1.24232 -4.02672 0
M  V30 8542 H 822.888 1.51271 -2.8618 0
M  V30 8543 H 821.795 -0.654088 -3.68337 0
M  V30 8544 H 823.128 -0.841186 -4.84959 0
M  V30 8545 N 824.78 1.49157 -0.508906 0
M  V30 8546 C 826.008 2.06879 0.0293734 0
M  V30 8547 C 826.423 1.36823 1.30095 0
M  V30 8548 O 825.78 0.449034 1.7689 0
M  V30 8549 C 825.831 3.60423 0.278791 0
M  V30 8550 O 825.552 4.27844 -0.942389 0
M  V30 8551 C 827.053 4.34881 0.859825 0
M  V30 8552 H 824.273 0.67057 -0.0240184 0
M  V30 8553 H 826.817 1.91834 -0.708526 0
M  V30 8554 H 824.972 3.75145 0.966689 0
M  V30 8555 H 825.386 5.19671 -0.710097 0
M  V30 8556 H 826.86 5.43161 0.983884 0
M  V30 8557 H 827.337 3.9789 1.85958 0
M  V30 8558 H 827.943 4.24785 0.209152 0
M  V30 8559 N 826.258 0.243083 1.55714 0
M  V30 8560 C 827.486 -0.386971 2.03249 0
M  V30 8561 C 827.901 -1.51812 1.12243 0
M  V30 8562 O 827.258 -1.81992 0.136119 0
M  V30 8563 C 827.309 -0.898361 3.5016 0
M  V30 8564 O 827.03 0.187708 4.37698 0
M  V30 8565 C 828.531 -1.59949 4.13438 0
M  V30 8566 H 825.751 -0.0923981 0.664608 0
M  V30 8567 H 828.295 0.365832 2.01201 0
M  V30 8568 H 826.45 -1.60136 3.52754 0
M  V30 8569 H 826.864 -0.200001 5.24119 0
M  V30 8570 H 828.338 -1.90907 5.17937 0
M  V30 8571 H 828.815 -2.52014 3.59702 0
M  V30 8572 H 829.421 -0.941163 4.14756 0
M  V30 8573 N 827.736 -1.57571 -0.0300757 0
M  V30 8574 C 829.147 -1.77567 -0.576802 0
M  V30 8575 C 829.498 -0.874034 -1.75656 0
M  V30 8576 O 828.623 -0.0686124 -2.16291 0
M  V30 8577 C 829.218 -3.22016 -1.05315 0
M  V30 8578 C 827.777 -3.43212 -1.5454 0
M  V30 8579 C 826.924 -2.73061 -0.483033 0
M  V30 8580 H 829.875 -1.57483 0.196151 0
M  V30 8581 H 829.896 -3.28474 -1.92055 0
M  V30 8582 H 829.408 -3.87613 -0.194298 0
M  V30 8583 H 827.509 -2.82788 -2.42615 0
M  V30 8584 H 827.622 -4.5182 -1.5936 0
M  V30 8585 H 825.986 -2.36805 -0.937835 0
M  V30 8586 H 826.769 -3.4134 0.366341 0
M  V30 8587 N 829.214 0.302327 -1.54673 0
M  V30 8588 C 830.46 1.03924 -1.74149 0
M  V30 8589 C 830.793 1.86968 -0.525041 0
M  V30 8590 O 830.068 1.88538 0.477868 0
M  V30 8591 C 830.351 1.94633 -3.02969 0
M  V30 8592 C 830.204 1.14778 -4.34909 0
M  V30 8593 C 831.523 2.93826 -3.27649 0
M  V30 8594 H 828.642 0.376405 -0.633631 0
M  V30 8595 H 831.284 0.314007 -1.87387 0
M  V30 8596 H 829.434 2.56471 -2.91813 0
M  V30 8597 H 831.106 0.552363 -4.57981 0
M  V30 8598 H 829.349 0.450462 -4.31455 0
M  V30 8599 H 830.02 1.81495 -5.21309 0
M  V30 8600 H 832.496 2.42117 -3.38406 0
M  V30 8601 H 831.372 3.54462 -4.19104 0
M  V30 8602 H 831.633 3.67416 -2.45882 0
M  V30 8603 N 830.692 1.47107 0.565454 0
M  V30 8604 C 831.939 1.53308 1.32299 0
M  V30 8605 C 832.267 0.1919 1.93551 0
M  V30 8606 O 831.522 -0.81435 1.77952 0
M  V30 8607 C 831.821 2.59309 2.45954 0
M  V30 8608 C 831.487 4.02827 2.02586 0
M  V30 8609 C 830.149 4.41897 1.90474 0
M  V30 8610 C 832.501 4.92913 1.6937 0
M  V30 8611 C 829.829 5.68898 1.4343 0
M  V30 8612 C 832.181 6.20368 1.238 0
M  V30 8613 C 830.845 6.58327 1.10278 0
M  V30 8614 H 830.115 0.560993 0.484116 0
M  V30 8615 H 832.762 1.80667 0.634965 0
M  V30 8616 H 831.067 2.25676 3.20277 0
M  V30 8617 H 832.764 2.61332 3.04149 0
M  V30 8618 H 829.354 3.71953 2.12952 0
M  V30 8619 H 833.538 4.63433 1.77605 0
M  V30 8620 H 828.794 5.97065 1.31618 0
M  V30 8621 H 832.968 6.89589 0.971586 0
M  V30 8622 H 830.595 7.56628 0.736027 0
M  V30 8623 N 832.17 -0.811516 1.35101 0
M  V30 8624 C 833.133 -1.90467 1.27495 0
M  V30 8625 C 834.133 -1.59703 0.187516 0
M  V30 8626 O 835.323 -1.68528 0.440896 0
M  V30 8627 C 832.455 -3.26774 0.971154 0
M  V30 8628 H 833.648 -1.98631 2.2469 0
M  V30 8629 H 831.201 -1.00681 1.19553 0
M  V30 8630 H 831.936 -3.243 0.0028557 0
M  V30 8631 H 831.721 -3.50488 1.75785 0
M  V30 8632 H 833.211 -4.06804 0.943414 0
M  V30 8633 N 833.648 -1.19017 -1.03309 0
M  V30 8634 C 834.611 -0.926076 -2.09658 0
M  V30 8635 C 835.611 0.0917077 -1.60538 0
M  V30 8636 O 836.801 -0.142574 -1.73616 0
M  V30 8637 C 833.933 -0.390958 -3.38651 0
M  V30 8638 H 835.126 -1.86923 -2.3452 0
M  V30 8639 H 832.679 -1.00325 -1.19853 0
M  V30 8640 H 833.414 0.558446 -3.19456 0
M  V30 8641 H 833.199 -1.12474 -3.75622 0
M  V30 8642 H 834.689 -0.225131 -4.16993 0
M  V30 8643 N 835.127 1.22348 -0.993418 0
M  V30 8644 C 836.352 1.95666 -0.687727 0
M  V30 8645 C 836.777 1.72883 0.741161 0
M  V30 8646 O 836.135 1.00837 1.50671 0
M  V30 8647 C 836.183 3.46457 -0.99998 0
M  V30 8648 O 835.287 4.12281 -0.0989386 0
M  V30 8649 H 834.628 0.612102 -0.257346 0
M  V30 8650 H 837.158 1.55428 -1.33054 0
M  V30 8651 H 837.168 3.96976 -0.942035 0
M  V30 8652 H 835.843 3.62365 -2.04118 0
M  V30 8653 H 834.42 3.72295 -0.212413 0
M  V30 8654 N 836.605 0.766683 1.37694 0
M  V30 8655 C 837.83 0.338715 2.04615 0
M  V30 8656 C 838.255 -1.02918 1.57447 0
M  V30 8657 O 837.613 -1.65849 0.732386 0
M  V30 8658 C 837.661 0.385284 3.58536 0
M  V30 8659 O 836.765 -0.616081 4.07772 0
M  V30 8660 H 836.106 0.147527 0.647404 0
M  V30 8661 H 838.636 1.04146 1.7611 0
M  V30 8662 H 838.646 0.240782 4.07289 0
M  V30 8663 H 837.321 1.38325 3.92223 0
M  V30 8664 H 835.898 -0.435115 3.70353 0
M  V30 8665 N 838.083 -1.48885 0.516809 0
M  V30 8666 C 839.36 -1.95412 -0.0858293 0
M  V30 8667 C 839.74 -1.45875 -1.5259 0
M  V30 8668 O 839.088 -0.679415 -2.18166 0
M  V30 8669 C 839.298 -3.48995 0.0178194 0
M  V30 8670 C 840.646 -4.24342 -0.14813 0
M  V30 8671 O 841.67 -3.56155 -0.0566125 0
M  V30 8672 O 840.529 -5.45454 -0.338035 0
M  V30 8673 H 837.623 -0.822455 -0.0865884 0
M  V30 8674 H 840.169 -1.59464 0.580472 0
M  V30 8675 H 838.941 -3.77732 1.02147 0
M  V30 8676 H 838.564 -3.91604 -0.687924 0
M  V30 8677 N 839.561 -0.251338 -1.55583 0
M  V30 8678 C 840.493 0.679167 -2.18906 0
M  V30 8679 C 841.506 1.13545 -1.16667 0
M  V30 8680 O 842.695 1.06146 -1.4351 0
M  V30 8681 C 839.795 1.93544 -2.78198 0
M  V30 8682 C 838.968 1.62987 -4.05899 0
M  V30 8683 C 838.027 2.73618 -4.49466 0
M  V30 8684 O 837.053 2.40815 -5.15749 0
M  V30 8685 N 838.255 4.03204 -4.1762 0
M  V30 8686 H 841.02 0.137328 -2.99385 0
M  V30 8687 H 838.581 -0.0714754 -1.61742 0
M  V30 8688 H 840.573 2.66804 -3.04299 0
M  V30 8689 H 839.143 2.38695 -2.0185 0
M  V30 8690 H 838.363 0.732237 -3.8734 0
M  V30 8691 H 839.651 1.40041 -4.89148 0
M  V30 8692 H 839.049 4.32686 -3.64416 0
M  V30 8693 H 837.606 4.72916 -4.48547 0
M  V30 8694 N 841.039 1.57585 0.0217189 0
M  V30 8695 C 842.264 1.94267 0.726309 0
M  V30 8696 C 842.689 0.851904 1.67703 0
M  V30 8697 O 842.047 -0.191792 1.80283 0
M  V30 8698 C 842.095 3.30023 1.45318 0
M  V30 8699 O 841.199 3.22791 2.5667 0
M  V30 8700 H 840.54 0.634777 0.194818 0
M  V30 8701 H 843.07 2.04585 -0.0249985 0
M  V30 8702 H 843.08 3.65084 1.82147 0
M  V30 8703 H 841.755 4.08972 0.755962 0
M  V30 8704 H 840.332 2.99373 2.2233 0
M  V30 8705 N 842.517 -0.29412 1.54831 0
M  V30 8706 C 843.449 -1.38476 1.82639 0
M  V30 8707 C 844.462 -1.46517 0.709694 0
M  V30 8708 O 845.651 -1.48712 0.987269 0
M  V30 8709 C 842.751 -2.76791 1.95551 0
M  V30 8710 C 841.924 -2.91599 3.26019 0
M  V30 8711 C 840.983 -4.10456 3.29261 0
M  V30 8712 O 840.009 -4.02214 4.02756 0
M  V30 8713 N 841.211 -5.21422 2.55145 0
M  V30 8714 H 843.976 -1.14974 2.76769 0
M  V30 8715 H 841.537 -0.484206 1.5449 0
M  V30 8716 H 843.529 -3.5456 1.95113 0
M  V30 8717 H 842.099 -2.93209 1.08384 0
M  V30 8718 H 841.319 -2.00886 3.39173 0
M  V30 8719 H 842.607 -2.98409 4.12104 0
M  V30 8720 H 842.005 -5.31 1.95078 0
M  V30 8721 H 840.562 -5.97501 2.60454 0
M  V30 8722 N 843.995 -1.47404 -0.557645 0
M  V30 8723 C 845.244 -1.53268 -1.31118 0
M  V30 8724 C 845.557 -0.199414 -1.94581 0
M  V30 8725 O 846.763 -0.136039 -2.71159 0
M  V30 8726 C 845.219 -2.70178 -2.37764 0
M  V30 8727 C 844.827 -4.10032 -1.80493 0
M  V30 8728 C 846.571 -2.85334 -3.14301 0
M  V30 8729 C 844.478 -5.18244 -2.84916 0
M  V30 8730 H 843.408 -0.570491 -0.493007 0
M  V30 8731 H 846.059 -1.73678 -0.592308 0
M  V30 8732 H 844.441 -2.43147 -3.12563 0
M  V30 8733 H 845.615 -4.46964 -1.12069 0
M  V30 8734 H 843.93 -3.99759 -1.16542 0
M  V30 8735 H 846.527 -3.63347 -3.92279 0
M  V30 8736 H 846.87 -1.93761 -3.68459 0
M  V30 8737 H 847.403 -3.12133 -2.46613 0
M  V30 8738 H 844.142 -6.11691 -2.35614 0
M  V30 8739 H 843.662 -4.85829 -3.51753 0
M  V30 8740 H 845.341 -5.45174 -3.48417 0
M  V30 8741 N 845.473 0.80434 -1.35529 0
M  V30 8742 C 846.884 1.37849 -1.25915 0
M  V30 8743 C 847.235 1.95905 0.107495 0
M  V30 8744 O 846.36 1.91462 1.00852 0
M  V30 8745 C 846.955 2.50608 -2.27994 0
M  V30 8746 C 845.514 3.03879 -2.22114 0
M  V30 8747 C 844.661 1.76856 -2.13582 0
M  V30 8748 H 847.612 0.607192 -1.46625 0
M  V30 8749 H 847.633 3.29221 -1.90772 0
M  V30 8750 H 847.145 2.08323 -3.27449 0
M  V30 8751 H 845.246 3.50622 -1.26077 0
M  V30 8752 H 845.359 3.61707 -3.14173 0
M  V30 8753 H 843.723 1.98498 -1.59595 0
M  V30 8754 H 844.506 1.36721 -3.14901 0
M  V30 8755 N 846.951 1.19563 1.02676 0
M  V30 8756 C 848.197 1.00105 1.76371 0
M  V30 8757 C 848.53 -0.466823 1.88506 0
M  V30 8758 O 847.805 -1.34665 1.40341 0
M  V30 8759 C 848.088 1.67321 3.18866 0
M  V30 8760 C 847.941 3.21486 3.1459 0
M  V30 8761 C 849.26 1.39794 4.17308 0
M  V30 8762 H 846.379 0.365075 0.640226 0
M  V30 8763 H 849.021 1.47433 1.19848 0
M  V30 8764 H 847.171 1.27081 3.67128 0
M  V30 8765 H 848.843 3.70953 2.7421 0
M  V30 8766 H 847.086 3.5292 2.52249 0
M  V30 8767 H 847.757 3.63665 4.15273 0
M  V30 8768 H 850.233 1.74685 3.77657 0
M  V30 8769 H 849.109 1.89371 5.15199 0
M  V30 8770 H 849.37 0.323505 4.40915 0
M  V30 8771 N 848.429 -1.21819 0.999893 0
M  V30 8772 C 849.678 -1.90066 0.675108 0
M  V30 8773 C 849.991 -1.78624 -0.79705 0
M  V30 8774 O 851.197 -2.41851 -1.23371 0
M  V30 8775 C 849.653 -3.40795 1.15702 0
M  V30 8776 C 849.261 -3.60859 2.6549 0
M  V30 8777 C 851.005 -4.147 0.906889 0
M  V30 8778 C 848.912 -5.05324 3.07248 0
M  V30 8779 H 847.842 -0.711763 0.248815 0
M  V30 8780 H 850.493 -1.3792 1.21038 0
M  V30 8781 H 848.875 -3.92164 0.549832 0
M  V30 8782 H 850.049 -3.19951 3.31614 0
M  V30 8783 H 848.364 -3.00298 2.88461 0
M  V30 8784 H 850.961 -5.21187 1.1945 0
M  V30 8785 H 851.304 -4.16004 -0.156923 0
M  V30 8786 H 851.837 -3.69379 1.47662 0
M  V30 8787 H 848.576 -5.09164 4.12834 0
M  V30 8788 H 848.096 -5.47108 2.45832 0
M  V30 8789 H 849.775 -5.73797 2.98941 0
M  V30 8790 N 849.908 -0.773975 -1.37286 0
M  V30 8791 C 850.871 -0.167974 -2.28584 0
M  V30 8792 C 851.871 0.625662 -1.48129 0
M  V30 8793 O 853.061 0.448924 -1.68316 0
M  V30 8794 C 850.193 0.769364 -3.32105 0
M  V30 8795 H 851.386 -0.972806 -2.83684 0
M  V30 8796 H 848.939 -0.542335 -1.46589 0
M  V30 8797 H 849.674 1.59912 -2.82132 0
M  V30 8798 H 849.459 0.202419 -3.91577 0
M  V30 8799 H 850.949 1.18872 -4.00324 0
M  V30 8800 N 851.386 1.48609 -0.524698 0
M  V30 8801 C 852.632 2.02797 0.0113382 0
M  V30 8802 C 852.965 1.40147 1.34433 0
M  V30 8803 O 852.24 0.545368 1.86698 0
M  V30 8804 C 852.523 3.59832 0.138931 0
M  V30 8805 C 852.376 4.32971 -1.21886 0
M  V30 8806 C 853.695 4.3145 0.868265 0
M  V30 8807 H 850.814 0.736995 0.00264645 0
M  V30 8808 H 853.456 1.77388 -0.680704 0
M  V30 8809 H 851.606 3.81612 0.72834 0
M  V30 8810 H 853.278 4.22624 -1.84897 0
M  V30 8811 H 851.521 3.94597 -1.80211 0
M  V30 8812 H 852.192 5.41279 -1.08263 0
M  V30 8813 H 854.668 4.14468 0.368145 0
M  V30 8814 H 853.544 5.41025 0.926428 0
M  V30 8815 H 853.805 3.98358 1.91737 0
M  V30 8816 N 852.864 0.259585 1.55447 0
M  V30 8817 C 854.089 -0.368317 2.04103 0
M  V30 8818 C 854.514 -1.49827 1.13725 0
M  V30 8819 O 853.872 -1.80814 0.132705 0
M  V30 8820 C 853.92 -0.841506 3.50644 0
M  V30 8821 O 853.024 -1.95008 3.63381 0
M  V30 8822 H 852.365 -0.0785227 0.659341 0
M  V30 8823 H 854.895 0.389349 2.00861 0
M  V30 8824 H 854.905 -1.14138 3.9171 0
M  V30 8825 H 853.58 -0.0147001 4.15897 0
M  V30 8826 H 852.157 -1.65393 3.34215 0
M  V30 8827 N 854.342 -1.57594 -0.0133615 0
M  V30 8828 C 855.588 -1.90262 -0.702019 0
M  V30 8829 C 855.921 -0.859219 -1.74158 0
M  V30 8830 O 855.196 0.123778 -1.94106 0
M  V30 8831 C 855.479 -3.3354 -1.35732 0
M  V30 8832 C 855.332 -4.48586 -0.330208 0
M  V30 8833 C 856.651 -3.76004 -2.28712 0
M  V30 8834 H 853.77 -0.691943 -0.253739 0
M  V30 8835 H 856.412 -1.89967 0.0351894 0
M  V30 8836 H 854.562 -3.33921 -1.98567 0
M  V30 8837 H 856.234 -4.6034 0.297433 0
M  V30 8838 H 854.477 -4.32394 0.348926 0
M  V30 8839 H 855.148 -5.45762 -0.827508 0
M  V30 8840 H 857.624 -3.77089 -1.75906 0
M  V30 8841 H 856.5 -4.77032 -2.71535 0
M  V30 8842 H 856.761 -3.09129 -3.16056 0
M  V30 8843 N 855.82 0.285905 -1.54985 0
M  V30 8844 C 857.048 1.03776 -1.78992 0
M  V30 8845 C 857.463 1.80402 -0.556814 0
M  V30 8846 O 856.82 1.76242 0.473801 0
M  V30 8847 C 856.871 2.0065 -3.00702 0
M  V30 8848 O 856.592 1.27131 -4.19249 0
M  V30 8849 C 858.093 2.87753 -3.37214 0
M  V30 8850 H 855.313 0.307126 -0.596586 0
M  V30 8851 H 857.857 0.3206 -2.01971 0
M  V30 8852 H 856.012 2.67847 -2.79887 0
M  V30 8853 H 856.426 1.92316 -4.8797 0
M  V30 8854 H 857.9 3.51548 -4.2558 0
M  V30 8855 H 858.377 3.56848 -2.56039 0
M  V30 8856 H 858.983 2.26065 -3.60242 0
M  V30 8857 N 857.298 1.47698 0.54982 0
M  V30 8858 C 858.544 1.54931 1.30859 0
M  V30 8859 C 858.877 0.214021 1.93017 0
M  V30 8860 O 858.152 -0.778093 1.78258 0
M  V30 8861 C 858.435 2.67286 2.41309 0
M  V30 8862 C 858.288 4.10457 1.83971 0
M  V30 8863 C 859.607 2.75509 3.43195 0
M  V30 8864 H 856.726 0.56399 0.474431 0
M  V30 8865 H 859.368 1.79787 0.614541 0
M  V30 8866 H 857.518 2.46224 3.0051 0
M  V30 8867 H 859.19 4.42903 1.28974 0
M  V30 8868 H 857.433 4.18387 1.14606 0
M  V30 8869 H 858.104 4.84857 2.63851 0
M  V30 8870 H 860.58 2.94531 2.93923 0
M  V30 8871 H 859.456 3.55886 4.17895 0
M  V30 8872 H 859.717 1.82863 4.02509 0
M  V30 8873 N 858.776 -0.797141 1.35954 0
M  V30 8874 C 860.024 -1.55161 1.29497 0
M  V30 8875 C 860.345 -1.94582 -0.127659 0
M  V30 8876 O 859.615 -1.64343 -1.06622 0
M  V30 8877 H 858.195 -0.575413 0.47635 0
M  V30 8878 H 860.857 -0.950282 1.70164 0
M  V30 8879 H 859.953 -2.46272 1.9172 0
M  V30 8880 N 860.254 -1.20106 -1.0204 0
M  V30 8881 C 861.5 -1.01039 -1.75838 0
M  V30 8882 C 861.833 0.456819 -1.88751 0
M  V30 8883 O 861.108 1.33919 -1.41053 0
M  V30 8884 C 861.391 -1.69009 -3.17975 0
M  V30 8885 C 861.244 -3.2315 -3.1288 0
M  V30 8886 C 862.563 -1.42005 -4.16561 0
M  V30 8887 H 859.682 -0.368465 -0.638281 0
M  V30 8888 H 862.324 -1.48066 -1.19064 0
M  V30 8889 H 860.474 -1.29026 -3.66449 0
M  V30 8890 H 862.146 -3.72402 -2.72239 0
M  V30 8891 H 860.389 -3.54253 -2.50374 0
M  V30 8892 H 861.06 -3.65862 -4.13339 0
M  V30 8893 H 863.536 -1.76685 -3.76725 0
M  V30 8894 H 862.412 -1.92101 -5.14187 0
M  V30 8895 H 862.673 -0.346884 -4.40737 0
M  V30 8896 N 861.732 1.21287 -1.00634 0
M  V30 8897 C 862.981 1.89706 -0.685178 0
M  V30 8898 C 863.294 1.79044 0.787566 0
M  V30 8899 O 864.5 2.42502 1.22086 0
M  V30 8900 C 862.956 3.40176 -1.17508 0
M  V30 8901 C 862.564 3.59446 -2.674 0
M  V30 8902 C 864.308 4.14213 -0.928869 0
M  V30 8903 C 862.215 5.03688 -3.09923 0
M  V30 8904 H 861.145 0.710434 -0.252586 0
M  V30 8905 H 863.796 1.37277 -1.21768 0
M  V30 8906 H 862.178 3.91867 -0.570622 0
M  V30 8907 H 863.352 3.18188 -3.33306 0
M  V30 8908 H 861.667 2.98764 -2.9005 0
M  V30 8909 H 864.264 5.20546 -1.22212 0
M  V30 8910 H 864.607 4.16082 0.134859 0
M  V30 8911 H 865.14 3.68591 -1.49619 0
M  V30 8912 H 861.879 5.06968 -4.15529 0
M  V30 8913 H 861.399 5.45796 -2.4873 0
M  V30 8914 H 863.078 5.72204 -3.0198 0
M  V30 8915 N 863.21 0.781244 1.36873 0
M  V30 8916 C 864.14 0.188128 2.32741 0
M  V30 8917 C 865.121 -0.672326 1.56249 0
M  V30 8918 O 866.306 -0.607835 1.84442 0
M  V30 8919 C 863.436 -0.684341 3.40491 0
M  V30 8920 C 862.39 0.0755641 4.27933 0
M  V30 8921 C 861.716 -0.916968 5.26779 0
M  V30 8922 C 863.016 1.26006 5.06873 0
M  V30 8923 H 864.71 0.989016 2.82593 0
M  V30 8924 H 862.256 0.477038 1.35869 0
M  V30 8925 H 864.209 -1.10915 4.06541 0
M  V30 8926 H 862.933 -1.51785 2.89187 0
M  V30 8927 H 861.592 0.481258 3.63427 0
M  V30 8928 H 861.24 -1.74528 4.71751 0
M  V30 8929 H 860.94 -0.413 5.86147 0
M  V30 8930 H 862.464 -1.34052 5.95703 0
M  V30 8931 H 863.878 0.911425 5.66009 0
M  V30 8932 H 862.275 1.69676 5.75613 0
M  V30 8933 H 863.345 2.05948 4.38991 0
M  V30 8934 N 864.689 -1.48329 0.532571 0
M  V30 8935 C 865.619 -2.32485 -0.217511 0
M  V30 8936 C 866.6 -1.42255 -0.932598 0
M  V30 8937 O 867.785 -1.7114 -0.917873 0
M  V30 8938 C 864.915 -3.23509 -1.26329 0
M  V30 8939 C 863.869 -4.22784 -0.666191 0
M  V30 8940 C 863.195 -5.0296 -1.81482 0
M  V30 8941 C 864.495 -5.21031 0.363813 0
M  V30 8942 H 866.189 -2.95445 0.485014 0
M  V30 8943 H 863.735 -1.42075 0.234694 0
M  V30 8944 H 865.688 -3.81211 -1.79601 0
M  V30 8945 H 864.412 -2.58554 -1.99543 0
M  V30 8946 H 863.071 -3.66272 -0.15498 0
M  V30 8947 H 862.719 -4.34427 -2.5354 0
M  V30 8948 H 862.419 -5.70154 -1.4212 0
M  V30 8949 H 863.943 -5.63514 -2.35126 0
M  V30 8950 H 865.357 -5.73241 -0.0819079 0
M  V30 8951 H 863.754 -5.96292 0.674956 0
M  V30 8952 H 864.824 -4.6801 1.26865 0
M  V30 8953 N 866.167 -0.267825 -1.55308 0
M  V30 8954 C 867.13 0.60965 -2.20943 0
M  V30 8955 C 868.13 1.0869 -1.18504 0
M  V30 8956 O 869.32 0.988248 -1.43455 0
M  V30 8957 C 866.452 1.84027 -2.86961 0
M  V30 8958 H 867.645 0.0366806 -2.99878 0
M  V30 8959 H 865.198 -0.0183941 -1.56289 0
M  V30 8960 H 865.933 2.45394 -2.1202 0
M  V30 8961 H 865.718 1.50605 -3.62023 0
M  V30 8962 H 867.208 2.46442 -3.37129 0
M  V30 8963 N 867.645 1.57599 0.00500368 0
M  V30 8964 C 868.891 1.90631 0.691919 0
M  V30 8965 C 869.224 0.868443 1.737 0
M  V30 8966 O 868.499 -0.113482 1.94169 0
M  V30 8967 C 868.782 3.34255 1.33961 0
M  V30 8968 C 868.635 4.48755 0.306413 0
M  V30 8969 C 869.954 3.77211 2.26715 0
M  V30 8970 H 867.073 0.693279 0.250066 0
M  V30 8971 H 869.715 1.89946 -0.0452634 0
M  V30 8972 H 867.865 3.3497 1.96793 0
M  V30 8973 H 869.537 4.60176 -0.321841 0
M  V30 8974 H 867.78 4.32203 -0.371852 0
M  V30 8975 H 868.451 5.46193 0.798554 0
M  V30 8976 H 870.927 3.78017 1.73904 0
M  V30 8977 H 869.803 4.78466 2.69002 0
M  V30 8978 H 870.064 3.10801 3.14413 0
M  V30 8979 N 869.123 -0.277682 1.55134 0
M  V30 8980 C 870.369 -1.0114 1.7578 0
M  V30 8981 C 870.702 -1.86109 0.554719 0
M  V30 8982 O 869.977 -1.89275 -0.447813 0
M  V30 8983 C 870.26 -1.89789 3.06027 0
M  V30 8984 C 870.113 -1.07844 4.3668 0
M  V30 8985 C 871.432 -2.88577 3.32282 0
M  V30 8986 H 868.551 -0.366277 0.639539 0
M  V30 8987 H 871.193 -0.284155 1.87863 0
M  V30 8988 H 869.343 -2.51796 2.95856 0
M  V30 8989 H 871.015 -0.479432 4.58802 0
M  V30 8990 H 869.258 -0.381764 4.32117 0
M  V30 8991 H 869.929 -1.73179 5.24131 0
M  V30 8992 H 872.405 -2.36702 3.42215 0
M  V30 8993 H 871.281 -3.47749 4.2469 0
M  V30 8994 H 871.542 -3.63458 2.51696 0
M  V30 8995 N 870.601 -1.47988 -0.541979 0
M  V30 8996 C 871.85 -1.5465 -1.29485 0
M  V30 8997 C 872.163 -0.220041 -1.94358 0
M  V30 8998 O 873.369 -0.164792 -2.70999 0
M  V30 8999 C 871.825 -2.72685 -2.34885 0
M  V30 9000 C 871.433 -4.11923 -1.76134 0
M  V30 9001 C 873.177 -2.88651 -3.11257 0
M  V30 9002 C 871.084 -5.21237 -2.79404 0
M  V30 9003 H 870.014 -0.575688 -0.486928 0
M  V30 9004 H 872.665 -1.74296 -0.573853 0
M  V30 9005 H 871.047 -2.46448 -3.09966 0
M  V30 9006 H 872.221 -4.48128 -1.07322 0
M  V30 9007 H 870.536 -4.00972 -1.12295 0
M  V30 9008 H 873.133 -3.67487 -3.88404 0
M  V30 9009 H 873.476 -1.97658 -3.66384 0
M  V30 9010 H 874.009 -3.14731 -2.43288 0
M  V30 9011 H 870.748 -6.14156 -2.29113 0
M  V30 9012 H 870.268 -4.89533 -3.4658 0
M  V30 9013 H 871.947 -5.48839 -3.42615 0
M  V30 9014 N 872.079 0.78992 -1.36375 0
M  V30 9015 C 873.327 1.54472 -1.30319 0
M  V30 9016 C 873.648 1.94647 0.117338 0
M  V30 9017 O 872.918 1.64906 1.05748 0
M  V30 9018 H 871.498 0.572879 -0.479394 0
M  V30 9019 H 874.16 0.941245 -1.70665 0
M  V30 9020 H 873.256 2.45252 -1.93024 0
M  V30 9021 N 873.557 1.20646 1.01402 0
M  V30 9022 C 874.803 1.0197 1.753 0
M  V30 9023 C 875.136 -0.446803 1.8899 0
M  V30 9024 O 874.411 -1.33169 1.41762 0
M  V30 9025 C 874.694 1.70693 3.17074 0
M  V30 9026 C 874.547 3.24805 3.11162 0
M  V30 9027 C 875.866 1.44212 4.15802 0
M  V30 9028 H 872.985 0.371844 0.636318 0
M  V30 9029 H 875.627 1.48696 1.18277 0
M  V30 9030 H 873.777 1.30968 3.65759 0
M  V30 9031 H 875.449 3.73841 2.70261 0
M  V30 9032 H 873.692 3.55576 2.48492 0
M  V30 9033 H 874.363 3.68049 4.11393 0
M  V30 9034 H 876.839 1.7868 3.75783 0
M  V30 9035 H 875.715 1.94825 5.13161 0
M  V30 9036 H 875.976 0.370252 4.40547 0
M  V30 9037 N 875.035 -1.20752 1.01276 0
M  V30 9038 C 875.965 -2.25658 0.600064 0
M  V30 9039 C 876.946 -1.65733 -0.38298 0
M  V30 9040 O 878.131 -1.92324 -0.269256 0
M  V30 9041 C 875.261 -3.47237 -0.0663197 0
M  V30 9042 C 874.215 -4.1973 0.83731 0
M  V30 9043 C 873.541 -5.34687 0.0369102 0
M  V30 9044 C 874.841 -4.76286 2.14357 0
M  V30 9045 H 876.535 -2.60432 1.477 0
M  V30 9046 H 874.081 -1.25187 0.711634 0
M  V30 9047 H 876.034 -4.19803 -0.366563 0
M  V30 9048 H 874.758 -3.11615 -0.977944 0
M  V30 9049 H 873.417 -3.49024 1.1215 0
M  V30 9050 H 873.065 -4.95309 -0.876244 0
M  V30 9051 H 872.765 -5.84119 0.63865 0
M  V30 9052 H 874.289 -6.10059 -0.256968 0
M  V30 9053 H 875.703 -5.40691 1.90595 0
M  V30 9054 H 874.1 -5.36139 2.69583 0
M  V30 9055 H 875.17 -3.9524 2.80916 0
M  V30 9056 N 876.513 -0.788492 -1.36457 0
M  V30 9057 C 877.443 -0.200468 -2.32638 0
M  V30 9058 C 878.424 0.664031 -1.56603 0
M  V30 9059 O 879.609 0.598045 -1.84762 0
M  V30 9060 C 876.739 0.666274 -3.40849 0
M  V30 9061 C 875.693 -0.0982574 -4.27887 0
M  V30 9062 C 875.019 0.889018 -5.27258 0
M  V30 9063 C 876.319 -1.28692 -5.06197 0
M  V30 9064 H 878.013 -1.00399 -2.82065 0
M  V30 9065 H 875.559 -0.484237 -1.35614 0
M  V30 9066 H 877.512 1.08757 -4.07124 0
M  V30 9067 H 876.236 1.50249 -2.89987 0
M  V30 9068 H 874.895 -0.500525 -3.63167 0
M  V30 9069 H 874.543 1.72024 -4.7267 0
M  V30 9070 H 874.243 0.381909 -5.86358 0
M  V30 9071 H 875.767 1.30891 -5.96406 0
M  V30 9072 H 877.181 -0.941429 -5.65517 0
M  V30 9073 H 875.578 -1.72726 -5.74705 0
M  V30 9074 H 876.648 -2.08273 -4.37893 0
M  V30 9075 N 877.991 1.48044 -0.54043 0
M  V30 9076 C 879.216 2.07396 -0.0124765 0
M  V30 9077 C 879.641 1.39288 1.26414 0
M  V30 9078 O 878.999 0.462252 1.75308 0
M  V30 9079 C 879.047 3.60131 0.18377 0
M  V30 9080 O 878.151 3.92995 1.25014 0
M  V30 9081 H 877.492 0.662554 -0.0438026 0
M  V30 9082 H 880.022 1.90306 -0.751327 0
M  V30 9083 H 880.032 4.06003 0.403197 0
M  V30 9084 H 878.707 4.09105 -0.74874 0
M  V30 9085 H 877.284 3.5889 1.01254 0
M  V30 9086 N 879.47 0.276058 1.55163 0
M  V30 9087 C 880.718 -0.339782 1.99223 0
M  V30 9088 C 881.039 -1.56307 1.16589 0
M  V30 9089 O 880.309 -1.94225 0.25564 0
M  V30 9090 H 878.889 -0.128534 0.735859 0
M  V30 9091 H 881.551 0.381612 1.91128 0
M  V30 9092 H 880.647 -0.629 3.05696 0
M  V30 9093 N 880.948 -1.576 0.00335426 0
M  V30 9094 C 882.173 -1.95398 -0.695311 0
M  V30 9095 C 882.598 -0.878476 -1.66326 0
M  V30 9096 O 881.956 0.163086 -1.80565 0
M  V30 9097 C 882.004 -3.32293 -1.40049 0
M  V30 9098 O 881.108 -3.26834 -2.51502 0
M  V30 9099 H 880.449 -0.637796 -0.184694 0
M  V30 9100 H 882.979 -2.04519 0.057543 0
M  V30 9101 H 882.989 -3.67936 -1.76316 0
M  V30 9102 H 881.664 -4.10123 -0.690803 0
M  V30 9103 H 880.241 -3.02872 -2.17539 0
M  V30 9104 N 882.426 0.269451 -1.5528 0
M  V30 9105 C 883.666 1.00819 -1.77806 0
M  V30 9106 C 884.03 1.83369 -0.569198 0
M  V30 9107 O 885.231 2.60244 -0.672783 0
M  V30 9108 C 883.502 1.86447 -3.04913 0
M  V30 9109 S 885.061 2.66538 -3.48573 0
M  V30 9110 H 881.879 0.339508 -0.624704 0
M  V30 9111 H 884.481 0.278256 -1.9351 0
M  V30 9112 H 883.185 1.24733 -3.90986 0
M  V30 9113 H 882.716 2.63755 -2.91885 0
M  V30 9114 H 884.731 3.88938 -3.08126 0
M  V30 9115 N 883.904 1.48273 0.534124 0
M  V30 9116 C 885.144 1.57674 1.3007 0
M  V30 9117 C 885.508 0.243256 1.90453 0
M  V30 9118 O 886.709 0.212231 2.67961 0
M  V30 9119 C 884.98 2.68044 2.36405 0
M  V30 9120 S 886.539 2.97183 3.22843 0
M  V30 9121 H 883.357 0.55652 0.442501 0
M  V30 9122 H 885.959 1.85774 0.60896 0
M  V30 9123 H 884.663 3.63498 1.90518 0
M  V30 9124 H 884.194 2.41833 3.10291 0
M  V30 9125 H 886.209 2.36164 4.36396 0
M  V30 9126 N 885.382 -0.782676 1.36792 0
M  V30 9127 C 886.292 -1.92679 1.33835 0
M  V30 9128 C 887.308 -1.72344 0.23952 0
M  V30 9129 O 888.484 -1.95766 0.473045 0
M  V30 9130 C 885.549 -3.27644 1.1336 0
M  V30 9131 C 884.61 -3.6071 2.32781 0
M  V30 9132 C 883.843 -4.89234 2.13273 0
M  V30 9133 O 884.066 -5.59468 1.11136 0
M  V30 9134 O 883 -5.21112 3.01208 0
M  V30 9135 H 886.826 -1.98124 2.30175 0
M  V30 9136 H 884.411 -0.923887 1.17408 0
M  V30 9137 H 886.293 -4.08394 1.03886 0
M  V30 9138 H 884.968 -3.23076 0.200868 0
M  V30 9139 H 883.875 -2.80238 2.47825 0
M  V30 9140 H 885.208 -3.70008 3.24584 0
M  V30 9141 N 886.86 -1.21182 -1.00761 0
M  V30 9142 C 888.1 -1.03886 -1.76031 0
M  V30 9143 C 888.464 0.420593 -1.87337 0
M  V30 9144 O 889.665 0.713994 -2.59144 0
M  V30 9145 C 887.936 -1.71394 -3.13622 0
M  V30 9146 S 889.495 -1.69319 -4.04816 0
M  V30 9147 H 886.313 -0.372327 -0.605717 0
M  V30 9148 H 888.915 -1.53885 -1.20581 0
M  V30 9149 H 887.619 -2.76773 -3.03026 0
M  V30 9150 H 887.15 -1.21564 -3.74147 0
M  V30 9151 H 889.165 -0.732434 -4.90765 0
M  V30 9152 N 888.338 1.20213 -1.01915 0
M  V30 9153 C 889.586 1.89272 -0.708552 0
M  V30 9154 C 889.907 1.79394 0.76438 0
M  V30 9155 O 889.177 1.198 1.54999 0
M  V30 9156 H 887.757 0.700628 -0.259094 0
M  V30 9157 H 890.419 1.45985 -1.29129 0
M  V30 9158 H 889.515 2.95841 -0.994215 0
M  V30 9159 N 889.816 0.795718 1.36037 0
M  V30 9160 C 891.056 0.376514 2.00902 0
M  V30 9161 C 891.42 -1.03405 1.61776 0
M  V30 9162 O 892.621 -1.55468 2.19279 0
M  V30 9163 C 890.892 0.542086 3.53265 0
M  V30 9164 S 892.451 0.211694 4.38289 0
M  V30 9165 H 889.269 0.143527 0.696363 0
M  V30 9166 H 891.871 1.03559 1.65819 0
M  V30 9167 H 890.575 1.56888 3.79229 0
M  V30 9168 H 890.106 -0.132698 3.93176 0
M  V30 9169 H 892.121 -0.98452 4.86335 0
M  V30 9170 N 891.294 -1.47756 0.548274 0
M  V30 9171 C 892.542 -2.02089 0.0208542 0
M  V30 9172 C 892.863 -1.42589 -1.33017 0
M  V30 9173 O 892.133 -0.597825 -1.86555 0
M  V30 9174 H 890.713 -0.746985 0.00472023 0
M  V30 9175 H 893.375 -1.81262 0.716257 0
M  V30 9176 H 892.471 -3.12012 -0.0739016 0
M  V30 9177 N 892.772 -0.284283 -1.55015 0
M  V30 9178 C 894.188 0.069603 -1.59448 0
M  V30 9179 C 894.388 1.53833 -1.30144 0
M  V30 9180 O 893.444 2.2886 -1.06674 0
M  V30 9181 C 894.757 -0.313287 -2.99064 0
M  V30 9182 C 896.305 -0.260662 -3.11913 0
M  V30 9183 C 896.78 -0.618127 -4.5381 0
M  V30 9184 N 898.271 -0.570026 -4.59679 0
M  V30 9185 C 899.006 -0.8193 -5.67517 0
M  V30 9186 N 898.502 -1.13367 -6.83462 0
M  V30 9187 N 900.295 -0.747482 -5.57108 0
M  V30 9188 H 892.446 -1.24167 -1.72326 0
M  V30 9189 H 894.709 -0.502259 -0.804015 0
M  V30 9190 H 894.415 -1.33509 -3.25374 0
M  V30 9191 H 894.289 0.341369 -3.75652 0
M  V30 9192 H 896.676 0.751869 -2.85361 0
M  V30 9193 H 896.757 -0.949706 -2.37517 0
M  V30 9194 H 896.401 -1.62839 -4.81088 0
M  V30 9195 H 896.331 0.092807 -5.26518 0
M  V30 9196 H 898.822 -0.3373 -3.76392 0
M  V30 9197 H 899.135 -1.3103 -7.61611 0
M  V30 9198 H 897.48 -1.17154 -6.85055 0
M  V30 9199 H 900.671 -0.501658 -4.65404 0
M  V30 9200 H 900.844 -0.945128 -6.4107 0
M  V30 9201 N 894.251 1.57596 -0.0117121 0
M  V30 9202 C 895.214 2.08089 0.960816 0
M  V30 9203 C 896.214 0.992519 1.26514 0
M  V30 9204 O 897.404 1.25475 1.20837 0
M  V30 9205 C 894.536 2.53217 2.28241 0
M  V30 9206 H 895.729 2.9529 0.523829 0
M  V30 9207 H 893.282 1.54508 0.235995 0
M  V30 9208 H 894.017 1.69294 2.76604 0
M  V30 9209 H 893.802 3.32714 2.0747 0
M  V30 9210 H 895.292 2.92568 2.97983 0
M  V30 9211 N 895.729 -0.261212 1.5542 0
M  V30 9212 C 896.954 -1.01341 1.80955 0
M  V30 9213 C 897.379 -1.78711 0.586849 0
M  V30 9214 O 896.737 -1.75266 -0.463837 0
M  V30 9215 C 896.785 -1.93835 3.04073 0
M  V30 9216 O 895.889 -3.02791 2.79985 0
M  V30 9217 H 895.23 -0.289123 0.597749 0
M  V30 9218 H 897.76 -0.286543 2.02584 0
M  V30 9219 H 897.77 -2.3557 3.33123 0
M  V30 9220 H 896.445 -1.36936 3.9271 0
M  V30 9221 H 895.022 -2.65287 2.62063 0
M  V30 9222 N 897.207 -1.48554 -0.526253 0
M  V30 9223 C 898.432 -1.60686 -1.31129 0
M  V30 9224 C 898.857 -0.268701 -1.86171 0
M  V30 9225 O 898.215 0.760167 -1.64594 0
M  V30 9226 C 898.263 -2.65938 -2.43536 0
M  V30 9227 O 897.367 -2.23356 -3.46678 0
M  V30 9228 H 896.708 -0.538691 -0.388211 0
M  V30 9229 H 899.238 -1.94567 -0.632826 0
M  V30 9230 H 899.248 -2.87327 -2.89668 0
M  V30 9231 H 897.923 -3.63085 -2.02835 0
M  V30 9232 H 896.5 -2.12196 -3.06639 0
M  V30 9233 N 898.685 0.775411 -1.37205 0
M  V30 9234 C 899.615 1.90258 -1.35367 0
M  V30 9235 C 900.596 1.68634 -0.222864 0
M  V30 9236 O 901.781 1.89545 -0.422659 0
M  V30 9237 C 898.911 3.27488 -1.15623 0
M  V30 9238 C 897.865 3.63668 -2.25676 0
M  V30 9239 C 897.191 4.994 -1.91059 0
M  V30 9240 C 898.491 3.70797 -3.67841 0
M  V30 9241 H 900.185 1.92053 -2.29687 0
M  V30 9242 H 897.731 0.922597 -1.10563 0
M  V30 9243 H 899.684 4.05976 -1.12968 0
M  V30 9244 H 898.408 3.26117 -0.177573 0
M  V30 9245 H 897.067 2.87486 -2.2748 0
M  V30 9246 H 896.715 4.94565 -0.917324 0
M  V30 9247 H 896.415 5.24576 -2.64751 0
M  V30 9248 H 897.939 5.80291 -1.89985 0
M  V30 9249 H 899.353 4.39444 -3.68187 0
M  V30 9250 H 897.75 4.07468 -4.40556 0
M  V30 9251 H 898.82 2.71549 -4.01732 0
M  V30 9252 N 900.163 1.21714 1.00117 0
M  V30 9253 C 901.403 1.04818 1.75478 0
M  V30 9254 C 901.767 -0.410653 1.87557 0
M  V30 9255 O 902.968 -0.700241 2.59519 0
M  V30 9256 C 901.239 1.73055 3.12709 0
M  V30 9257 S 902.798 1.71464 4.03913 0
M  V30 9258 H 899.616 0.375534 0.603734 0
M  V30 9259 H 902.218 1.54522 1.19763 0
M  V30 9260 H 900.922 2.78376 3.01554 0
M  V30 9261 H 900.453 1.23546 3.73497 0
M  V30 9262 H 902.468 0.75845 4.90369 0
M  V30 9263 N 901.641 -1.19671 1.02551 0
M  V30 9264 C 902.604 -2.20987 0.608055 0
M  V30 9265 C 903.604 -1.5745 -0.326534 0
M  V30 9266 O 904.794 -1.73827 -0.114003 0
M  V30 9267 C 901.926 -3.4072 -0.11074 0
M  V30 9268 H 903.119 -2.59434 1.50446 0
M  V30 9269 H 900.672 -1.3329 0.816307 0
M  V30 9270 H 901.407 -3.07787 -1.02165 0
M  V30 9271 H 901.192 -3.88069 0.560772 0
M  V30 9272 H 902.682 -4.15776 -0.389848 0
M  V30 9273 N 903.119 -0.802921 -1.35613 0
M  V30 9274 C 904.365 -0.382141 -1.99167 0
M  V30 9275 C 904.698 1.04704 -1.63556 0
M  V30 9276 O 903.973 1.72578 -0.89706 0
M  V30 9277 C 904.256 -0.561493 -3.55695 0
M  V30 9278 C 904.109 -2.03534 -4.01116 0
M  V30 9279 C 905.428 0.0151135 -4.40097 0
M  V30 9280 H 902.547 -0.140322 -0.723518 0
M  V30 9281 H 905.189 -1.01177 -1.6082 0
M  V30 9282 H 903.339 -0.0255083 -3.88492 0
M  V30 9283 H 905.011 -2.63343 -3.78746 0
M  V30 9284 H 903.254 -2.5331 -3.52159 0
M  V30 9285 H 903.925 -2.11173 -5.1001 0
M  V30 9286 H 906.401 -0.442582 -4.1374 0
M  V30 9287 H 905.277 -0.140316 -5.48721 0
M  V30 9288 H 905.538 1.10848 -4.27978 0
M  V30 9289 N 904.597 1.47463 -0.556102 0
M  V30 9290 C 905.56 2.28478 0.181743 0
M  V30 9291 C 906.56 1.36886 0.843738 0
M  V30 9292 O 907.75 1.59527 0.69977 0
M  V30 9293 C 904.882 3.16534 1.26566 0
M  V30 9294 H 906.075 2.95182 -0.529892 0
M  V30 9295 H 903.628 1.53134 -0.313005 0
M  V30 9296 H 904.363 2.5452 2.00973 0
M  V30 9297 H 904.148 3.83939 0.795798 0
M  V30 9298 H 905.638 3.77579 1.78393 0
M  V30 9299 N 906.075 0.2925 1.54862 0
M  V30 9300 C 907.025 -0.60226 2.19902 0
M  V30 9301 C 908.009 -1.10535 1.16923 0
M  V30 9302 O 909.201 -1.04753 1.42674 0
M  V30 9303 C 906.33 -1.77774 2.93686 0
M  V30 9304 C 905.416 -1.29101 4.03972 0
M  V30 9305 N 905.807 -0.521671 5.03103 0
M  V30 9306 C 904.105 -1.57248 4.17359 0
M  V30 9307 C 904.806 -0.263545 5.81103 0
M  V30 9308 N 903.782 -0.840937 5.37056 0
M  V30 9309 H 907.584 -0.00682274 2.93899 0
M  V30 9310 H 905.098 0.0968604 1.62111 0
M  V30 9311 H 907.095 -2.43021 3.38743 0
M  V30 9312 H 905.755 -2.37696 2.21203 0
M  V30 9313 H 906.766 -0.167364 5.1763 0
M  V30 9314 H 903.443 -2.1798 3.56077 0
M  V30 9315 H 904.833 0.353783 6.70968 0
M  V30 9316 N 907.553 -1.57587 0.0200696 0
M  V30 9317 C 908.964 -1.79312 -0.520019 0
M  V30 9318 C 909.315 -0.929475 -1.72787 0
M  V30 9319 O 908.44 -0.137389 -2.15963 0
M  V30 9320 C 909.035 -3.25203 -0.950172 0
M  V30 9321 C 907.594 -3.47954 -1.43543 0
M  V30 9322 C 906.741 -2.74459 -0.395917 0
M  V30 9323 H 909.692 -1.56779 0.246153 0
M  V30 9324 H 909.713 -3.34418 -1.81508 0
M  V30 9325 H 909.225 -3.88035 -0.070883 0
M  V30 9326 H 907.326 -2.90363 -2.33495 0
M  V30 9327 H 907.439 -4.56661 -1.44905 0
M  V30 9328 H 905.803 -2.39669 -0.862022 0
M  V30 9329 H 906.586 -3.40001 0.47475 0
M  V30 9330 N 909.032 0.252966 -1.55557 0
M  V30 9331 C 910.257 1.0038 -1.8149 0
M  V30 9332 C 910.682 1.78397 -0.596318 0
M  V30 9333 O 910.04 1.7551 0.454535 0
M  V30 9334 C 910.088 1.9222 -3.05096 0
M  V30 9335 O 909.192 3.01302 -2.81587 0
M  V30 9336 H 908.533 0.285949 -0.599274 0
M  V30 9337 H 911.063 0.275795 -2.02733 0
M  V30 9338 H 911.073 2.338 -3.34368 0
M  V30 9339 H 909.748 1.34852 -3.93431 0
M  V30 9340 H 908.325 2.63894 -2.63466 0
M  V30 9341 N 910.51 1.48831 0.518367 0
M  V30 9342 C 911.44 1.67119 1.63075 0
M  V30 9343 C 912.421 0.519948 1.61958 0
M  V30 9344 O 913.606 0.753824 1.78972 0
M  V30 9345 C 910.736 1.72158 3.01627 0
M  V30 9346 C 909.69 2.86898 3.17606 0
M  V30 9347 C 909.016 2.77035 4.57335 0
M  V30 9348 C 910.316 4.28057 2.99274 0
M  V30 9349 H 912.01 2.60248 1.48025 0
M  V30 9350 H 909.556 1.2524 0.710694 0
M  V30 9351 H 911.509 1.83539 3.7933 0
M  V30 9352 H 910.233 0.756157 3.17726 0
M  V30 9353 H 908.892 2.75091 2.42323 0
M  V30 9354 H 908.54 1.78438 4.70286 0
M  V30 9355 H 908.24 3.54036 4.6897 0
M  V30 9356 H 909.764 2.904 5.37122 0
M  V30 9357 H 911.178 4.40636 3.6676 0
M  V30 9358 H 909.575 5.06145 3.22393 0
M  V30 9359 H 910.645 4.4371 1.95574 0
M  V30 9360 N 911.988 -0.768124 1.37614 0
M  V30 9361 C 913.237 -1.5221 1.32345 0
M  V30 9362 C 913.55 -1.95399 -0.0885761 0
M  V30 9363 O 914.756 -2.70216 -0.263752 0
M  V30 9364 C 913.212 -2.74872 2.32322 0
M  V30 9365 C 912.82 -2.38767 3.79071 0
M  V30 9366 C 914.564 -3.52805 2.36069 0
M  V30 9367 C 912.471 -3.57953 4.7077 0
M  V30 9368 H 911.401 -0.571461 0.491883 0
M  V30 9369 H 914.052 -0.841004 1.63093 0
M  V30 9370 H 912.434 -3.44889 1.94596 0
M  V30 9371 H 913.608 -1.7651 4.25654 0
M  V30 9372 H 911.923 -1.74 3.78303 0
M  V30 9373 H 914.52 -4.41397 3.01782 0
M  V30 9374 H 914.863 -3.92925 1.37535 0
M  V30 9375 H 915.396 -2.89788 2.72521 0
M  V30 9376 H 912.135 -3.22911 5.70446 0
M  V30 9377 H 911.655 -4.19302 4.28889 0
M  V30 9378 H 913.334 -4.2472 4.8808 0
M  V30 9379 N 913.466 -1.22244 -0.994698 0
M  V30 9380 C 914.712 -1.05752 -1.73747 0
M  V30 9381 C 915.067 0.403416 -1.88123 0
M  V30 9382 O 914.36 1.29511 -1.412 0
M  V30 9383 C 914.554 -1.70014 -3.14372 0
M  V30 9384 C 914.383 -3.22205 -3.1371 0
M  V30 9385 C 913.153 -3.91301 -3.19705 0
M  V30 9386 C 915.351 -4.19163 -2.98005 0
M  V30 9387 N 913.333 -5.30594 -3.08778 0
M  V30 9388 C 914.704 -5.45274 -2.95087 0
M  V30 9389 C 916.759 -4.10078 -2.82383 0
M  V30 9390 C 915.462 -6.63345 -2.78146 0
M  V30 9391 C 917.488 -5.27797 -2.66803 0
M  V30 9392 C 916.85 -6.52826 -2.6457 0
M  V30 9393 H 912.949 -0.441393 -0.64552 0
M  V30 9394 H 915.533 -1.54757 -1.18146 0
M  V30 9395 H 913.704 -1.23562 -3.68221 0
M  V30 9396 H 915.436 -1.46631 -3.77202 0
M  V30 9397 H 912.191 -3.42289 -3.27315 0
M  V30 9398 H 912.615 -6.0358 -3.06628 0
M  V30 9399 H 917.257 -3.14201 -2.82909 0
M  V30 9400 H 914.975 -7.59373 -2.76367 0
M  V30 9401 H 918.561 -5.22598 -2.557 0
M  V30 9402 H 917.441 -7.42383 -2.5266 0
M  V30 9403 N 914.944 1.19125 -1.03184 0
M  V30 9404 C 916.36 1.40909 -0.749447 0
M  V30 9405 C 916.56 1.9022 0.664729 0
M  V30 9406 O 915.616 2.08085 1.43028 0
M  V30 9407 C 916.929 2.41761 -1.78807 0
M  V30 9408 C 918.477 2.55503 -1.80796 0
M  V30 9409 C 918.952 3.59612 -2.83626 0
M  V30 9410 N 920.443 3.6711 -2.82461 0
M  V30 9411 C 921.178 4.47366 -3.5868 0
M  V30 9412 N 920.674 5.31302 -4.44623 0
M  V30 9413 N 922.467 4.42044 -3.47208 0
M  V30 9414 H 914.618 0.854399 -1.94458 0
M  V30 9415 H 916.881 0.437753 -0.840878 0
M  V30 9416 H 916.587 2.12559 -2.80199 0
M  V30 9417 H 916.461 3.40981 -1.61283 0
M  V30 9418 H 918.848 2.84027 -0.800803 0
M  V30 9419 H 918.929 1.56427 -2.02396 0
M  V30 9420 H 918.573 3.3183 -3.84515 0
M  V30 9421 H 918.503 4.58345 -2.59283 0
M  V30 9422 H 920.994 3.07166 -2.2013 0
M  V30 9423 H 921.307 5.89667 -4.99512 0
M  V30 9424 H 919.652 5.30753 -4.48694 0
M  V30 9425 H 922.843 3.75513 -2.79477 0
M  V30 9426 H 923.016 5.0435 -4.06859 0
M  V30 9427 N 916.422 0.810101 1.35185 0
M  V30 9428 C 917.662 0.397802 2.00492 0
M  V30 9429 C 918.026 -1.01684 1.62863 0
M  V30 9430 O 919.227 -1.53133 2.20916 0
M  V30 9431 C 917.498 0.579524 3.5267 0
M  V30 9432 S 919.057 0.258169 4.3804 0
M  V30 9433 H 915.875 0.150904 0.694801 0
M  V30 9434 H 918.477 1.05312 1.64711 0
M  V30 9435 H 917.181 1.60901 3.77543 0
M  V30 9436 H 916.712 -0.0909886 3.93295 0
M  V30 9437 H 918.727 -0.932882 4.87352 0
M  V30 9438 N 917.9 -1.47166 0.563914 0
M  V30 9439 C 919.148 -2.02056 0.0422873 0
M  V30 9440 C 919.469 -1.43992 -1.31497 0
M  V30 9441 O 918.739 -0.617578 -1.85911 0
M  V30 9442 H 917.319 -0.746893 0.0126427 0
M  V30 9443 H 919.981 -1.80492 0.735441 0
M  V30 9444 H 919.077 -3.12073 -0.0408044 0
M  V30 9445 N 919.378 -0.300708 -1.54705 0
M  V30 9446 C 920.608 0.310819 -2.04249 0
M  V30 9447 C 921.016 1.4809 -1.17754 0
M  V30 9448 O 920.359 1.82654 -0.195779 0
M  V30 9449 C 920.421 0.83014 -3.49784 0
M  V30 9450 C 920.085 -0.214628 -4.56496 0
M  V30 9451 C 921.082 -1.04298 -5.09331 0
M  V30 9452 C 918.767 -0.356242 -5.01035 0
M  V30 9453 C 920.761 -1.99889 -6.05246 0
M  V30 9454 C 918.448 -1.3156 -5.96771 0
M  V30 9455 C 919.446 -2.1354 -6.4876 0
M  V30 9456 O 919.134 -3.07849 -7.4262 0
M  V30 9457 H 918.866 0.0715341 -0.672204 0
M  V30 9458 H 921.42 -0.438179 -2.00672 0
M  V30 9459 H 919.65 1.62966 -3.50684 0
M  V30 9460 H 921.339 1.35752 -3.82526 0
M  V30 9461 H 922.105 -0.944439 -4.75716 0
M  V30 9462 H 917.984 0.271916 -4.60197 0
M  V30 9463 H 921.528 -2.63917 -6.45751 0
M  V30 9464 H 917.425 -1.41486 -6.29803 0
M  V30 9465 H 918.193 -3.02824 -7.60421 0
M  V30 9466 N 920.856 1.57574 -0.0284266 0
M  V30 9467 C 922.081 1.96479 0.664137 0
M  V30 9468 C 922.506 0.904826 1.64908 0
M  V30 9469 O 921.864 -0.134339 1.80802 0
M  V30 9470 C 921.912 3.34479 1.34745 0
M  V30 9471 O 921.016 3.30794 2.46271 0
M  V30 9472 H 920.357 0.640654 0.174524 0
M  V30 9473 H 922.887 2.04402 -0.0900729 0
M  V30 9474 H 922.897 3.70694 1.7044 0
M  V30 9475 H 921.572 4.1117 0.625468 0
M  V30 9476 H 920.149 3.06294 2.12693 0
M  V30 9477 N 922.334 -0.244713 1.55689 0
M  V30 9478 C 923.281 -1.30301 1.905 0
M  V30 9479 C 924.251 -1.4772 0.759478 0
M  V30 9480 O 925.436 -1.61667 1.01333 0
M  V30 9481 C 922.576 -2.653 2.20703 0
M  V30 9482 C 921.689 -2.55872 3.48071 0
M  V30 9483 C 920.824 -3.83238 3.67834 0
M  V30 9484 C 919.863 -3.68436 4.88796 0
M  V30 9485 N 919 -4.877 5.05068 0
M  V30 9486 H 923.84 -0.999143 2.80751 0
M  V30 9487 H 921.377 -0.482099 1.38976 0
M  V30 9488 H 923.335 -3.43884 2.36219 0
M  V30 9489 H 921.965 -2.93831 1.33653 0
M  V30 9490 H 921.017 -1.68846 3.40874 0
M  V30 9491 H 922.329 -2.40845 4.36801 0
M  V30 9492 H 921.483 -4.70266 3.83321 0
M  V30 9493 H 920.222 -4.01165 2.77341 0
M  V30 9494 H 919.227 -2.79793 4.73282 0
M  V30 9495 H 920.452 -3.52003 5.8075 0
M  V30 9496 H 918.398 -5.05983 4.17513 0
M  V30 9497 H 918.315 -4.75312 5.8789 0
M  V30 9498 H 919.583 -5.76219 5.24969 0
M  V30 9499 N 923.813 -1.49104 -0.510467 0
M  V30 9500 C 924.776 -1.64569 -1.59529 0
M  V30 9501 C 925.776 -0.517937 -1.5223 0
M  V30 9502 O 926.966 -0.784183 -1.55551 0
M  V30 9503 C 924.098 -1.6342 -2.99177 0
M  V30 9504 H 925.291 -2.61318 -1.4715 0
M  V30 9505 H 922.844 -1.37993 -0.734001 0
M  V30 9506 H 923.579 -0.68221 -3.17043 0
M  V30 9507 H 923.364 -2.45312 -3.05883 0
M  V30 9508 H 924.854 -1.77474 -3.78011 0
M  V30 9509 N 925.291 0.760815 -1.38019 0
M  V30 9510 C 926.238 1.8744 -1.34666 0
M  V30 9511 C 927.208 1.64762 -0.210386 0
M  V30 9512 O 928.393 1.86528 -0.401479 0
M  V30 9513 C 925.533 3.24648 -1.17037 0
M  V30 9514 C 924.646 3.59206 -2.3999 0
M  V30 9515 C 923.781 4.8568 -2.15148 0
M  V30 9516 C 922.82 5.13002 -3.3391 0
M  V30 9517 N 921.957 6.30668 -3.08549 0
M  V30 9518 H 926.797 1.8964 -2.29871 0
M  V30 9519 H 924.334 0.927004 -1.14215 0
M  V30 9520 H 926.292 4.03814 -1.04834 0
M  V30 9521 H 924.922 3.21793 -0.254758 0
M  V30 9522 H 923.974 2.74939 -2.62893 0
M  V30 9523 H 925.286 3.75328 -3.28527 0
M  V30 9524 H 924.44 5.72773 -2.00039 0
M  V30 9525 H 923.179 4.71682 -1.23965 0
M  V30 9526 H 922.184 4.2438 -3.49545 0
M  V30 9527 H 923.409 5.28901 -4.25958 0
M  V30 9528 H 921.355 6.18008 -2.20006 0
M  V30 9529 H 921.272 6.47257 -3.90633 0
M  V30 9530 H 922.54 7.20669 -2.9708 0
M  V30 9531 N 926.769 1.22769 0.988202 0
M  V30 9532 C 927.701 0.959757 2.08138 0
M  V30 9533 C 928.714 -0.0633787 1.62677 0
M  V30 9534 O 929.903 0.171203 1.77677 0
M  V30 9535 C 927.003 0.422724 3.36253 0
M  V30 9536 C 926.176 1.50419 4.10722 0
M  V30 9537 C 925.235 0.973407 5.17118 0
M  V30 9538 O 924.261 1.66066 5.44436 0
M  V30 9539 N 925.463 -0.202787 5.80146 0
M  V30 9540 H 928.228 1.9009 2.31702 0
M  V30 9541 H 925.789 1.13522 1.15431 0
M  V30 9542 H 927.781 0.0528514 4.04665 0
M  V30 9543 H 926.351 -0.423642 3.09716 0
M  V30 9544 H 925.571 2.04718 3.36874 0
M  V30 9545 H 926.859 2.23169 4.57245 0
M  V30 9546 H 926.257 -0.777856 5.60327 0
M  V30 9547 H 924.814 -0.513998 6.4977 0
M  V30 9548 N 928.247 -1.18576 1.03814 0
M  V30 9549 C 929.524 -1.8433 0.654358 0
M  V30 9550 C 929.904 -1.92504 -0.866338 0
M  V30 9551 O 929.252 -1.44904 -1.76678 0
M  V30 9552 C 929.462 -3.22778 1.32723 0
M  V30 9553 C 930.81 -3.98841 1.45641 0
M  V30 9554 O 931.834 -3.32209 1.28514 0
M  V30 9555 O 930.693 -5.18219 1.73526 0
M  V30 9556 H 927.787 -0.794766 0.228638 0
M  V30 9557 H 930.333 -1.25989 1.13687 0
M  V30 9558 H 929.105 -3.11717 2.36534 0
M  V30 9559 H 928.728 -3.88772 0.833176 0
M  V30 9560 N 929.725 -0.817259 -1.34754 0
M  V30 9561 C 931.136 -0.462215 -1.80888 0
M  V30 9562 C 931.487 1.01685 -1.67794 0
M  V30 9563 O 930.612 1.79094 -1.21468 0
M  V30 9564 C 931.207 -0.832204 -3.2842 0
M  V30 9565 C 929.766 -0.52961 -3.72655 0
M  V30 9566 C 928.913 -1.05214 -2.56564 0
M  V30 9567 H 931.864 -1.00795 -1.22581 0
M  V30 9568 H 931.885 -0.133804 -3.80265 0
M  V30 9569 H 931.397 -1.90873 -3.37919 0
M  V30 9570 H 929.498 0.537743 -3.68699 0
M  V30 9571 H 929.611 -1.06971 -4.67005 0
M  V30 9572 H 927.975 -0.473949 -2.50251 0
M  V30 9573 H 928.758 -2.135 -2.68836 0
M  V30 9574 N 931.203 1.46865 -0.571711 0
M  V30 9575 C 932.113 2.33979 0.170571 0
M  V30 9576 C 933.129 1.49083 0.897239 0
M  V30 9577 O 934.305 1.81979 0.862888 0
M  V30 9578 C 931.37 3.26063 1.17831 0
M  V30 9579 C 930.431 4.26855 0.457499 0
M  V30 9580 C 929.664 5.14539 1.41722 0
M  V30 9581 O 929.887 5.04945 2.65305 0
M  V30 9582 O 928.821 5.94612 0.9338 0
M  V30 9583 H 932.647 2.98781 -0.544396 0
M  V30 9584 H 930.232 1.4566 -0.332198 0
M  V30 9585 H 932.114 3.82903 1.75965 0
M  V30 9586 H 930.789 2.63871 1.87493 0
M  V30 9587 H 929.696 3.73734 -0.165406 0
M  V30 9588 H 931.029 4.91802 -0.197953 0
M  V30 9589 N 932.681 0.308908 1.54543 0
M  V30 9590 C 933.591 -0.572939 2.27496 0
M  V30 9591 C 934.607 -1.14171 1.31305 0
M  V30 9592 O 935.783 -1.16481 1.64299 0
M  V30 9593 C 932.848 -1.72483 3.0075 0
M  V30 9594 C 931.909 -1.18934 4.12496 0
M  V30 9595 C 931.142 -2.28634 4.82247 0
M  V30 9596 O 931.365 -3.48691 4.5141 0
M  V30 9597 O 930.299 -1.94879 5.69478 0
M  V30 9598 H 934.125 0.0190877 3.03694 0
M  V30 9599 H 931.71 0.0750943 1.49211 0
M  V30 9600 H 933.592 -2.39578 3.46671 0
M  V30 9601 H 932.267 -2.30332 2.2744 0
M  V30 9602 H 931.174 -0.483904 3.70957 0
M  V30 9603 H 932.507 -0.656185 4.87806 0
M  V30 9604 N 934.159 -1.57557 0.0367827 0
M  V30 9605 C 935.069 -2.14148 -0.958017 0
M  V30 9606 C 936.085 -1.09564 -1.35173 0
M  V30 9607 O 937.261 -1.4166 -1.43158 0
M  V30 9608 C 934.326 -2.6636 -2.21931 0
M  V30 9609 C 933.387 -3.85688 -1.8853 0
M  V30 9610 C 932.62 -4.35401 -3.08645 0
M  V30 9611 O 932.843 -3.8425 -4.21554 0
M  V30 9612 O 931.777 -5.27158 -2.90497 0
M  V30 9613 H 935.603 -2.99442 -0.506797 0
M  V30 9614 H 933.188 -1.48259 -0.184275 0
M  V30 9615 H 935.07 -2.99976 -2.9596 0
M  V30 9616 H 933.745 -1.84145 -2.66219 0
M  V30 9617 H 932.652 -3.56985 -1.11861 0
M  V30 9618 H 933.985 -4.69089 -1.49052 0
M  V30 9619 N 935.637 0.236453 -1.55816 0
M  V30 9620 C 936.584 1.29289 -1.91188 0
M  V30 9621 C 937.554 1.47315 -0.767301 0
M  V30 9622 O 938.739 1.61128 -1.02189 0
M  V30 9623 C 935.879 2.64126 -2.22107 0
M  V30 9624 C 934.992 2.54022 -3.49423 0
M  V30 9625 C 934.127 3.81282 -3.69861 0
M  V30 9626 C 933.166 3.65839 -4.90743 0
M  V30 9627 N 932.303 4.85014 -5.07647 0
M  V30 9628 H 937.143 0.98424 -2.81277 0
M  V30 9629 H 934.68 0.474722 -1.39229 0
M  V30 9630 H 936.638 3.42626 -2.3804 0
M  V30 9631 H 935.268 2.93118 -1.35209 0
M  V30 9632 H 934.32 1.67036 -3.41765 0
M  V30 9633 H 935.632 2.38525 -4.38072 0
M  V30 9634 H 934.786 4.68226 -3.8581 0
M  V30 9635 H 933.525 3.99688 -2.79465 0
M  V30 9636 H 932.53 2.77279 -4.74759 0
M  V30 9637 H 933.755 3.48918 -5.82609 0
M  V30 9638 H 931.701 5.03762 -4.20191 0
M  V30 9639 H 931.618 4.72188 -5.90402 0
M  V30 9640 H 932.886 5.73427 -5.28017 0
M  V30 9641 N 937.115 1.49373 0.502552 0
M  V30 9642 C 938.048 1.60529 1.6219 0
M  V30 9643 C 939.026 0.454431 1.56121 0
M  V30 9644 O 940.21 0.669768 1.762 0
M  V30 9645 C 937.337 1.55879 3.00698 0
M  V30 9646 C 936.383 2.76143 3.25034 0
M  V30 9647 S 937.216 4.37831 3.08325 0
M  V30 9648 C 938.372 4.35824 4.49231 0
M  V30 9649 H 938.605 2.55219 1.52482 0
M  V30 9650 H 936.138 1.38244 0.687594 0
M  V30 9651 H 938.096 1.53882 3.80566 0
M  V30 9652 H 936.757 0.624791 3.07823 0
M  V30 9653 H 935.95 2.69104 4.26144 0
M  V30 9654 H 935.552 2.75544 2.52886 0
M  V30 9655 H 937.844 4.07447 5.41288 0
M  V30 9656 H 938.787 5.37206 4.6132 0
M  V30 9657 H 939.195 3.65923 4.29838 0
M  V30 9658 N 938.594 -0.753485 1.38421 0
M  V30 9659 C 939.544 -1.85788 1.32162 0
M  V30 9660 C 940.528 -1.59577 0.20588 0
M  V30 9661 O 941.72 -1.71396 0.44186 0
M  V30 9662 C 938.849 -3.23498 1.14909 0
M  V30 9663 C 937.935 -3.556 2.31105 0
M  V30 9664 N 938.326 -3.58759 3.56547 0
M  V30 9665 C 936.624 -3.85866 2.23659 0
M  V30 9666 C 937.325 -3.8813 4.33278 0
M  V30 9667 N 936.301 -4.04966 3.62635 0
M  V30 9668 H 940.103 -1.86509 2.27138 0
M  V30 9669 H 937.617 -0.950843 1.31654 0
M  V30 9670 H 939.614 -4.02531 1.08509 0
M  V30 9671 H 938.274 -3.24029 0.20866 0
M  V30 9672 H 939.285 -3.40517 3.90216 0
M  V30 9673 H 935.962 -3.94112 1.37776 0
M  V30 9674 H 937.352 -3.97197 5.41926 0
M  V30 9675 N 940.072 -1.23292 -0.981677 0
M  V30 9676 C 941.319 -1.06424 -1.72279 0
M  V30 9677 C 941.647 0.399055 -1.90362 0
M  V30 9678 O 940.902 1.31181 -1.45224 0
M  V30 9679 C 941.201 -1.73339 -3.12551 0
M  V30 9680 C 940.867 -3.23256 -3.14351 0
M  V30 9681 C 939.529 -3.64159 -3.14549 0
M  V30 9682 C 941.881 -4.1916 -3.09765 0
M  V30 9683 C 939.209 -4.99428 -3.07877 0
M  V30 9684 C 941.561 -5.54419 -3.04635 0
M  V30 9685 C 940.225 -5.94688 -3.03154 0
M  V30 9686 H 939.495 -0.389434 -0.630415 0
M  V30 9687 H 942.142 -1.53208 -1.1489 0
M  V30 9688 H 940.447 -1.18911 -3.73319 0
M  V30 9689 H 942.144 -1.57767 -3.68661 0
M  V30 9690 H 938.734 -2.90693 -3.14953 0
M  V30 9691 H 942.918 -3.88569 -3.08753 0
M  V30 9692 H 938.174 -5.29844 -3.05083 0
M  V30 9693 H 942.348 -6.28448 -3.00043 0
M  V30 9694 H 939.975 -6.99468 -2.97739 0
M  V30 9695 N 941.55 1.18024 -1.04442 0
M  V30 9696 C 942.5 2.19714 -0.609069 0
M  V30 9697 C 943.484 1.57037 0.350473 0
M  V30 9698 O 944.676 1.76192 0.16892 0
M  V30 9699 C 941.805 3.43293 0.0225911 0
M  V30 9700 C 940.891 4.13084 -0.960325 0
M  V30 9701 N 941.282 4.58819 -2.12883 0
M  V30 9702 C 939.58 4.38999 -0.787146 0
M  V30 9703 C 940.281 5.12589 -2.75004 0
M  V30 9704 N 939.257 5.04333 -2.02853 0
M  V30 9705 H 943.059 2.5277 -1.49948 0
M  V30 9706 H 940.573 1.34271 -0.913517 0
M  V30 9707 H 942.57 4.1541 0.352196 0
M  V30 9708 H 941.23 3.11731 0.908495 0
M  V30 9709 H 942.241 4.53148 -2.50754 0
M  V30 9710 H 938.918 4.17472 0.048348 0
M  V30 9711 H 940.308 5.58152 -3.74053 0
M  V30 9712 N 943.028 0.824394 1.34319 0
M  V30 9713 C 943.976 0.235628 2.31403 0
M  V30 9714 C 944.97 -0.624443 1.57471 0
M  V30 9715 O 946.176 -0.515618 1.72457 0
M  V30 9716 H 942.551 0.0574537 0.749802 0
M  V30 9717 H 944.522 1.06925 2.78585 0
M  V30 9718 C 943.271 -0.586617 3.42716 0
M  V30 9719 H 942.594 0.0658669 3.99746 0
M  V30 9720 H 944.034 -0.964661 4.1288 0
M  V30 9721 C 942.493 -1.75957 2.87299 0
M  V30 9722 O 943.023 -2.8578 2.82299 0
M  V30 9723 N 941.229 -1.57678 2.44102 0
M  V30 9724 H 940.776 -0.683436 2.48369 0
M  V30 9725 H 940.734 -2.36311 2.07375 0
M  V30 9726 N 944.506 -1.46559 0.579492 0
M  V30 9727 C 945.754 -2.02 0.0637157 0
M  V30 9728 C 946.075 -1.45378 -1.29962 0
M  V30 9729 O 945.345 -0.637262 -1.85245 0
M  V30 9730 H 943.925 -0.746717 0.0205638 0
M  V30 9731 H 946.587 -1.79702 0.754544 0
M  V30 9732 H 945.683 -3.12099 -0.00770254 0
M  V30 9733 N 945.984 -0.3171 -1.54377 0
M  V30 9734 C 946.934 0.567199 -2.20832 0
M  V30 9735 C 947.918 1.08661 -1.18666 0
M  V30 9736 O 949.11 1.0247 -1.44322 0
M  V30 9737 C 946.239 1.73079 -2.96477 0
M  V30 9738 C 945.325 1.22658 -4.05975 0
M  V30 9739 N 945.716 0.441565 -5.03869 0
M  V30 9740 C 944.014 1.50589 -4.19808 0
M  V30 9741 C 944.715 0.171063 -5.81448 0
M  V30 9742 N 943.691 0.755389 -5.38326 0
M  V30 9743 H 947.493 -0.0399349 -2.93873 0
M  V30 9744 H 945.007 -0.122639 -1.61936 0
M  V30 9745 H 947.004 2.37601 -3.42566 0
M  V30 9746 H 945.664 2.34146 -2.24957 0
M  V30 9747 H 946.675 0.0849921 -5.1783 0
M  V30 9748 H 943.352 2.12288 -3.595 0
M  V30 9749 H 944.742 -0.460484 -6.7032 0
M  V30 9750 N 947.462 1.57535 -0.0451378 0
M  V30 9751 C 948.711 1.91628 0.629415 0
M  V30 9752 C 949.024 0.924754 1.72359 0
M  V30 9753 O 950.23 1.15751 2.45589 0
M  V30 9754 C 948.686 3.40322 1.17084 0
M  V30 9755 C 948.294 4.47867 0.109101 0
M  V30 9756 C 950.038 3.83458 1.82099 0
M  V30 9757 C 947.945 5.87671 0.663072 0
M  V30 9758 H 946.875 0.715163 0.238868 0
M  V30 9759 H 949.526 1.83151 -0.113046 0
M  V30 9760 H 947.908 3.43783 1.96543 0
M  V30 9761 H 949.082 4.55988 -0.664201 0
M  V30 9762 H 947.397 4.14034 -0.443227 0
M  V30 9763 H 949.994 4.85273 2.2453 0
M  V30 9764 H 950.337 3.19379 2.67026 0
M  V30 9765 H 950.87 3.82488 1.09305 0
M  V30 9766 H 947.609 6.55332 -0.148423 0
M  V30 9767 H 947.129 5.83124 1.4045 0
M  V30 9768 H 948.808 6.36737 1.14785 0
M  V30 9769 N 948.94 -0.228186 1.55939 0
M  V30 9770 C 949.887 -1.28274 1.91871 0
M  V30 9771 C 950.857 -1.46906 0.775103 0
M  V30 9772 O 952.042 -1.60583 1.03042 0
M  V30 9773 C 949.182 -2.62945 2.23504 0
M  V30 9774 C 948.295 -2.52166 3.50766 0
M  V30 9775 C 947.43 -3.79316 3.71878 0
M  V30 9776 C 946.469 -3.63231 4.92676 0
M  V30 9777 N 945.606 -4.82315 5.10212 0
M  V30 9778 H 950.446 -0.96931 2.81795 0
M  V30 9779 H 947.983 -0.467331 1.39479 0
M  V30 9780 H 949.941 -3.41359 2.39854 0
M  V30 9781 H 948.571 -2.92397 1.36762 0
M  V30 9782 H 947.623 -1.65221 3.42646 0
M  V30 9783 H 948.935 -2.36199 4.39331 0
M  V30 9784 H 948.089 -4.66173 3.88288 0
M  V30 9785 H 946.828 -3.982 2.81581 0
M  V30 9786 H 945.833 -2.74757 4.76223 0
M  V30 9787 H 947.058 -3.45823 5.84451 0
M  V30 9788 H 945.004 -5.01526 4.22856 0
M  V30 9789 H 944.921 -4.6905 5.92898 0
M  V30 9790 H 946.189 -5.70618 5.31051 0
M  V30 9791 N 950.418 -1.49637 -0.494624 0
M  V30 9792 C 951.348 -1.69692 -1.60396 0
M  V30 9793 C 952.329 -0.545648 -1.61111 0
M  V30 9794 O 953.514 -0.782202 -1.77751 0
M  V30 9795 C 950.644 -1.76934 -2.9885 0
M  V30 9796 C 949.598 -2.91915 -3.13001 0
M  V30 9797 C 948.924 -2.84276 -4.5287 0
M  V30 9798 C 950.224 -4.32764 -2.92426 0
M  V30 9799 H 951.918 -2.6257 -1.43866 0
M  V30 9800 H 949.464 -1.26355 -0.690679 0
M  V30 9801 H 951.417 -1.8955 -3.76362 0
M  V30 9802 H 950.141 -0.806609 -3.16483 0
M  V30 9803 H 948.8 -2.78911 -2.37916 0
M  V30 9804 H 948.448 -1.85897 -4.67388 0
M  V30 9805 H 948.148 -3.61452 -4.63278 0
M  V30 9806 H 949.672 -2.98909 -5.32434 0
M  V30 9807 H 951.086 -4.46415 -3.59703 0
M  V30 9808 H 949.483 -5.1121 -3.143 0
M  V30 9809 H 950.553 -4.46765 -1.88491 0
M  V30 9810 N 951.896 0.746133 -1.38819 0
M  V30 9811 C 953.307 1.32384 -1.31648 0
M  V30 9812 C 953.658 1.96185 0.0243086 0
M  V30 9813 O 952.783 1.95567 0.92641 0
M  V30 9814 C 953.378 2.40712 -2.38418 0
M  V30 9815 C 951.937 2.94185 -2.34803 0
M  V30 9816 C 951.084 1.67639 -2.20891 0
M  V30 9817 H 954.035 0.544457 -1.49068 0
M  V30 9818 H 954.056 3.20833 -2.04564 0
M  V30 9819 H 953.568 1.94247 -3.3599 0
M  V30 9820 H 951.669 3.44959 -1.40834 0
M  V30 9821 H 951.782 3.48057 -3.29231 0
M  V30 9822 H 950.146 1.9155 -1.67871 0
M  V30 9823 H 950.929 1.23242 -3.20416 0
M  V30 9824 N 953.375 1.23811 0.975125 0
M  V30 9825 C 954.623 1.07124 1.71373 0
M  V30 9826 C 954.944 -0.391864 1.91022 0
M  V30 9827 O 954.214 -1.28041 1.48265 0
M  V30 9828 H 952.794 0.393415 0.635007 0
M  V30 9829 H 955.456 1.55612 1.17349 0
M  V30 9830 H 954.552 1.56338 2.7012 0
M  V30 9831 N 954.853 -1.17469 1.05066 0
M  V30 9832 C 956.099 -1.87976 0.761113 0
M  V30 9833 C 956.432 -1.80756 -0.709995 0
M  V30 9834 O 955.707 -1.21469 -1.51906 0
M  V30 9835 C 955.99 -3.38055 1.2406 0
M  V30 9836 C 955.843 -3.54032 2.77455 0
M  V30 9837 C 957.162 -4.32036 0.838612 0
M  V30 9838 H 954.281 -0.682573 0.277963 0
M  V30 9839 H 956.923 -1.38147 1.30443 0
M  V30 9840 H 955.073 -3.80622 0.778388 0
M  V30 9841 H 956.745 -3.20489 3.3179 0
M  V30 9842 H 954.988 -2.96352 3.16793 0
M  V30 9843 H 955.659 -4.59377 3.06066 0
M  V30 9844 H 958.135 -3.97303 1.23651 0
M  V30 9845 H 957.011 -5.35583 1.20173 0
M  V30 9846 H 957.272 -4.41349 -0.257498 0
M  V30 9847 N 956.331 -0.831506 -1.3388 0
M  V30 9848 C 957.747 -0.518349 -1.50948 0
M  V30 9849 C 957.947 0.955807 -1.77388 0
M  V30 9850 O 957.003 1.73993 -1.82983 0
M  V30 9851 C 958.316 -1.38531 -2.66889 0
M  V30 9852 C 959.864 -1.38332 -2.80772 0
M  V30 9853 C 960.339 -2.23497 -3.99766 0
M  V30 9854 N 961.83 -2.21167 -4.06988 0
M  V30 9855 C 962.565 -2.83805 -4.98239 0
M  V30 9856 N 962.061 -3.55468 -5.94655 0
M  V30 9857 N 963.854 -2.73314 -4.91178 0
M  V30 9858 H 956.005 -1.78588 -1.14978 0
M  V30 9859 H 958.268 -0.761508 -0.564633 0
M  V30 9860 H 957.974 -2.43255 -2.54007 0
M  V30 9861 H 957.848 -1.05611 -3.62114 0
M  V30 9862 H 960.235 -0.343832 -2.9309 0
M  V30 9863 H 960.316 -1.75256 -1.86331 0
M  V30 9864 H 959.96 -3.27501 -3.88208 0
M  V30 9865 H 959.89 -1.83919 -4.93438 0
M  V30 9866 H 962.381 -1.69046 -3.37982 0
M  V30 9867 H 962.694 -4.00487 -6.60931 0
M  V30 9868 H 961.039 -3.59575 -5.94753 0
M  V30 9869 H 964.23 -2.16897 -4.14817 0
M  V30 9870 H 964.403 -3.22416 -5.62096 0
M  V30 9871 N 957.809 1.4625 -0.587256 0
M  V30 9872 C 959.037 2.06744 -0.08033 0
M  V30 9873 C 959.452 1.43527 1.2266 0
M  V30 9874 O 958.809 0.542168 1.74261 0
M  V30 9875 C 958.86 3.61394 0.0873469 0
M  V30 9876 O 958.581 4.22247 -1.16785 0
M  V30 9877 C 960.082 4.38828 0.628095 0
M  V30 9878 H 957.302 0.668354 -0.0595301 0
M  V30 9879 H 959.846 1.87808 -0.809217 0
M  V30 9880 H 958.001 3.79742 0.766473 0
M  V30 9881 H 958.415 5.15176 -0.984565 0
M  V30 9882 H 959.889 5.47613 0.694583 0
M  V30 9883 H 960.366 4.07188 1.64606 0
M  V30 9884 H 960.972 4.25297 -0.0163115 0
M  V30 9885 N 959.287 0.325282 1.54207 0
M  V30 9886 C 960.517 -0.278285 2.04717 0
M  V30 9887 C 960.925 -1.46198 1.20095 0
M  V30 9888 O 960.268 -1.82319 0.224813 0
M  V30 9889 C 960.33 -0.774387 3.51061 0
M  V30 9890 C 959.994 0.287225 4.56096 0
M  V30 9891 C 960.991 1.12388 5.07607 0
M  V30 9892 C 958.676 0.435908 5.00405 0
M  V30 9893 C 960.67 2.09492 6.0199 0
M  V30 9894 C 958.357 1.41037 5.94602 0
M  V30 9895 C 959.355 2.23834 6.45281 0
M  V30 9896 O 959.043 3.19625 7.37628 0
M  V30 9897 H 958.775 -0.0608309 0.673257 0
M  V30 9898 H 961.329 0.470049 1.99949 0
M  V30 9899 H 959.559 -1.57366 3.53232 0
M  V30 9900 H 961.248 -1.29649 3.84637 0
M  V30 9901 H 962.014 1.02 4.74153 0
M  V30 9902 H 957.893 -0.198668 4.60572 0
M  V30 9903 H 961.437 2.74157 6.4147 0
M  V30 9904 H 957.334 1.51487 6.27473 0
M  V30 9905 H 958.102 3.14884 7.55507 0
M  V30 9906 N 960.765 -1.57509 0.0534917 0
M  V30 9907 C 962.014 -1.91959 -0.619244 0
M  V30 9908 C 962.327 -0.933882 -1.71866 0
M  V30 9909 O 963.533 -1.17052 -2.44972 0
M  V30 9910 C 961.989 -3.40938 -1.15278 0
M  V30 9911 C 961.597 -4.47919 -0.085348 0
M  V30 9912 C 963.341 -3.84419 -1.80063 0
M  V30 9913 C 961.248 -5.88014 -0.631897 0
M  V30 9914 H 960.178 -0.71642 -0.235072 0
M  V30 9915 H 962.829 -1.83089 0.122758 0
M  V30 9916 H 961.211 -3.44821 -1.94717 0
M  V30 9917 H 962.385 -4.55629 0.688374 0
M  V30 9918 H 960.7 -4.13793 0.465178 0
M  V30 9919 H 963.297 -4.86457 -2.21954 0
M  V30 9920 H 963.64 -3.20791 -2.65328 0
M  V30 9921 H 964.173 -3.83062 -1.07275 0
M  V30 9922 H 960.912 -6.55244 0.183175 0
M  V30 9923 H 960.432 -5.83861 -1.37355 0
M  V30 9924 H 962.111 -6.37336 -1.11407 0
M  V30 9925 N 962.243 0.219913 -1.56058 0
M  V30 9926 C 963.52 0.968493 -1.6994 0
M  V30 9927 C 963.9 2.02358 -0.601219 0
M  V30 9928 O 963.248 2.25121 0.391534 0
M  V30 9929 C 963.458 1.57745 -3.11316 0
M  V30 9930 C 964.806 2.06908 -3.70775 0
M  V30 9931 O 965.83 1.67636 -3.14288 0
M  V30 9932 O 964.689 2.79096 -4.69859 0
M  V30 9933 H 961.783 0.452521 -0.692209 0
M  V30 9934 H 964.329 0.211566 -1.68376 0
M  V30 9935 H 963.101 0.815687 -3.82704 0
M  V30 9936 H 962.724 2.39987 -3.17005 0
M  V30 9937 N 963.721 1.49897 0.486681 0
M  V30 9938 C 965.132 1.53142 1.06792 0
M  V30 9939 C 965.483 0.325856 1.93475 0
M  V30 9940 O 964.608 -0.562893 2.08951 0
M  V30 9941 C 965.203 2.77514 1.94348 0
M  V30 9942 C 963.762 2.83491 2.47609 0
M  V30 9943 C 962.909 2.47239 1.2557 0
M  V30 9944 H 965.86 1.56387 0.269962 0
M  V30 9945 H 965.881 2.58487 2.79221 0
M  V30 9946 H 965.393 3.65239 1.31232 0
M  V30 9947 H 963.494 2.0008 3.14323 0
M  V30 9948 H 963.607 3.86011 2.83782 0
M  V30 9949 H 961.971 1.99332 1.58552 0
M  V30 9950 H 962.754 3.37255 0.641404 0
M  V30 9951 N 965.199 -0.738761 1.39212 0
M  V30 9952 C 966.149 -1.84376 1.34125 0
M  V30 9953 C 967.133 -1.5935 0.222793 0
M  V30 9954 O 968.325 -1.70918 0.460014 0
M  V30 9955 C 965.454 -3.22261 1.18334 0
M  V30 9956 C 964.54 -3.53129 2.34864 0
M  V30 9957 N 964.931 -3.54957 3.60332 0
M  V30 9958 C 963.229 -3.83472 2.27739 0
M  V30 9959 C 963.93 -3.83513 4.3737 0
M  V30 9960 N 962.906 -4.01097 3.66909 0
M  V30 9961 H 966.708 -1.84089 2.29104 0
M  V30 9962 H 964.222 -0.936826 1.32655 0
M  V30 9963 H 966.219 -4.01358 1.12772 0
M  V30 9964 H 964.879 -3.23789 0.243016 0
M  V30 9965 H 965.89 -3.36359 3.93806 0
M  V30 9966 H 962.567 -3.92628 1.41949 0
M  V30 9967 H 963.957 -3.91427 5.46109 0
M  V30 9968 N 966.677 -1.24326 -0.968545 0
M  V30 9969 C 967.905 -1.10947 -1.74638 0
M  V30 9970 C 968.32 0.338064 -1.85749 0
M  V30 9971 O 967.677 1.23331 -1.3452 0
M  V30 9972 C 967.728 -1.74254 -3.1673 0
M  V30 9973 O 967.449 -3.13347 -3.06178 0
M  V30 9974 C 968.95 -1.66473 -4.10855 0
M  V30 9975 H 966.17 -0.38767 -0.547679 0
M  V30 9976 H 968.714 -1.64415 -1.21605 0
M  V30 9977 H 966.869 -1.2479 -3.66751 0
M  V30 9978 H 967.283 -3.44255 -3.95713 0
M  V30 9979 H 968.757 -2.15452 -5.08217 0
M  V30 9980 H 969.234 -0.625785 -4.34719 0
M  V30 9981 H 969.84 -2.15359 -3.66743 0
M  V30 9982 N 968.156 1.1691 -1.05688 0
M  V30 9983 C 969.386 1.90927 -0.789339 0
M  V30 9984 C 969.794 1.77339 0.659369 0
M  V30 9985 O 969.137 1.11147 1.4626 0
M  V30 9986 C 969.199 3.42361 -1.09677 0
M  V30 9987 C 968.863 3.79733 -2.54267 0
M  V30 9988 C 969.86 3.82163 -3.52487 0
M  V30 9989 C 967.545 4.10547 -2.89406 0
M  V30 9990 C 969.539 4.14884 -4.8389 0
M  V30 9991 C 967.226 4.42936 -4.21011 0
M  V30 9992 C 968.224 4.45084 -5.18063 0
M  V30 9993 O 967.912 4.76707 -6.47307 0
M  V30 9994 H 967.644 0.612466 -0.286115 0
M  V30 9995 H 970.198 1.4916 -1.4121 0
M  V30 9996 H 968.428 3.84446 -0.416924 0
M  V30 9997 H 970.117 3.97645 -0.814456 0
M  V30 9998 H 970.883 3.58476 -3.26681 0
M  V30 9999 H 966.762 4.08044 -2.14525 0
M  V30 10000 H 970.306 4.16475 -5.59638 0
M  V30 10001 H 966.203 4.66088 -4.46579 0
M  V30 10002 H 966.971 4.94544 -6.52203 0
M  V30 10003 N 969.634 0.838594 1.33437 0
M  V30 10004 C 970.544 0.274048 2.32994 0
M  V30 10005 C 971.56 -0.599776 1.63336 0
M  V30 10006 O 972.736 -0.503963 1.94993 0
M  V30 10007 C 969.801 -0.541804 3.4244 0
M  V30 10008 C 968.862 0.356262 4.27819 0
M  V30 10009 C 968.095 -0.420747 5.32039 0
M  V30 10010 O 968.318 -1.65247 5.45939 0
M  V30 10011 O 967.252 0.205101 6.0155 0
M  V30 10012 H 971.078 1.09846 2.83139 0
M  V30 10013 H 968.663 0.601111 1.36774 0
M  V30 10014 H 970.545 -1.00544 4.0923 0
M  V30 10015 H 969.22 -1.34328 2.94513 0
M  V30 10016 H 968.127 0.867726 3.63897 0
M  V30 10017 H 969.46 1.1225 4.79229 0
M  V30 10018 N 971.112 -1.45937 0.595003 0
M  V30 10019 C 972.389 -1.95592 0.0178748 0
M  V30 10020 C 972.769 -1.53758 -1.44643 0
M  V30 10021 O 972.117 -0.794104 -2.14257 0
M  V30 10022 C 972.327 -3.4841 0.202789 0
M  V30 10023 C 973.675 -4.2453 0.0770121 0
M  V30 10024 O 974.699 -3.55954 0.132257 0
M  V30 10025 O 973.558 -5.46479 -0.0484271 0
M  V30 10026 H 970.652 -0.825888 -0.0428702 0
M  V30 10027 H 973.198 -1.56162 0.664184 0
M  V30 10028 H 971.97 -3.71787 1.22027 0
M  V30 10029 H 971.593 -3.947 -0.479376 0
M  V30 10030 N 972.59 -0.333456 -1.54032 0
M  V30 10031 C 974.001 0.15256 -1.86076 0
M  V30 10032 C 974.352 1.50819 -1.25492 0
M  V30 10033 O 973.477 2.08903 -0.564665 0
M  V30 10034 C 974.072 0.283599 -3.37611 0
M  V30 10035 C 972.631 0.713841 -3.69569 0
M  V30 10036 C 971.778 -0.158515 -2.76847 0
M  V30 10037 H 974.729 -0.553404 -1.48738 0
M  V30 10038 H 974.75 1.11284 -3.63863 0
M  V30 10039 H 974.262 -0.703193 -3.81676 0
M  V30 10040 H 972.363 1.71002 -3.31042 0
M  V30 10041 H 972.476 0.510731 -4.7637 0
M  V30 10042 H 970.84 0.367531 -2.52034 0
M  V30 10043 H 971.623 -1.14226 -3.2374 0
M  V30 10044 N 974.068 1.57479 -0.061844 0
M  V30 10045 C 975.016 2.13346 0.926629 0
M  V30 10046 C 976.01 1.06787 1.31502 0
M  V30 10047 O 977.216 1.25181 1.29343 0
M  V30 10048 H 973.591 0.682046 0.316729 0
M  V30 10049 H 975.562 2.95279 0.430424 0
M  V30 10050 C 974.311 2.70198 2.18834 0
M  V30 10051 H 973.634 3.51859 1.89829 0
M  V30 10052 H 975.074 3.12897 2.86132 0
M  V30 10053 C 973.533 1.64481 2.9402 0
M  V30 10054 O 974.063 1.0639 3.87355 0
M  V30 10055 N 972.269 1.35749 2.56944 0
M  V30 10056 H 971.816 1.83177 1.81119 0
M  V30 10057 H 971.774 0.652469 3.07555 0
M  V30 10058 N 975.546 -0.211634 1.56173 0
M  V30 10059 C 976.478 -1.286 1.89723 0
M  V30 10060 C 977.491 -1.42549 0.786361 0
M  V30 10061 O 978.68 -1.4327 1.06471 0
M  V30 10062 C 975.78 -2.66036 2.09948 0
M  V30 10063 C 974.953 -2.73908 3.41018 0
M  V30 10064 C 974.012 -3.92425 3.50555 0
M  V30 10065 O 973.038 -3.803 4.2351 0
M  V30 10066 N 974.24 -5.07165 2.82426 0
M  V30 10067 H 977.005 -1.00142 2.82474 0
M  V30 10068 H 974.566 -0.401633 1.56839 0
M  V30 10069 H 976.558 -3.43719 2.13634 0
M  V30 10070 H 975.128 -2.87052 1.23774 0
M  V30 10071 H 974.348 -1.82625 3.49345 0
M  V30 10072 H 975.636 -2.76145 4.27342 0
M  V30 10073 H 975.034 -5.19913 2.2295 0
M  V30 10074 H 973.591 -5.82855 2.9176 0
M  V30 10075 N 977.024 -1.50153 -0.478725 0
M  V30 10076 C 977.987 -1.67916 -1.56003 0
M  V30 10077 C 978.987 -0.550111 -1.51097 0
M  V30 10078 O 980.177 -0.817001 -1.53853 0
M  V30 10079 C 977.309 -1.6973 -2.95643 0
M  V30 10080 H 978.502 -2.6438 -1.41573 0
M  V30 10081 H 976.055 -1.39519 -0.704565 0
M  V30 10082 H 976.79 -0.749306 -3.15525 0
M  V30 10083 H 976.575 -2.51745 -3.00611 0
M  V30 10084 H 978.065 -1.85453 -3.74162 0
M  V30 10085 N 978.502 0.731368 -1.39602 0
M  V30 10086 C 979.748 1.49321 -1.37227 0
M  V30 10087 C 980.081 1.94176 0.0306502 0
M  V30 10088 O 979.356 1.67046 0.996294 0
M  V30 10089 C 979.639 2.73035 -2.34784 0
M  V30 10090 C 979.492 2.34176 -3.84033 0
M  V30 10091 C 980.811 3.75146 -2.30116 0
M  V30 10092 H 977.93 0.541652 -0.499783 0
M  V30 10093 H 980.572 0.835968 -1.70621 0
M  V30 10094 H 978.722 3.29114 -2.06437 0
M  V30 10095 H 980.394 1.83701 -4.23145 0
M  V30 10096 H 978.637 1.66361 -4.00633 0
M  V30 10097 H 979.308 3.22786 -4.47787 0
M  V30 10098 H 981.784 3.28661 -2.55189 0
M  V30 10099 H 980.66 4.5937 -3.00451 0
M  V30 10100 H 980.921 4.22326 -1.30741 0
M  V30 10101 N 979.98 1.24838 0.961938 0
M  V30 10102 C 980.93 1.01276 2.04272 0
M  V30 10103 C 981.914 -0.0478239 1.60829 0
M  V30 10104 O 983.106 0.166616 1.76214 0
M  V30 10105 C 980.235 0.625659 3.37551 0
M  V30 10106 C 979.321 1.72262 3.87539 0
M  V30 10107 N 979.712 2.95644 4.104 0
M  V30 10108 C 978.01 1.60146 4.16256 0
M  V30 10109 C 978.711 3.66796 4.51482 0
M  V30 10110 N 977.687 2.94383 4.56989 0
M  V30 10111 H 981.489 1.94956 2.19931 0
M  V30 10112 H 979.003 1.15049 1.14619 0
M  V30 10113 H 981 0.438072 4.14592 0
M  V30 10114 H 979.66 -0.303887 3.23275 0
M  V30 10115 H 980.671 3.31764 3.97685 0
M  V30 10116 H 977.348 0.740353 4.10883 0
M  V30 10117 H 978.738 4.72664 4.77534 0
M  V30 10118 N 981.458 -1.16348 1.06306 0
M  V30 10119 C 982.368 -2.24375 0.685059 0
M  V30 10120 C 983.384 -1.71413 -0.298956 0
M  V30 10121 O 984.56 -2.00854 -0.148239 0
M  V30 10122 C 981.625 -3.46614 0.0774088 0
M  V30 10123 C 980.686 -4.14613 1.11331 0
M  V30 10124 C 979.919 -5.31016 0.534559 0
M  V30 10125 O 980.142 -5.66654 -0.65265 0
M  V30 10126 O 979.076 -5.88256 1.27431 0
M  V30 10127 H 982.902 -2.59018 1.58566 0
M  V30 10128 H 980.487 -1.23865 0.835332 0
M  V30 10129 H 982.369 -4.20599 -0.259716 0
M  V30 10130 H 981.044 -3.13743 -0.796677 0
M  V30 10131 H 979.951 -3.42597 1.50261 0
M  V30 10132 H 981.284 -4.51538 1.95893 0
M  V30 10133 N 982.937 -0.845659 -1.3299 0
M  V30 10134 C 984.184 -0.444653 -1.97558 0
M  V30 10135 C 984.512 0.997682 -1.66963 0
M  V30 10136 O 983.767 1.71349 -0.94541 0
M  V30 10137 C 984.066 -0.6201 -3.51979 0
M  V30 10138 C 983.732 -2.03155 -4.02541 0
M  V30 10139 C 982.394 -2.4176 -4.16059 0
M  V30 10140 C 984.746 -2.95317 -4.29462 0
M  V30 10141 C 982.074 -3.71818 -4.53837 0
M  V30 10142 C 984.426 -4.24863 -4.68694 0
M  V30 10143 C 983.09 -4.63416 -4.80419 0
M  V30 10144 H 982.36 -0.16271 -0.722915 0
M  V30 10145 H 985.007 -1.07399 -1.58549 0
M  V30 10146 H 983.312 0.092513 -3.91691 0
M  V30 10147 H 985.009 -0.290012 -3.9995 0
M  V30 10148 H 981.599 -1.72174 -3.92497 0
M  V30 10149 H 985.783 -2.66726 -4.18534 0
M  V30 10150 H 981.039 -4.01484 -4.61108 0
M  V30 10151 H 985.213 -4.96347 -4.8848 0
M  V30 10152 H 982.84 -5.6424 -5.09448 0
M  V30 10153 N 984.415 1.45619 -0.602734 0
M  V30 10154 C 985.378 2.28941 0.108962 0
M  V30 10155 C 986.378 1.39501 0.799762 0
M  V30 10156 O 987.568 1.61673 0.648663 0
M  V30 10157 C 984.7 3.204 1.16432 0
M  V30 10158 H 985.893 2.93346 -0.623534 0
M  V30 10159 H 983.446 1.52061 -0.361565 0
M  V30 10160 H 984.181 2.60785 1.92774 0
M  V30 10161 H 983.966 3.86277 0.673248 0
M  V30 10162 H 985.456 3.83063 1.6629 0
M  V30 10163 N 985.893 0.34162 1.53853 0
M  V30 10164 C 986.84 -0.516058 2.24957 0
M  V30 10165 C 987.81 -1.09711 1.2471 0
M  V30 10166 O 988.995 -1.13409 1.53438 0
M  V30 10167 C 986.135 -1.66207 3.02439 0
M  V30 10168 C 985.248 -1.10851 4.17536 0
M  V30 10169 C 984.383 -2.22167 4.82509 0
M  V30 10170 C 983.422 -1.64152 5.89678 0
M  V30 10171 N 982.559 -2.69203 6.4844 0
M  V30 10172 H 987.399 0.0968275 2.97843 0
M  V30 10173 H 984.936 0.0595565 1.46979 0
M  V30 10174 H 986.894 -2.33672 3.4562 0
M  V30 10175 H 985.524 -2.24597 2.31853 0
M  V30 10176 H 984.576 -0.324853 3.7901 0
M  V30 10177 H 985.888 -0.644151 4.94623 0
M  V30 10178 H 985.042 -2.97501 5.28751 0
M  V30 10179 H 983.781 -2.71946 4.04842 0
M  V30 10180 H 982.786 -0.873228 5.42821 0
M  V30 10181 H 984.011 -1.15228 6.69253 0
M  V30 10182 H 981.957 -3.1824 5.73637 0
M  V30 10183 H 981.874 -2.27383 7.20994 0
M  V30 10184 H 983.142 -3.44312 6.99335 0
M  V30 10185 N 987.371 -1.57444 0.0701946 0
M  V30 10186 C 988.281 -2.16132 -0.912377 0
M  V30 10187 C 989.297 -1.12406 -1.32819 0
M  V30 10188 O 990.473 -1.44665 -1.40121 0
M  V30 10189 C 987.538 -2.71008 -2.16231 0
M  V30 10190 C 986.599 -3.896 -1.80306 0
M  V30 10191 C 985.832 -4.4185 -2.9934 0
M  V30 10192 O 986.055 -3.93106 -4.13309 0
M  V30 10193 O 984.989 -5.33201 -2.7925 0
M  V30 10194 H 988.815 -3.00449 -0.443167 0
M  V30 10195 H 986.4 -1.48617 -0.152786 0
M  V30 10196 H 988.282 -3.06186 -2.8953 0
M  V30 10197 H 986.957 -1.8975 -2.62253 0
M  V30 10198 H 985.864 -3.59277 -1.04264 0
M  V30 10199 H 987.197 -4.72145 -1.39068 0
M  V30 10200 N 988.849 0.203349 -1.56283 0
M  V30 10201 C 990.098 0.92315 -1.79334 0
M  V30 10202 C 990.411 1.84765 -0.641977 0
M  V30 10203 O 991.617 2.60745 -0.756584 0
M  V30 10204 C 990.073 1.69184 -3.17655 0
M  V30 10205 C 989.681 0.812581 -4.40569 0
M  V30 10206 C 991.425 2.40177 -3.50022 0
M  V30 10207 C 989.332 1.57967 -5.69913 0
M  V30 10208 H 988.262 0.348442 -0.668659 0
M  V30 10209 H 990.913 0.1766 -1.82648 0
M  V30 10210 H 989.295 2.48197 -3.08568 0
M  V30 10211 H 990.469 0.0616956 -4.60759 0
M  V30 10212 H 988.784 0.21389 -4.1585 0
M  V30 10213 H 991.381 2.98103 -4.4389 0
M  V30 10214 H 991.724 3.13961 -2.73376 0
M  V30 10215 H 992.257 1.68138 -3.6052 0
M  V30 10216 H 988.996 0.884767 -6.49501 0
M  V30 10217 H 988.516 2.3047 -5.53754 0
M  V30 10218 H 990.195 2.13562 -6.10737 0
M  V30 10219 N 990.327 1.50405 0.470755 0
M  V30 10220 C 991.237 1.7208 1.59454 0
M  V30 10221 C 992.253 0.603932 1.63183 0
M  V30 10222 O 993.429 0.882296 1.81046 0
M  V30 10223 C 990.494 1.81057 2.95667 0
M  V30 10224 C 989.555 3.04792 3.02324 0
M  V30 10225 C 988.788 3.13332 4.3204 0
M  V30 10226 O 989.011 2.28655 5.22564 0
M  V30 10227 O 987.945 4.0606 4.44296 0
M  V30 10228 H 991.771 2.67343 1.44089 0
M  V30 10229 H 989.356 1.34505 0.650286 0
M  V30 10230 H 991.238 1.8914 3.76569 0
M  V30 10231 H 989.913 0.889782 3.11231 0
M  V30 10232 H 988.82 3.0221 2.205 0
M  V30 10233 H 990.153 3.96451 2.91698 0
M  V30 10234 N 991.805 -0.723954 1.39988 0
M  V30 10235 C 992.768 -1.81973 1.3935 0
M  V30 10236 C 993.768 -1.58187 0.288702 0
M  V30 10237 O 994.958 -1.65383 0.547181 0
M  V30 10238 C 992.09 -3.19937 1.177 0
M  V30 10239 H 993.283 -1.83939 2.36868 0
M  V30 10240 H 990.836 -0.928742 1.25714 0
M  V30 10241 H 991.571 -3.23625 0.209093 0
M  V30 10242 H 991.356 -3.386 1.97719 0
M  V30 10243 H 992.846 -3.99981 1.20022 0
M  V30 10244 N 993.283 -1.25346 -0.955304 0
M  V30 10245 C 994.508 -1.12892 -1.73983 0
M  V30 10246 C 994.933 0.313455 -1.8547 0
M  V30 10247 O 994.291 1.22706 -1.33465 0
M  V30 10248 C 994.339 -1.78729 -3.1319 0
M  V30 10249 O 993.443 -1.06648 -3.98372 0
M  V30 10250 H 992.784 -0.394178 -0.534341 0
M  V30 10251 H 995.314 -1.65897 -1.19747 0
M  V30 10252 H 995.324 -1.84987 -3.63653 0
M  V30 10253 H 993.999 -2.83669 -3.04146 0
M  V30 10254 H 992.576 -1.08266 -3.56837 0
M  V30 10255 N 994.761 1.15782 -1.06922 0
M  V30 10256 C 996.001 1.88135 -0.799043 0
M  V30 10257 C 996.365 1.80203 0.662632 0
M  V30 10258 O 997.566 2.47543 1.04767 0
M  V30 10259 C 995.837 3.3339 -1.28786 0
M  V30 10260 S 997.396 4.23525 -1.1477 0
M  V30 10261 H 994.214 0.649313 -0.289679 0
M  V30 10262 H 996.816 1.3972 -1.36743 0
M  V30 10263 H 995.52 3.36705 -2.34645 0
M  V30 10264 H 995.051 3.86857 -0.714489 0
M  V30 10265 H 997.066 4.96131 -0.0825264 0
M  V30 10266 N 996.239 0.8527 1.3254 0
M  V30 10267 C 997.488 0.45136 1.96585 0
M  V30 10268 C 997.801 -0.997773 1.68237 0
M  V30 10269 O 999.007 -1.50445 2.26006 0
M  V30 10270 C 997.463 0.75619 3.51866 0
M  V30 10271 C 997.071 2.22092 3.89075 0
M  V30 10272 C 998.815 0.422478 4.22392 0
M  V30 10273 C 996.722 2.46908 5.37392 0
M  V30 10274 H 995.652 0.165052 0.735713 0
M  V30 10275 H 998.303 1.04321 1.50962 0
M  V30 10276 H 996.685 0.0937988 3.95889 0
M  V30 10277 H 997.859 2.92494 3.56067 0
M  V30 10278 H 996.174 2.51896 3.31568 0
M  V30 10279 H 998.771 0.58533 5.31487 0
M  V30 10280 H 999.114 -0.635737 4.11417 0
M  V30 10281 H 999.647 1.04068 3.83946 0
M  V30 10282 H 996.386 3.51346 5.53386 0
M  V30 10283 H 995.906 1.81082 5.71812 0
M  V30 10284 H 997.585 2.30758 6.0445 0
M  V30 10285 N 997.718 -1.45297 0.610449 0
M  V30 10286 C 998.946 -2.0659 0.113211 0
M  V30 10287 C 999.361 -1.4546 -1.20361 0
M  V30 10288 O 998.718 -0.569823 -1.73376 0
M  V30 10289 C 998.769 -3.61488 -0.0298411 0
M  V30 10290 O 998.49 -4.20336 1.23488 0
M  V30 10291 C 999.991 -4.39772 -0.558202 0
M  V30 10292 H 997.211 -0.667322 0.0701555 0
M  V30 10293 H 999.755 -1.86497 0.838993 0
M  V30 10294 H 997.91 -3.80913 -0.705963 0
M  V30 10295 H 998.324 -5.13545 1.0664 0
M  V30 10296 H 999.798 -5.48648 -0.607375 0
M  V30 10297 H 1000.27 -4.09755 -1.58107 0
M  V30 10298 H 1000.88 -4.25217 0.0839704 0
M  V30 10299 N 999.196 -0.349774 -1.5367 0
M  V30 10300 C 1000.44 0.245862 -2.00196 0
M  V30 10301 C 1000.76 1.51154 -1.24144 0
M  V30 10302 O 1001.96 2.18481 -1.61178 0
M  V30 10303 C 1000.42 0.488665 -3.56567 0
M  V30 10304 C 1000.03 -0.761475 -4.41481 0
M  V30 10305 C 1001.77 1.04282 -4.11492 0
M  V30 10306 C 999.679 -0.489128 -5.89374 0
M  V30 10307 H 998.609 0.0956493 -0.747909 0
M  V30 10308 H 1001.26 -0.466068 -1.77483 0
M  V30 10309 H 999.642 1.26145 -3.75371 0
M  V30 10310 H 1000.82 -1.53585 -4.34452 0
M  V30 10311 H 999.131 -1.23771 -3.9758 0
M  V30 10312 H 1001.73 1.26164 -5.19603 0
M  V30 10313 H 1002.07 2.00023 -3.65098 0
M  V30 10314 H 1002.6 0.330582 -3.96424 0
M  V30 10315 H 999.343 -1.41643 -6.40014 0
M  V30 10316 H 998.863 0.247039 -5.99291 0
M  V30 10317 H 1000.54 -0.1087 -6.46909 0
M  V30 10318 N 1000.67 1.57404 -0.0785433 0
M  V30 10319 C 1001.58 2.16612 0.900902 0
M  V30 10320 C 1002.6 1.13109 1.32221 0
M  V30 10321 O 1003.78 1.45406 1.39352 0
M  V30 10322 C 1000.84 2.7215 2.14791 0
M  V30 10323 C 999.902 3.90551 1.78237 0
M  V30 10324 C 999.135 4.43431 2.96993 0
M  V30 10325 O 999.358 3.95292 4.11218 0
M  V30 10326 O 998.292 5.34674 2.76418 0
M  V30 10327 H 1002.12 3.0068 0.427227 0
M  V30 10328 H 999.703 1.48696 0.144902 0
M  V30 10329 H 1001.58 3.07718 2.87902 0
M  V30 10330 H 1000.26 1.91139 2.61243 0
M  V30 10331 H 999.167 3.59825 1.02357 0
M  V30 10332 H 1000.5 4.72876 1.36562 0
M  V30 10333 N 1002.15 -0.195058 1.56388 0
M  V30 10334 C 1003.57 -0.545894 1.49974 0
M  V30 10335 C 1003.77 -1.85851 0.778568 0
M  V30 10336 O 1002.82 -2.50346 0.329105 0
M  V30 10337 C 1004.14 -0.600599 2.94641 0
M  V30 10338 C 1005.68 -0.689429 3.05313 0
M  V30 10339 C 1006.16 -0.775243 4.51391 0
M  V30 10340 N 1007.65 -0.838769 4.55542 0
M  V30 10341 C 1008.39 -0.925337 5.65884 0
M  V30 10342 N 1007.88 -0.974204 6.85916 0
M  V30 10343 N 1009.67 -0.962528 5.53798 0
M  V30 10344 H 1001.83 0.66595 2.0169 0
M  V30 10345 H 1004.09 0.237215 0.917842 0
M  V30 10346 H 1003.79 0.29478 3.50462 0
M  V30 10347 H 1003.67 -1.45528 3.47996 0
M  V30 10348 H 1006.06 -1.57524 2.4954 0
M  V30 10349 H 1006.14 0.191451 2.55083 0
M  V30 10350 H 1005.78 0.106215 5.07789 0
M  V30 10351 H 1005.71 -1.67193 4.99354 0
M  V30 10352 H 1008.2 -0.810249 3.69112 0
M  V30 10353 H 1008.51 -1.04077 7.6576 0
M  V30 10354 H 1006.86 -0.942881 6.88574 0
M  V30 10355 H 1010.05 -0.921188 4.58946 0
M  V30 10356 H 1010.22 -1.02653 6.39817 0
M  V30 10357 N 1003.63 -1.50653 -0.462772 0
M  V30 10358 C 1004.88 -1.62297 -1.21603 0
M  V30 10359 C 1005.21 -0.326191 -1.91441 0
M  V30 10360 O 1004.48 0.67284 -1.82491 0
M  V30 10361 C 1004.77 -2.80901 -2.25315 0
M  V30 10362 C 1004.62 -4.20484 -1.59728 0
M  V30 10363 C 1005.94 -2.95049 -3.26549 0
M  V30 10364 H 1003.06 -0.590691 -0.440741 0
M  V30 10365 H 1005.7 -1.83064 -0.508675 0
M  V30 10366 H 1003.85 -2.63325 -2.85643 0
M  V30 10367 H 1005.52 -4.49669 -1.02932 0
M  V30 10368 H 1003.76 -4.24357 -0.900181 0
M  V30 10369 H 1004.44 -4.99416 -2.35133 0
M  V30 10370 H 1006.91 -3.11166 -2.76251 0
M  V30 10371 H 1005.79 -3.79645 -3.96435 0
M  V30 10372 H 1006.05 -2.06019 -3.91163 0
M  V30 10373 N 1005.11 0.71652 -1.4037 0
M  V30 10374 C 1006.36 1.47193 -1.37903 0
M  V30 10375 C 1006.67 1.95593 0.0159939 0
M  V30 10376 O 1007.88 2.71009 0.163282 0
M  V30 10377 C 1006.33 2.6606 -2.42363 0
M  V30 10378 C 1005.94 2.24533 -3.87671 0
M  V30 10379 C 1007.68 3.438 -2.49001 0
M  V30 10380 C 1005.59 3.40234 -4.8373 0
M  V30 10381 H 1004.52 0.552811 -0.512753 0
M  V30 10382 H 1007.17 0.779894 -1.66102 0
M  V30 10383 H 1005.55 3.37429 -2.07262 0
M  V30 10384 H 1006.73 1.6059 -4.31911 0
M  V30 10385 H 1005.04 1.59839 -3.845 0
M  V30 10386 H 1007.64 4.29893 -3.17956 0
M  V30 10387 H 1007.98 3.8755 -1.52023 0
M  V30 10388 H 1008.52 2.79474 -2.83088 0
M  V30 10389 H 1005.26 3.01517 -5.82037 0
M  V30 10390 H 1004.78 4.03095 -4.44156 0
M  V30 10391 H 1006.45 4.06312 -5.03507 0
M  V30 10392 N 1006.59 1.25851 0.948643 0
M  V30 10393 C 1007.83 1.10735 1.69062 0
M  V30 10394 C 1008.16 -0.351257 1.9181 0
M  V30 10395 O 1007.43 -1.24867 1.50947 0
M  V30 10396 H 1006.01 0.406796 0.626519 0
M  V30 10397 H 1008.67 1.58066 1.14022 0
M  V30 10398 H 1007.76 1.62033 2.66743 0
M  V30 10399 N 1008.06 -1.15214 1.07534 0
M  V30 10400 C 1009.03 -2.18209 0.701237 0
M  V30 10401 C 1010.03 -1.58693 -0.25946 0
M  V30 10402 O 1011.22 -1.74154 -0.0401744 0
M  V30 10403 C 1008.35 -3.40883 0.0338703 0
M  V30 10404 H 1009.54 -2.5282 1.61314 0
M  V30 10405 H 1007.1 -1.29707 0.872105 0
M  V30 10406 H 1007.83 -3.11843 -0.890187 0
M  V30 10407 H 1007.62 -3.85342 0.72486 0
M  V30 10408 H 1009.11 -4.17056 -0.213152 0
M  V30 10409 N 1009.54 -0.859717 -1.32086 0
M  V30 10410 C 1010.79 -0.464662 -1.96686 0
M  V30 10411 C 1011.11 0.98412 -1.68345 0
M  V30 10412 O 1010.38 1.68847 -0.993361 0
M  V30 10413 H 1008.96 -0.168838 -0.727669 0
M  V30 10414 H 1011.62 -1.09726 -1.61079 0
M  V30 10415 H 1010.72 -0.613904 -3.06003 0
M  V30 10416 N 1011.02 1.44971 -0.618145 0
M  V30 10417 C 1011.93 2.34403 0.0960457 0
M  V30 10418 C 1012.95 1.51862 0.849355 0
M  V30 10419 O 1014.12 1.84632 0.804557 0
M  V30 10420 C 1011.19 3.29646 1.07397 0
M  V30 10421 C 1010.25 4.28095 0.321466 0
M  V30 10422 C 1009.48 5.18787 1.25281 0
M  V30 10423 O 1009.7 5.1313 2.49106 0
M  V30 10424 O 1008.64 5.97282 0.744156 0
M  V30 10425 H 1012.46 2.96898 -0.639176 0
M  V30 10426 H 1010.05 1.44529 -0.37837 0
M  V30 10427 H 1011.93 3.88307 1.63694 0
M  V30 10428 H 1010.61 2.69702 1.79004 0
M  V30 10429 H 1009.51 3.73019 -0.284223 0
M  V30 10430 H 1010.85 4.90923 -0.354315 0
M  V30 10431 N 1012.5 0.357919 1.53482 0
M  V30 10432 C 1013.75 -0.234163 2.01142 0
M  V30 10433 C 1014.07 -1.49399 1.2454 0
M  V30 10434 O 1013.33 -1.92981 0.325111 0
M  V30 10435 C 1013.63 -0.579617 3.52669 0
M  V30 10436 C 1013.29 0.584988 4.47089 0
M  V30 10437 C 1011.96 0.904558 4.72622 0
M  V30 10438 C 1014.31 1.3656 5.02992 0
M  V30 10439 C 1011.64 2.00685 5.5131 0
M  V30 10440 C 1013.99 2.45824 5.82884 0
M  V30 10441 C 1012.65 2.78325 6.06706 0
M  V30 10442 H 1011.92 -0.0856863 0.736029 0
M  V30 10443 H 1014.57 0.488801 1.85157 0
M  V30 10444 H 1012.87 -1.38349 3.66561 0
M  V30 10445 H 1014.57 -1.04985 3.87013 0
M  V30 10446 H 1011.16 0.32587 4.27359 0
M  V30 10447 H 1015.34 1.13196 4.83219 0
M  V30 10448 H 1010.6 2.26272 5.67988 0
M  V30 10449 H 1014.77 3.06732 6.25211 0
M  V30 10450 H 1012.4 3.63862 6.67464 0
M  V30 10451 N 1013.98 -1.5736 0.0868897 0
M  V30 10452 C 1015.22 -1.9367 -0.577598 0
M  V30 10453 C 1015.55 -0.968844 -1.69229 0
M  V30 10454 O 1014.82 -0.0195061 -1.9589 0
M  V30 10455 H 1013.4 -0.714983 -0.216353 0
M  V30 10456 H 1016.06 -1.94335 0.148294 0
M  V30 10457 H 1015.15 -2.95877 -0.993128 0
M  V30 10458 N 1015.45 0.186762 -1.56489 0
M  V30 10459 C 1016.36 1.25169 -1.98419 0
M  V30 10460 C 1017.38 1.49329 -0.893124 0
M  V30 10461 O 1018.56 1.61781 -1.19954 0
M  V30 10462 C 1015.62 2.57422 -2.32239 0
M  V30 10463 C 1014.68 2.4126 -3.55095 0
M  V30 10464 C 1013.92 3.67206 -3.87292 0
M  V30 10465 O 1014.14 4.71731 -3.20665 0
M  V30 10466 O 1013.07 3.62238 -4.80695 0
M  V30 10467 H 1016.9 0.925834 -2.89244 0
M  V30 10468 H 1014.48 0.392421 -1.44154 0
M  V30 10469 H 1016.37 3.35466 -2.5503 0
M  V30 10470 H 1015.04 2.89618 -1.44579 0
M  V30 10471 H 1013.95 1.61299 -3.37541 0
M  V30 10472 H 1015.28 2.13994 -4.43247 0
M  V30 10473 N 1016.93 1.50896 0.454776 0
M  V30 10474 C 1018.18 1.6294 1.20741 0
M  V30 10475 C 1018.51 0.336339 1.91265 0
M  V30 10476 O 1017.79 -0.663153 1.82846 0
M  V30 10477 C 1018.07 2.82092 2.23822 0
M  V30 10478 C 1017.92 4.21326 1.57495 0
M  V30 10479 C 1019.24 2.96777 3.24979 0
M  V30 10480 H 1016.36 0.59302 0.437603 0
M  V30 10481 H 1019 1.83331 0.498959 0
M  V30 10482 H 1017.15 2.64837 2.84243 0
M  V30 10483 H 1018.82 4.50209 1.00546 0
M  V30 10484 H 1017.07 4.24829 0.877664 0
M  V30 10485 H 1017.74 5.00656 2.32482 0
M  V30 10486 H 1020.21 3.12627 2.74597 0
M  V30 10487 H 1019.09 3.81742 3.94416 0
M  V30 10488 H 1019.35 2.08091 3.90065 0
M  V30 10489 N 1018.41 -0.709066 1.40748 0
M  V30 10490 C 1019.65 -1.48139 1.40834 0
M  V30 10491 C 1020.01 -1.91996 0.0117625 0
M  V30 10492 O 1021.22 -2.68564 -0.112524 0
M  V30 10493 C 1019.49 -2.67009 2.37573 0
M  V30 10494 S 1021.05 -3.56331 2.56073 0
M  V30 10495 H 1017.86 -0.506396 0.499084 0
M  V30 10496 H 1020.47 -0.828588 1.77072 0
M  V30 10497 H 1019.17 -2.32971 3.37865 0
M  V30 10498 H 1018.7 -3.37195 2.02641 0
M  V30 10499 H 1020.72 -4.61695 1.81803 0
M  V30 10500 N 1019.89 -1.26353 -0.941956 0
M  V30 10501 C 1021.11 -1.14731 -1.72776 0
M  V30 10502 C 1021.54 0.293766 -1.85792 0
M  V30 10503 O 1020.9 1.21284 -1.34759 0
M  V30 10504 C 1020.95 -1.82041 -3.11277 0
M  V30 10505 O 1020.05 -1.10867 -3.97218 0
M  V30 10506 H 1019.39 -0.399823 -0.53013 0
M  V30 10507 H 1021.92 -1.67157 -1.17981 0
M  V30 10508 H 1021.93 -1.88834 -3.61671 0
M  V30 10509 H 1020.61 -2.86879 -3.0112 0
M  V30 10510 H 1019.18 -1.12044 -3.55669 0
M  V30 10511 N 1021.37 1.14642 -1.08144 0
M  V30 10512 C 1022.62 1.8525 -0.807885 0
M  V30 10513 C 1022.94 1.83194 0.668213 0
M  V30 10514 O 1022.21 1.27848 1.48431 0
M  V30 10515 H 1020.79 0.685909 -0.295868 0
M  V30 10516 H 1023.45 1.38935 -1.36686 0
M  V30 10517 H 1022.54 2.90155 -1.14964 0
M  V30 10518 N 1022.85 0.866709 1.31628 0
M  V30 10519 C 1024.26 0.558188 1.49521 0
M  V30 10520 C 1024.46 -0.90844 1.7986 0
M  V30 10521 O 1023.52 -1.6908 1.87531 0
M  V30 10522 C 1024.83 1.45559 2.63122 0
M  V30 10523 C 1026.38 1.45728 2.77006 0
M  V30 10524 C 1026.85 2.34017 3.937 0
M  V30 10525 N 1028.34 2.31879 4.00982 0
M  V30 10526 C 1029.08 2.96915 4.90539 0
M  V30 10527 N 1028.58 3.71109 5.85021 0
M  V30 10528 N 1030.37 2.86241 4.83759 0
M  V30 10529 H 1022.52 1.81574 1.10203 0
M  V30 10530 H 1024.78 0.77621 0.544244 0
M  V30 10531 H 1024.49 2.49904 2.47469 0
M  V30 10532 H 1024.36 1.15174 3.59186 0
M  V30 10533 H 1026.75 0.421419 2.92075 0
M  V30 10534 H 1026.83 1.80134 1.81619 0
M  V30 10535 H 1026.47 3.37678 3.79389 0
M  V30 10536 H 1026.4 1.96937 4.88388 0
M  V30 10537 H 1028.9 1.77948 3.33381 0
M  V30 10538 H 1029.21 4.1787 6.5008 0
M  V30 10539 H 1027.55 3.75217 5.8501 0
M  V30 10540 H 1030.74 2.27819 4.08921 0
M  V30 10541 H 1030.92 3.37206 5.5335 0
M  V30 10542 N 1024.32 -1.44642 0.625825 0
M  V30 10543 C 1025.25 -2.33397 -0.0692188 0
M  V30 10544 C 1026.23 -1.47898 -0.840241 0
M  V30 10545 O 1027.42 -1.7663 -0.807176 0
M  V30 10546 C 1024.55 -3.30888 -1.055 0
M  V30 10547 C 1023.5 -4.26164 -0.395968 0
M  V30 10548 C 1022.83 -5.13483 -1.49128 0
M  V30 10549 C 1024.13 -5.17663 0.694433 0
M  V30 10550 H 1025.82 -2.91763 0.671925 0
M  V30 10551 H 1023.37 -1.40294 0.324573 0
M  V30 10552 H 1025.32 -3.91861 -1.54993 0
M  V30 10553 H 1024.05 -2.7072 -1.82696 0
M  V30 10554 H 1022.71 -3.66516 0.0782691 0
M  V30 10555 H 1022.35 -4.49672 -2.25399 0
M  V30 10556 H 1022.05 -5.78038 -1.05573 0
M  V30 10557 H 1023.58 -5.77327 -1.98813 0
M  V30 10558 H 1024.99 -5.72602 0.282818 0
M  V30 10559 H 1023.39 -5.90793 1.05281 0
M  V30 10560 H 1024.46 -4.58994 1.56372 0
M  V30 10561 N 1025.8 -0.366053 -1.5329 0
M  V30 10562 C 1026.75 0.480205 -2.25749 0
M  V30 10563 C 1027.72 1.07713 -1.2644 0
M  V30 10564 O 1028.9 1.10953 -1.55222 0
M  V30 10565 C 1026.04 1.61374 -3.05045 0
M  V30 10566 C 1025.16 1.04194 -4.19246 0
M  V30 10567 C 1024.29 2.14462 -4.85983 0
M  V30 10568 C 1023.33 1.5475 -5.92215 0
M  V30 10569 N 1022.47 2.58852 -6.52641 0
M  V30 10570 H 1027.31 -0.144199 -2.97651 0
M  V30 10571 H 1024.84 -0.0829321 -1.46866 0
M  V30 10572 H 1026.8 2.28144 -3.49294 0
M  V30 10573 H 1025.43 2.2088 -2.35397 0
M  V30 10574 H 1024.48 0.264514 -3.79479 0
M  V30 10575 H 1025.8 0.565379 -4.95585 0
M  V30 10576 H 1024.95 2.89051 -5.33418 0
M  V30 10577 H 1023.69 2.6547 -4.09117 0
M  V30 10578 H 1022.69 0.786759 -5.44142 0
M  V30 10579 H 1023.92 1.04566 -6.71001 0
M  V30 10580 H 1021.87 3.09073 -5.78627 0
M  V30 10581 H 1021.78 2.15884 -7.24521 0
M  V30 10582 H 1023.05 3.33142 -7.04724 0
M  V30 10583 N 1027.28 1.57312 -0.0952337 0
M  V30 10584 C 1028.21 2.17056 0.860753 0
M  V30 10585 C 1029.19 1.10394 1.29411 0
M  V30 10586 O 1030.38 1.38532 1.36098 0
M  V30 10587 C 1027.51 2.751 2.11984 0
M  V30 10588 C 1026.46 3.87136 1.8251 0
M  V30 10589 C 1025.79 4.31883 3.15247 0
M  V30 10590 C 1027.09 5.10326 1.11194 0
M  V30 10591 H 1028.78 2.97192 0.362983 0
M  V30 10592 H 1026.33 1.42955 0.173151 0
M  V30 10593 H 1028.28 3.15547 2.79299 0
M  V30 10594 H 1027 1.92219 2.64044 0
M  V30 10595 H 1025.66 3.47229 1.17592 0
M  V30 10596 H 1025.31 3.45893 3.65195 0
M  V30 10597 H 1025.01 5.0742 2.96309 0
M  V30 10598 H 1026.53 4.74964 3.83721 0
M  V30 10599 H 1027.95 5.47942 1.6862 0
M  V30 10600 H 1026.34 5.91293 1.02435 0
M  V30 10601 H 1027.41 4.84807 0.0947227 0
M  V30 10602 N 1028.76 -0.17846 1.56586 0
M  V30 10603 C 1030.17 -0.741599 1.71339 0
M  V30 10604 C 1030.52 -1.83112 0.704579 0
M  V30 10605 O 1029.64 -2.15975 -0.135557 0
M  V30 10606 C 1030.24 -1.35198 3.10656 0
M  V30 10607 C 1028.8 -1.86202 3.27118 0
M  V30 10608 C 1027.95 -0.738255 2.67292 0
M  V30 10609 H 1030.9 0.0468424 1.58631 0
M  V30 10610 H 1030.92 -2.2216 3.0891 0
M  V30 10611 H 1030.43 -0.558776 3.84056 0
M  V30 10612 H 1028.53 -2.68188 2.58661 0
M  V30 10613 H 1028.64 -2.01237 4.34788 0
M  V30 10614 H 1027.01 -1.15686 2.26912 0
M  V30 10615 H 1027.79 0.0429821 3.43273 0
M  V30 10616 N 1030.24 -1.51135 -0.446768 0
M  V30 10617 C 1031.48 -1.63013 -1.19461 0
M  V30 10618 C 1031.8 -0.344067 -1.91941 0
M  V30 10619 O 1031.07 0.639666 -1.85162 0
M  V30 10620 H 1029.65 -0.600757 -0.443959 0
M  V30 10621 H 1032.32 -1.88024 -0.513137 0
M  V30 10622 H 1031.41 -2.45322 -1.92933 0
M  V30 10623 N 1031.71 0.701592 -1.41122 0
M  V30 10624 C 1032.66 1.81559 -1.42495 0
M  V30 10625 C 1033.63 1.63722 -0.280078 0
M  V30 10626 O 1034.82 1.84658 -0.480231 0
M  V30 10627 C 1031.96 3.19392 -1.30702 0
M  V30 10628 C 1031.07 3.48704 -2.55009 0
M  V30 10629 C 1030.2 4.76118 -2.35554 0
M  V30 10630 C 1029.24 4.98378 -3.55367 0
M  V30 10631 N 1028.38 6.17014 -3.3502 0
M  V30 10632 H 1033.22 1.7972 -2.37707 0
M  V30 10633 H 1030.76 0.877727 -1.18044 0
M  V30 10634 H 1032.71 3.99004 -1.21867 0
M  V30 10635 H 1031.34 3.20423 -0.391012 0
M  V30 10636 H 1030.4 2.63542 -2.74317 0
M  V30 10637 H 1031.71 3.61057 -3.44151 0
M  V30 10638 H 1030.86 5.63774 -2.24152 0
M  V30 10639 H 1029.6 4.66 -1.43859 0
M  V30 10640 H 1028.61 4.09172 -3.6723 0
M  V30 10641 H 1029.83 5.10359 -4.48007 0
M  V30 10642 H 1027.78 6.0812 -2.4602 0
M  V30 10643 H 1027.69 6.30107 -4.17733 0
M  V30 10644 H 1028.96 7.0742 -3.27379 0
M  V30 10645 N 1033.19 1.2685 0.935242 0
M  V30 10646 C 1034.61 1.04091 1.20984 0
M  V30 10647 C 1034.81 -0.230242 2.0018 0
M  V30 10648 O 1033.86 -0.93778 2.3444 0
M  V30 10649 C 1035.18 2.27586 1.96533 0
M  V30 10650 C 1036.72 2.32547 2.09501 0
M  V30 10651 C 1037.2 3.55751 2.88454 0
M  V30 10652 N 1038.69 3.56263 2.96025 0
M  V30 10653 C 1039.43 4.48262 3.57559 0
M  V30 10654 N 1038.92 5.50557 4.20546 0
M  V30 10655 N 1040.71 4.35901 3.5489 0
M  V30 10656 H 1032.87 2.08484 0.405954 0
M  V30 10657 H 1035.13 0.916548 0.242164 0
M  V30 10658 H 1034.83 3.20076 1.45753 0
M  V30 10659 H 1034.71 2.32305 2.97177 0
M  V30 10660 H 1037.1 1.40568 2.5947 0
M  V30 10661 H 1037.18 2.31836 1.08101 0
M  V30 10662 H 1036.82 4.48063 2.3917 0
M  V30 10663 H 1036.75 3.53711 3.90123 0
M  V30 10664 H 1039.24 2.82278 2.51252 0
M  V30 10665 H 1039.55 6.16935 4.65415 0
M  V30 10666 H 1037.9 5.54407 4.19115 0
M  V30 10667 H 1041.09 3.552 3.04879 0
M  V30 10668 H 1041.26 5.07792 4.02557 0
M  V30 10669 N 1034.67 -1.14067 1.0875 0
M  V30 10670 C 1035.58 -2.22871 0.732498 0
M  V30 10671 C 1036.6 -1.72008 -0.26253 0
M  V30 10672 O 1037.77 -2.01123 -0.105601 0
M  V30 10673 C 1034.84 -3.46371 0.150913 0
M  V30 10674 C 1033.9 -4.12158 1.201 0
M  V30 10675 C 1033.13 -5.29763 0.647075 0
M  V30 10676 O 1033.35 -5.67911 -0.532307 0
M  V30 10677 O 1032.29 -5.8542 1.3988 0
M  V30 10678 H 1036.11 -2.55596 1.64025 0
M  V30 10679 H 1033.7 -1.22065 0.861417 0
M  V30 10680 H 1035.58 -4.21055 -0.170442 0
M  V30 10681 H 1034.26 -3.15362 -0.729948 0
M  V30 10682 H 1033.16 -3.39332 1.57494 0
M  V30 10683 H 1034.5 -4.47282 2.05426 0
M  V30 10684 N 1036.15 -0.873678 -1.31166 0
M  V30 10685 C 1037.08 -0.348011 -2.30892 0
M  V30 10686 C 1038.06 0.563092 -1.60509 0
M  V30 10687 O 1039.24 0.479332 -1.88192 0
M  V30 10688 C 1036.37 0.448158 -3.44396 0
M  V30 10689 C 1035.33 -0.370179 -4.26396 0
M  V30 10690 C 1034.65 0.551903 -5.31844 0
M  V30 10691 C 1035.95 -1.60624 -4.96988 0
M  V30 10692 H 1037.65 -1.18134 -2.75109 0
M  V30 10693 H 1035.19 -0.569502 -1.3226 0
M  V30 10694 H 1037.15 0.826458 -4.13216 0
M  V30 10695 H 1035.87 1.31503 -2.98956 0
M  V30 10696 H 1034.53 -0.730472 -3.59249 0
M  V30 10697 H 1034.18 1.41616 -4.82653 0
M  V30 10698 H 1033.88 0.00823478 -5.87599 0
M  V30 10699 H 1035.4 0.926965 -6.03523 0
M  V30 10700 H 1036.82 -1.29917 -5.58386 0
M  V30 10701 H 1035.21 -2.08926 -5.62557 0
M  V30 10702 H 1036.28 -2.357 -4.23761 0
M  V30 10703 N 1037.63 1.44308 -0.633487 0
M  V30 10704 C 1039.04 1.85387 -0.221009 0
M  V30 10705 C 1039.39 1.5301 1.22811 0
M  V30 10706 O 1038.51 0.969325 1.93476 0
M  V30 10707 C 1039.11 3.36497 -0.394331 0
M  V30 10708 C 1037.67 3.76382 -0.0363405 0
M  V30 10709 C 1036.81 2.68146 -0.706598 0
M  V30 10710 H 1039.77 1.34741 -0.83849 0
M  V30 10711 H 1039.79 3.78735 0.366026 0
M  V30 10712 H 1039.3 3.60031 -1.44911 0
M  V30 10713 H 1037.4 3.58463 1.01661 0
M  V30 10714 H 1037.51 4.77 -0.448045 0
M  V30 10715 H 1035.88 2.54306 -0.14168 0
M  V30 10716 H 1036.66 2.94512 -1.76401 0
M  V30 10717 N 1039.1 0.374177 1.53094 0
M  V30 10718 C 1040.35 -0.213131 2.01677 0
M  V30 10719 C 1040.68 -1.47715 1.26071 0
M  V30 10720 O 1039.96 -1.91199 0.356834 0
M  V30 10721 C 1040.24 -0.496392 3.56662 0
M  V30 10722 C 1040.09 0.781859 4.42953 0
M  V30 10723 C 1041.41 -1.29339 4.20666 0
M  V30 10724 H 1038.53 -0.0759885 0.733072 0
M  V30 10725 H 1041.17 0.500765 1.83282 0
M  V30 10726 H 1039.32 -1.10455 3.72467 0
M  V30 10727 H 1041 1.41914 4.38928 0
M  V30 10728 H 1039.24 1.40041 4.10574 0
M  V30 10729 H 1039.91 0.538508 5.49367 0
M  V30 10730 H 1042.39 -0.778848 4.08746 0
M  V30 10731 H 1041.26 -1.46033 5.29118 0
M  V30 10732 H 1041.52 -2.30435 3.77296 0
M  V30 10733 N 1040.58 -1.57259 0.103575 0
M  V30 10734 C 1041.55 -2.13337 -0.837859 0
M  V30 10735 C 1042.55 -1.06459 -1.20512 0
M  V30 10736 O 1043.74 -1.32307 -1.13316 0
M  V30 10737 C 1040.87 -2.66093 -2.13089 0
M  V30 10738 H 1042.06 -2.97842 -0.350775 0
M  V30 10739 H 1039.61 -1.55621 -0.145511 0
M  V30 10740 H 1040.35 -1.85133 -2.66264 0
M  V30 10741 H 1040.13 -3.44244 -1.87719 0
M  V30 10742 H 1041.62 -3.09443 -2.80419 0
M  V30 10743 N 1042.06 0.170153 -1.56679 0
M  V30 10744 C 1043.31 0.884902 -1.81252 0
M  V30 10745 C 1043.62 1.83361 -0.681024 0
M  V30 10746 O 1044.83 2.59082 -0.811722 0
M  V30 10747 C 1043.28 1.62408 -3.21172 0
M  V30 10748 C 1042.89 0.718947 -4.42194 0
M  V30 10749 C 1044.64 2.32699 -3.55037 0
M  V30 10750 C 1042.54 1.45843 -5.73135 0
M  V30 10751 H 1041.47 0.33418 -0.675899 0
M  V30 10752 H 1044.12 0.137818 -1.82982 0
M  V30 10753 H 1042.51 2.41596 -3.13763 0
M  V30 10754 H 1043.68 -0.0360521 -4.60786 0
M  V30 10755 H 1042 0.125634 -4.1621 0
M  V30 10756 H 1044.59 2.88621 -4.50114 0
M  V30 10757 H 1044.94 3.08092 -2.79974 0
M  V30 10758 H 1045.47 1.60453 -3.64005 0
M  V30 10759 H 1042.21 0.746799 -6.51232 0
M  V30 10760 H 1041.73 2.18672 -5.58518 0
M  V30 10761 H 1043.41 2.0056 -6.1513 0
M  V30 10762 N 1043.54 1.5137 0.438746 0
M  V30 10763 C 1044.49 1.72582 1.53245 0
M  V30 10764 C 1045.46 0.567488 1.56105 0
M  V30 10765 O 1046.64 0.80176 1.73137 0
M  V30 10766 C 1043.78 1.85551 2.90972 0
M  V30 10767 C 1042.89 3.13094 2.97652 0
M  V30 10768 C 1042.03 3.16666 4.26493 0
M  V30 10769 C 1041.07 4.38529 4.27035 0
M  V30 10770 N 1040.2 4.39659 5.47398 0
M  V30 10771 H 1045.04 2.65941 1.3446 0
M  V30 10772 H 1042.58 1.31801 0.653206 0
M  V30 10773 H 1044.54 1.91053 3.70884 0
M  V30 10774 H 1043.17 0.956025 3.08318 0
M  V30 10775 H 1042.22 3.16909 2.10412 0
M  V30 10776 H 1043.53 4.03009 2.93914 0
M  V30 10777 H 1042.69 3.21075 5.14777 0
M  V30 10778 H 1041.43 2.24637 4.32885 0
M  V30 10779 H 1040.43 4.34297 3.37144 0
M  V30 10780 H 1041.66 5.31821 4.22307 0
M  V30 10781 H 1039.6 3.50499 5.54514 0
M  V30 10782 H 1039.52 5.23382 5.45534 0
M  V30 10783 H 1040.79 4.48259 6.37718 0
M  V30 10784 N 1045.02 -0.694098 1.41492 0
M  V30 10785 C 1046.24 -1.48286 1.44288 0
M  V30 10786 C 1046.66 -1.88737 0.0485783 0
M  V30 10787 O 1046.02 -1.56881 -0.932449 0
M  V30 10788 C 1046.07 -2.74446 2.3529 0
M  V30 10789 O 1045.79 -2.35698 3.69294 0
M  V30 10790 C 1047.29 -3.68175 2.46905 0
M  V30 10791 H 1044.51 -0.45692 0.491391 0
M  V30 10792 H 1047.05 -0.854477 1.85793 0
M  V30 10793 H 1045.21 -3.33518 1.9709 0
M  V30 10794 H 1045.62 -3.17029 4.17843 0
M  V30 10795 H 1047.1 -4.53476 3.14743 0
M  V30 10796 H 1047.57 -4.12763 1.50078 0
M  V30 10797 H 1048.18 -3.15006 2.85747 0
M  V30 10798 N 1046.49 -1.27344 -0.928501 0
M  V30 10799 C 1047.42 -1.12517 -2.04602 0
M  V30 10800 C 1048.41 -0.0268563 -1.70079 0
M  V30 10801 O 1049.59 -0.201197 -1.93155 0
M  V30 10802 C 1046.72 -0.770749 -3.3864 0
M  V30 10803 C 1045.67 -1.8222 -3.87272 0
M  V30 10804 C 1045 -1.32178 -5.18105 0
M  V30 10805 C 1046.3 -3.22614 -4.10752 0
M  V30 10806 H 1047.99 -2.06 -2.17265 0
M  V30 10807 H 1045.54 -0.991827 -1.04397 0
M  V30 10808 H 1047.49 -0.653843 -4.16297 0
M  V30 10809 H 1046.22 0.19979 -3.25988 0
M  V30 10810 H 1044.88 -1.928 -3.11807 0
M  V30 10811 H 1044.52 -0.340719 -5.01845 0
M  V30 10812 H 1044.22 -2.02474 -5.51614 0
M  V30 10813 H 1045.75 -1.2178 -5.98333 0
M  V30 10814 H 1047.16 -3.1504 -4.78981 0
M  V30 10815 H 1045.56 -3.90614 -4.55566 0
M  V30 10816 H 1046.63 -3.67727 -3.16077 0
M  V30 10817 N 1047.97 1.13488 -1.09353 0
M  V30 10818 C 1048.92 2.18876 -0.732251 0
M  V30 10819 C 1049.89 1.63616 0.286175 0
M  V30 10820 O 1051.07 1.90059 0.167981 0
M  V30 10821 C 1048.21 3.44737 -0.158157 0
M  V30 10822 C 1047.33 4.14104 -1.23053 0
M  V30 10823 C 1046.46 5.27578 -0.619272 0
M  V30 10824 C 1045.5 5.88793 -1.67301 0
M  V30 10825 N 1044.64 6.937 -1.08283 0
M  V30 10826 H 1049.48 2.49128 -1.63522 0
M  V30 10827 H 1047.02 1.22326 -0.816995 0
M  V30 10828 H 1048.97 4.16756 0.192488 0
M  V30 10829 H 1047.6 3.14938 0.708082 0
M  V30 10830 H 1046.66 3.40376 -1.69847 0
M  V30 10831 H 1047.97 4.55683 -2.02865 0
M  V30 10832 H 1047.12 6.0631 -0.217428 0
M  V30 10833 H 1045.86 4.87246 0.210399 0
M  V30 10834 H 1044.87 5.08756 -2.0844 0
M  V30 10835 H 1046.09 6.31197 -2.50533 0
M  V30 10836 H 1044.04 6.55426 -0.274426 0
M  V30 10837 H 1043.95 7.33817 -1.81792 0
M  V30 10838 H 1045.22 7.76286 -0.707167 0
M  V30 10839 N 1049.45 0.880621 1.30701 0
M  V30 10840 C 1050.7 0.497611 1.966 0
M  V30 10841 C 1051.03 -0.949901 1.69383 0
M  V30 10842 O 1050.31 -1.67054 0.996152 0
M  V30 10843 C 1050.59 0.767919 3.51817 0
M  V30 10844 C 1050.44 2.26574 3.88567 0
M  V30 10845 C 1051.76 0.241502 4.39437 0
M  V30 10846 H 1048.88 0.182267 0.714106 0
M  V30 10847 H 1051.52 1.10382 1.54648 0
M  V30 10848 H 1049.67 0.251967 3.87682 0
M  V30 10849 H 1051.34 2.84977 3.62748 0
M  V30 10850 H 1049.59 2.73411 3.36792 0
M  V30 10851 H 1050.26 2.40549 4.9683 0
M  V30 10852 H 1052.73 0.683051 4.10455 0
M  V30 10853 H 1051.61 0.459997 5.46969 0
M  V30 10854 H 1051.87 -0.857068 4.33713 0
M  V30 10855 N 1050.93 -1.4397 0.641131 0
M  V30 10856 C 1052.18 -2.01548 0.149333 0
M  V30 10857 C 1052.5 -1.50759 -1.23679 0
M  V30 10858 O 1051.77 -0.715257 -1.82376 0
M  V30 10859 H 1050.35 -0.745173 0.0522161 0
M  V30 10860 H 1053.01 -1.7634 0.830082 0
M  V30 10861 H 1052.11 -3.11851 0.124676 0
M  V30 10862 N 1052.41 -0.382291 -1.52893 0
M  V30 10863 C 1053.64 0.202114 -2.05609 0
M  V30 10864 C 1054.05 1.4164 -1.25438 0
M  V30 10865 O 1053.39 1.81359 -0.292324 0
M  V30 10866 C 1053.45 0.64356 -3.53693 0
M  V30 10867 C 1053.11 -0.456305 -4.54716 0
M  V30 10868 C 1054.11 -1.3115 -5.03086 0
M  V30 10869 C 1051.8 -0.621329 -4.98442 0
M  V30 10870 C 1053.79 -2.3169 -5.938 0
M  V30 10871 C 1051.48 -1.63008 -5.88958 0
M  V30 10872 C 1052.48 -2.47629 -6.36529 0
M  V30 10873 O 1052.16 -3.46781 -7.25257 0
M  V30 10874 H 1051.9 0.0358014 -0.675051 0
M  V30 10875 H 1054.45 -0.543935 -1.98067 0
M  V30 10876 H 1052.68 1.44148 -3.58829 0
M  V30 10877 H 1054.37 1.15284 -3.89184 0
M  V30 10878 H 1055.13 -1.19528 -4.70041 0
M  V30 10879 H 1051.01 0.027593 -4.60992 0
M  V30 10880 H 1054.56 -2.97776 -6.30853 0
M  V30 10881 H 1050.45 -1.74671 -6.21418 0
M  V30 10882 H 1051.22 -3.42707 -7.433 0
M  V30 10883 N 1053.89 1.57202 -0.111913 0
M  V30 10884 C 1055.11 1.99297 0.555713 0
M  V30 10885 C 1055.53 0.991444 1.60673 0
M  V30 10886 O 1054.89 -0.0166672 1.82492 0
M  V30 10887 C 1054.94 3.41413 1.18826 0
M  V30 10888 O 1054.66 4.37733 0.179261 0
M  V30 10889 C 1056.16 3.98602 1.93989 0
M  V30 10890 H 1053.38 0.654543 0.147695 0
M  V30 10891 H 1055.92 2.03557 -0.196163 0
M  V30 10892 H 1054.08 3.38115 1.89096 0
M  V30 10893 H 1054.49 5.20606 0.637935 0
M  V30 10894 H 1055.97 5.00143 2.33584 0
M  V30 10895 H 1056.44 3.37349 2.81233 0
M  V30 10896 H 1057.05 4.05424 1.28497 0
M  V30 10897 N 1055.36 -0.161842 1.56767 0
M  V30 10898 C 1056.27 -1.21996 2.00385 0
M  V30 10899 C 1057.29 -1.4789 0.916768 0
M  V30 10900 O 1058.47 -1.59852 1.22513 0
M  V30 10901 C 1055.53 -2.53695 2.36305 0
M  V30 10902 C 1054.59 -2.3558 3.58888 0
M  V30 10903 C 1053.82 -3.60998 3.93085 0
M  V30 10904 O 1054.05 -4.6657 3.28129 0
M  V30 10905 O 1052.98 -3.54544 4.86397 0
M  V30 10906 H 1056.81 -0.879701 2.9068 0
M  V30 10907 H 1054.39 -0.369437 1.4476 0
M  V30 10908 H 1056.27 -3.31366 2.60335 0
M  V30 10909 H 1054.95 -2.87281 1.49169 0
M  V30 10910 H 1053.86 -1.55908 3.40064 0
M  V30 10911 H 1055.19 -2.06915 4.46595 0
M  V30 10912 N 1056.84 -1.516 -0.430713 0
M  V30 10913 C 1057.79 -1.73392 -1.52328 0
M  V30 10914 C 1058.76 -0.575758 -1.55802 0
M  V30 10915 O 1059.94 -0.810931 -1.72709 0
M  V30 10916 C 1057.08 -1.87092 -2.89984 0
M  V30 10917 C 1056.2 -3.14668 -2.95987 0
M  V30 10918 C 1055.33 -3.18923 -4.24807 0
M  V30 10919 C 1054.37 -4.40787 -4.24703 0
M  V30 10920 N 1053.51 -4.42556 -5.45059 0
M  V30 10921 H 1058.35 -2.6665 -1.33048 0
M  V30 10922 H 1055.88 -1.32146 -0.646207 0
M  V30 10923 H 1057.84 -1.93017 -3.69865 0
M  V30 10924 H 1056.47 -0.972363 -3.07807 0
M  V30 10925 H 1055.52 -3.1802 -2.08728 0
M  V30 10926 H 1056.84 -4.04562 -2.91772 0
M  V30 10927 H 1055.99 -3.23801 -5.13067 0
M  V30 10928 H 1054.73 -2.2693 -4.31688 0
M  V30 10929 H 1053.73 -4.36079 -3.34836 0
M  V30 10930 H 1054.96 -5.34053 -4.19481 0
M  V30 10931 H 1052.91 -3.53435 -5.52648 0
M  V30 10932 H 1052.82 -5.26267 -5.42751 0
M  V30 10933 H 1054.09 -4.51634 -6.35332 0
M  V30 10934 N 1058.32 0.686584 -1.41858 0
M  V30 10935 C 1059.25 1.81202 -1.40352 0
M  V30 10936 C 1060.26 1.5993 -0.304322 0
M  V30 10937 O 1061.45 1.69267 -0.566643 0
M  V30 10938 C 1058.55 3.18116 -1.16856 0
M  V30 10939 C 1057.73 3.66339 -2.38987 0
M  V30 10940 C 1056.79 4.8195 -2.11212 0
M  V30 10941 O 1055.81 4.93102 -2.84323 0
M  V30 10942 N 1057.01 5.69829 -1.10793 0
M  V30 10943 H 1059.78 1.82983 -2.37355 0
M  V30 10944 H 1057.34 0.869244 -1.36586 0
M  V30 10945 H 1059.33 3.93097 -0.962125 0
M  V30 10946 H 1057.9 3.11306 -0.284186 0
M  V30 10947 H 1057.12 2.82166 -2.75274 0
M  V30 10948 H 1058.41 3.95297 -3.2034 0
M  V30 10949 H 1057.81 5.63459 -0.503012 0
M  V30 10950 H 1056.36 6.44671 -0.961379 0
M  V30 10951 N 1059.8 1.27835 0.921735 0
M  V30 10952 C 1061.21 1.05369 1.19873 0
M  V30 10953 C 1061.41 -0.208997 2.00413 0
M  V30 10954 O 1060.47 -0.912861 2.35421 0
M  V30 10955 C 1061.78 2.29658 1.94108 0
M  V30 10956 C 1063.33 2.34756 2.07023 0
M  V30 10957 C 1063.81 3.5879 2.84664 0
M  V30 10958 N 1065.3 3.59383 2.9223 0
M  V30 10959 C 1066.03 4.52029 3.52785 0
M  V30 10960 N 1065.53 5.54986 4.14683 0
M  V30 10961 N 1067.32 4.39641 3.50246 0
M  V30 10962 H 1059.47 2.08903 0.383819 0
M  V30 10963 H 1061.73 0.919065 0.232429 0
M  V30 10964 H 1061.44 3.21604 1.4235 0
M  V30 10965 H 1061.31 2.35444 2.94696 0
M  V30 10966 H 1063.7 1.43312 2.57965 0
M  V30 10967 H 1063.78 2.32969 1.05636 0
M  V30 10968 H 1063.43 4.50574 2.34404 0
M  V30 10969 H 1063.36 3.57829 3.86349 0
M  V30 10970 H 1065.85 2.84927 2.48244 0
M  V30 10971 H 1066.16 6.21837 4.58845 0
M  V30 10972 H 1064.51 5.58822 4.13211 0
M  V30 10973 H 1067.7 3.58413 3.01094 0
M  V30 10974 H 1067.87 5.12033 3.97148 0
M  V30 10975 N 1061.28 -1.12907 1.09954 0
M  V30 10976 C 1062.69 -1.363 0.830326 0
M  V30 10977 C 1062.89 -1.93772 -0.552694 0
M  V30 10978 O 1061.95 -2.1607 -1.30652 0
M  V30 10979 C 1063.26 -2.30925 1.92598 0
M  V30 10980 C 1064.81 -2.44528 1.95385 0
M  V30 10981 C 1065.28 -3.42464 3.0411 0
M  V30 10982 N 1066.77 -3.50018 3.03384 0
M  V30 10983 C 1067.51 -4.25693 3.84152 0
M  V30 10984 N 1067.01 -5.04476 4.74843 0
M  V30 10985 N 1068.8 -4.21049 3.7239 0
M  V30 10986 H 1060.95 -0.739571 1.99108 0
M  V30 10987 H 1063.21 -0.387983 0.86497 0
M  V30 10988 H 1062.92 -1.95861 2.92115 0
M  V30 10989 H 1062.79 -3.30997 1.80889 0
M  V30 10990 H 1065.18 -2.78875 0.965037 0
M  V30 10991 H 1065.26 -1.44361 2.11172 0
M  V30 10992 H 1064.9 -3.08847 4.03207 0
M  V30 10993 H 1064.83 -4.42448 2.85565 0
M  V30 10994 H 1067.33 -2.93809 2.37665 0
M  V30 10995 H 1067.64 -5.59541 5.33042 0
M  V30 10996 H 1065.98 -5.0369 4.78875 0
M  V30 10997 H 1069.17 -3.5858 3.00895 0
M  V30 10998 H 1069.35 -4.79771 4.35572 0
M  V30 10999 N 1062.75 -0.88754 -1.30232 0
M  V30 11000 C 1064.03 -0.427249 -1.90877 0
M  V30 11001 C 1064.41 1.0922 -1.80649 0
M  V30 11002 O 1063.76 1.92866 -1.22536 0
M  V30 11003 C 1063.97 -0.928219 -3.3643 0
M  V30 11004 C 1065.32 -0.964706 -4.13496 0
M  V30 11005 O 1066.34 -0.875057 -3.45284 0
M  V30 11006 O 1065.2 -1.09754 -5.35366 0
M  V30 11007 H 1062.29 -0.131107 -0.816541 0
M  V30 11008 H 1064.84 -0.976609 -1.38782 0
M  V30 11009 H 1063.61 -1.97209 -3.37971 0
M  V30 11010 H 1063.23 -0.358169 -3.95983 0
M  V30 11011 N 1064.23 1.43628 -0.648757 0
M  V30 11012 C 1065.48 2.01864 -0.160336 0
M  V30 11013 C 1065.81 1.51148 1.22412 0
M  V30 11014 O 1065.06 0.693168 1.83013 0
M  V30 11015 C 1065.36 3.57214 -0.115282 0
M  V30 11016 C 1065.03 4.27258 -1.44088 0
M  V30 11017 C 1063.69 4.46109 -1.8039 0
M  V30 11018 C 1066.04 4.66962 -2.31508 0
M  V30 11019 C 1063.37 5.01928 -3.03785 0
M  V30 11020 C 1065.72 5.24148 -3.54191 0
M  V30 11021 C 1064.39 5.41216 -3.90694 0
M  V30 11022 H 1063.66 0.738674 -0.0586712 0
M  V30 11023 H 1066.3 1.72163 -0.838578 0
M  V30 11024 H 1064.61 3.86431 0.646395 0
M  V30 11025 H 1066.3 4.00025 0.279425 0
M  V30 11026 H 1062.89 4.12928 -1.14842 0
M  V30 11027 H 1067.08 4.52095 -2.04753 0
M  V30 11028 H 1062.33 5.13328 -3.32122 0
M  V30 11029 H 1066.51 5.53861 -4.22151 0
M  V30 11030 H 1064.14 5.84234 -4.8639 0
M  V30 11031 N 1065.71 0.390394 1.52688 0
M  V30 11032 C 1066.64 -0.43567 2.294 0
M  V30 11033 C 1067.62 -1.06253 1.32832 0
M  V30 11034 O 1068.81 -1.07509 1.61726 0
M  V30 11035 C 1065.94 -1.56259 3.10162 0
M  V30 11036 C 1064.89 -1.06172 4.14622 0
M  V30 11037 C 1064.22 -2.2808 4.83615 0
M  V30 11038 C 1065.52 -0.128902 5.22141 0
M  V30 11039 H 1067.21 0.204384 2.98702 0
M  V30 11040 H 1064.76 0.0997377 1.43654 0
M  V30 11041 H 1066.71 -2.14732 3.62585 0
M  V30 11042 H 1065.43 -2.23025 2.38595 0
M  V30 11043 H 1064.09 -0.499518 3.63181 0
M  V30 11044 H 1063.74 -2.93358 4.08595 0
M  V30 11045 H 1063.44 -1.95227 5.5422 0
M  V30 11046 H 1064.96 -2.87193 5.38844 0
M  V30 11047 H 1066.38 -0.621849 5.69917 0
M  V30 11048 H 1064.78 0.109919 5.99999 0
M  V30 11049 H 1065.85 0.821884 4.77884 0
M  V30 11050 N 1067.19 -1.57141 0.120249 0
M  V30 11051 C 1068.44 -1.94852 -0.536387 0
M  V30 11052 C 1068.76 -1.00452 -1.67136 0
M  V30 11053 O 1068.03 -0.061053 -1.95805 0
M  V30 11054 H 1066.61 -0.719411 -0.201138 0
M  V30 11055 H 1069.27 -1.93977 0.189482 0
M  V30 11056 H 1068.37 -2.97917 -0.930145 0
M  V30 11057 N 1068.67 0.153526 -1.5685 0
M  V30 11058 C 1069.58 1.20932 -2.01029 0
M  V30 11059 C 1070.59 1.47401 -0.924598 0
M  V30 11060 O 1071.77 1.592 -1.23359 0
M  V30 11061 C 1068.83 2.52438 -2.37647 0
M  V30 11062 C 1067.89 2.33673 -3.60132 0
M  V30 11063 C 1067.13 3.58909 -3.94994 0
M  V30 11064 O 1067.35 4.64823 -3.30599 0
M  V30 11065 O 1066.28 3.5196 -4.8827 0
M  V30 11066 H 1070.11 0.864273 -2.91143 0
M  V30 11067 H 1067.7 0.361755 -1.44954 0
M  V30 11068 H 1069.58 3.29981 -2.62088 0
M  V30 11069 H 1068.25 2.86486 -1.5069 0
M  V30 11070 H 1067.16 1.54102 -3.40886 0
M  V30 11071 H 1068.49 2.04544 -4.47686 0
M  V30 11072 N 1070.14 1.51827 0.422667 0
M  V30 11073 C 1071.11 1.7359 1.49663 0
M  V30 11074 C 1072.11 0.605811 1.48952 0
M  V30 11075 O 1073.3 0.87354 1.50715 0
M  V30 11076 C 1070.43 1.80585 2.8914 0
M  V30 11077 H 1071.62 2.69453 1.31664 0
M  V30 11078 H 1069.18 1.42038 0.652298 0
M  V30 11079 H 1069.91 0.865895 3.12526 0
M  V30 11080 H 1069.7 2.62729 2.9106 0
M  V30 11081 H 1071.19 1.99212 3.67021 0
M  V30 11082 N 1071.62 -0.679052 1.4222 0
M  V30 11083 C 1072.85 -1.47248 1.46058 0
M  V30 11084 C 1073.27 -1.87962 0.0720987 0
M  V30 11085 O 1072.63 -1.5572 -0.928488 0
M  V30 11086 C 1072.68 -2.70067 2.38948 0
M  V30 11087 O 1071.78 -3.68178 1.85791 0
M  V30 11088 H 1071.12 -0.442533 0.495036 0
M  V30 11089 H 1073.65 -0.833263 1.86863 0
M  V30 11090 H 1073.66 -3.18187 2.55385 0
M  V30 11091 H 1072.34 -2.39773 3.39826 0
M  V30 11092 H 1070.92 -3.2719 1.78889 0
M  V30 11093 N 1073.1 -1.28322 -0.914942 0
M  V30 11094 C 1074.35 -1.14785 -1.65853 0
M  V30 11095 C 1074.66 0.303135 -1.93237 0
M  V30 11096 O 1075.87 0.559606 -2.6567 0
M  V30 11097 C 1074.32 -2.00652 -2.98776 0
M  V30 11098 C 1073.93 -3.50483 -2.79044 0
M  V30 11099 C 1075.68 -1.95798 -3.76648 0
M  V30 11100 C 1073.58 -4.28505 -4.076 0
M  V30 11101 H 1072.51 -0.425987 -0.622135 0
M  V30 11102 H 1075.16 -1.52844 -1.01543 0
M  V30 11103 H 1073.55 -1.55447 -3.64214 0
M  V30 11104 H 1074.72 -4.03636 -2.22293 0
M  V30 11105 H 1073.04 -3.5685 -2.14586 0
M  V30 11106 H 1075.63 -2.51359 -4.71935 0
M  V30 11107 H 1075.98 -0.934455 -4.05677 0
M  V30 11108 H 1076.51 -2.38965 -3.18026 0
M  V30 11109 H 1073.25 -5.31433 -3.83744 0
M  V30 11110 H 1072.77 -3.80125 -4.63966 0
M  V30 11111 H 1074.45 -4.3836 -4.75867 0
M  V30 11112 N 1074.58 1.12322 -1.10551 0
M  V30 11113 C 1075.51 2.17221 -0.699299 0
M  V30 11114 C 1076.49 1.59809 0.299973 0
M  V30 11115 O 1077.67 1.87451 0.198589 0
M  V30 11116 C 1074.8 3.38685 -0.0320136 0
M  V30 11117 C 1073.85 4.14732 -0.99495 0
M  V30 11118 S 1074.68 4.72879 -2.51288 0
M  V30 11119 C 1075.84 5.97676 -1.85834 0
M  V30 11120 H 1076.07 2.51342 -1.5879 0
M  V30 11121 H 1073.6 1.23802 -0.92263 0
M  V30 11122 H 1075.56 4.09034 0.346656 0
M  V30 11123 H 1074.22 3.02842 0.833407 0
M  V30 11124 H 1073.41 5.01754 -0.475331 0
M  V30 11125 H 1073.02 3.50098 -1.31559 0
M  V30 11126 H 1075.31 6.6698 -1.18927 0
M  V30 11127 H 1076.25 6.54266 -2.70817 0
M  V30 11128 H 1076.66 5.48793 -1.32237 0
M  V30 11129 N 1076.06 0.894434 1.2976 0
M  V30 11130 C 1077.3 0.516646 1.95385 0
M  V30 11131 C 1077.63 -0.939141 1.70895 0
M  V30 11132 O 1076.9 -1.66153 1.03778 0
M  V30 11133 H 1075.48 0.188072 0.722937 0
M  V30 11134 H 1078.14 1.13958 1.58113 0
M  V30 11135 H 1077.23 0.694819 3.04267 0
M  V30 11136 N 1077.53 -1.43282 0.656365 0
M  V30 11137 C 1078.47 -2.29087 -0.0720378 0
M  V30 11138 C 1079.48 -1.4268 -0.783982 0
M  V30 11139 O 1080.67 -1.66585 -0.641213 0
M  V30 11140 C 1077.77 -3.19676 -1.12519 0
M  V30 11141 C 1076.94 -4.34638 -0.490756 0
M  V30 11142 C 1076 -5.06079 -1.44121 0
M  V30 11143 O 1075.03 -5.6124 -0.948595 0
M  V30 11144 N 1076.23 -5.09872 -2.77509 0
M  V30 11145 H 1078.99 -2.92241 0.664456 0
M  V30 11146 H 1076.55 -1.54006 0.499383 0
M  V30 11147 H 1078.55 -3.64334 -1.76189 0
M  V30 11148 H 1077.12 -2.581 -1.76362 0
M  V30 11149 H 1076.34 -3.92857 0.3251 0
M  V30 11150 H 1077.62 -5.08777 -0.0480061 0
M  V30 11151 H 1077.02 -4.66433 -3.20088 0
M  V30 11152 H 1075.58 -5.58237 -3.36474 0
M  V30 11153 N 1079.01 -0.398486 -1.52479 0
M  V30 11154 C 1080.26 0.180752 -2.01692 0
M  V30 11155 C 1080.59 1.46044 -1.28457 0
M  V30 11156 O 1079.84 1.92051 -0.376162 0
M  V30 11157 C 1080.14 0.485909 -3.54081 0
M  V30 11158 C 1079.81 -0.703321 -4.45381 0
M  V30 11159 C 1078.47 -1.02955 -4.70057 0
M  V30 11160 C 1080.82 -1.49848 -4.99194 0
M  V30 11161 C 1078.15 -2.15231 -5.45795 0
M  V30 11162 C 1080.5 -2.61192 -5.76161 0
M  V30 11163 C 1079.17 -2.94313 -5.99113 0
M  V30 11164 H 1078.44 0.0661417 -0.738042 0
M  V30 11165 H 1081.08 -0.53772 -1.83796 0
M  V30 11166 H 1079.39 1.28582 -3.701 0
M  V30 11167 H 1081.09 0.946872 -3.89661 0
M  V30 11168 H 1077.68 -0.439062 -4.26345 0
M  V30 11169 H 1081.86 -1.25968 -4.80048 0
M  V30 11170 H 1077.12 -2.41252 -5.61789 0
M  V30 11171 H 1081.29 -3.23201 -6.16858 0
M  V30 11172 H 1078.92 -3.81431 -6.57583 0
M  V30 11173 N 1080.49 1.57075 -0.12858 0
M  V30 11174 C 1081.77 1.87075 0.571162 0
M  V30 11175 C 1082.15 1.03141 1.84188 0
M  V30 11176 O 1081.5 0.113001 2.2822 0
M  V30 11177 C 1081.71 3.3838 0.854383 0
M  V30 11178 C 1083.05 4.07194 1.20326 0
M  V30 11179 O 1084.08 3.43454 0.944338 0
M  V30 11180 O 1082.94 5.19725 1.68963 0
M  V30 11181 H 1080.03 0.774764 0.289258 0
M  V30 11182 H 1082.58 1.68908 -0.163806 0
M  V30 11183 H 1081.35 3.91273 -0.0456925 0
M  V30 11184 H 1080.97 3.62012 1.64418 0
M  V30 11185 N 1081.97 -0.145205 1.5693 0
M  V30 11186 C 1082.92 -1.18446 1.94819 0
M  V30 11187 C 1083.9 -1.38456 0.819684 0
M  V30 11188 O 1085.1 -1.39988 1.08316 0
M  V30 11189 C 1082.22 -2.51766 2.33385 0
M  V30 11190 C 1081.31 -2.35341 3.5281 0
M  V30 11191 N 1081.7 -1.88676 4.69292 0
M  V30 11192 C 1080 -2.66087 3.5793 0
M  V30 11193 C 1080.7 -1.85337 5.51385 0
M  V30 11194 N 1079.68 -2.28717 4.93142 0
M  V30 11195 H 1083.48 -0.815785 2.82351 0
M  V30 11196 H 1080.99 -0.353242 1.58512 0
M  V30 11197 H 1082.99 -3.26897 2.58735 0
M  V30 11198 H 1081.65 -2.89414 1.47206 0
M  V30 11199 H 1082.66 -1.58614 4.93013 0
M  V30 11200 H 1079.34 -3.07597 2.82294 0
M  V30 11201 H 1080.73 -1.50734 6.54774 0
M  V30 11202 N 1083.45 -1.52049 -0.414609 0
M  V30 11203 C 1084.86 -1.58062 -0.993638 0
M  V30 11204 C 1085.21 -0.417795 -1.917 0
M  V30 11205 O 1084.33 0.462558 -2.11399 0
M  V30 11206 C 1084.93 -2.86471 -1.80886 0
M  V30 11207 C 1083.49 -2.94981 -2.33801 0
M  V30 11208 C 1082.64 -2.52949 -1.13631 0
M  V30 11209 H 1085.59 -1.57497 -0.19504 0
M  V30 11210 H 1085.61 -2.71515 -2.66571 0
M  V30 11211 H 1085.12 -3.71085 -1.13657 0
M  V30 11212 H 1083.22 -2.14849 -3.04419 0
M  V30 11213 H 1083.33 -3.99111 -2.65042 0
M  V30 11214 H 1081.7 -2.0667 -1.48861 0
M  V30 11215 H 1082.48 -3.39931 -0.479765 0
M  V30 11216 N 1084.93 0.6715 -1.42579 0
M  V30 11217 C 1085.87 1.80623 -1.46554 0
M  V30 11218 C 1086.87 1.65934 -0.340932 0
M  V30 11219 O 1088.07 1.72502 -0.514098 0
M  V30 11220 H 1084.45 0.595619 -0.459067 0
M  V30 11221 H 1086.42 1.74388 -2.42139 0
M  V30 11222 C 1085.17 3.18794 -1.38801 0
M  V30 11223 H 1084.49 3.30725 -2.24635 0
M  V30 11224 H 1085.93 3.98201 -1.45645 0
M  V30 11225 C 1084.39 3.36742 -0.103219 0
M  V30 11226 O 1084.92 3.92761 0.842715 0
M  V30 11227 N 1083.13 2.90594 -0.0193034 0
M  V30 11228 H 1082.67 2.45192 -0.78986 0
M  V30 11229 H 1082.63 3.0298 0.839686 0
M  V30 11230 N 1086.4 1.28806 0.908124 0
M  V30 11231 C 1087.65 1.15663 1.65242 0
M  V30 11232 C 1087.97 -0.292883 1.93395 0
M  V30 11233 O 1089.17 -0.545509 2.65963 0
M  V30 11234 C 1087.63 2.02233 2.97707 0
M  V30 11235 C 1087.24 3.51958 2.77181 0
M  V30 11236 C 1088.98 1.97792 3.75604 0
M  V30 11237 C 1086.89 4.3066 4.05322 0
M  V30 11238 H 1085.82 0.42928 0.619867 0
M  V30 11239 H 1088.47 1.5338 1.00731 0
M  V30 11240 H 1086.85 1.57377 3.63385 0
M  V30 11241 H 1088.02 4.0481 2.20149 0
M  V30 11242 H 1086.34 3.57983 2.12691 0
M  V30 11243 H 1088.94 2.53858 4.70596 0
M  V30 11244 H 1089.28 0.955956 4.05175 0
M  V30 11245 H 1089.81 2.40648 3.16755 0
M  V30 11246 H 1086.55 5.3346 3.8092 0
M  V30 11247 H 1086.07 3.8258 4.61944 0
M  V30 11248 H 1087.75 4.40878 4.73535 0
M  V30 11249 N 1087.88 -1.11734 1.11145 0
M  V30 11250 C 1089.13 -1.82766 0.853194 0
M  V30 11251 C 1089.44 -1.85408 -0.623168 0
M  V30 11252 O 1090.65 -2.52509 -0.997574 0
M  V30 11253 C 1089.11 -3.28215 1.47658 0
M  V30 11254 C 1088.71 -3.33911 2.98676 0
M  V30 11255 C 1090.46 -4.04168 1.29803 0
M  V30 11256 C 1088.36 -4.73739 3.54013 0
M  V30 11257 H 1087.29 -0.684807 0.315523 0
M  V30 11258 H 1089.95 -1.25756 1.33633 0
M  V30 11259 H 1088.33 -3.85138 0.921116 0
M  V30 11260 H 1089.5 -2.86887 3.606 0
M  V30 11261 H 1087.82 -2.71437 3.15771 0
M  V30 11262 H 1090.41 -5.07429 1.68582 0
M  V30 11263 H 1090.76 -4.15606 0.240302 0
M  V30 11264 H 1091.29 -3.53623 1.82196 0
M  V30 11265 H 1088.03 -4.67497 4.59485 0
M  V30 11266 H 1087.55 -5.21186 2.9686 0
M  V30 11267 H 1089.23 -5.42691 3.52271 0
M  V30 11268 N 1089.36 -0.901303 -1.29284 0
M  V30 11269 C 1090.31 -0.351562 -2.25273 0
M  V30 11270 C 1091.29 0.529276 -1.51946 0
M  V30 11271 O 1092.49 0.371031 -1.73068 0
M  V30 11272 C 1089.61 0.41843 -3.4074 0
M  V30 11273 C 1088.7 -0.47742 -4.21404 0
M  V30 11274 N 1089.09 -1.58537 -4.80312 0
M  V30 11275 C 1087.39 -0.275504 -4.45148 0
M  V30 11276 C 1088.09 -2.14041 -5.40889 0
M  V30 11277 N 1087.07 -1.43324 -5.24365 0
M  V30 11278 H 1090.87 -1.1979 -2.68379 0
M  V30 11279 H 1088.38 -0.752538 -1.43912 0
M  V30 11280 H 1090.38 0.829022 -4.08574 0
M  V30 11281 H 1089.04 1.26201 -2.99171 0
M  V30 11282 H 1090.05 -1.96809 -4.79047 0
M  V30 11283 H 1086.73 0.529581 -4.14128 0
M  V30 11284 H 1088.12 -3.07173 -5.97574 0
M  V30 11285 N 1090.84 1.42931 -0.663954 0
M  V30 11286 C 1091.77 2.33499 0.00731327 0
M  V30 11287 C 1092.75 1.50074 0.800733 0
M  V30 11288 O 1093.93 1.78708 0.760062 0
M  V30 11289 C 1091.06 3.33569 0.966897 0
M  V30 11290 C 1090.02 4.27064 0.282839 0
M  V30 11291 C 1089.34 5.17257 1.35461 0
M  V30 11292 C 1090.64 5.1564 -0.831438 0
M  V30 11293 H 1092.34 2.89879 -0.749044 0
M  V30 11294 H 1089.88 1.39385 -0.361656 0
M  V30 11295 H 1091.84 3.95833 1.44549 0
M  V30 11296 H 1090.56 2.75469 1.75455 0
M  V30 11297 H 1089.22 3.6618 -0.175417 0
M  V30 11298 H 1088.87 4.5549 2.13397 0
M  V30 11299 H 1088.57 5.80634 0.902098 0
M  V30 11300 H 1090.09 5.82395 1.83436 0
M  V30 11301 H 1091.51 5.71651 -0.434534 0
M  V30 11302 H 1089.9 5.87794 -1.20908 0
M  V30 11303 H 1090.97 4.54687 -1.68487 0
M  V30 11304 N 1092.32 0.406567 1.52266 0
M  V30 11305 C 1093.23 -0.4271 2.30679 0
M  V30 11306 C 1094.24 -1.0559 1.383 0
M  V30 11307 O 1095.42 -1.05797 1.71374 0
M  V30 11308 C 1092.48 -1.53008 3.1111 0
M  V30 11309 C 1091.54 -0.924604 4.19225 0
M  V30 11310 C 1090.78 -1.97502 4.95811 0
M  V30 11311 O 1091 -3.19277 4.72671 0
M  V30 11312 O 1089.93 -1.58268 5.80719 0
M  V30 11313 H 1093.76 0.212187 3.02958 0
M  V30 11314 H 1091.34 0.169835 1.48432 0
M  V30 11315 H 1093.23 -2.17046 3.61205 0
M  V30 11316 H 1091.9 -2.15401 2.41628 0
M  V30 11317 H 1090.81 -0.247009 3.73284 0
M  V30 11318 H 1092.14 -0.34463 4.90992 0
M  V30 11319 N 1093.79 -1.57004 0.136909 0
M  V30 11320 C 1095.04 -1.9541 -0.51569 0
M  V30 11321 C 1095.36 -1.02219 -1.66061 0
M  V30 11322 O 1094.63 -0.0818172 -1.95729 0
M  V30 11323 H 1093.21 -0.721504 -0.193497 0
M  V30 11324 H 1095.88 -1.93765 0.210046 0
M  V30 11325 H 1094.97 -2.98887 -0.898494 0
M  V30 11326 N 1095.27 0.136881 -1.57004 0
M  V30 11327 C 1096.52 0.849031 -1.84172 0
M  V30 11328 C 1096.85 1.80359 -0.720027 0
M  V30 11329 O 1096.13 1.92538 0.275584 0
M  V30 11330 C 1096.41 1.61465 -3.21871 0
M  V30 11331 C 1096.26 0.680902 -4.44616 0
M  V30 11332 C 1097.58 2.57488 -3.56914 0
M  V30 11333 H 1094.7 0.307209 -0.669919 0
M  V30 11334 H 1097.34 0.113862 -1.89659 0
M  V30 11335 H 1095.49 2.24137 -3.17325 0
M  V30 11336 H 1097.16 0.0644094 -4.61255 0
M  V30 11337 H 1095.41 -0.00883629 -4.33799 0
M  V30 11338 H 1096.08 1.25286 -5.37594 0
M  V30 11339 H 1098.55 2.0493 -3.62136 0
M  V30 11340 H 1097.43 3.08101 -4.54274 0
M  V30 11341 H 1097.69 3.39321 -2.83397 0
M  V30 11342 N 1096.75 1.52266 0.40654 0
M  V30 11343 C 1098 1.66699 1.15496 0
M  V30 11344 C 1098.33 0.397019 1.90098 0
M  V30 11345 O 1097.6 -0.604646 1.84863 0
M  V30 11346 C 1097.89 2.8907 2.14734 0
M  V30 11347 C 1097.74 4.26123 1.44012 0
M  V30 11348 C 1099.06 3.06966 3.15373 0
M  V30 11349 H 1096.18 0.606642 0.418515 0
M  V30 11350 H 1098.82 1.84826 0.440381 0
M  V30 11351 H 1096.97 2.73745 2.75673 0
M  V30 11352 H 1098.64 4.5318 0.861722 0
M  V30 11353 H 1096.89 4.27406 0.742064 0
M  V30 11354 H 1097.56 5.07799 2.16436 0
M  V30 11355 H 1100.03 3.21205 2.64512 0
M  V30 11356 H 1098.91 3.94097 3.82072 0
M  V30 11357 H 1099.17 2.20395 3.83247 0
M  V30 11358 N 1098.23 -0.663929 1.42933 0
M  V30 11359 C 1099.46 -1.45192 1.474 0
M  V30 11360 C 1099.87 -1.88592 0.0886014 0
M  V30 11361 O 1099.23 -1.58824 -0.898962 0
M  V30 11362 C 1099.28 -2.69394 2.41059 0
M  V30 11363 O 1099 -2.27812 3.7421 0
M  V30 11364 C 1100.5 -3.62855 2.54659 0
M  V30 11365 H 1097.72 -0.446394 0.500973 0
M  V30 11366 H 1100.27 -0.814875 1.87563 0
M  V30 11367 H 1098.42 -3.29262 2.0412 0
M  V30 11368 H 1098.83 -3.08095 4.24474 0
M  V30 11369 H 1100.31 -4.46698 3.24291 0
M  V30 11370 H 1100.79 -4.09487 1.58799 0
M  V30 11371 H 1101.39 -3.08874 2.92364 0
M  V30 11372 N 1099.71 -1.29285 -0.901281 0
M  V30 11373 C 1100.65 -1.1428 -2.00521 0
M  V30 11374 C 1101.62 -0.0365428 -1.6606 0
M  V30 11375 O 1102.81 -0.203771 -1.89709 0
M  V30 11376 C 1099.95 -0.823671 -3.35126 0
M  V30 11377 C 1099.06 -2.01021 -3.8238 0
M  V30 11378 C 1098.2 -1.6306 -5.05554 0
M  V30 11379 C 1097.24 -2.78304 -5.45173 0
M  V30 11380 N 1096.37 -2.4075 -6.59533 0
M  V30 11381 H 1101.21 -2.08729 -2.12688 0
M  V30 11382 H 1098.75 -1.0387 -1.04161 0
M  V30 11383 H 1100.71 -0.61934 -4.12577 0
M  V30 11384 H 1099.34 0.0839113 -3.22691 0
M  V30 11385 H 1098.39 -2.32629 -3.00978 0
M  V30 11386 H 1099.7 -2.8738 -4.07694 0
M  V30 11387 H 1098.86 -1.38906 -5.90584 0
M  V30 11388 H 1097.59 -0.738464 -4.82077 0
M  V30 11389 H 1096.6 -3.03142 -4.58678 0
M  V30 11390 H 1097.82 -3.68179 -5.70632 0
M  V30 11391 H 1095.77 -1.54022 -6.37662 0
M  V30 11392 H 1095.69 -3.20643 -6.84634 0
M  V30 11393 H 1096.96 -2.19912 -7.47836 0
M  V30 11394 N 1101.18 1.11143 -1.11736 0
M  V30 11395 C 1102.41 1.87285 -0.891007 0
M  V30 11396 C 1102.83 1.79758 0.553971 0
M  V30 11397 O 1102.19 1.16221 1.39149 0
M  V30 11398 C 1102.24 3.33924 -1.36114 0
M  V30 11399 O 1101.34 4.08917 -0.534851 0
M  V30 11400 H 1100.69 0.581418 -0.320701 0
M  V30 11401 H 1103.22 1.40469 -1.4876 0
M  V30 11402 H 1103.23 3.84772 -1.35701 0
M  V30 11403 H 1101.9 3.38719 -2.41334 0
M  V30 11404 H 1100.48 3.67954 -0.605355 0
M  V30 11405 N 1102.66 0.908147 1.28804 0
M  V30 11406 C 1103.61 0.390734 2.27468 0
M  V30 11407 C 1104.58 -0.531765 1.57358 0
M  V30 11408 O 1105.76 -0.455177 1.85291 0
M  V30 11409 C 1102.9 -0.368159 3.43131 0
M  V30 11410 C 1102.02 0.586202 4.28004 0
M  V30 11411 C 1101.15 -0.190581 5.30858 0
M  V30 11412 C 1100.19 0.757758 6.07391 0
M  V30 11413 N 1099.33 0.0148488 7.02098 0
M  V30 11414 H 1104.17 1.23717 2.71105 0
M  V30 11415 H 1101.71 0.621382 1.33331 0
M  V30 11416 H 1103.66 -0.824289 4.08976 0
M  V30 11417 H 1102.29 -1.17898 3.00499 0
M  V30 11418 H 1101.35 1.16086 3.62254 0
M  V30 11419 H 1102.66 1.31177 4.81242 0
M  V30 11420 H 1101.81 -0.707528 6.0256 0
M  V30 11421 H 1100.55 -0.949234 4.78373 0
M  V30 11422 H 1099.56 1.28613 5.34545 0
M  V30 11423 H 1100.78 1.51588 6.61965 0
M  V30 11424 H 1098.73 -0.725916 6.51971 0
M  V30 11425 H 1098.64 0.680347 7.52932 0
M  V30 11426 H 1099.91 -0.482086 7.78008 0
M  V30 11427 N 1104.14 -1.42577 0.671525 0
M  V30 11428 C 1105.55 -1.84736 0.270084 0
M  V30 11429 C 1105.9 -1.56212 -1.18711 0
M  V30 11430 O 1105.03 -1.02028 -1.90838 0
M  V30 11431 C 1105.62 -3.35334 0.483409 0
M  V30 11432 C 1104.18 -3.76154 0.136119 0
M  V30 11433 C 1103.33 -2.66179 0.777444 0
M  V30 11434 H 1106.28 -1.3247 0.873919 0
M  V30 11435 H 1106.3 -3.79573 -0.265483 0
M  V30 11436 H 1105.81 -3.56063 1.54405 0
M  V30 11437 H 1103.91 -3.61033 -0.921209 0
M  V30 11438 H 1104.03 -4.75645 0.574356 0
M  V30 11439 H 1102.39 -2.53841 0.209055 0
M  V30 11440 H 1103.17 -2.89732 1.84148 0
M  V30 11441 N 1105.62 -0.414636 -1.52048 0
M  V30 11442 C 1106.86 0.159585 -2.02171 0
M  V30 11443 C 1107.2 1.44321 -1.29943 0
M  V30 11444 O 1106.47 1.90185 -0.407402 0
M  V30 11445 C 1106.76 0.401655 -3.57853 0
M  V30 11446 C 1106.61 -0.899026 -4.40724 0
M  V30 11447 C 1107.93 1.1814 -4.23947 0
M  V30 11448 H 1105.05 0.0565257 -0.734829 0
M  V30 11449 H 1107.69 -0.549183 -1.8189 0
M  V30 11450 H 1105.84 1.00541 -3.75265 0
M  V30 11451 H 1107.51 -1.53502 -4.35011 0
M  V30 11452 H 1105.75 -1.50877 -4.06717 0
M  V30 11453 H 1106.42 -0.683974 -5.47746 0
M  V30 11454 H 1108.9 0.670203 -4.10667 0
M  V30 11455 H 1107.78 1.31953 -5.32804 0
M  V30 11456 H 1108.04 2.2035 -3.83273 0
M  V30 11457 N 1107.1 1.56929 -0.145233 0
M  V30 11458 C 1108.03 2.12449 0.833107 0
M  V30 11459 C 1109.01 1.0476 1.24355 0
M  V30 11460 O 1110.19 1.32579 1.33997 0
M  V30 11461 C 1107.32 2.64274 2.11842 0
M  V30 11462 C 1106.36 3.84093 1.85404 0
M  V30 11463 S 1107.2 5.25172 1.04663 0
M  V30 11464 C 1108.35 5.80384 2.34318 0
M  V30 11465 H 1108.59 2.951 0.360969 0
M  V30 11466 H 1106.12 1.54246 0.0690187 0
M  V30 11467 H 1108.08 2.94783 2.8568 0
M  V30 11468 H 1106.74 1.81756 2.56171 0
M  V30 11469 H 1105.93 4.18593 2.80706 0
M  V30 11470 H 1105.53 3.54336 1.19675 0
M  V30 11471 H 1107.83 5.91709 3.29981 0
M  V30 11472 H 1108.77 6.7798 2.04325 0
M  V30 11473 H 1109.18 5.08617 2.44885 0
M  V30 11474 N 1108.58 -0.128553 1.57075 0
M  V30 11475 C 1109.82 -0.836536 1.83535 0
M  V30 11476 C 1110.14 -1.81491 0.7294 0
M  V30 11477 O 1111.34 -2.56838 0.880128 0
M  V30 11478 C 1109.8 -1.53836 3.25365 0
M  V30 11479 C 1109.41 -0.601454 4.43944 0
M  V30 11480 C 1111.15 -2.23204 3.61082 0
M  V30 11481 C 1109.06 -1.30596 5.768 0
M  V30 11482 H 1107.99 -0.316142 0.684522 0
M  V30 11483 H 1110.64 -0.0892555 1.83283 0
M  V30 11484 H 1109.02 -2.33192 3.20058 0
M  V30 11485 H 1110.2 0.158209 4.60528 0
M  V30 11486 H 1108.51 -0.0152393 4.16397 0
M  V30 11487 H 1111.11 -2.76585 4.57608 0
M  V30 11488 H 1111.45 -3.0056 2.88044 0
M  V30 11489 H 1111.98 -1.50746 3.68131 0
M  V30 11490 H 1108.72 -0.573874 6.52983 0
M  V30 11491 H 1108.24 -2.03787 5.6412 0
M  V30 11492 H 1109.92 -1.8418 6.20231 0
M  V30 11493 N 1110.05 -1.5248 -0.398459 0
M  V30 11494 C 1111.3 -1.67309 -1.1461 0
M  V30 11495 C 1111.63 -0.407095 -1.89885 0
M  V30 11496 O 1110.91 0.594834 -1.85181 0
M  V30 11497 C 1111.19 -2.90204 -2.13198 0
M  V30 11498 C 1111.04 -4.26881 -1.4175 0
M  V30 11499 C 1112.36 -3.08634 -3.13741 0
M  V30 11500 H 1109.48 -0.608853 -0.415292 0
M  V30 11501 H 1112.12 -1.85057 -0.430573 0
M  V30 11502 H 1110.27 -2.75204 -2.74218 0
M  V30 11503 H 1111.95 -4.53631 -0.837676 0
M  V30 11504 H 1110.19 -4.27793 -0.719387 0
M  V30 11505 H 1110.86 -5.08939 -2.1374 0
M  V30 11506 H 1113.34 -3.22603 -2.62805 0
M  V30 11507 H 1112.21 -3.96117 -3.79977 0
M  V30 11508 H 1112.47 -2.22425 -3.82073 0
M  V30 11509 N 1111.53 0.65634 -1.43283 0
M  V30 11510 C 1112.76 1.44408 -1.48168 0
M  V30 11511 C 1113.17 1.88542 -0.0986016 0
M  V30 11512 O 1112.53 1.59298 0.890527 0
M  V30 11513 C 1112.58 2.68111 -2.42484 0
M  V30 11514 O 1112.3 2.25824 -3.75413 0
M  V30 11515 C 1113.8 3.61499 -2.56579 0
M  V30 11516 H 1111.02 0.443731 -0.503333 0
M  V30 11517 H 1113.57 0.804917 -1.87993 0
M  V30 11518 H 1111.72 3.28175 -2.05863 0
M  V30 11519 H 1112.14 3.05839 -4.26102 0
M  V30 11520 H 1113.61 4.44972 -3.26655 0
M  V30 11521 H 1114.09 4.08639 -1.60969 0
M  V30 11522 H 1114.69 3.07319 -2.93998 0
M  V30 11523 N 1113.01 1.29761 0.894412 0
M  V30 11524 C 1113.92 1.1724 2.03204 0
M  V30 11525 C 1114.94 0.0944452 1.73743 0
M  V30 11526 O 1116.11 0.307549 1.99038 0
M  V30 11527 C 1113.18 0.855416 3.35981 0
M  V30 11528 C 1112.24 2.01777 3.78926 0
M  V30 11529 C 1111.47 1.71581 5.05367 0
M  V30 11530 O 1111.69 0.639245 5.66807 0
M  V30 11531 O 1110.63 2.56539 5.44492 0
M  V30 11532 H 1114.45 2.12787 2.16692 0
M  V30 11533 H 1112.04 1.09264 1.0189 0
M  V30 11534 H 1113.92 0.693429 4.15656 0
M  V30 11535 H 1112.6 -0.0702195 3.23624 0
M  V30 11536 H 1111.5 2.23502 2.99996 0
M  V30 11537 H 1112.84 2.92479 3.95875 0
M  V30 11538 N 1114.49 -1.10549 1.12324 0
M  V30 11539 C 1115.72 -1.86 0.899312 0
M  V30 11540 C 1116.13 -1.80881 -0.554854 0
M  V30 11541 O 1115.47 -1.19485 -1.39531 0
M  V30 11542 C 1115.53 -3.35384 1.29452 0
M  V30 11543 C 1115.19 -3.64263 2.75974 0
M  V30 11544 C 1116.19 -3.60962 3.74169 0
M  V30 11545 C 1113.88 -3.92976 3.1285 0
M  V30 11546 C 1115.87 -3.85966 5.07256 0
M  V30 11547 C 1113.56 -4.17637 4.4612 0
M  V30 11548 C 1114.56 -4.14122 5.43132 0
M  V30 11549 O 1114.24 -4.38156 6.73999 0
M  V30 11550 H 1113.98 -0.594743 0.321337 0
M  V30 11551 H 1116.53 -1.40674 1.49667 0
M  V30 11552 H 1114.76 -3.81361 0.640358 0
M  V30 11553 H 1116.45 -3.9222 1.04491 0
M  V30 11554 H 1117.21 -3.38819 3.47025 0
M  V30 11555 H 1113.09 -3.94843 2.3795 0
M  V30 11556 H 1116.64 -3.83138 5.82967 0
M  V30 11557 H 1112.53 -4.39258 4.72993 0
M  V30 11558 H 1113.3 -4.55677 6.79927 0
M  V30 11559 N 1115.97 -0.914965 -1.28321 0
M  V30 11560 C 1116.9 -0.348729 -2.2552 0
M  V30 11561 C 1117.88 0.547737 -1.53097 0
M  V30 11562 O 1119.06 0.491119 -1.8199 0
M  V30 11563 C 1116.19 0.501397 -3.34968 0
M  V30 11564 C 1115.23 -0.329859 -4.25223 0
M  V30 11565 S 1116.07 -1.73737 -5.06533 0
M  V30 11566 C 1117.22 -0.89458 -6.19474 0
M  V30 11567 H 1117.46 -1.17256 -2.732 0
M  V30 11568 H 1114.99 -0.716297 -1.36779 0
M  V30 11569 H 1116.95 0.986061 -3.98481 0
M  V30 11570 H 1115.61 1.29962 -2.85952 0
M  V30 11571 H 1114.8 0.320236 -5.02982 0
M  V30 11572 H 1114.4 -0.748221 -3.66439 0
M  V30 11573 H 1116.69 -0.124776 -6.77385 0
M  V30 11574 H 1117.64 -1.64475 -6.88733 0
M  V30 11575 H 1118.05 -0.442217 -5.62765 0
M  V30 11576 N 1117.44 1.42219 -0.679077 0
M  V30 11577 C 1118.35 2.346 -0.00345919 0
M  V30 11578 C 1119.37 1.55327 0.784181 0
M  V30 11579 O 1120.55 1.87878 0.725524 0
M  V30 11580 C 1117.61 3.33905 0.933194 0
M  V30 11581 C 1116.67 4.29073 0.139607 0
M  V30 11582 C 1115.9 5.23634 1.03165 0
M  V30 11583 O 1116.13 5.23234 2.27119 0
M  V30 11584 O 1115.06 5.99901 0.490159 0
M  V30 11585 H 1118.89 2.9392 -0.764525 0
M  V30 11586 H 1116.47 1.42794 -0.439329 0
M  V30 11587 H 1118.35 3.949 1.47077 0
M  V30 11588 H 1117.03 2.77052 1.67404 0
M  V30 11589 H 1115.94 3.71478 -0.442177 0
M  V30 11590 H 1117.27 4.88979 -0.562214 0
M  V30 11591 N 1118.92 0.422693 1.51826 0
M  V30 11592 C 1119.87 -0.41063 2.28947 0
M  V30 11593 C 1120.86 -1.03389 1.34191 0
M  V30 11594 O 1122.07 -0.970533 1.51594 0
M  V30 11595 H 1118.44 -0.151219 0.736639 0
M  V30 11596 H 1120.42 0.260859 2.97258 0
M  V30 11597 C 1119.16 -1.50758 3.13317 0
M  V30 11598 H 1118.49 -1.03734 3.86108 0
M  V30 11599 H 1119.93 -2.0642 3.7036 0
M  V30 11600 C 1118.39 -2.48261 2.27746 0
M  V30 11601 O 1118.92 -3.52462 1.92701 0
M  V30 11602 N 1117.12 -2.18795 1.91251 0
M  V30 11603 H 1116.67 -1.34088 2.1995 0
M  V30 11604 H 1116.63 -2.84276 1.34293 0
M  V30 11605 N 1120.4 -1.5685 0.153553 0
M  V30 11606 C 1121.65 -1.95946 -0.494936 0
M  V30 11607 C 1121.97 -1.03975 -1.64967 0
M  V30 11608 O 1121.24 -0.102572 -1.95631 0
M  V30 11609 H 1119.82 -0.723516 -0.185833 0
M  V30 11610 H 1122.48 -1.93531 0.230585 0
M  V30 11611 H 1121.58 -2.99823 -0.866743 0
M  V30 11612 N 1121.88 0.120221 -1.57141 0
M  V30 11613 C 1123.1 0.84637 -1.89344 0
M  V30 11614 C 1123.53 1.72702 -0.745365 0
M  V30 11615 O 1122.89 1.7873 0.304155 0
M  V30 11616 C 1122.93 1.65671 -3.20289 0
M  V30 11617 O 1122.04 2.76353 -3.06109 0
M  V30 11618 H 1121.38 0.234132 -0.621352 0
M  V30 11619 H 1123.91 0.102986 -2.04341 0
M  V30 11620 H 1123.92 2.04621 -3.52979 0
M  V30 11621 H 1122.59 1.01023 -4.03444 0
M  V30 11622 H 1121.17 2.40615 -2.84884 0
M  V30 11623 N 1123.36 1.52689 0.390367 0
M  V30 11624 C 1124.29 1.80338 1.48325 0
M  V30 11625 C 1125.27 0.655338 1.56969 0
M  V30 11626 O 1126.45 0.902792 1.7194 0
M  V30 11627 C 1123.58 1.97101 2.85952 0
M  V30 11628 C 1122.54 3.12783 2.92148 0
M  V30 11629 C 1121.86 3.14798 4.32211 0
M  V30 11630 C 1123.16 4.5188 2.61919 0
M  V30 11631 H 1124.86 2.71857 1.25437 0
M  V30 11632 H 1122.4 1.30813 0.601995 0
M  V30 11633 H 1124.36 2.15027 3.62411 0
M  V30 11634 H 1123.08 1.02271 3.10174 0
M  V30 11635 H 1121.74 2.94638 2.18137 0
M  V30 11636 H 1121.39 2.17653 4.53471 0
M  V30 11637 H 1121.09 3.92507 4.37278 0
M  V30 11638 H 1122.61 3.34877 5.10578 0
M  V30 11639 H 1124.02 4.70134 3.28096 0
M  V30 11640 H 1122.42 5.31647 2.78337 0
M  V30 11641 H 1123.49 4.58689 1.57266 0
M  V30 11642 N 1124.83 -0.648732 1.43629 0
M  V30 11643 C 1126.11 -1.4062 1.35961 0
M  V30 11644 C 1126.49 -2.11098 0.00961023 0
M  V30 11645 O 1125.84 -2.05107 -1.00714 0
M  V30 11646 C 1126.05 -2.38719 2.54586 0
M  V30 11647 C 1127.4 -3.02584 2.97873 0
M  V30 11648 O 1128.42 -2.49046 2.54665 0
M  V30 11649 O 1127.28 -3.99662 3.72736 0
M  V30 11650 H 1124.37 -0.628483 0.53753 0
M  V30 11651 H 1126.92 -0.675263 1.55687 0
M  V30 11652 H 1125.69 -1.85619 3.44472 0
M  V30 11653 H 1125.32 -3.19257 2.36983 0
M  V30 11654 N 1126.31 -1.30234 -0.887518 0
M  V30 11655 C 1127.54 -1.21829 -1.67229 0
M  V30 11656 C 1127.96 0.219251 -1.87523 0
M  V30 11657 O 1127.31 1.14526 -1.42091 0
M  V30 11658 C 1127.36 -1.94044 -3.05007 0
M  V30 11659 O 1127.08 -3.32185 -2.85631 0
M  V30 11660 C 1128.59 -1.92265 -3.99436 0
M  V30 11661 H 1125.81 -0.421716 -0.521916 0
M  V30 11662 H 1128.35 -1.71816 -1.10903 0
M  V30 11663 H 1126.5 -1.47861 -3.58072 0
M  V30 11664 H 1126.92 -3.68724 -3.73018 0
M  V30 11665 H 1128.39 -2.47336 -4.93486 0
M  V30 11666 H 1128.87 -0.900984 -4.29859 0
M  V30 11667 H 1129.48 -2.38247 -3.52305 0
M  V30 11668 N 1127.79 1.09952 -1.12909 0
M  V30 11669 C 1129.04 1.82016 -0.887482 0
M  V30 11670 C 1129.37 1.85445 0.586546 0
M  V30 11671 O 1128.62 1.31446 1.44984 0
M  V30 11672 C 1128.92 3.28252 -1.41369 0
M  V30 11673 C 1128.59 3.44965 -2.90362 0
M  V30 11674 C 1127.25 3.49233 -3.31043 0
M  V30 11675 C 1129.6 3.49947 -3.86247 0
M  V30 11676 C 1126.93 3.56057 -4.66305 0
M  V30 11677 C 1129.28 3.58305 -5.21345 0
M  V30 11678 C 1127.94 3.6084 -5.61561 0
M  V30 11679 H 1127.21 0.666046 -0.324753 0
M  V30 11680 H 1129.86 1.29568 -1.41012 0
M  V30 11681 H 1128.17 3.83301 -0.81163 0
M  V30 11682 H 1129.86 3.82533 -1.20289 0
M  V30 11683 H 1126.45 3.42323 -2.57901 0
M  V30 11684 H 1130.64 3.45895 -3.55908 0
M  V30 11685 H 1125.89 3.56305 -4.96847 0
M  V30 11686 H 1130.07 3.61104 -5.95463 0
M  V30 11687 H 1127.69 3.6588 -6.6636 0
M  V30 11688 N 1129.27 0.921757 1.27833 0
M  V30 11689 C 1130.2 0.433466 2.29441 0
M  V30 11690 C 1131.18 -0.503133 1.62489 0
M  V30 11691 O 1132.36 -0.409156 1.89841 0
M  V30 11692 C 1129.49 -0.320029 3.45822 0
M  V30 11693 C 1128.45 0.528178 4.24728 0
M  V30 11694 C 1127.77 -0.354132 5.33526 0
M  V30 11695 C 1129.07 1.78959 4.90684 0
M  V30 11696 H 1130.77 1.28263 2.70535 0
M  V30 11697 H 1128.31 0.618197 1.30055 0
M  V30 11698 H 1130.27 -0.672526 4.15999 0
M  V30 11699 H 1128.99 -1.20317 3.0363 0
M  V30 11700 H 1127.65 0.863302 3.5629 0
M  V30 11701 H 1127.3 -1.23605 4.87576 0
M  V30 11702 H 1127 0.209855 5.87225 0
M  V30 11703 H 1128.52 -0.702333 6.06547 0
M  V30 11704 H 1129.94 1.50552 5.53179 0
M  V30 11705 H 1128.33 2.29661 5.54415 0
M  V30 11706 H 1129.4 2.51265 4.14721 0
M  V30 11707 N 1130.75 -1.41857 0.686609 0
M  V30 11708 C 1131.69 -2.30795 0.015643 0
M  V30 11709 C 1132.66 -1.46616 -0.780569 0
M  V30 11710 O 1133.85 -1.75423 -0.750424 0
M  V30 11711 C 1130.99 -3.32577 -0.921229 0
M  V30 11712 C 1130.1 -4.3184 -0.117585 0
M  V30 11713 C 1129.24 -5.20693 -1.05128 0
M  V30 11714 C 1128.28 -6.11629 -0.240018 0
M  V30 11715 N 1127.41 -6.92995 -1.12704 0
M  V30 11716 H 1132.25 -2.87615 0.77985 0
M  V30 11717 H 1129.79 -1.41661 0.396298 0
M  V30 11718 H 1131.75 -3.90129 -1.47836 0
M  V30 11719 H 1130.38 -2.77328 -1.65193 0
M  V30 11720 H 1129.43 -3.7631 0.55634 0
M  V30 11721 H 1130.74 -4.96168 0.511753 0
M  V30 11722 H 1129.9 -5.83035 -1.67795 0
M  V30 11723 H 1128.63 -4.5657 -1.71449 0
M  V30 11724 H 1127.64 -5.48345 0.399779 0
M  V30 11725 H 1128.86 -6.77805 0.419266 0
M  V30 11726 H 1126.81 -6.31489 -1.77644 0
M  V30 11727 H 1126.73 -7.53974 -0.553065 0
M  V30 11728 H 1128 -7.59813 -1.7408 0
M  V30 11729 N 1132.22 -0.430739 -1.51599 0
M  V30 11730 C 1133.17 0.384024 -2.27583 0
M  V30 11731 C 1134.14 1.02254 -1.30895 0
M  V30 11732 O 1135.33 1.0427 -1.59789 0
M  V30 11733 C 1132.47 1.48291 -3.11615 0
M  V30 11734 C 1131.58 0.863187 -4.23288 0
M  V30 11735 C 1130.71 1.93657 -4.94642 0
M  V30 11736 C 1129.75 1.29493 -5.98246 0
M  V30 11737 N 1128.89 2.30939 -6.63032 0
M  V30 11738 H 1133.73 -0.270314 -2.96771 0
M  V30 11739 H 1131.27 -0.145148 -1.46382 0
M  V30 11740 H 1133.23 2.13124 -3.58656 0
M  V30 11741 H 1131.86 2.10697 -2.44554 0
M  V30 11742 H 1130.91 0.103326 -3.8026 0
M  V30 11743 H 1132.22 0.354676 -4.97537 0
M  V30 11744 H 1131.37 2.66167 -5.45197 0
M  V30 11745 H 1130.11 2.4788 -4.20008 0
M  V30 11746 H 1129.12 0.555262 -5.46989 0
M  V30 11747 H 1130.34 0.760122 -6.74833 0
M  V30 11748 H 1128.29 2.84254 -5.91216 0
M  V30 11749 H 1128.21 1.84961 -7.33025 0
M  V30 11750 H 1129.47 3.02953 -7.1822 0
M  V30 11751 N 1133.7 1.56767 -0.161869 0
M  V30 11752 C 1134.65 2.18807 0.789074 0
M  V30 11753 C 1135.64 1.14934 1.24445 0
M  V30 11754 O 1136.85 1.33154 1.2112 0
M  V30 11755 H 1133.23 0.700808 0.272713 0
M  V30 11756 H 1135.2 2.97419 0.241766 0
M  V30 11757 C 1133.95 2.83568 2.01207 0
M  V30 11758 H 1133.27 3.63219 1.67068 0
M  V30 11759 H 1134.71 3.3046 2.65654 0
M  V30 11760 C 1133.17 1.82846 2.82964 0
M  V30 11761 O 1133.7 1.30809 3.79805 0
M  V30 11762 N 1131.9 1.51815 2.47791 0
M  V30 11763 H 1131.45 1.94325 1.69103 0
M  V30 11764 H 1131.41 0.846742 3.02783 0
M  V30 11765 N 1135.18 -0.111886 1.57202 0
M  V30 11766 C 1136.46 -0.849125 1.76208 0
M  V30 11767 C 1136.84 -1.97735 0.73919 0
M  V30 11768 O 1136.19 -2.27283 -0.235523 0
M  V30 11769 C 1136.4 -1.35924 3.21443 0
M  V30 11770 C 1137.74 -1.80874 3.84148 0
M  V30 11771 O 1138.77 -1.45587 3.25089 0
M  V30 11772 O 1137.63 -2.46065 4.87969 0
M  V30 11773 H 1134.72 -0.403761 0.721738 0
M  V30 11774 H 1137.27 -0.0950726 1.69433 0
M  V30 11775 H 1136.04 -0.550113 3.87414 0
M  V30 11776 H 1135.66 -2.17579 3.32784 0
M  V30 11777 N 1136.66 -1.52894 -0.382264 0
M  V30 11778 C 1137.91 -1.67933 -1.1244 0
M  V30 11779 C 1138.23 -0.425166 -1.90309 0
M  V30 11780 O 1137.5 0.560557 -1.87709 0
M  V30 11781 H 1136.08 -0.619047 -0.418079 0
M  V30 11782 H 1138.74 -1.90031 -0.432928 0
M  V30 11783 H 1137.84 -2.53285 -1.82355 0
M  V30 11784 N 1138.14 0.641106 -1.43971 0
M  V30 11785 C 1139.07 1.76645 -1.46046 0
M  V30 11786 C 1140.08 1.58881 -0.355049 0
M  V30 11787 O 1141.27 1.67379 -0.620207 0
M  V30 11788 C 1138.37 3.14237 -1.26918 0
M  V30 11789 C 1137.54 3.5855 -2.50521 0
M  V30 11790 C 1136.6 4.74986 -2.26438 0
M  V30 11791 O 1135.63 4.83807 -2.99866 0
M  V30 11792 N 1136.83 5.66016 -1.28866 0
M  V30 11793 H 1139.6 1.75339 -2.43056 0
M  V30 11794 H 1137.16 0.82535 -1.39282 0
M  V30 11795 H 1139.15 3.89837 -1.0867 0
M  V30 11796 H 1137.72 3.10244 -0.383082 0
M  V30 11797 H 1136.94 2.73265 -2.84112 0
M  V30 11798 H 1138.23 3.84906 -3.32754 0
M  V30 11799 H 1137.63 5.61574 -0.682018 0
M  V30 11800 H 1136.18 6.41286 -1.16599 0
M  V30 11801 N 1139.62 1.30703 0.880598 0
M  V30 11802 C 1140.86 1.19778 1.63277 0
M  V30 11803 C 1141.19 -0.246521 1.92931 0
M  V30 11804 O 1140.45 -1.19226 1.55189 0
M  V30 11805 C 1140.74 1.97628 2.97789 0
M  V30 11806 C 1140.41 3.47213 2.87669 0
M  V30 11807 C 1139.07 3.88004 2.84617 0
M  V30 11808 C 1141.42 4.4245 2.75477 0
M  V30 11809 C 1138.75 5.22315 2.67216 0
M  V30 11810 C 1141.1 5.76874 2.59614 0
M  V30 11811 C 1139.77 6.16898 2.54939 0
M  V30 11812 H 1139.04 0.438298 0.597475 0
M  V30 11813 H 1141.69 1.61853 1.02352 0
M  V30 11814 H 1139.99 1.48201 3.6269 0
M  V30 11815 H 1141.69 1.86563 3.54958 0
M  V30 11816 H 1138.28 3.14802 2.90857 0
M  V30 11817 H 1142.46 4.11875 2.76899 0
M  V30 11818 H 1137.72 5.52412 2.62014 0
M  V30 11819 H 1141.89 6.50304 2.49155 0
M  V30 11820 H 1139.52 7.20916 2.41214 0
M  V30 11821 N 1141.09 -1.09351 1.1349 0
M  V30 11822 C 1142.32 -1.85304 0.920324 0
M  V30 11823 C 1142.74 -1.81182 -0.530883 0
M  V30 11824 O 1142.09 -1.20853 -1.36751 0
M  V30 11825 C 1142.14 -3.33249 1.40098 0
M  V30 11826 O 1141.87 -3.37333 2.79531 0
M  V30 11827 C 1143.37 -4.2604 1.22495 0
M  V30 11828 H 1140.59 -0.585294 0.328134 0
M  V30 11829 H 1143.13 -1.38168 1.50765 0
M  V30 11830 H 1141.29 -3.7781 0.85664 0
M  V30 11831 H 1141.7 -4.29614 3.00885 0
M  V30 11832 H 1143.17 -5.27999 1.61 0
M  V30 11833 H 1143.65 -4.38883 0.166717 0
M  V30 11834 H 1144.26 -3.87295 1.75735 0
M  V30 11835 N 1142.57 -0.928524 -1.27343 0
M  V30 11836 C 1143.82 -0.570235 -1.94618 0
M  V30 11837 C 1144.15 0.886381 -1.72792 0
M  V30 11838 O 1143.43 1.63242 -1.05747 0
M  V30 11839 C 1143.71 -0.897964 -3.48724 0
M  V30 11840 C 1143.56 -2.40839 -3.7989 0
M  V30 11841 C 1144.88 -0.404429 -4.38238 0
M  V30 11842 H 1142 -0.208645 -0.70685 0
M  V30 11843 H 1144.64 -1.16045 -1.50444 0
M  V30 11844 H 1142.79 -0.395679 -3.8648 0
M  V30 11845 H 1144.46 -2.98243 -3.51921 0
M  V30 11846 H 1142.71 -2.85723 -3.26412 0
M  V30 11847 H 1143.38 -2.58823 -4.8756 0
M  V30 11848 H 1145.85 -0.834918 -4.07637 0
M  V30 11849 H 1144.73 -0.662684 -5.44885 0
M  V30 11850 H 1144.99 0.695507 -4.36595 0
M  V30 11851 N 1144.05 1.41491 -0.694123 0
M  V30 11852 C 1145.3 2.00479 -0.221585 0
M  V30 11853 C 1145.61 1.55605 1.18518 0
M  V30 11854 O 1146.82 2.07143 1.7551 0
M  V30 11855 C 1145.27 3.5824 -0.345264 0
M  V30 11856 C 1144.88 4.12096 -1.7573 0
M  V30 11857 C 1146.63 4.24446 0.0675731 0
M  V30 11858 C 1144.53 5.62286 -1.83271 0
M  V30 11859 H 1143.46 0.749841 -0.0790854 0
M  V30 11860 H 1146.11 1.61987 -0.86211 0
M  V30 11861 H 1144.5 3.94328 0.363487 0
M  V30 11862 H 1145.67 3.8743 -2.49469 0
M  V30 11863 H 1143.98 3.58411 -2.11969 0
M  V30 11864 H 1146.58 5.34691 0.0316485 0
M  V30 11865 H 1146.92 4.01338 1.10606 0
M  V30 11866 H 1147.46 3.93388 -0.59085 0
M  V30 11867 H 1144.2 5.9022 -2.85168 0
M  V30 11868 H 1143.72 5.88883 -1.13914 0
M  V30 11869 H 1145.4 6.27033 -1.59494 0
M  V30 11870 N 1145.53 0.438773 1.51369 0
M  V30 11871 C 1146.46 -0.407771 2.25543 0
M  V30 11872 C 1147.47 -0.985065 1.29616 0
M  V30 11873 O 1148.66 -0.878961 1.55359 0
M  V30 11874 C 1145.76 -1.58257 2.9968 0
M  V30 11875 C 1144.93 -1.12389 4.22714 0
M  V30 11876 C 1143.99 -2.16897 4.79418 0
M  V30 11877 O 1143.02 -1.76273 5.41218 0
M  V30 11878 N 1144.22 -3.49396 4.63576 0
M  V30 11879 H 1146.99 0.227963 2.98832 0
M  V30 11880 H 1144.55 0.267741 1.59671 0
M  V30 11881 H 1146.54 -2.27796 3.34501 0
M  V30 11882 H 1145.11 -2.12362 2.29393 0
M  V30 11883 H 1144.33 -0.255509 3.93371 0
M  V30 11884 H 1145.62 -0.794848 5.02553 0
M  V30 11885 H 1145.02 -3.85132 4.14355 0
M  V30 11886 H 1143.57 -4.14826 5.02755 0
M  V30 11887 N 1147.01 -1.56678 0.170181 0
M  V30 11888 C 1147.94 -2.20916 -0.756213 0
M  V30 11889 C 1148.92 -1.16442 -1.23997 0
M  V30 11890 O 1150.1 -1.44867 -1.29333 0
M  V30 11891 C 1147.23 -2.84901 -1.98617 0
M  V30 11892 C 1146.19 -3.95403 -1.63831 0
M  V30 11893 C 1145.51 -4.46432 -2.94282 0
M  V30 11894 C 1146.81 -5.15051 -0.867195 0
M  V30 11895 H 1148.51 -2.98585 -0.220776 0
M  V30 11896 H 1146.05 -1.43619 -0.104748 0
M  V30 11897 H 1148 -3.28514 -2.63926 0
M  V30 11898 H 1146.73 -2.04598 -2.54572 0
M  V30 11899 H 1145.39 -3.52444 -1.00891 0
M  V30 11900 H 1145.04 -3.62923 -3.48276 0
M  V30 11901 H 1144.74 -5.20979 -2.71762 0
M  V30 11902 H 1146.26 -4.92731 -3.60622 0
M  V30 11903 H 1147.67 -5.55363 -1.42285 0
M  V30 11904 H 1146.07 -5.95507 -0.741065 0
M  V30 11905 H 1147.14 -4.84707 0.136693 0
M  V30 11906 N 1148.48 0.103547 -1.57259 0
M  V30 11907 C 1149.73 0.809774 -1.85931 0
M  V30 11908 C 1150.06 1.78791 -0.758122 0
M  V30 11909 O 1149.34 1.93079 0.234682 0
M  V30 11910 C 1149.62 1.54601 -3.25224 0
M  V30 11911 C 1149.47 0.586439 -4.45961 0
M  V30 11912 C 1150.79 2.4986 -3.62296 0
M  V30 11913 H 1147.91 0.29293 -0.676285 0
M  V30 11914 H 1150.55 0.0736065 -1.89857 0
M  V30 11915 H 1148.7 2.17355 -3.22008 0
M  V30 11916 H 1150.38 -0.0334441 -4.61288 0
M  V30 11917 H 1148.62 -0.10085 -4.33683 0
M  V30 11918 H 1149.29 1.13855 -5.40131 0
M  V30 11919 H 1151.77 1.97203 -3.66402 0
M  V30 11920 H 1150.64 2.98396 -4.60707 0
M  V30 11921 H 1150.9 3.33233 -2.90531 0
M  V30 11922 N 1149.96 1.53094 0.37415 0
M  V30 11923 C 1151.21 1.68527 1.11548 0
M  V30 11924 C 1151.53 0.435253 1.9008 0
M  V30 11925 O 1150.8 -0.550594 1.88003 0
M  V30 11926 H 1149.38 0.621255 0.41479 0
M  V30 11927 H 1152.04 1.90258 0.422844 0
M  V30 11928 H 1151.14 2.54248 1.81009 0
M  V30 11929 N 1151.44 -0.633461 1.44309 0
M  V30 11930 C 1152.37 -1.7583 1.45462 0
M  V30 11931 C 1153.35 -1.59545 0.313723 0
M  V30 11932 O 1154.53 -1.8146 0.51034 0
M  V30 11933 C 1151.66 -3.13375 1.28506 0
M  V30 11934 C 1150.71 -3.48315 2.46128 0
M  V30 11935 S 1151.54 -3.46058 4.08662 0
M  V30 11936 C 1152.7 -4.86226 3.94125 0
M  V30 11937 H 1152.93 -1.74585 2.4064 0
M  V30 11938 H 1150.46 -0.807868 1.31578 0
M  V30 11939 H 1152.42 -3.92748 1.19411 0
M  V30 11940 H 1151.08 -3.12161 0.348432 0
M  V30 11941 H 1150.27 -4.48397 2.30122 0
M  V30 11942 H 1149.88 -2.76399 2.51951 0
M  V30 11943 H 1152.17 -5.75393 3.57671 0
M  V30 11944 H 1153.11 -5.07287 4.9403 0
M  V30 11945 H 1153.52 -4.60691 3.26227 0
M  V30 11946 N 1152.92 -1.31168 -0.873655 0
M  V30 11947 C 1153.85 -1.21094 -1.99646 0
M  V30 11948 C 1154.83 -0.0989684 -1.69812 0
M  V30 11949 O 1156.01 -0.282939 -1.92128 0
M  V30 11950 C 1153.14 -0.913684 -3.35066 0
M  V30 11951 C 1152.1 -1.98482 -3.79195 0
M  V30 11952 C 1151.42 -1.54033 -5.12033 0
M  V30 11953 C 1152.72 -3.39745 -3.96699 0
M  V30 11954 H 1154.42 -2.1503 -2.08333 0
M  V30 11955 H 1151.96 -1.03521 -1.00097 0
M  V30 11956 H 1153.92 -0.829821 -4.13149 0
M  V30 11957 H 1152.64 0.0613471 -3.26542 0
M  V30 11958 H 1151.3 -2.05851 -3.03349 0
M  V30 11959 H 1150.95 -0.553261 -4.99948 0
M  V30 11960 H 1150.65 -2.25688 -5.4253 0
M  V30 11961 H 1152.17 -1.47047 -5.92629 0
M  V30 11962 H 1153.59 -3.35071 -4.65188 0
M  V30 11963 H 1151.98 -4.09585 -4.38589 0
M  V30 11964 H 1153.05 -3.80802 -3.00196 0
M  V30 11965 N 1154.4 1.08748 -1.14068 0
M  V30 11966 C 1155.81 1.33125 -0.880341 0
M  V30 11967 C 1156.01 1.9569 0.480396 0
M  V30 11968 O 1155.07 2.2077 1.22543 0
M  V30 11969 C 1156.38 2.23618 -2.01036 0
M  V30 11970 C 1157.93 2.37108 -2.04326 0
M  V30 11971 C 1158.4 3.30941 -3.1661 0
M  V30 11972 N 1159.9 3.38517 -3.16166 0
M  V30 11973 C 1160.63 4.11142 -3.99687 0
M  V30 11974 N 1160.13 4.86505 -4.93239 0
M  V30 11975 N 1161.92 4.06938 -3.87761 0
M  V30 11976 H 1154.07 0.665164 -2.01716 0
M  V30 11977 H 1156.33 0.355612 -0.878774 0
M  V30 11978 H 1156.04 1.84885 -2.99183 0
M  V30 11979 H 1155.91 3.24056 -1.93049 0
M  V30 11980 H 1158.3 2.75101 -1.06787 0
M  V30 11981 H 1158.38 1.36424 -2.16384 0
M  V30 11982 H 1158.03 2.93669 -4.14392 0
M  V30 11983 H 1157.96 4.31545 -3.01789 0
M  V30 11984 H 1160.45 2.84786 -2.48405 0
M  V30 11985 H 1160.76 5.39372 -5.53441 0
M  V30 11986 H 1159.1 4.8557 -4.9724 0
M  V30 11987 H 1162.3 3.47166 -3.13996 0
M  V30 11988 H 1162.47 4.63275 -4.53079 0
M  V30 11989 N 1155.87 0.935264 1.26849 0
M  V30 11990 C 1157.12 0.578545 1.93642 0
M  V30 11991 C 1157.44 -0.884296 1.73796 0
M  V30 11992 O 1156.71 -1.62768 1.09011 0
M  V30 11993 H 1155.29 0.210976 0.716588 0
M  V30 11994 H 1157.96 1.1893 1.54407 0
M  V30 11995 H 1157.05 0.791268 3.01903 0
M  V30 11996 N 1157.35 -1.41121 0.701616 0
M  V30 11997 C 1158.6 -2.00359 0.232214 0
M  V30 11998 C 1158.91 -1.56231 -1.17691 0
M  V30 11999 O 1160.12 -2.08071 -1.74409 0
M  V30 12000 C 1158.58 -3.58052 0.364257 0
M  V30 12001 C 1158.18 -4.11158 1.77913 0
M  V30 12002 C 1159.93 -4.24476 -0.0450628 0
M  V30 12003 C 1157.84 -5.61306 1.8625 0
M  V30 12004 H 1156.77 -0.749411 0.0830609 0
M  V30 12005 H 1159.42 -1.61528 0.870689 0
M  V30 12006 H 1157.8 -3.94515 -0.342569 0
M  V30 12007 H 1158.97 -3.86101 2.5152 0
M  V30 12008 H 1157.29 -3.57282 2.13866 0
M  V30 12009 H 1159.88 -5.347 -0.00329209 0
M  V30 12010 H 1160.23 -4.01919 -1.08477 0
M  V30 12011 H 1160.76 -3.93069 0.611704 0
M  V30 12012 H 1157.5 -5.88699 2.88294 0
M  V30 12013 H 1157.02 -5.88271 1.17036 0
M  V30 12014 H 1158.7 -6.26179 1.62817 0
M  V30 12015 N 1158.83 -0.446794 -1.51134 0
M  V30 12016 C 1160.06 0.117242 -2.07068 0
M  V30 12017 C 1160.48 1.34877 -1.3111 0
M  V30 12018 O 1159.84 1.77856 -0.35172 0
M  V30 12019 C 1159.89 0.408616 -3.58277 0
M  V30 12020 O 1158.99 1.49345 -3.84408 0
M  V30 12021 H 1158.33 -0.00228458 -0.663996 0
M  V30 12022 H 1160.86 -0.63085 -1.94632 0
M  V30 12023 H 1160.87 0.656298 -4.02687 0
M  V30 12024 H 1159.55 -0.491444 -4.12986 0
M  V30 12025 H 1158.12 1.23499 -3.51856 0
M  V30 12026 N 1160.31 1.56586 -0.178487 0
M  V30 12027 C 1161.27 2.17091 0.73512 0
M  V30 12028 C 1162.27 1.12088 1.15295 0
M  V30 12029 O 1163.46 1.37563 1.06874 0
M  V30 12030 C 1160.59 2.75957 2.00151 0
M  V30 12031 H 1161.79 2.99176 0.208272 0
M  V30 12032 H 1159.34 1.56138 0.0710967 0
M  V30 12033 H 1160.07 1.97626 2.57127 0
M  V30 12034 H 1159.86 3.52809 1.7108 0
M  V30 12035 H 1161.35 3.2247 2.65335 0
M  V30 12036 N 1161.79 -0.095206 1.57312 0
M  V30 12037 C 1163.03 -0.797142 1.85715 0
M  V30 12038 C 1163.36 -1.79275 0.767171 0
M  V30 12039 O 1162.63 -1.94808 -0.206584 0
M  V30 12040 H 1161.21 -0.297382 0.685254 0
M  V30 12041 H 1163.87 -0.0768617 1.94748 0
M  V30 12042 H 1162.96 -1.32779 2.82447 0
M  V30 12043 N 1163.26 -1.53291 -0.366026 0
M  V30 12044 C 1164.2 -1.7448 -1.47079 0
M  V30 12045 C 1165.18 -0.593147 -1.51395 0
M  V30 12046 O 1166.36 -0.825686 -1.69454 0
M  V30 12047 C 1163.49 -1.82319 -2.85443 0
M  V30 12048 C 1162.53 -3.04285 -2.98852 0
M  V30 12049 S 1163.37 -4.63812 -2.67653 0
M  V30 12050 C 1164.52 -4.74499 -4.08168 0
M  V30 12051 H 1164.75 -2.67911 -1.28884 0
M  V30 12052 H 1162.29 -1.43874 -0.560335 0
M  V30 12053 H 1164.25 -1.87521 -3.65166 0
M  V30 12054 H 1162.91 -0.899398 -3.00948 0
M  V30 12055 H 1162.1 -3.06379 -4.00185 0
M  V30 12056 H 1161.7 -2.97193 -2.27051 0
M  V30 12057 H 1163.99 -4.54527 -5.02406 0
M  V30 12058 H 1164.94 -5.76558 -4.1108 0
M  V30 12059 H 1165.34 -4.03136 -3.95147 0
M  V30 12060 N 1164.74 0.6258 -1.44643 0
M  V30 12061 C 1165.69 1.73751 -1.51919 0
M  V30 12062 C 1166.66 1.62007 -0.36647 0
M  V30 12063 O 1167.84 1.81852 -0.577439 0
M  V30 12064 C 1164.98 3.12015 -1.47448 0
M  V30 12065 C 1164.1 3.34696 -2.73135 0
M  V30 12066 C 1163.23 4.62962 -2.6046 0
M  V30 12067 C 1162.27 4.7884 -3.81286 0
M  V30 12068 N 1161.41 5.98388 -3.67255 0
M  V30 12069 H 1166.25 1.66867 -2.46899 0
M  V30 12070 H 1163.79 0.813921 -1.22531 0
M  V30 12071 H 1165.74 3.91983 -1.42846 0
M  V30 12072 H 1164.37 3.179 -0.560312 0
M  V30 12073 H 1163.43 2.4863 -2.87901 0
M  V30 12074 H 1164.74 3.42306 -3.62806 0
M  V30 12075 H 1163.89 5.51099 -2.53722 0
M  V30 12076 H 1162.63 4.57719 -1.68359 0
M  V30 12077 H 1161.64 3.89131 -3.88403 0
M  V30 12078 H 1162.86 4.85893 -4.74431 0
M  V30 12079 H 1160.81 5.94224 -2.77909 0
M  V30 12080 H 1160.72 6.07078 -4.50547 0
M  V30 12081 H 1161.99 6.89072 -3.64417 0
M  V30 12082 N 1166.22 1.31629 0.866686 0
M  V30 12083 C 1167.45 1.24293 1.6503 0
M  V30 12084 C 1167.86 -0.193556 1.88207 0
M  V30 12085 O 1167.2 -1.13712 1.44275 0
M  V30 12086 C 1167.26 1.92032 3.03914 0
M  V30 12087 C 1166.93 3.41373 3.03831 0
M  V30 12088 C 1167.92 4.37064 2.81551 0
M  V30 12089 C 1165.61 3.83118 3.24848 0
M  V30 12090 C 1167.6 5.72474 2.80272 0
M  V30 12091 C 1165.29 5.18639 3.23197 0
M  V30 12092 C 1166.29 6.13128 3.00936 0
M  V30 12093 O 1165.98 7.46172 2.99137 0
M  V30 12094 H 1165.71 0.430569 0.521139 0
M  V30 12095 H 1168.26 1.74105 1.0898 0
M  V30 12096 H 1166.49 1.36774 3.61704 0
M  V30 12097 H 1168.18 1.78567 3.64512 0
M  V30 12098 H 1168.95 4.06142 2.65093 0
M  V30 12099 H 1164.83 3.10001 3.41204 0
M  V30 12100 H 1168.37 6.46199 2.62816 0
M  V30 12101 H 1164.27 5.49196 3.39197 0
M  V30 12102 H 1165.04 7.55385 3.15175 0
M  V30 12103 N 1167.7 -1.08142 1.14644 0
M  V30 12104 C 1168.63 -2.17139 0.858667 0
M  V30 12105 C 1169.61 -1.69064 -0.187452 0
M  V30 12106 O 1170.8 -1.94151 -0.0435458 0
M  V30 12107 C 1167.93 -3.45648 0.33834 0
M  V30 12108 C 1166.88 -4.07129 1.32021 0
M  V30 12109 C 1166.21 -5.30623 0.659075 0
M  V30 12110 C 1167.51 -4.48095 2.68343 0
M  V30 12111 H 1169.2 -2.41468 1.77012 0
M  V30 12112 H 1166.75 -1.16052 0.852523 0
M  V30 12113 H 1168.7 -4.21216 0.124611 0
M  V30 12114 H 1167.42 -3.2088 -0.608553 0
M  V30 12115 H 1166.08 -3.33596 1.52016 0
M  V30 12116 H 1165.73 -5.02142 -0.293711 0
M  V30 12117 H 1165.43 -5.72714 1.31427 0
M  V30 12118 H 1166.95 -6.08903 0.454933 0
M  V30 12119 H 1168.37 -5.14828 2.5224 0
M  V30 12120 H 1166.76 -5.01113 3.30161 0
M  V30 12121 H 1167.83 -3.59852 3.25015 0
M  V30 12122 N 1169.18 -0.941978 -1.26351 0
M  V30 12123 C 1170.4 -0.606231 -1.98342 0
M  V30 12124 C 1170.83 0.812014 -1.6967 0
M  V30 12125 O 1170.19 1.54712 -0.9452 0
M  V30 12126 C 1170.23 -0.855864 -3.50296 0
M  V30 12127 O 1169.34 0.0716251 -4.12338 0
M  V30 12128 H 1168.68 -0.231815 -0.62222 0
M  V30 12129 H 1171.21 -1.26513 -1.60797 0
M  V30 12130 H 1171.22 -0.777079 -4.00531 0
M  V30 12131 H 1169.89 -1.8896 -3.70496 0
M  V30 12132 H 1168.47 -0.0582866 -3.72854 0
M  V30 12133 N 1170.66 1.40747 -0.709091 0
M  V30 12134 C 1171.93 1.94831 -0.173246 0
M  V30 12135 C 1172.31 1.64766 1.31967 0
M  V30 12136 O 1171.66 0.961853 2.07269 0
M  V30 12137 C 1171.87 3.45697 -0.479013 0
M  V30 12138 C 1173.22 4.22576 -0.414122 0
M  V30 12139 O 1174.24 3.53778 -0.414699 0
M  V30 12140 O 1173.1 5.45135 -0.385986 0
M  V30 12141 H 1170.2 0.826683 -0.0228947 0
M  V30 12142 H 1172.74 1.50391 -0.786178 0
M  V30 12143 H 1171.51 3.60914 -1.51185 0
M  V30 12144 H 1171.14 3.97261 0.164211 0
M  V30 12145 N 1172.13 0.454803 1.50895 0
M  V30 12146 C 1173.07 -0.393395 2.24784 0
M  V30 12147 C 1174.04 -1.01005 1.27424 0
M  V30 12148 O 1175.23 -1.04914 1.56605 0
M  V30 12149 C 1172.36 -1.54978 3.01164 0
M  V30 12150 C 1171.4 -1.0521 4.1332 0
M  V30 12151 S 1172.23 0.0200486 5.35496 0
M  V30 12152 C 1173.39 -1.14059 6.1542 0
M  V30 12153 H 1173.62 0.233864 2.96379 0
M  V30 12154 H 1171.16 0.239498 1.52531 0
M  V30 12155 H 1173.11 -2.21262 3.45765 0
M  V30 12156 H 1171.78 -2.1485 2.29125 0
M  V30 12157 H 1170.97 -1.91734 4.66105 0
M  V30 12158 H 1170.57 -0.467234 3.7107 0
M  V30 12159 H 1172.86 -2.05552 6.45565 0
M  V30 12160 H 1173.81 -0.652339 7.05089 0
M  V30 12161 H 1174.21 -1.38705 5.47194 0
M  V30 12162 N 1173.61 -1.56489 0.186789 0
M  V30 12163 C 1174.86 -1.96952 -0.453261 0
M  V30 12164 C 1175.18 -1.07451 -1.62725 0
M  V30 12165 O 1174.45 -0.144046 -1.9537 0
M  V30 12166 H 1173.03 -0.727295 -0.170445 0
M  V30 12167 H 1175.69 -1.92999 0.271584 0
M  V30 12168 H 1174.79 -3.01594 -0.802951 0
M  V30 12169 N 1175.09 0.086862 -1.5736 0
M  V30 12170 C 1176.32 0.801004 -1.9044 0
M  V30 12171 C 1176.73 1.72396 -0.779513 0
M  V30 12172 O 1176.07 1.81894 0.256972 0
M  V30 12173 C 1176.13 1.66055 -3.18851 0
M  V30 12174 C 1175.8 0.908561 -4.47877 0
M  V30 12175 C 1176.79 0.234621 -5.1937 0
M  V30 12176 C 1174.48 0.8802 -4.94528 0
M  V30 12177 C 1176.47 -0.45762 -6.35755 0
M  V30 12178 C 1174.16 0.184179 -6.10822 0
M  V30 12179 C 1175.16 -0.483545 -6.81286 0
M  V30 12180 O 1174.85 -1.16839 -7.95364 0
M  V30 12181 H 1174.58 0.233794 -0.634284 0
M  V30 12182 H 1177.13 0.0660113 -2.05294 0
M  V30 12183 H 1175.36 2.43798 -3.00165 0
M  V30 12184 H 1177.05 2.252 -3.37698 0
M  V30 12185 H 1177.82 0.247938 -4.84366 0
M  V30 12186 H 1173.7 1.38938 -4.39565 0
M  V30 12187 H 1177.24 -0.979369 -6.90691 0
M  V30 12188 H 1173.14 0.168737 -6.45279 0
M  V30 12189 H 1173.9 -1.07612 -8.11395 0
M  V30 12190 N 1176.57 1.53483 0.357892 0
M  V30 12191 C 1177.81 1.70289 1.10134 0
M  V30 12192 C 1178.15 0.457296 1.88739 0
M  V30 12193 O 1177.42 -0.545527 1.86693 0
M  V30 12194 C 1177.7 2.95755 2.05429 0
M  V30 12195 C 1177.56 4.30489 1.30382 0
M  V30 12196 C 1178.88 3.16844 3.05447 0
M  V30 12197 H 1176 0.61965 0.399003 0
M  V30 12198 H 1178.64 1.86133 0.381357 0
M  V30 12199 H 1176.79 2.82377 2.66825 0
M  V30 12200 H 1178.46 4.55692 0.71711 0
M  V30 12201 H 1176.7 4.2955 0.605712 0
M  V30 12202 H 1177.37 5.14427 2.00171 0
M  V30 12203 H 1179.85 3.29458 2.54159 0
M  V30 12204 H 1178.73 4.06053 3.69341 0
M  V30 12205 H 1178.99 2.32476 3.76041 0
M  V30 12206 N 1178.05 -0.61812 1.44973 0
M  V30 12207 C 1179 -1.72346 1.49268 0
M  V30 12208 C 1179.98 -1.56889 0.357042 0
M  V30 12209 O 1181.17 -1.66404 0.603212 0
M  V30 12210 C 1178.3 -3.11073 1.4522 0
M  V30 12211 C 1177.39 -3.31953 2.63947 0
M  V30 12212 N 1177.78 -3.23141 3.89119 0
M  V30 12213 C 1176.08 -3.62791 2.59419 0
M  V30 12214 C 1176.78 -3.45066 4.683 0
M  V30 12215 N 1175.75 -3.68558 3.99582 0
M  V30 12216 H 1179.55 -1.6401 2.43881 0
M  V30 12217 H 1177.07 -0.821029 1.40117 0
M  V30 12218 H 1179.07 -3.90356 1.46381 0
M  V30 12219 H 1177.73 -3.20565 0.516555 0
M  V30 12220 H 1178.74 -3.01773 4.20896 0
M  V30 12221 H 1175.41 -3.79185 1.74713 0
M  V30 12222 H 1176.8 -3.43735 5.77318 0
M  V30 12223 N 1179.52 -1.32087 -0.859693 0
M  V30 12224 C 1180.94 -1.10968 -1.14709 0
M  V30 12225 C 1181.14 0.113139 -2.01182 0
M  V30 12226 O 1180.2 0.799499 -2.39508 0
M  V30 12227 C 1181.51 -2.38657 -1.8293 0
M  V30 12228 C 1183.06 -2.44366 -1.95587 0
M  V30 12229 C 1183.53 -3.71963 -2.67222 0
M  V30 12230 N 1185.02 -3.72916 -2.7475 0
M  V30 12231 C 1185.76 -4.68346 -3.30816 0
M  V30 12232 N 1185.25 -5.74139 -3.87732 0
M  V30 12233 N 1187.05 -4.55851 -3.28872 0
M  V30 12234 H 1179.2 -2.10497 -0.283711 0
M  V30 12235 H 1181.46 -0.929108 -0.188315 0
M  V30 12236 H 1181.17 -3.2803 -1.26844 0
M  V30 12237 H 1181.04 -2.49236 -2.83128 0
M  V30 12238 H 1183.43 -1.55456 -2.50833 0
M  V30 12239 H 1183.51 -2.37744 -0.944001 0
M  V30 12240 H 1183.15 -4.61245 -2.1264 0
M  V30 12241 H 1183.08 -3.75855 -3.68837 0
M  V30 12242 H 1185.57 -2.96447 -2.34367 0
M  V30 12243 H 1185.89 -6.43021 -4.28654 0
M  V30 12244 H 1184.23 -5.779 -3.86078 0
M  V30 12245 H 1187.42 -3.72371 -2.83651 0
M  V30 12246 H 1187.6 -5.30398 -3.72266 0
M  V30 12247 N 1181 1.07532 -1.15215 0
M  V30 12248 C 1182.28 1.76813 -0.83646 0
M  V30 12249 C 1182.66 2.00242 0.6683 0
M  V30 12250 O 1182.01 1.61941 1.61206 0
M  V30 12251 C 1182.22 3.0779 -1.64519 0
M  V30 12252 C 1183.56 3.82168 -1.85022 0
M  V30 12253 O 1184.59 3.17596 -1.61279 0
M  V30 12254 O 1183.45 4.98135 -2.24775 0
M  V30 12255 H 1180.54 0.767736 -0.307426 0
M  V30 12256 H 1183.09 1.13914 -1.25784 0
M  V30 12257 H 1181.86 2.86342 -2.6669 0
M  V30 12258 H 1181.48 3.78419 -1.22002 0
M  V30 12259 N 1182.48 0.948665 1.2585 0
M  V30 12260 C 1183.41 0.482036 2.2847 0
M  V30 12261 C 1184.39 -0.468553 1.63519 0
M  V30 12262 O 1185.58 -0.368796 1.90666 0
M  V30 12263 C 1182.71 -0.246603 3.46423 0
M  V30 12264 C 1181.66 0.61815 4.23513 0
M  V30 12265 C 1180.99 -0.240884 5.34157 0
M  V30 12266 C 1182.29 1.89327 4.86778 0
M  V30 12267 H 1183.98 1.33973 2.67753 0
M  V30 12268 H 1181.53 0.645645 1.28715 0
M  V30 12269 H 1183.48 -0.584135 4.17332 0
M  V30 12270 H 1182.2 -1.13849 3.06114 0
M  V30 12271 H 1180.86 0.938682 3.54379 0
M  V30 12272 H 1180.51 -1.13235 4.90089 0
M  V30 12273 H 1180.21 0.334367 5.86648 0
M  V30 12274 H 1181.73 -0.573517 6.07901 0
M  V30 12275 H 1183.15 1.62252 5.49861 0
M  V30 12276 H 1181.55 2.41369 5.49419 0
M  V30 12277 H 1182.62 2.60006 4.09298 0
M  V30 12278 N 1183.96 -1.40369 0.716545 0
M  V30 12279 C 1184.92 -2.29083 0.0733105 0
M  V30 12280 C 1185.92 -1.45415 -0.686378 0
M  V30 12281 O 1187.11 -1.66316 -0.518139 0
M  V30 12282 C 1184.24 -3.28639 -0.906032 0
M  V30 12283 H 1185.44 -2.87464 0.85467 0
M  V30 12284 H 1182.99 -1.48706 0.481256 0
M  V30 12285 H 1183.72 -2.75279 -1.71441 0
M  V30 12286 H 1183.51 -3.90405 -0.364163 0
M  V30 12287 H 1185 -3.95066 -1.35324 0
M  V30 12288 N 1185.44 -0.462799 -1.50652 0
M  V30 12289 C 1186.4 0.324264 -2.26895 0
M  V30 12290 C 1187.4 0.927687 -1.31342 0
M  V30 12291 O 1188.59 0.798159 -1.54839 0
M  V30 12292 C 1185.72 1.46113 -3.08 0
M  V30 12293 H 1186.91 -0.344266 -2.97917 0
M  V30 12294 H 1184.47 -0.216631 -1.54791 0
M  V30 12295 H 1185.2 2.16496 -2.41454 0
M  V30 12296 H 1184.99 1.03433 -3.78212 0
M  V30 12297 H 1186.48 2.01655 -3.65684 0
M  V30 12298 N 1186.91 1.56388 -0.195085 0
M  V30 12299 C 1188.33 1.58788 0.160758 0
M  V30 12300 C 1188.53 1.21125 1.61031 0
M  V30 12301 O 1187.59 0.933994 2.34591 0
M  V30 12302 C 1188.9 3.00366 -0.141588 0
M  V30 12303 C 1190.45 3.12893 -0.0816947 0
M  V30 12304 C 1190.92 4.56604 -0.35735 0
M  V30 12305 N 1192.41 4.62188 -0.305968 0
M  V30 12306 C 1193.15 5.71276 -0.493108 0
M  V30 12307 N 1192.64 6.8883 -0.740595 0
M  V30 12308 N 1194.44 5.60473 -0.427365 0
M  V30 12309 H 1186.59 1.79151 -1.14099 0
M  V30 12310 H 1188.85 0.831446 -0.455413 0
M  V30 12311 H 1188.56 3.32483 -1.14666 0
M  V30 12312 H 1188.43 3.73082 0.555834 0
M  V30 12313 H 1190.82 2.80589 0.913978 0
M  V30 12314 H 1190.9 2.42564 -0.812193 0
M  V30 12315 H 1190.54 4.8962 -1.35034 0
M  V30 12316 H 1190.47 5.25124 0.394036 0
M  V30 12317 H 1192.96 3.77705 -0.121298 0
M  V30 12318 H 1193.28 7.67862 -0.872201 0
M  V30 12319 H 1191.62 6.90637 -0.777488 0
M  V30 12320 H 1194.81 4.67513 -0.234436 0
M  V30 12321 H 1194.99 6.45429 -0.576627 0
M  V30 12322 N 1188.39 -0.0785156 1.57404 0
M  V30 12323 C 1189.34 -1.11278 2.04255 0
M  V30 12324 C 1190.33 -1.40482 0.946633 0
M  V30 12325 O 1191.54 -1.39968 1.13177 0
M  V30 12326 H 1187.92 -0.376157 0.65116 0
M  V30 12327 H 1189.89 -0.691437 2.90279 0
M  V30 12328 C 1188.64 -2.42006 2.49656 0
M  V30 12329 H 1187.96 -2.20383 3.33574 0
M  V30 12330 H 1189.4 -3.12837 2.86197 0
M  V30 12331 C 1187.86 -3.07488 1.37669 0
M  V30 12332 O 1188.39 -3.95285 0.715036 0
M  V30 12333 N 1186.59 -2.68004 1.1235 0
M  V30 12334 H 1186.14 -1.96698 1.66336 0
M  V30 12335 H 1186.1 -3.12141 0.376238 0
M  V30 12336 N 1189.87 -1.5367 -0.349747 0
M  V30 12337 C 1191.12 -1.69835 -1.08807 0
M  V30 12338 C 1191.43 -0.46497 -1.89993 0
M  V30 12339 O 1192.64 -0.507452 -2.66716 0
M  V30 12340 C 1191.09 -3.00294 -1.98372 0
M  V30 12341 C 1190.7 -4.30949 -1.22422 0
M  V30 12342 C 1192.45 -3.25826 -2.72099 0
M  V30 12343 C 1190.35 -5.52486 -2.1098 0
M  V30 12344 H 1189.28 -0.63284 -0.409915 0
M  V30 12345 H 1191.93 -1.80171 -0.347968 0
M  V30 12346 H 1190.32 -2.838 -2.76176 0
M  V30 12347 H 1191.49 -4.58126 -0.495707 0
M  V30 12348 H 1189.81 -4.11983 -0.604896 0
M  V30 12349 H 1192.4 -4.13817 -3.38615 0
M  V30 12350 H 1192.75 -2.42566 -3.3833 0
M  V30 12351 H 1193.28 -3.43067 -2.0137 0
M  V30 12352 H 1190.02 -6.38271 -1.49301 0
M  V30 12353 H 1189.54 -5.29566 -2.81638 0
M  V30 12354 H 1191.22 -5.87889 -2.70176 0
M  V30 12355 N 1191.35 0.610423 -1.45298 0
M  V30 12356 C 1192.28 1.73207 -1.56594 0
M  V30 12357 C 1193.26 1.64893 -0.417651 0
M  V30 12358 O 1194.44 1.83336 -0.64043 0
M  V30 12359 C 1191.57 3.11803 -1.52959 0
M  V30 12360 C 1190.53 3.34925 -2.66475 0
M  V30 12361 C 1189.85 4.73764 -2.47894 0
M  V30 12362 C 1191.15 3.25456 -4.08504 0
M  V30 12363 H 1192.85 1.6401 -2.50482 0
M  V30 12364 H 1190.39 0.787621 -1.20551 0
M  V30 12365 H 1192.35 3.90065 -1.59458 0
M  V30 12366 H 1191.07 3.21833 -0.55599 0
M  V30 12367 H 1189.73 2.59051 -2.59399 0
M  V30 12368 H 1189.38 4.80524 -1.4868 0
M  V30 12369 H 1189.08 4.90191 -3.24016 0
M  V30 12370 H 1190.6 5.54231 -2.56243 0
M  V30 12371 H 1192.02 3.93597 -4.16839 0
M  V30 12372 H 1190.41 3.53414 -4.84994 0
M  V30 12373 H 1191.48 2.22939 -4.30612 0
M  V30 12374 N 1192.83 1.32541 0.852676 0
M  V30 12375 C 1194.08 1.22567 1.60188 0
M  V30 12376 C 1194.39 -0.210594 1.94463 0
M  V30 12377 O 1195.59 -0.432214 2.68038 0
M  V30 12378 C 1194.05 2.14678 2.88862 0
M  V30 12379 C 1193.66 3.63398 2.62004 0
M  V30 12380 C 1195.4 2.13545 3.66877 0
M  V30 12381 C 1193.31 4.47464 3.86691 0
M  V30 12382 H 1192.24 0.455184 0.601102 0
M  V30 12383 H 1194.89 1.57515 0.941347 0
M  V30 12384 H 1193.27 1.72647 3.56383 0
M  V30 12385 H 1194.45 4.13783 2.02782 0
M  V30 12386 H 1192.76 3.66681 1.97316 0
M  V30 12387 H 1195.36 2.73589 4.59405 0
M  V30 12388 H 1195.7 1.12694 4.00756 0
M  V30 12389 H 1196.23 2.53866 3.06263 0
M  V30 12390 H 1192.97 5.49136 3.57952 0
M  V30 12391 H 1192.49 4.01829 4.45302 0
M  V30 12392 H 1194.17 4.60565 4.5441 0
M  V30 12393 N 1194.3 -1.0692 1.15784 0
M  V30 12394 C 1195.25 -2.16335 0.854506 0
M  V30 12395 C 1196.25 -1.68505 -0.173868 0
M  V30 12396 O 1197.45 -1.79977 -0.0284722 0
M  V30 12397 H 1193.83 -0.706103 0.258694 0
M  V30 12398 H 1195.8 -2.39135 1.78486 0
M  V30 12399 C 1194.55 -3.45778 0.365042 0
M  V30 12400 H 1193.87 -3.82971 1.14776 0
M  V30 12401 H 1195.31 -4.23567 0.191504 0
M  V30 12402 C 1193.77 -3.24258 -0.914253 0
M  V30 12403 O 1194.3 -3.49236 -1.98487 0
M  V30 12404 N 1192.51 -2.77722 -0.855501 0
M  V30 12405 H 1192.05 -2.57595 0.0159233 0
M  V30 12406 H 1192.01 -2.63702 -1.71198 0
M  V30 12407 N 1195.78 -0.955326 -1.25345 0
M  V30 12408 C 1197.01 -0.627233 -1.97688 0
M  V30 12409 C 1197.43 0.793973 -1.70522 0
M  V30 12410 O 1196.79 1.537 -0.961556 0
M  V30 12411 C 1196.84 -0.892969 -3.49369 0
M  V30 12412 O 1195.94 0.0278871 -4.12391 0
M  V30 12413 H 1195.28 -0.238402 -0.619726 0
M  V30 12414 H 1197.81 -1.28211 -1.59446 0
M  V30 12415 H 1197.82 -0.819517 -3.99685 0
M  V30 12416 H 1196.5 -1.92879 -3.6847 0
M  V30 12417 H 1195.08 -0.0978295 -3.72772 0
M  V30 12418 N 1197.26 1.39987 -0.723979 0
M  V30 12419 C 1198.21 2.32507 -0.0658033 0
M  V30 12420 C 1199.2 1.52484 0.737908 0
M  V30 12421 O 1200.41 1.68225 0.640332 0
M  V30 12422 H 1196.78 0.751996 -0.00247717 0
M  V30 12423 H 1198.76 2.85657 -0.862696 0
M  V30 12424 C 1197.5 3.37509 0.835628 0
M  V30 12425 H 1196.83 3.99157 0.226589 0
M  V30 12426 H 1198.27 4.04722 1.26396 0
M  V30 12427 C 1196.73 2.73665 1.96492 0
M  V30 12428 O 1197.26 2.60649 3.05655 0
M  V30 12429 N 1195.46 2.3192 1.75104 0
M  V30 12430 H 1195.01 2.42707 0.863204 0
M  V30 12431 H 1194.97 1.89542 2.50841 0
M  V30 12432 N 1198.74 0.470782 1.50404 0
M  V30 12433 C 1199.67 -0.313458 2.31386 0
M  V30 12434 C 1200.65 -0.990623 1.38278 0
M  V30 12435 O 1201.84 -0.987854 1.67198 0
M  V30 12436 C 1198.97 -1.39599 3.18009 0
M  V30 12437 C 1197.92 -0.840443 4.19667 0
M  V30 12438 C 1197.25 -2.02124 4.95025 0
M  V30 12439 C 1198.55 0.148055 5.2209 0
M  V30 12440 H 1200.24 0.362432 2.97198 0
M  V30 12441 H 1197.79 0.175745 1.42924 0
M  V30 12442 H 1199.74 -1.9521 3.73458 0
M  V30 12443 H 1198.46 -2.10064 2.50081 0
M  V30 12444 H 1197.12 -0.306302 3.65318 0
M  V30 12445 H 1196.77 -2.71286 4.23571 0
M  V30 12446 H 1196.47 -1.65574 5.6379 0
M  V30 12447 H 1197.99 -2.58226 5.5331 0
M  V30 12448 H 1199.41 -0.318874 5.72413 0
M  V30 12449 H 1197.8 0.427811 5.98573 0
M  V30 12450 H 1198.87 1.07404 4.72855 0
M  V30 12451 N 1200.22 -1.56282 0.203376 0
M  V30 12452 C 1201.46 -1.98105 -0.433844 0
M  V30 12453 C 1201.8 -1.09044 -1.60695 0
M  V30 12454 O 1201.07 -0.144193 -1.93965 0
M  V30 12455 C 1201.35 -3.4903 -0.885992 0
M  V30 12456 C 1201.21 -4.48867 0.289501 0
M  V30 12457 C 1202.53 -4.03871 -1.7486 0
M  V30 12458 H 1199.65 -0.720252 -0.156224 0
M  V30 12459 H 1202.29 -1.87681 0.295963 0
M  V30 12460 H 1200.44 -3.58045 -1.50785 0
M  V30 12461 H 1202.11 -4.51883 0.92734 0
M  V30 12462 H 1200.35 -4.23495 0.939934 0
M  V30 12463 H 1201.02 -5.51956 -0.0695128 0
M  V30 12464 H 1203.5 -3.97688 -1.22407 0
M  V30 12465 H 1202.38 -5.09827 -2.03391 0
M  V30 12466 H 1202.64 -3.49637 -2.70567 0
M  V30 12467 N 1201.7 0.070167 -1.57444 0
M  V30 12468 C 1202.94 0.774338 -1.89165 0
M  V30 12469 C 1203.3 1.7466 -0.797353 0
M  V30 12470 O 1204.5 2.49599 -0.997682 0
M  V30 12471 C 1202.77 1.46235 -3.26114 0
M  V30 12472 S 1204.33 2.20136 -3.79586 0
M  V30 12473 H 1201.15 0.257464 -0.662747 0
M  V30 12474 H 1203.75 0.0303734 -1.95476 0
M  V30 12475 H 1202.45 0.740942 -4.03656 0
M  V30 12476 H 1201.99 2.24571 -3.23004 0
M  V30 12477 H 1204 3.4668 -3.55003 0
M  V30 12478 N 1203.17 1.53854 0.341593 0
M  V30 12479 C 1204.12 1.81979 1.41959 0
M  V30 12480 C 1205.09 0.665616 1.5218 0
M  V30 12481 O 1206.28 0.910246 1.67688 0
M  V30 12482 C 1203.42 2.03681 2.78583 0
M  V30 12483 C 1202.53 3.31389 2.77137 0
M  V30 12484 C 1201.66 3.43148 4.05491 0
M  V30 12485 C 1200.7 4.64799 3.98282 0
M  V30 12486 N 1199.84 4.73581 5.18329 0
M  V30 12487 H 1204.68 2.73953 1.17275 0
M  V30 12488 H 1202.22 1.35689 0.568062 0
M  V30 12489 H 1204.17 2.14253 3.57983 0
M  V30 12490 H 1202.8 1.15017 3.01614 0
M  V30 12491 H 1201.86 3.29649 1.89832 0
M  V30 12492 H 1203.17 4.20885 2.67689 0
M  V30 12493 H 1202.32 3.53163 4.93316 0
M  V30 12494 H 1201.06 2.51712 4.17723 0
M  V30 12495 H 1200.07 4.54859 3.08842 0
M  V30 12496 H 1201.29 5.57601 3.87631 0
M  V30 12497 H 1199.24 3.85055 5.31102 0
M  V30 12498 H 1199.15 5.57016 5.11145 0
M  V30 12499 H 1200.42 4.87908 6.0792 0
M  V30 12500 N 1204.65 -0.602709 1.4562 0
M  V30 12501 C 1205.9 -1.36359 1.50113 0
M  V30 12502 C 1206.23 -1.93663 0.144297 0
M  V30 12503 O 1205.51 -1.75337 -0.841851 0
M  V30 12504 C 1205.79 -2.50788 2.58413 0
M  V30 12505 C 1205.64 -1.98649 4.03557 0
M  V30 12506 C 1206.96 -3.52905 2.62957 0
M  V30 12507 H 1204.08 -0.494455 0.54652 0
M  V30 12508 H 1206.72 -0.678957 1.77455 0
M  V30 12509 H 1204.87 -3.09191 2.3523 0
M  V30 12510 H 1206.54 -1.44857 4.37966 0
M  V30 12511 H 1204.79 -1.29615 4.13984 0
M  V30 12512 H 1205.46 -2.81159 4.7503 0
M  V30 12513 H 1207.93 -3.0435 2.83743 0
M  V30 12514 H 1206.81 -4.30454 3.40589 0
M  V30 12515 H 1207.07 -4.0884 1.68233 0
M  V30 12516 N 1206.13 -1.32992 -0.845635 0
M  V30 12517 C 1207.35 -1.27231 -1.6379 0
M  V30 12518 C 1207.78 0.155141 -1.87459 0
M  V30 12519 O 1207.14 1.10953 -1.43384 0
M  V30 12520 C 1207.19 -2.04629 -2.96916 0
M  V30 12521 O 1206.29 -1.40027 -3.879 0
M  V30 12522 H 1205.63 -0.438045 -0.499011 0
M  V30 12523 H 1208.16 -1.75448 -1.05257 0
M  V30 12524 H 1208.17 -2.15141 -3.46667 0
M  V30 12525 H 1206.85 -3.08425 -2.79011 0
M  V30 12526 H 1205.42 -1.38118 -3.46378 0
M  V30 12527 N 1207.61 1.06304 -1.1635 0
M  V30 12528 C 1208.88 1.75916 -0.855166 0
M  V30 12529 C 1209.26 2.0094 0.647024 0
M  V30 12530 O 1208.61 1.63642 1.59479 0
M  V30 12531 C 1208.82 3.06028 -1.67774 0
M  V30 12532 C 1210.17 3.80184 -1.89065 0
M  V30 12533 O 1211.19 3.15868 -1.64639 0
M  V30 12534 O 1210.05 4.95723 -2.30045 0
M  V30 12535 H 1207.15 0.764432 -0.315551 0
M  V30 12536 H 1209.69 1.12574 -1.26985 0
M  V30 12537 H 1208.47 2.83498 -2.69712 0
M  V30 12538 H 1208.09 3.77104 -1.26009 0
M  V30 12539 N 1209.09 0.96196 1.24836 0
M  V30 12540 C 1210.33 0.620715 1.92752 0
M  V30 12541 C 1210.66 -0.843308 1.75267 0
M  V30 12542 O 1209.92 -1.62141 1.09584 0
M  V30 12543 C 1210.21 0.934481 3.44967 0
M  V30 12544 C 1209.88 2.38572 3.82615 0
M  V30 12545 C 1208.54 2.78238 3.92603 0
M  V30 12546 C 1210.89 3.32784 4.01129 0
M  V30 12547 C 1208.22 4.11169 4.18518 0
M  V30 12548 C 1210.57 4.65336 4.28539 0
M  V30 12549 C 1209.24 5.04788 4.36745 0
M  V30 12550 H 1208.51 0.227136 0.70533 0
M  V30 12551 H 1211.16 1.21237 1.48236 0
M  V30 12552 H 1209.46 0.260516 3.90933 0
M  V30 12553 H 1211.16 0.648923 3.95715 0
M  V30 12554 H 1207.75 2.06812 3.75402 0
M  V30 12555 H 1211.93 3.03325 3.9282 0
M  V30 12556 H 1207.19 4.41368 4.23089 0
M  V30 12557 H 1211.36 5.3831 4.41809 0
M  V30 12558 H 1208.99 6.07816 4.56579 0
M  V30 12559 N 1210.56 -1.39601 0.731392 0
M  V30 12560 C 1211.81 -2.0019 0.277208 0
M  V30 12561 C 1212.13 -1.5832 -1.13841 0
M  V30 12562 O 1211.4 -0.829793 -1.77458 0
M  V30 12563 H 1209.98 -0.740344 0.0995006 0
M  V30 12564 H 1212.64 -1.70704 0.940547 0
M  V30 12565 H 1211.74 -3.10427 0.322749 0
M  V30 12566 N 1212.04 -0.478751 -1.50152 0
M  V30 12567 C 1212.97 0.301182 -2.31549 0
M  V30 12568 C 1213.95 0.983276 -1.38801 0
M  V30 12569 O 1215.14 0.978973 -1.67719 0
M  V30 12570 C 1212.27 1.3791 -3.18745 0
M  V30 12571 C 1211.22 0.818175 -4.20107 0
M  V30 12572 C 1210.55 1.99496 -4.9609 0
M  V30 12573 C 1211.85 -0.17574 -5.22004 0
M  V30 12574 H 1213.54 -0.378188 -2.97002 0
M  V30 12575 H 1211.09 -0.183323 -1.42828 0
M  V30 12576 H 1213.04 1.93227 -3.74488 0
M  V30 12577 H 1211.77 2.08735 -2.51192 0
M  V30 12578 H 1210.42 0.286924 -3.65475 0
M  V30 12579 H 1210.07 2.69036 -4.25004 0
M  V30 12580 H 1209.77 1.62582 -5.6466 0
M  V30 12581 H 1211.3 2.55288 -5.54671 0
M  V30 12582 H 1212.71 0.288513 -5.72574 0
M  V30 12583 H 1211.11 -0.459549 -5.98338 0
M  V30 12584 H 1212.18 -1.09911 -4.72279 0
M  V30 12585 N 1213.52 1.56172 -0.211661 0
M  V30 12586 C 1214.75 2.02874 0.430905 0
M  V30 12587 C 1215.17 1.09064 1.53254 0
M  V30 12588 O 1214.53 0.0770408 1.81136 0
M  V30 12589 C 1214.58 3.4789 0.948933 0
M  V30 12590 O 1213.68 3.57213 2.0609 0
M  V30 12591 H 1213.02 0.656614 0.0987607 0
M  V30 12592 H 1215.55 2.01964 -0.327399 0
M  V30 12593 H 1215.56 3.88015 1.2613 0
M  V30 12594 H 1214.24 4.15656 0.142584 0
M  V30 12595 H 1212.81 3.28971 1.75592 0
M  V30 12596 N 1215 -0.0618163 1.57479 0
M  V30 12597 C 1216.41 -0.416827 1.54061 0
M  V30 12598 C 1216.61 -1.78584 0.933277 0
M  V30 12599 O 1215.67 -2.46656 0.54009 0
M  V30 12600 C 1216.98 -0.348728 2.98671 0
M  V30 12601 C 1218.53 -0.428194 3.10057 0
M  V30 12602 C 1219.01 -0.389898 4.56337 0
M  V30 12603 N 1220.5 -0.449677 4.61012 0
M  V30 12604 C 1221.23 -0.442418 5.71691 0
M  V30 12605 N 1220.73 -0.389381 6.91705 0
M  V30 12606 N 1222.52 -0.489719 5.59963 0
M  V30 12607 H 1214.67 0.834487 1.9532 0
M  V30 12608 H 1216.94 0.314149 0.894435 0
M  V30 12609 H 1216.64 0.590738 3.46703 0
M  V30 12610 H 1216.52 -1.15511 3.59078 0
M  V30 12611 H 1218.9 -1.35808 2.61992 0
M  V30 12612 H 1218.98 0.406946 2.52542 0
M  V30 12613 H 1218.63 0.536186 5.05062 0
M  V30 12614 H 1218.56 -1.24271 5.11727 0
M  V30 12615 H 1221.05 -0.49451 3.74651 0
M  V30 12616 H 1221.36 -0.388042 7.71825 0
M  V30 12617 H 1219.71 -0.355918 6.94088 0
M  V30 12618 H 1222.9 -0.528915 4.65102 0
M  V30 12619 H 1223.07 -0.480592 6.46215 0
M  V30 12620 N 1216.48 -1.54033 -0.333429 0
M  V30 12621 C 1217.72 -1.72019 -1.07411 0
M  V30 12622 C 1218.06 -0.487265 -1.87988 0
M  V30 12623 O 1217.33 0.515757 -1.87537 0
M  V30 12624 C 1217.61 -2.98986 -2.00698 0
M  V30 12625 C 1217.47 -4.32509 -1.23517 0
M  V30 12626 C 1218.79 -3.21663 -3.00368 0
M  V30 12627 H 1215.9 -0.625919 -0.389094 0
M  V30 12628 H 1218.55 -1.86717 -0.351697 0
M  V30 12629 H 1216.7 -2.86586 -2.62298 0
M  V30 12630 H 1218.37 -4.56775 -0.644522 0
M  V30 12631 H 1216.61 -4.3046 -0.537298 0
M  V30 12632 H 1217.28 -5.17547 -1.91962 0
M  V30 12633 H 1219.76 -3.33459 -2.48886 0
M  V30 12634 H 1218.63 -4.11877 -3.62834 0
M  V30 12635 H 1218.9 -2.3843 -3.72295 0
M  V30 12636 N 1217.95 0.594978 -1.45938 0
M  V30 12637 C 1218.88 1.71536 -1.58422 0
M  V30 12638 C 1219.87 1.64441 -0.435116 0
M  V30 12639 O 1221.05 1.82647 -0.659839 0
M  V30 12640 C 1218.18 3.10163 -1.56257 0
M  V30 12641 C 1217.13 3.3208 -2.70013 0
M  V30 12642 C 1216.46 4.71108 -2.52905 0
M  V30 12643 C 1217.76 3.21105 -4.11933 0
M  V30 12644 H 1219.45 1.61344 -2.52207 0
M  V30 12645 H 1217 0.774791 -1.2138 0
M  V30 12646 H 1218.95 3.88352 -1.63587 0
M  V30 12647 H 1217.68 3.21225 -0.590093 0
M  V30 12648 H 1216.34 2.56286 -2.62132 0
M  V30 12649 H 1215.98 4.7892 -1.53768 0
M  V30 12650 H 1215.68 4.86727 -3.29197 0
M  V30 12651 H 1217.21 5.51482 -2.62107 0
M  V30 12652 H 1218.62 3.89153 -4.2099 0
M  V30 12653 H 1217.02 3.4825 -4.88715 0
M  V30 12654 H 1218.09 2.18359 -4.32952 0
M  V30 12655 N 1219.43 1.33438 0.838571 0
M  V30 12656 C 1220.34 1.25753 1.98049 0
M  V30 12657 C 1221.36 0.168051 1.73187 0
M  V30 12658 O 1222.53 0.391691 1.97554 0
M  V30 12659 C 1219.6 0.997148 3.32051 0
M  V30 12660 C 1218.66 2.17667 3.70027 0
M  V30 12661 C 1217.89 1.92861 4.97635 0
M  V30 12662 O 1218.12 0.879072 5.63585 0
M  V30 12663 O 1217.05 2.79402 5.33121 0
M  V30 12664 H 1220.88 2.21786 2.07472 0
M  V30 12665 H 1218.46 1.13488 0.971645 0
M  V30 12666 H 1220.34 0.869099 4.1234 0
M  V30 12667 H 1219.02 0.0671036 3.2363 0
M  V30 12668 H 1217.93 2.36025 2.90246 0
M  V30 12669 H 1219.26 3.09006 3.83114 0
M  V30 12670 N 1220.91 -1.05686 1.16912 0
M  V30 12671 C 1222.19 -1.7546 0.864483 0
M  V30 12672 C 1222.57 -2.0128 -0.636359 0
M  V30 12673 O 1221.92 -1.64485 -1.58609 0
M  V30 12674 C 1222.13 -3.05134 1.69395 0
M  V30 12675 C 1223.47 -3.79176 1.91079 0
M  V30 12676 O 1224.5 -3.1499 1.66312 0
M  V30 12677 O 1223.36 -4.94496 2.32671 0
M  V30 12678 H 1220.45 -0.762748 0.319601 0
M  V30 12679 H 1223 -1.11899 1.27581 0
M  V30 12680 H 1221.77 -2.82063 2.71212 0
M  V30 12681 H 1221.39 -3.76431 1.28007 0
M  V30 12682 N 1222.39 -0.968567 -1.24324 0
M  V30 12683 C 1223.67 -0.547774 -1.87773 0
M  V30 12684 C 1224.05 0.975107 -1.87229 0
M  V30 12685 O 1223.39 1.84683 -1.34553 0
M  V30 12686 C 1223.6 -1.1403 -3.29846 0
M  V30 12687 C 1224.95 -1.22572 -4.06523 0
M  V30 12688 O 1225.98 -1.09287 -3.3902 0
M  V30 12689 O 1224.83 -1.43579 -5.27302 0
M  V30 12690 H 1221.93 -0.182771 -0.806551 0
M  V30 12691 H 1224.47 -1.06289 -1.3229 0
M  V30 12692 H 1223.25 -2.18303 -3.24745 0
M  V30 12693 H 1222.87 -0.609275 -3.92904 0
M  V30 12694 N 1223.87 1.39211 -0.738786 0
M  V30 12695 C 1225.28 1.83237 -0.357916 0
M  V30 12696 C 1225.63 1.61698 1.11123 0
M  V30 12697 O 1224.75 1.11017 1.85753 0
M  V30 12698 C 1225.35 3.32645 -0.64285 0
M  V30 12699 C 1223.91 3.75076 -0.315432 0
M  V30 12700 C 1223.05 2.62166 -0.903556 0
M  V30 12701 H 1226.01 1.2815 -0.936127 0
M  V30 12702 H 1226.03 3.80407 0.0840812 0
M  V30 12703 H 1225.54 3.4829 -1.71218 0
M  V30 12704 H 1223.64 3.65017 0.747907 0
M  V30 12705 H 1223.75 4.72363 -0.800638 0
M  V30 12706 H 1222.12 2.52554 -0.329927 0
M  V30 12707 H 1222.9 2.80616 -1.97761 0
M  V30 12708 N 1225.34 0.486708 1.49896 0
M  V30 12709 C 1226.25 -0.304222 2.32619 0
M  V30 12710 C 1227.27 -0.981103 1.43702 0
M  V30 12711 O 1228.45 -0.965639 1.76741 0
M  V30 12712 C 1225.51 -1.36301 3.18783 0
M  V30 12713 C 1224.57 -0.701082 4.23537 0
M  V30 12714 C 1223.81 -1.70943 5.05583 0
M  V30 12715 O 1224.03 -2.93773 4.88931 0
M  V30 12716 O 1222.96 -1.27263 5.88292 0
M  V30 12717 H 1226.79 0.37248 3.01407 0
M  V30 12718 H 1224.37 0.248277 1.47323 0
M  V30 12719 H 1226.26 -1.97594 3.72202 0
M  V30 12720 H 1224.93 -2.0229 2.52706 0
M  V30 12721 H 1223.84 -0.0487926 3.74068 0
M  V30 12722 H 1225.17 -0.0838817 4.92129 0
M  V30 12723 N 1226.82 -1.56058 0.219941 0
M  V30 12724 C 1227.79 -2.18964 -0.677303 0
M  V30 12725 C 1228.79 -1.15105 -1.12283 0
M  V30 12726 O 1229.98 -1.40348 -1.03189 0
M  V30 12727 C 1227.11 -2.81167 -1.92764 0
M  V30 12728 H 1228.3 -2.99623 -0.128877 0
M  V30 12729 H 1225.85 -1.56272 -0.0296744 0
M  V30 12730 H 1226.59 -2.04374 -2.51797 0
M  V30 12731 H 1226.37 -3.5722 -1.61666 0
M  V30 12732 H 1227.86 -3.29391 -2.56693 0
M  V30 12733 N 1228.3 0.053464 -1.57509 0
M  V30 12734 C 1229.26 1.04604 -2.03938 0
M  V30 12735 C 1230.26 1.30509 -0.939357 0
M  V30 12736 O 1231.45 1.25922 -1.20371 0
M  V30 12737 C 1228.59 2.38516 -2.43563 0
M  V30 12738 H 1229.78 0.645484 -2.92871 0
M  V30 12739 H 1227.33 0.299683 -1.534 0
M  V30 12740 H 1228.07 2.83368 -1.57712 0
M  V30 12741 H 1227.85 2.2105 -3.23851 0
M  V30 12742 H 1229.34 3.09826 -2.79996 0
M  V30 12743 N 1229.78 1.54207 0.325255 0
M  V30 12744 C 1231.01 1.76037 1.08141 0
M  V30 12745 C 1231.42 0.50816 1.82248 0
M  V30 12746 O 1230.76 -0.530709 1.75867 0
M  V30 12747 C 1230.82 2.89876 2.12632 0
M  V30 12748 C 1230.49 4.28841 1.57937 0
M  V30 12749 C 1231.48 5.09755 1.02205 0
M  V30 12750 C 1229.17 4.7538 1.62232 0
M  V30 12751 C 1231.16 6.35317 0.514929 0
M  V30 12752 C 1228.85 6.0091 1.11132 0
M  V30 12753 C 1229.85 6.80712 0.558575 0
M  V30 12754 O 1229.54 8.03881 0.05526 0
M  V30 12755 H 1229.27 0.591332 0.327571 0
M  V30 12756 H 1231.82 2.019 0.377572 0
M  V30 12757 H 1230.05 2.59581 2.86627 0
M  V30 12758 H 1231.74 2.99505 2.73955 0
M  V30 12759 H 1232.51 4.74955 0.981954 0
M  V30 12760 H 1228.39 4.1331 2.04195 0
M  V30 12761 H 1231.93 6.97551 0.0828314 0
M  V30 12762 H 1227.83 6.35201 1.14848 0
M  V30 12763 H 1228.59 8.18322 0.170842 0
M  V30 12764 N 1231.26 -0.58723 1.46251 0
M  V30 12765 C 1232.49 -1.37174 1.5489 0
M  V30 12766 C 1232.9 -1.87857 0.188445 0
M  V30 12767 O 1232.26 -1.63365 -0.813509 0
M  V30 12768 C 1232.31 -2.56237 2.55 0
M  V30 12769 O 1232.03 -2.07655 3.8576 0
M  V30 12770 C 1233.53 -3.48846 2.73535 0
M  V30 12771 H 1230.75 -0.419211 0.523931 0
M  V30 12772 H 1233.29 -0.714307 1.91619 0
M  V30 12773 H 1231.45 -3.1798 2.21287 0
M  V30 12774 H 1231.86 -2.85161 4.40208 0
M  V30 12775 H 1233.34 -4.2888 3.47514 0
M  V30 12776 H 1233.81 -4.00493 1.80282 0
M  V30 12777 H 1234.42 -2.92942 3.08326 0
M  V30 12778 N 1232.74 -1.33881 -0.831482 0
M  V30 12779 C 1233.96 -1.28812 -1.61911 0
M  V30 12780 C 1234.38 0.139519 -1.88284 0
M  V30 12781 O 1233.74 1.08397 -1.46821 0
M  V30 12782 C 1233.79 -2.06806 -2.96502 0
M  V30 12783 O 1233.51 -3.44 -2.71285 0
M  V30 12784 C 1235.01 -2.09033 -3.90922 0
M  V30 12785 H 1232.23 -0.443473 -0.50356 0
M  V30 12786 H 1234.77 -1.76365 -1.03516 0
M  V30 12787 H 1232.93 -1.62915 -3.51479 0
M  V30 12788 H 1233.34 -3.84213 -3.57044 0
M  V30 12789 H 1234.82 -2.68044 -4.82552 0
M  V30 12790 H 1235.29 -1.08249 -4.25651 0
M  V30 12791 H 1235.9 -2.52975 -3.41883 0
M  V30 12792 N 1234.21 1.05064 -1.1747 0
M  V30 12793 C 1235.63 1.30256 -0.922248 0
M  V30 12794 C 1235.83 1.97119 0.417896 0
M  V30 12795 O 1234.89 2.24557 1.15457 0
M  V30 12796 C 1236.2 2.17109 -2.08049 0
M  V30 12797 C 1237.75 2.30487 -2.11766 0
M  V30 12798 C 1238.22 3.20701 -3.26979 0
M  V30 12799 N 1239.71 3.28287 -3.26775 0
M  V30 12800 C 1240.45 3.98218 -4.12565 0
M  V30 12801 N 1239.94 4.70567 -5.08467 0
M  V30 12802 N 1241.74 3.94395 -4.00511 0
M  V30 12803 H 1233.89 0.600653 -2.0373 0
M  V30 12804 H 1236.15 0.327475 -0.889643 0
M  V30 12805 H 1235.86 1.75273 -3.04914 0
M  V30 12806 H 1235.73 3.1775 -2.03261 0
M  V30 12807 H 1238.12 2.71564 -1.15486 0
M  V30 12808 H 1238.2 1.29471 -2.20615 0
M  V30 12809 H 1237.84 2.80337 -4.23525 0
M  V30 12810 H 1237.77 4.21725 -3.15366 0
M  V30 12811 H 1240.26 2.76739 -2.5734 0
M  V30 12812 H 1240.58 5.21492 -5.70321 0
M  V30 12813 H 1238.92 4.69505 -5.12436 0
M  V30 12814 H 1242.11 3.37 -3.24882 0
M  V30 12815 H 1242.29 4.48626 -4.67588 0
M  V30 12816 N 1235.69 0.975146 1.23809 0
M  V30 12817 C 1236.94 0.639858 1.91704 0
M  V30 12818 C 1237.26 -0.828557 1.76522 0
M  V30 12819 O 1236.53 -1.59217 1.14135 0
M  V30 12820 H 1235.11 0.233667 0.709513 0
M  V30 12821 H 1237.77 1.23782 1.50545 0
M  V30 12822 H 1236.87 0.886915 2.99233 0
M  V30 12823 N 1237.17 -1.38817 0.746158 0
M  V30 12824 C 1238.42 -1.99885 0.298425 0
M  V30 12825 C 1238.74 -1.59518 -1.12156 0
M  V30 12826 O 1238.01 -0.848568 -1.76568 0
M  V30 12827 H 1236.59 -0.739247 0.107347 0
M  V30 12828 H 1239.25 -1.69696 0.9586 0
M  V30 12829 H 1238.35 -3.10067 0.355656 0
M  V30 12830 N 1238.65 -0.49465 -1.49636 0
M  V30 12831 C 1239.59 0.287153 -2.29007 0
M  V30 12832 C 1240.56 0.966099 -1.35114 0
M  V30 12833 O 1241.75 0.973991 -1.64067 0
M  V30 12834 C 1238.89 1.34941 -3.17624 0
M  V30 12835 C 1238 0.682879 -4.26569 0
M  V30 12836 C 1237.14 1.72503 -5.0241 0
M  V30 12837 C 1236.18 1.04003 -6.032 0
M  V30 12838 N 1235.31 2.0261 -6.7223 0
M  V30 12839 H 1240.15 -0.395941 -2.95358 0
M  V30 12840 H 1237.69 -0.207103 -1.45635 0
M  V30 12841 H 1239.65 1.9772 -3.67372 0
M  V30 12842 H 1238.28 2.00135 -2.5327 0
M  V30 12843 H 1237.33 -0.0580477 -3.80356 0
M  V30 12844 H 1238.64 0.143334 -4.98594 0
M  V30 12845 H 1237.8 2.42804 -5.55996 0
M  V30 12846 H 1236.54 2.29843 -4.30144 0
M  V30 12847 H 1235.54 0.322765 -5.48852 0
M  V30 12848 H 1236.77 0.473219 -6.77449 0
M  V30 12849 H 1234.71 2.58922 -6.0274 0
M  V30 12850 H 1234.63 1.53704 -7.4021 0
M  V30 12851 H 1235.9 2.72218 -7.30423 0
M  V30 12852 N 1240.13 1.55939 -0.228214 0
M  V30 12853 C 1241.37 1.97652 0.402067 0
M  V30 12854 C 1241.69 1.11911 1.60422 0
M  V30 12855 O 1242.89 1.43552 2.30445 0
M  V30 12856 C 1241.35 3.51638 0.766724 0
M  V30 12857 C 1240.96 4.46092 -0.412991 0
M  V30 12858 C 1242.7 4.02049 1.36224 0
M  V30 12859 C 1240.61 5.91394 -0.0255281 0
M  V30 12860 H 1239.54 0.738107 0.153994 0
M  V30 12861 H 1242.19 1.8059 -0.32548 0
M  V30 12862 H 1240.57 3.64325 1.55188 0
M  V30 12863 H 1241.75 4.45156 -1.19049 0
M  V30 12864 H 1240.06 4.0606 -0.92218 0
M  V30 12865 H 1242.66 5.08111 1.66514 0
M  V30 12866 H 1243 3.48292 2.28032 0
M  V30 12867 H 1243.53 3.92612 0.640378 0
M  V30 12868 H 1240.27 6.49149 -0.910269 0
M  V30 12869 H 1239.79 5.95509 0.716149 0
M  V30 12870 H 1241.47 6.4577 0.398839 0
M  V30 12871 N 1241.6 -0.0451101 1.57535 0
M  V30 12872 C 1243.02 -0.59372 1.77008 0
M  V30 12873 C 1243.37 -1.76482 0.857233 0
M  V30 12874 O 1242.49 -2.16347 0.0479703 0
M  V30 12875 C 1243.09 -1.08383 3.20996 0
M  V30 12876 C 1241.65 -1.57808 3.41721 0
M  V30 12877 C 1240.79 -0.509067 2.72587 0
M  V30 12878 H 1243.74 0.181114 1.57663 0
M  V30 12879 H 1243.76 -1.95181 3.26626 0
M  V30 12880 H 1243.28 -0.231276 3.8741 0
M  V30 12881 H 1241.38 -2.45302 2.8046 0
M  V30 12882 H 1241.49 -1.63664 4.50279 0
M  V30 12883 H 1239.85 -0.960389 2.359 0
M  V30 12884 H 1240.64 0.333753 3.41674 0
M  V30 12885 N 1243.08 -1.54377 -0.317073 0
M  V30 12886 C 1244.33 -1.72105 -1.0518 0
M  V30 12887 C 1244.64 -0.505166 -1.88964 0
M  V30 12888 O 1245.85 -0.563912 -2.65579 0
M  V30 12889 C 1244.31 -3.04435 -1.91957 0
M  V30 12890 C 1243.91 -4.33449 -1.13253 0
M  V30 12891 C 1245.66 -3.31524 -2.65127 0
M  V30 12892 C 1243.57 -5.56837 -1.99214 0
M  V30 12893 H 1242.5 -0.641392 -0.396399 0
M  V30 12894 H 1245.15 -1.80868 -0.309673 0
M  V30 12895 H 1243.53 -2.89595 -2.70094 0
M  V30 12896 H 1244.7 -4.59074 -0.39842 0
M  V30 12897 H 1243.02 -4.13173 -0.517372 0
M  V30 12898 H 1245.61 -4.20906 -3.29761 0
M  V30 12899 H 1245.96 -2.49688 -3.33109 0
M  V30 12900 H 1246.49 -3.47261 -1.94048 0
M  V30 12901 H 1243.23 -6.41294 -1.35729 0
M  V30 12902 H 1242.75 -5.35421 -2.70341 0
M  V30 12903 H 1244.43 -5.93488 -2.57646 0
M  V30 12904 N 1244.56 0.579466 -1.4656 0
M  V30 12905 C 1245.98 0.903163 -1.31587 0
M  V30 12906 C 1246.18 1.99406 -0.28972 0
M  V30 12907 O 1245.23 2.50632 0.30658 0
M  V30 12908 C 1246.55 1.31745 -2.70303 0
M  V30 12909 C 1248.09 1.43012 -2.78418 0
M  V30 12910 C 1248.57 1.87805 -4.17724 0
M  V30 12911 N 1250.06 1.94993 -4.20157 0
M  V30 12912 C 1250.79 2.30934 -5.2484 0
M  V30 12913 N 1250.29 2.65645 -6.39847 0
M  V30 12914 N 1252.08 2.31517 -5.12207 0
M  V30 12915 H 1244.23 -0.141111 -2.11931 0
M  V30 12916 H 1246.5 -0.000460304 -0.948 0
M  V30 12917 H 1246.2 0.589864 -3.46718 0
M  V30 12918 H 1246.08 2.2783 -3.00622 0
M  V30 12919 H 1248.46 2.14856 -2.02289 0
M  V30 12920 H 1248.55 0.451701 -2.5178 0
M  V30 12921 H 1248.19 1.16539 -4.94349 0
M  V30 12922 H 1248.12 2.86611 -4.41771 0
M  V30 12923 H 1250.61 1.70645 -3.37178 0
M  V30 12924 H 1250.92 2.92032 -7.15498 0
M  V30 12925 H 1249.27 2.63276 -6.43204 0
M  V30 12926 H 1252.46 2.03824 -4.21394 0
M  V30 12927 H 1252.63 2.59199 -5.93902 0
M  V30 12928 N 1246.04 1.3432 0.824371 0
M  V30 12929 C 1247.28 1.27792 1.58243 0
M  V30 12930 C 1247.64 -0.151189 1.91805 0
M  V30 12931 O 1246.93 -1.09708 1.57082 0
M  V30 12932 C 1247.13 2.1008 2.89139 0
M  V30 12933 C 1246.96 3.60848 2.68363 0
M  V30 12934 C 1245.73 4.3013 2.65172 0
M  V30 12935 C 1247.92 4.54878 2.39979 0
M  V30 12936 N 1245.91 5.66756 2.35927 0
M  V30 12937 C 1247.28 5.79497 2.20415 0
M  V30 12938 C 1249.33 4.43809 2.25695 0
M  V30 12939 C 1248.03 6.94293 1.88015 0
M  V30 12940 C 1250.06 5.58435 1.9469 0
M  V30 12941 C 1249.42 6.82071 1.75948 0
M  V30 12942 H 1245.52 0.522853 0.581505 0
M  V30 12943 H 1248.11 1.69017 0.96651 0
M  V30 12944 H 1246.28 1.71154 3.48656 0
M  V30 12945 H 1248.01 1.95208 3.54508 0
M  V30 12946 H 1244.76 3.82554 2.79194 0
M  V30 12947 H 1245.19 6.38817 2.24148 0
M  V30 12948 H 1249.83 3.48842 2.38891 0
M  V30 12949 H 1247.55 7.89242 1.73557 0
M  V30 12950 H 1251.13 5.51814 1.84372 0
M  V30 12951 H 1250.01 7.69268 1.52304 0
M  V30 12952 N 1247.52 -1.0444 1.18026 0
M  V30 12953 C 1248.74 -1.81234 0.998089 0
M  V30 12954 C 1249.16 -1.83271 -0.453559 0
M  V30 12955 O 1248.52 -1.26545 -1.31502 0
M  V30 12956 C 1248.57 -3.27007 1.54106 0
M  V30 12957 O 1248.29 -3.25174 2.93587 0
M  V30 12958 C 1249.79 -4.20461 1.40455 0
M  V30 12959 H 1247.01 -0.57085 0.352663 0
M  V30 12960 H 1249.55 -1.31649 1.56489 0
M  V30 12961 H 1247.71 -3.73837 1.01611 0
M  V30 12962 H 1248.12 -4.16466 3.18836 0
M  V30 12963 H 1249.6 -5.20695 1.83249 0
M  V30 12964 H 1250.07 -4.37781 0.352713 0
M  V30 12965 H 1250.68 -3.79493 1.92004 0
M  V30 12966 N 1248.99 -0.981699 -1.2329 0
M  V30 12967 C 1249.96 -0.527992 -2.23036 0
M  V30 12968 C 1250.96 0.383083 -1.5617 0
M  V30 12969 O 1252.15 0.176595 -1.73303 0
M  V30 12970 C 1249.28 0.233501 -3.40099 0
M  V30 12971 H 1250.47 -1.40995 -2.64689 0
M  V30 12972 H 1248.03 -0.767724 -1.36146 0
M  V30 12973 H 1248.76 1.13194 -3.03904 0
M  V30 12974 H 1248.55 -0.420505 -3.89839 0
M  V30 12975 H 1250.04 0.539485 -4.14101 0
M  V30 12976 N 1250.47 1.3842 -0.753509 0
M  V30 12977 C 1251.88 1.82847 -0.377331 0
M  V30 12978 C 1252.23 1.62867 1.09401 0
M  V30 12979 O 1251.36 1.12981 1.84565 0
M  V30 12980 C 1251.95 3.31945 -0.678095 0
M  V30 12981 C 1250.51 3.7472 -0.355196 0
M  V30 12982 C 1249.66 2.61193 -0.931311 0
M  V30 12983 H 1252.61 1.2715 -0.949667 0
M  V30 12984 H 1252.63 3.80475 0.0437292 0
M  V30 12985 H 1252.14 3.46455 -1.74902 0
M  V30 12986 H 1250.25 3.65789 0.70915 0
M  V30 12987 H 1250.36 4.71487 -0.850693 0
M  V30 12988 H 1248.72 2.5219 -0.356695 0
M  V30 12989 H 1249.51 2.78503 -2.00727 0
M  V30 12990 N 1251.95 0.502579 1.49372 0
M  V30 12991 C 1252.86 -0.279532 2.32929 0
M  V30 12992 C 1253.88 -0.965806 1.44735 0
M  V30 12993 O 1255.05 -0.946839 1.77755 0
M  V30 12994 C 1252.12 -1.32913 3.20211 0
M  V30 12995 C 1251.18 -0.656121 4.24256 0
M  V30 12996 C 1250.41 -1.65571 5.07368 0
M  V30 12997 O 1250.63 -2.88571 4.92019 0
M  V30 12998 O 1249.57 -1.21016 5.89609 0
M  V30 12999 H 1253.39 0.404427 3.00995 0
M  V30 13000 H 1250.98 0.263888 1.47051 0
M  V30 13001 H 1252.86 -1.93635 3.74277 0
M  V30 13002 H 1251.54 -1.99598 2.54837 0
M  V30 13003 H 1250.44 -0.00911489 3.74099 0
M  V30 13004 H 1251.78 -0.0316802 4.9219 0
M  V30 13005 N 1253.43 -1.55816 0.23648 0
M  V30 13006 C 1254.39 -2.1967 -0.654041 0
M  V30 13007 C 1255.39 -1.1629 -1.11056 0
M  V30 13008 O 1256.58 -1.41435 -1.01695 0
M  V30 13009 C 1253.71 -2.83196 -1.89771 0
M  V30 13010 H 1254.91 -2.99743 -0.0970911 0
M  V30 13011 H 1252.46 -1.56295 -0.013098 0
M  V30 13012 H 1253.19 -2.07033 -2.49616 0
M  V30 13013 H 1252.98 -3.58915 -1.57868 0
M  V30 13014 H 1254.47 -3.32095 -2.53184 0
M  V30 13015 N 1254.91 0.036755 -1.57557 0
M  V30 13016 C 1256.16 0.728107 -1.881 0
M  V30 13017 C 1256.47 1.7693 -0.833974 0
M  V30 13018 O 1257.67 2.5127 -1.02837 0
M  V30 13019 C 1256.13 1.34604 -3.33781 0
M  V30 13020 C 1255.74 0.341599 -4.46696 0
M  V30 13021 C 1257.48 2.01772 -3.73481 0
M  V30 13022 C 1255.39 0.967444 -5.83433 0
M  V30 13023 H 1254.32 0.275695 -0.701789 0
M  V30 13024 H 1256.97 -0.0177555 -1.83491 0
M  V30 13025 H 1255.35 2.14135 -3.3311 0
M  V30 13026 H 1256.53 -0.426441 -4.58823 0
M  V30 13027 H 1254.84 -0.227558 -4.15778 0
M  V30 13028 H 1257.44 2.49435 -4.72955 0
M  V30 13029 H 1257.78 2.83255 -3.05077 0
M  V30 13030 H 1258.31 1.29026 -3.76294 0
M  V30 13031 H 1255.05 0.19219 -6.55218 0
M  V30 13032 H 1254.57 1.70551 -5.75041 0
M  V30 13033 H 1256.25 1.47705 -6.29914 0
M  V30 13034 N 1256.39 1.54543 0.308881 0
M  V30 13035 C 1257.35 1.84214 1.36374 0
M  V30 13036 C 1258.35 0.71463 1.44047 0
M  V30 13037 O 1259.54 0.98293 1.4382 0
M  V30 13038 C 1256.67 2.01535 2.74948 0
M  V30 13039 H 1257.86 2.78477 1.11314 0
M  V30 13040 H 1255.42 1.46485 0.545141 0
M  V30 13041 H 1256.15 1.09533 3.05242 0
M  V30 13042 H 1255.94 2.83595 2.7077 0
M  V30 13043 H 1257.43 2.25888 3.51233 0
M  V30 13044 N 1257.86 -0.571685 1.46866 0
M  V30 13045 C 1259.11 -1.32948 1.52745 0
M  V30 13046 C 1259.44 -1.93631 0.183694 0
M  V30 13047 O 1258.69 -1.77605 -0.821886 0
M  V30 13048 C 1258.99 -2.47051 2.58264 0
M  V30 13049 C 1258.66 -2.04291 4.01965 0
M  V30 13050 C 1257.32 -1.92345 4.41086 0
M  V30 13051 C 1259.67 -1.71458 4.9219 0
M  V30 13052 C 1257 -1.4584 5.68285 0
M  V30 13053 C 1259.35 -1.26429 6.19837 0
M  V30 13054 C 1258.02 -1.13068 6.57854 0
M  V30 13055 H 1257.29 -0.48649 0.558935 0
M  V30 13056 H 1259.93 -0.642618 1.80396 0
M  V30 13057 H 1258.24 -3.21231 2.24316 0
M  V30 13058 H 1259.94 -3.05254 2.6004 0
M  V30 13059 H 1256.53 -2.14527 3.71047 0
M  V30 13060 H 1260.71 -1.79567 4.62676 0
M  V30 13061 H 1255.97 -1.34148 5.96502 0
M  V30 13062 H 1260.14 -1.00081 6.89171 0
M  V30 13063 H 1257.77 -0.768094 7.5631 0
M  V30 13064 N 1259.34 -1.34755 -0.817236 0
M  V30 13065 C 1260.76 -1.14561 -1.11121 0
M  V30 13066 C 1260.96 0.0490776 -2.0144 0
M  V30 13067 O 1260.01 0.722897 -2.41931 0
M  V30 13068 C 1261.33 -2.44356 -1.75244 0
M  V30 13069 C 1262.87 -2.50465 -1.87713 0
M  V30 13070 C 1263.35 -3.80276 -2.55253 0
M  V30 13071 N 1264.84 -3.81468 -2.62747 0
M  V30 13072 C 1265.58 -4.78634 -3.15749 0
M  V30 13073 N 1265.07 -5.86184 -3.6927 0
M  V30 13074 N 1266.86 -4.66083 -3.14203 0
M  V30 13075 H 1259.02 -2.11293 -0.2166 0
M  V30 13076 H 1261.28 -0.934629 -0.158661 0
M  V30 13077 H 1260.98 -3.31899 -1.16344 0
M  V30 13078 H 1260.86 -2.58117 -2.75055 0
M  V30 13079 H 1263.25 -1.63358 -2.45761 0
M  V30 13080 H 1263.33 -2.40627 -0.867887 0
M  V30 13081 H 1262.97 -4.67776 -1.97858 0
M  V30 13082 H 1262.9 -3.87399 -3.56693 0
M  V30 13083 H 1265.39 -3.03753 -2.24817 0
M  V30 13084 H 1265.7 -6.56332 -4.0798 0
M  V30 13085 H 1264.05 -5.8989 -3.67498 0
M  V30 13086 H 1267.24 -3.81206 -2.7166 0
M  V30 13087 H 1267.41 -5.41973 -3.55203 0
M  V30 13088 N 1260.82 1.03812 -1.18578 0
M  V30 13089 C 1261.77 2.11883 -0.915115 0
M  V30 13090 C 1262.74 1.65453 0.146479 0
M  V30 13091 O 1263.92 1.90799 0.00630058 0
M  V30 13092 C 1261.06 3.42157 -0.449755 0
M  V30 13093 C 1260.17 4.02185 -1.57706 0
M  V30 13094 C 1259.31 5.20431 -1.06417 0
M  V30 13095 C 1258.35 5.72496 -2.16599 0
M  V30 13096 N 1257.49 6.82027 -1.66685 0
M  V30 13097 H 1262.33 2.34373 -1.84047 0
M  V30 13098 H 1259.86 1.14962 -0.917728 0
M  V30 13099 H 1261.82 4.16888 -0.161407 0
M  V30 13100 H 1260.45 3.19806 0.438622 0
M  V30 13101 H 1259.5 3.24757 -1.98083 0
M  V30 13102 H 1260.81 4.36851 -2.40754 0
M  V30 13103 H 1259.97 6.02286 -0.730497 0
M  V30 13104 H 1258.71 4.87276 -0.203301 0
M  V30 13105 H 1257.71 4.8926 -2.50808 0
M  V30 13106 H 1258.94 6.07694 -3.03126 0
M  V30 13107 H 1256.88 6.50742 -0.828916 0
M  V30 13108 H 1256.8 7.1577 -2.43329 0
M  V30 13109 H 1258.07 7.67499 -1.36253 0
M  V30 13110 N 1262.3 0.988223 1.22768 0
M  V30 13111 C 1263.54 0.661461 1.91392 0
M  V30 13112 C 1263.87 -0.805942 1.77016 0
M  V30 13113 O 1263.13 -1.5978 1.12999 0
M  V30 13114 C 1263.43 1.00744 3.42907 0
M  V30 13115 C 1263.09 2.46634 3.77469 0
M  V30 13116 C 1261.75 2.86503 3.86613 0
M  V30 13117 C 1264.11 3.41217 3.9398 0
M  V30 13118 C 1261.43 4.19954 4.09702 0
M  V30 13119 C 1263.79 4.74321 4.18572 0
M  V30 13120 C 1262.45 5.13938 4.25939 0
M  V30 13121 H 1261.72 0.242046 0.700353 0
M  V30 13122 H 1264.37 1.24354 1.45631 0
M  V30 13123 H 1262.67 0.34338 3.90292 0
M  V30 13124 H 1264.37 0.732714 3.94249 0
M  V30 13125 H 1260.96 2.14729 3.70931 0
M  V30 13126 H 1265.14 3.11589 3.86298 0
M  V30 13127 H 1260.4 4.50243 4.13631 0
M  V30 13128 H 1264.57 5.47561 4.30291 0
M  V30 13129 H 1262.2 6.17364 4.43583 0
M  V30 13130 N 1263.78 -1.38018 0.760839 0
M  V30 13131 C 1265 -2.04231 0.331285 0
M  V30 13132 C 1265.42 -1.57385 -1.04285 0
M  V30 13133 O 1264.78 -0.750168 -1.66369 0
M  V30 13134 C 1264.83 -3.59772 0.353021 0
M  V30 13135 O 1264.55 -4.049 1.67294 0
M  V30 13136 C 1266.05 -4.4321 -0.0894942 0
M  V30 13137 H 1263.27 -0.656145 0.140408 0
M  V30 13138 H 1265.81 -1.76567 1.03172 0
M  V30 13139 H 1263.97 -3.86246 -0.298735 0
M  V30 13140 H 1264.38 -4.99369 1.60408 0
M  V30 13141 H 1265.86 -5.51995 -0.0231262 0
M  V30 13142 H 1266.33 -4.2419 -1.13839 0
M  V30 13143 H 1266.94 -4.21939 0.533661 0
M  V30 13144 N 1265.25 -0.510493 -1.49103 0
M  V30 13145 C 1266.48 0.0293113 -2.07379 0
M  V30 13146 C 1266.9 1.29195 -1.36713 0
M  V30 13147 O 1266.26 1.76204 -0.426838 0
M  V30 13148 C 1266.31 0.25629 -3.59688 0
M  V30 13149 O 1265.41 1.32907 -3.90397 0
M  V30 13150 H 1264.75 -0.0304449 -0.663302 0
M  V30 13151 H 1267.28 -0.712832 -1.91781 0
M  V30 13152 H 1267.29 0.484915 -4.05108 0
M  V30 13153 H 1265.97 -0.666163 -4.1053 0
M  V30 13154 H 1264.55 1.08464 -3.56777 0
M  V30 13155 N 1266.73 1.55688 -0.24474 0
M  V30 13156 C 1267.69 2.20014 0.642382 0
M  V30 13157 C 1268.69 1.16877 1.10437 0
M  V30 13158 O 1269.88 1.41972 1.00943 0
M  V30 13159 C 1267.02 2.84198 1.88267 0
M  V30 13160 H 1268.21 2.9979 0.0811937 0
M  V30 13161 H 1265.76 1.56299 0.00480917 0
M  V30 13162 H 1266.5 2.08354 2.48514 0
M  V30 13163 H 1266.28 3.59747 1.55963 0
M  V30 13164 H 1267.77 3.33434 2.5142 0
M  V30 13165 N 1268.21 -0.0283989 1.57574 0
M  V30 13166 C 1269.43 -0.734537 1.93957 0
M  V30 13167 C 1269.86 -1.68062 0.844787 0
M  V30 13168 O 1269.22 -1.802 -0.199432 0
M  V30 13169 C 1269.27 -1.46716 3.29404 0
M  V30 13170 O 1268.37 -2.58036 3.217 0
M  V30 13171 H 1267.71 -0.197507 0.633946 0
M  V30 13172 H 1270.24 0.0163258 2.04593 0
M  V30 13173 H 1270.25 -1.83693 3.64309 0
M  V30 13174 H 1268.93 -0.773292 4.08648 0
M  V30 13175 H 1267.5 -2.23597 2.98427 0
M  V30 13176 N 1269.69 -1.54705 -0.300681 0
M  V30 13177 C 1270.96 -1.6468 -1.05546 0
M  V30 13178 C 1271.34 -0.495292 -2.05207 0
M  V30 13179 O 1270.69 0.507944 -2.22783 0
M  V30 13180 C 1270.9 -3.02702 -1.73703 0
M  V30 13181 C 1272.25 -3.59527 -2.25888 0
M  V30 13182 O 1273.27 -3.05156 -1.83735 0
M  V30 13183 O 1272.13 -4.54727 -3.03126 0
M  V30 13184 H 1269.23 -0.667769 -0.487867 0
M  V30 13185 H 1271.77 -1.6705 -0.298743 0
M  V30 13186 H 1270.55 -3.7795 -1.01338 0
M  V30 13187 H 1270.17 -3.0411 -2.5613 0
M  V30 13188 N 1271.17 0.563888 -1.47167 0
M  V30 13189 C 1272.41 1.32331 -1.53676 0
M  V30 13190 C 1272.75 1.93213 -0.195593 0
M  V30 13191 O 1272.02 1.77508 0.795068 0
M  V30 13192 C 1272.3 2.43848 -2.64972 0
M  V30 13193 C 1272.16 1.8788 -4.08682 0
M  V30 13194 C 1273.48 3.45809 -2.72221 0
M  V30 13195 H 1270.59 0.479791 -0.559437 0
M  V30 13196 H 1273.24 0.631669 -1.79192 0
M  V30 13197 H 1271.39 3.02846 -2.43345 0
M  V30 13198 H 1273.06 1.33195 -4.41652 0
M  V30 13199 H 1271.3 1.18593 -4.17275 0
M  V30 13200 H 1271.97 2.68465 -4.82318 0
M  V30 13201 H 1274.45 2.9672 -2.91713 0
M  V30 13202 H 1273.32 4.21272 -3.51882 0
M  V30 13203 H 1273.59 4.04236 -1.79014 0
M  V30 13204 N 1272.64 1.35187 0.810078 0
M  V30 13205 C 1273.89 1.29463 1.56879 0
M  V30 13206 C 1274.25 -0.130837 1.91955 0
M  V30 13207 O 1273.54 -1.08036 1.58236 0
M  V30 13208 C 1273.73 2.13135 2.86894 0
M  V30 13209 C 1273.56 3.63674 2.64521 0
M  V30 13210 C 1272.33 4.32918 2.60595 0
M  V30 13211 C 1274.53 4.57398 2.35141 0
M  V30 13212 N 1272.51 5.69226 2.29902 0
M  V30 13213 C 1273.88 5.81802 2.14257 0
M  V30 13214 C 1275.94 4.46177 2.20976 0
M  V30 13215 C 1274.64 6.96248 1.80641 0
M  V30 13216 C 1276.67 5.60469 1.88756 0
M  V30 13217 C 1276.03 6.83899 1.68704 0
M  V30 13218 H 1272.13 0.528991 0.575927 0
M  V30 13219 H 1274.71 1.70032 0.948529 0
M  V30 13220 H 1272.88 1.74842 3.46821 0
M  V30 13221 H 1274.61 1.98957 3.52418 0
M  V30 13222 H 1271.37 3.85494 2.75121 0
M  V30 13223 H 1271.79 6.41158 2.1736 0
M  V30 13224 H 1276.44 3.51357 2.35177 0
M  V30 13225 H 1274.15 7.91039 1.65176 0
M  V30 13226 H 1277.74 5.53738 1.78509 0
M  V30 13227 H 1276.62 7.7084 1.44136 0
M  V30 13228 N 1274.12 -1.03182 1.19127 0
M  V30 13229 C 1275.35 -1.80703 1.01791 0
M  V30 13230 C 1275.77 -1.83147 -0.428824 0
M  V30 13231 O 1275.13 -1.2553 -1.30812 0
M  V30 13232 C 1275.18 -3.23754 1.58794 0
M  V30 13233 O 1274.28 -4.04261 0.815274 0
M  V30 13234 H 1273.62 -0.557944 0.359992 0
M  V30 13235 H 1276.15 -1.29887 1.58084 0
M  V30 13236 H 1276.16 -3.7451 1.61884 0
M  V30 13237 H 1274.84 -3.2129 2.64094 0
M  V30 13238 H 1273.42 -3.62909 0.857392 0
M  V30 13239 N 1275.6 -0.99472 -1.22242 0
M  V30 13240 C 1276.83 -0.689096 -1.94769 0
M  V30 13241 C 1277.24 0.750597 -1.73674 0
M  V30 13242 O 1276.58 1.51836 -1.03399 0
M  V30 13243 C 1276.64 -0.917454 -3.47596 0
M  V30 13244 C 1276.31 -2.34198 -3.92429 0
M  V30 13245 C 1277.3 -3.3216 -3.99957 0
M  V30 13246 C 1274.99 -2.6769 -4.25026 0
M  V30 13247 C 1276.98 -4.61686 -4.3946 0
M  V30 13248 C 1274.67 -3.97435 -4.64208 0
M  V30 13249 C 1275.67 -4.94244 -4.71394 0
M  V30 13250 O 1275.36 -6.2167 -5.09688 0
M  V30 13251 H 1275.09 -0.253914 -0.626501 0
M  V30 13252 H 1277.64 -1.33271 -1.56294 0
M  V30 13253 H 1275.87 -0.21666 -3.86093 0
M  V30 13254 H 1277.56 -0.6068 -4.01339 0
M  V30 13255 H 1278.33 -3.07619 -3.74961 0
M  V30 13256 H 1274.21 -1.93039 -4.18637 0
M  V30 13257 H 1277.75 -5.37248 -4.44983 0
M  V30 13258 H 1273.65 -4.21765 -4.88656 0
M  V30 13259 H 1274.42 -6.25634 -5.27755 0
M  V30 13260 N 1277.08 1.37613 -0.768148 0
M  V30 13261 C 1278.33 1.99384 -0.330187 0
M  V30 13262 C 1278.65 1.61283 1.09604 0
M  V30 13263 O 1277.92 0.876551 1.75195 0
M  V30 13264 H 1276.5 0.737445 -0.119095 0
M  V30 13265 H 1279.16 1.6815 -0.985476 0
M  V30 13266 H 1278.26 3.09462 -0.40494 0
M  V30 13267 N 1278.56 0.518393 1.4883 0
M  V30 13268 C 1279.81 -0.0218436 2.01688 0
M  V30 13269 C 1280.12 -1.36421 1.40174 0
M  V30 13270 O 1281.32 -1.99214 1.84461 0
M  V30 13271 C 1279.78 -0.0893538 3.59789 0
M  V30 13272 C 1279.39 1.24741 4.30283 0
M  V30 13273 C 1281.13 -0.579032 4.20532 0
M  V30 13274 C 1279.04 1.14112 5.80286 0
M  V30 13275 H 1277.97 -0.0119353 0.753906 0
M  V30 13276 H 1280.62 0.660432 1.71203 0
M  V30 13277 H 1279 -0.836458 3.87065 0
M  V30 13278 H 1280.18 2.00917 4.14691 0
M  V30 13279 H 1278.49 1.67191 3.81361 0
M  V30 13280 H 1281.09 -0.676343 5.30405 0
M  V30 13281 H 1281.43 -1.58207 3.85067 0
M  V30 13282 H 1281.96 0.112046 3.97642 0
M  V30 13283 H 1278.7 2.11895 6.20307 0
M  V30 13284 H 1278.22 0.420535 5.98324 0
M  V30 13285 H 1279.9 0.826992 6.41693 0
M  V30 13286 N 1280.03 -1.55556 0.252993 0
M  V30 13287 C 1281.28 -1.99385 -0.370599 0
M  V30 13288 C 1281.61 -1.14101 -1.57145 0
M  V30 13289 O 1280.89 -0.205828 -1.93408 0
M  V30 13290 C 1281.17 -3.51672 -0.774503 0
M  V30 13291 C 1281.02 -4.47719 0.432159 0
M  V30 13292 C 1282.34 -4.0923 -1.61923 0
M  V30 13293 H 1279.46 -0.724858 -0.133231 0
M  V30 13294 H 1282.1 -1.86644 0.355522 0
M  V30 13295 H 1280.25 -3.62661 -1.39318 0
M  V30 13296 H 1281.93 -4.48704 1.07063 0
M  V30 13297 H 1280.17 -4.2029 1.07419 0
M  V30 13298 H 1280.84 -5.51898 0.106123 0
M  V30 13299 H 1283.32 -4.01381 -1.09693 0
M  V30 13300 H 1282.19 -5.16039 -1.87068 0
M  V30 13301 H 1282.45 -3.58067 -2.59307 0
M  V30 13302 N 1281.51 0.0200419 -1.57587 0
M  V30 13303 C 1282.45 1.05118 -2.02547 0
M  V30 13304 C 1283.42 1.3465 -0.911494 0
M  V30 13305 O 1284.61 1.47154 -1.17805 0
M  V30 13306 C 1281.73 2.38373 -2.40615 0
M  V30 13307 C 1280.78 2.24639 -3.62546 0
M  V30 13308 S 1281.61 1.59129 -5.1131 0
M  V30 13309 C 1282.77 2.93856 -5.5263 0
M  V30 13310 H 1283 0.668271 -2.89692 0
M  V30 13311 H 1280.54 0.230301 -1.52673 0
M  V30 13312 H 1282.49 3.15002 -2.63218 0
M  V30 13313 H 1281.15 2.7381 -1.53906 0
M  V30 13314 H 1280.35 3.23032 -3.86867 0
M  V30 13315 H 1279.95 1.56153 -3.39841 0
M  V30 13316 H 1282.24 3.90179 -5.53865 0
M  V30 13317 H 1283.18 2.74258 -6.52831 0
M  V30 13318 H 1283.59 2.96844 -4.8015 0
M  V30 13319 N 1282.99 1.54862 0.292472 0
M  V30 13320 C 1284.24 1.75735 1.02415 0
M  V30 13321 C 1284.59 0.541197 1.84632 0
M  V30 13322 O 1283.88 -0.466345 1.85838 0
M  V30 13323 C 1284.08 2.99214 1.95463 0
M  V30 13324 C 1283.91 4.32722 1.22401 0
M  V30 13325 C 1282.68 4.96334 0.947659 0
M  V30 13326 C 1284.88 5.10499 0.62416 0
M  V30 13327 N 1282.86 6.13611 0.188198 0
M  V30 13328 C 1284.23 6.2 -0.00210199 0
M  V30 13329 C 1286.28 4.9507 0.530059 0
M  V30 13330 C 1284.99 7.15754 -0.713371 0
M  V30 13331 C 1287.01 5.91163 -0.167575 0
M  V30 13332 C 1286.37 7.00039 -0.782653 0
M  V30 13333 H 1282.47 0.695548 0.357403 0
M  V30 13334 H 1285.06 1.92346 0.301849 0
M  V30 13335 H 1283.23 2.84013 2.64936 0
M  V30 13336 H 1284.96 3.08575 2.61846 0
M  V30 13337 H 1281.72 4.56861 1.24799 0
M  V30 13338 H 1282.14 6.76765 -0.178295 0
M  V30 13339 H 1286.78 4.11015 0.991288 0
M  V30 13340 H 1284.5 7.99344 -1.18634 0
M  V30 13341 H 1288.09 5.81303 -0.240442 0
M  V30 13342 H 1286.97 7.73115 -1.31389 0
M  V30 13343 N 1284.47 -0.556076 1.47464 0
M  V30 13344 C 1285.38 -1.69043 1.62671 0
M  V30 13345 C 1286.39 -1.66372 0.509535 0
M  V30 13346 O 1287.57 -1.85799 0.777218 0
M  V30 13347 C 1284.64 -3.05546 1.63836 0
M  V30 13348 C 1283.7 -3.19275 2.86988 0
M  V30 13349 C 1282.93 -4.49267 2.88088 0
M  V30 13350 O 1283.15 -5.34796 1.98368 0
M  V30 13351 O 1282.09 -4.66811 3.79962 0
M  V30 13352 H 1285.91 -1.59155 2.58657 0
M  V30 13353 H 1283.5 -0.726211 1.30562 0
M  V30 13354 H 1285.38 -3.86778 1.67275 0
M  V30 13355 H 1284.05 -3.15814 0.710173 0
M  V30 13356 H 1282.96 -2.37437 2.89093 0
M  V30 13357 H 1284.29 -3.13912 3.79104 0
M  V30 13358 N 1285.95 -1.35615 -0.802897 0
M  V30 13359 C 1287.19 -1.29285 -1.56247 0
M  V30 13360 C 1287.53 0.131474 -1.93754 0
M  V30 13361 O 1286.8 1.08172 -1.61645 0
M  V30 13362 C 1287.08 -2.20285 -2.84863 0
M  V30 13363 C 1286.94 -3.71351 -2.53808 0
M  V30 13364 C 1288.26 -2.10318 -3.86593 0
M  V30 13365 H 1285.38 -0.470972 -0.566882 0
M  V30 13366 H 1288.02 -1.66048 -0.923469 0
M  V30 13367 H 1286.17 -1.89063 -3.39393 0
M  V30 13368 H 1287.84 -4.13031 -2.05433 0
M  V30 13369 H 1286.08 -3.9145 -1.86947 0
M  V30 13370 H 1286.75 -4.30416 -3.4561 0
M  V30 13371 H 1289.23 -2.37772 -3.41473 0
M  V30 13372 H 1288.11 -2.76183 -4.74357 0
M  V30 13373 H 1288.37 -1.08627 -4.28547 0
M  V30 13374 N 1287.43 1.02549 -1.19673 0
M  V30 13375 C 1288.67 1.76265 -1.00293 0
M  V30 13376 C 1289 1.88555 0.464816 0
M  V30 13377 O 1288.28 1.40484 1.34515 0
M  V30 13378 C 1288.56 3.18688 -1.6766 0
M  V30 13379 C 1288.42 3.14247 -3.21821 0
M  V30 13380 C 1289.73 4.17159 -1.40238 0
M  V30 13381 H 1286.85 0.639837 -0.365756 0
M  V30 13382 H 1289.5 1.19691 -1.4756 0
M  V30 13383 H 1287.65 3.66992 -1.27472 0
M  V30 13384 H 1289.32 2.73815 -3.71245 0
M  V30 13385 H 1287.56 2.51874 -3.53188 0
M  V30 13386 H 1288.23 4.14886 -3.64107 0
M  V30 13387 H 1290.71 3.77471 -1.75086 0
M  V30 13388 H 1289.58 5.14997 -1.89919 0
M  V30 13389 H 1289.84 4.4088 -0.328197 0
M  V30 13390 N 1288.9 1.00119 1.21713 0
M  V30 13391 C 1290.13 0.700172 1.95224 0
M  V30 13392 C 1290.55 -0.730138 1.73351 0
M  V30 13393 O 1289.91 -1.50026 1.01794 0
M  V30 13394 C 1289.96 1.02202 3.45814 0
M  V30 13395 O 1289.06 0.125188 4.1221 0
M  V30 13396 H 1288.4 0.261238 0.610451 0
M  V30 13397 H 1290.93 1.34041 1.54578 0
M  V30 13398 H 1290.94 0.967293 3.96368 0
M  V30 13399 H 1289.62 2.06422 3.61058 0
M  V30 13400 H 1288.2 0.236114 3.72152 0
M  V30 13401 N 1290.38 -1.37203 0.775435 0
M  V30 13402 C 1291.61 -2.03572 0.352416 0
M  V30 13403 C 1292.02 -1.58612 -1.03145 0
M  V30 13404 O 1291.36 -0.764478 -1.67037 0
M  V30 13405 C 1291.42 -3.58064 0.321026 0
M  V30 13406 C 1291.09 -4.2617 1.6501 0
M  V30 13407 C 1292.09 -4.50034 2.60318 0
M  V30 13408 C 1289.77 -4.63927 1.92555 0
M  V30 13409 C 1291.76 -5.10716 3.81376 0
M  V30 13410 C 1289.45 -5.24329 3.13883 0
M  V30 13411 C 1290.45 -5.47661 4.08113 0
M  V30 13412 O 1290.14 -6.068 5.27304 0
M  V30 13413 H 1289.87 -0.660231 0.145159 0
M  V30 13414 H 1292.42 -1.76446 1.05148 0
M  V30 13415 H 1290.65 -3.84252 -0.434439 0
M  V30 13416 H 1292.34 -4.0583 -0.0754241 0
M  V30 13417 H 1293.11 -4.21273 2.4032 0
M  V30 13418 H 1288.99 -4.45098 1.20036 0
M  V30 13419 H 1292.53 -5.28844 4.5494 0
M  V30 13420 H 1288.43 -5.52514 3.33765 0
M  V30 13421 H 1289.2 -6.25276 5.28179 0
M  V30 13422 N 1291.86 -0.526279 -1.48553 0
M  V30 13423 C 1293.11 0.00914839 -2.02098 0
M  V30 13424 C 1293.43 1.35119 -1.40598 0
M  V30 13425 O 1292.7 1.87422 -0.570065 0
M  V30 13426 H 1291.28 0.00636935 -0.746973 0
M  V30 13427 H 1293.94 -0.689269 -1.82305 0
M  V30 13428 H 1293.04 0.120212 -3.11868 0
M  V30 13429 N 1293.34 1.5542 -0.261239 0
M  V30 13430 C 1294.25 2.25627 0.642625 0
M  V30 13431 C 1295.26 1.27732 1.18155 0
M  V30 13432 O 1296.44 1.60639 1.21479 0
M  V30 13433 C 1293.5 2.95303 1.8165 0
M  V30 13434 C 1292.57 4.08644 1.31563 0
M  V30 13435 C 1291.8 4.74988 2.43355 0
M  V30 13436 O 1292.02 4.40474 3.62407 0
M  V30 13437 O 1290.96 5.63217 2.12299 0
M  V30 13438 H 1294.78 3.03609 0.0743091 0
M  V30 13439 H 1292.37 1.49372 -0.0291754 0
M  V30 13440 H 1294.25 3.3914 2.50125 0
M  V30 13441 H 1292.92 2.2025 2.37217 0
M  V30 13442 H 1291.83 3.69294 0.597746 0
M  V30 13443 H 1293.16 4.85558 0.805878 0
M  V30 13444 N 1294.82 -0.0116844 1.57596 0
M  V30 13445 C 1296.23 -0.367602 1.55309 0
M  V30 13446 C 1296.43 -1.75524 0.98962 0
M  V30 13447 O 1295.49 -2.44813 0.618289 0
M  V30 13448 C 1296.8 -0.253532 2.99629 0
M  V30 13449 C 1298.35 -0.329335 3.11263 0
M  V30 13450 C 1298.82 -0.24452 4.57347 0
M  V30 13451 N 1300.31 -0.302782 4.62209 0
M  V30 13452 C 1301.05 -0.260315 5.72809 0
M  V30 13453 N 1300.55 -0.169124 6.92594 0
M  V30 13454 N 1302.34 -0.311323 5.61237 0
M  V30 13455 H 1294.49 0.896204 1.92567 0
M  V30 13456 H 1296.75 0.342445 0.883988 0
M  V30 13457 H 1296.46 0.70074 3.44648 0
M  V30 13458 H 1296.33 -1.04029 3.62571 0
M  V30 13459 H 1298.72 -1.27405 2.66181 0
M  V30 13460 H 1298.8 0.487084 2.5112 0
M  V30 13461 H 1298.44 0.696597 5.031 0
M  V30 13462 H 1298.37 -1.07927 5.15421 0
M  V30 13463 H 1300.87 -0.375067 3.76034 0
M  V30 13464 H 1301.18 -0.142296 7.72669 0
M  V30 13465 H 1299.52 -0.134919 6.94869 0
M  V30 13466 H 1302.71 -0.380678 4.6655 0
M  V30 13467 H 1302.89 -0.274761 6.47417 0
M  V30 13468 N 1296.29 -1.55015 -0.284256 0
M  V30 13469 C 1297.7 -1.65915 -0.856104 0
M  V30 13470 C 1298.06 -0.578758 -1.8747 0
M  V30 13471 O 1297.18 0.281733 -2.14558 0
M  V30 13472 C 1297.78 -3.0077 -1.55957 0
M  V30 13473 C 1296.33 -3.13735 -2.0796 0
M  V30 13474 C 1295.48 -2.61669 -0.917849 0
M  V30 13475 H 1298.43 -1.58583 -0.0608587 0
M  V30 13476 H 1298.45 -2.9313 -2.42601 0
M  V30 13477 H 1297.97 -3.79382 -0.81798 0
M  V30 13478 H 1296.07 -2.39875 -2.85115 0
M  V30 13479 H 1296.18 -4.20138 -2.30263 0
M  V30 13480 H 1294.54 -2.18542 -1.3081 0
M  V30 13481 H 1295.33 -3.42774 -0.189946 0
M  V30 13482 N 1297.77 0.548248 -1.47757 0
M  V30 13483 C 1299 1.32827 -1.58242 0
M  V30 13484 C 1299.41 1.87736 -0.234936 0
M  V30 13485 O 1298.75 1.66163 0.78329 0
M  V30 13486 C 1298.81 2.52906 -2.55497 0
M  V30 13487 C 1298.48 2.19218 -4.00989 0
M  V30 13488 C 1299.48 1.75976 -4.89212 0
M  V30 13489 C 1297.16 2.30302 -4.46392 0
M  V30 13490 C 1299.15 1.44258 -6.20861 0
M  V30 13491 C 1296.84 1.98197 -5.78067 0
M  V30 13492 C 1297.84 1.55244 -6.65123 0
M  V30 13493 O 1297.53 1.23551 -7.94349 0
M  V30 13494 H 1297.26 0.41088 -0.536799 0
M  V30 13495 H 1299.81 0.670055 -1.94163 0
M  V30 13496 H 1298.04 3.21648 -2.14661 0
M  V30 13497 H 1299.73 3.14979 -2.56014 0
M  V30 13498 H 1300.5 1.66898 -4.55379 0
M  V30 13499 H 1296.38 2.62693 -3.78832 0
M  V30 13500 H 1299.92 1.10659 -6.88767 0
M  V30 13501 H 1295.82 2.0691 -6.1144 0
M  V30 13502 H 1296.59 1.37105 -8.06935 0
M  V30 13503 N 1299.25 1.36039 0.795694 0
M  V30 13504 C 1300.5 1.3112 1.55497 0
M  V30 13505 C 1300.85 -0.110471 1.92083 0
M  V30 13506 O 1300.14 -1.06352 1.59373 0
M  V30 13507 C 1300.34 2.16166 2.84617 0
M  V30 13508 C 1300.17 3.66459 2.60649 0
M  V30 13509 C 1298.94 4.35658 2.55989 0
M  V30 13510 C 1301.13 4.59866 2.30277 0
M  V30 13511 N 1299.12 5.71632 2.23852 0
M  V30 13512 C 1300.49 5.84042 2.08074 0
M  V30 13513 C 1302.54 4.48496 2.16231 0
M  V30 13514 C 1301.25 6.98125 1.73246 0
M  V30 13515 C 1303.27 5.62439 1.82801 0
M  V30 13516 C 1302.63 6.8565 1.61441 0
M  V30 13517 H 1298.73 0.53507 0.570284 0
M  V30 13518 H 1301.32 1.71029 0.930441 0
M  V30 13519 H 1299.49 1.78511 3.44947 0
M  V30 13520 H 1301.22 2.02684 3.50288 0
M  V30 13521 H 1297.97 3.8839 2.71017 0
M  V30 13522 H 1298.4 6.43428 2.10547 0
M  V30 13523 H 1303.04 3.53831 2.31437 0
M  V30 13524 H 1300.76 7.92746 1.56777 0
M  V30 13525 H 1304.34 5.556 1.72626 0
M  V30 13526 H 1303.22 7.72325 1.35953 0
M  V30 13527 N 1300.73 -1.01913 1.20215 0
M  V30 13528 C 1301.64 -2.13864 0.964328 0
M  V30 13529 C 1302.65 -1.73821 -0.0789556 0
M  V30 13530 O 1303.83 -2.01111 0.107914 0
M  V30 13531 C 1300.9 -3.42827 0.516757 0
M  V30 13532 C 1299.96 -3.97127 1.63059 0
M  V30 13533 C 1299.19 -5.19935 1.20428 0
M  V30 13534 O 1299.41 -5.70355 0.0719119 0
M  V30 13535 O 1298.35 -5.67322 2.01071 0
M  V30 13536 H 1302.17 -2.36795 1.90162 0
M  V30 13537 H 1299.76 -1.1226 0.985803 0
M  V30 13538 H 1301.64 -4.20493 0.276272 0
M  V30 13539 H 1300.31 -3.21318 -0.391983 0
M  V30 13540 H 1299.22 -3.20752 1.92533 0
M  V30 13541 H 1300.55 -4.2302 2.51624 0
M  V30 13542 N 1302.21 -1.00763 -1.2118 0
M  V30 13543 C 1303.14 -0.515053 -2.22312 0
M  V30 13544 C 1304.12 0.432665 -1.56738 0
M  V30 13545 O 1305.3 0.35477 -1.85131 0
M  V30 13546 C 1302.43 0.251544 -3.37765 0
M  V30 13547 C 1301.47 -0.64437 -4.21604 0
M  V30 13548 S 1302.31 -2.10832 -4.9225 0
M  V30 13549 C 1303.46 -1.35163 -6.11132 0
M  V30 13550 H 1303.7 -1.37198 -2.6375 0
M  V30 13551 H 1301.23 -0.815783 -1.31089 0
M  V30 13552 H 1303.19 0.687761 -4.04698 0
M  V30 13553 H 1301.85 1.08393 -2.94805 0
M  V30 13554 H 1301.04 -0.0537452 -5.03971 0
M  V30 13555 H 1300.64 -1.01798 -3.5988 0
M  V30 13556 H 1302.94 -0.6269 -6.74593 0
M  V30 13557 H 1303.88 -2.15111 -6.74635 0
M  V30 13558 H 1304.29 -0.858444 -5.57935 0
M  V30 13559 N 1303.68 1.3679 -0.7827 0
M  V30 13560 C 1304.91 2.03678 -0.363734 0
M  V30 13561 C 1305.33 1.59024 1.01768 0
M  V30 13562 O 1304.68 0.776541 1.65155 0
M  V30 13563 C 1304.74 3.59165 -0.410213 0
M  V30 13564 O 1304.46 4.02188 -1.73714 0
M  V30 13565 C 1305.96 4.43296 0.018972 0
M  V30 13566 H 1303.18 0.653828 -0.150829 0
M  V30 13567 H 1305.72 1.74903 -1.05968 0
M  V30 13568 H 1303.88 3.86673 0.237249 0
M  V30 13569 H 1304.29 4.96754 -1.68332 0
M  V30 13570 H 1305.76 5.51962 -0.0646943 0
M  V30 13571 H 1306.24 4.25948 1.07076 0
M  V30 13572 H 1306.85 4.21036 -0.600721 0
M  V30 13573 N 1305.16 0.53415 1.48272 0
M  V30 13574 C 1306.11 -0.239672 2.31362 0
M  V30 13575 C 1307.1 -0.931501 1.4149 0
M  V30 13576 O 1308.31 -0.855411 1.58375 0
M  V30 13577 H 1304.69 -0.09616 0.745827 0
M  V30 13578 H 1306.66 0.480638 2.94504 0
M  V30 13579 C 1305.41 -1.27102 3.23636 0
M  V30 13580 H 1304.73 -0.748082 3.92739 0
M  V30 13581 H 1306.17 -1.78379 3.84652 0
M  V30 13582 C 1304.63 -2.30683 2.45534 0
M  V30 13583 O 1305.16 -3.37197 2.18314 0
M  V30 13584 N 1303.36 -2.04006 2.06954 0
M  V30 13585 H 1302.91 -1.17403 2.29291 0
M  V30 13586 H 1302.87 -2.73531 1.5501 0
M  V30 13587 N 1306.64 -1.55279 0.269478 0
M  V30 13588 C 1307.57 -2.19684 -0.653573 0
M  V30 13589 C 1308.59 -1.17985 -1.12176 0
M  V30 13590 O 1309.77 -1.44739 -1.04464 0
M  V30 13591 C 1306.87 -2.80438 -1.90284 0
M  V30 13592 C 1306.05 -4.07774 -1.58239 0
M  V30 13593 C 1305.11 -4.52629 -2.68354 0
M  V30 13594 O 1304.13 -5.18524 -2.3478 0
M  V30 13595 N 1305.33 -4.22297 -3.98303 0
M  V30 13596 H 1308.1 -2.99525 -0.102379 0
M  V30 13597 H 1305.66 -1.61648 0.0903465 0
M  V30 13598 H 1307.65 -3.07392 -2.63234 0
M  V30 13599 H 1306.22 -2.04622 -2.36323 0
M  V30 13600 H 1305.44 -3.88168 -0.686983 0
M  V30 13601 H 1306.73 -4.90749 -1.34323 0
M  V30 13602 H 1306.13 -3.69441 -4.28404 0
M  V30 13603 H 1304.69 -4.54035 -4.67649 0
M  V30 13604 N 1308.12 0.00332656 -1.576 0
M  V30 13605 C 1309.4 0.725722 -1.81639 0
M  V30 13606 C 1309.78 1.92173 -0.87365 0
M  V30 13607 O 1309.12 2.28365 0.0783931 0
M  V30 13608 C 1309.33 1.13458 -3.30043 0
M  V30 13609 C 1310.68 1.53982 -3.95695 0
M  V30 13610 O 1311.71 1.22846 -3.34346 0
M  V30 13611 O 1310.56 2.11866 -5.03761 0
M  V30 13612 H 1307.66 0.353083 -0.747838 0
M  V30 13613 H 1310.2 -0.0218724 -1.69686 0
M  V30 13614 H 1308.98 0.281925 -3.90283 0
M  V30 13615 H 1308.6 1.94138 -3.46982 0
M  V30 13616 N 1309.6 1.55164 0.276031 0
M  V30 13617 C 1310.84 1.75887 1.00953 0
M  V30 13618 C 1311.18 0.5567 1.8605 0
M  V30 13619 O 1310.45 -0.445799 1.89322 0
M  V30 13620 C 1310.73 3.06228 1.89463 0
M  V30 13621 C 1310.59 4.36795 1.07379 0
M  V30 13622 C 1311.91 3.32589 2.88223 0
M  V30 13623 H 1309.02 0.639929 0.365596 0
M  V30 13624 H 1311.67 1.87893 0.282156 0
M  V30 13625 H 1309.82 2.96124 2.51481 0
M  V30 13626 H 1311.49 4.58853 0.474549 0
M  V30 13627 H 1309.73 4.32157 0.377165 0
M  V30 13628 H 1310.4 5.24315 1.72621 0
M  V30 13629 H 1312.88 3.42467 2.36338 0
M  V30 13630 H 1311.75 4.2506 3.47297 0
M  V30 13631 H 1312.02 2.52083 3.6319 0
M  V30 13632 N 1311.07 -0.540404 1.48045 0
M  V30 13633 C 1312.32 -1.2932 1.54787 0
M  V30 13634 C 1312.64 -1.94335 0.222109 0
M  V30 13635 O 1313.84 -2.70982 0.167675 0
M  V30 13636 C 1312.3 -2.34594 2.72935 0
M  V30 13637 C 1311.91 -1.75696 4.1211 0
M  V30 13638 C 1313.65 -3.10949 2.88982 0
M  V30 13639 C 1311.56 -2.78849 5.21534 0
M  V30 13640 H 1310.49 -0.486315 0.576206 0
M  V30 13641 H 1313.14 -0.571998 1.74357 0
M  V30 13642 H 1311.52 -3.09704 2.46778 0
M  V30 13643 H 1312.69 -1.06845 4.48242 0
M  V30 13644 H 1311.01 -1.11869 4.01091 0
M  V30 13645 H 1313.61 -3.88012 3.679 0
M  V30 13646 H 1313.95 -3.66173 1.98048 0
M  V30 13647 H 1314.48 -2.42953 3.1499 0
M  V30 13648 H 1311.22 -2.28459 6.144 0
M  V30 13649 H 1310.74 -3.46059 4.89901 0
M  V30 13650 H 1312.42 -3.4203 5.49203 0
M  V30 13651 N 1312.55 -1.36459 -0.788468 0
M  V30 13652 C 1313.5 -1.30863 -1.90115 0
M  V30 13653 C 1314.47 -0.177148 -1.65153 0
M  V30 13654 O 1315.65 -0.363817 -1.87299 0
M  V30 13655 C 1312.79 -1.10473 -3.2694 0
M  V30 13656 C 1311.91 -2.32704 -3.63968 0
M  V30 13657 C 1311.04 -2.05319 -4.89916 0
M  V30 13658 C 1310.08 -3.23506 -5.19625 0
M  V30 13659 N 1309.22 -2.9578 -6.36756 0
M  V30 13660 H 1314.06 -2.26003 -1.94233 0
M  V30 13661 H 1311.6 -1.12324 -0.949827 0
M  V30 13662 H 1313.55 -0.966773 -4.05844 0
M  V30 13663 H 1312.18 -0.189873 -3.22241 0
M  V30 13664 H 1311.24 -2.573 -2.8018 0
M  V30 13665 H 1312.55 -3.20899 -3.81871 0
M  V30 13666 H 1311.7 -1.88459 -5.76687 0
M  V30 13667 H 1310.44 -1.14437 -4.74084 0
M  V30 13668 H 1309.45 -3.40924 -4.31336 0
M  V30 13669 H 1310.67 -4.15216 -5.37376 0
M  V30 13670 H 1308.62 -2.0751 -6.22315 0
M  V30 13671 H 1308.53 -3.77513 -6.54996 0
M  V30 13672 H 1309.8 -2.825 -7.26508 0
M  V30 13673 N 1314.03 1.01274 -1.20754 0
M  V30 13674 C 1314.99 2.08056 -0.961528 0
M  V30 13675 C 1315.99 1.60671 0.0644461 0
M  V30 13676 O 1317.18 1.73349 -0.172022 0
M  V30 13677 C 1314.32 3.37938 -0.448381 0
M  V30 13678 H 1315.51 2.31314 -1.90877 0
M  V30 13679 H 1313.06 1.18133 -1.02344 0
M  V30 13680 H 1313.8 3.20357 0.504144 0
M  V30 13681 H 1313.58 3.73659 -1.18833 0
M  V30 13682 H 1315.07 4.16551 -0.295876 0
M  V30 13683 N 1315.51 1.01404 1.20644 0
M  V30 13684 C 1316.76 0.702949 1.90227 0
M  V30 13685 C 1317.09 -0.765243 1.78487 0
M  V30 13686 O 1316.36 -1.55569 1.16741 0
M  V30 13687 C 1316.65 1.13606 3.4171 0
M  V30 13688 C 1316.5 2.66437 3.62397 0
M  V30 13689 C 1317.82 0.705361 4.34411 0
M  V30 13690 H 1314.94 0.256842 0.690797 0
M  V30 13691 H 1317.58 1.26133 1.42093 0
M  V30 13692 H 1315.73 0.660977 3.82836 0
M  V30 13693 H 1317.4 3.21778 3.3054 0
M  V30 13694 H 1315.64 3.0753 3.05954 0
M  V30 13695 H 1316.32 2.91795 4.68572 0
M  V30 13696 H 1318.79 1.11375 4.00918 0
M  V30 13697 H 1317.67 1.03647 5.39026 0
M  V30 13698 H 1317.93 -0.393094 4.40349 0
M  V30 13699 N 1316.99 -1.36373 0.789944 0
M  V30 13700 C 1317.9 -2.3383 0.189873 0
M  V30 13701 C 1318.91 -1.61068 -0.65827 0
M  V30 13702 O 1320.09 -1.93049 -0.573932 0
M  V30 13703 C 1317.15 -3.40264 -0.664905 0
M  V30 13704 C 1316.22 -4.28825 0.201798 0
M  V30 13705 C 1315.45 -5.30176 -0.612278 0
M  V30 13706 O 1315.67 -5.39627 -1.84821 0
M  V30 13707 O 1314.61 -6.01899 -0.0118964 0
M  V30 13708 H 1318.43 -2.86915 0.995671 0
M  V30 13709 H 1316.02 -1.38852 0.551412 0
M  V30 13710 H 1317.9 -4.05339 -1.15231 0
M  V30 13711 H 1316.57 -2.89478 -1.44858 0
M  V30 13712 H 1315.48 -3.66789 0.735974 0
M  V30 13713 H 1316.81 -4.82965 0.949003 0
M  V30 13714 N 1318.47 -0.542005 -1.47987 0
M  V30 13715 C 1319.38 0.217677 -2.33588 0
M  V30 13716 C 1320.39 0.927093 -1.47245 0
M  V30 13717 O 1321.57 0.899378 -1.80203 0
M  V30 13718 C 1318.63 1.24376 -3.23622 0
M  V30 13719 C 1317.69 0.543407 -4.25847 0
M  V30 13720 C 1316.93 1.5206 -5.11579 0
M  V30 13721 O 1317.15 2.75425 -4.99497 0
M  V30 13722 O 1316.08 1.05341 -5.9261 0
M  V30 13723 H 1319.91 -0.484089 -2.99817 0
M  V30 13724 H 1317.49 -0.302783 -1.463 0
M  V30 13725 H 1319.38 1.83644 -3.7928 0
M  V30 13726 H 1318.05 1.92772 -2.6004 0
M  V30 13727 H 1316.96 -0.090074 -3.73992 0
M  V30 13728 H 1318.29 -0.0988264 -4.92101 0
M  V30 13729 N 1319.94 1.55134 -0.277709 0
M  V30 13730 C 1321.19 1.99259 0.337662 0
M  V30 13731 C 1321.51 1.16755 1.56183 0
M  V30 13732 O 1320.78 0.257707 1.94198 0
M  V30 13733 H 1319.36 0.735995 0.127751 0
M  V30 13734 H 1322.02 1.91087 -0.383646 0
M  V30 13735 H 1321.12 3.05763 0.625747 0
M  V30 13736 N 1321.42 0.00503138 1.57599 0
M  V30 13737 C 1322.65 -0.688609 1.94786 0
M  V30 13738 C 1323.06 -1.67558 0.878698 0
M  V30 13739 O 1322.4 -1.83083 -0.150486 0
M  V30 13740 C 1322.46 -1.47183 3.2799 0
M  V30 13741 C 1322.13 -0.64589 4.52413 0
M  V30 13742 C 1323.13 0.0685859 5.19855 0
M  V30 13743 C 1320.81 -0.590379 4.98818 0
M  V30 13744 C 1322.8 0.827505 6.32006 0
M  V30 13745 C 1320.49 0.172262 6.10857 0
M  V30 13746 C 1321.49 0.879932 6.77308 0
M  V30 13747 O 1321.18 1.63012 7.87199 0
M  V30 13748 H 1320.91 -0.196416 0.646836 0
M  V30 13749 H 1323.46 0.0537933 2.0533 0
M  V30 13750 H 1321.69 -2.25883 3.13869 0
M  V30 13751 H 1323.38 -2.05129 3.50253 0
M  V30 13752 H 1324.15 0.0348834 4.84987 0
M  V30 13753 H 1320.03 -1.13074 4.46918 0
M  V30 13754 H 1323.57 1.3804 6.83806 0
M  V30 13755 H 1319.47 0.207767 6.45166 0
M  V30 13756 H 1320.24 1.54736 8.03741 0
M  V30 13757 N 1322.9 -1.55308 -0.267798 0
M  V30 13758 C 1324.32 -1.47264 -0.61526 0
M  V30 13759 C 1324.52 -0.691025 -1.8928 0
M  V30 13760 O 1323.57 -0.211964 -2.51609 0
M  V30 13761 C 1324.88 -2.91519 -0.73739 0
M  V30 13762 C 1326.43 -3.01764 -0.831102 0
M  V30 13763 C 1326.91 -4.47283 -0.984965 0
M  V30 13764 N 1328.4 -4.51134 -1.05036 0
M  V30 13765 C 1329.13 -5.60952 -1.1883 0
M  V30 13766 N 1328.63 -6.80625 -1.29311 0
M  V30 13767 N 1330.42 -5.48705 -1.21982 0
M  V30 13768 H 1322.57 -2.04577 0.57114 0
M  V30 13769 H 1324.84 -0.927908 0.194141 0
M  V30 13770 H 1324.54 -3.51456 0.130974 0
M  V30 13771 H 1324.42 -3.40829 -1.61603 0
M  V30 13772 H 1326.8 -2.4192 -1.68993 0
M  V30 13773 H 1326.88 -2.55698 0.0722509 0
M  V30 13774 H 1326.53 -5.07732 -0.130776 0
M  V30 13775 H 1326.46 -4.91011 -1.90305 0
M  V30 13776 H 1328.95 -3.6493 -0.981551 0
M  V30 13777 H 1329.26 -7.60071 -1.39685 0
M  V30 13778 H 1327.61 -6.83426 -1.26306 0
M  V30 13779 H 1330.8 -4.5415 -1.13428 0
M  V30 13780 H 1330.97 -6.34332 -1.32388 0
M  V30 13781 N 1324.38 0.532545 -1.4833 0
M  V30 13782 C 1325.31 1.64662 -1.65555 0
M  V30 13783 C 1326.29 1.62447 -0.50447 0
M  V30 13784 O 1327.47 1.79684 -0.736712 0
M  V30 13785 C 1324.6 3.03256 -1.69272 0
M  V30 13786 C 1323.56 3.20329 -2.83854 0
M  V30 13787 C 1322.88 4.59958 -2.72659 0
M  V30 13788 C 1324.18 3.03345 -4.25181 0
M  V30 13789 H 1325.88 1.50502 -2.58823 0
M  V30 13790 H 1323.42 0.722612 -1.24556 0
M  V30 13791 H 1325.38 3.81064 -1.79911 0
M  V30 13792 H 1324.1 3.18433 -0.725805 0
M  V30 13793 H 1322.76 2.44937 -2.72766 0
M  V30 13794 H 1322.41 4.71967 -1.73942 0
M  V30 13795 H 1322.11 4.72327 -3.49544 0
M  V30 13796 H 1323.63 5.39869 -2.85262 0
M  V30 13797 H 1325.05 3.70948 -4.37116 0
M  V30 13798 H 1323.44 3.27208 -5.03045 0
M  V30 13799 H 1324.51 1.998 -4.41824 0
M  V30 13800 N 1325.86 1.36875 0.78122 0
M  V30 13801 C 1327.27 1.28236 1.35692 0
M  V30 13802 C 1327.62 -0.0742286 1.9606 0
M  V30 13803 O 1326.74 -0.97588 1.93146 0
M  V30 13804 C 1327.34 2.32215 2.46702 0
M  V30 13805 C 1325.9 2.2724 3.00065 0
M  V30 13806 C 1325.04 2.16553 1.73206 0
M  V30 13807 H 1327.99 1.47634 0.582217 0
M  V30 13808 H 1328.02 1.96333 3.25935 0
M  V30 13809 H 1327.53 3.30938 2.02735 0
M  V30 13810 H 1325.63 1.3201 3.48431 0
M  V30 13811 H 1325.74 3.20267 3.56323 0
M  V30 13812 H 1324.11 1.62941 1.95761 0
M  V30 13813 H 1324.89 3.17176 1.31356 0
M  V30 13814 N 1327.33 -1.00632 1.21289 0
M  V30 13815 C 1328.56 -1.78503 1.05601 0
M  V30 13816 C 1328.98 -1.84015 -0.389879 0
M  V30 13817 O 1328.34 -1.28277 -1.2812 0
M  V30 13818 C 1328.39 -3.20313 1.65626 0
M  V30 13819 O 1327.49 -4.02441 0.900841 0
M  V30 13820 H 1326.83 -0.550183 0.371746 0
M  V30 13821 H 1329.36 -1.26505 1.60803 0
M  V30 13822 H 1329.37 -3.70992 1.69792 0
M  V30 13823 H 1328.05 -3.15616 2.7085 0
M  V30 13824 H 1326.63 -3.61009 0.934178 0
M  V30 13825 N 1328.81 -1.02043 -1.20104 0
M  V30 13826 C 1330.22 -0.742954 -1.71281 0
M  V30 13827 C 1330.57 0.738173 -1.81784 0
M  V30 13828 O 1329.7 1.57588 -1.48307 0
M  V30 13829 C 1330.29 -1.342 -3.11088 0
M  V30 13830 C 1328.85 -1.11331 -3.59559 0
M  V30 13831 C 1328 -1.44532 -2.36655 0
M  V30 13832 H 1330.95 -1.18942 -1.05064 0
M  V30 13833 H 1330.97 -0.734558 -3.73342 0
M  V30 13834 H 1330.48 -2.41998 -3.03411 0
M  V30 13835 H 1328.58 -0.05317 -3.72562 0
M  V30 13836 H 1328.7 -1.79606 -4.4416 0
M  V30 13837 H 1327.06 -0.864431 -2.39582 0
M  V30 13838 H 1327.84 -2.53394 -2.31616 0
M  V30 13839 N 1330.29 1.35952 -0.797165 0
M  V30 13840 C 1331.22 2.27728 -0.146693 0
M  V30 13841 C 1332.2 1.47616 0.68178 0
M  V30 13842 O 1333.39 1.76898 0.651094 0
M  V30 13843 C 1330.51 3.29179 0.797442 0
M  V30 13844 C 1329.56 4.26471 0.0497851 0
M  V30 13845 S 1330.39 5.19982 -1.2798 0
M  V30 13846 C 1331.55 6.24977 -0.339864 0
M  V30 13847 H 1331.78 2.82549 -0.924834 0
M  V30 13848 H 1329.31 1.4261 -0.591759 0
M  V30 13849 H 1331.27 3.88127 1.33669 0
M  V30 13850 H 1329.93 2.73255 1.54889 0
M  V30 13851 H 1329.13 4.98138 0.766487 0
M  V30 13852 H 1328.73 3.71643 -0.419219 0
M  V30 13853 H 1331.02 6.75809 0.478412 0
M  V30 13854 H 1331.96 7.00636 -1.02544 0
M  V30 13855 H 1332.37 5.64468 0.0602491 0
M  V30 13856 N 1331.77 0.549846 1.47697 0
M  V30 13857 C 1333.05 -0.0422793 1.95554 0
M  V30 13858 C 1333.43 -1.49303 1.49238 0
M  V30 13859 O 1332.77 -2.16598 0.727844 0
M  V30 13860 C 1332.98 0.0955552 3.48869 0
M  V30 13861 C 1334.33 -0.0535698 4.24566 0
M  V30 13862 O 1335.36 0.0227365 3.56193 0
M  V30 13863 O 1334.21 -0.21645 5.46071 0
M  V30 13864 H 1331.31 -0.0682465 0.824179 0
M  V30 13865 H 1333.85 0.615849 1.58131 0
M  V30 13866 H 1332.63 1.10536 3.75363 0
M  V30 13867 H 1332.25 -0.600522 3.93039 0
M  V30 13868 N 1333.25 -1.54984 0.285932 0
M  V30 13869 C 1334.49 -2.01738 -0.328795 0
M  V30 13870 C 1334.85 -1.16994 -1.52238 0
M  V30 13871 O 1336.05 -1.53377 -2.20746 0
M  V30 13872 C 1334.32 -3.50657 -0.690981 0
M  V30 13873 S 1335.88 -4.19388 -1.29071 0
M  V30 13874 H 1332.7 -0.703686 -0.101721 0
M  V30 13875 H 1335.3 -1.91146 0.410291 0
M  V30 13876 H 1334.01 -4.09976 0.186419 0
M  V30 13877 H 1333.54 -3.65255 -1.46125 0
M  V30 13878 H 1335.55 -4.23912 -2.57901 0
M  V30 13879 N 1334.72 -0.0133892 -1.57594 0
M  V30 13880 C 1336.14 0.527615 -1.7909 0
M  V30 13881 C 1336.49 1.73179 -0.922142 0
M  V30 13882 O 1335.61 2.1602 -0.128233 0
M  V30 13883 C 1336.21 0.963949 -3.24798 0
M  V30 13884 C 1334.77 1.45017 -3.47343 0
M  V30 13885 C 1333.91 0.407548 -2.74289 0
M  V30 13886 H 1336.86 -0.239505 -1.56882 0
M  V30 13887 H 1336.88 1.82924 -3.33645 0
M  V30 13888 H 1336.4 0.0873315 -3.88002 0
M  V30 13889 H 1334.5 2.34724 -2.89371 0
M  V30 13890 H 1334.61 1.4684 -4.56043 0
M  V30 13891 H 1332.97 0.872174 -2.39301 0
M  V30 13892 H 1333.76 -0.460333 -3.402 0
M  V30 13893 N 1336.2 1.55448 0.259558 0
M  V30 13894 C 1337.17 1.88459 1.30445 0
M  V30 13895 C 1338.17 0.760096 1.41701 0
M  V30 13896 O 1339.36 1.02819 1.4062 0
M  V30 13897 C 1336.49 2.10181 2.68397 0
M  V30 13898 H 1337.68 2.81877 1.02398 0
M  V30 13899 H 1335.23 1.48145 0.498262 0
M  V30 13900 H 1335.97 1.19189 3.01603 0
M  V30 13901 H 1335.75 2.92066 2.6161 0
M  V30 13902 H 1337.24 2.36947 3.43869 0
M  V30 13903 N 1337.68 -0.524672 1.4861 0
M  V30 13904 C 1338.64 -1.61092 1.63039 0
M  V30 13905 C 1339.64 -1.52718 0.503387 0
M  V30 13906 O 1340.83 -1.56293 0.769304 0
M  V30 13907 C 1337.97 -3.00722 1.60558 0
M  V30 13908 H 1339.16 -1.49636 2.59902 0
M  V30 13909 H 1336.71 -0.747135 1.37287 0
M  V30 13910 H 1337.45 -3.1768 0.651926 0
M  V30 13911 H 1337.23 -3.0821 2.42382 0
M  V30 13912 H 1338.72 -3.79688 1.73859 0
M  V30 13913 N 1339.16 -1.37287 -0.77395 0
M  V30 13914 C 1340.09 -1.35569 -1.90114 0
M  V30 13915 C 1341.07 -0.224658 -1.6861 0
M  V30 13916 O 1342.25 -0.424676 -1.895 0
M  V30 13917 C 1339.38 -1.15971 -3.27365 0
M  V30 13918 C 1338.34 -2.26063 -3.63427 0
M  V30 13919 C 1337.66 -1.9159 -4.99197 0
M  V30 13920 C 1338.96 -3.68236 -3.70405 0
M  V30 13921 H 1340.66 -2.29891 -1.91808 0
M  V30 13922 H 1338.2 -1.10661 -0.92142 0
M  V30 13923 H 1340.16 -1.134 -4.05855 0
M  V30 13924 H 1338.88 -0.181043 -3.26098 0
M  V30 13925 H 1337.54 -2.27786 -2.87244 0
M  V30 13926 H 1337.19 -0.922586 -4.94467 0
M  V30 13927 H 1336.89 -2.65309 -5.24294 0
M  V30 13928 H 1338.41 -1.90602 -5.80089 0
M  V30 13929 H 1339.83 -3.68655 -4.39052 0
M  V30 13930 H 1338.22 -4.4099 -4.06999 0
M  V30 13931 H 1339.29 -4.02021 -2.71122 0
M  V30 13932 N 1340.64 0.999871 -1.21821 0
M  V30 13933 C 1341.87 1.77148 -1.06312 0
M  V30 13934 C 1342.27 1.85142 0.389747 0
M  V30 13935 O 1341.62 1.31562 1.28207 0
M  V30 13936 C 1341.68 3.22367 -1.59122 0
M  V30 13937 C 1341.34 3.37937 -3.07649 0
M  V30 13938 C 1342.34 3.25808 -4.05148 0
M  V30 13939 C 1340.03 3.63213 -3.46961 0
M  V30 13940 C 1342.02 3.38729 -5.39946 0
M  V30 13941 C 1339.71 3.75775 -4.81909 0
M  V30 13942 C 1340.7 3.6354 -5.78211 0
M  V30 13943 O 1340.39 3.75694 -7.1071 0
M  V30 13944 H 1340.12 0.563396 -0.373578 0
M  V30 13945 H 1342.68 1.26627 -1.61724 0
M  V30 13946 H 1340.91 3.74047 -0.98111 0
M  V30 13947 H 1342.6 3.81219 -1.39379 0
M  V30 13948 H 1343.36 3.062 -3.76121 0
M  V30 13949 H 1339.24 3.71816 -2.72533 0
M  V30 13950 H 1342.79 3.29096 -6.15095 0
M  V30 13951 H 1338.68 3.94889 -5.1062 0
M  V30 13952 H 1339.45 3.9261 -7.18192 0
M  V30 13953 N 1342.11 1.02678 1.19562 0
M  V30 13954 C 1343.05 0.563882 2.22155 0
M  V30 13955 C 1344.06 -0.359132 1.58789 0
M  V30 13956 O 1345.25 -0.155857 1.77818 0
M  V30 13957 C 1342.35 -0.197894 3.38322 0
M  V30 13958 C 1341.52 0.729542 4.31273 0
M  V30 13959 C 1340.58 0.013543 5.26198 0
M  V30 13960 O 1339.61 0.639417 5.65597 0
M  V30 13961 N 1340.81 -1.25791 5.66707 0
M  V30 13962 H 1343.57 1.44623 2.62496 0
M  V30 13963 H 1341.13 0.90555 1.34207 0
M  V30 13964 H 1343.13 -0.686381 3.98837 0
M  V30 13965 H 1341.7 -0.981632 2.96787 0
M  V30 13966 H 1340.92 1.39816 3.68572 0
M  V30 13967 H 1342.2 1.35994 4.90289 0
M  V30 13968 H 1341.6 -1.78716 5.36728 0
M  V30 13969 H 1340.16 -1.69093 6.29485 0
M  V30 13970 N 1343.59 -1.35528 0.804364 0
M  V30 13971 C 1344.52 -2.32388 0.227604 0
M  V30 13972 C 1345.5 -1.57368 -0.645709 0
M  V30 13973 O 1346.69 -1.85448 -0.576441 0
M  V30 13974 C 1343.82 -3.41603 -0.62645 0
M  V30 13975 C 1342.77 -4.27743 0.148187 0
M  V30 13976 C 1342.1 -5.28259 -0.827425 0
M  V30 13977 C 1343.4 -5.04661 1.34591 0
M  V30 13978 H 1345.09 -2.80874 1.03684 0
M  V30 13979 H 1342.64 -1.3504 0.500031 0
M  V30 13980 H 1344.59 -4.08365 -1.03999 0
M  V30 13981 H 1343.32 -2.91721 -1.46855 0
M  V30 13982 H 1341.97 -3.62558 0.542874 0
M  V30 13983 H 1341.62 -4.74645 -1.66496 0
M  V30 13984 H 1341.32 -5.86763 -0.313453 0
M  V30 13985 H 1342.85 -5.97893 -1.23921 0
M  V30 13986 H 1344.26 -5.6438 1.00736 0
M  V30 13987 H 1342.66 -5.7265 1.79422 0
M  V30 13988 H 1343.73 -4.35432 2.1337 0
M  V30 13989 N 1345.07 -0.557671 -1.47404 0
M  V30 13990 C 1346 0.237612 -2.2696 0
M  V30 13991 C 1346.98 0.919871 -1.34079 0
M  V30 13992 O 1348.17 0.938767 -1.63461 0
M  V30 13993 C 1345.29 1.33863 -3.11124 0
M  V30 13994 C 1344.34 0.764877 -4.19585 0
M  V30 13995 S 1345.17 -0.388893 -5.34086 0
M  V30 13996 C 1346.33 0.713932 -6.21815 0
M  V30 13997 H 1346.56 -0.437477 -2.94064 0
M  V30 13998 H 1344.09 -0.344004 -1.50519 0
M  V30 13999 H 1346.05 1.96917 -3.60186 0
M  V30 14000 H 1344.71 1.98556 -2.43381 0
M  V30 14001 H 1343.91 1.5917 -4.78206 0
M  V30 14002 H 1343.51 0.210502 -3.73407 0
M  V30 14003 H 1345.8 1.60592 -6.58192 0
M  V30 14004 H 1346.74 0.165069 -7.07908 0
M  V30 14005 H 1347.15 1.00681 -5.55449 0
M  V30 14006 N 1346.55 1.54831 -0.294147 0
M  V30 14007 C 1347.48 2.26226 0.57827 0
M  V30 14008 C 1348.46 1.25928 1.14351 0
M  V30 14009 O 1349.65 1.54687 1.17412 0
M  V30 14010 C 1346.78 2.99783 1.75349 0
M  V30 14011 C 1345.73 4.07171 1.31892 0
M  V30 14012 C 1345.06 4.68406 2.57876 0
M  V30 14013 C 1346.36 5.20313 0.455167 0
M  V30 14014 H 1348.05 2.99395 -0.0171936 0
M  V30 14015 H 1345.6 1.43997 -0.00970944 0
M  V30 14016 H 1347.55 3.48448 2.36986 0
M  V30 14017 H 1346.27 2.24181 2.37509 0
M  V30 14018 H 1344.93 3.59346 0.725653 0
M  V30 14019 H 1344.58 3.89451 3.18335 0
M  V30 14020 H 1344.28 5.40927 2.29502 0
M  V30 14021 H 1345.8 5.1983 3.20327 0
M  V30 14022 H 1347.22 5.64913 0.977026 0
M  V30 14023 H 1345.61 5.99512 0.265501 0
M  V30 14024 H 1346.68 4.82088 -0.521434 0
M  V30 14025 N 1348.03 0.0217466 1.57585 0
M  V30 14026 C 1349.3 -0.696733 1.8277 0
M  V30 14027 C 1349.68 -1.90759 0.904112 0
M  V30 14028 O 1349.03 -2.28461 -0.0420522 0
M  V30 14029 C 1349.24 -1.08193 3.31806 0
M  V30 14030 C 1350.59 -1.47667 3.98095 0
M  V30 14031 O 1351.61 -1.17511 3.36258 0
M  V30 14032 O 1350.47 -2.03825 5.07068 0
M  V30 14033 H 1347.57 -0.341141 0.75336 0
M  V30 14034 H 1350.11 0.0488652 1.6963 0
M  V30 14035 H 1348.89 -0.219799 3.90682 0
M  V30 14036 H 1348.51 -1.88593 3.50026 0
M  V30 14037 N 1349.51 -1.55583 -0.251311 0
M  V30 14038 C 1350.75 -1.7897 -0.987372 0
M  V30 14039 C 1351.11 -0.590559 -1.82692 0
M  V30 14040 O 1352.31 -0.703109 -2.59441 0
M  V30 14041 C 1350.58 -3.07069 -1.82876 0
M  V30 14042 S 1352.14 -3.51659 -2.62452 0
M  V30 14043 H 1348.96 -0.628624 -0.332194 0
M  V30 14044 H 1351.56 -1.93821 -0.255653 0
M  V30 14045 H 1350.26 -3.92415 -1.20161 0
M  V30 14046 H 1349.8 -2.94943 -2.60331 0
M  V30 14047 H 1351.81 -3.12644 -3.85316 0
M  V30 14048 N 1350.98 0.516783 -1.48886 0
M  V30 14049 C 1352.23 1.27118 -1.58785 0
M  V30 14050 C 1352.58 1.90579 -0.264114 0
M  V30 14051 O 1351.88 1.76972 0.734271 0
M  V30 14052 C 1352.07 2.37296 -2.67256 0
M  V30 14053 C 1351.9 1.84637 -4.10048 0
M  V30 14054 C 1350.67 1.66646 -4.77029 0
M  V30 14055 C 1352.87 1.36728 -4.95792 0
M  V30 14056 N 1350.85 1.08751 -6.04191 0
M  V30 14057 C 1352.22 0.908663 -6.13305 0
M  V30 14058 C 1354.28 1.25154 -4.81914 0
M  V30 14059 C 1352.98 0.345766 -7.18468 0
M  V30 14060 C 1355.01 0.702625 -5.87211 0
M  V30 14061 C 1354.37 0.254151 -7.03941 0
M  V30 14062 H 1350.47 0.455698 -0.635503 0
M  V30 14063 H 1353.05 0.581119 -1.85825 0
M  V30 14064 H 1351.22 3.03782 -2.42014 0
M  V30 14065 H 1352.95 3.04334 -2.66764 0
M  V30 14066 H 1349.71 1.90556 -4.33573 0
M  V30 14067 H 1350.13 0.817766 -6.72043 0
M  V30 14068 H 1354.77 1.58429 -3.91995 0
M  V30 14069 H 1352.49 0.000713578 -8.081 0
M  V30 14070 H 1356.08 0.616065 -5.78529 0
M  V30 14071 H 1354.96 -0.163978 -7.84029 0
M  V30 14072 N 1352.46 1.37696 0.766659 0
M  V30 14073 C 1353.39 1.2975 1.88938 0
M  V30 14074 C 1354.41 0.212278 1.6141 0
M  V30 14075 O 1355.6 0.468825 1.72233 0
M  V30 14076 C 1352.7 0.984553 3.24283 0
M  V30 14077 C 1351.87 2.17625 3.79418 0
M  V30 14078 C 1350.93 1.83279 4.9325 0
M  V30 14079 O 1349.95 2.55631 5.08568 0
M  V30 14080 N 1351.16 0.779941 5.75237 0
M  V30 14081 H 1353.92 2.26492 1.96269 0
M  V30 14082 H 1351.48 1.31387 0.946001 0
M  V30 14083 H 1353.47 0.735536 3.9796 0
M  V30 14084 H 1352.04 0.105527 3.12422 0
M  V30 14085 H 1351.26 2.58672 2.9746 0
M  V30 14086 H 1352.55 2.97187 4.12986 0
M  V30 14087 H 1351.95 0.179661 5.65415 0
M  V30 14088 H 1350.51 0.59079 6.49117 0
M  V30 14089 N 1353.94 -0.993397 1.22349 0
M  V30 14090 C 1354.89 -2.0834 0.993123 0
M  V30 14091 C 1355.86 -1.65883 -0.0849717 0
M  V30 14092 O 1357.04 -1.90691 0.0645176 0
M  V30 14093 C 1354.18 -3.40252 0.576434 0
M  V30 14094 C 1353.29 -3.96055 1.72524 0
M  V30 14095 C 1352.43 -5.16123 1.25659 0
M  V30 14096 C 1351.47 -5.64062 2.37698 0
M  V30 14097 N 1350.61 -6.7537 1.91883 0
M  V30 14098 H 1355.45 -2.27381 1.92619 0
M  V30 14099 H 1352.98 -1.11476 0.959763 0
M  V30 14100 H 1354.94 -4.16001 0.316021 0
M  V30 14101 H 1353.57 -3.21214 -0.319626 0
M  V30 14102 H 1352.62 -3.17182 2.1 0
M  V30 14103 H 1353.93 -4.27614 2.56802 0
M  V30 14104 H 1353.09 -5.9916 0.953528 0
M  V30 14105 H 1351.83 -4.86186 0.384011 0
M  V30 14106 H 1350.83 -4.79614 2.68794 0
M  V30 14107 H 1352.06 -5.96025 3.25471 0
M  V30 14108 H 1350 -6.47217 1.06986 0
M  V30 14109 H 1349.92 -7.06246 2.69727 0
M  V30 14110 H 1351.19 -7.61914 1.64644 0
M  V30 14111 N 1355.42 -1.03311 -1.19015 0
M  V30 14112 C 1356.33 -0.627735 -2.26046 0
M  V30 14113 C 1357.34 0.342483 -1.70596 0
M  V30 14114 O 1358.52 0.199307 -2.00411 0
M  V30 14115 C 1355.58 0.0108274 -3.46698 0
M  V30 14116 C 1354.65 -1.00743 -4.17312 0
M  V30 14117 C 1353.88 -0.399245 -5.32205 0
M  V30 14118 O 1354.1 0.796649 -5.64809 0
M  V30 14119 O 1353.04 -1.12419 -5.91308 0
M  V30 14120 H 1356.86 -1.51923 -2.6297 0
M  V30 14121 H 1354.45 -0.803538 -1.25951 0
M  V30 14122 H 1356.33 0.366672 -4.19802 0
M  V30 14123 H 1355 0.876265 -3.11614 0
M  V30 14124 H 1353.91 -1.41494 -3.4631 0
M  V30 14125 H 1355.24 -1.84338 -4.56377 0
M  V30 14126 N 1356.9 1.35099 -0.81154 0
M  V30 14127 C 1358.31 1.51701 -0.495883 0
M  V30 14128 C 1358.51 1.7595 0.982035 0
M  V30 14129 O 1357.57 1.8038 1.7669 0
M  V30 14130 C 1358.88 2.68916 -1.34554 0
M  V30 14131 C 1360.43 2.82795 -1.34149 0
M  V30 14132 C 1360.9 4.0304 -2.17538 0
M  V30 14133 N 1362.39 4.10227 -2.151 0
M  V30 14134 C 1363.13 5.02397 -2.76377 0
M  V30 14135 N 1362.63 5.99866 -3.46601 0
M  V30 14136 N 1364.42 4.95181 -2.65992 0
M  V30 14137 H 1356.57 1.17617 -1.76862 0
M  V30 14138 H 1358.83 0.575875 -0.753042 0
M  V30 14139 H 1358.54 2.57591 -2.39458 0
M  V30 14140 H 1358.41 3.63641 -1.00223 0
M  V30 14141 H 1360.8 2.93568 -0.300285 0
M  V30 14142 H 1360.88 1.88912 -1.7247 0
M  V30 14143 H 1360.52 3.93027 -3.21702 0
M  V30 14144 H 1360.45 4.96114 -1.76574 0
M  V30 14145 H 1362.95 3.40454 -1.6401 0
M  V30 14146 H 1363.26 6.66803 -3.90632 0
M  V30 14147 H 1361.6 6.00025 -3.50706 0
M  V30 14148 H 1364.79 4.17991 -2.10715 0
M  V30 14149 H 1364.97 5.6682 -3.14036 0
M  V30 14150 N 1358.37 0.56548 1.47106 0
M  V30 14151 C 1359.32 -0.190542 2.31818 0
M  V30 14152 C 1360.32 -0.901279 1.43434 0
M  V30 14153 O 1361.52 -0.821625 1.60154 0
M  V30 14154 H 1357.9 -0.0803183 0.747698 0
M  V30 14155 H 1359.87 0.542999 2.93418 0
M  V30 14156 C 1358.62 -1.20208 3.2626 0
M  V30 14157 H 1357.94 -0.664608 3.94237 0
M  V30 14158 H 1359.38 -1.7018 3.88349 0
M  V30 14159 C 1357.84 -2.25423 2.50372 0
M  V30 14160 O 1358.37 -3.3249 2.25418 0
M  V30 14161 N 1356.57 -1.9957 2.11235 0
M  V30 14162 H 1356.12 -1.12513 2.31729 0
M  V30 14163 H 1356.08 -2.70182 1.60777 0
M  V30 14164 N 1359.85 -1.54672 0.302354 0
M  V30 14165 C 1361.08 -2.05041 -0.311891 0
M  V30 14166 C 1361.5 -1.17814 -1.46634 0
M  V30 14167 O 1360.86 -0.182517 -1.80379 0
M  V30 14168 C 1360.91 -3.52831 -0.744489 0
M  V30 14169 O 1360.01 -3.68621 -1.84913 0
M  V30 14170 H 1359.35 -0.661255 -0.0603102 0
M  V30 14171 H 1361.88 -1.99711 0.444593 0
M  V30 14172 H 1361.89 -3.94708 -1.03293 0
M  V30 14173 H 1360.57 -4.1578 0.0999976 0
M  V30 14174 H 1359.15 -3.38649 -1.56113 0
M  V30 14175 N 1361.33 -0.0301034 -1.57571 0
M  V30 14176 C 1362.75 0.326296 -1.56229 0
M  V30 14177 C 1362.95 1.72839 -1.03581 0
M  V30 14178 O 1362 2.43088 -0.682979 0
M  V30 14179 C 1363.32 0.174001 -3.00196 0
M  V30 14180 C 1364.86 0.246694 -3.12026 0
M  V30 14181 C 1365.34 0.123177 -4.57834 0
M  V30 14182 N 1366.83 0.180129 -4.6285 0
M  V30 14183 C 1367.56 0.108353 -5.73298 0
M  V30 14184 N 1367.06 -0.0145648 -6.92798 0
M  V30 14185 N 1368.85 0.162411 -5.61865 0
M  V30 14186 H 1361 -0.946945 -1.90123 0
M  V30 14187 H 1363.27 -0.365762 -0.874598 0
M  V30 14188 H 1362.97 -0.791871 -3.42669 0
M  V30 14189 H 1362.85 0.943794 -3.65202 0
M  V30 14190 H 1365.23 1.20303 -2.69465 0
M  V30 14191 H 1365.32 -0.553493 -2.4974 0
M  V30 14192 H 1364.96 -0.82974 -5.01077 0
M  V30 14193 H 1364.89 0.94224 -5.18102 0
M  V30 14194 H 1367.38 0.275236 -3.76896 0
M  V30 14195 H 1367.69 -0.062614 -7.72775 0
M  V30 14196 H 1366.04 -0.0493606 -6.94982 0
M  V30 14197 H 1369.23 0.256847 -4.67395 0
M  V30 14198 H 1369.4 0.103013 -6.47918 0
M  V30 14199 N 1362.81 1.55714 0.243056 0
M  V30 14200 C 1364.22 1.68126 0.811814 0
M  V30 14201 C 1364.57 0.628259 1.85869 0
M  V30 14202 O 1363.7 -0.224747 2.1523 0
M  V30 14203 C 1364.29 3.048 1.47928 0
M  V30 14204 C 1362.85 3.19138 1.99569 0
M  V30 14205 C 1362 2.64011 0.848149 0
M  V30 14206 H 1364.95 1.58689 0.0187918 0
M  V30 14207 H 1364.97 2.99459 2.34743 0
M  V30 14208 H 1364.48 3.81417 0.717106 0
M  V30 14209 H 1362.58 2.4735 2.78655 0
M  V30 14210 H 1362.69 4.26095 2.19043 0
M  V30 14211 H 1361.06 2.21934 1.2497 0
M  V30 14212 H 1361.84 3.43157 0.0989987 0
M  V30 14213 N 1364.29 -0.50888 1.49158 0
M  V30 14214 C 1365.23 -1.61129 1.65246 0
M  V30 14215 C 1366.2 -1.58582 0.49405 0
M  V30 14216 O 1367.39 -1.76689 0.720122 0
M  V30 14217 C 1364.53 -2.99311 1.71776 0
M  V30 14218 C 1363.64 -3.11933 2.98868 0
M  V30 14219 C 1362.78 -4.408 2.96426 0
M  V30 14220 C 1361.82 -4.47027 4.18131 0
M  V30 14221 N 1360.95 -5.67311 4.13645 0
M  V30 14222 H 1365.79 -1.4672 2.59379 0
M  V30 14223 H 1363.33 -0.713978 1.28611 0
M  V30 14224 H 1365.29 -3.79392 1.73543 0
M  V30 14225 H 1363.92 -3.12442 0.811159 0
M  V30 14226 H 1362.97 -2.24966 3.06748 0
M  V30 14227 H 1364.28 -3.12393 3.8886 0
M  V30 14228 H 1363.44 -5.29194 2.96712 0
M  V30 14229 H 1362.17 -4.42893 2.04199 0
M  V30 14230 H 1361.18 -3.57036 4.18097 0
M  V30 14231 H 1362.4 -4.46656 5.11542 0
M  V30 14232 H 1360.35 -5.70261 3.2425 0
M  V30 14233 H 1360.27 -5.69355 4.97364 0
M  V30 14234 H 1361.54 -6.57934 4.18022 0
M  V30 14235 N 1365.76 -1.381 -0.759346 0
M  V30 14236 C 1367.01 -1.33992 -1.5183 0
M  V30 14237 C 1367.34 0.0718172 -1.94367 0
M  V30 14238 O 1366.59 1.0477 -1.65293 0
M  V30 14239 C 1366.89 -2.23636 -2.78786 0
M  V30 14240 C 1366.56 -3.71703 -2.5524 0
M  V30 14241 C 1365.22 -4.12053 -2.48528 0
M  V30 14242 C 1367.57 -4.65455 -2.34523 0
M  V30 14243 C 1364.9 -5.44252 -2.19105 0
M  V30 14244 C 1367.25 -5.97905 -2.06622 0
M  V30 14245 C 1365.92 -6.37345 -1.98362 0
M  V30 14246 H 1365.19 -0.490311 -0.555587 0
M  V30 14247 H 1367.83 -1.70411 -0.873637 0
M  V30 14248 H 1366.14 -1.80253 -3.47874 0
M  V30 14249 H 1367.84 -2.17764 -3.36719 0
M  V30 14250 H 1364.43 -3.3971 -2.61333 0
M  V30 14251 H 1368.61 -4.35132 -2.38691 0
M  V30 14252 H 1363.87 -5.73758 -2.11214 0
M  V30 14253 H 1368.04 -6.70095 -1.89594 0
M  V30 14254 H 1365.67 -7.39706 -1.75328 0
M  V30 14255 N 1367.24 0.986894 -1.22875 0
M  V30 14256 C 1368.52 1.70121 -0.965311 0
M  V30 14257 C 1368.9 2.04648 0.517924 0
M  V30 14258 O 1368.25 1.73453 1.48749 0
M  V30 14259 C 1368.46 2.94738 -1.86897 0
M  V30 14260 C 1369.81 3.6739 -2.12861 0
M  V30 14261 O 1370.83 3.04758 -1.84394 0
M  V30 14262 O 1369.69 4.8009 -2.61106 0
M  V30 14263 H 1366.78 0.742817 -0.363527 0
M  V30 14264 H 1369.33 1.0427 -1.33887 0
M  V30 14265 H 1368.1 2.65771 -2.87196 0
M  V30 14266 H 1367.72 3.68327 -1.49736 0
M  V30 14267 N 1368.72 1.0394 1.18466 0
M  V30 14268 C 1369.63 0.639714 2.2571 0
M  V30 14269 C 1370.65 -0.333431 1.70775 0
M  V30 14270 O 1371.82 -0.188676 2.00514 0
M  V30 14271 C 1368.89 0.007559 3.46699 0
M  V30 14272 C 1367.95 1.02955 4.16772 0
M  V30 14273 C 1367.18 0.427464 5.31985 0
M  V30 14274 O 1367.4 -0.766684 5.65224 0
M  V30 14275 O 1366.34 1.15553 5.90704 0
M  V30 14276 H 1370.16 1.53316 2.6216 0
M  V30 14277 H 1367.75 0.810206 1.25523 0
M  V30 14278 H 1369.63 -0.344404 4.1999 0
M  V30 14279 H 1368.31 -0.859727 3.12074 0
M  V30 14280 H 1367.21 1.43328 3.45554 0
M  V30 14281 H 1368.55 1.86756 4.55393 0
M  V30 14282 N 1370.2 -1.34667 0.818693 0
M  V30 14283 C 1371.45 -1.9767 0.401184 0
M  V30 14284 C 1371.76 -1.65644 -1.04027 0
M  V30 14285 O 1372.97 -2.22104 -1.56148 0
M  V30 14286 C 1371.42 -3.53677 0.666398 0
M  V30 14287 C 1371.03 -3.94601 2.12119 0
M  V30 14288 C 1372.77 -4.23331 0.314845 0
M  V30 14289 C 1370.68 -5.43502 2.33151 0
M  V30 14290 H 1369.61 -0.739675 0.146275 0
M  V30 14291 H 1372.26 -1.53568 1.00445 0
M  V30 14292 H 1370.64 -3.95999 -0.00698307 0
M  V30 14293 H 1371.82 -3.63396 2.83338 0
M  V30 14294 H 1370.13 -3.37871 2.43377 0
M  V30 14295 H 1372.73 -5.32804 0.449881 0
M  V30 14296 H 1373.07 -4.09666 -0.740235 0
M  V30 14297 H 1373.61 -3.8647 0.942631 0
M  V30 14298 H 1370.35 -5.62148 3.37149 0
M  V30 14299 H 1369.87 -5.76236 1.66471 0
M  V30 14300 H 1371.54 -6.10127 2.153 0
M  V30 14301 N 1371.68 -0.573274 -1.46804 0
M  V30 14302 C 1372.92 -0.0553432 -2.02724 0
M  V30 14303 C 1373.26 1.29753 -1.44492 0
M  V30 14304 O 1372.53 1.84804 -0.606455 0
M  V30 14305 C 1372.81 0.0205511 -3.60094 0
M  V30 14306 C 1372.67 -1.36055 -4.2873 0
M  V30 14307 C 1373.99 0.725944 -4.34071 0
M  V30 14308 H 1371.1 -0.0215858 -0.736684 0
M  V30 14309 H 1373.75 -0.738657 -1.75054 0
M  V30 14310 H 1371.9 0.602481 -3.838 0
M  V30 14311 H 1373.57 -1.98692 -4.16316 0
M  V30 14312 H 1371.81 -1.93087 -3.88458 0
M  V30 14313 H 1372.48 -1.26001 -5.37427 0
M  V30 14314 H 1374.96 0.231677 -4.15455 0
M  V30 14315 H 1373.83 0.74805 -5.43779 0
M  V30 14316 H 1374.1 1.78536 -4.04447 0
M  V30 14317 N 1373.15 1.5451 -0.310553 0
M  V30 14318 C 1374.1 2.25332 0.576928 0
M  V30 14319 C 1375.1 1.26272 1.12924 0
M  V30 14320 O 1376.3 1.44092 1.07878 0
M  V30 14321 H 1372.68 0.723611 0.204674 0
M  V30 14322 H 1374.65 2.98369 -0.0428167 0
M  V30 14323 C 1373.4 3.01455 1.73263 0
M  V30 14324 H 1372.72 3.7749 1.31688 0
M  V30 14325 H 1374.16 3.54276 2.32947 0
M  V30 14326 C 1372.62 2.08984 2.64248 0
M  V30 14327 O 1373.15 1.66414 3.65608 0
M  V30 14328 N 1371.36 1.74742 2.32193 0
M  V30 14329 H 1370.9 2.09558 1.49811 0
M  V30 14330 H 1370.86 1.13148 2.93334 0
M  V30 14331 N 1374.63 0.0384594 1.57553 0
M  V30 14332 C 1375.57 -0.975285 2.06309 0
M  V30 14333 C 1376.54 -1.31174 0.96084 0
M  V30 14334 O 1377.73 -1.4268 1.23185 0
M  V30 14335 C 1374.86 -2.29279 2.49297 0
M  V30 14336 C 1373.9 -2.11028 3.70634 0
M  V30 14337 S 1374.73 -1.40043 5.16864 0
M  V30 14338 C 1375.89 -2.73143 5.63155 0
M  V30 14339 H 1376.12 -0.560293 2.91973 0
M  V30 14340 H 1373.66 -0.173479 1.53422 0
M  V30 14341 H 1375.61 -3.05016 2.74728 0
M  V30 14342 H 1374.28 -2.67909 1.63962 0
M  V30 14343 H 1373.47 -3.08451 3.9859 0
M  V30 14344 H 1373.07 -1.43433 3.45403 0
M  V30 14345 H 1375.36 -3.69354 5.67965 0
M  V30 14346 H 1376.31 -2.49839 6.6256 0
M  V30 14347 H 1376.71 -2.78819 4.90836 0
M  V30 14348 N 1376.11 -1.55841 -0.234795 0
M  V30 14349 C 1377.04 -1.94344 -1.29432 0
M  V30 14350 C 1378.02 -0.809912 -1.49581 0
M  V30 14351 O 1379.21 -1.07117 -1.61986 0
M  V30 14352 C 1376.34 -2.24866 -2.64675 0
M  V30 14353 C 1375.29 -3.40584 -2.59203 0
M  V30 14354 C 1374.62 -3.56678 -3.98353 0
M  V30 14355 C 1375.92 -4.75935 -2.15135 0
M  V30 14356 H 1377.61 -2.83096 -0.97454 0
M  V30 14357 H 1375.16 -1.36205 -0.467355 0
M  V30 14358 H 1377.11 -2.50392 -3.38942 0
M  V30 14359 H 1375.83 -1.32953 -2.98314 0
M  V30 14360 H 1374.49 -3.15087 -1.87393 0
M  V30 14361 H 1374.14 -2.62164 -4.29277 0
M  V30 14362 H 1373.84 -4.34503 -3.95577 0
M  V30 14363 H 1375.37 -3.84538 -4.74302 0
M  V30 14364 H 1376.78 -5.00753 -2.7914 0
M  V30 14365 H 1375.18 -5.56949 -2.23446 0
M  V30 14366 H 1376.25 -4.72182 -1.10328 0
M  V30 14367 N 1377.59 0.500963 -1.49426 0
M  V30 14368 C 1378.87 1.26231 -1.49416 0
M  V30 14369 C 1379.25 2.0993 -0.221908 0
M  V30 14370 O 1378.59 2.14198 0.795712 0
M  V30 14371 C 1378.8 2.11899 -2.77308 0
M  V30 14372 C 1380.15 2.71086 -3.26799 0
M  V30 14373 O 1381.18 2.22166 -2.78425 0
M  V30 14374 O 1380.04 3.60141 -4.11049 0
M  V30 14375 H 1377.13 0.571224 -0.598024 0
M  V30 14376 H 1379.68 0.51523 -1.61689 0
M  V30 14377 H 1378.45 1.50027 -3.61397 0
M  V30 14378 H 1378.07 2.93799 -2.67896 0
M  V30 14379 N 1379.07 1.38501 0.752011 0
M  V30 14380 C 1380.01 1.35857 1.86578 0
M  V30 14381 C 1380.98 0.220873 1.64625 0
M  V30 14382 O 1382.17 0.413348 1.86269 0
M  V30 14383 C 1379.31 1.19102 3.23896 0
M  V30 14384 C 1378.42 2.42272 3.5767 0
M  V30 14385 C 1377.56 2.18236 4.843 0
M  V30 14386 C 1376.6 3.37169 5.10865 0
M  V30 14387 N 1375.73 3.12558 6.28691 0
M  V30 14388 H 1380.57 2.31073 1.88173 0
M  V30 14389 H 1378.11 1.14803 0.919712 0
M  V30 14390 H 1380.07 1.07404 4.03138 0
M  V30 14391 H 1378.7 0.275243 3.21624 0
M  V30 14392 H 1377.75 2.64638 2.7326 0
M  V30 14393 H 1379.06 3.3091 3.73229 0
M  V30 14394 H 1378.22 2.03682 5.71488 0
M  V30 14395 H 1376.96 1.26966 4.70883 0
M  V30 14396 H 1375.96 3.52241 4.22145 0
M  V30 14397 H 1377.19 4.29317 5.26178 0
M  V30 14398 H 1375.13 2.23937 6.16594 0
M  V30 14399 H 1375.05 3.94746 6.44757 0
M  V30 14400 H 1376.32 3.01663 7.18763 0
M  V30 14401 N 1380.55 -0.980364 1.23396 0
M  V30 14402 C 1381.48 -2.0908 1.0396 0
M  V30 14403 C 1382.46 -1.70044 -0.0434946 0
M  V30 14404 O 1383.64 -1.93822 0.121155 0
M  V30 14405 C 1380.77 -3.41537 0.630061 0
M  V30 14406 C 1379.73 -3.94476 1.66051 0
M  V30 14407 C 1379.05 -5.23128 1.10641 0
M  V30 14408 C 1380.35 -4.23741 3.05354 0
M  V30 14409 H 1382.05 -2.25598 1.9684 0
M  V30 14410 H 1379.59 -1.08409 0.94781 0
M  V30 14411 H 1381.54 -4.18644 0.481145 0
M  V30 14412 H 1380.27 -3.24883 -0.334416 0
M  V30 14413 H 1378.93 -3.19513 1.79742 0
M  V30 14414 H 1378.58 -5.02824 0.132913 0
M  V30 14415 H 1378.28 -5.59515 1.79492 0
M  V30 14416 H 1379.8 -6.02857 0.969344 0
M  V30 14417 H 1381.21 -4.91598 2.94964 0
M  V30 14418 H 1379.61 -4.71329 3.71442 0
M  V30 14419 H 1380.68 -3.31012 3.54343 0
M  V30 14420 N 1382.02 -1.04567 -1.17913 0
M  V30 14421 C 1383.27 -0.747179 -1.8735 0
M  V30 14422 C 1383.59 0.728274 -1.81537 0
M  V30 14423 O 1384.79 1.14048 -2.46385 0
M  V30 14424 C 1383.25 -1.28629 -3.36129 0
M  V30 14425 C 1382.86 -2.79073 -3.5046 0
M  V30 14426 C 1384.6 -1.06455 -4.10935 0
M  V30 14427 C 1382.51 -3.26316 -4.93226 0
M  V30 14428 H 1381.44 -0.275807 -0.701745 0
M  V30 14429 H 1384.09 -1.26215 -1.33199 0
M  V30 14430 H 1382.47 -0.699151 -3.89779 0
M  V30 14431 H 1383.64 -3.43587 -3.07057 0
M  V30 14432 H 1381.96 -2.99716 -2.89066 0
M  V30 14433 H 1384.56 -1.3926 -5.16247 0
M  V30 14434 H 1384.9 -0.00201298 -4.163 0
M  V30 14435 H 1385.43 -1.61656 -3.63472 0
M  V30 14436 H 1382.17 -4.31972 -4.93032 0
M  V30 14437 H 1381.69 -2.6654 -5.37323 0
M  V30 14438 H 1383.37 -3.2063 -5.61966 0
M  V30 14439 N 1383.5 1.34231 -0.825823 0
M  V30 14440 C 1384.92 1.51166 -0.511945 0
M  V30 14441 C 1385.12 1.76981 0.963318 0
M  V30 14442 O 1384.17 1.82243 1.74767 0
M  V30 14443 C 1385.49 2.67474 -1.37399 0
M  V30 14444 C 1387.03 2.81356 -1.37141 0
M  V30 14445 C 1387.51 4.0071 -2.218 0
M  V30 14446 N 1389 4.07922 -2.19439 0
M  V30 14447 C 1389.74 4.99438 -2.81691 0
M  V30 14448 N 1389.23 5.96157 -3.52944 0
M  V30 14449 N 1391.02 4.92332 -2.7123 0
M  V30 14450 H 1383.18 1.15734 -1.78099 0
M  V30 14451 H 1385.44 0.567856 -0.759107 0
M  V30 14452 H 1385.14 2.55036 -2.42176 0
M  V30 14453 H 1385.02 3.62558 -1.04075 0
M  V30 14454 H 1387.41 2.93233 -0.331405 0
M  V30 14455 H 1387.49 1.87072 -1.74464 0
M  V30 14456 H 1387.13 3.89593 -3.25852 0
M  V30 14457 H 1387.06 4.94213 -1.81826 0
M  V30 14458 H 1389.55 3.38695 -1.67612 0
M  V30 14459 H 1389.86 6.62623 -3.97682 0
M  V30 14460 H 1388.21 5.96272 -3.5705 0
M  V30 14461 H 1391.4 4.15733 -2.15137 0
M  V30 14462 H 1391.57 5.63458 -3.20031 0
M  V30 14463 N 1384.98 0.581051 1.46498 0
M  V30 14464 C 1385.93 -0.165944 2.32007 0
M  V30 14465 C 1386.92 -0.886015 1.44382 0
M  V30 14466 O 1388.13 -0.804592 1.61017 0
M  V30 14467 H 1384.5 -0.0723834 0.748508 0
M  V30 14468 H 1386.47 0.574089 2.92826 0
M  V30 14469 C 1385.22 -1.16741 3.27516 0
M  V30 14470 H 1384.55 -0.622756 3.9492 0
M  V30 14471 H 1385.99 -1.66052 3.90132 0
M  V30 14472 C 1384.44 -2.22755 2.52749 0
M  V30 14473 O 1384.97 -3.30081 2.28932 0
M  V30 14474 N 1383.18 -1.97318 2.1334 0
M  V30 14475 H 1382.73 -1.10049 2.3291 0
M  V30 14476 H 1382.69 -2.68461 1.63633 0
M  V30 14477 N 1386.46 -1.54343 0.318742 0
M  V30 14478 C 1387.87 -1.85922 -0.170309 0
M  V30 14479 C 1388.22 -1.24047 -1.52009 0
M  V30 14480 O 1387.34 -0.544705 -2.09432 0
M  V30 14481 C 1387.94 -3.37325 -0.315802 0
M  V30 14482 C 1386.5 -3.68871 -0.749073 0
M  V30 14483 C 1385.65 -2.76985 0.13209 0
M  V30 14484 H 1388.6 -1.4926 0.539185 0
M  V30 14485 H 1388.62 -3.62784 -1.14751 0
M  V30 14486 H 1388.13 -3.8233 0.66674 0
M  V30 14487 H 1386.23 -3.29396 -1.74153 0
M  V30 14488 H 1386.34 -4.75861 -0.556164 0
M  V30 14489 H 1384.71 -2.51672 -0.391564 0
M  V30 14490 H 1385.49 -3.24815 1.11131 0
M  V30 14491 N 1387.94 -0.0468143 -1.5753 0
M  V30 14492 C 1389.16 0.641161 -1.97241 0
M  V30 14493 C 1389.59 1.6384 -0.92401 0
M  V30 14494 O 1388.94 1.80946 0.113229 0
M  V30 14495 C 1388.99 1.30832 -3.36029 0
M  V30 14496 O 1388.1 2.42394 -3.33645 0
M  V30 14497 H 1387.44 0.167035 -0.642647 0
M  V30 14498 H 1389.97 -0.113921 -2.04283 0
M  V30 14499 H 1389.98 1.66102 -3.72658 0
M  V30 14500 H 1388.65 0.57744 -4.11872 0
M  V30 14501 H 1387.23 2.09104 -3.08756 0
M  V30 14502 N 1389.41 1.55964 0.226527 0
M  V30 14503 C 1390.64 1.83168 0.972846 0
M  V30 14504 C 1391.06 0.626512 1.7736 0
M  V30 14505 O 1390.42 -0.42468 1.76256 0
M  V30 14506 C 1390.47 3.08315 1.87014 0
M  V30 14507 O 1389.57 2.8666 2.96479 0
M  V30 14508 H 1388.92 0.604041 0.275736 0
M  V30 14509 H 1391.45 2.03172 0.241345 0
M  V30 14510 H 1391.46 3.38288 2.28091 0
M  V30 14511 H 1390.13 3.95663 1.28154 0
M  V30 14512 H 1388.71 2.67907 2.59384 0
M  V30 14513 N 1390.89 -0.493031 1.4969 0
M  V30 14514 C 1391.82 -1.60215 1.69863 0
M  V30 14515 C 1392.8 -1.61053 0.547362 0
M  V30 14516 O 1393.99 -1.77667 0.784093 0
M  V30 14517 C 1391.12 -2.98662 1.77252 0
M  V30 14518 C 1390.07 -3.1269 2.92248 0
M  V30 14519 C 1389.4 -4.52567 2.84758 0
M  V30 14520 C 1390.7 -2.91965 4.33074 0
M  V30 14521 H 1392.39 -1.43587 2.62723 0
M  V30 14522 H 1389.94 -0.689334 1.26429 0
M  V30 14523 H 1391.89 -3.7616 1.89951 0
M  V30 14524 H 1390.62 -3.16397 0.809976 0
M  V30 14525 H 1389.27 -2.37619 2.79164 0
M  V30 14526 H 1388.92 -4.6719 1.86394 0
M  V30 14527 H 1388.62 -4.62893 3.61944 0
M  V30 14528 H 1390.15 -5.32116 2.99475 0
M  V30 14529 H 1391.56 -3.59228 4.46798 0
M  V30 14530 H 1389.96 -3.13756 5.11544 0
M  V30 14531 H 1391.03 -1.88015 4.46966 0
M  V30 14532 N 1392.37 -1.38898 -0.744656 0
M  V30 14533 C 1393.32 -1.36845 -1.85855 0
M  V30 14534 C 1394.29 -0.2296 -1.64505 0
M  V30 14535 O 1395.47 -0.423221 -1.86047 0
M  V30 14536 C 1392.61 -1.20818 -3.2326 0
M  V30 14537 C 1391.73 -2.44166 -3.5638 0
M  V30 14538 C 1390.86 -2.20801 -4.83136 0
M  V30 14539 C 1389.9 -3.39874 -5.0907 0
M  V30 14540 N 1389.04 -3.15888 -6.27024 0
M  V30 14541 H 1393.88 -2.32068 -1.86945 0
M  V30 14542 H 1391.41 -1.15289 -0.913611 0
M  V30 14543 H 1393.37 -1.0954 -4.02563 0
M  V30 14544 H 1392 -0.292295 -3.21474 0
M  V30 14545 H 1391.05 -2.66083 -2.71852 0
M  V30 14546 H 1392.37 -3.32885 -3.71469 0
M  V30 14547 H 1391.52 -2.0671 -5.704 0
M  V30 14548 H 1390.26 -1.29462 -4.70203 0
M  V30 14549 H 1389.26 -3.54474 -4.20271 0
M  V30 14550 H 1390.49 -4.32102 -5.23894 0
M  V30 14551 H 1388.43 -2.27204 -6.15398 0
M  V30 14552 H 1388.35 -3.9816 -6.42655 0
M  V30 14553 H 1389.62 -3.0547 -7.17153 0
M  V30 14554 N 1393.85 0.973806 -1.23914 0
M  V30 14555 C 1395.08 1.75107 -1.10206 0
M  V30 14556 C 1395.49 1.85604 0.345935 0
M  V30 14557 O 1394.85 1.33996 1.239 0
M  V30 14558 C 1394.9 3.17466 -1.72909 0
M  V30 14559 O 1394.62 3.07504 -3.12047 0
M  V30 14560 C 1396.12 4.11557 -1.6473 0
M  V30 14561 H 1393.34 0.549318 -0.385345 0
M  V30 14562 H 1395.89 1.22301 -1.63898 0
M  V30 14563 H 1394.04 3.67277 -1.23234 0
M  V30 14564 H 1394.45 3.97169 -3.42575 0
M  V30 14565 H 1395.93 5.09126 -2.13295 0
M  V30 14566 H 1396.41 4.3498 -0.607352 0
M  V30 14567 H 1397.01 3.67653 -2.13802 0
M  V30 14568 N 1395.33 1.05191 1.17357 0
M  V30 14569 C 1396.26 0.673931 2.23563 0
M  V30 14570 C 1397.24 -0.328284 1.66902 0
M  V30 14571 O 1398.42 -0.205878 1.93106 0
M  V30 14572 C 1395.55 0.0478801 3.47267 0
M  V30 14573 C 1394.51 0.974855 4.1675 0
M  V30 14574 C 1393.83 0.212684 5.34277 0
M  V30 14575 C 1395.13 2.299 4.68981 0
M  V30 14576 H 1396.83 1.56183 2.55436 0
M  V30 14577 H 1394.37 0.752408 1.2278 0
M  V30 14578 H 1396.33 -0.228343 4.20781 0
M  V30 14579 H 1395.05 -0.874963 3.14662 0
M  V30 14580 H 1393.71 1.23564 3.45148 0
M  V30 14581 H 1393.36 -0.712924 4.97922 0
M  V30 14582 H 1393.06 0.830351 5.81703 0
M  V30 14583 H 1394.58 -0.056255 6.10574 0
M  V30 14584 H 1395.99 2.08269 5.34132 0
M  V30 14585 H 1394.39 2.87064 5.26986 0
M  V30 14586 H 1395.46 2.93759 3.8579 0
M  V30 14587 N 1396.8 -1.33791 0.83293 0
M  V30 14588 C 1398.05 -1.98266 0.426412 0
M  V30 14589 C 1398.38 -1.65848 -1.01035 0
M  V30 14590 O 1397.66 -0.93528 -1.70537 0
M  V30 14591 C 1397.94 -3.54356 0.640586 0
M  V30 14592 C 1397.79 -3.96482 2.12419 0
M  V30 14593 C 1399.11 -4.40022 0.0829237 0
M  V30 14594 H 1396.23 -0.720213 0.156404 0
M  V30 14595 H 1398.87 -1.58527 1.04735 0
M  V30 14596 H 1397.02 -3.88338 0.11204 0
M  V30 14597 H 1398.7 -3.72786 2.71714 0
M  V30 14598 H 1396.94 -3.46429 2.61092 0
M  V30 14599 H 1397.61 -5.05179 2.22482 0
M  V30 14600 H 1400.09 -4.12651 0.534634 0
M  V30 14601 H 1398.96 -5.48272 0.262511 0
M  V30 14602 H 1399.22 -4.30341 -1.01287 0
M  V30 14603 N 1398.28 -0.588812 -1.46187 0
M  V30 14604 C 1399.23 0.153638 -2.32092 0
M  V30 14605 C 1400.22 0.878346 -1.4485 0
M  V30 14606 O 1401.43 0.796042 -1.61441 0
M  V30 14607 H 1397.81 0.0684129 -0.748882 0
M  V30 14608 H 1399.78 -0.58961 -2.92517 0
M  V30 14609 C 1398.53 1.15003 -3.28131 0
M  V30 14610 H 1397.85 0.601804 -3.95245 0
M  V30 14611 H 1399.29 1.6398 -3.91007 0
M  V30 14612 C 1397.75 2.21411 -2.53926 0
M  V30 14613 O 1398.28 3.28862 -2.30679 0
M  V30 14614 N 1396.48 1.96184 -2.14383 0
M  V30 14615 H 1396.03 1.08812 -2.3349 0
M  V30 14616 H 1395.99 2.6759 -1.65055 0
M  V30 14617 N 1399.76 1.54172 -0.326923 0
M  V30 14618 C 1400.72 2.2311 0.524855 0
M  V30 14619 C 1401.72 1.22567 1.04087 0
M  V30 14620 O 1402.91 1.47123 0.932759 0
M  V30 14621 C 1400.05 2.93778 1.72937 0
M  V30 14622 H 1401.24 2.99799 -0.0778327 0
M  V30 14623 H 1398.79 1.56105 -0.0780484 0
M  V30 14624 H 1399.53 2.21234 2.3712 0
M  V30 14625 H 1399.31 3.67509 1.36674 0
M  V30 14626 H 1400.8 3.46292 2.33392 0
M  V30 14627 N 1401.24 0.0551678 1.57503 0
M  V30 14628 C 1402.46 -0.630692 1.97578 0
M  V30 14629 C 1402.89 -1.63348 0.932686 0
M  V30 14630 O 1402.25 -1.81004 -0.103632 0
M  V30 14631 C 1402.29 -1.29049 3.36718 0
M  V30 14632 O 1401.4 -2.40621 3.34926 0
M  V30 14633 H 1400.74 -0.163625 0.643524 0
M  V30 14634 H 1403.27 0.124753 2.04219 0
M  V30 14635 H 1403.28 -1.64124 3.73534 0
M  V30 14636 H 1401.95 -0.55559 4.12172 0
M  V30 14637 H 1400.53 -2.07463 3.0986 0
M  V30 14638 N 1402.72 -1.56081 -0.218252 0
M  V30 14639 C 1403.96 -1.81024 -0.949188 0
M  V30 14640 C 1404.32 -0.629178 -1.81398 0
M  V30 14641 O 1405.52 -0.757982 -2.57892 0
M  V30 14642 C 1403.79 -3.10878 -1.76322 0
M  V30 14643 S 1405.35 -3.57147 -2.54934 0
M  V30 14644 H 1402.17 -0.635529 -0.318785 0
M  V30 14645 H 1404.77 -1.9432 -0.214484 0
M  V30 14646 H 1403.48 -3.94875 -1.11811 0
M  V30 14647 H 1403.01 -3.00399 -2.54016 0
M  V30 14648 H 1405.02 -3.20747 -3.78597 0
M  V30 14649 N 1404.2 0.485086 -1.49949 0
M  V30 14650 C 1405.61 0.817651 -1.37064 0
M  V30 14651 C 1405.81 1.9716 -0.415949 0
M  V30 14652 O 1404.87 2.52074 0.146567 0
M  V30 14653 C 1406.18 1.14288 -2.78134 0
M  V30 14654 C 1407.73 1.25016 -2.8695 0
M  V30 14655 C 1408.2 1.60859 -4.28822 0
M  V30 14656 N 1409.69 1.67878 -4.31707 0
M  V30 14657 C 1410.43 1.97089 -5.38464 0
M  V30 14658 N 1409.93 2.24415 -6.55446 0
M  V30 14659 N 1411.72 1.98474 -5.25894 0
M  V30 14660 H 1403.87 -0.275606 -2.10604 0
M  V30 14661 H 1406.13 -0.0607486 -0.946052 0
M  V30 14662 H 1405.84 0.36817 -3.49768 0
M  V30 14663 H 1405.71 2.0825 -3.14502 0
M  V30 14664 H 1408.1 2.01556 -2.15544 0
M  V30 14665 H 1408.18 0.290664 -2.54143 0
M  V30 14666 H 1407.82 0.848639 -5.0076 0
M  V30 14667 H 1407.75 2.57936 -4.59104 0
M  V30 14668 H 1410.25 1.48856 -3.47347 0
M  V30 14669 H 1410.56 2.45938 -7.32622 0
M  V30 14670 H 1408.9 2.21837 -6.58645 0
M  V30 14671 H 1412.09 1.76612 -4.33504 0
M  V30 14672 H 1412.27 2.20904 -6.09184 0
M  V30 14673 N 1405.67 1.39291 0.737279 0
M  V30 14674 C 1406.92 1.36592 1.49901 0
M  V30 14675 C 1407.25 -0.0388812 1.94161 0
M  V30 14676 O 1406.53 -1.00337 1.66622 0
M  V30 14677 C 1406.81 2.33625 2.74028 0
M  V30 14678 C 1406.66 3.83037 2.35802 0
M  V30 14679 C 1407.98 2.28524 3.76118 0
M  V30 14680 H 1405.1 0.497482 0.543765 0
M  V30 14681 H 1407.74 1.70265 0.843193 0
M  V30 14682 H 1405.89 2.0504 3.29986 0
M  V30 14683 H 1407.57 4.22363 1.85493 0
M  V30 14684 H 1405.81 3.99924 1.68058 0
M  V30 14685 H 1406.48 4.46415 3.24681 0
M  V30 14686 H 1408.96 2.53794 3.29739 0
M  V30 14687 H 1407.83 2.98501 4.60639 0
M  V30 14688 H 1408.09 1.28949 4.22876 0
M  V30 14689 N 1407.15 -0.967221 1.24429 0
M  V30 14690 C 1408.38 -1.75053 1.11226 0
M  V30 14691 C 1408.8 -1.85162 -0.331139 0
M  V30 14692 O 1408.16 -1.32288 -1.23974 0
M  V30 14693 C 1408.21 -3.14882 1.75733 0
M  V30 14694 O 1407.31 -3.99371 1.02842 0
M  V30 14695 H 1406.65 -0.538078 0.389061 0
M  V30 14696 H 1409.18 -1.21325 1.64746 0
M  V30 14697 H 1409.19 -3.65402 1.81509 0
M  V30 14698 H 1407.87 -3.06839 2.80754 0
M  V30 14699 H 1406.44 -3.57854 1.04856 0
M  V30 14700 N 1408.63 -1.05812 -1.16797 0
M  V30 14701 C 1409.58 -0.658636 -2.2308 0
M  V30 14702 C 1410.57 0.323104 -1.6629 0
M  V30 14703 O 1411.78 0.188492 -1.7901 0
M  V30 14704 H 1408.15 -0.194843 -0.72632 0
M  V30 14705 H 1410.12 -1.56501 -2.54067 0
M  V30 14706 C 1408.87 -0.0559428 -3.47655 0
M  V30 14707 H 1408.2 -0.802468 -3.91664 0
M  V30 14708 H 1409.64 0.186118 -4.23591 0
M  V30 14709 C 1408.09 1.19913 -3.14837 0
M  V30 14710 O 1408.62 2.28772 -3.30191 0
M  V30 14711 N 1406.83 1.09921 -2.69009 0
M  V30 14712 H 1406.38 0.213331 -2.56715 0
M  V30 14713 H 1406.34 1.93981 -2.47424 0
M  V30 14714 N 1410.11 1.33347 -0.840014 0
M  V30 14715 C 1411.04 2.31703 -0.289138 0
M  V30 14716 C 1412.02 1.59024 0.603759 0
M  V30 14717 O 1413.2 1.86911 0.527071 0
M  V30 14718 C 1410.33 3.43144 0.53566 0
M  V30 14719 C 1409.29 4.272 -0.261544 0
M  V30 14720 C 1408.61 5.30267 0.687075 0
M  V30 14721 C 1409.91 5.00915 -1.47924 0
M  V30 14722 H 1411.61 2.78026 -1.11094 0
M  V30 14723 H 1409.15 1.33666 -0.535658 0
M  V30 14724 H 1411.11 4.10979 0.931351 0
M  V30 14725 H 1409.83 2.95512 1.39069 0
M  V30 14726 H 1408.49 3.60991 -0.638809 0
M  V30 14727 H 1408.14 4.78893 1.53853 0
M  V30 14728 H 1407.84 5.87388 0.157773 0
M  V30 14729 H 1409.36 6.00968 1.08026 0
M  V30 14730 H 1410.78 5.61511 -1.15664 0
M  V30 14731 H 1409.17 5.67692 -1.94541 0
M  V30 14732 H 1410.24 4.29622 -2.24839 0
M  V30 14733 N 1411.59 0.596556 1.45873 0
M  V30 14734 C 1412.52 -0.116229 2.33211 0
M  V30 14735 C 1413.5 -0.869868 1.46176 0
M  V30 14736 O 1414.68 -0.842599 1.74968 0
M  V30 14737 C 1411.81 -1.12145 3.28696 0
M  V30 14738 C 1410.77 -0.481749 4.2528 0
M  V30 14739 C 1410.09 -1.59443 5.10374 0
M  V30 14740 C 1411.39 0.589996 5.18957 0
M  V30 14741 H 1413.09 0.613005 2.93057 0
M  V30 14742 H 1410.63 0.296242 1.4092 0
M  V30 14743 H 1412.58 -1.62857 3.88659 0
M  V30 14744 H 1411.31 -1.88114 2.66985 0
M  V30 14745 H 1409.97 0.0044092 3.666 0
M  V30 14746 H 1409.62 -2.34413 4.45039 0
M  V30 14747 H 1409.32 -1.17197 5.75794 0
M  V30 14748 H 1410.84 -2.10404 5.73204 0
M  V30 14749 H 1412.25 0.167395 5.73056 0
M  V30 14750 H 1410.65 0.933565 5.92794 0
M  V30 14751 H 1411.72 1.47093 4.62052 0
M  V30 14752 N 1413.06 -1.53996 0.335095 0
M  V30 14753 C 1414.03 -2.23385 -0.513015 0
M  V30 14754 C 1415.03 -1.23117 -1.03435 0
M  V30 14755 O 1416.22 -1.47616 -0.924944 0
M  V30 14756 C 1413.35 -2.94691 -1.71377 0
M  V30 14757 H 1414.54 -2.99753 0.0937306 0
M  V30 14758 H 1412.09 -1.56061 0.086326 0
M  V30 14759 H 1412.83 -2.22488 -2.35944 0
M  V30 14760 H 1412.61 -3.68228 -1.34723 0
M  V30 14761 H 1414.1 -3.47525 -2.31552 0
M  V30 14762 N 1414.54 -0.0635198 -1.57472 0
M  V30 14763 C 1415.45 0.921531 -2.15743 0
M  V30 14764 C 1416.47 1.33294 -1.11842 0
M  V30 14765 O 1417.64 1.40733 -1.4407 0
M  V30 14766 C 1414.71 2.17378 -2.70088 0
M  V30 14767 C 1413.77 1.81956 -3.88832 0
M  V30 14768 C 1413 3.01211 -4.40577 0
M  V30 14769 O 1413.23 4.14971 -3.9135 0
M  V30 14770 O 1412.16 2.81507 -5.32012 0
M  V30 14771 H 1415.99 0.455899 -3.00259 0
M  V30 14772 H 1413.57 0.159085 -1.48551 0
M  V30 14773 H 1415.45 2.90826 -3.04956 0
M  V30 14774 H 1414.13 2.63055 -1.88637 0
M  V30 14775 H 1413.03 1.05786 -3.58832 0
M  V30 14776 H 1414.37 1.41069 -4.71551 0
M  V30 14777 N 1416.02 1.56195 0.209972 0
M  V30 14778 C 1416.97 1.89755 1.26401 0
M  V30 14779 C 1417.95 0.761731 1.41727 0
M  V30 14780 O 1419.15 1.02435 1.44347 0
M  V30 14781 C 1416.27 2.22775 2.61201 0
M  V30 14782 C 1415.36 3.42777 2.49729 0
M  V30 14783 N 1415.75 4.61089 2.0792 0
M  V30 14784 C 1414.05 3.46621 2.8066 0
M  V30 14785 C 1414.75 5.43249 2.07979 0
M  V30 14786 N 1413.73 4.83263 2.48913 0
M  V30 14787 H 1417.53 2.78736 0.93184 0
M  V30 14788 H 1415.04 1.56915 0.418485 0
M  V30 14789 H 1417.04 2.44997 3.37316 0
M  V30 14790 H 1415.7 1.35112 2.95254 0
M  V30 14791 H 1416.71 4.86033 1.78865 0
M  V30 14792 H 1413.39 2.69334 3.19007 0
M  V30 14793 H 1414.78 6.47981 1.77681 0
M  V30 14794 N 1417.5 -0.477127 1.50204 0
M  V30 14795 C 1418.72 -1.25775 1.6491 0
M  V30 14796 C 1419.15 -1.85187 0.329765 0
M  V30 14797 O 1418.51 -1.67004 -0.705641 0
M  V30 14798 C 1418.55 -2.3466 2.73801 0
M  V30 14799 O 1417.66 -3.39147 2.34634 0
M  V30 14800 H 1417 -0.370291 0.551163 0
M  V30 14801 H 1419.53 -0.568514 1.96543 0
M  V30 14802 H 1419.54 -2.80065 2.96695 0
M  V30 14803 H 1418.21 -1.90788 3.69557 0
M  V30 14804 H 1416.79 -2.99496 2.22163 0
M  V30 14805 N 1418.98 -1.3968 -0.729882 0
M  V30 14806 C 1420.39 -1.33184 -1.30839 0
M  V30 14807 C 1420.74 0.00141129 -1.962 0
M  V30 14808 O 1419.86 0.903523 -1.96635 0
M  V30 14809 C 1420.46 -2.41211 -2.37913 0
M  V30 14810 C 1419.02 -2.3822 -2.91424 0
M  V30 14811 C 1418.16 -2.22832 -1.65049 0
M  V30 14812 H 1421.12 -1.49694 -0.527023 0
M  V30 14813 H 1421.14 -2.08294 -3.18424 0
M  V30 14814 H 1420.65 -3.38234 -1.90313 0
M  V30 14815 H 1418.75 -1.4485 -3.43292 0
M  V30 14816 H 1418.86 -3.33271 -3.44191 0
M  V30 14817 H 1417.23 -1.70095 -1.89578 0
M  V30 14818 H 1418.01 -3.21832 -1.19494 0
M  V30 14819 N 1420.45 0.960609 -1.2494 0
M  V30 14820 C 1421.38 2.074 -1.07274 0
M  V30 14821 C 1422.37 1.70092 0.0164365 0
M  V30 14822 O 1423.55 1.93604 -0.151975 0
M  V30 14823 C 1420.68 3.40491 -0.684317 0
M  V30 14824 C 1419.63 3.91784 -1.72306 0
M  V30 14825 C 1418.96 5.21301 -1.18949 0
M  V30 14826 C 1420.26 4.18829 -3.12056 0
M  V30 14827 H 1421.95 2.22438 -2.00404 0
M  V30 14828 H 1419.5 1.06888 -0.964937 0
M  V30 14829 H 1421.45 4.17826 -0.547686 0
M  V30 14830 H 1420.18 3.25374 0.282687 0
M  V30 14831 H 1418.84 3.16613 -1.84802 0
M  V30 14832 H 1418.48 5.02549 -0.212892 0
M  V30 14833 H 1418.18 5.56588 -1.8837 0
M  V30 14834 H 1419.71 6.01238 -1.06513 0
M  V30 14835 H 1421.12 4.86844 -3.02748 0
M  V30 14836 H 1419.52 4.6536 -3.78894 0
M  V30 14837 H 1420.59 3.25333 -3.59564 0
M  V30 14838 N 1421.93 1.0643 1.16234 0
M  V30 14839 C 1423.18 0.780296 1.86429 0
M  V30 14840 C 1423.5 -0.695335 1.82181 0
M  V30 14841 O 1422.77 -1.50312 1.2563 0
M  V30 14842 H 1421.35 0.285654 0.690225 0
M  V30 14843 H 1424.01 1.34609 1.40949 0
M  V30 14844 H 1423.11 1.10644 2.91829 0
M  V30 14845 N 1423.41 -1.329 0.847073 0
M  V30 14846 C 1424.64 -2.02244 0.459588 0
M  V30 14847 C 1425.06 -1.63279 -0.933897 0
M  V30 14848 O 1424.42 -0.829551 -1.61208 0
M  V30 14849 C 1424.47 -3.55616 0.59745 0
M  V30 14850 O 1423.57 -4.1071 -0.372919 0
M  V30 14851 H 1422.91 -0.637504 0.1857 0
M  V30 14852 H 1425.44 -1.69617 1.14417 0
M  V30 14853 H 1425.45 -4.05141 0.482145 0
M  V30 14854 H 1424.13 -3.8332 1.61365 0
M  V30 14855 H 1422.7 -3.72283 -0.214487 0
M  V30 14856 N 1424.89 -0.604284 -1.45555 0
M  V30 14857 C 1426.14 -0.0979922 -2.01862 0
M  V30 14858 C 1426.46 1.27476 -1.47563 0
M  V30 14859 O 1425.73 1.84137 -0.668612 0
M  V30 14860 H 1424.31 -0.033235 -0.74626 0
M  V30 14861 H 1426.97 -0.784936 -1.78395 0
M  V30 14862 H 1426.07 -0.0452716 -3.12067 0
M  V30 14863 N 1426.37 1.53816 -0.343257 0
M  V30 14864 C 1427.33 2.23654 0.501161 0
M  V30 14865 C 1428.33 1.23664 1.02781 0
M  V30 14866 O 1429.52 1.48104 0.917103 0
M  V30 14867 C 1426.65 2.95596 1.69812 0
M  V30 14868 H 1427.84 2.997 -0.109626 0
M  V30 14869 H 1425.4 1.56013 -0.0946011 0
M  V30 14870 H 1426.13 2.23736 2.34761 0
M  V30 14871 H 1425.92 3.68938 1.32768 0
M  V30 14872 H 1427.41 3.48748 2.29706 0
M  V30 14873 N 1427.84 0.0718701 1.57436 0
M  V30 14874 C 1429.07 -0.605374 1.97532 0
M  V30 14875 C 1429.48 -1.6368 0.948974 0
M  V30 14876 O 1428.83 -1.83556 -0.0726987 0
M  V30 14877 C 1428.89 -1.33139 3.33937 0
M  V30 14878 C 1428.55 -0.453426 4.54745 0
M  V30 14879 C 1429.55 0.289012 5.19096 0
M  V30 14880 C 1427.23 -0.378282 5.00874 0
M  V30 14881 C 1429.23 1.09482 6.27927 0
M  V30 14882 C 1426.91 0.431192 6.09577 0
M  V30 14883 C 1427.91 1.16641 6.72966 0
M  V30 14884 O 1427.6 1.96253 7.79577 0
M  V30 14885 H 1427.33 -0.168804 0.654585 0
M  V30 14886 H 1429.89 0.140832 2.04917 0
M  V30 14887 H 1428.12 -2.12367 3.23167 0
M  V30 14888 H 1429.81 -1.90089 3.58638 0
M  V30 14889 H 1430.57 0.240552 4.84403 0
M  V30 14890 H 1426.45 -0.940166 4.51311 0
M  V30 14891 H 1429.99 1.66918 6.77336 0
M  V30 14892 H 1425.89 0.481217 6.43704 0
M  V30 14893 H 1426.66 1.88686 7.96455 0
M  V30 14894 N 1429.32 -1.56304 -0.201686 0
M  V30 14895 C 1430.74 -1.49741 -0.552247 0
M  V30 14896 C 1430.94 -0.770683 -1.86179 0
M  V30 14897 O 1429.99 -0.318489 -2.50483 0
M  V30 14898 C 1431.31 -2.94384 -0.613083 0
M  V30 14899 C 1432.86 -3.05018 -0.702365 0
M  V30 14900 C 1433.33 -4.51058 -0.794371 0
M  V30 14901 N 1434.82 -4.55183 -0.858072 0
M  V30 14902 C 1435.56 -5.65487 -0.949317 0
M  V30 14903 N 1435.05 -6.85497 -1.00327 0
M  V30 14904 N 1436.85 -5.53385 -0.985995 0
M  V30 14905 H 1429 -2.01971 0.657394 0
M  V30 14906 H 1431.26 -0.918839 0.233322 0
M  V30 14907 H 1430.97 -3.50584 0.279921 0
M  V30 14908 H 1430.84 -3.47376 -1.47002 0
M  V30 14909 H 1433.23 -2.4887 -1.5858 0
M  V30 14910 H 1433.31 -2.55161 0.180636 0
M  V30 14911 H 1432.95 -5.07829 0.0846883 0
M  V30 14912 H 1432.88 -4.98641 -1.69308 0
M  V30 14913 H 1435.37 -3.68765 -0.825888 0
M  V30 14914 H 1435.69 -7.65312 -1.07322 0
M  V30 14915 H 1434.03 -6.88169 -0.972061 0
M  V30 14916 H 1437.22 -4.58552 -0.940635 0
M  V30 14917 H 1437.39 -6.39376 -1.05365 0
M  V30 14918 N 1430.8 0.469154 -1.50455 0
M  V30 14919 C 1432.03 1.24899 -1.65575 0
M  V30 14920 C 1432.45 1.85009 -0.339581 0
M  V30 14921 O 1431.81 1.67376 0.696774 0
M  V30 14922 C 1431.86 2.33205 -2.75041 0
M  V30 14923 O 1430.96 3.37898 -2.36429 0
M  V30 14924 H 1430.3 0.367362 -0.553119 0
M  V30 14925 H 1432.83 0.558083 -1.96842 0
M  V30 14926 H 1432.84 2.78487 -2.98176 0
M  V30 14927 H 1431.52 1.88826 -3.70564 0
M  V30 14928 H 1430.09 2.98314 -2.23748 0
M  V30 14929 N 1432.28 1.40065 0.722464 0
M  V30 14930 C 1433.52 1.38175 1.48444 0
M  V30 14931 C 1433.86 -0.0182857 1.94191 0
M  V30 14932 O 1433.13 -0.985638 1.67677 0
M  V30 14933 C 1433.42 2.36518 2.71535 0
M  V30 14934 C 1433.27 3.85517 2.31726 0
M  V30 14935 C 1434.59 2.325 3.73673 0
M  V30 14936 H 1431.71 0.503221 0.538458 0
M  V30 14937 H 1434.35 1.7115 0.825087 0
M  V30 14938 H 1432.5 2.08529 3.27793 0
M  V30 14939 H 1434.17 4.24306 1.81003 0
M  V30 14940 H 1432.41 4.01684 1.63807 0
M  V30 14941 H 1433.08 4.49834 3.19928 0
M  V30 14942 H 1435.56 2.57277 3.27029 0
M  V30 14943 H 1434.44 3.03369 4.57447 0
M  V30 14944 H 1434.7 1.33427 4.21485 0
M  V30 14945 N 1433.76 -0.95397 1.25448 0
M  V30 14946 C 1435.01 -1.6953 1.10018 0
M  V30 14947 C 1435.33 -1.9166 -0.359385 0
M  V30 14948 O 1434.6 -1.50417 -1.25506 0
M  V30 14949 H 1433.18 -0.628238 0.404136 0
M  V30 14950 H 1435.84 -1.14691 1.57581 0
M  V30 14951 H 1434.93 -2.67427 1.60901 0
M  V30 14952 N 1435.24 -1.07045 -1.15668 0
M  V30 14953 C 1436.15 -0.699332 -2.23934 0
M  V30 14954 C 1437.16 0.288036 -1.71599 0
M  V30 14955 O 1438.34 0.135447 -2.00944 0
M  V30 14956 C 1435.4 -0.0994775 -3.46557 0
M  V30 14957 C 1434.46 -1.13968 -4.13896 0
M  V30 14958 C 1433.7 -0.56836 -5.30665 0
M  V30 14959 O 1433.92 0.616556 -5.67058 0
M  V30 14960 O 1432.85 -1.31174 -5.87432 0
M  V30 14961 H 1436.68 -1.60212 -2.58003 0
M  V30 14962 H 1434.26 -0.843202 -1.23331 0
M  V30 14963 H 1436.15 0.23293 -4.20756 0
M  V30 14964 H 1434.82 0.776684 -3.14244 0
M  V30 14965 H 1433.73 -1.5244 -3.41633 0
M  V30 14966 H 1435.06 -1.98764 -4.50282 0
M  V30 14967 N 1436.71 1.32449 -0.85411 0
M  V30 14968 C 1437.96 1.97962 -0.467177 0
M  V30 14969 C 1438.31 1.66368 0.966409 0
M  V30 14970 O 1437.61 0.941277 1.66885 0
M  V30 14971 C 1437.8 3.51577 -0.642499 0
M  V30 14972 C 1437.63 3.98099 -2.09158 0
M  V30 14973 C 1436.4 4.25207 -2.72996 0
M  V30 14974 C 1438.6 4.13207 -3.0621 0
M  V30 14975 N 1436.58 4.57973 -4.0882 0
M  V30 14976 C 1437.95 4.49504 -4.2702 0
M  V30 14977 C 1440.01 3.95539 -3.02412 0
M  V30 14978 C 1438.71 4.69978 -5.4453 0
M  V30 14979 C 1440.74 4.17197 -4.19167 0
M  V30 14980 C 1440.1 4.5381 -5.38735 0
M  V30 14981 H 1436.2 0.75051 -0.21968 0
M  V30 14982 H 1438.78 1.60279 -1.10538 0
M  V30 14983 H 1436.95 3.88385 -0.033996 0
M  V30 14984 H 1438.68 4.04071 -0.225515 0
M  V30 14985 H 1435.44 4.17258 -2.24038 0
M  V30 14986 H 1435.86 4.78541 -4.78881 0
M  V30 14987 H 1440.5 3.66334 -2.1109 0
M  V30 14988 H 1438.22 4.98037 -6.36384 0
M  V30 14989 H 1441.81 4.0503 -4.17663 0
M  V30 14990 H 1440.69 4.70233 -6.27575 0
M  V30 14991 N 1438.19 0.611994 1.45232 0
M  V30 14992 C 1439.12 -0.0914869 2.33321 0
M  V30 14993 C 1440.1 -0.854315 1.4709 0
M  V30 14994 O 1441.29 -0.823994 1.75852 0
M  V30 14995 C 1438.42 -1.08652 3.29867 0
M  V30 14996 C 1437.37 -0.436615 4.25767 0
M  V30 14997 C 1436.7 -1.54021 5.12037 0
M  V30 14998 C 1438 0.645005 5.18302 0
M  V30 14999 H 1439.69 0.644053 2.92391 0
M  V30 15000 H 1437.24 0.311171 1.40598 0
M  V30 15001 H 1439.19 -1.58726 3.90364 0
M  V30 15002 H 1437.91 -1.85271 2.68965 0
M  V30 15003 H 1436.57 0.0432918 3.66574 0
M  V30 15004 H 1436.22 -2.29679 4.475 0
M  V30 15005 H 1435.92 -1.11084 5.77005 0
M  V30 15006 H 1437.45 -2.04313 5.75403 0
M  V30 15007 H 1438.86 0.228166 5.72846 0
M  V30 15008 H 1437.26 0.996387 5.9177 0
M  V30 15009 H 1438.33 1.51985 4.60466 0
M  V30 15010 N 1439.67 -1.53632 0.351409 0
M  V30 15011 C 1440.58 -2.2899 -0.509985 0
M  V30 15012 C 1441.6 -1.34403 -1.10507 0
M  V30 15013 O 1442.77 -1.67448 -1.11906 0
M  V30 15014 C 1439.84 -3.05392 -1.64124 0
M  V30 15015 C 1438.9 -4.15619 -1.07514 0
M  V30 15016 C 1438.13 -4.88369 -2.15248 0
M  V30 15017 O 1438.35 -4.60854 -3.3611 0
M  V30 15018 O 1437.29 -5.74636 -1.79101 0
M  V30 15019 H 1441.11 -3.03526 0.10283 0
M  V30 15020 H 1438.7 -1.48947 0.116214 0
M  V30 15021 H 1440.58 -3.53146 -2.29926 0
M  V30 15022 H 1439.26 -2.33705 -2.23972 0
M  V30 15023 H 1438.16 -3.7215 -0.381421 0
M  V30 15024 H 1439.5 -4.8943 -0.521413 0
M  V30 15025 N 1441.15 -0.0802183 -1.57396 0
M  V30 15026 C 1442.11 0.869437 -2.12069 0
M  V30 15027 C 1443.11 1.22079 -1.04658 0
M  V30 15028 O 1444.3 1.15267 -1.3061 0
M  V30 15029 C 1441.43 2.17016 -2.62901 0
M  V30 15030 H 1442.63 0.394952 -2.97288 0
M  V30 15031 H 1440.18 0.168597 -1.55388 0
M  V30 15032 H 1440.91 2.68983 -1.8116 0
M  V30 15033 H 1440.7 1.92808 -3.4142 0
M  V30 15034 H 1442.19 2.84982 -3.05246 0
M  V30 15035 N 1442.63 1.56409 0.193394 0
M  V30 15036 C 1443.87 1.79919 0.911712 0
M  V30 15037 C 1444.19 0.653729 1.84352 0
M  V30 15038 O 1445.39 0.773172 2.60258 0
M  V30 15039 C 1443.85 3.18726 1.67158 0
M  V30 15040 C 1443.46 4.41078 0.784512 0
M  V30 15041 C 1445.2 3.51544 2.37944 0
M  V30 15042 C 1443.11 5.70907 1.54335 0
M  V30 15043 H 1442.04 0.670864 0.344177 0
M  V30 15044 H 1444.69 1.82757 0.164967 0
M  V30 15045 H 1443.07 3.10142 2.46227 0
M  V30 15046 H 1444.25 4.60789 0.032356 0
M  V30 15047 H 1442.56 4.15978 0.187407 0
M  V30 15048 H 1445.16 4.45779 2.95271 0
M  V30 15049 H 1445.5 2.75369 3.12214 0
M  V30 15050 H 1446.03 3.61583 1.65839 0
M  V30 15051 H 1442.77 6.50052 0.843393 0
M  V30 15052 H 1442.29 5.5521 2.26939 0
M  V30 15053 H 1443.97 6.12085 2.09669 0
M  V30 15054 N 1444.1 -0.461169 1.50702 0
M  V30 15055 C 1445.05 -1.5579 1.70288 0
M  V30 15056 C 1446.02 -1.5693 0.544251 0
M  V30 15057 O 1447.21 -1.74308 0.77597 0
M  V30 15058 C 1444.35 -2.93694 1.81212 0
M  V30 15059 C 1443.46 -3.02267 3.0864 0
M  V30 15060 C 1442.59 -4.31147 3.103 0
M  V30 15061 C 1441.63 -4.33498 4.32141 0
M  V30 15062 N 1440.77 -5.53864 4.31484 0
M  V30 15063 H 1445.61 -1.38393 2.63915 0
M  V30 15064 H 1443.15 -0.6727 1.30817 0
M  V30 15065 H 1445.1 -3.73679 1.85526 0
M  V30 15066 H 1443.73 -3.09703 0.91015 0
M  V30 15067 H 1442.79 -2.15093 3.1375 0
M  V30 15068 H 1444.1 -2.99864 3.98601 0
M  V30 15069 H 1443.25 -5.19487 3.13398 0
M  V30 15070 H 1441.99 -4.36172 2.18186 0
M  V30 15071 H 1441 -3.43554 4.29245 0
M  V30 15072 H 1442.22 -4.30156 5.25493 0
M  V30 15073 H 1440.17 -5.59657 3.42229 0
M  V30 15074 H 1440.08 -5.53244 5.15225 0
M  V30 15075 H 1441.35 -6.44302 4.38742 0
M  V30 15076 N 1445.58 -1.40446 -0.715026 0
M  V30 15077 C 1446.51 -1.35159 -1.83868 0
M  V30 15078 C 1447.49 -0.221884 -1.61079 0
M  V30 15079 O 1448.68 -0.405635 -1.84084 0
M  V30 15080 C 1445.8 -1.10358 -3.20217 0
M  V30 15081 C 1444.85 -2.25787 -3.61832 0
M  V30 15082 S 1445.68 -3.88183 -3.68882 0
M  V30 15083 C 1446.84 -3.65647 -5.07989 0
M  V30 15084 H 1447.07 -2.30252 -1.88073 0
M  V30 15085 H 1444.6 -1.26738 -0.881859 0
M  V30 15086 H 1446.56 -0.967343 -3.9894 0
M  V30 15087 H 1445.22 -0.169178 -3.13644 0
M  V30 15088 H 1444.42 -2.04078 -4.60834 0
M  V30 15089 H 1444.02 -2.35717 -2.90368 0
M  V30 15090 H 1446.31 -3.24149 -5.94923 0
M  V30 15091 H 1447.25 -4.64182 -5.34734 0
M  V30 15092 H 1447.66 -2.99322 -4.78609 0
M  V30 15093 N 1447.06 0.947303 -1.25952 0
M  V30 15094 C 1448.31 1.68945 -1.10915 0
M  V30 15095 C 1448.63 1.91848 0.349216 0
M  V30 15096 O 1447.9 1.5108 1.24706 0
M  V30 15097 H 1446.48 0.626086 -0.407462 0
M  V30 15098 H 1449.14 1.13854 -1.58187 0
M  V30 15099 H 1448.24 2.6657 -1.62317 0
M  V30 15100 N 1448.54 1.07657 1.15099 0
M  V30 15101 C 1449.95 0.802696 1.37945 0
M  V30 15102 C 1450.15 -0.591622 1.92619 0
M  V30 15103 O 1449.21 -1.34979 2.13394 0
M  V30 15104 C 1450.52 1.87907 2.34759 0
M  V30 15105 C 1452.07 1.90418 2.48415 0
M  V30 15106 C 1452.55 2.97148 3.48521 0
M  V30 15107 N 1454.04 2.96271 3.56059 0
M  V30 15108 C 1454.77 3.75498 4.33346 0
M  V30 15109 N 1454.27 4.64583 5.1394 0
M  V30 15110 N 1456.06 3.63831 4.28466 0
M  V30 15111 H 1448.21 1.97578 0.779537 0
M  V30 15112 H 1450.48 0.856978 0.405331 0
M  V30 15113 H 1450.18 2.8811 2.01707 0
M  V30 15114 H 1450.06 1.74183 3.34575 0
M  V30 15115 H 1452.44 0.908655 2.80762 0
M  V30 15116 H 1452.52 2.0822 1.48586 0
M  V30 15117 H 1452.17 3.96903 3.16908 0
M  V30 15118 H 1452.1 2.76593 4.48112 0
M  V30 15119 H 1454.59 2.31697 2.98538 0
M  V30 15120 H 1454.9 5.2166 5.70167 0
M  V30 15121 H 1453.25 4.6863 5.13236 0
M  V30 15122 H 1456.44 2.93609 3.6457 0
M  V30 15123 H 1456.61 4.25818 4.8845 0
M  V30 15124 N 1450.02 -1.31994 0.861122 0
M  V30 15125 C 1451.25 -2.00919 0.481167 0
M  V30 15126 C 1451.65 -1.64851 -0.928488 0
M  V30 15127 O 1451 -0.86916 -1.61837 0
M  V30 15128 C 1451.06 -3.55297 0.548091 0
M  V30 15129 C 1450.72 -4.14813 1.91779 0
M  V30 15130 C 1451.72 -4.32567 2.88412 0
M  V30 15131 C 1449.41 -4.50742 2.21669 0
M  V30 15132 C 1451.4 -4.85428 4.13084 0
M  V30 15133 C 1449.09 -5.03306 3.46593 0
M  V30 15134 C 1450.08 -5.20598 4.42116 0
M  V30 15135 O 1449.77 -5.72037 5.64827 0
M  V30 15136 H 1449.5 -0.649663 0.186853 0
M  V30 15137 H 1452.06 -1.69401 1.16157 0
M  V30 15138 H 1450.29 -3.86237 -0.18919 0
M  V30 15139 H 1451.98 -4.05488 0.182821 0
M  V30 15140 H 1452.74 -4.05137 2.66625 0
M  V30 15141 H 1448.62 -4.36563 1.48099 0
M  V30 15142 H 1452.17 -4.98841 4.87651 0
M  V30 15143 H 1448.06 -5.30169 3.68227 0
M  V30 15144 H 1448.83 -5.9042 5.66875 0
M  V30 15145 N 1451.49 -0.619688 -1.44906 0
M  V30 15146 C 1452.72 -0.126363 -2.06514 0
M  V30 15147 C 1453.14 1.19432 -1.46224 0
M  V30 15148 O 1452.49 1.7301 -0.580851 0
M  V30 15149 C 1452.55 0.00682319 -3.61499 0
M  V30 15150 O 1452.27 -1.26162 -4.19541 0
M  V30 15151 C 1453.77 0.530189 -4.40118 0
M  V30 15152 H 1450.99 -0.0744032 -0.666862 0
M  V30 15153 H 1453.53 -0.850851 -1.85959 0
M  V30 15154 H 1451.69 0.681694 -3.81355 0
M  V30 15155 H 1452.1 -1.09908 -5.12855 0
M  V30 15156 H 1453.57 0.572428 -5.49024 0
M  V30 15157 H 1454.05 1.55494 -4.10753 0
M  V30 15158 H 1454.66 -0.111044 -4.25155 0
M  V30 15159 N 1452.97 1.53444 -0.359552 0
M  V30 15160 C 1453.88 2.29257 0.497834 0
M  V30 15161 C 1454.9 1.34987 1.09793 0
M  V30 15162 O 1456.07 1.68039 1.11017 0
M  V30 15163 C 1453.14 3.06258 1.62502 0
M  V30 15164 C 1452.2 4.16183 1.05308 0
M  V30 15165 C 1451.43 4.89503 2.12655 0
M  V30 15166 O 1451.66 4.6263 3.33661 0
M  V30 15167 O 1450.59 5.75578 1.76051 0
M  V30 15168 H 1454.42 3.03467 -0.118925 0
M  V30 15169 H 1452 1.48884 -0.124111 0
M  V30 15170 H 1453.88 3.5436 2.2805 0
M  V30 15171 H 1452.56 2.3489 2.22729 0
M  V30 15172 H 1451.47 3.72348 0.361679 0
M  V30 15173 H 1452.8 4.897 0.49545 0
M  V30 15174 N 1454.45 0.0885642 1.57351 0
M  V30 15175 C 1455.7 -0.57633 1.93291 0
M  V30 15176 C 1456.01 -1.69743 0.971934 0
M  V30 15177 O 1457.22 -2.42304 1.22479 0
M  V30 15178 C 1455.67 -1.07655 3.43422 0
M  V30 15179 C 1455.28 0.0144488 4.47998 0
M  V30 15180 C 1457.03 -1.71455 3.88334 0
M  V30 15181 C 1454.93 -0.500758 5.89276 0
M  V30 15182 H 1453.86 -0.219055 0.721478 0
M  V30 15183 H 1456.51 0.163511 1.8277 0
M  V30 15184 H 1454.9 -1.86988 3.49072 0
M  V30 15185 H 1456.07 0.789696 4.53983 0
M  V30 15186 H 1454.39 0.557237 4.12655 0
M  V30 15187 H 1456.98 -2.11063 4.91281 0
M  V30 15188 H 1457.33 -2.58116 3.26621 0
M  V30 15189 H 1457.86 -0.987159 3.85357 0
M  V30 15190 H 1454.6 0.329088 6.54673 0
M  V30 15191 H 1454.12 -1.24315 5.86776 0
M  V30 15192 H 1455.8 -0.971821 6.3966 0
M  V30 15193 N 1455.93 -1.56509 -0.185096 0
M  V30 15194 C 1457.18 -1.81206 -0.903924 0
M  V30 15195 C 1457.5 -0.663423 -1.82836 0
M  V30 15196 O 1456.76 0.350211 -1.92541 0
M  V30 15197 C 1457.06 -3.11968 -1.74387 0
M  V30 15198 C 1456.72 -4.40353 -0.969552 0
M  V30 15199 C 1455.39 -4.75227 -0.755799 0
M  V30 15200 C 1457.74 -5.19461 -0.425443 0
M  V30 15201 C 1455.07 -5.86698 0.0133856 0
M  V30 15202 C 1457.42 -6.31736 0.330582 0
M  V30 15203 C 1456.08 -6.65187 0.555262 0
M  V30 15204 H 1455.35 -0.663078 -0.330769 0
M  V30 15205 H 1458 -1.90747 -0.169673 0
M  V30 15206 H 1456.3 -2.97708 -2.5471 0
M  V30 15207 H 1458 -3.28284 -2.30284 0
M  V30 15208 H 1454.59 -4.1299 -1.14618 0
M  V30 15209 H 1458.77 -4.92923 -0.577959 0
M  V30 15210 H 1454.03 -6.11081 0.197335 0
M  V30 15211 H 1458.2 -6.92246 0.759523 0
M  V30 15212 H 1455.83 -7.51403 1.15318 0
M  V30 15213 N 1457.41 0.45317 -1.50944 0
M  V30 15214 C 1458.34 1.56825 -1.65775 0
M  V30 15215 C 1459.32 1.54542 -0.505515 0
M  V30 15216 O 1460.5 1.73902 -0.727336 0
M  V30 15217 C 1457.63 2.95411 -1.65681 0
M  V30 15218 C 1456.67 3.1578 -2.8668 0
M  V30 15219 S 1457.51 2.93763 -4.47731 0
M  V30 15220 C 1458.66 4.34659 -4.50358 0
M  V30 15221 H 1458.9 1.44008 -2.60094 0
M  V30 15222 H 1456.43 0.64177 -1.4043 0
M  V30 15223 H 1458.39 3.75301 -1.66311 0
M  V30 15224 H 1457.05 3.05603 -0.725659 0
M  V30 15225 H 1456.24 4.17066 -2.8297 0
M  V30 15226 H 1455.84 2.4369 -2.8371 0
M  V30 15227 H 1458.14 5.27599 -4.25024 0
M  V30 15228 H 1459.08 4.43408 -5.52082 0
M  V30 15229 H 1459.49 4.17575 -3.79857 0
M  V30 15230 N 1458.88 1.40823 0.707568 0
M  V30 15231 C 1459.79 1.44058 1.85161 0
M  V30 15232 C 1460.81 0.332357 1.70796 0
M  V30 15233 O 1461.99 0.578205 1.92922 0
M  V30 15234 C 1459.05 1.3091 3.21035 0
M  V30 15235 C 1458.11 2.51944 3.47595 0
M  V30 15236 C 1457.35 2.39414 4.76987 0
M  V30 15237 O 1457.57 1.41224 5.52641 0
M  V30 15238 O 1456.5 3.28944 5.04063 0
M  V30 15239 H 1460.33 2.40551 1.85388 0
M  V30 15240 H 1457.91 1.22232 0.859052 0
M  V30 15241 H 1459.8 1.25816 4.02179 0
M  V30 15242 H 1458.47 0.375263 3.21517 0
M  V30 15243 H 1457.38 2.62615 2.66428 0
M  V30 15244 H 1458.71 3.44115 3.51917 0
M  V30 15245 N 1460.36 -0.94061 1.26453 0
M  V30 15246 C 1461.31 -2.06073 1.07873 0
M  V30 15247 C 1462.3 -1.69399 0.0055001 0
M  V30 15248 O 1463.51 -1.79267 0.162224 0
M  V30 15249 H 1459.89 -0.674748 0.331993 0
M  V30 15250 H 1461.86 -2.18895 2.02799 0
M  V30 15251 C 1460.61 -3.39971 0.729054 0
M  V30 15252 H 1459.93 -3.68667 1.54675 0
M  V30 15253 H 1461.37 -4.1916 0.638844 0
M  V30 15254 C 1459.83 -3.32114 -0.565835 0
M  V30 15255 O 1460.36 -3.68287 -1.60399 0
M  V30 15256 N 1458.56 -2.85218 -0.556679 0
M  V30 15257 H 1458.11 -2.55979 0.288541 0
M  V30 15258 H 1458.07 -2.80344 -1.42318 0
M  V30 15259 N 1461.84 -1.08266 -1.14527 0
M  V30 15260 C 1463.09 -0.809856 -1.85164 0
M  V30 15261 C 1463.41 0.666263 -1.83265 0
M  V30 15262 O 1462.68 1.48295 -1.28006 0
M  V30 15263 H 1461.26 -0.296598 -0.685594 0
M  V30 15264 H 1463.92 -1.36834 -1.38789 0
M  V30 15265 H 1463.02 -1.15272 -2.90032 0
M  V30 15266 N 1463.32 1.31536 -0.86811 0
M  V30 15267 C 1464.55 2.00661 -0.491815 0
M  V30 15268 C 1464.96 1.65341 0.919733 0
M  V30 15269 O 1464.3 0.87773 1.61374 0
M  V30 15270 C 1464.36 3.55002 -0.566926 0
M  V30 15271 C 1464.03 4.1379 -1.93976 0
M  V30 15272 C 1465.02 4.31032 -2.90702 0
M  V30 15273 C 1462.71 4.4956 -2.24056 0
M  V30 15274 C 1464.7 4.8323 -4.15653 0
M  V30 15275 C 1462.39 5.01461 -3.49257 0
M  V30 15276 C 1463.39 5.18246 -4.44871 0
M  V30 15277 O 1463.08 5.69033 -5.67852 0
M  V30 15278 H 1462.81 0.648663 -0.190296 0
M  V30 15279 H 1465.36 1.68783 -1.17053 0
M  V30 15280 H 1463.59 3.86332 0.168704 0
M  V30 15281 H 1465.28 4.05385 -0.204323 0
M  V30 15282 H 1466.05 4.03717 -2.6877 0
M  V30 15283 H 1461.93 4.35772 -1.50412 0
M  V30 15284 H 1465.47 4.96247 -4.9029 0
M  V30 15285 H 1461.37 5.28209 -3.71033 0
M  V30 15286 H 1462.13 5.87405 -5.69998 0
M  V30 15287 N 1464.8 0.627364 1.44575 0
M  V30 15288 C 1466.02 0.135576 2.06956 0
M  V30 15289 C 1466.45 -1.17922 1.46547 0
M  V30 15290 O 1465.81 -1.72255 0.565509 0
M  V30 15291 C 1465.85 0.030347 3.60587 0
M  V30 15292 O 1464.96 -1.01464 3.99724 0
M  V30 15293 H 1464.3 0.083058 0.658785 0
M  V30 15294 H 1466.83 0.862977 1.8551 0
M  V30 15295 H 1466.84 -0.161461 4.0768 0
M  V30 15296 H 1465.51 0.990285 4.03938 0
M  V30 15297 H 1464.09 -0.797701 3.64268 0
M  V30 15298 N 1466.28 -1.53251 0.367684 0
M  V30 15299 C 1467.5 -2.0618 -0.224645 0
M  V30 15300 C 1467.93 -1.23927 -1.41505 0
M  V30 15301 O 1467.28 -0.258858 -1.79443 0
M  V30 15302 C 1467.33 -3.55671 -0.594171 0
M  V30 15303 O 1466.44 -3.76132 -1.69112 0
M  V30 15304 H 1465.78 -0.663218 -0.0322099 0
M  V30 15305 H 1468.31 -1.97646 0.528897 0
M  V30 15306 H 1468.32 -3.98734 -0.864589 0
M  V30 15307 H 1466.99 -4.14982 0.276254 0
M  V30 15308 H 1465.57 -3.44965 -1.41609 0
M  V30 15309 N 1467.75 -0.0969077 -1.57302 0
M  V30 15310 C 1468.69 0.898042 -2.09787 0
M  V30 15311 C 1469.66 1.27518 -1.00886 0
M  V30 15312 O 1470.85 1.3801 -1.28396 0
M  V30 15313 C 1467.98 2.19868 -2.57635 0
M  V30 15314 C 1467.02 1.97127 -3.7821 0
M  V30 15315 S 1467.85 1.20763 -5.21705 0
M  V30 15316 C 1469.01 2.52054 -5.72905 0
M  V30 15317 H 1469.24 0.451544 -2.93851 0
M  V30 15318 H 1466.78 0.116417 -1.5396 0
M  V30 15319 H 1468.73 2.9461 -2.85859 0
M  V30 15320 H 1467.4 2.61639 -1.73793 0
M  V30 15321 H 1466.59 2.93445 -4.09763 0
M  V30 15322 H 1466.19 1.30515 -3.50488 0
M  V30 15323 H 1468.48 3.4802 -5.81282 0
M  V30 15324 H 1469.43 2.25077 -6.71376 0
M  V30 15325 H 1469.83 2.6041 -5.00846 0
M  V30 15326 N 1469.23 1.56605 0.176793 0
M  V30 15327 C 1470.51 1.72546 0.921261 0
M  V30 15328 C 1470.89 0.656794 2.00623 0
M  V30 15329 O 1470.24 -0.329303 2.26115 0
M  V30 15330 C 1470.45 3.15548 1.491 0
M  V30 15331 C 1471.79 3.7634 1.96604 0
M  V30 15332 O 1472.82 3.18791 1.58905 0
M  V30 15333 O 1471.68 4.77377 2.66033 0
M  V30 15334 H 1468.77 0.704425 0.43326 0
M  V30 15335 H 1471.32 1.68895 0.165052 0
M  V30 15336 H 1470.09 3.84808 0.709839 0
M  V30 15337 H 1469.71 3.23502 2.31154 0
M  V30 15338 N 1470.71 -0.445159 1.51182 0
M  V30 15339 C 1471.67 -1.52224 1.71349 0
M  V30 15340 C 1472.67 -1.49834 0.583632 0
M  V30 15341 O 1473.86 -1.51995 0.85107 0
M  V30 15342 C 1470.99 -2.91789 1.76273 0
M  V30 15343 H 1472.19 -1.35649 2.67468 0
M  V30 15344 H 1469.74 -0.673312 1.41054 0
M  V30 15345 H 1470.48 -3.13777 0.819405 0
M  V30 15346 H 1470.26 -2.94928 2.58379 0
M  V30 15347 H 1471.75 -3.69938 1.93741 0
M  V30 15348 N 1472.19 -1.41197 -0.700089 0
M  V30 15349 C 1473.43 -1.40519 -1.46227 0
M  V30 15350 C 1473.77 -0.0126108 -1.94196 0
M  V30 15351 O 1473.04 0.958837 -1.69223 0
M  V30 15352 C 1473.32 -2.40808 -2.67738 0
M  V30 15353 C 1473.18 -3.89154 -2.25563 0
M  V30 15354 C 1474.5 -2.38415 -3.69927 0
M  V30 15355 H 1471.62 -0.511724 -0.530384 0
M  V30 15356 H 1474.26 -1.72441 -0.797754 0
M  V30 15357 H 1472.41 -2.13717 -3.24434 0
M  V30 15358 H 1474.08 -4.27132 -1.74229 0
M  V30 15359 H 1472.32 -4.04239 -1.57395 0
M  V30 15360 H 1472.99 -4.54866 -3.12731 0
M  V30 15361 H 1475.47 -2.62447 -3.22895 0
M  V30 15362 H 1474.35 -3.10609 -4.52563 0
M  V30 15363 H 1474.61 -1.40116 -4.19309 0
M  V30 15364 N 1473.67 0.933891 -1.2695 0
M  V30 15365 C 1474.63 2.0152 -1.0919 0
M  V30 15366 C 1475.63 1.60755 -0.037865 0
M  V30 15367 O 1476.82 1.71904 -0.281917 0
M  V30 15368 C 1473.95 3.34403 -0.66239 0
M  V30 15369 H 1475.14 2.18706 -2.05201 0
M  V30 15370 H 1472.7 1.11385 -1.0965 0
M  V30 15371 H 1473.43 3.22915 0.299388 0
M  V30 15372 H 1473.22 3.65345 -1.42356 0
M  V30 15373 H 1474.71 4.13826 -0.560187 0
M  V30 15374 N 1475.14 1.08871 1.13951 0
M  V30 15375 C 1476.08 0.680849 2.18854 0
M  V30 15376 C 1477.09 -0.274456 1.6047 0
M  V30 15377 O 1478.28 -0.0613804 1.78394 0
M  V30 15378 C 1475.38 -0.0182788 3.38895 0
M  V30 15379 C 1474.55 0.957125 4.268 0
M  V30 15380 C 1473.61 0.29245 5.25387 0
M  V30 15381 O 1472.64 0.938329 5.61413 0
M  V30 15382 N 1473.84 -0.955738 5.72578 0
M  V30 15383 H 1476.6 1.58334 2.54461 0
M  V30 15384 H 1474.16 0.975417 1.29218 0
M  V30 15385 H 1476.16 -0.474001 4.01915 0
M  V30 15386 H 1474.73 -0.822932 3.01574 0
M  V30 15387 H 1473.95 1.59156 3.60642 0
M  V30 15388 H 1475.23 1.61792 4.82391 0
M  V30 15389 H 1474.63 -1.50014 5.45447 0
M  V30 15390 H 1473.19 -1.35488 6.37563 0
M  V30 15391 N 1476.62 -1.31073 0.875073 0
M  V30 15392 C 1477.87 -1.96809 0.489273 0
M  V30 15393 C 1478.2 -1.68979 -0.957073 0
M  V30 15394 O 1477.48 -0.989061 -1.67475 0
M  V30 15395 C 1477.76 -3.52139 0.752998 0
M  V30 15396 C 1477.61 -3.89524 2.24925 0
M  V30 15397 C 1478.93 -4.39535 0.222871 0
M  V30 15398 H 1476.05 -0.714873 0.179238 0
M  V30 15399 H 1478.69 -1.55114 1.09725 0
M  V30 15400 H 1476.84 -3.87785 0.23553 0
M  V30 15401 H 1478.51 -3.63953 2.83436 0
M  V30 15402 H 1476.76 -3.37948 2.71981 0
M  V30 15403 H 1477.43 -4.97845 2.38441 0
M  V30 15404 H 1479.9 -4.10741 0.665645 0
M  V30 15405 H 1478.78 -5.47159 0.436806 0
M  V30 15406 H 1479.04 -4.33346 -0.875445 0
M  V30 15407 N 1478.1 -0.635022 -1.4424 0
M  V30 15408 C 1479.33 -0.14826 -2.06368 0
M  V30 15409 C 1479.74 1.17875 -1.47482 0
M  V30 15410 O 1479.1 1.72384 -0.599168 0
M  V30 15411 C 1479.15 -0.031519 -3.61486 0
M  V30 15412 O 1478.87 -1.30605 -4.18179 0
M  V30 15413 C 1480.37 0.483479 -4.40656 0
M  V30 15414 H 1477.59 -0.081472 -0.666036 0
M  V30 15415 H 1480.14 -0.870526 -1.85046 0
M  V30 15416 H 1478.29 0.641208 -3.82057 0
M  V30 15417 H 1478.71 -1.15341 -5.11661 0
M  V30 15418 H 1480.18 0.514164 -5.496 0
M  V30 15419 H 1480.66 1.51129 -4.12379 0
M  V30 15420 H 1481.26 -0.156131 -4.25013 0
M  V30 15421 N 1479.58 1.53054 -0.375806 0
M  V30 15422 C 1480.51 2.28973 0.45754 0
M  V30 15423 C 1481.49 1.31812 1.07516 0
M  V30 15424 O 1482.67 1.60693 1.09048 0
M  V30 15425 C 1479.8 3.08657 1.59212 0
M  V30 15426 C 1478.76 4.1359 1.10123 0
M  V30 15427 C 1478.08 4.81417 2.32684 0
M  V30 15428 C 1479.38 5.21994 0.17872 0
M  V30 15429 H 1481.08 2.98883 -0.175872 0
M  V30 15430 H 1478.62 1.43743 -0.0860253 0
M  V30 15431 H 1480.58 3.6052 2.18182 0
M  V30 15432 H 1479.3 2.36456 2.25291 0
M  V30 15433 H 1477.96 3.62688 0.534151 0
M  V30 15434 H 1477.61 4.05778 2.97243 0
M  V30 15435 H 1477.31 5.52332 2.00506 0
M  V30 15436 H 1478.83 5.36079 2.92322 0
M  V30 15437 H 1480.25 5.69298 0.676204 0
M  V30 15438 H 1478.64 6.00077 -0.0526605 0
M  V30 15439 H 1479.71 4.78646 -0.776246 0
M  V30 15440 N 1481.06 0.105248 1.57248 0
M  V30 15441 C 1481.97 -0.864007 2.1811 0
M  V30 15442 C 1482.98 -1.30282 1.15337 0
M  V30 15443 O 1484.16 -1.36864 1.4775 0
M  V30 15444 C 1481.22 -2.1014 2.75757 0
M  V30 15445 C 1480.28 -1.71583 3.9352 0
M  V30 15446 C 1479.52 -2.89424 4.48408 0
M  V30 15447 O 1479.74 -4.04449 4.02215 0
M  V30 15448 O 1478.67 -2.67303 5.39289 0
M  V30 15449 H 1482.5 -0.376131 3.01362 0
M  V30 15450 H 1480.09 -0.119643 1.4892 0
M  V30 15451 H 1481.97 -2.82638 3.1256 0
M  V30 15452 H 1480.64 -2.57961 1.95545 0
M  V30 15453 H 1479.55 -0.962347 3.6151 0
M  V30 15454 H 1480.88 -1.28517 4.75126 0
M  V30 15455 N 1482.53 -1.56697 -0.168486 0
M  V30 15456 C 1483.81 -1.73032 -0.912097 0
M  V30 15457 C 1484.19 -0.667424 -2.00271 0
M  V30 15458 O 1483.54 0.317307 -2.26286 0
M  V30 15459 C 1483.75 -3.16334 -1.47424 0
M  V30 15460 C 1485.1 -3.77378 -1.94606 0
M  V30 15461 O 1486.12 -3.19629 -1.57212 0
M  V30 15462 O 1484.98 -4.78781 -2.63497 0
M  V30 15463 H 1482.07 -0.706713 -0.429518 0
M  V30 15464 H 1484.62 -1.68981 -0.156093 0
M  V30 15465 H 1483.39 -3.85179 -0.689421 0
M  V30 15466 H 1483.02 -3.24723 -2.29435 0
M  V30 15467 N 1484.01 0.437135 -1.51416 0
M  V30 15468 C 1484.94 1.538 -1.75692 0
M  V30 15469 C 1485.92 1.5891 -0.606759 0
M  V30 15470 O 1487.11 1.74635 -0.849492 0
M  V30 15471 C 1484.24 2.91877 -1.88215 0
M  V30 15472 C 1483.19 3.01628 -3.03652 0
M  V30 15473 C 1482.52 4.41687 -3.01358 0
M  V30 15474 C 1483.82 2.75691 -4.43612 0
M  V30 15475 H 1485.51 1.33737 -2.67871 0
M  V30 15476 H 1483.06 0.641936 -1.289 0
M  V30 15477 H 1485.01 3.68851 -2.03781 0
M  V30 15478 H 1483.74 3.13173 -0.926847 0
M  V30 15479 H 1482.39 2.27094 -2.87791 0
M  V30 15480 H 1482.04 4.5995 -2.03605 0
M  V30 15481 H 1481.74 4.49141 -3.78875 0
M  V30 15482 H 1483.27 5.20634 -3.19018 0
M  V30 15483 H 1484.68 3.42398 -4.59822 0
M  V30 15484 H 1483.08 2.94554 -5.22836 0
M  V30 15485 H 1484.15 1.71297 -4.53636 0
M  V30 15486 N 1485.49 1.41566 0.692592 0
M  V30 15487 C 1486.91 1.24101 1.00355 0
M  V30 15488 C 1487.11 0.132485 2.01064 0
M  V30 15489 O 1486.16 -0.502142 2.47457 0
M  V30 15490 C 1487.48 2.59142 1.52532 0
M  V30 15491 C 1489.02 2.66348 1.64401 0
M  V30 15492 C 1489.5 4.01713 2.19978 0
M  V30 15493 N 1490.99 4.03575 2.27335 0
M  V30 15494 C 1491.72 5.05118 2.71373 0
M  V30 15495 N 1491.22 6.1705 3.14994 0
M  V30 15496 N 1493.01 4.92479 2.70963 0
M  V30 15497 H 1485.16 2.12385 0.0254859 0
M  V30 15498 H 1487.43 0.945118 0.0738684 0
M  V30 15499 H 1487.13 3.41026 0.85989 0
M  V30 15500 H 1487.01 2.81833 2.50699 0
M  V30 15501 H 1489.39 1.84821 2.30055 0
M  V30 15502 H 1489.48 2.47464 0.647717 0
M  V30 15503 H 1489.12 4.8369 1.54939 0
M  V30 15504 H 1489.05 4.1794 3.20365 0
M  V30 15505 H 1491.54 3.2276 1.96556 0
M  V30 15506 H 1491.85 6.90399 3.47231 0
M  V30 15507 H 1490.2 6.20582 3.12895 0
M  V30 15508 H 1493.39 4.04117 2.36236 0
M  V30 15509 H 1493.56 5.71752 3.04965 0
M  V30 15510 N 1486.97 -0.927146 1.27443 0
M  V30 15511 C 1488.38 -1.20319 1.0486 0
M  V30 15512 C 1488.58 -2.00323 -0.217491 0
M  V30 15513 O 1487.64 -2.35032 -0.922833 0
M  V30 15514 C 1488.95 -1.9508 2.28833 0
M  V30 15515 C 1490.5 -2.08016 2.33877 0
M  V30 15516 C 1490.98 -2.86183 3.5758 0
M  V30 15517 N 1492.47 -2.93751 3.58141 0
M  V30 15518 C 1493.2 -3.54698 4.5053 0
M  V30 15519 N 1492.7 -4.17032 5.53223 0
M  V30 15520 N 1494.49 -3.52107 4.38152 0
M  V30 15521 H 1486.64 -0.392671 2.08739 0
M  V30 15522 H 1488.91 -0.236323 0.918072 0
M  V30 15523 H 1488.61 -1.43712 3.20998 0
M  V30 15524 H 1488.49 -2.95692 2.34193 0
M  V30 15525 H 1490.87 -2.5857 1.42217 0
M  V30 15526 H 1490.95 -1.06622 2.3252 0
M  V30 15527 H 1490.6 -2.36312 4.49576 0
M  V30 15528 H 1490.53 -3.87863 3.56188 0
M  V30 15529 H 1493.02 -2.49449 2.83872 0
M  V30 15530 H 1493.33 -4.61477 6.19886 0
M  V30 15531 H 1491.68 -4.15576 5.57065 0
M  V30 15532 H 1494.87 -3.02611 3.57134 0
M  V30 15533 H 1495.04 -3.99315 5.10344 0
M  V30 15534 N 1488.45 -1.09474 -1.13372 0
M  V30 15535 C 1489.38 -0.756441 -2.20908 0
M  V30 15536 C 1490.36 0.266113 -1.68006 0
M  V30 15537 O 1491.54 0.134067 -1.93737 0
M  V30 15538 C 1488.67 -0.176733 -3.4685 0
M  V30 15539 C 1487.63 -1.12886 -4.12845 0
M  V30 15540 C 1486.95 -0.410831 -5.33119 0
M  V30 15541 C 1488.25 -2.47148 -4.60125 0
M  V30 15542 H 1489.95 -1.65555 -2.49463 0
M  V30 15543 H 1487.49 -0.797458 -1.19902 0
M  V30 15544 H 1489.45 0.0720151 -4.21338 0
M  V30 15545 H 1488.17 0.757576 -3.17692 0
M  V30 15546 H 1486.83 -1.36289 -3.40325 0
M  V30 15547 H 1486.48 0.527632 -5.00225 0
M  V30 15548 H 1486.18 -1.04567 -5.78221 0
M  V30 15549 H 1487.7 -0.170394 -6.10362 0
M  V30 15550 H 1489.11 -2.27949 -5.26034 0
M  V30 15551 H 1487.51 -3.06425 -5.15969 0
M  V30 15552 H 1488.58 -3.07874 -3.74622 0
M  V30 15553 N 1489.92 1.30607 -0.882012 0
M  V30 15554 C 1491.17 1.95869 -0.497978 0
M  V30 15555 C 1491.49 1.69991 0.955405 0
M  V30 15556 O 1490.76 1.02188 1.67136 0
M  V30 15557 H 1489.34 0.724699 -0.181165 0
M  V30 15558 H 1492.01 1.59193 -1.12444 0
M  V30 15559 H 1491.1 3.04917 -0.665754 0
M  V30 15560 N 1491.4 0.642663 1.43901 0
M  V30 15561 C 1492.65 0.152003 2.0223 0
M  V30 15562 C 1492.98 -1.22711 1.50518 0
M  V30 15563 O 1492.26 -1.817 0.693937 0
M  V30 15564 C 1492.54 0.151278 3.59782 0
M  V30 15565 C 1492.39 1.56356 4.2175 0
M  V30 15566 C 1493.71 -0.518016 4.37041 0
M  V30 15567 H 1490.83 0.0567094 0.734815 0
M  V30 15568 H 1493.47 0.821337 1.7133 0
M  V30 15569 H 1491.62 -0.418679 3.86237 0
M  V30 15570 H 1493.29 2.18329 4.06362 0
M  V30 15571 H 1491.54 2.11401 3.78803 0
M  V30 15572 H 1492.21 1.51499 5.30803 0
M  V30 15573 H 1494.68 -0.0331947 4.16087 0
M  V30 15574 H 1493.56 -0.487754 5.46729 0
M  V30 15575 H 1493.82 -1.59036 4.12504 0
M  V30 15576 N 1492.88 -1.52852 0.383918 0
M  V30 15577 C 1494.11 -2.05929 -0.200216 0
M  V30 15578 C 1494.52 -1.25606 -1.40956 0
M  V30 15579 O 1493.88 -0.301336 -1.79995 0
M  V30 15580 C 1493.93 -3.56887 -0.575655 0
M  V30 15581 O 1493.65 -4.34168 0.58564 0
M  V30 15582 C 1495.15 -4.2629 -1.21623 0
M  V30 15583 H 1492.37 -0.670261 -0.0314727 0
M  V30 15584 H 1494.92 -1.97032 0.547591 0
M  V30 15585 H 1493.07 -3.65875 -1.27336 0
M  V30 15586 H 1493.49 -5.23761 0.278267 0
M  V30 15587 H 1494.96 -5.33174 -1.42933 0
M  V30 15588 H 1495.44 -3.81163 -2.182 0
M  V30 15589 H 1496.04 -4.21605 -0.559435 0
M  V30 15590 N 1494.36 -0.113586 -1.5719 0
M  V30 15591 C 1495.29 0.835363 -2.18046 0
M  V30 15592 C 1496.27 1.28114 -1.11897 0
M  V30 15593 O 1497.46 1.34472 -1.40111 0
M  V30 15594 C 1494.59 2.08759 -2.77556 0
M  V30 15595 C 1493.54 1.77979 -3.8924 0
M  V30 15596 C 1492.87 3.10185 -4.35533 0
M  V30 15597 C 1494.17 1.05231 -5.11589 0
M  V30 15598 H 1495.86 0.328275 -2.97595 0
M  V30 15599 H 1493.41 0.156456 -1.43148 0
M  V30 15600 H 1495.36 2.75597 -3.18785 0
M  V30 15601 H 1494.08 2.61783 -1.95288 0
M  V30 15602 H 1492.74 1.13532 -3.48577 0
M  V30 15603 H 1492.39 3.61133 -3.50131 0
M  V30 15604 H 1492.09 2.90367 -5.10843 0
M  V30 15605 H 1493.61 3.78151 -4.7941 0
M  V30 15606 H 1495.03 1.62213 -5.49872 0
M  V30 15607 H 1493.42 0.955269 -5.92448 0
M  V30 15608 H 1494.49 0.038137 -4.84885 0
M  V30 15609 N 1495.84 1.56784 0.160173 0
M  V30 15610 C 1497.08 1.82891 0.876278 0
M  V30 15611 C 1497.42 0.693173 1.81408 0
M  V30 15612 O 1496.69 -0.304136 1.92107 0
M  V30 15613 C 1496.97 3.19439 1.66226 0
M  V30 15614 C 1496.83 4.43557 0.746831 0
M  V30 15615 C 1498.15 3.53053 2.62758 0
M  V30 15616 H 1495.27 0.665285 0.31712 0
M  V30 15617 H 1497.91 1.89469 0.142004 0
M  V30 15618 H 1496.06 3.13962 2.28823 0
M  V30 15619 H 1497.73 4.61109 0.132876 0
M  V30 15620 H 1495.97 4.33764 0.0555625 0
M  V30 15621 H 1496.64 5.35675 1.33253 0
M  V30 15622 H 1499.12 3.59054 2.10284 0
M  V30 15623 H 1498 4.4965 3.14811 0
M  V30 15624 H 1498.26 2.78329 3.4349 0
M  V30 15625 N 1497.32 -0.429099 1.51646 0
M  V30 15626 C 1498.56 -1.17551 1.64396 0
M  V30 15627 C 1498.88 -1.91526 0.366444 0
M  V30 15628 O 1498.15 -1.85896 -0.618013 0
M  V30 15629 H 1496.73 -0.436918 0.605898 0
M  V30 15630 H 1499.4 -0.491159 1.8861 0
M  V30 15631 H 1498.49 -1.90057 2.47557 0
M  V30 15632 N 1498.79 -1.41931 -0.685074 0
M  V30 15633 C 1499.74 -1.41066 -1.79121 0
M  V30 15634 C 1500.73 -0.283467 -1.58383 0
M  V30 15635 O 1501.92 -0.524931 -1.69037 0
M  V30 15636 C 1499.05 -1.30551 -3.17508 0
M  V30 15637 C 1498.13 -2.48174 -3.43905 0
M  V30 15638 N 1498.53 -3.73621 -3.40941 0
M  V30 15639 C 1496.82 -2.42213 -3.74498 0
M  V30 15640 C 1497.52 -4.51693 -3.66536 0
M  V30 15641 N 1496.5 -3.81955 -3.86796 0
M  V30 15642 H 1500.3 -2.35965 -1.75208 0
M  V30 15643 H 1497.82 -1.36135 -0.885498 0
M  V30 15644 H 1499.81 -1.28013 -3.9676 0
M  V30 15645 H 1498.47 -0.366454 -3.22625 0
M  V30 15646 H 1499.48 -4.0636 -3.21079 0
M  V30 15647 H 1496.16 -1.56835 -3.86923 0
M  V30 15648 H 1497.55 -5.60654 -3.70292 0
M  V30 15649 N 1500.27 0.920374 -1.27933 0
M  V30 15650 C 1501.2 2.02644 -1.07089 0
M  V30 15651 C 1502.22 1.62781 -0.024674 0
M  V30 15652 O 1503.41 1.76491 -0.267023 0
M  V30 15653 C 1500.51 3.33476 -0.603919 0
M  V30 15654 C 1499.68 4.01988 -1.72407 0
M  V30 15655 C 1498.74 5.11098 -1.25159 0
M  V30 15656 O 1497.76 5.3466 -1.95261 0
M  V30 15657 N 1498.97 5.80393 -0.111197 0
M  V30 15658 H 1501.73 2.21085 -2.0234 0
M  V30 15659 H 1499.29 1.09124 -1.19597 0
M  V30 15660 H 1501.28 4.03788 -0.271579 0
M  V30 15661 H 1499.85 3.11554 0.255557 0
M  V30 15662 H 1499.07 3.25312 -2.22633 0
M  V30 15663 H 1500.36 4.4451 -2.47566 0
M  V30 15664 H 1499.76 5.63713 0.473746 0
M  V30 15665 H 1498.32 6.51599 0.161912 0
M  V30 15666 N 1501.75 1.10074 1.1279 0
M  V30 15667 C 1502.7 0.746173 2.18405 0
M  V30 15668 C 1503.67 -0.275751 1.63795 0
M  V30 15669 O 1504.85 -0.155876 1.90162 0
M  V30 15670 C 1501.99 0.180105 3.4463 0
M  V30 15671 C 1501.1 1.25688 4.13312 0
M  V30 15672 C 1500.24 0.652852 5.27173 0
M  V30 15673 C 1499.28 1.71046 5.87716 0
M  V30 15674 N 1498.42 1.12698 6.92996 0
M  V30 15675 H 1503.26 1.65105 2.48081 0
M  V30 15676 H 1500.79 0.824768 1.21803 0
M  V30 15677 H 1502.75 -0.165948 4.1687 0
M  V30 15678 H 1501.38 -0.688014 3.15383 0
M  V30 15679 H 1500.43 1.72011 3.39288 0
M  V30 15680 H 1501.74 2.05762 4.54382 0
M  V30 15681 H 1500.9 0.25603 6.0616 0
M  V30 15682 H 1499.64 -0.17937 4.8737 0
M  V30 15683 H 1498.64 2.11676 5.07418 0
M  V30 15684 H 1499.87 2.54547 6.29589 0
M  V30 15685 H 1497.81 0.316154 6.55238 0
M  V30 15686 H 1497.73 1.86461 7.32645 0
M  V30 15687 H 1499 0.756582 7.7582 0
M  V30 15688 N 1503.23 -1.30138 0.888926 0
M  V30 15689 C 1504.17 -2.28023 0.356923 0
M  V30 15690 C 1505.14 -1.56551 -0.555066 0
M  V30 15691 O 1506.33 -1.84595 -0.482633 0
M  V30 15692 C 1503.47 -3.42546 -0.419056 0
M  V30 15693 C 1502.58 -4.28827 0.5226 0
M  V30 15694 C 1501.72 -5.30517 -0.269366 0
M  V30 15695 C 1500.76 -6.08449 0.667507 0
M  V30 15696 N 1499.89 -7.02043 -0.08938 0
M  V30 15697 H 1504.73 -2.72912 1.19678 0
M  V30 15698 H 1502.27 -1.34239 0.60152 0
M  V30 15699 H 1504.23 -4.07707 -0.884911 0
M  V30 15700 H 1502.86 -2.98716 -1.22346 0
M  V30 15701 H 1501.91 -3.63938 1.10695 0
M  V30 15702 H 1503.22 -4.83136 1.24018 0
M  V30 15703 H 1502.38 -6.01444 -0.796901 0
M  V30 15704 H 1501.12 -4.76911 -1.02014 0
M  V30 15705 H 1500.12 -5.36396 1.20664 0
M  V30 15706 H 1501.35 -6.64143 1.41744 0
M  V30 15707 H 1499.29 -6.50822 -0.822622 0
M  V30 15708 H 1499.21 -7.53859 0.568499 0
M  V30 15709 H 1500.48 -7.77206 -0.597529 0
M  V30 15710 N 1504.71 -0.650285 -1.43559 0
M  V30 15711 C 1505.95 -0.159832 -2.01066 0
M  V30 15712 C 1506.27 1.23246 -1.51887 0
M  V30 15713 O 1507.47 1.81797 -2.01648 0
M  V30 15714 C 1505.93 -0.23494 -3.59132 0
M  V30 15715 C 1505.54 -1.62975 -4.17305 0
M  V30 15716 C 1507.28 0.198061 -4.24038 0
M  V30 15717 C 1505.19 -1.65894 -5.67656 0
M  V30 15718 H 1504.12 -0.0559899 -0.751918 0
M  V30 15719 H 1506.77 -0.811891 -1.64562 0
M  V30 15720 H 1505.15 0.484573 -3.93024 0
M  V30 15721 H 1506.33 -2.37438 -3.94918 0
M  V30 15722 H 1504.64 -2.00847 -3.64759 0
M  V30 15723 H 1507.24 0.196054 -5.3434 0
M  V30 15724 H 1507.58 1.22896 -3.97747 0
M  V30 15725 H 1508.11 -0.469602 -3.95018 0
M  V30 15726 H 1504.85 -2.66883 -5.9871 0
M  V30 15727 H 1504.37 -0.957519 -5.92108 0
M  V30 15728 H 1506.05 -1.40137 -6.31641 0
M  V30 15729 N 1506.18 1.52647 -0.392018 0
M  V30 15730 C 1507.12 2.22965 0.486007 0
M  V30 15731 C 1508.09 1.23138 1.06188 0
M  V30 15732 O 1509.28 1.52133 1.113 0
M  V30 15733 C 1506.41 2.94498 1.67298 0
M  V30 15734 C 1505.45 4.08616 1.22211 0
M  V30 15735 S 1506.28 5.35121 0.201397 0
M  V30 15736 C 1507.44 6.10177 1.39409 0
M  V30 15737 H 1507.67 2.97092 -0.111111 0
M  V30 15738 H 1505.21 1.53391 -0.176221 0
M  V30 15739 H 1507.16 3.3632 2.3537 0
M  V30 15740 H 1505.83 2.20045 2.24141 0
M  V30 15741 H 1505.02 4.57778 2.10844 0
M  V30 15742 H 1504.62 3.68821 0.620272 0
M  V30 15743 H 1506.91 6.36514 2.3207 0
M  V30 15744 H 1507.86 7.01788 0.943337 0
M  V30 15745 H 1508.26 5.4099 1.61213 0
M  V30 15746 N 1507.66 0.121921 1.57128 0
M  V30 15747 C 1508.61 -0.844503 2.16728 0
M  V30 15748 C 1509.6 -1.2733 1.1173 0
M  V30 15749 O 1510.81 -1.2447 1.30028 0
M  V30 15750 H 1507.19 -0.290459 0.693641 0
M  V30 15751 H 1509.16 -0.317379 2.96707 0
M  V30 15752 C 1507.91 -2.08359 2.78356 0
M  V30 15753 H 1507.23 -1.76258 3.5885 0
M  V30 15754 H 1508.67 -2.73978 3.23592 0
M  V30 15755 C 1507.13 -2.87526 1.75586 0
M  V30 15756 O 1507.66 -3.83011 1.21101 0
M  V30 15757 N 1505.86 -2.51575 1.4546 0
M  V30 15758 H 1505.41 -1.73993 1.89958 0
M  V30 15759 H 1505.37 -3.0484 0.769411 0
M  V30 15760 N 1509.14 -1.56867 -0.151857 0
M  V30 15761 C 1510.37 -1.87601 -0.884347 0
M  V30 15762 C 1510.79 -0.710419 -1.74168 0
M  V30 15763 O 1510.15 0.340103 -1.78081 0
M  V30 15764 C 1510.2 -3.16887 -1.72091 0
M  V30 15765 O 1509.3 -3.00479 -2.82464 0
M  V30 15766 H 1508.64 -0.616509 -0.246603 0
M  V30 15767 H 1511.17 -2.04092 -0.144135 0
M  V30 15768 H 1511.18 -3.48785 -2.11691 0
M  V30 15769 H 1509.86 -4.01327 -1.09131 0
M  V30 15770 H 1508.43 -2.79978 -2.46306 0
M  V30 15771 N 1510.62 0.421051 -1.51871 0
M  V30 15772 C 1511.55 1.51928 -1.77313 0
M  V30 15773 C 1512.53 1.58258 -0.623579 0
M  V30 15774 O 1513.71 1.73724 -0.867967 0
M  V30 15775 C 1510.84 2.89865 -1.913 0
M  V30 15776 C 1509.8 2.98391 -3.06834 0
M  V30 15777 C 1509.12 4.38466 -3.06026 0
M  V30 15778 C 1510.42 2.7097 -4.46511 0
M  V30 15779 H 1512.12 1.30889 -2.69274 0
M  V30 15780 H 1509.66 0.628229 -1.29573 0
M  V30 15781 H 1511.62 3.66669 -2.07682 0
M  V30 15782 H 1510.34 3.12172 -0.960011 0
M  V30 15783 H 1509 2.24029 -2.90184 0
M  V30 15784 H 1508.65 4.57764 -2.08472 0
M  V30 15785 H 1508.35 4.45097 -3.83618 0
M  V30 15786 H 1509.87 5.17221 -3.24522 0
M  V30 15787 H 1511.29 3.37501 -4.63428 0
M  V30 15788 H 1509.68 2.88992 -5.25931 0
M  V30 15789 H 1510.75 1.66476 -4.55427 0
M  V30 15790 N 1512.1 1.42293 0.677538 0
M  V30 15791 C 1513.03 1.41503 1.80304 0
M  V30 15792 C 1514.04 0.314499 1.59733 0
M  V30 15793 O 1515.23 0.57741 1.68903 0
M  V30 15794 C 1512.33 1.18879 3.17366 0
M  V30 15795 C 1511.5 2.41314 3.6481 0
M  V30 15796 C 1510.56 2.14277 4.80595 0
M  V30 15797 O 1509.59 2.87457 4.91281 0
M  V30 15798 N 1510.79 1.14419 5.69112 0
M  V30 15799 H 1513.56 2.38515 1.81468 0
M  V30 15800 H 1511.12 1.37137 0.860529 0
M  V30 15801 H 1513.11 0.987135 3.92476 0
M  V30 15802 H 1511.68 0.304002 3.11118 0
M  V30 15803 H 1510.9 2.77066 2.80407 0
M  V30 15804 H 1512.19 3.2285 3.9325 0
M  V30 15805 H 1511.58 0.53888 5.63127 0
M  V30 15806 H 1510.14 1.00241 6.44046 0
M  V30 15807 N 1513.57 -0.913576 1.28419 0
M  V30 15808 C 1514.48 -2.04922 1.14211 0
M  V30 15809 C 1515.5 -1.73865 0.0686424 0
M  V30 15810 O 1516.68 -1.99473 0.277968 0
M  V30 15811 C 1513.74 -3.37214 0.805445 0
M  V30 15812 C 1512.8 -3.81879 1.96129 0
M  V30 15813 C 1512.04 -5.07858 1.6406 0
M  V30 15814 O 1512.26 -5.67693 0.555032 0
M  V30 15815 O 1511.19 -5.4824 2.48428 0
M  V30 15816 H 1515.02 -2.19827 2.09547 0
M  V30 15817 H 1512.6 -1.03501 1.0774 0
M  V30 15818 H 1514.49 -4.16639 0.631648 0
M  V30 15819 H 1513.16 -3.23484 -0.118254 0
M  V30 15820 H 1512.07 -3.03281 2.19024 0
M  V30 15821 H 1513.4 -4.00173 2.8657 0
M  V30 15822 N 1515.05 -1.1067 -1.12204 0
M  V30 15823 C 1515.99 -0.70161 -2.17147 0
M  V30 15824 C 1516.96 0.298272 -1.59841 0
M  V30 15825 O 1518.15 0.196594 -1.87472 0
M  V30 15826 C 1515.27 -0.0356178 -3.38681 0
M  V30 15827 C 1514.32 -0.999363 -4.14626 0
M  V30 15828 S 1515.15 -2.51792 -4.72611 0
M  V30 15829 C 1516.31 -1.8647 -5.97478 0
M  V30 15830 H 1516.54 -1.59058 -2.51173 0
M  V30 15831 H 1514.08 -0.923946 -1.23704 0
M  V30 15832 H 1516.03 0.342303 -4.0907 0
M  V30 15833 H 1514.69 0.830184 -3.0293 0
M  V30 15834 H 1513.89 -0.48067 -5.01703 0
M  V30 15835 H 1513.49 -1.31931 -3.49957 0
M  V30 15836 H 1515.78 -1.19637 -6.66853 0
M  V30 15837 H 1516.72 -2.71513 -6.53977 0
M  V30 15838 H 1517.13 -1.32821 -5.48652 0
M  V30 15839 N 1516.53 1.29665 -0.895815 0
M  V30 15840 C 1517.48 2.27831 -0.369011 0
M  V30 15841 C 1518.45 1.56843 0.546756 0
M  V30 15842 O 1519.63 1.84848 0.472837 0
M  V30 15843 C 1516.77 3.42764 0.400884 0
M  V30 15844 C 1515.89 4.28544 -0.545335 0
M  V30 15845 C 1515.02 5.30652 0.241228 0
M  V30 15846 C 1514.06 6.08087 -0.699765 0
M  V30 15847 N 1513.2 7.02081 0.0521477 0
M  V30 15848 H 1518.04 2.72274 -1.21124 0
M  V30 15849 H 1515.57 1.33918 -0.608631 0
M  V30 15850 H 1517.53 4.08171 0.863277 0
M  V30 15851 H 1516.16 2.99361 1.2076 0
M  V30 15852 H 1515.21 3.63346 -1.12624 0
M  V30 15853 H 1516.53 4.82472 -1.26579 0
M  V30 15854 H 1515.68 6.01858 0.764994 0
M  V30 15855 H 1514.42 4.77446 0.994838 0
M  V30 15856 H 1513.42 5.35748 -1.23507 0
M  V30 15857 H 1514.65 6.63382 -1.45264 0
M  V30 15858 H 1512.59 6.51249 0.788096 0
M  V30 15859 H 1512.51 7.53547 -0.60847 0
M  V30 15860 H 1513.78 7.77512 0.556304 0
M  V30 15861 N 1518.01 0.657889 1.43212 0
M  V30 15862 C 1519.25 0.173443 2.02057 0
M  V30 15863 C 1519.59 -1.21108 1.51811 0
M  V30 15864 O 1518.86 -1.80953 0.71317 0
M  V30 15865 C 1519.15 0.189429 3.59601 0
M  V30 15866 C 1519 1.6082 4.20068 0
M  V30 15867 C 1520.32 -0.471633 4.37566 0
M  V30 15868 H 1517.44 0.0644999 0.734172 0
M  V30 15869 H 1520.08 0.839462 1.7045 0
M  V30 15870 H 1518.23 -0.377689 3.8666 0
M  V30 15871 H 1519.9 2.22627 4.04024 0
M  V30 15872 H 1518.14 2.15407 3.7654 0
M  V30 15873 H 1518.81 1.5712 5.29167 0
M  V30 15874 H 1521.29 0.0109387 4.16099 0
M  V30 15875 H 1520.17 -0.429739 5.47215 0
M  V30 15876 H 1520.43 -1.54652 4.14168 0
M  V30 15877 N 1519.49 -1.52437 0.400108 0
M  V30 15878 C 1520.42 -2.24433 -0.465038 0
M  V30 15879 C 1521.43 -1.27067 -1.01773 0
M  V30 15880 O 1522.62 -1.53072 -0.918215 0
M  V30 15881 C 1519.72 -2.95555 -1.65832 0
M  V30 15882 C 1518.89 -4.19717 -1.2311 0
M  V30 15883 C 1517.95 -4.73743 -2.29028 0
M  V30 15884 O 1516.98 -5.36556 -1.8999 0
M  V30 15885 N 1518.18 -4.54534 -3.6108 0
M  V30 15886 H 1520.95 -2.99315 0.151839 0
M  V30 15887 H 1518.51 -1.603 0.227019 0
M  V30 15888 H 1520.5 -3.28595 -2.36235 0
M  V30 15889 H 1519.07 -2.23915 -2.18131 0
M  V30 15890 H 1518.29 -3.92593 -0.355537 0
M  V30 15891 H 1519.58 -5.00367 -0.922487 0
M  V30 15892 H 1518.97 -4.04419 -3.95552 0
M  V30 15893 H 1517.53 -4.92035 -4.27486 0
M  V30 15894 N 1520.96 -0.130252 -1.57061 0
M  V30 15895 C 1521.89 0.812189 -2.18919 0
M  V30 15896 C 1522.88 1.2692 -1.13249 0
M  V30 15897 O 1524.06 1.32978 -1.41529 0
M  V30 15898 C 1521.19 2.05803 -2.79754 0
M  V30 15899 C 1520.14 1.73841 -3.91105 0
M  V30 15900 C 1519.47 3.05549 -4.38799 0
M  V30 15901 C 1520.77 0.997991 -5.12677 0
M  V30 15902 H 1522.46 0.296692 -2.97926 0
M  V30 15903 H 1520.01 0.141265 -1.43305 0
M  V30 15904 H 1521.96 2.72201 -3.21691 0
M  V30 15905 H 1520.69 2.59697 -1.98053 0
M  V30 15906 H 1519.35 1.09828 -3.49762 0
M  V30 15907 H 1518.99 3.57399 -3.53942 0
M  V30 15908 H 1518.69 2.84932 -5.13894 0
M  V30 15909 H 1520.22 3.73045 -4.83394 0
M  V30 15910 H 1521.63 1.56372 -5.51562 0
M  V30 15911 H 1520.03 0.892378 -5.93428 0
M  V30 15912 H 1521.1 -0.0132936 -4.84898 0
M  V30 15913 N 1522.44 1.56945 0.143535 0
M  V30 15914 C 1523.69 1.8381 0.856831 0
M  V30 15915 C 1524.02 0.712375 1.80662 0
M  V30 15916 O 1523.3 -0.283743 1.92419 0
M  V30 15917 C 1523.58 3.21184 1.62828 0
M  V30 15918 C 1523.43 4.44324 0.699744 0
M  V30 15919 C 1524.75 3.5582 2.58999 0
M  V30 15920 H 1521.87 0.668611 0.310046 0
M  V30 15921 H 1524.51 1.89609 0.1219 0
M  V30 15922 H 1522.66 3.16372 2.2548 0
M  V30 15923 H 1524.34 4.61224 0.0839619 0
M  V30 15924 H 1522.58 4.33799 0.0095529 0
M  V30 15925 H 1523.25 5.37058 1.27564 0
M  V30 15926 H 1525.73 3.61264 2.06464 0
M  V30 15927 H 1524.6 4.52964 3.10024 0
M  V30 15928 H 1524.86 2.81956 3.40519 0
M  V30 15929 N 1523.92 -0.412991 1.52093 0
M  V30 15930 C 1524.87 -1.52347 1.75765 0
M  V30 15931 C 1525.86 -1.57463 0.624641 0
M  V30 15932 O 1527.07 -1.60916 0.806599 0
M  V30 15933 H 1523.44 -0.50659 0.555761 0
M  V30 15934 H 1525.42 -1.29564 2.68804 0
M  V30 15935 C 1524.16 -2.89757 1.92188 0
M  V30 15936 H 1523.49 -2.86561 2.78788 0
M  V30 15937 H 1524.93 -3.66759 2.12753 0
M  V30 15938 C 1523.39 -3.29801 0.687963 0
M  V30 15939 O 1523.92 -4.01435 -0.145984 0
M  V30 15940 N 1522.12 -2.85819 0.524978 0
M  V30 15941 H 1521.67 -2.27694 1.20471 0
M  V30 15942 H 1521.63 -3.12972 -0.299325 0
M  V30 15943 N 1525.4 -1.4265 -0.669982 0
M  V30 15944 C 1526.65 -1.43093 -1.42719 0
M  V30 15945 C 1526.97 -0.0501228 -1.94936 0
M  V30 15946 O 1526.24 0.912077 -1.73372 0
M  V30 15947 H 1524.82 -0.526785 -0.529628 0
M  V30 15948 H 1527.48 -1.78113 -0.791324 0
M  V30 15949 H 1526.58 -2.13357 -2.27783 0
M  V30 15950 N 1526.88 0.906753 -1.28902 0
M  V30 15951 C 1527.81 2.01159 -1.07752 0
M  V30 15952 C 1528.79 1.62598 0.00851506 0
M  V30 15953 O 1529.97 1.87973 -0.140797 0
M  V30 15954 C 1527.1 3.3262 -0.638877 0
M  V30 15955 C 1526.15 3.90166 -1.72258 0
M  V30 15956 S 1526.98 4.20147 -3.32019 0
M  V30 15957 C 1528.13 5.5466 -2.90006 0
M  V30 15958 H 1528.37 2.18791 -2.01291 0
M  V30 15959 H 1525.9 1.05249 -1.12969 0
M  V30 15960 H 1527.86 4.08619 -0.392507 0
M  V30 15961 H 1526.52 3.12878 0.276792 0
M  V30 15962 H 1525.71 4.85095 -1.36745 0
M  V30 15963 H 1525.31 3.20829 -1.92211 0
M  V30 15964 H 1527.61 6.34839 -2.36612 0
M  V30 15965 H 1528.55 5.95092 -3.83759 0
M  V30 15966 H 1528.96 5.16181 -2.28511 0
M  V30 15967 N 1528.36 1.11264 1.11616 0
M  V30 15968 C 1529.6 0.861639 1.83585 0
M  V30 15969 C 1529.93 -0.611221 1.8433 0
M  V30 15970 O 1529.21 -1.45116 1.29505 0
M  V30 15971 C 1529.49 1.42157 3.30852 0
M  V30 15972 C 1529.35 2.96192 3.38512 0
M  V30 15973 C 1530.66 1.07099 4.2687 0
M  V30 15974 H 1527.78 0.314464 0.666545 0
M  V30 15975 H 1530.43 1.37722 1.30892 0
M  V30 15976 H 1528.58 0.983054 3.75857 0
M  V30 15977 H 1530.25 3.48634 3.0208 0
M  V30 15978 H 1528.49 3.32353 2.7879 0
M  V30 15979 H 1529.16 3.30457 4.42156 0
M  V30 15980 H 1531.64 1.44952 3.90036 0
M  V30 15981 H 1530.51 1.48957 5.28302 0
M  V30 15982 H 1530.77 -0.018482 4.42096 0
M  V30 15983 N 1529.83 -1.29188 0.902679 0
M  V30 15984 C 1531.24 -1.77521 0.578207 0
M  V30 15985 C 1531.6 -1.74017 -0.906227 0
M  V30 15986 O 1530.72 -1.32793 -1.70865 0
M  V30 15987 C 1531.32 -3.22352 1.04281 0
M  V30 15988 C 1529.87 -3.68451 0.769454 0
M  V30 15989 C 1529.02 -2.49225 1.21583 0
M  V30 15990 H 1531.97 -1.15807 1.0851 0
M  V30 15991 H 1531.99 -3.78604 0.379396 0
M  V30 15992 H 1531.51 -3.2487 2.12323 0
M  V30 15993 H 1529.61 -3.71405 -0.298223 0
M  V30 15994 H 1529.72 -4.59112 1.36943 0
M  V30 15995 H 1528.08 -2.46663 0.634766 0
M  V30 15996 H 1528.87 -2.54469 2.30436 0
M  V30 15997 N 1531.31 -0.665475 -1.42861 0
M  V30 15998 C 1532.24 0.00482845 -2.335 0
M  V30 15999 C 1533.22 0.799135 -1.50159 0
M  V30 16000 O 1534.41 0.75816 -1.78789 0
M  V30 16001 C 1531.54 0.963347 -3.33672 0
M  V30 16002 C 1530.49 0.278294 -4.27094 0
M  V30 16003 C 1529.82 1.34911 -5.174 0
M  V30 16004 C 1531.12 -0.836925 -5.15551 0
M  V30 16005 H 1532.81 -0.752129 -2.89799 0
M  V30 16006 H 1530.36 -0.363139 -1.39346 0
M  V30 16007 H 1532.31 1.44128 -3.95986 0
M  V30 16008 H 1531.03 1.75161 -2.75656 0
M  V30 16009 H 1529.69 -0.179314 -3.66161 0
M  V30 16010 H 1529.34 2.12912 -4.55716 0
M  V30 16011 H 1529.04 0.895919 -5.8073 0
M  V30 16012 H 1530.57 1.82816 -5.8259 0
M  V30 16013 H 1531.98 -0.440617 -5.71604 0
M  V30 16014 H 1530.38 -1.21533 -5.87665 0
M  V30 16015 H 1531.45 -1.6897 -4.54507 0
M  V30 16016 O 1532.83 1.51834 -0.550332 0
M  V30 16017 H 1533.52 1.93645 -0.0459577 0
M  V30 END ATOM
M  V30 BEGIN BOND
M  V30 END BOND
M  V30 END CTAB
M  END
$$$$
