drugbank_target|P15538 Cytochrome P450 11B1, mitochondrial (DB00648; DB01011; DB05667; DB11837)
 OpenBabel12092119383D

  0  0  0     0  0            999 V3000
M  V30 BEGIN CTAB
M  V30 COUNTS 8164 8268 0 0 0
M  V30 BEGIN ATOM
M  V30 1 H -0.908 1.98254 -0.117106 0
M  V30 2 N 0 1.576 0 0
M  V30 3 C 0.933 2.03868 1.02534 0
M  V30 4 C 1.911 0.928543 1.3348 0
M  V30 5 O 3.095 1.19667 1.45644 0
M  V30 6 C 0.222 2.43627 2.35294 0
M  V30 7 C -0.732 3.65373 2.2001 0
M  V30 8 S 0.101 5.13292 1.52614 0
M  V30 9 C 1.257 5.56322 2.86805 0
M  V30 10 H 1.49 2.90518 0.631377 0
M  V30 11 H -0.977 1.52953 0.210867 0
M  V30 12 H 0.981 2.67203 3.11629 0
M  V30 13 H -0.358 1.57376 2.7183 0
M  V30 14 H -1.165 3.90944 3.18086 0
M  V30 15 H -1.563 3.418 1.51819 0
M  V30 16 H 0.729 5.58782 3.83104 0
M  V30 17 H 1.672 6.56266 2.65933 0
M  V30 18 H 2.08 4.83886 2.90714 0
M  V30 19 N 1.4781 -0.272755 1.55222 0
M  V30 20 C 2.4411 -1.32041 1.87344 0
M  V30 21 C 3.4411 -1.42342 0.74803 0
M  V30 22 O 4.6311 -1.41488 1.0162 0
M  V30 23 C 1.7631 -2.70173 2.07893 0
M  V30 24 H 2.9561 -1.04789 2.80997 0
M  V30 25 H 0.5091 -0.51083 1.47717 0
M  V30 26 H 1.2441 -3.02605 1.16622 0
M  V30 27 H 1.0291 -2.64082 2.89833 0
M  V30 28 H 2.5191 -3.45869 2.34017 0
M  V30 29 N 2.9562 -1.48159 -0.537278 0
M  V30 30 C 3.8862 -1.65029 -1.6519 0
M  V30 31 C 4.8672 -0.499281 -1.62607 0
M  V30 32 O 6.0522 -0.730972 -1.79918 0
M  V30 33 C 3.1822 -1.68303 -3.03795 0
M  V30 34 C 2.1362 -2.8283 -3.21234 0
M  V30 35 C 1.4622 -2.71189 -4.60826 0
M  V30 36 C 2.7622 -4.24211 -3.04701 0
M  V30 37 H 4.4562 -2.58341 -1.51328 0
M  V30 38 H 2.0022 -1.24325 -0.726585 0
M  V30 39 H 3.9552 -1.78693 -3.81637 0
M  V30 40 H 2.6792 -0.715635 -3.18663 0
M  V30 41 H 1.3382 -2.71983 -2.45807 0
M  V30 42 H 0.9862 -1.72435 -4.7252 0
M  V30 43 H 0.6862 -3.48035 -4.7344 0
M  V30 44 H 2.2102 -2.83537 -5.40777 0
M  V30 45 H 3.6242 -4.3593 -3.72341 0
M  V30 46 H 2.0212 -5.01998 -3.28813 0
M  V30 47 H 3.0912 -4.41184 -2.01209 0
M  V30 48 N 4.4343 0.785586 -1.36625 0
M  V30 49 C 5.8503 1.08419 -1.17122 0
M  V30 50 C 6.0503 2.015 0.00208491 0
M  V30 51 O 5.1063 2.43551 0.666278 0
M  V30 52 C 6.4193 1.69498 -2.48377 0
M  V30 53 C 7.9673 1.81821 -2.54775 0
M  V30 54 C 8.4423 2.46315 -3.86126 0
M  V30 55 N 9.9333 2.53779 -3.87492 0
M  V30 56 C 10.6683 3.045 -4.85868 0
M  V30 57 N 10.1643 3.55499 -5.94637 0
M  V30 58 N 11.9573 3.03247 -4.73284 0
M  V30 59 H 4.1083 0.167264 -2.1174 0
M  V30 60 H 6.3713 0.13682 -0.938075 0
M  V30 61 H 6.0773 1.08571 -3.34522 0
M  V30 62 H 5.9513 2.6896 -2.64462 0
M  V30 63 H 8.3383 2.41884 -1.69045 0
M  V30 64 H 8.4193 0.811532 -2.42586 0
M  V30 65 H 8.0633 1.86895 -4.72263 0
M  V30 66 H 7.9933 3.47561 -3.95612 0
M  V30 67 H 10.4843 2.17672 -3.08913 0
M  V30 68 H 10.7973 3.92562 -6.65669 0
M  V30 69 H 9.1423 3.5364 -5.98301 0
M  V30 70 H 12.3333 2.62696 -3.87438 0
M  V30 71 H 12.5063 3.42467 -5.50109 0
M  V30 72 N 5.9124 1.20967 1.01018 0
M  V30 73 C 6.8754 0.965918 2.07853 0
M  V30 74 C 7.8754 -0.0610545 1.60684 0
M  V30 75 O 9.0654 0.175681 1.73312 0
M  V30 76 C 6.1974 0.455513 3.37843 0
M  V30 77 H 7.3904 1.91365 2.3091 0
M  V30 78 H 4.9434 1.02594 1.17916 0
M  V30 79 H 5.6784 -0.497381 3.20463 0
M  V30 80 H 5.4634 1.19622 3.73407 0
M  V30 81 H 6.9534 0.304667 4.16487 0
M  V30 82 N 7.3905 -1.2043 1.01659 0
M  V30 83 C 8.3375 -2.23215 0.586822 0
M  V30 84 C 9.3075 -1.61382 -0.393085 0
M  V30 85 O 10.4925 -1.88544 -0.292525 0
M  V30 86 C 7.6325 -3.45032 -0.0687464 0
M  V30 87 C 6.7455 -4.21296 0.955724 0
M  V30 88 C 5.8805 -5.30507 0.271208 0
M  V30 89 C 4.9195 -5.98515 1.28244 0
M  V30 90 N 4.0565 -6.99316 0.62459 0
M  V30 91 H 8.8965 -2.59336 1.46796 0
M  V30 92 H 6.4335 -1.27431 0.734836 0
M  V30 93 H 8.3915 -4.1459 -0.465965 0
M  V30 94 H 7.0215 -3.09604 -0.913529 0
M  V30 95 H 6.0735 -3.50803 1.4711 0
M  V30 96 H 7.3855 -4.6803 1.72479 0
M  V30 97 H 6.5395 -6.06428 -0.18151 0
M  V30 98 H 5.2785 -4.8481 -0.530163 0
M  V30 99 H 4.2835 -5.21355 1.74554 0
M  V30 100 H 5.5085 -6.46298 2.08509 0
M  V30 101 H 3.4545 -6.55812 -0.156914 0
M  V30 102 H 3.3715 -7.44178 1.33172 0
M  V30 103 H 4.6395 -7.79255 0.195462 0
M  V30 104 N 8.8686 -0.792821 -1.36206 0
M  V30 105 C 9.8316 -0.199459 -2.2833 0
M  V30 106 C 10.8316 0.605189 -1.48977 0
M  V30 107 O 12.0216 0.425685 -1.68919 0
M  V30 108 C 9.1536 0.723523 -3.33134 0
M  V30 109 H 10.3466 -1.01181 -2.82316 0
M  V30 110 H 7.8996 -0.562485 -1.45828 0
M  V30 111 H 8.6346 1.56008 -2.84309 0
M  V30 112 H 8.4196 0.148436 -3.91819 0
M  V30 113 H 9.9096 1.13344 -4.01924 0
M  V30 114 N 10.3467 1.47872 -0.545128 0
M  V30 115 C 11.2567 2.33633 0.212746 0
M  V30 116 C 12.2727 1.4744 0.923983 0
M  V30 117 O 13.4487 1.80393 0.895572 0
M  V30 118 C 10.5137 3.23884 1.23693 0
M  V30 119 C 9.5747 4.25961 0.534417 0
M  V30 120 C 8.8077 5.11899 1.5098 0
M  V30 121 O 9.0307 5.00077 2.7437 0
M  V30 122 O 7.9647 5.92831 1.0409 0
M  V30 123 H 11.7907 2.99714 -0.490416 0
M  V30 124 H 9.3757 1.46235 -0.305871 0
M  V30 125 H 11.2577 3.79666 1.82843 0
M  V30 126 H 9.9327 2.60446 1.92222 0
M  V30 127 H 8.8397 3.73972 -0.0979679 0
M  V30 128 H 10.1727 4.92079 -0.109213 0
M  V30 129 N 11.8248 0.280983 1.55075 0
M  V30 130 C 13.0708 -0.33461 2.00021 0
M  V30 131 C 13.4038 -1.55063 1.16915 0
M  V30 132 O 12.6788 -1.93006 0.240646 0
M  V30 133 C 12.9618 -0.711007 3.53011 0
M  V30 134 C 12.8148 0.512766 4.46868 0
M  V30 135 C 14.1338 -1.54522 4.12081 0
M  V30 136 H 11.2528 -0.120147 0.727141 0
M  V30 137 H 13.8948 0.389097 1.85973 0
M  V30 138 H 12.0448 -1.32761 3.65112 0
M  V30 139 H 13.7168 1.15131 4.46702 0
M  V30 140 H 11.9598 1.14975 4.18286 0
M  V30 141 H 12.6308 0.205556 5.51617 0
M  V30 142 H 15.1068 -1.02442 4.03293 0
M  V30 143 H 13.9828 -1.77739 5.19327 0
M  V30 144 H 14.2438 -2.52813 3.62682 0
M  V30 145 N 13.3029 -1.57598 0.00835791 0
M  V30 146 C 14.5429 -1.92788 -0.679136 0
M  V30 147 C 14.9069 -0.883378 -1.70471 0
M  V30 148 O 16.1079 -1.12079 -2.44319 0
M  V30 149 C 14.3789 -3.32994 -1.29807 0
M  V30 150 S 15.9379 -3.90082 -2.00952 0
M  V30 151 H 12.7559 -0.67475 -0.224127 0
M  V30 152 H 15.3579 -1.95385 0.0670497 0
M  V30 153 H 14.0619 -4.06846 -0.538922 0
M  V30 154 H 13.5929 -3.33791 -2.082 0
M  V30 155 H 15.6079 -3.71834 -3.28563 0
M  V30 156 N 14.781 0.264519 -1.55364 0
M  V30 157 C 15.714 1.35297 -1.83766 0
M  V30 158 C 16.692 1.47171 -0.691336 0
M  V30 159 O 17.876 1.63663 -0.935238 0
M  V30 160 C 15.003 2.72847 -2.00679 0
M  V30 161 C 14.049 2.78214 -3.23263 0
M  V30 162 S 14.882 2.36601 -4.80396 0
M  V30 163 C 16.038 3.7611 -5.00292 0
M  V30 164 H 16.271 1.11003 -2.758 0
M  V30 165 H 13.804 0.464596 -1.47244 0
M  V30 166 H 15.762 3.52057 -2.11108 0
M  V30 167 H 14.423 2.94388 -1.09518 0
M  V30 168 H 13.616 3.7919 -3.3201 0
M  V30 169 H 13.218 2.07034 -3.11469 0
M  V30 170 H 15.51 4.71457 -4.86554 0
M  V30 171 H 16.453 3.7231 -6.02321 0
M  V30 172 H 16.861 3.67806 -4.28228 0
M  V30 173 N 16.2591 1.48442 0.529413 0
M  V30 174 C 17.2221 1.62524 1.61612 0
M  V30 175 C 18.2221 0.498509 1.52877 0
M  V30 176 O 19.4121 0.76431 1.56537 0
M  V30 177 C 16.5441 1.59597 3.01233 0
M  V30 178 H 17.7371 2.59423 1.50465 0
M  V30 179 H 15.2901 1.37047 0.751514 0
M  V30 180 H 16.0251 0.641781 3.17886 0
M  V30 181 H 15.8101 2.41397 3.08982 0
M  V30 182 H 17.3001 1.72646 3.80241 0
M  V30 183 N 17.7372 -0.778329 1.37039 0
M  V30 184 C 18.9832 -1.53892 1.32079 0
M  V30 185 C 19.3162 -1.9396 -0.0965386 0
M  V30 186 O 18.5912 -1.63568 -1.05242 0
M  V30 187 C 18.8742 -2.80847 2.25382 0
M  V30 188 C 18.7272 -2.47076 3.75864 0
M  V30 189 C 20.0462 -3.82741 2.1725 0
M  V30 190 H 17.1652 -0.558303 0.48111 0
M  V30 191 H 19.8072 -0.893397 1.67685 0
M  V30 192 H 17.9572 -3.35931 1.95148 0
M  V30 193 H 19.6292 -1.97957 4.16666 0
M  V30 194 H 17.8722 -1.79863 3.94755 0
M  V30 195 H 18.5432 -3.37798 4.36574 0
M  V30 196 H 21.0192 -3.37133 2.43887 0
M  V30 197 H 19.8952 -4.69303 2.84686 0
M  V30 198 H 20.1562 -4.2652 1.16331 0
M  V30 199 N 19.2153 -1.21501 -1.00376 0
M  V30 200 C 20.6263 -1.03146 -1.55621 0
M  V30 201 C 20.9773 0.408375 -1.91903 0
M  V30 202 O 20.1023 1.29177 -1.73616 0
M  V30 203 C 20.6973 -1.86612 -2.82775 0
M  V30 204 C 19.2563 -1.72586 -3.34501 0
M  V30 205 C 18.4033 -1.83747 -2.07683 0
M  V30 206 H 21.3543 -1.35505 -0.826081 0
M  V30 207 H 21.3753 -1.3771 -3.54706 0
M  V30 208 H 20.8873 -2.91399 -2.56336 0
M  V30 209 H 18.9883 -0.704877 -3.65872 0
M  V30 210 H 19.1013 -2.54623 -4.05837 0
M  V30 211 H 17.4653 -1.27069 -2.20739 0
M  V30 212 H 18.2483 -2.90044 -1.83655 0
M  V30 213 N 20.6934 1.19889 -1.02296 0
M  V30 214 C 21.9394 1.89973 -0.726759 0
M  V30 215 C 22.2944 1.7776 0.73614 0
M  V30 216 O 21.5874 1.15523 1.52856 0
M  V30 217 C 21.7814 3.39883 -1.10518 0
M  V30 218 C 21.6104 3.66684 -2.60332 0
M  V30 219 C 20.3804 3.85045 -3.27213 0
M  V30 220 C 22.5784 3.68727 -3.58532 0
M  V30 221 N 20.5604 3.99422 -4.66192 0
M  V30 222 C 21.9314 3.88604 -4.83101 0
M  V30 223 C 23.9864 3.51722 -3.52414 0
M  V30 224 C 22.6894 3.9324 -6.02292 0
M  V30 225 C 24.7154 3.57632 -4.71013 0
M  V30 226 C 24.0774 3.77988 -5.94394 0
M  V30 227 H 20.1764 0.714551 -0.317712 0
M  V30 228 H 22.7604 1.44123 -1.30907 0
M  V30 229 H 20.9314 3.8447 -0.551142 0
M  V30 230 H 22.6634 3.97464 -0.761853 0
M  V30 231 H 19.4184 3.83689 -2.77632 0
M  V30 232 H 19.8424 4.10473 -5.38368 0
M  V30 233 H 24.4844 3.34945 -2.58015 0
M  V30 234 H 22.2024 4.08811 -6.97065 0
M  V30 235 H 25.7884 3.45773 -4.67902 0
M  V30 236 H 24.6684 3.82428 -6.8463 0
M  V30 237 N 22.1715 0.800033 1.35784 0
M  V30 238 C 23.1015 0.220184 2.3246 0
M  V30 239 C 24.0825 -0.65073 1.57161 0
M  V30 240 O 25.2675 -0.582359 1.85263 0
M  V30 241 C 22.3975 -0.637353 3.41402 0
M  V30 242 C 21.3515 0.134531 4.27789 0
M  V30 243 C 20.6775 -0.844285 5.27992 0
M  V30 244 C 21.9775 1.32979 5.05088 0
M  V30 245 H 23.6715 1.02787 2.81203 0
M  V30 246 H 21.2175 0.495717 1.35199 0
M  V30 247 H 23.1705 -1.05302 4.08031 0
M  V30 248 H 21.8945 -1.47785 2.91251 0
M  V30 249 H 20.5535 0.531296 3.6273 0
M  V30 250 H 20.2015 -1.68011 4.74111 0
M  V30 251 H 19.9015 -0.332184 5.8666 0
M  V30 252 H 21.4255 -1.2583 5.97494 0
M  V30 253 H 22.8395 0.98934 5.64699 0
M  V30 254 H 21.2365 1.77593 5.7322 0
M  V30 255 H 22.3065 2.11978 4.36111 0
M  V30 256 N 23.6496 -1.47581 0.552962 0
M  V30 257 C 24.8746 -2.07378 0.0300593 0
M  V30 258 C 25.2996 -1.40355 -1.25229 0
M  V30 259 O 24.6576 -0.477099 -1.7491 0
M  V30 260 C 24.7056 -3.60274 -0.153231 0
M  V30 261 O 23.8096 -3.94041 -1.21678 0
M  V30 262 H 23.1506 -0.662158 0.0494182 0
M  V30 263 H 25.6806 -1.89662 0.767434 0
M  V30 264 H 25.6906 -4.0633 -0.368761 0
M  V30 265 H 24.3656 -4.08455 0.783397 0
M  V30 266 H 22.9426 -3.59735 -0.982079 0
M  V30 267 N 25.1277 -0.289203 -1.54924 0
M  V30 268 C 26.0577 0.58549 -2.2604 0
M  V30 269 C 27.0387 1.14753 -1.25562 0
M  V30 270 O 28.2237 1.17906 -1.54311 0
M  V30 271 C 25.3537 1.76305 -2.99222 0
M  V30 272 C 24.3077 1.33191 -4.06748 0
M  V30 273 C 23.6337 2.5937 -4.6758 0
M  V30 274 C 24.9337 0.471775 -5.20165 0
M  V30 275 H 26.6277 -0.00763532 -2.99399 0
M  V30 276 H 24.1737 -0.00511229 -1.43999 0
M  V30 277 H 26.1267 2.38097 -3.47689 0
M  V30 278 H 24.8507 2.38223 -2.23422 0
M  V30 279 H 23.5097 0.737121 -3.59113 0
M  V30 280 H 23.1577 3.19576 -3.88433 0
M  V30 281 H 22.8577 2.31228 -5.40192 0
M  V30 282 H 24.3817 3.21985 -5.18804 0
M  V30 283 H 25.7957 0.995056 -5.64599 0
M  V30 284 H 24.1927 0.284639 -5.99425 0
M  V30 285 H 25.2627 -0.506041 -4.82252 0
M  V30 286 N 26.6058 1.57591 -0.0167156 0
M  V30 287 C 27.5378 2.06343 0.997753 0
M  V30 288 C 28.5508 0.984469 1.29661 0
M  V30 289 O 29.7398 1.26093 1.26344 0
M  V30 290 C 26.8398 2.46255 2.32834 0
M  V30 291 C 26.0128 3.77083 2.21646 0
M  V30 292 C 25.0718 4.0368 3.37534 0
M  V30 293 O 24.0978 4.7411 3.14973 0
M  V30 294 N 25.2998 3.52881 4.60929 0
M  V30 295 H 28.0648 2.93997 0.581875 0
M  V30 296 H 25.6258 1.61002 0.170316 0
M  V30 297 H 27.6178 2.61149 3.09166 0
M  V30 298 H 26.1878 1.64032 2.66106 0
M  V30 299 H 25.4078 3.72106 1.30119 0
M  V30 300 H 26.6958 4.62822 2.11361 0
M  V30 301 H 26.0938 2.95878 4.82154 0
M  V30 302 H 24.6508 3.73076 5.34469 0
M  V30 303 N 28.0839 -0.256276 1.55502 0
M  V30 304 C 29.4999 -0.604325 1.47716 0
M  V30 305 C 29.6999 -1.88763 0.705039 0
M  V30 306 O 28.7559 -2.51445 0.230613 0
M  V30 307 C 30.0689 -0.715756 2.92057 0
M  V30 308 C 31.6169 -0.808706 3.02372 0
M  V30 309 C 32.0919 -0.951777 4.48001 0
M  V30 310 N 33.5829 -1.01688 4.519 0
M  V30 311 C 34.3179 -1.14668 5.61817 0
M  V30 312 N 33.8139 -1.24261 6.81565 0
M  V30 313 N 35.6069 -1.1791 5.49594 0
M  V30 314 H 27.7579 0.586291 2.04148 0
M  V30 315 H 30.0209 0.201015 0.926443 0
M  V30 316 H 29.7269 0.157027 3.51349 0
M  V30 317 H 29.6009 -1.59071 3.42018 0
M  V30 318 H 31.9879 -1.67195 2.43166 0
M  V30 319 H 32.0689 0.0912063 2.55637 0
M  V30 320 H 31.7129 -0.0931291 5.07815 0
M  V30 321 H 31.6429 -1.86659 4.92408 0
M  V30 322 H 34.1339 -0.954468 3.65648 0
M  V30 323 H 34.4469 -1.34046 7.61086 0
M  V30 324 H 32.7919 -1.21236 6.84344 0
M  V30 325 H 35.9829 -1.10057 4.54978 0
M  V30 326 H 36.1559 -1.27681 6.35296 0
M  V30 327 N 29.562 -1.4872 -0.521534 0
M  V30 328 C 30.525 -1.63379 -1.60748 0
M  V30 329 C 31.525 -0.50661 -1.52611 0
M  V30 330 O 32.715 -0.772601 -1.5613 0
M  V30 331 C 29.847 -1.61192 -3.00383 0
M  V30 332 H 31.04 -2.60217 -1.49087 0
M  V30 333 H 28.593 -1.37444 -0.744235 0
M  V30 334 H 29.328 -0.65863 -3.17541 0
M  V30 335 H 29.113 -2.43032 -3.07698 0
M  V30 336 H 30.603 -1.7466 -3.7932 0
M  V30 337 N 31.0401 0.771051 -1.3745 0
M  V30 338 C 31.9721 1.89352 -1.29146 0
M  V30 339 C 32.9851 1.61477 -0.207124 0
M  V30 340 O 34.1741 1.72382 -0.463324 0
M  V30 341 C 31.2741 3.24596 -0.974195 0
M  V30 342 C 30.4471 3.80111 -2.16413 0
M  V30 343 C 29.5061 4.93832 -1.81703 0
M  V30 344 O 28.5321 5.09382 -2.54006 0
M  V30 345 N 29.7341 5.75483 -0.761573 0
M  V30 346 H 32.4991 1.96991 -2.25864 0
M  V30 347 H 30.0601 0.950191 -1.31084 0
M  V30 348 H 32.0521 3.98193 -0.722828 0
M  V30 349 H 30.6221 3.12454 -0.0955527 0
M  V30 350 H 29.8421 2.98284 -2.57721 0
M  V30 351 H 31.1301 4.13932 -2.95867 0
M  V30 352 H 30.5281 5.65469 -0.161609 0
M  V30 353 H 29.0851 6.49302 -0.570064 0
M  V30 354 N 32.5182 1.22032 0.997298 0
M  V30 355 C 33.4812 0.987909 2.06816 0
M  V30 356 C 34.4812 -0.0440084 1.6074 0
M  V30 357 O 35.6712 0.194053 1.73116 0
M  V30 358 C 32.8032 0.49132 3.37341 0
M  V30 359 H 33.9962 1.93803 2.28868 0
M  V30 360 H 31.5492 1.03838 1.16822 0
M  V30 361 H 32.2842 -0.463364 3.20973 0
M  V30 362 H 32.0692 1.23575 3.72118 0
M  V30 363 H 33.5592 0.348824 4.16141 0
M  V30 364 N 33.9963 -1.19345 1.0293 0
M  V30 365 C 34.9263 -2.2481 0.631105 0
M  V30 366 C 35.9073 -1.66245 -0.360104 0
M  V30 367 O 37.0923 -1.92677 -0.242726 0
M  V30 368 C 34.2223 -3.47295 -0.0184607 0
M  V30 369 C 33.1763 -4.18536 0.895073 0
M  V30 370 C 32.5023 -5.34586 0.110592 0
M  V30 371 C 33.8023 -4.73287 2.209 0
M  V30 372 H 35.4963 -2.58372 1.51275 0
M  V30 373 H 33.0423 -1.24194 0.728818 0
M  V30 374 H 34.9953 -4.20268 -0.308675 0
M  V30 375 H 33.7193 -3.12933 -0.934907 0
M  V30 376 H 32.3783 -3.47446 1.16949 0
M  V30 377 H 32.0263 -4.96469 -0.807902 0
M  V30 378 H 31.7263 -5.83183 0.719087 0
M  V30 379 H 33.2503 -6.10355 -0.172871 0
M  V30 380 H 34.6643 -5.38013 1.98028 0
M  V30 381 H 33.0613 -5.32373 2.76946 0
M  V30 382 H 34.1313 -3.91331 2.86336 0
M  V30 383 N 35.4744 -0.807222 -1.35358 0
M  V30 384 C 36.7224 -0.387122 -1.98358 0
M  V30 385 C 37.0434 1.04942 -1.64354 0
M  V30 386 O 36.3134 1.72615 -0.926339 0
M  V30 387 H 34.8934 -0.140154 -0.733734 0
M  V30 388 H 37.5554 -1.0332 -1.6526 0
M  V30 389 H 36.6514 -0.493352 -3.08176 0
M  V30 390 N 36.9525 1.47285 -0.560781 0
M  V30 391 C 38.1805 2.06855 -0.0430262 0
M  V30 392 C 38.5955 1.41291 1.25229 0
M  V30 393 O 37.9525 0.510648 1.7521 0
M  V30 394 C 38.0035 3.61178 0.152518 0
M  V30 395 O 37.7245 4.24285 -1.0915 0
M  V30 396 C 39.2255 4.37624 0.707145 0
M  V30 397 H 36.4455 0.669319 -0.0474652 0
M  V30 398 H 38.9895 1.89237 -0.77521 0
M  V30 399 H 37.1445 3.78298 0.834843 0
M  V30 400 H 37.5585 5.16868 -0.891482 0
M  V30 401 H 39.0325 5.46271 0.793244 0
M  V30 402 H 39.5095 4.04152 1.71923 0
M  V30 403 H 40.1155 4.25257 0.0604027 0
M  V30 404 N 38.4306 0.297415 1.54768 0
M  V30 405 C 39.8466 -0.0560823 1.59501 0
M  V30 406 C 40.0466 -1.52725 1.31444 0
M  V30 407 O 39.1026 -2.27947 1.08611 0
M  V30 408 C 40.4156 0.338631 2.98787 0
M  V30 409 C 41.9636 0.287097 3.11681 0
M  V30 410 C 42.4386 0.656579 4.53269 0
M  V30 411 N 43.9296 0.608977 4.59179 0
M  V30 412 C 44.6646 0.867385 5.66802 0
M  V30 413 N 44.1606 1.19157 6.82476 0
M  V30 414 N 45.9536 0.794687 5.56454 0
M  V30 415 H 38.1046 1.25624 1.71267 0
M  V30 416 H 40.3676 0.509057 0.799728 0
M  V30 417 H 40.0736 1.36263 3.2423 0
M  V30 418 H 39.9476 -0.309508 3.75928 0
M  V30 419 H 42.3346 -0.727649 2.85988 0
M  V30 420 H 42.4156 0.969809 2.36703 0
M  V30 421 H 42.0596 1.66912 4.7969 0
M  V30 422 H 41.9896 -0.0481649 5.26578 0
M  V30 423 H 44.4806 0.369198 3.76092 0
M  V30 424 H 44.7936 1.37482 7.60473 0
M  V30 425 H 43.1386 1.22958 6.84037 0
M  V30 426 H 46.3296 0.541098 4.64962 0
M  V30 427 H 46.5026 0.999445 6.40246 0
M  V30 428 N 39.9087 -1.5758 0.0250728 0
M  V30 429 C 40.8717 -2.08896 -0.943139 0
M  V30 430 C 41.8717 -1.00321 -1.25668 0
M  V30 431 O 43.0617 -1.26495 -1.19769 0
M  V30 432 C 40.1937 -2.55143 -2.26086 0
M  V30 433 H 41.3867 -2.95723 -0.498775 0
M  V30 434 H 38.9397 -1.54703 -0.222888 0
M  V30 435 H 39.6747 -1.71633 -2.75159 0
M  V30 436 H 39.4597 -3.34461 -2.04641 0
M  V30 437 H 40.9497 -2.95083 -2.95492 0
M  V30 438 N 41.3868 0.248026 -1.55636 0
M  V30 439 C 42.3498 1.29044 -1.89421 0
M  V30 440 C 43.3498 1.41134 -0.770581 0
M  V30 441 O 44.5398 1.39854 -1.03858 0
M  V30 442 C 41.6718 2.66831 -2.12165 0
M  V30 443 H 42.8648 1.00305 -2.82629 0
M  V30 444 H 40.4178 0.487265 -1.48511 0
M  V30 445 H 41.1528 3.00711 -1.21422 0
M  V30 446 H 40.9378 2.59438 -2.93997 0
M  V30 447 H 42.4278 3.42103 -2.3949 0
M  V30 448 N 42.8649 1.48995 0.513639 0
M  V30 449 C 44.2809 1.35478 0.843682 0
M  V30 450 C 44.4809 0.378213 1.97919 0
M  V30 451 O 43.5369 -0.194689 2.51748 0
M  V30 452 C 44.8499 2.75901 1.1958 0
M  V30 453 C 46.3979 2.84509 1.30474 0
M  V30 454 C 46.8729 4.25671 1.69021 0
M  V30 455 N 48.3639 4.28422 1.76094 0
M  V30 456 C 49.0989 5.34601 2.07338 0
M  V30 457 N 48.5949 6.5104 2.36894 0
M  V30 458 N 50.3879 5.22007 2.08483 0
M  V30 459 H 42.5389 2.11092 -0.235328 0
M  V30 460 H 44.8019 0.947039 -0.0426669 0
M  V30 461 H 44.5079 3.49001 0.434913 0
M  V30 462 H 44.3819 3.10467 2.1422 0
M  V30 463 H 46.7689 2.11655 2.05637 0
M  V30 464 H 46.8499 2.53542 0.339155 0
M  V30 465 H 46.4939 4.99048 0.944135 0
M  V30 466 H 46.4239 4.54094 2.66658 0
M  V30 467 H 48.9149 3.44441 1.55464 0
M  V30 468 H 49.2279 7.2779 2.59887 0
M  V30 469 H 47.5729 6.54287 2.34378 0
M  V30 470 H 50.7639 4.30051 1.84861 0
M  V30 471 H 50.9369 6.04854 2.325 0
M  V30 472 N 44.343 -0.763751 1.37857 0
M  V30 473 C 45.589 -1.52483 1.33704 0
M  V30 474 C 45.922 -1.94051 -0.0759612 0
M  V30 475 O 45.197 -1.64675 -1.03501 0
M  V30 476 C 45.48 -2.78441 2.28348 0
M  V30 477 C 45.333 -2.43075 3.78463 0
M  V30 478 C 46.652 -3.80415 2.21298 0
M  V30 479 H 43.771 -0.553169 0.487005 0
M  V30 480 H 46.413 -0.875562 1.68624 0
M  V30 481 H 44.563 -3.33842 1.987 0
M  V30 482 H 46.235 -1.93527 4.18742 0
M  V30 483 H 44.478 -1.75666 3.96641 0
M  V30 484 H 45.149 -3.33149 4.40132 0
M  V30 485 H 47.625 -3.34527 2.47449 0
M  V30 486 H 46.501 -4.66257 2.89647 0
M  V30 487 H 46.762 -4.25262 1.20849 0
M  V30 488 N 45.8211 -1.22559 -0.990812 0
M  V30 489 C 47.2321 -1.04791 -1.54518 0
M  V30 490 C 47.5831 0.387998 -1.92325 0
M  V30 491 O 46.7081 1.27328 -1.74976 0
M  V30 492 C 47.3031 -1.896 -2.80779 0
M  V30 493 C 45.8621 -1.76124 -3.32652 0
M  V30 494 C 45.0091 -1.8594 -2.05722 0
M  V30 495 H 47.9601 -1.36374 -0.811662 0
M  V30 496 H 47.9811 -1.41464 -3.53225 0
M  V30 497 H 47.4931 -2.94101 -2.53231 0
M  V30 498 H 45.5941 -0.743643 -3.65104 0
M  V30 499 H 45.7071 -2.58913 -4.03114 0
M  V30 500 H 44.0711 -1.29403 -2.19379 0
M  V30 501 H 44.8541 -2.91976 -1.80568 0
M  V30 502 N 47.2992 1.18797 -1.03562 0
M  V30 503 C 48.7152 1.40671 -0.753917 0
M  V30 504 C 48.9152 1.9043 0.658686 0
M  V30 505 O 47.9712 2.08538 1.42366 0
M  V30 506 C 49.2842 2.41192 -1.79574 0
M  V30 507 C 50.8322 2.54928 -1.81606 0
M  V30 508 C 51.3072 3.58709 -2.84766 0
M  V30 509 N 52.7982 3.66212 -2.83625 0
M  V30 510 C 53.5332 4.46225 -3.60098 0
M  V30 511 N 53.0292 5.29888 -4.46308 0
M  V30 512 N 54.8222 4.40939 -3.4861 0
M  V30 513 H 46.9732 0.848221 -1.94728 0
M  V30 514 H 49.2362 0.435081 -0.842264 0
M  V30 515 H 48.9422 2.11669 -2.80872 0
M  V30 516 H 48.8162 3.40467 -1.62365 0
M  V30 517 H 51.2032 2.83771 -0.809817 0
M  V30 518 H 51.2842 1.55784 -2.02891 0
M  V30 519 H 50.9282 3.30607 -3.85566 0
M  V30 520 H 50.8582 4.57519 -2.60737 0
M  V30 521 H 53.3492 3.06466 -2.21105 0
M  V30 522 H 53.6622 5.88078 -5.01382 0
M  V30 523 H 52.0072 5.29326 -4.50377 0
M  V30 524 H 55.1982 3.74624 -2.80668 0
M  V30 525 H 55.3712 5.03056 -4.08459 0
M  V30 526 N 48.7773 0.814389 1.34928 0
M  V30 527 C 50.0053 0.411136 2.02774 0
M  V30 528 C 50.4203 -0.980316 1.61354 0
M  V30 529 O 49.7773 -1.63299 0.814847 0
M  V30 530 C 49.8283 0.493865 3.58111 0
M  V30 531 O 49.5493 1.83047 3.98027 0
M  V30 532 C 51.0503 0.0844174 4.4322 0
M  V30 533 H 48.2703 0.166037 0.650133 0
M  V30 534 H 50.8143 1.10018 1.72384 0
M  V30 535 H 48.9693 -0.147006 3.87121 0
M  V30 536 H 49.3833 1.79872 4.92693 0
M  V30 537 H 50.8573 0.193404 5.51661 0
M  V30 538 H 51.3343 -0.97113 4.28329 0
M  V30 539 H 51.9403 0.69875 4.19521 0
M  V30 540 N 50.2554 -1.46986 0.568584 0
M  V30 541 C 51.5014 -2.02741 0.0488709 0
M  V30 542 C 51.8344 -1.44077 -1.30214 0
M  V30 543 O 51.1094 -0.600552 -1.84996 0
M  V30 544 C 51.3924 -3.60086 -0.032047 0
M  V30 545 C 51.2454 -4.29162 1.34686 0
M  V30 546 C 52.5644 -4.33838 -0.739798 0
M  V30 547 H 49.6834 -0.736749 0.0192338 0
M  V30 548 H 52.3254 -1.75289 0.733065 0
M  V30 549 H 50.4754 -3.83606 -0.61473 0
M  V30 550 H 52.1474 -4.16948 1.97362 0
M  V30 551 H 50.3904 -3.89073 1.91846 0
M  V30 552 H 51.0614 -5.37826 1.24285 0
M  V30 553 H 53.5374 -4.15378 -0.244939 0
M  V30 554 H 52.4134 -5.43537 -0.765406 0
M  V30 555 H 52.6744 -4.03875 -1.79827 0
M  V30 556 N 51.7335 -0.305618 -1.54608 0
M  V30 557 C 52.6635 0.561482 -2.26649 0
M  V30 558 C 53.6445 1.13415 -1.26772 0
M  V30 559 O 54.8295 1.16262 -1.55553 0
M  V30 560 C 51.9595 1.73122 -3.01075 0
M  V30 561 C 50.9135 1.2887 -4.08138 0
M  V30 562 C 50.2395 2.54396 -4.70305 0
M  V30 563 C 51.5395 0.416578 -5.20636 0
M  V30 564 H 53.2335 -0.0393902 -2.99374 0
M  V30 565 H 50.7795 -0.020385 -1.43986 0
M  V30 566 H 52.7325 2.34396 -3.50195 0
M  V30 567 H 51.4565 2.3584 -2.25936 0
M  V30 568 H 50.1155 0.698991 -3.59875 0
M  V30 569 H 49.7635 3.15439 -3.918 0
M  V30 570 H 49.4635 2.25486 -5.42614 0
M  V30 571 H 50.9875 3.16464 -5.2219 0
M  V30 572 H 52.4015 0.935116 -5.65622 0
M  V30 573 H 50.7985 0.221046 -5.99693 0
M  V30 574 H 51.8685 -0.557162 -4.81688 0
M  V30 575 N 53.2116 1.57565 -0.0334293 0
M  V30 576 C 54.6226 1.79746 0.504798 0
M  V30 577 C 54.9736 0.944091 1.71992 0
M  V30 578 O 54.0986 0.155694 2.15839 0
M  V30 579 C 54.6936 3.25997 0.922567 0
M  V30 580 C 53.2526 3.49159 1.40588 0
M  V30 581 C 52.3996 2.74785 0.372633 0
M  V30 582 H 55.3506 1.56565 -0.259436 0
M  V30 583 H 55.3716 3.35945 1.78666 0
M  V30 584 H 54.8836 3.88081 0.0379825 0
M  V30 585 H 52.9846 2.92332 2.31025 0
M  V30 586 H 53.0976 4.57873 1.41028 0
M  V30 587 H 51.4616 2.40391 0.841672 0
M  V30 588 H 52.2446 3.39587 -0.503559 0
M  V30 589 N 54.6897 -0.239769 1.55765 0
M  V30 590 C 55.9367 -0.966801 1.7793 0
M  V30 591 C 56.2647 -1.85046 0.599015 0
M  V30 592 O 55.5197 -1.91197 -0.417395 0
M  V30 593 C 55.8187 -1.852 3.05672 0
M  V30 594 C 55.4847 -1.1231 4.36689 0
M  V30 595 C 54.1467 -0.921689 4.72291 0
M  V30 596 C 56.4987 -0.607019 5.17653 0
M  V30 597 C 53.8267 -0.191996 5.86386 0
M  V30 598 C 56.1787 0.109241 6.32506 0
M  V30 599 C 54.8427 0.322073 6.66723 0
M  V30 600 H 54.1127 -0.353778 0.651093 0
M  V30 601 H 56.7597 -0.23634 1.90036 0
M  V30 602 H 55.0647 -2.64975 2.8861 0
M  V30 603 H 56.7617 -2.41635 3.20021 0
M  V30 604 H 53.3517 -1.29004 4.08725 0
M  V30 605 H 57.5357 -0.750153 4.90598 0
M  V30 606 H 52.7917 -0.0166949 6.11398 0
M  V30 607 H 56.9657 0.516737 6.9448 0
M  V30 608 H 54.5927 0.88944 7.54979 0
M  V30 609 N 56.1678 -1.49265 -0.50573 0
M  V30 610 C 57.0778 -1.68312 -1.63427 0
M  V30 611 C 58.0938 -0.565682 -1.64548 0
M  V30 612 O 59.2698 -0.839801 -1.83055 0
M  V30 613 C 56.3348 -1.74107 -2.99813 0
M  V30 614 C 55.3958 -2.97653 -3.09356 0
M  V30 615 C 54.6288 -3.03163 -4.39236 0
M  V30 616 O 54.8518 -2.16396 -5.27758 0
M  V30 617 O 53.7858 -3.9558 -4.53652 0
M  V30 618 H 57.6118 -2.63907 -1.50289 0
M  V30 619 H 55.1968 -1.32951 -0.681502 0
M  V30 620 H 57.0788 -1.803 -3.80881 0
M  V30 621 H 55.7538 -0.816901 -3.13223 0
M  V30 622 H 54.6608 -2.96981 -2.27493 0
M  V30 623 H 55.9938 -3.89535 -3.00871 0
M  V30 624 N 57.6459 0.756429 -1.3826 0
M  V30 625 C 58.6089 1.85176 -1.35065 0
M  V30 626 C 59.6089 1.58818 -0.251703 0
M  V30 627 O 60.7989 1.66615 -0.508433 0
M  V30 628 C 57.9309 3.22596 -1.10201 0
M  V30 629 H 59.1239 1.89417 -2.3251 0
M  V30 630 H 56.6769 0.95783 -1.23512 0
M  V30 631 H 57.4119 3.24025 -0.133504 0
M  V30 632 H 57.1969 3.43122 -1.89762 0
M  V30 633 H 58.6869 4.02673 -1.10654 0
M  V30 634 N 59.124 1.23083 0.984299 0
M  V30 635 C 60.057 0.951786 2.07404 0
M  V30 636 C 61.035 -0.10848 1.62238 0
M  V30 637 O 62.219 0.0249467 1.88483 0
M  V30 638 C 59.346 0.433142 3.35919 0
M  V30 639 C 58.392 1.47941 4.0002 0
M  V30 640 S 59.225 3.05556 4.39768 0
M  V30 641 C 60.381 2.55351 5.71442 0
M  V30 642 H 60.614 1.87456 2.30754 0
M  V30 643 H 58.147 1.06284 1.11996 0
M  V30 644 H 60.105 0.140506 4.10259 0
M  V30 645 H 58.766 -0.468656 3.10584 0
M  V30 646 H 57.959 1.06658 4.92585 0
M  V30 647 H 57.561 1.7212 3.3204 0
M  V30 648 H 59.853 1.97128 6.48187 0
M  V30 649 H 60.796 3.46441 6.17563 0
M  V30 650 H 61.204 1.96339 5.29255 0
M  V30 651 N 60.6021 -1.18246 1.0419 0
M  V30 652 C 62.0131 -1.69914 0.773698 0
M  V30 653 C 62.3641 -1.83085 -0.705297 0
M  V30 654 O 61.4891 -1.51123 -1.5489 0
M  V30 655 C 62.0841 -3.08619 1.39784 0
M  V30 656 C 60.6431 -3.57494 1.17792 0
M  V30 657 C 59.7901 -2.34013 1.48773 0
M  V30 658 H 62.7411 -1.02904 1.20816 0
M  V30 659 H 62.7621 -3.71958 0.801714 0
M  V30 660 H 62.2741 -2.99001 2.47426 0
M  V30 661 H 60.3751 -3.72406 0.120295 0
M  V30 662 H 60.4881 -4.40852 1.87581 0
M  V30 663 H 58.8521 -2.37986 0.907463 0
M  V30 664 H 59.6351 -2.27013 2.57527 0
M  V30 665 N 62.0802 -0.821533 -1.34494 0
M  V30 666 C 63.4962 -0.507117 -1.51329 0
M  V30 667 C 63.6962 0.968964 -1.76673 0
M  V30 668 O 62.7522 1.75348 -1.81685 0
M  V30 669 C 64.0652 -1.36544 -2.67911 0
M  V30 670 C 65.6132 -1.36242 -2.81793 0
M  V30 671 C 66.0882 -2.2052 -4.01416 0
M  V30 672 N 67.5792 -2.18136 -4.08621 0
M  V30 673 C 68.3142 -2.80095 -5.00334 0
M  V30 674 N 67.8102 -3.51039 -5.9728 0
M  V30 675 N 69.6032 -2.69656 -4.93196 0
M  V30 676 H 61.7542 -1.77729 -1.16302 0
M  V30 677 H 64.0172 -0.757291 -0.570276 0
M  V30 678 H 63.7232 -2.41361 -2.55808 0
M  V30 679 H 63.5972 -1.02917 -3.62888 0
M  V30 680 H 65.9842 -0.322041 -2.93338 0
M  V30 681 H 66.0652 -1.73866 -1.87628 0
M  V30 682 H 65.7092 -3.24607 -3.90631 0
M  V30 683 H 65.6392 -1.80247 -4.94791 0
M  V30 684 H 68.1302 -1.6653 -3.39229 0
M  V30 685 H 68.4432 -3.95565 -6.63889 0
M  V30 686 H 66.7882 -3.55145 -5.97409 0
M  V30 687 H 69.9792 -2.13808 -4.16418 0
M  V30 688 H 70.1522 -3.1823 -5.64476 0
M  V30 689 N 63.5583 1.46682 -0.576371 0
M  V30 690 C 64.9743 1.57822 -0.237562 0
M  V30 691 C 65.1743 1.57237 1.26011 0
M  V30 692 O 64.2303 1.48596 2.04146 0
M  V30 693 C 65.5433 2.87499 -0.881168 0
M  V30 694 C 67.0913 3.01119 -0.85417 0
M  V30 695 C 67.5663 4.33524 -1.4772 0
M  V30 696 N 69.0573 4.40207 -1.44125 0
M  V30 697 C 69.7923 5.4126 -1.89276 0
M  V30 698 N 69.2883 6.49021 -2.42371 0
M  V30 699 N 71.0813 5.32422 -1.80231 0
M  V30 700 H 63.2323 1.45306 -1.54919 0
M  V30 701 H 65.4953 0.692733 -0.647167 0
M  V30 702 H 65.2013 2.9372 -1.93447 0
M  V30 703 H 65.0753 3.75224 -0.385592 0
M  V30 704 H 67.4623 2.94485 0.190491 0
M  V30 705 H 67.5433 2.14887 -1.3877 0
M  V30 706 H 67.1873 4.40916 -2.52103 0
M  V30 707 H 67.1173 5.1852 -0.918947 0
M  V30 708 H 69.6083 3.62931 -1.05307 0
M  V30 709 H 69.9213 7.2233 -2.74698 0
M  V30 710 H 68.2663 6.49858 -2.46393 0
M  V30 711 H 71.4573 4.47137 -1.38514 0
M  V30 712 H 71.6303 6.11034 -2.15735 0
M  V30 713 N 65.0364 0.313813 1.54444 0
M  V30 714 C 66.4474 -0.176243 1.85866 0
M  V30 715 C 66.7984 -1.52405 1.23561 0
M  V30 716 O 65.9234 -2.09605 0.538016 0
M  V30 717 C 66.5184 -0.32657 3.37222 0
M  V30 718 C 65.0774 -0.760846 3.6863 0
M  V30 719 C 64.2244 0.123247 2.77026 0
M  V30 720 H 67.1754 0.534418 1.49431 0
M  V30 721 H 67.1964 -1.15908 3.62416 0
M  V30 722 H 66.7084 0.654531 3.82541 0
M  V30 723 H 64.8094 -1.75204 3.28838 0
M  V30 724 H 64.9224 -0.571353 4.75681 0
M  V30 725 H 63.2864 -0.399597 2.51546 0
M  V30 726 H 64.0694 1.10094 3.25168 0
M  V30 727 N 66.5145 -1.57545 0.0417849 0
M  V30 728 C 67.7625 -1.91937 -0.632829 0
M  V30 729 C 68.0835 -0.919978 -1.71934 0
M  V30 730 O 67.3535 0.0366064 -1.95866 0
M  V30 731 H 65.9335 -0.708493 -0.236742 0
M  V30 732 H 68.5955 -1.9468 0.0925745 0
M  V30 733 H 67.6915 -2.92912 -1.07746 0
M  V30 734 N 67.9926 0.231505 -1.5589 0
M  V30 735 C 68.9406 1.30649 -1.92441 0
M  V30 736 C 69.9346 1.49037 -0.805254 0
M  V30 737 O 71.1406 1.50329 -0.990007 0
M  V30 738 H 67.5156 0.437812 -0.611412 0
M  V30 739 H 69.4866 0.970973 -2.82161 0
M  V30 740 C 68.2356 2.65179 -2.24889 0
M  V30 741 H 67.5586 2.51835 -3.10514 0
M  V30 742 H 68.9986 3.39234 -2.54355 0
M  V30 743 C 67.4576 3.19439 -1.07054 0
M  V30 744 O 67.9876 4.00371 -0.326499 0
M  V30 745 N 66.1936 2.77675 -0.85703 0
M  V30 746 H 65.7406 2.11969 -1.46379 0
M  V30 747 H 65.6986 3.14321 -0.0703223 0
M  V30 748 N 69.4707 1.49531 0.497807 0
M  V30 749 C 70.8867 1.36365 0.829266 0
M  V30 750 C 71.0867 0.399184 1.97506 0
M  V30 751 O 70.1427 -0.167977 2.51941 0
M  V30 752 C 71.4557 2.77153 1.16647 0
M  V30 753 C 73.0037 2.85877 1.27449 0
M  V30 754 C 73.4787 4.2744 1.64497 0
M  V30 755 N 74.9697 4.30265 1.7154 0
M  V30 756 C 75.7047 5.3677 2.01656 0
M  V30 757 N 75.2007 6.53516 2.29976 0
M  V30 758 N 76.9937 5.24189 2.02934 0
M  V30 759 H 69.1447 2.10831 -0.257703 0
M  V30 760 H 71.4077 0.946534 -0.0527091 0
M  V30 761 H 71.1137 3.49442 0.397872 0
M  V30 762 H 70.9877 3.12722 2.10915 0
M  V30 763 H 73.3747 2.13824 2.0338 0
M  V30 764 H 73.4557 2.53887 0.312244 0
M  V30 765 H 73.0997 5.00021 0.891151 0
M  V30 766 H 73.0297 4.56896 2.61827 0
M  V30 767 H 75.5207 3.4607 1.51802 0
M  V30 768 H 75.8337 7.30506 2.52153 0
M  V30 769 H 74.1787 6.56737 2.27425 0
M  V30 770 H 77.3697 4.31988 1.80289 0
M  V30 771 H 77.5427 6.07286 2.26071 0
M  V30 772 N 70.9488 -0.749086 1.3866 0
M  V30 773 C 72.1948 -1.50959 1.36319 0
M  V30 774 C 72.5498 -1.92347 -0.0452451 0
M  V30 775 O 71.8428 -1.6289 -1.00884 0
M  V30 776 C 72.0368 -2.7712 2.25697 0
M  V30 777 C 71.8658 -2.48067 3.7509 0
M  V30 778 C 70.6358 -2.41062 4.44091 0
M  V30 779 C 72.8338 -2.14544 4.67414 0
M  V30 780 N 70.8158 -2.04331 5.78897 0
M  V30 781 C 72.1868 -1.88141 5.90765 0
M  V30 782 C 74.2418 -2.00892 4.55573 0
M  V30 783 C 72.9448 -1.49463 7.036 0
M  V30 784 C 74.9708 -1.63616 5.68317 0
M  V30 785 C 74.3328 -1.38088 6.90732 0
M  V30 786 H 70.4318 -0.551804 0.554108 0
M  V30 787 H 73.0158 -0.871886 1.74087 0
M  V30 788 H 71.1868 -3.38693 1.9011 0
M  V30 789 H 72.9188 -3.4321 2.1445 0
M  V30 790 H 69.6738 -2.57685 3.9736 0
M  V30 791 H 70.0978 -1.88598 6.502 0
M  V30 792 H 74.7398 -2.19301 3.61479 0
M  V30 793 H 72.4578 -1.29794 7.97608 0
M  V30 794 H 76.0438 -1.53678 5.61137 0
M  V30 795 H 74.9238 -1.09674 7.76493 0
M  V30 796 N 72.4269 -1.23603 -0.977757 0
M  V30 797 C 73.3569 -1.04401 -2.0886 0
M  V30 798 C 74.3379 0.0399052 -1.70053 0
M  V30 799 O 75.5229 -0.125246 -1.93796 0
M  V30 800 C 72.6529 -0.637269 -3.41403 0
M  V30 801 C 71.6069 -1.66883 -3.94124 0
M  V30 802 C 70.9329 -1.11745 -5.22893 0
M  V30 803 C 72.2329 -3.06247 -4.23096 0
M  V30 804 H 73.9269 -1.97316 -2.25182 0
M  V30 805 H 71.4729 -0.950096 -1.08209 0
M  V30 806 H 73.4259 -0.48998 -4.18542 0
M  V30 807 H 72.1499 0.327557 -3.24953 0
M  V30 808 H 70.8089 -1.80416 -3.19133 0
M  V30 809 H 70.4569 -0.143527 -5.02795 0
M  V30 810 H 70.1569 -1.80672 -5.59134 0
M  V30 811 H 71.6809 -0.982067 -6.02651 0
M  V30 812 H 73.0949 -2.96001 -4.90975 0
M  V30 813 H 71.4919 -3.72436 -4.70544 0
M  V30 814 H 72.5619 -3.55041 -3.30263 0
M  V30 815 N 73.905 1.17692 -1.04816 0
M  V30 816 C 75.321 1.39863 -0.768794 0
M  V30 817 C 75.521 1.91118 0.638451 0
M  V30 818 O 74.577 2.10036 1.40146 0
M  V30 819 C 75.89 2.39274 -1.82122 0
M  V30 820 C 77.438 2.52987 -1.843 0
M  V30 821 C 77.913 3.55669 -2.88555 0
M  V30 822 N 79.404 3.63183 -2.87493 0
M  V30 823 C 80.139 4.42381 -3.64811 0
M  V30 824 N 79.635 5.25125 -4.51903 0
M  V30 825 N 81.428 4.37217 -3.53267 0
M  V30 826 H 73.579 0.82752 -1.95617 0
M  V30 827 H 75.842 0.426123 -0.846831 0
M  V30 828 H 75.548 2.08678 -2.83102 0
M  V30 829 H 75.422 3.38725 -1.65967 0
M  V30 830 H 77.809 2.82896 -0.839869 0
M  V30 831 H 77.89 1.53623 -2.04532 0
M  V30 832 H 77.534 3.26499 -3.89051 0
M  V30 833 H 77.464 4.54728 -2.65575 0
M  V30 834 H 79.955 3.04103 -2.24343 0
M  V30 835 H 80.268 5.82728 -5.07591 0
M  V30 836 H 78.613 5.24519 -4.55966 0
M  V30 837 H 81.804 3.71626 -2.84625 0
M  V30 838 H 81.977 4.98696 -4.13771 0
M  V30 839 N 75.3831 0.828654 1.34056 0
M  V30 840 C 76.3131 0.269443 2.3194 0
M  V30 841 C 77.2941 -0.617247 1.58506 0
M  V30 842 O 78.4791 -0.542931 1.86456 0
M  V30 843 C 75.6091 -0.564793 3.42677 0
M  V30 844 C 74.5631 0.225241 4.27407 0
M  V30 845 C 73.8891 -0.7321 5.29664 0
M  V30 846 C 75.1891 1.43663 5.02154 0
M  V30 847 H 76.8831 1.08728 2.7896 0
M  V30 848 H 74.4291 0.524283 1.34117 0
M  V30 849 H 76.3821 -0.966233 4.10173 0
M  V30 850 H 75.1061 -1.41574 2.9432 0
M  V30 851 H 73.7651 0.608117 3.61521 0
M  V30 852 H 73.4131 -1.57916 4.77568 0
M  V30 853 H 73.1131 -0.20767 5.87233 0
M  V30 854 H 74.6371 -1.13128 6.00029 0
M  V30 855 H 76.0511 1.1089 5.62473 0
M  V30 856 H 74.4481 1.89711 5.69324 0
M  V30 857 H 75.5181 2.21181 4.31517 0
M  V30 858 N 76.8612 -1.46375 0.584142 0
M  V30 859 C 77.7912 -2.33103 -0.136037 0
M  V30 860 C 78.7722 -1.45431 -0.882255 0
M  V30 861 O 79.9572 -1.74246 -0.857434 0
M  V30 862 C 77.0872 -3.27731 -1.14933 0
M  V30 863 C 76.0412 -4.24855 -0.517862 0
M  V30 864 C 75.3672 -5.09001 -1.63773 0
M  V30 865 C 76.6672 -5.19439 0.545886 0
M  V30 866 H 78.3612 -2.93568 0.588086 0
M  V30 867 H 75.9072 -1.41166 0.284259 0
M  V30 868 H 77.8602 -3.87261 -1.66153 0
M  V30 869 H 76.5842 -2.65377 -1.90375 0
M  V30 870 H 75.2432 -3.6659 -0.0267361 0
M  V30 871 H 74.8912 -4.43031 -2.38185 0
M  V30 872 H 74.5912 -5.74777 -1.22085 0
M  V30 873 H 76.1152 -5.71396 -2.15266 0
M  V30 874 H 77.5292 -5.73177 0.118704 0
M  V30 875 H 75.9262 -5.93566 0.88317 0
M  V30 876 H 76.9962 -4.63285 1.43162 0
M  V30 877 N 78.3393 -0.321999 -1.54275 0
M  V30 878 C 79.2713 0.578671 -2.21775 0
M  V30 879 C 80.2843 1.08109 -1.21722 0
M  V30 880 O 81.4733 0.994938 -1.482 0
M  V30 881 C 78.5733 1.80661 -2.86731 0
M  V30 882 C 77.7463 1.44314 -4.12907 0
M  V30 883 C 76.8053 2.52845 -4.61472 0
M  V30 884 O 75.8313 2.17054 -5.2619 0
M  V30 885 N 77.0333 3.83748 -4.35566 0
M  V30 886 H 79.7983 0.000709447 -2.997 0
M  V30 887 H 77.3593 -0.145132 -1.61248 0
M  V30 888 H 79.3513 2.52655 -3.16145 0
M  V30 889 H 77.9213 2.29245 -2.12521 0
M  V30 890 H 77.1413 0.554906 -3.90275 0
M  V30 891 H 78.4293 1.17598 -4.95023 0
M  V30 892 H 77.8273 4.15625 -3.83761 0
M  V30 893 H 76.3843 4.51977 -4.69638 0
M  V30 894 N 79.8174 1.5752 -0.0501392 0
M  V30 895 C 81.0664 1.91827 0.623328 0
M  V30 896 C 81.3794 0.930222 1.72065 0
M  V30 897 O 82.5854 1.1653 2.4522 0
M  V30 898 C 81.0414 3.40692 1.16003 0
M  V30 899 C 80.6494 4.479 0.0948811 0
M  V30 900 C 82.3934 3.84034 1.80881 0
M  V30 901 C 80.3004 5.87879 0.644411 0
M  V30 902 H 79.2304 0.715918 0.236596 0
M  V30 903 H 81.8814 1.83115 -0.118861 0
M  V30 904 H 80.2634 3.44405 1.9545 0
M  V30 905 H 81.4374 4.55775 -0.678675 0
M  V30 906 H 79.7524 4.13892 -0.45637 0
M  V30 907 H 82.3494 4.85984 2.22988 0
M  V30 908 H 82.6924 3.20225 2.6601 0
M  V30 909 H 83.2254 3.82833 1.0809 0
M  V30 910 H 79.9644 6.55282 -0.169229 0
M  V30 911 H 79.4844 5.83567 1.38598 0
M  V30 912 H 81.1634 6.37098 1.12763 0
M  V30 913 N 81.2955 -0.223234 1.56011 0
M  V30 914 C 82.5415 -0.944891 1.8012 0
M  V30 915 C 82.8965 -1.82039 0.622862 0
M  V30 916 O 82.1895 -1.8773 -0.383143 0
M  V30 917 C 82.3835 -1.81948 3.0762 0
M  V30 918 C 82.2125 -1.03014 4.37742 0
M  V30 919 C 80.9825 -0.72574 5.00061 0
M  V30 920 C 83.1805 -0.396256 5.12771 0
M  V30 921 N 81.1625 0.0851816 6.13841 0
M  V30 922 C 82.5335 0.278137 6.19376 0
M  V30 923 C 84.5885 -0.309117 4.9694 0
M  V30 924 C 83.2915 1.03133 7.11868 0
M  V30 925 C 85.3175 0.430607 5.8983 0
M  V30 926 C 84.6795 1.09355 6.9586 0
M  V30 927 H 80.7785 -0.326081 0.710771 0
M  V30 928 H 83.3625 -0.215914 1.93499 0
M  V30 929 H 81.5335 -2.52029 2.95527 0
M  V30 930 H 83.2655 -2.47848 3.19927 0
M  V30 931 H 80.0205 -1.04335 4.61964 0
M  V30 932 H 80.4445 0.479428 6.753 0
M  V30 933 H 85.0865 -0.807313 4.15021 0
M  V30 934 H 82.8045 1.54105 7.9327 0
M  V30 935 H 86.3905 0.499012 5.79656 0
M  V30 936 H 85.2705 1.65679 7.66499 0
M  V30 937 N 82.7736 -1.49793 -0.48987 0
M  V30 938 C 84.1896 -1.36803 -0.822022 0
M  V30 939 C 84.3896 -0.409652 -1.97292 0
M  V30 940 O 83.4456 0.154614 -2.52026 0
M  V30 941 C 84.7586 -2.77768 -1.15175 0
M  V30 942 C 86.3066 -2.86549 -1.25931 0
M  V30 943 C 86.7816 -4.28306 -1.62228 0
M  V30 944 N 88.2726 -4.31169 -1.69256 0
M  V30 945 C 89.0076 -5.37832 -1.98807 0
M  V30 946 N 88.5036 -6.54726 -2.26507 0
M  V30 947 N 90.2966 -5.25258 -2.00152 0
M  V30 948 H 82.4476 -2.10691 0.268881 0
M  V30 949 H 84.7106 -0.946241 0.057728 0
M  V30 950 H 84.4166 -3.49648 -0.379335 0
M  V30 951 H 84.2906 -3.13836 -2.09253 0
M  V30 952 H 86.6776 -2.14899 -2.02243 0
M  V30 953 H 86.7586 -2.54049 -0.298776 0
M  V30 954 H 86.4026 -5.00486 -0.864622 0
M  V30 955 H 86.3326 -4.58279 -2.594 0
M  V30 956 H 88.8236 -3.4687 -1.49965 0
M  V30 957 H 89.1366 -7.31833 -2.48276 0
M  V30 958 H 87.4816 -6.57933 -2.23939 0
M  V30 959 H 90.6726 -4.32938 -1.77996 0
M  V30 960 H 90.8456 -6.08476 -2.22848 0
M  V30 961 N 84.2517 0.741722 -1.39055 0
M  V30 962 C 85.1617 1.88621 -1.39496 0
M  V30 963 C 86.1777 1.71557 -0.290578 0
M  V30 964 O 87.3537 1.94275 -0.530954 0
M  V30 965 C 84.4187 3.24134 -1.23037 0
M  V30 966 C 83.4797 3.5364 -2.43387 0
M  V30 967 C 82.7127 4.82687 -2.27703 0
M  V30 968 O 82.9357 5.55922 -1.27696 0
M  V30 969 O 81.8697 5.1194 -3.16545 0
M  V30 970 H 85.6957 1.91203 -2.35956 0
M  V30 971 H 83.2807 0.888625 -1.20099 0
M  V30 972 H 85.1627 4.0513 -1.15964 0
M  V30 973 H 83.8377 3.22337 -0.296691 0
M  V30 974 H 82.7447 2.72758 -2.56035 0
M  V30 975 H 84.0777 3.60209 -3.35425 0
M  V30 976 N 85.7298 1.2412 0.971189 0
M  V30 977 C 86.6618 0.988349 2.06795 0
M  V30 978 C 87.6748 -0.0409541 1.62748 0
M  V30 979 O 88.8638 0.195673 1.77424 0
M  V30 980 C 85.9638 0.469023 3.35639 0
M  V30 981 C 85.1368 1.56065 4.08611 0
M  V30 982 C 84.1958 1.04458 5.15728 0
M  V30 983 O 83.2218 1.73553 5.42096 0
M  V30 984 N 84.4238 -0.122817 5.8037 0
M  V30 985 H 87.1888 1.93265 2.29061 0
M  V30 986 H 84.7498 1.15102 1.13856 0
M  V30 987 H 86.7418 0.108613 4.04554 0
M  V30 988 H 85.3118 -0.380919 3.1027 0
M  V30 989 H 84.5318 2.09341 3.34021 0
M  V30 990 H 85.8198 2.29449 4.54126 0
M  V30 991 H 85.2178 -0.700563 5.61345 0
M  V30 992 H 83.7748 -0.424404 6.50417 0
M  V30 993 N 87.2079 -1.17134 1.05439 0
M  V30 994 C 88.4559 -1.87085 0.764429 0
M  V30 995 C 88.7769 -1.81584 -0.710787 0
M  V30 996 O 88.0469 -1.24349 -1.51374 0
M  V30 997 H 86.6269 -0.692627 0.279779 0
M  V30 998 H 89.2889 -1.42087 1.33406 0
M  V30 999 H 88.3849 -2.92759 1.0816 0
M  V30 1000 N 88.686 -0.835752 -1.33615 0
M  V30 1001 C 89.916 -0.442701 -2.01801 0
M  V30 1002 C 90.324 0.959807 -1.63047 0
M  V30 1003 O 89.667 1.63468 -0.838088 0
M  V30 1004 C 89.729 -0.480125 -3.56279 0
M  V30 1005 C 89.393 -1.8382 -4.18401 0
M  V30 1006 C 90.39 -2.80097 -4.37998 0
M  V30 1007 C 88.075 -2.13019 -4.54894 0
M  V30 1008 C 90.069 -4.03736 -4.9323 0
M  V30 1009 C 87.756 -3.36916 -5.09834 0
M  V30 1010 C 88.754 -4.32091 -5.28948 0
M  V30 1011 O 88.442 -5.53797 -5.82721 0
M  V30 1012 H 88.174 -0.17441 -0.653114 0
M  V30 1013 H 90.728 -1.129 -1.71589 0
M  V30 1014 H 88.958 0.262931 -3.85805 0
M  V30 1015 H 90.647 -0.105335 -4.05763 0
M  V30 1016 H 91.413 -2.58838 -4.10156 0
M  V30 1017 H 87.292 -1.39733 -4.39313 0
M  V30 1018 H 90.836 -4.78034 -5.08064 0
M  V30 1019 H 86.733 -3.58033 -5.37106 0
M  V30 1020 H 87.501 -5.55494 -6.0114 0
M  V30 1021 N 90.1641 1.46063 -0.591896 0
M  V30 1022 C 91.0741 2.34192 0.13831 0
M  V30 1023 C 92.0901 1.50305 0.876608 0
M  V30 1024 O 93.2661 1.8315 0.837728 0
M  V30 1025 C 90.3311 3.27656 1.13326 0
M  V30 1026 C 89.3921 4.27445 0.39863 0
M  V30 1027 C 88.6251 5.16443 1.34618 0
M  V30 1028 O 88.8481 5.08553 2.58321 0
M  V30 1029 O 87.7821 5.95843 0.851768 0
M  V30 1030 H 91.6081 2.98002 -0.58552 0
M  V30 1031 H 89.1931 1.45188 -0.352239 0
M  V30 1032 H 91.0751 3.85291 1.70671 0
M  V30 1033 H 89.7501 2.6643 1.83839 0
M  V30 1034 H 88.6571 3.73471 -0.216895 0
M  V30 1035 H 89.9901 4.91482 -0.265709 0
M  V30 1036 N 91.6422 0.330177 1.54103 0
M  V30 1037 C 92.9192 -0.325007 1.92881 0
M  V30 1038 C 93.2992 -1.6934 1.26045 0
M  V30 1039 O 92.6472 -2.24855 0.406526 0
M  V30 1040 C 92.8572 -0.410634 3.46576 0
M  V30 1041 C 94.2052 -0.667801 4.19316 0
M  V30 1042 O 95.2292 -0.49329 3.52768 0
M  V30 1043 O 94.0882 -1.00491 5.37181 0
M  V30 1044 H 91.1822 -0.186873 0.80561 0
M  V30 1045 H 93.7282 0.380376 1.65382 0
M  V30 1046 H 92.5002 0.550164 3.87413 0
M  V30 1047 H 92.1232 -1.16333 3.802 0
M  V30 1048 N 93.1203 -1.57491 0.0584922 0
M  V30 1049 C 94.0503 -2.14988 -0.911178 0
M  V30 1050 C 95.0313 -1.07343 -1.31952 0
M  V30 1051 O 96.2163 -1.35318 -1.39294 0
M  V30 1052 C 93.3463 -2.70078 -2.18347 0
M  V30 1053 C 92.3003 -3.82771 -1.91495 0
M  V30 1054 C 91.6263 -4.24408 -3.25241 0
M  V30 1055 C 92.9263 -5.07592 -1.23075 0
M  V30 1056 H 94.6203 -2.96263 -0.432246 0
M  V30 1057 H 92.1663 -1.42512 -0.206469 0
M  V30 1058 H 94.1193 -3.08943 -2.86587 0
M  V30 1059 H 92.8433 -1.86005 -2.68458 0
M  V30 1060 H 91.5023 -3.44389 -1.25664 0
M  V30 1061 H 91.1503 -3.37275 -3.73168 0
M  V30 1062 H 90.8503 -5.00366 -3.08071 0
M  V30 1063 H 92.3743 -4.65879 -3.94701 0
M  V30 1064 H 93.7883 -5.43857 -1.81362 0
M  V30 1065 H 92.1853 -5.88741 -1.16207 0
M  V30 1066 H 93.2553 -4.84454 -0.207847 0
M  V30 1067 N 94.5984 0.214957 -1.56127 0
M  V30 1068 C 95.5484 1.27006 -1.8935 0
M  V30 1069 C 96.5324 1.41969 -0.757202 0
M  V30 1070 O 97.7244 1.44673 -1.01973 0
M  V30 1071 C 94.8534 2.61911 -2.2194 0
M  V30 1072 C 93.9394 2.50822 -3.41978 0
M  V30 1073 N 94.3304 2.09391 -4.60423 0
M  V30 1074 C 92.6284 2.81765 -3.45723 0
M  V30 1075 C 93.3294 2.09712 -5.42582 0
M  V30 1076 N 92.3054 2.50454 -4.82466 0
M  V30 1077 H 96.1074 0.940734 -2.78437 0
M  V30 1078 H 93.6214 0.423492 -1.56781 0
M  V30 1079 H 95.6184 3.38096 -2.43919 0
M  V30 1080 H 94.2784 2.95684 -1.34169 0
M  V30 1081 H 95.2894 1.80416 -4.85459 0
M  V30 1082 H 91.9664 3.19865 -2.68314 0
M  V30 1083 H 93.3564 1.79748 -6.4741 0
M  V30 1084 N 96.0765 1.50051 0.48192 0
M  V30 1085 C 97.0065 1.71046 1.58951 0
M  V30 1086 C 97.9875 0.559288 1.60642 0
M  V30 1087 O 99.1725 0.797243 1.77081 0
M  V30 1088 C 96.3025 1.79462 2.97339 0
M  V30 1089 C 95.2565 2.94558 3.10515 0
M  V30 1090 C 94.5825 2.88105 4.50444 0
M  V30 1091 C 95.8825 4.35227 2.88747 0
M  V30 1092 H 97.5765 2.6378 1.41635 0
M  V30 1093 H 95.1225 1.26936 0.679942 0
M  V30 1094 H 97.0755 1.92734 3.74742 0
M  V30 1095 H 95.7995 0.833412 3.15788 0
M  V30 1096 H 94.4585 2.80918 2.35543 0
M  V30 1097 H 94.1065 1.89853 4.65795 0
M  V30 1098 H 93.8065 3.65366 4.60197 0
M  V30 1099 H 95.3305 3.03412 5.29881 0
M  V30 1100 H 96.7445 4.49449 3.55905 0
M  V30 1101 H 95.1415 5.13856 3.09955 0
M  V30 1102 H 96.2115 4.48347 1.84696 0
M  V30 1103 N 97.5546 -0.734337 1.39446 0
M  V30 1104 C 98.4646 -1.87879 1.40495 0
M  V30 1105 C 99.4806 -1.714 0.299672 0
M  V30 1106 O 100.657 -1.93991 0.541249 0
M  V30 1107 C 97.7216 -3.23477 1.24754 0
M  V30 1108 C 96.7826 -3.52344 2.45259 0
M  V30 1109 C 96.0156 -4.81473 2.30259 0
M  V30 1110 O 96.2386 -5.55237 1.30643 0
M  V30 1111 O 95.1726 -5.10254 3.19256 0
M  V30 1112 H 98.9986 -1.89949 2.36966 0
M  V30 1113 H 96.5836 -0.882243 1.20569 0
M  V30 1114 H 98.4656 -4.04509 1.18111 0
M  V30 1115 H 97.1406 -3.22176 0.313781 0
M  V30 1116 H 96.0476 -2.71396 2.57478 0
M  V30 1117 H 97.3806 -3.58426 3.37331 0
M  V30 1118 N 99.0327 -1.24633 -0.964593 0
M  V30 1119 C 100.279 -1.08949 -1.71049 0
M  V30 1120 C 100.612 0.370302 -1.90637 0
M  V30 1121 O 99.8867 1.27349 -1.47011 0
M  V30 1122 C 100.17 -1.83329 -3.0994 0
M  V30 1123 C 100.023 -3.37077 -2.97824 0
M  V30 1124 C 101.342 -1.60846 -4.09654 0
M  V30 1125 H 98.4607 -0.397178 -0.620821 0
M  V30 1126 H 101.103 -1.5334 -1.12191 0
M  V30 1127 H 99.2527 -1.45597 -3.60186 0
M  V30 1128 H 100.925 -3.84425 -2.5498 0
M  V30 1129 H 99.1677 -3.65298 -2.33965 0
M  V30 1130 H 99.8387 -3.84324 -3.96231 0
M  V30 1131 H 102.315 -1.93674 -3.68279 0
M  V30 1132 H 101.191 -2.1534 -5.04896 0
M  V30 1133 H 101.452 -0.547434 -4.38698 0
M  V30 1134 N 100.511 1.16574 -1.06058 0
M  V30 1135 C 101.461 2.18854 -0.63929 0
M  V30 1136 C 102.445 1.57505 0.328798 0
M  V30 1137 O 103.637 1.76408 0.144623 0
M  V30 1138 C 100.766 3.43291 -0.0247203 0
M  V30 1139 C 99.8518 4.11722 -1.01716 0
M  V30 1140 N 100.243 4.55841 -2.19186 0
M  V30 1141 C 98.5408 4.37872 -0.847569 0
M  V30 1142 C 99.2418 5.08751 -2.82042 0
M  V30 1143 N 98.2178 5.01489 -2.09784 0
M  V30 1144 H 102.02 2.5068 -1.53417 0
M  V30 1145 H 99.5338 1.32999 -0.931935 0
M  V30 1146 H 101.531 4.15856 0.294915 0
M  V30 1147 H 100.191 3.12954 0.865448 0
M  V30 1148 H 101.202 4.49649 -2.56975 0
M  V30 1149 H 97.8788 4.17499 -0.00918848 0
M  V30 1150 H 99.2688 5.52944 -3.81709 0
M  V30 1151 N 101.989 0.842826 1.3317 0
M  V30 1152 C 102.921 0.236245 2.27979 0
M  V30 1153 C 103.934 -0.585282 1.51915 0
M  V30 1154 O 105.123 -0.411705 1.73687 0
M  V30 1155 C 102.223 -0.685717 3.3189 0
M  V30 1156 C 101.396 0.0973448 4.37292 0
M  V30 1157 C 100.455 -0.748565 5.20848 0
M  V30 1158 O 99.4809 -0.186339 5.68895 0
M  V30 1159 N 100.683 -2.06527 5.42519 0
M  V30 1160 H 103.448 1.05088 2.80672 0
M  V30 1161 H 101.009 0.701667 1.45905 0
M  V30 1162 H 103.001 -1.25669 3.84694 0
M  V30 1163 H 101.571 -1.40105 2.79445 0
M  V30 1164 H 100.791 0.849706 3.84933 0
M  V30 1165 H 102.079 0.635643 5.04814 0
M  V30 1166 H 101.477 -2.54554 5.05192 0
M  V30 1167 H 100.034 -2.58464 5.98364 0
M  V30 1168 N 103.467 -1.45747 0.599634 0
M  V30 1169 C 104.695 -2.06668 0.0978551 0
M  V30 1170 C 105.11 -1.44562 -1.21439 0
M  V30 1171 O 104.467 -0.556923 -1.73795 0
M  V30 1172 C 104.518 -3.61456 -0.0567044 0
M  V30 1173 O 104.239 -4.21242 1.20361 0
M  V30 1174 C 105.74 -4.39345 -0.590869 0
M  V30 1175 H 102.96 -0.667825 0.0651943 0
M  V30 1176 H 105.504 -1.87115 0.82511 0
M  V30 1177 H 103.659 -3.80378 -0.734251 0
M  V30 1178 H 104.073 -5.14323 1.02821 0
M  V30 1179 H 105.547 -5.48182 -0.648131 0
M  V30 1180 H 106.024 -4.08568 -1.61147 0
M  V30 1181 H 106.63 -4.25268 0.0523679 0
M  V30 1182 N 104.945 -0.338344 -1.53925 0
M  V30 1183 C 106.192 0.259758 -2.00827 0
M  V30 1184 C 106.52 1.50973 -1.22628 0
M  V30 1185 O 105.775 1.93379 -0.300509 0
M  V30 1186 C 106.074 0.62448 -3.51902 0
M  V30 1187 C 105.74 -0.528006 -4.47798 0
M  V30 1188 C 104.402 -0.844298 -4.73735 0
M  V30 1189 C 106.754 -1.30143 -5.0469 0
M  V30 1190 C 104.082 -1.93648 -5.53821 0
M  V30 1191 C 106.434 -2.38382 -5.85967 0
M  V30 1192 C 105.098 -2.70576 -6.10201 0
M  V30 1193 H 104.368 0.0950523 -0.734878 0
M  V30 1194 H 107.015 -0.465182 -1.85764 0
M  V30 1195 H 105.32 1.43006 -3.64769 0
M  V30 1196 H 107.017 1.09905 -3.85645 0
M  V30 1197 H 103.607 -0.271421 -4.2774 0
M  V30 1198 H 107.791 -1.07033 -4.84621 0
M  V30 1199 H 103.047 -2.19021 -5.70824 0
M  V30 1200 H 107.221 -2.98746 -6.29066 0
M  V30 1201 H 104.848 -3.55333 -6.72044 0
M  V30 1202 N 106.423 1.57458 -0.0668435 0
M  V30 1203 C 107.355 2.09413 0.931601 0
M  V30 1204 C 108.368 1.02522 1.26464 0
M  V30 1205 O 109.557 1.30049 1.22269 0
M  V30 1206 C 106.657 2.53537 2.24882 0
M  V30 1207 C 105.83 3.83944 2.09537 0
M  V30 1208 C 104.889 4.14214 3.2452 0
M  V30 1209 O 103.915 4.83891 2.9973 0
M  V30 1210 N 105.117 3.67367 4.49469 0
M  V30 1211 H 107.882 2.95699 0.488048 0
M  V30 1212 H 105.443 1.61462 0.119009 0
M  V30 1213 H 107.435 2.70853 3.00701 0
M  V30 1214 H 106.005 1.72415 2.60753 0
M  V30 1215 H 105.225 3.76057 1.18215 0
M  V30 1216 H 106.513 4.69312 1.96529 0
M  V30 1217 H 105.911 3.11068 4.72497 0
M  V30 1218 H 104.468 3.89891 5.2233 0
M  V30 1219 N 107.901 -0.206675 1.56239 0
M  V30 1220 C 108.811 -1.27686 1.96808 0
M  V30 1221 C 109.827 -1.50455 0.874035 0
M  V30 1222 O 111.003 -1.63295 1.17884 0
M  V30 1223 C 108.068 -2.60358 2.28942 0
M  V30 1224 C 107.129 -2.45762 3.51994 0
M  V30 1225 C 106.362 -3.72108 3.82585 0
M  V30 1226 O 106.585 -4.75776 3.14631 0
M  V30 1227 O 105.519 -3.6833 4.76043 0
M  V30 1228 H 109.345 -0.962593 2.88041 0
M  V30 1229 H 106.93 -0.410746 1.43643 0
M  V30 1230 H 108.812 -3.38687 2.50737 0
M  V30 1231 H 107.487 -2.91435 1.4088 0
M  V30 1232 H 106.394 -1.65584 3.35459 0
M  V30 1233 H 107.727 -2.19621 4.40486 0
M  V30 1234 N 109.379 -1.50304 -0.473955 0
M  V30 1235 C 110.309 -1.71886 -1.58042 0
M  V30 1236 C 111.29 -0.567799 -1.60344 0
M  V30 1237 O 112.475 -0.806623 -1.76656 0
M  V30 1238 C 109.605 -1.81036 -2.96384 0
M  V30 1239 C 108.559 -2.962 -3.08949 0
M  V30 1240 C 107.885 -2.9049 -4.48909 0
M  V30 1241 C 109.185 -4.36752 -2.86434 0
M  V30 1242 H 110.879 -2.64527 -1.40234 0
M  V30 1243 H 108.425 -1.27295 -0.673201 0
M  V30 1244 H 110.378 -1.94719 -3.73714 0
M  V30 1245 H 109.102 -0.850147 -3.15341 0
M  V30 1246 H 107.761 -2.82164 -2.3405 0
M  V30 1247 H 107.409 -1.92321 -4.64781 0
M  V30 1248 H 107.109 -3.67802 -4.58253 0
M  V30 1249 H 108.633 -3.06218 -5.28264 0
M  V30 1250 H 110.047 -4.5133 -3.53517 0
M  V30 1251 H 108.444 -5.15493 -3.07225 0
M  V30 1252 H 109.514 -4.49321 -1.82316 0
M  V30 1253 N 110.857 0.726932 -1.39834 0
M  V30 1254 C 112.105 1.4837 -1.37225 0
M  V30 1255 C 112.426 1.94979 0.0284857 0
M  V30 1256 O 111.696 1.69555 0.981213 0
M  V30 1257 H 110.276 0.55043 -0.505011 0
M  V30 1258 H 112.938 0.862468 -1.74778 0
M  V30 1259 H 112.034 2.36198 -2.04003 0
M  V30 1260 N 112.336 1.25143 0.95797 0
M  V30 1261 C 113.747 1.08851 1.51685 0
M  V30 1262 C 114.098 -0.33687 1.93286 0
M  V30 1263 O 113.223 -1.22644 1.7829 0
M  V30 1264 C 113.818 1.96978 2.75654 0
M  V30 1265 C 112.377 1.84881 3.27866 0
M  V30 1266 C 111.524 1.91329 2.0072 0
M  V30 1267 H 114.475 1.38478 0.77522 0
M  V30 1268 H 114.496 1.5078 3.4935 0
M  V30 1269 H 114.008 3.00712 2.45345 0
M  V30 1270 H 112.109 0.840182 3.63004 0
M  V30 1271 H 112.222 2.6951 3.96107 0
M  V30 1272 H 110.586 1.35174 2.15871 0
M  V30 1273 H 111.369 2.96661 1.72764 0
M  V30 1274 N 113.814 -1.1601 1.06675 0
M  V30 1275 C 115.063 -1.85973 0.780818 0
M  V30 1276 C 115.376 -1.82819 -0.695444 0
M  V30 1277 O 116.582 -2.484 -1.09589 0
M  V30 1278 C 115.038 -3.33757 1.34665 0
M  V30 1279 C 114.646 -3.45374 2.85343 0
M  V30 1280 C 116.39 -4.0895 1.13843 0
M  V30 1281 C 114.297 -4.87266 3.35151 0
M  V30 1282 H 113.227 -0.696661 0.288407 0
M  V30 1283 H 115.878 -1.30903 1.28595 0
M  V30 1284 H 114.26 -3.88456 0.769274 0
M  V30 1285 H 115.434 -3.00816 3.49065 0
M  V30 1286 H 113.749 -2.83619 3.04876 0
M  V30 1287 H 116.346 -5.13654 1.4854 0
M  V30 1288 H 116.689 -4.16229 0.0770282 0
M  V30 1289 H 117.222 -3.605 1.68179 0
M  V30 1290 H 113.961 -4.85168 4.40786 0
M  V30 1291 H 113.481 -5.32433 2.76179 0
M  V30 1292 H 115.16 -5.56097 3.30704 0
M  V30 1293 N 115.292 -0.849877 -1.32721 0
M  V30 1294 C 116.539 -0.450923 -1.97416 0
M  V30 1295 C 116.867 0.992376 -1.67279 0
M  V30 1296 O 116.122 1.71048 -0.950845 0
M  V30 1297 C 116.421 -0.631272 -3.51781 0
M  V30 1298 C 116.087 -2.04432 -4.01894 0
M  V30 1299 C 114.749 -2.4308 -4.1529 0
M  V30 1300 C 117.101 -2.96679 -4.28522 0
M  V30 1301 C 114.429 -3.73257 -4.52654 0
M  V30 1302 C 116.781 -4.26349 -4.67343 0
M  V30 1303 C 115.445 -4.64939 -4.78945 0
M  V30 1304 H 114.715 -0.165004 -0.722395 0
M  V30 1305 H 117.362 -1.07901 -1.58207 0
M  V30 1306 H 115.667 0.0800767 -3.91718 0
M  V30 1307 H 117.364 -0.302709 -3.99856 0
M  V30 1308 H 113.954 -1.73419 -3.91949 0
M  V30 1309 H 118.138 -2.68054 -4.17685 0
M  V30 1310 H 113.394 -4.02946 -4.59831 0
M  V30 1311 H 117.568 -4.97895 -4.86902 0
M  V30 1312 H 115.195 -5.65855 -5.07654 0
M  V30 1313 N 116.77 1.45427 -0.607355 0
M  V30 1314 C 118.186 1.57283 -0.270985 0
M  V30 1315 C 118.386 1.59875 1.22647 0
M  V30 1316 O 117.442 1.52893 2.00948 0
M  V30 1317 C 118.755 2.85566 -0.941952 0
M  V30 1318 C 120.303 2.9924 -0.917849 0
M  V30 1319 C 120.778 4.30293 -1.56882 0
M  V30 1320 N 122.269 4.37051 -1.5343 0
M  V30 1321 C 123.004 5.37123 -2.00715 0
M  V30 1322 N 122.5 6.43734 -2.56084 0
M  V30 1323 N 124.293 5.28479 -1.91484 0
M  V30 1324 H 116.444 1.41988 -1.57966 0
M  V30 1325 H 118.707 0.67885 -0.661715 0
M  V30 1326 H 118.413 2.8955 -1.99633 0
M  V30 1327 H 118.287 3.74322 -0.465096 0
M  V30 1328 H 120.674 2.94822 0.127984 0
M  V30 1329 H 120.755 2.11895 -1.43297 0
M  V30 1330 H 120.399 4.35469 -2.61398 0
M  V30 1331 H 120.329 5.16454 -1.02873 0
M  V30 1332 H 122.82 3.60615 -1.12982 0
M  V30 1333 H 123.133 7.16341 -2.89958 0
M  V30 1334 H 121.478 6.44485 -2.60122 0
M  V30 1335 H 124.669 4.44098 -1.47967 0
M  V30 1336 H 124.842 6.0632 -2.28648 0
M  V30 1337 N 118.248 0.346503 1.53744 0
M  V30 1338 C 119.478 -0.250047 2.05081 0
M  V30 1339 C 119.886 -1.44529 1.22098 0
M  V30 1340 O 119.229 -1.81992 0.249917 0
M  V30 1341 C 119.291 -0.725934 3.52094 0
M  V30 1342 C 118.955 0.350053 4.55657 0
M  V30 1343 C 119.952 1.19372 5.0601 0
M  V30 1344 C 117.637 0.504827 4.99757 0
M  V30 1345 C 119.631 2.17768 5.99046 0
M  V30 1346 C 117.318 1.49218 5.92602 0
M  V30 1347 C 118.316 2.32706 6.42135 0
M  V30 1348 O 118.004 3.2976 7.33153 0
M  V30 1349 H 117.736 -0.0515469 0.674032 0
M  V30 1350 H 120.29 0.497559 1.99282 0
M  V30 1351 H 118.52 -1.52483 3.55367 0
M  V30 1352 H 120.209 -1.24336 3.86388 0
M  V30 1353 H 120.975 1.08525 4.72702 0
M  V30 1354 H 116.854 -0.135178 4.60802 0
M  V30 1355 H 120.398 2.82971 6.37631 0
M  V30 1356 H 116.295 1.6012 6.25325 0
M  V30 1357 H 117.063 3.25265 7.51096 0
M  V30 1358 N 119.726 -1.57421 0.075193 0
M  V30 1359 C 121.003 -1.85029 -0.634329 0
M  V30 1360 C 121.383 -0.968305 -1.87582 0
M  V30 1361 O 120.731 -0.0354749 -2.28472 0
M  V30 1362 C 120.941 -3.35286 -0.968742 0
M  V30 1363 C 122.289 -4.02875 -1.34077 0
M  V30 1364 O 123.313 -3.40051 -1.06037 0
M  V30 1365 O 122.172 -5.13691 -1.86506 0
M  V30 1366 H 119.266 -0.7645 -0.315387 0
M  V30 1367 H 121.812 -1.69366 0.106382 0
M  V30 1368 H 120.584 -3.91203 -0.0871376 0
M  V30 1369 H 120.207 -3.56223 -1.7661 0
M  V30 1370 N 121.204 0.198386 -1.56346 0
M  V30 1371 C 122.134 1.24865 -1.9731 0
M  V30 1372 C 123.115 1.47651 -0.844576 0
M  V30 1373 O 124.3 1.59444 -1.10866 0
M  V30 1374 C 121.43 2.59358 -2.30977 0
M  V30 1375 C 120.384 2.5119 -3.46537 0
M  V30 1376 C 119.71 3.89926 -3.65871 0
M  V30 1377 C 121.01 2.03977 -4.80823 0
M  V30 1378 H 122.704 0.908252 -2.85291 0
M  V30 1379 H 120.25 0.435462 -1.37258 0
M  V30 1380 H 122.203 3.33011 -2.58228 0
M  V30 1381 H 120.927 2.95132 -1.39874 0
M  V30 1382 H 119.586 1.79993 -3.19371 0
M  V30 1383 H 119.234 4.23046 -2.72105 0
M  V30 1384 H 118.934 3.85336 -4.4361 0
M  V30 1385 H 120.458 4.65205 -3.95495 0
M  V30 1386 H 121.872 2.67386 -5.07127 0
M  V30 1387 H 120.269 2.10397 -5.62008 0
M  V30 1388 H 121.339 0.992861 -4.74626 0
M  V30 1389 N 122.682 1.50554 0.465978 0
M  V30 1390 C 123.93 1.61479 1.21528 0
M  V30 1391 C 124.251 0.319596 1.92363 0
M  V30 1392 O 123.521 -0.663194 1.84333 0
M  V30 1393 H 122.101 0.595055 0.451573 0
M  V30 1394 H 124.763 1.87355 0.53704 0
M  V30 1395 H 123.859 2.42846 1.96042 0
M  V30 1396 N 124.16 -0.719506 1.40217 0
M  V30 1397 C 125.408 -1.47641 1.3801 0
M  V30 1398 C 125.729 -1.94992 -0.018145 0
M  V30 1399 O 124.999 -1.70073 -0.972207 0
M  V30 1400 H 123.579 -0.547744 0.507923 0
M  V30 1401 H 126.241 -0.853187 1.75233 0
M  V30 1402 H 125.337 -2.35112 2.05253 0
M  V30 1403 N 125.638 -1.25649 -0.95132 0
M  V30 1404 C 126.601 -1.06399 -2.03007 0
M  V30 1405 C 127.601 -0.0156794 -1.60792 0
M  V30 1406 O 128.791 -0.25817 -1.72276 0
M  V30 1407 C 125.923 -0.616184 -3.35285 0
M  V30 1408 H 127.116 -2.02164 -2.21517 0
M  V30 1409 H 124.669 -1.08103 -1.12887 0
M  V30 1410 H 125.404 0.343917 -3.22471 0
M  V30 1411 H 125.189 -1.37301 -3.67275 0
M  V30 1412 H 126.679 -0.503032 -4.14559 0
M  V30 1413 N 127.117 1.15442 -1.07289 0
M  V30 1414 C 128.365 1.85845 -0.794096 0
M  V30 1415 C 128.686 1.82692 0.681809 0
M  V30 1416 O 127.956 1.26741 1.49377 0
M  V30 1417 H 126.536 0.688089 -0.290763 0
M  V30 1418 H 129.198 1.39947 -1.3565 0
M  V30 1419 H 128.294 2.91001 -1.12804 0
M  V30 1420 N 128.595 0.856903 1.32268 0
M  V30 1421 C 129.528 0.247937 2.26849 0
M  V30 1422 C 130.506 -0.615382 1.50505 0
M  V30 1423 O 131.69 -0.571689 1.79622 0
M  V30 1424 C 128.817 -0.650093 3.32403 0
M  V30 1425 C 127.863 0.140138 4.2627 0
M  V30 1426 S 128.696 1.51004 5.13769 0
M  V30 1427 C 129.852 0.61778 6.22844 0
M  V30 1428 H 130.085 1.04971 2.78152 0
M  V30 1429 H 127.618 0.654665 1.39834 0
M  V30 1430 H 129.576 -1.16256 3.93694 0
M  V30 1431 H 128.237 -1.4257 2.7988 0
M  V30 1432 H 127.43 -0.543945 5.01056 0
M  V30 1433 H 127.032 0.584267 3.69408 0
M  V30 1434 H 129.324 -0.177053 6.77269 0
M  V30 1435 H 130.267 1.33636 6.95375 0
M  V30 1436 H 130.675 0.191124 5.64176 0
M  V30 1437 N 130.073 -1.45103 0.615059 0
M  V30 1438 C 131.319 -2.02483 0.113347 0
M  V30 1439 C 131.652 -1.48146 -1.25564 0
M  V30 1440 O 130.927 -0.659104 -1.82992 0
M  V30 1441 C 131.21 -3.60005 0.0825278 0
M  V30 1442 C 131.063 -4.2466 1.48271 0
M  V30 1443 C 132.382 -4.35972 -0.601401 0
M  V30 1444 H 129.501 -0.735764 0.0426632 0
M  V30 1445 H 132.143 -1.72868 0.788461 0
M  V30 1446 H 130.293 -3.85367 -0.492378 0
M  V30 1447 H 131.965 -4.10458 2.10527 0
M  V30 1448 H 130.208 -3.82772 2.04127 0
M  V30 1449 H 130.879 -5.336 1.41332 0
M  V30 1450 H 133.355 -4.15947 -0.112666 0
M  V30 1451 H 132.231 -5.45697 -0.592097 0
M  V30 1452 H 132.492 -4.09391 -1.66887 0
M  V30 1453 N 131.551 -0.354651 -1.53558 0
M  V30 1454 C 132.791 0.238651 -2.03002 0
M  V30 1455 C 133.155 1.46878 -1.23656 0
M  V30 1456 O 134.356 2.13699 -1.63053 0
M  V30 1457 C 132.627 0.534175 -3.53386 0
M  V30 1458 S 134.186 1.10271 -4.24719 0
M  V30 1459 H 131.004 0.0702908 -0.707517 0
M  V30 1460 H 133.606 -0.494987 -1.8913 0
M  V30 1461 H 132.31 -0.368765 -4.0874 0
M  V30 1462 H 131.841 1.29718 -3.71398 0
M  V30 1463 H 133.856 2.38772 -4.34974 0
M  V30 1464 N 133.029 1.57378 -0.0835403 0
M  V30 1465 C 134.275 1.94217 0.583733 0
M  V30 1466 C 134.608 0.964653 1.68547 0
M  V30 1467 O 133.883 -0.00422258 1.945 0
M  V30 1468 C 134.166 3.41253 1.14972 0
M  V30 1469 C 134.019 4.49768 0.0538277 0
M  V30 1470 C 135.338 3.89352 2.05166 0
M  V30 1471 H 132.457 0.706233 0.210724 0
M  V30 1472 H 135.099 1.89392 -0.1519 0
M  V30 1473 H 133.249 3.45496 1.77665 0
M  V30 1474 H 134.921 4.57641 -0.579851 0
M  V30 1475 H 133.164 4.29432 -0.614068 0
M  V30 1476 H 133.835 5.49817 0.490452 0
M  V30 1477 H 136.311 3.87189 1.52393 0
M  V30 1478 H 135.187 4.92822 2.41698 0
M  V30 1479 H 135.448 3.27973 2.96456 0
M  V30 1480 N 134.507 -0.190092 1.56449 0
M  V30 1481 C 135.44 -1.26375 1.90012 0
M  V30 1482 C 136.418 -1.43705 0.760765 0
M  V30 1483 O 137.602 -1.59014 1.01226 0
M  V30 1484 C 134.729 -2.62962 2.13468 0
M  V30 1485 C 133.775 -2.62474 3.36169 0
M  V30 1486 S 134.608 -2.13412 4.91137 0
M  V30 1487 C 135.764 -3.51812 5.17667 0
M  V30 1488 H 135.997 -0.977181 2.80782 0
M  V30 1489 H 133.53 -0.393814 1.49293 0
M  V30 1490 H 135.488 -3.41583 2.27664 0
M  V30 1491 H 134.149 -2.88828 1.23439 0
M  V30 1492 H 133.342 -3.62918 3.49723 0
M  V30 1493 H 132.944 -1.91937 3.20992 0
M  V30 1494 H 135.236 -4.47706 5.08494 0
M  V30 1495 H 136.179 -3.43148 6.19399 0
M  V30 1496 H 136.587 -3.46956 4.45288 0
M  V30 1497 N 135.985 -1.50799 -0.457987 0
M  V30 1498 C 136.915 -1.73553 -1.5621 0
M  V30 1499 C 137.896 -0.584774 -1.59732 0
M  V30 1500 O 139.081 -0.825314 -1.7579 0
M  V30 1501 C 136.211 -1.84169 -2.94447 0
M  V30 1502 C 135.165 -2.99461 -3.0579 0
M  V30 1503 C 134.491 -2.95235 -4.45803 0
M  V30 1504 C 135.791 -4.39766 -2.81786 0
M  V30 1505 H 137.485 -2.66 -1.37421 0
M  V30 1506 H 135.031 -1.28002 -0.659662 0
M  V30 1507 H 136.984 -1.98672 -3.71628 0
M  V30 1508 H 135.708 -0.883545 -3.14422 0
M  V30 1509 H 134.367 -2.8463 -2.31044 0
M  V30 1510 H 134.015 -1.97239 -4.62715 0
M  V30 1511 H 133.715 -3.72642 -4.54326 0
M  V30 1512 H 135.239 -3.11803 -5.24987 0
M  V30 1513 H 136.653 -4.55054 -3.4871 0
M  V30 1514 H 135.05 -5.18722 -3.0174 0
M  V30 1515 H 136.12 -4.51229 -1.7754 0
M  V30 1516 N 137.463 0.71206 -1.40597 0
M  V30 1517 C 138.874 1.29135 -1.34837 0
M  V30 1518 C 139.225 1.96186 -0.0235395 0
M  V30 1519 O 138.35 1.97768 0.878444 0
M  V30 1520 C 138.945 2.34827 -2.44217 0
M  V30 1521 C 137.504 2.88371 -2.41907 0
M  V30 1522 C 136.651 1.62202 -2.24913 0
M  V30 1523 H 139.602 0.507944 -1.50352 0
M  V30 1524 H 139.623 3.15749 -2.12327 0
M  V30 1525 H 139.135 1.85996 -3.40627 0
M  V30 1526 H 137.236 3.41422 -1.49204 0
M  V30 1527 H 137.349 3.39925 -3.37621 0
M  V30 1528 H 135.713 1.874 -1.72492 0
M  V30 1529 H 136.496 1.15391 -3.23326 0
M  V30 1530 N 138.941 1.26152 0.944643 0
M  V30 1531 C 139.851 1.09176 2.07648 0
M  V30 1532 C 140.867 0.0261935 1.7398 0
M  V30 1533 O 142.043 0.229208 2.00091 0
M  V30 1534 C 139.108 0.722915 3.39079 0
M  V30 1535 C 138.169 1.86752 3.86552 0
M  V30 1536 C 137.402 1.51617 5.11711 0
M  V30 1537 O 137.625 0.416331 5.68879 0
M  V30 1538 O 136.559 2.34975 5.54139 0
M  V30 1539 H 140.385 2.0412 2.24875 0
M  V30 1540 H 137.97 1.05182 1.061 0
M  V30 1541 H 139.852 0.529787 4.18056 0
M  V30 1542 H 138.527 -0.197159 3.23099 0
M  V30 1543 H 137.434 2.11558 3.08535 0
M  V30 1544 H 138.767 2.76719 4.07047 0
M  V30 1545 N 140.419 -1.14872 1.07899 0
M  V30 1546 C 141.696 -1.81928 0.71845 0
M  V30 1547 C 142.076 -1.95417 -0.798455 0
M  V30 1548 O 141.424 -1.50997 -1.715 0
M  V30 1549 C 141.634 -3.17937 1.43935 0
M  V30 1550 C 142.982 -3.93501 1.59506 0
M  V30 1551 O 144.006 -3.27509 1.40058 0
M  V30 1552 O 142.865 -5.1183 1.91551 0
M  V30 1553 H 139.959 -0.78628 0.256305 0
M  V30 1554 H 142.505 -1.21934 1.18026 0
M  V30 1555 H 141.277 -3.0325 2.47295 0
M  V30 1556 H 140.9 -3.85619 0.968687 0
M  V30 1557 N 141.898 -0.863906 -1.31812 0
M  V30 1558 C 143.144 -0.472535 -1.97218 0
M  V30 1559 C 143.477 0.971394 -1.68159 0
M  V30 1560 O 142.752 1.68309 -0.974798 0
M  V30 1561 C 143.035 -0.723054 -3.52766 0
M  V30 1562 C 142.888 -2.21608 -3.91421 0
M  V30 1563 C 144.207 -0.185522 -4.39709 0
M  V30 1564 H 141.326 -0.173158 -0.71637 0
M  V30 1565 H 143.968 -1.08403 -1.56041 0
M  V30 1566 H 142.118 -0.202577 -3.87971 0
M  V30 1567 H 143.79 -2.80334 -3.66347 0
M  V30 1568 H 142.033 -2.691 -3.40246 0
M  V30 1569 H 142.704 -2.34203 -4.99853 0
M  V30 1570 H 145.18 -0.630726 -4.11292 0
M  V30 1571 H 144.056 -0.390306 -5.47511 0
M  V30 1572 H 144.317 0.912229 -4.32586 0
M  V30 1573 N 143.376 1.44774 -0.622745 0
M  V30 1574 C 144.286 2.34433 0.0886031 0
M  V30 1575 C 145.302 1.52131 0.844529 0
M  V30 1576 O 146.478 1.84886 0.798691 0
M  V30 1577 C 143.543 3.29986 1.0635 0
M  V30 1578 C 142.604 4.28195 0.307873 0
M  V30 1579 C 141.837 5.19183 1.23633 0
M  V30 1580 O 142.06 5.13918 2.47476 0
M  V30 1581 O 140.994 5.97515 0.725189 0
M  V30 1582 H 144.82 2.96693 -0.648599 0
M  V30 1583 H 142.405 1.44408 -0.382957 0
M  V30 1584 H 144.287 3.88825 1.6246 0
M  V30 1585 H 142.962 2.70269 1.78146 0
M  V30 1586 H 141.869 3.72927 -0.296064 0
M  V30 1587 H 143.202 4.90808 -0.3699 0
M  V30 1588 N 144.854 0.36279 1.53368 0
M  V30 1589 C 145.801 -0.485008 2.25646 0
M  V30 1590 C 146.771 -1.07982 1.2621 0
M  V30 1591 O 147.956 -1.11284 1.54986 0
M  V30 1592 C 145.096 -1.62023 3.04701 0
M  V30 1593 C 144.209 -1.05086 4.19024 0
M  V30 1594 C 143.344 -2.15496 4.85525 0
M  V30 1595 C 142.383 -1.5601 5.91884 0
M  V30 1596 N 141.52 -2.60241 6.52088 0
M  V30 1597 H 146.36 0.137864 2.97681 0
M  V30 1598 H 143.897 0.0798061 1.46883 0
M  V30 1599 H 145.855 -2.28887 3.48807 0
M  V30 1600 H 144.485 -2.2138 2.34927 0
M  V30 1601 H 143.537 -0.27259 3.79422 0
M  V30 1602 H 144.849 -0.575926 4.95464 0
M  V30 1603 H 144.003 -2.90186 5.32801 0
M  V30 1604 H 142.742 -2.66341 4.08551 0
M  V30 1605 H 141.747 -0.798338 5.43973 0
M  V30 1606 H 142.972 -1.05994 6.70777 0
M  V30 1607 H 140.918 -3.10304 5.77968 0
M  V30 1608 H 140.835 -2.17426 7.24059 0
M  V30 1609 H 142.103 -3.34641 7.04014 0
M  V30 1610 N 146.332 -1.57332 0.0918853 0
M  V30 1611 C 147.262 -2.16872 -0.865371 0
M  V30 1612 C 148.243 -1.10118 -1.29646 0
M  V30 1613 O 149.428 -1.38242 -1.36392 0
M  V30 1614 C 146.558 -2.74649 -2.12569 0
M  V30 1615 C 145.512 -3.86747 -1.83333 0
M  V30 1616 C 144.838 -4.31212 -3.16166 0
M  V30 1617 C 146.138 -5.10089 -1.1228 0
M  V30 1618 H 147.832 -2.97114 -0.369307 0
M  V30 1619 H 145.378 -1.42918 -0.176194 0
M  V30 1620 H 147.331 -3.14952 -2.7997 0
M  V30 1621 H 146.055 -1.91657 -2.64452 0
M  V30 1622 H 144.714 -3.46978 -1.18331 0
M  V30 1623 H 144.362 -3.45115 -3.6593 0
M  V30 1624 H 144.062 -5.06788 -2.97388 0
M  V30 1625 H 145.586 -4.74146 -3.84731 0
M  V30 1626 H 147 -5.47582 -1.69785 0
M  V30 1627 H 145.397 -5.91073 -1.03693 0
M  V30 1628 H 146.467 -4.84786 -0.105041 0
M  V30 1629 N 147.81 0.181792 -1.56548 0
M  V30 1630 C 148.742 1.24956 -1.92142 0
M  V30 1631 C 149.755 1.41022 -0.813422 0
M  V30 1632 O 150.944 1.41212 -1.09186 0
M  V30 1633 C 148.044 2.61981 -2.14987 0
M  V30 1634 C 147.217 2.6735 -3.46183 0
M  V30 1635 C 146.276 3.85664 -3.5798 0
M  V30 1636 O 145.302 3.72148 -4.30691 0
M  V30 1637 N 146.504 5.01683 -2.92053 0
M  V30 1638 H 149.269 0.947329 -2.84334 0
M  V30 1639 H 146.83 0.371629 -1.57577 0
M  V30 1640 H 148.822 3.3958 -2.20154 0
M  V30 1641 H 147.392 2.84637 -1.2923 0
M  V30 1642 H 146.612 1.75925 -3.52766 0
M  V30 1643 H 147.9 2.67939 -4.32534 0
M  V30 1644 H 147.298 5.15564 -2.32832 0
M  V30 1645 H 145.855 5.77181 -3.0283 0
M  V30 1646 N 149.288 1.51039 0.449983 0
M  V30 1647 C 150.22 1.67617 1.56324 0
M  V30 1648 C 151.233 0.557083 1.52972 0
M  V30 1649 O 152.422 0.830989 1.57977 0
M  V30 1650 C 149.522 1.66402 2.95235 0
M  V30 1651 C 148.695 2.9469 3.23229 0
M  V30 1652 C 147.754 2.85832 4.41799 0
M  V30 1653 O 146.78 3.59785 4.41071 0
M  V30 1654 N 147.982 2.00821 5.44657 0
M  V30 1655 H 150.747 2.63648 1.42512 0
M  V30 1656 H 148.308 1.48767 0.638737 0
M  V30 1657 H 150.3 1.58062 3.72557 0
M  V30 1658 H 148.87 0.780182 3.02708 0
M  V30 1659 H 148.09 3.16996 2.34323 0
M  V30 1660 H 149.378 3.79636 3.38754 0
M  V30 1661 H 148.776 1.40091 5.48079 0
M  V30 1662 H 147.333 1.98368 6.20881 0
M  V30 1663 N 150.766 -0.704594 1.40972 0
M  V30 1664 C 152.012 -1.46675 1.40051 0
M  V30 1665 C 152.345 -1.94199 0.00641102 0
M  V30 1666 O 151.62 -1.68916 -0.964235 0
M  V30 1667 C 151.903 -2.68505 2.39952 0
M  V30 1668 C 151.756 -2.26805 3.88432 0
M  V30 1669 C 153.075 -3.70686 2.37233 0
M  V30 1670 H 150.194 -0.532015 0.510028 0
M  V30 1671 H 152.836 -0.803255 1.72185 0
M  V30 1672 H 150.986 -3.25114 2.1268 0
M  V30 1673 H 152.658 -1.75592 4.26574 0
M  V30 1674 H 150.901 -1.58685 4.03734 0
M  V30 1675 H 151.572 -3.14181 4.53866 0
M  V30 1676 H 154.048 -3.23731 2.61415 0
M  V30 1677 H 152.924 -4.53553 3.09162 0
M  V30 1678 H 153.185 -4.19754 1.38777 0
M  V30 1679 N 152.244 -1.26651 -0.937939 0
M  V30 1680 C 153.521 -1.0313 -1.66204 0
M  V30 1681 C 153.901 0.437256 -2.06522 0
M  V30 1682 O 153.249 1.41831 -1.79154 0
M  V30 1683 C 153.459 -1.98314 -2.87181 0
M  V30 1684 C 154.807 -2.27107 -3.58758 0
M  V30 1685 O 155.831 -1.96205 -2.97291 0
M  V30 1686 O 154.69 -2.79736 -4.69479 0
M  V30 1687 H 151.784 -0.392384 -0.727986 0
M  V30 1688 H 154.33 -1.37874 -0.989382 0
M  V30 1689 H 153.102 -2.97399 -2.54302 0
M  V30 1690 H 152.725 -1.64068 -3.6217 0
M  V30 1691 N 153.722 1.14298 -1.08507 0
M  V30 1692 C 154.947 1.8976 -0.837001 0
M  V30 1693 C 155.372 1.78097 0.605228 0
M  V30 1694 O 154.73 1.12188 1.4242 0
M  V30 1695 C 154.778 3.37685 -1.26495 0
M  V30 1696 O 153.882 4.10281 -0.417514 0
M  V30 1697 H 153.223 0.590365 -0.303917 0
M  V30 1698 H 155.753 1.44672 -1.44676 0
M  V30 1699 H 155.763 3.88501 -1.24625 0
M  V30 1700 H 154.438 3.45492 -2.31534 0
M  V30 1701 H 153.015 3.69536 -0.499722 0
M  V30 1702 N 155.201 0.870884 1.31352 0
M  V30 1703 C 156.131 0.343096 2.30966 0
M  V30 1704 C 157.112 -0.566507 1.60389 0
M  V30 1705 O 158.297 -0.483336 1.88089 0
M  V30 1706 C 155.427 -0.455487 3.443 0
M  V30 1707 C 154.381 0.361103 4.26474 0
M  V30 1708 C 153.707 -0.563221 5.31725 0
M  V30 1709 C 155.007 1.59566 4.97329 0
M  V30 1710 H 156.701 1.17548 2.75359 0
M  V30 1711 H 154.247 0.566686 1.32381 0
M  V30 1712 H 156.2 -0.83525 4.13039 0
M  V30 1713 H 154.924 -1.32139 2.98675 0
M  V30 1714 H 153.583 0.722825 3.59403 0
M  V30 1715 H 153.231 -1.42643 4.82351 0
M  V30 1716 H 152.931 -0.0207409 5.87596 0
M  V30 1717 H 154.455 -0.939808 6.03324 0
M  V30 1718 H 155.869 1.28728 5.58661 0
M  V30 1719 H 154.266 2.07728 5.63 0
M  V30 1720 H 155.336 2.34798 4.24262 0
M  V30 1721 N 156.679 -1.44442 0.630414 0
M  V30 1722 C 157.629 -2.27794 -0.0968103 0
M  V30 1723 C 158.613 -1.38624 -0.816834 0
M  V30 1724 O 159.805 -1.62438 -0.70306 0
M  V30 1725 C 156.934 -3.25929 -1.07819 0
M  V30 1726 C 156.02 -4.22588 -0.357826 0
M  V30 1727 N 156.411 -5.0207 0.613169 0
M  V30 1728 C 154.709 -4.41914 -0.602365 0
M  V30 1729 C 155.41 -5.72351 1.03871 0
M  V30 1730 N 154.386 -5.42287 0.377642 0
M  V30 1731 H 158.188 -2.86653 0.648621 0
M  V30 1732 H 155.702 -1.55871 0.455862 0
M  V30 1733 H 157.699 -3.84399 -1.61378 0
M  V30 1734 H 156.359 -2.68631 -1.82393 0
M  V30 1735 H 157.37 -5.08331 0.990947 0
M  V30 1736 H 154.047 -3.95714 -1.33103 0
M  V30 1737 H 155.437 -6.4619 1.84086 0
M  V30 1738 N 158.157 -0.370918 -1.53173 0
M  V30 1739 C 159.568 0.107139 -1.86392 0
M  V30 1740 C 159.919 1.47714 -1.29132 0
M  V30 1741 O 159.044 2.07464 -0.615439 0
M  V30 1742 C 159.639 0.201187 -3.38202 0
M  V30 1743 C 158.198 0.623507 -3.712 0
M  V30 1744 C 157.345 -0.225978 -2.76378 0
M  V30 1745 H 160.296 -0.58951 -1.47345 0
M  V30 1746 H 160.317 1.02377 -3.66468 0
M  V30 1747 H 159.829 -0.796058 -3.79848 0
M  V30 1748 H 157.93 1.62879 -3.35114 0
M  V30 1749 H 158.043 0.394414 -4.77474 0
M  V30 1750 H 156.407 0.305962 -2.52856 0
M  V30 1751 H 157.19 -1.22086 -3.20858 0
M  V30 1752 N 159.635 1.57281 -0.100228 0
M  V30 1753 C 160.585 2.10848 0.86759 0
M  V30 1754 C 161.569 1.02473 1.24049 0
M  V30 1755 O 162.761 1.28739 1.21471 0
M  V30 1756 C 159.89 2.69648 2.12474 0
M  V30 1757 C 158.976 3.85074 1.77704 0
M  V30 1758 N 159.367 4.92897 1.13518 0
M  V30 1759 C 157.665 3.94905 2.07282 0
M  V30 1760 C 158.366 5.73475 0.974735 0
M  V30 1761 N 157.342 5.22675 1.4937 0
M  V30 1762 H 161.144 2.91594 0.367471 0
M  V30 1763 H 158.658 1.62074 0.102829 0
M  V30 1764 H 160.655 3.06356 2.82757 0
M  V30 1765 H 159.315 1.90359 2.63047 0
M  V30 1766 H 160.326 5.11662 0.801381 0
M  V30 1767 H 157.003 3.26633 2.60033 0
M  V30 1768 H 158.393 6.70238 0.472364 0
M  V30 1769 N 161.113 -0.173488 1.56642 0
M  V30 1770 C 162.529 -0.525174 1.50712 0
M  V30 1771 C 162.729 -1.8476 0.804107 0
M  V30 1772 O 161.785 -2.49869 0.363574 0
M  V30 1773 C 163.098 -0.559937 2.95441 0
M  V30 1774 C 164.646 -0.647288 3.06234 0
M  V30 1775 C 165.121 -0.712963 4.52417 0
M  V30 1776 N 166.612 -0.775911 4.56655 0
M  V30 1777 C 167.347 -0.847264 5.67106 0
M  V30 1778 N 166.843 -0.879585 6.87194 0
M  V30 1779 N 168.636 -0.886117 5.55071 0
M  V30 1780 H 160.787 0.693681 2.00753 0
M  V30 1781 H 163.05 0.249841 0.914485 0
M  V30 1782 H 162.756 0.343049 3.50023 0
M  V30 1783 H 162.63 -1.40718 3.49969 0
M  V30 1784 H 165.017 -1.5407 2.51687 0
M  V30 1785 H 165.098 0.226586 2.54794 0
M  V30 1786 H 164.742 0.176183 5.07594 0
M  V30 1787 H 164.672 -1.60295 5.0161 0
M  V30 1788 H 167.163 -0.759304 3.70193 0
M  V30 1789 H 167.476 -0.935144 7.67121 0
M  V30 1790 H 165.821 -0.847898 6.89808 0
M  V30 1791 H 169.012 -0.857853 4.60172 0
M  V30 1792 H 169.185 -0.938263 6.41171 0
M  V30 1793 N 162.591 -1.51276 -0.441967 0
M  V30 1794 C 163.524 -1.66933 -1.55591 0
M  V30 1795 C 164.502 -0.516958 -1.54163 0
M  V30 1796 O 165.686 -0.740209 -1.73358 0
M  V30 1797 C 162.813 -1.67866 -2.94174 0
M  V30 1798 C 161.859 -2.89013 -3.13646 0
M  V30 1799 S 162.692 -4.49897 -2.90436 0
M  V30 1800 C 163.848 -4.53568 -4.31308 0
M  V30 1801 H 164.081 -2.61155 -1.42076 0
M  V30 1802 H 161.614 -1.40902 -0.631341 0
M  V30 1803 H 163.572 -1.69089 -3.74058 0
M  V30 1804 H 162.233 -0.748296 -3.05056 0
M  V30 1805 H 161.426 -2.86054 -4.14957 0
M  V30 1806 H 161.028 -2.85509 -2.4158 0
M  V30 1807 H 163.32 -4.28924 -5.24434 0
M  V30 1808 H 164.263 -5.55355 -4.39303 0
M  V30 1809 H 164.671 -3.82943 -4.14747 0
M  V30 1810 N 164.069 0.697108 -1.41344 0
M  V30 1811 C 165.294 1.49096 -1.44171 0
M  V30 1812 C 165.719 1.88038 -0.0481568 0
M  V30 1813 O 165.077 1.54525 0.948243 0
M  V30 1814 C 165.125 2.73088 -2.3549 0
M  V30 1815 O 164.229 3.70514 -1.81088 0
M  V30 1816 H 163.57 0.448801 -0.489361 0
M  V30 1817 H 166.1 0.856992 -1.85787 0
M  V30 1818 H 166.11 3.21413 -2.51312 0
M  V30 1819 H 164.785 2.44081 -3.36745 0
M  V30 1820 H 163.362 3.29441 -1.74708 0
M  V30 1821 N 165.547 1.27147 0.931209 0
M  V30 1822 C 166.477 1.12081 2.04842 0
M  V30 1823 C 167.458 0.0232364 1.70084 0
M  V30 1824 O 168.643 0.197085 1.93197 0
M  V30 1825 C 165.773 0.76354 3.38803 0
M  V30 1826 C 164.727 1.81396 3.87659 0
M  V30 1827 C 164.053 1.31075 5.18385 0
M  V30 1828 C 165.353 3.21739 4.11438 0
M  V30 1829 H 167.047 2.05537 2.17703 0
M  V30 1830 H 164.593 0.989603 1.04608 0
M  V30 1831 H 166.546 0.644982 4.16435 0
M  V30 1832 H 165.27 -0.206727 3.25945 0
M  V30 1833 H 163.929 1.92136 3.12217 0
M  V30 1834 H 163.577 0.330037 5.01916 0
M  V30 1835 H 163.277 2.013 5.52044 0
M  V30 1836 H 164.801 1.20506 5.98591 0
M  V30 1837 H 166.215 3.14019 4.79651 0
M  V30 1838 H 164.612 3.89644 4.56397 0
M  V30 1839 H 165.682 3.67054 3.16859 0
M  V30 1840 N 167.025 -1.13721 1.09112 0
M  V30 1841 C 167.935 -2.22638 0.73957 0
M  V30 1842 C 168.951 -1.72091 -0.257068 0
M  V30 1843 O 170.127 -2.01155 -0.0992154 0
M  V30 1844 C 167.192 -3.46322 0.16191 0
M  V30 1845 C 166.253 -4.11775 1.21408 0
M  V30 1846 C 165.486 -5.29555 0.663891 0
M  V30 1847 O 165.709 -5.68077 -0.514274 0
M  V30 1848 O 164.643 -5.84973 1.41738 0
M  V30 1849 H 168.469 -2.55074 1.64836 0
M  V30 1850 H 166.054 -1.21791 0.865289 0
M  V30 1851 H 167.936 -4.21107 -0.157073 0
M  V30 1852 H 166.611 -3.15593 -0.719932 0
M  V30 1853 H 165.518 -3.3883 1.58571 0
M  V30 1854 H 166.851 -4.46627 2.06845 0
M  V30 1855 N 168.503 -0.877838 -1.30888 0
M  V30 1856 C 169.914 -0.544193 -1.78593 0
M  V30 1857 C 170.265 0.939301 -1.72254 0
M  V30 1858 O 169.39 1.7337 -1.29505 0
M  V30 1859 C 169.985 -0.98105 -3.24285 0
M  V30 1860 C 168.544 -0.698935 -3.69854 0
M  V30 1861 C 167.691 -1.168 -2.51502 0
M  V30 1862 H 170.642 -1.06278 -1.17859 0
M  V30 1863 H 170.663 -0.307009 -3.79259 0
M  V30 1864 H 170.175 -2.06079 -3.28866 0
M  V30 1865 H 168.276 0.369112 -3.70767 0
M  V30 1866 H 168.389 -1.28148 -4.61644 0
M  V30 1867 H 166.753 -0.587535 -2.47831 0
M  V30 1868 H 167.536 -2.25533 -2.58824 0
M  V30 1869 N 169.982 1.44106 -0.638065 0
M  V30 1870 C 171.228 2.02815 -0.15409 0
M  V30 1871 C 171.583 1.49342 1.21304 0
M  V30 1872 O 170.876 0.670699 1.79478 0
M  V30 1873 C 171.07 3.5729 -0.0887327 0
M  V30 1874 C 170.899 4.2575 -1.44799 0
M  V30 1875 C 169.669 4.62443 -2.03653 0
M  V30 1876 C 171.867 4.55746 -2.38327 0
M  V30 1877 N 169.849 5.15903 -3.32741 0
M  V30 1878 C 171.22 5.10364 -3.52036 0
M  V30 1879 C 173.275 4.37703 -2.3732 0
M  V30 1880 C 171.978 5.48837 -4.64941 0
M  V30 1881 C 174.004 4.77229 -3.49294 0
M  V30 1882 C 173.366 5.31966 -4.61726 0
M  V30 1883 H 169.465 0.775519 -0.100466 0
M  V30 1884 H 172.049 1.755 -0.843071 0
M  V30 1885 H 170.22 3.84201 0.569548 0
M  V30 1886 H 171.952 4.02671 0.404711 0
M  V30 1887 H 168.707 4.46987 -1.56523 0
M  V30 1888 H 169.131 5.47102 -3.98758 0
M  V30 1889 H 173.773 3.94671 -1.51641 0
M  V30 1890 H 171.491 5.9082 -5.51323 0
M  V30 1891 H 175.077 4.64976 -3.49698 0
M  V30 1892 H 173.957 5.61986 -5.46939 0
M  V30 1893 N 171.46 0.379036 1.52974 0
M  V30 1894 C 172.706 -0.206727 2.01744 0
M  V30 1895 C 173.039 -1.47314 1.26539 0
M  V30 1896 O 172.314 -1.91084 0.362903 0
M  V30 1897 C 172.597 -0.485066 3.56818 0
M  V30 1898 C 172.45 0.795919 4.42702 0
M  V30 1899 C 173.769 -1.28003 4.21074 0
M  V30 1900 H 170.888 -0.0736607 0.73331 0
M  V30 1901 H 173.53 0.506581 1.83122 0
M  V30 1902 H 171.68 -1.09272 3.72816 0
M  V30 1903 H 173.352 1.43307 4.38476 0
M  V30 1904 H 171.595 1.41344 4.10127 0
M  V30 1905 H 172.266 0.555947 5.49193 0
M  V30 1906 H 174.742 -0.765867 4.08991 0
M  V30 1907 H 173.618 -1.44352 5.29579 0
M  V30 1908 H 173.879 -2.29236 3.78026 0
M  V30 1909 N 172.938 -1.57226 0.108567 0
M  V30 1910 C 173.901 -2.13602 -0.831082 0
M  V30 1911 C 174.901 -1.06841 -1.20173 0
M  V30 1912 O 176.091 -1.32666 -1.12895 0
M  V30 1913 C 173.223 -2.66769 -2.12243 0
M  V30 1914 H 174.416 -2.97951 -0.341317 0
M  V30 1915 H 171.969 -1.55667 -0.14057 0
M  V30 1916 H 172.704 -1.85977 -2.65675 0
M  V30 1917 H 172.489 -3.44839 -1.86625 0
M  V30 1918 H 173.979 -3.10332 -2.79435 0
M  V30 1919 N 174.416 0.165178 -1.56732 0
M  V30 1920 C 175.646 0.894919 -1.86212 0
M  V30 1921 C 176.054 1.76066 -0.692627 0
M  V30 1922 O 175.397 1.80387 0.347303 0
M  V30 1923 C 175.459 1.8174 -3.10179 0
M  V30 1924 C 175.123 1.13064 -4.42793 0
M  V30 1925 C 176.12 0.493169 -5.17556 0
M  V30 1926 C 173.805 1.12556 -4.89527 0
M  V30 1927 C 175.799 -0.140209 -6.37246 0
M  V30 1928 C 173.486 0.488366 -6.09145 0
M  V30 1929 C 174.484 -0.143411 -6.82849 0
M  V30 1930 O 174.172 -0.77055 -8.00199 0
M  V30 1931 H 173.904 0.265114 -0.621844 0
M  V30 1932 H 176.458 0.168242 -2.0471 0
M  V30 1933 H 174.688 2.58455 -2.87642 0
M  V30 1934 H 176.377 2.4175 -3.26055 0
M  V30 1935 H 177.143 0.489023 -4.82528 0
M  V30 1936 H 173.022 1.60672 -4.32094 0
M  V30 1937 H 176.566 -0.633932 -6.94714 0
M  V30 1938 H 172.463 0.490116 -6.43637 0
M  V30 1939 H 173.231 -0.670408 -8.1575 0
M  V30 1940 N 175.894 1.51508 0.433938 0
M  V30 1941 C 177.31 1.39759 0.770682 0
M  V30 1942 C 177.51 0.482594 1.95636 0
M  V30 1943 O 176.566 -0.0609691 2.52426 0
M  V30 1944 C 177.879 2.81851 1.04787 0
M  V30 1945 C 179.427 2.91025 1.1521 0
M  V30 1946 C 179.902 4.34032 1.46219 0
M  V30 1947 N 181.393 4.37154 1.53136 0
M  V30 1948 C 182.128 5.4484 1.78709 0
M  V30 1949 N 181.624 6.62682 2.02051 0
M  V30 1950 N 183.417 5.32324 1.80519 0
M  V30 1951 H 175.568 2.09548 -0.346892 0
M  V30 1952 H 177.831 0.943446 -0.0928074 0
M  V30 1953 H 177.537 3.50815 0.249304 0
M  V30 1954 H 177.411 3.21386 1.97461 0
M  V30 1955 H 179.798 2.22257 1.94128 0
M  V30 1956 H 179.879 2.54983 0.204281 0
M  V30 1957 H 179.523 5.03351 0.678274 0
M  V30 1958 H 179.453 4.6759 2.42212 0
M  V30 1959 H 181.944 3.52197 1.36987 0
M  V30 1960 H 182.257 7.40543 2.20943 0
M  V30 1961 H 180.602 6.65791 1.99366 0
M  V30 1962 H 183.793 4.39246 1.61805 0
M  V30 1963 H 183.966 6.16328 2.00111 0
M  V30 1964 N 177.372 -0.689602 1.41712 0
M  V30 1965 C 178.304 -1.815 1.39966 0
M  V30 1966 C 179.317 -1.59995 0.300917 0
M  V30 1967 O 180.506 -1.69387 0.563039 0
M  V30 1968 C 177.606 -3.18364 1.16179 0
M  V30 1969 C 176.779 -3.66847 2.38206 0
M  V30 1970 C 175.838 -4.82398 2.10186 0
M  V30 1971 O 174.864 -4.93706 2.83272 0
M  V30 1972 N 176.066 -5.70064 1.0958 0
M  V30 1973 H 178.831 -1.83488 2.36965 0
M  V30 1974 H 176.392 -0.872149 1.36401 0
M  V30 1975 H 178.384 -3.93301 0.953756 0
M  V30 1976 H 176.954 -3.11365 0.27756 0
M  V30 1977 H 176.174 -2.82751 2.74673 0
M  V30 1978 H 177.462 -3.95978 3.19498 0
M  V30 1979 H 176.86 -5.63565 0.491019 0
M  V30 1980 H 175.417 -6.44874 0.947656 0
M  V30 1981 N 178.85 -1.27639 -0.924453 0
M  V30 1982 C 179.8 -1.07295 -2.01176 0
M  V30 1983 C 180.784 5.77352e-05 -1.609 0
M  V30 1984 O 181.976 -0.218855 -1.75642 0
M  V30 1985 C 179.105 -0.725592 -3.35544 0
M  V30 1986 C 178.191 -1.83691 -3.82254 0
M  V30 1987 N 178.582 -3.07697 -4.01443 0
M  V30 1988 C 176.88 -1.72433 -4.11319 0
M  V30 1989 C 177.581 -3.80037 -4.40394 0
M  V30 1990 N 176.557 -3.0782 -4.48049 0
M  V30 1991 H 180.359 -2.01399 -2.14046 0
M  V30 1992 H 177.873 -1.18401 -1.11153 0
M  V30 1993 H 179.87 -0.560959 -4.13109 0
M  V30 1994 H 178.53 0.207782 -3.24034 0
M  V30 1995 H 179.541 -3.43424 -3.8766 0
M  V30 1996 H 176.218 -0.862005 -4.08504 0
M  V30 1997 H 177.608 -4.86632 -4.63291 0
M  V30 1998 N 180.328 1.1314 -1.09713 0
M  V30 1999 C 181.744 1.36477 -0.827423 0
M  V30 2000 C 181.944 1.93654 0.556817 0
M  V30 2001 O 181 2.15791 1.31112 0
M  V30 2002 C 182.313 2.31334 -1.92106 0
M  V30 2003 C 183.861 2.44943 -1.94864 0
M  V30 2004 C 184.336 3.4311 -3.0338 0
M  V30 2005 N 185.827 3.50662 -3.02639 0
M  V30 2006 C 186.562 4.2651 -3.83246 0
M  V30 2007 N 186.058 5.05485 -4.73768 0
M  V30 2008 N 187.851 4.2184 -3.71493 0
M  V30 2009 H 180.002 0.743807 -1.9895 0
M  V30 2010 H 182.265 0.389823 -0.864143 0
M  V30 2011 H 181.971 1.96483 -2.91698 0
M  V30 2012 H 181.845 3.31381 -1.80184 0
M  V30 2013 H 184.232 2.79079 -0.959099 0
M  V30 2014 H 184.313 1.4481 -2.10864 0
M  V30 2015 H 183.957 3.09704 -4.02549 0
M  V30 2016 H 183.887 4.43055 -2.84622 0
M  V30 2017 H 186.378 2.94315 -2.37039 0
M  V30 2018 H 186.691 5.60675 -5.3185 0
M  V30 2019 H 185.036 5.04708 -4.77802 0
M  V30 2020 H 188.227 3.5922 -3.00131 0
M  V30 2021 H 188.4 4.80697 -4.3455 0
M  V30 2022 N 181.806 0.884767 1.30421 0
M  V30 2023 C 183.054 0.502112 1.95763 0
M  V30 2024 C 183.375 -0.951815 1.70192 0
M  V30 2025 O 182.645 -1.6692 1.0254 0
M  V30 2026 H 181.225 0.182694 0.724315 0
M  V30 2027 H 183.887 1.1278 1.58955 0
M  V30 2028 H 182.983 0.672188 3.04775 0
M  V30 2029 N 183.284 -1.43765 0.645699 0
M  V30 2030 C 184.234 -2.27884 -0.0726442 0
M  V30 2031 C 185.218 -1.39483 -0.802086 0
M  V30 2032 O 186.41 -1.63174 -0.685791 0
M  V30 2033 C 183.539 -3.27055 -1.04356 0
M  V30 2034 C 182.625 -4.22944 -0.312985 0
M  V30 2035 N 183.016 -5.01391 0.666386 0
M  V30 2036 C 181.314 -4.42528 -0.55546 0
M  V30 2037 C 182.015 -5.71217 1.09935 0
M  V30 2038 N 180.991 -5.41856 0.435137 0
M  V30 2039 H 184.793 -2.85949 0.678988 0
M  V30 2040 H 182.307 -1.55378 0.472368 0
M  V30 2041 H 184.304 -3.86089 -1.57292 0
M  V30 2042 H 182.964 -2.70551 -1.79534 0
M  V30 2043 H 183.975 -5.07252 1.04481 0
M  V30 2044 H 180.652 -3.97104 -1.28899 0
M  V30 2045 H 182.042 -6.44202 1.90929 0
M  V30 2046 N 184.763 -0.387143 -1.52771 0
M  V30 2047 C 185.71 0.449048 -2.26389 0
M  V30 2048 C 186.68 1.05961 -1.27912 0
M  V30 2049 O 187.865 1.08804 -1.56737 0
M  V30 2050 C 185.005 1.57155 -3.0724 0
M  V30 2051 C 184.118 0.984066 -4.20643 0
M  V30 2052 C 183.253 2.07745 -4.88892 0
M  V30 2053 C 182.292 1.46574 -5.94292 0
M  V30 2054 N 181.429 2.49834 -6.56146 0
M  V30 2055 H 186.269 -0.185205 -2.97424 0
M  V30 2056 H 183.806 -0.103164 -1.46738 0
M  V30 2057 H 185.764 2.23309 -3.52405 0
M  V30 2058 H 184.394 2.17615 -2.38419 0
M  V30 2059 H 183.446 0.212193 -3.79808 0
M  V30 2060 H 184.758 0.497029 -4.96318 0
M  V30 2061 H 183.912 2.81673 -5.3735 0
M  V30 2062 H 182.651 2.59807 -4.12737 0
M  V30 2063 H 181.656 0.711696 -5.45174 0
M  V30 2064 H 182.881 0.953088 -6.72379 0
M  V30 2065 H 180.827 3.0107 -5.82832 0
M  V30 2066 H 180.744 2.05879 -7.27427 0
M  V30 2067 H 182.012 3.23399 -7.09249 0
M  V30 2068 N 186.241 1.57166 -0.116904 0
M  V30 2069 C 187.481 1.97008 0.544715 0
M  V30 2070 C 187.845 0.998713 1.63981 0
M  V30 2071 O 189.046 1.28644 2.36018 0
M  V30 2072 C 187.317 3.41145 1.06559 0
M  V30 2073 S 188.876 4.02998 1.73603 0
M  V30 2074 H 185.694 0.688587 0.177112 0
M  V30 2075 H 188.296 1.94459 -0.201487 0
M  V30 2076 H 187 4.09592 0.257374 0
M  V30 2077 H 186.531 3.4734 1.84712 0
M  V30 2078 H 188.546 3.93585 3.02168 0
M  V30 2079 N 187.719 -0.156864 1.56817 0
M  V30 2080 C 188.967 -0.869404 1.82444 0
M  V30 2081 C 189.288 -1.82147 0.69623 0
M  V30 2082 O 188.558 -1.93847 -0.28287 0
M  V30 2083 H 187.138 -0.324043 0.673056 0
M  V30 2084 H 189.8 -0.153224 1.94297 0
M  V30 2085 H 188.896 -1.43761 2.77019 0
M  V30 2086 N 189.197 -1.51736 -0.425897 0
M  V30 2087 C 190.443 -1.65214 -1.1761 0
M  V30 2088 C 190.776 -0.372778 -1.90589 0
M  V30 2089 O 190.051 0.628139 -1.84078 0
M  V30 2090 C 190.334 -2.86312 -2.18398 0
M  V30 2091 C 190.187 -4.24254 -1.49426 0
M  V30 2092 C 191.506 -3.02925 -3.19256 0
M  V30 2093 H 188.625 -0.601263 -0.426206 0
M  V30 2094 H 191.267 -1.8425 -0.463882 0
M  V30 2095 H 189.417 -2.70213 -2.79137 0
M  V30 2096 H 191.089 -4.52046 -0.919362 0
M  V30 2097 H 189.332 -4.26426 -0.796432 0
M  V30 2098 H 190.003 -5.05001 -2.22885 0
M  V30 2099 H 192.479 -3.1781 -2.68581 0
M  V30 2100 H 191.355 -3.89199 -3.8706 0
M  V30 2101 H 191.616 -2.15497 -3.86023 0
M  V30 2102 N 190.675 0.682077 -1.42076 0
M  V30 2103 C 191.922 1.44215 -1.42156 0
M  V30 2104 C 192.25 1.94468 -0.0354186 0
M  V30 2105 O 191.505 1.70816 0.955002 0
M  V30 2106 C 191.804 2.66036 -2.38662 0
M  V30 2107 C 191.47 2.34366 -3.85206 0
M  V30 2108 C 190.132 2.25439 -4.25124 0
M  V30 2109 C 192.484 2.08513 -4.77673 0
M  V30 2110 C 189.812 1.88775 -5.55501 0
M  V30 2111 C 192.164 1.73354 -6.08384 0
M  V30 2112 C 190.828 1.62933 -6.47309 0
M  V30 2113 H 190.098 0.527718 -0.520187 0
M  V30 2114 H 192.745 0.778387 -1.74967 0
M  V30 2115 H 191.05 3.3741 -1.99152 0
M  V30 2116 H 192.747 3.24205 -2.35991 0
M  V30 2117 H 189.337 2.42213 -3.53597 0
M  V30 2118 H 193.521 2.14346 -4.47626 0
M  V30 2119 H 188.777 1.7927 -5.84527 0
M  V30 2120 H 192.951 1.52373 -6.79526 0
M  V30 2121 H 190.578 1.34292 -7.48244 0
M  V30 2122 N 192.153 1.28127 0.917671 0
M  V30 2123 C 193.083 1.14248 2.03641 0
M  V30 2124 C 194.064 0.0412748 1.7005 0
M  V30 2125 O 195.249 0.217566 1.92977 0
M  V30 2126 C 192.379 0.799431 3.37974 0
M  V30 2127 C 191.333 1.85497 3.85713 0
M  V30 2128 C 190.659 1.36565 5.16966 0
M  V30 2129 C 191.959 3.26085 4.08002 0
M  V30 2130 H 193.653 2.07835 2.15511 0
M  V30 2131 H 191.199 1.00064 1.03553 0
M  V30 2132 H 193.152 0.689114 4.15727 0
M  V30 2133 H 191.876 -0.172145 3.26146 0
M  V30 2134 H 190.535 1.95437 3.10161 0
M  V30 2135 H 190.183 0.383253 5.01538 0
M  V30 2136 H 189.883 2.07143 5.49878 0
M  V30 2137 H 191.407 1.26848 5.97279 0
M  V30 2138 H 192.821 3.19089 4.76293 0
M  V30 2139 H 191.218 3.94462 4.52238 0
M  V30 2140 H 192.288 3.70394 3.12948 0
M  V30 2141 N 193.631 -1.12557 1.10312 0
M  V30 2142 C 194.561 -2.20341 0.772798 0
M  V30 2143 C 195.542 -1.68198 -0.25365 0
M  V30 2144 O 196.727 -1.93831 -0.119699 0
M  V30 2145 C 193.857 -3.46709 0.202443 0
M  V30 2146 C 192.811 -4.11996 1.15943 0
M  V30 2147 C 192.137 -5.328 0.450345 0
M  V30 2148 C 193.437 -4.5828 2.50552 0
M  V30 2149 H 195.131 -2.48229 1.674 0
M  V30 2150 H 192.677 -1.19308 0.806326 0
M  V30 2151 H 194.63 -4.2138 -0.0407752 0
M  V30 2152 H 193.354 -3.18245 -0.734001 0
M  V30 2153 H 192.013 -3.39305 1.38808 0
M  V30 2154 H 191.661 -5.00602 -0.490531 0
M  V30 2155 H 191.361 -5.7743 1.08851 0
M  V30 2156 H 192.885 -6.10219 0.215642 0
M  V30 2157 H 194.299 -5.2433 2.31843 0
M  V30 2158 H 192.696 -5.13683 3.10242 0
M  V30 2159 H 193.766 -3.72329 3.10643 0
M  V30 2160 N 195.109 -0.891671 -1.2995 0
M  V30 2161 C 196.057 -0.353066 -2.29905 0
M  V30 2162 C 197.051 0.543509 -1.60444 0
M  V30 2163 O 198.257 0.4272 -1.74857 0
M  V30 2164 H 194.632 -0.095531 -0.745907 0
M  V30 2165 H 196.603 -1.20961 -2.72784 0
M  V30 2166 C 195.352 0.411475 -3.45257 0
M  V30 2167 H 194.675 -0.269182 -3.98893 0
M  V30 2168 H 196.115 0.753328 -4.17254 0
M  V30 2169 C 194.574 1.6111 -2.9588 0
M  V30 2170 O 195.104 2.71045 -2.96475 0
M  V30 2171 N 193.31 1.45054 -2.51809 0
M  V30 2172 H 192.857 0.556175 -2.51524 0
M  V30 2173 H 192.815 2.25453 -2.1913 0
M  V30 2174 N 196.587 1.43421 -0.653314 0
M  V30 2175 C 197.835 2.01414 -0.166415 0
M  V30 2176 C 198.156 1.51803 1.22397 0
M  V30 2177 O 197.426 0.730693 1.81763 0
M  V30 2178 H 196.006 0.744703 -0.0585319 0
M  V30 2179 H 198.668 1.75629 -0.845003 0
M  V30 2180 H 197.764 3.11734 -0.151111 0
M  V30 2181 N 198.065 0.39524 1.52563 0
M  V30 2182 C 199.476 -0.0774719 1.86539 0
M  V30 2183 C 199.827 -1.45641 1.31466 0
M  V30 2184 O 198.952 -2.06459 0.648367 0
M  V30 2185 C 199.547 -0.147356 3.38479 0
M  V30 2186 C 198.106 -0.564373 3.72145 0
M  V30 2187 C 197.253 0.269919 2.75983 0
M  V30 2188 H 200.204 0.612876 1.46388 0
M  V30 2189 H 200.225 -0.965343 3.68051 0
M  V30 2190 H 199.737 0.856387 3.78534 0
M  V30 2191 H 197.838 -1.57527 3.37663 0
M  V30 2192 H 197.951 -0.318402 4.78041 0
M  V30 2193 H 196.315 -0.265696 2.5331 0
M  V30 2194 H 197.098 1.27175 3.18875 0
M  V30 2195 N 199.544 -1.57102 0.125237 0
M  V30 2196 C 200.454 -2.19191 -0.8362 0
M  V30 2197 C 201.47 -1.16985 -1.28805 0
M  V30 2198 O 202.646 -1.49479 -1.34974 0
M  V30 2199 C 199.711 -2.78407 -2.06617 0
M  V30 2200 C 198.772 -3.9567 -1.66565 0
M  V30 2201 C 198.005 -4.52052 -2.83698 0
M  V30 2202 O 198.228 -4.07326 -3.99302 0
M  V30 2203 O 197.162 -5.42645 -2.60423 0
M  V30 2204 H 200.988 -3.01816 -0.337776 0
M  V30 2205 H 198.573 -1.4906 -0.100695 0
M  V30 2206 H 200.455 -3.16129 -2.7864 0
M  V30 2207 H 199.13 -1.9881 -2.55453 0
M  V30 2208 H 198.037 -3.62705 -0.916296 0
M  V30 2209 H 199.37 -4.76722 -1.22464 0
M  V30 2210 N 201.022 0.148545 -1.56898 0
M  V30 2211 C 202.268 0.857877 -1.84424 0
M  V30 2212 C 202.623 1.7886 -0.709006 0
M  V30 2213 O 201.916 1.89344 0.293139 0
M  V30 2214 C 202.11 1.67064 -3.1595 0
M  V30 2215 C 201.939 0.82011 -4.42159 0
M  V30 2216 C 200.709 0.486328 -5.02954 0
M  V30 2217 C 202.907 0.151155 -5.14078 0
M  V30 2218 N 200.889 -0.377956 -6.12735 0
M  V30 2219 C 202.26 -0.573333 -6.17343 0
M  V30 2220 C 204.315 0.0716685 -4.97848 0
M  V30 2221 C 203.018 -1.3698 -7.06137 0
M  V30 2222 C 205.044 -0.711532 -5.87104 0
M  V30 2223 C 204.406 -1.42431 -6.8985 0
M  V30 2224 H 200.505 0.291798 -0.725519 0
M  V30 2225 H 203.089 0.123347 -1.94309 0
M  V30 2226 H 201.26 2.37642 -3.07215 0
M  V30 2227 H 202.992 2.32302 -3.31388 0
M  V30 2228 H 199.747 0.821753 -4.66416 0
M  V30 2229 H 200.171 -0.801077 -6.72244 0
M  V30 2230 H 204.813 0.608381 -4.184 0
M  V30 2231 H 202.531 -1.91778 -7.85014 0
M  V30 2232 H 206.117 -0.775005 -5.76615 0
M  V30 2233 H 204.997 -2.02061 -7.57721 0
M  V30 2234 N 202.5 1.5196 0.417844 0
M  V30 2235 C 203.916 1.40569 0.755816 0
M  V30 2236 C 204.116 0.503316 1.95113 0
M  V30 2237 O 203.172 -0.0341925 2.52477 0
M  V30 2238 C 204.485 2.82947 1.01791 0
M  V30 2239 C 206.033 2.92231 1.12116 0
M  V30 2240 C 206.508 4.35559 1.41608 0
M  V30 2241 N 207.999 4.38753 1.48491 0
M  V30 2242 C 208.734 5.46705 1.7292 0
M  V30 2243 N 208.23 6.64788 1.95011 0
M  V30 2244 N 210.023 5.34209 1.74863 0
M  V30 2245 H 202.174 2.09168 -0.369098 0
M  V30 2246 H 204.437 0.942409 -0.102809 0
M  V30 2247 H 204.143 3.5106 0.212081 0
M  V30 2248 H 204.017 3.23462 1.94042 0
M  V30 2249 H 206.404 2.24304 1.9176 0
M  V30 2250 H 206.485 2.55185 0.177225 0
M  V30 2251 H 206.129 5.04042 0.624848 0
M  V30 2252 H 206.059 4.70133 2.37239 0
M  V30 2253 H 208.55 3.5363 1.33244 0
M  V30 2254 H 208.863 7.42845 2.13076 0
M  V30 2255 H 207.208 6.67869 1.92293 0
M  V30 2256 H 210.399 4.40937 1.57137 0
M  V30 2257 H 210.572 6.18415 1.93563 0
M  V30 2258 N 203.978 -0.674533 1.42435 0
M  V30 2259 C 205.225 -1.43459 1.42919 0
M  V30 2260 C 205.553 -1.94446 0.0457312 0
M  V30 2261 O 204.808 -1.7132 -0.94593 0
M  V30 2262 C 205.107 -2.64767 2.40069 0
M  V30 2263 C 204.773 -2.3232 3.86443 0
M  V30 2264 C 203.435 -2.23182 4.26314 0
M  V30 2265 C 205.787 -2.05977 4.78773 0
M  V30 2266 C 203.115 -1.85827 5.56494 0
M  V30 2267 C 205.467 -1.70125 6.09295 0
M  V30 2268 C 204.131 -1.59498 6.48164 0
M  V30 2269 H 203.401 -0.524952 0.522978 0
M  V30 2270 H 206.048 -0.769097 1.75377 0
M  V30 2271 H 204.353 -3.36349 2.00939 0
M  V30 2272 H 206.05 -3.22949 2.37707 0
M  V30 2273 H 202.64 -2.40334 3.54877 0
M  V30 2274 H 206.824 -2.11969 4.48757 0
M  V30 2275 H 202.08 -1.76168 5.8547 0
M  V30 2276 H 206.254 -1.48767 6.80324 0
M  V30 2277 H 203.881 -1.30322 7.48946 0
M  V30 2278 N 205.456 -1.28612 -0.910864 0
M  V30 2279 C 206.404 -1.1265 -2.03501 0
M  V30 2280 C 207.398 -0.0450054 -1.6934 0
M  V30 2281 O 208.604 -0.203988 -1.7884 0
M  V30 2282 H 204.979 -0.347639 -0.666822 0
M  V30 2283 H 206.95 -2.07849 -2.14106 0
M  V30 2284 C 205.699 -0.808143 -3.38178 0
M  V30 2285 H 205.022 -1.63231 -3.6496 0
M  V30 2286 H 206.462 -0.736426 -4.17556 0
M  V30 2287 C 204.921 0.488226 -3.33344 0
M  V30 2288 O 205.451 1.51766 -3.71927 0
M  V30 2289 N 203.657 0.490009 -2.86439 0
M  V30 2290 H 203.204 -0.348161 -2.55236 0
M  V30 2291 H 203.162 1.35741 -2.83587 0
M  V30 2292 N 206.934 1.1197 -1.10907 0
M  V30 2293 C 208.35 1.35591 -0.841852 0
M  V30 2294 C 208.55 1.94233 0.536246 0
M  V30 2295 O 207.606 2.1717 1.28816 0
M  V30 2296 C 208.919 2.29284 -1.94549 0
M  V30 2297 C 210.467 2.42862 -1.97451 0
M  V30 2298 C 210.942 3.39873 -3.07002 0
M  V30 2299 N 212.433 3.47433 -3.06341 0
M  V30 2300 C 213.168 4.22421 -3.87748 0
M  V30 2301 N 212.664 5.00432 -4.79103 0
M  V30 2302 N 214.457 4.17876 -3.75946 0
M  V30 2303 H 206.608 0.722664 -1.99728 0
M  V30 2304 H 208.871 0.380635 -0.868229 0
M  V30 2305 H 208.577 1.93378 -2.93765 0
M  V30 2306 H 208.451 3.29452 -1.83688 0
M  V30 2307 H 210.838 2.78046 -0.988645 0
M  V30 2308 H 210.919 1.42566 -2.12388 0
M  V30 2309 H 210.563 3.05417 -4.05811 0
M  V30 2310 H 210.493 4.40011 -2.89306 0
M  V30 2311 H 212.984 2.91784 -2.40147 0
M  V30 2312 H 213.297 5.55002 -5.37766 0
M  V30 2313 H 211.642 4.99612 -4.83128 0
M  V30 2314 H 214.833 3.56016 -3.03924 0
M  V30 2315 H 215.006 4.76061 -4.39624 0
M  V30 2316 N 208.412 0.89855 1.29475 0
M  V30 2317 C 209.342 0.39201 2.30186 0
M  V30 2318 C 210.323 -0.532359 1.61555 0
M  V30 2319 O 211.508 -0.443331 1.89072 0
M  V30 2320 C 208.638 -0.382353 3.45189 0
M  V30 2321 C 207.592 0.451483 4.25612 0
M  V30 2322 C 206.918 -0.450307 5.328 0
M  V30 2323 C 208.218 1.70079 4.93832 0
M  V30 2324 H 209.912 1.23362 2.72804 0
M  V30 2325 H 207.458 0.594638 1.31149 0
M  V30 2326 H 209.411 -0.747451 4.14718 0
M  V30 2327 H 208.135 -1.25774 3.01411 0
M  V30 2328 H 206.794 0.798897 3.57789 0
M  V30 2329 H 206.442 -1.32379 4.85268 0
M  V30 2330 H 206.142 0.103902 5.87508 0
M  V30 2331 H 207.666 -0.811623 6.05182 0
M  V30 2332 H 209.08 1.40549 5.55805 0
M  V30 2333 H 207.477 2.19623 5.58467 0
M  V30 2334 H 208.547 2.43744 4.19186 0
M  V30 2335 N 209.89 -1.43072 0.660911 0
M  V30 2336 C 211.306 -1.56169 0.329173 0
M  V30 2337 C 211.506 -1.64317 -1.16629 0
M  V30 2338 O 210.562 -1.60245 -1.95135 0
M  V30 2339 C 211.875 -2.81873 1.04729 0
M  V30 2340 C 213.423 -2.95627 1.02828 0
M  V30 2341 C 213.898 -4.24174 1.72744 0
M  V30 2342 N 215.389 -4.31055 1.69545 0
M  V30 2343 C 216.124 -5.29304 2.20511 0
M  V30 2344 N 215.62 -6.33786 2.79799 0
M  V30 2345 N 217.413 -5.21008 2.10966 0
M  V30 2346 H 209.564 -1.36027 1.63127 0
M  V30 2347 H 211.827 -0.653823 0.686454 0
M  V30 2348 H 211.533 -2.81942 2.10242 0
M  V30 2349 H 211.407 -3.72338 0.603702 0
M  V30 2350 H 213.794 -2.95094 -0.0184742 0
M  V30 2351 H 213.875 -2.06431 1.51063 0
M  V30 2352 H 213.519 -4.25467 2.7738 0
M  V30 2353 H 213.449 -5.1228 1.2197 0
M  V30 2354 H 215.94 -3.56174 1.26288 0
M  V30 2355 H 216.253 -7.05086 3.16344 0
M  V30 2356 H 214.598 -6.34387 2.83863 0
M  V30 2357 H 217.789 -4.38301 1.64347 0
M  V30 2358 H 217.962 -5.97416 2.50993 0
M  V30 2359 N 211.368 -0.403325 -1.52352 0
M  V30 2360 C 212.298 0.416205 -2.29761 0
M  V30 2361 C 213.279 1.05123 -1.33728 0
M  V30 2362 O 214.464 1.06134 -1.62632 0
M  V30 2363 C 211.594 1.53624 -3.11475 0
M  V30 2364 C 210.548 1.02653 -4.15507 0
M  V30 2365 C 209.874 2.23971 -4.85532 0
M  V30 2366 C 211.174 0.08463 -5.22231 0
M  V30 2367 H 212.868 -0.229701 -2.98518 0
M  V30 2368 H 210.414 -0.111913 -1.43564 0
M  V30 2369 H 212.367 2.1165 -3.64393 0
M  V30 2370 H 211.091 2.20994 -2.40477 0
M  V30 2371 H 209.75 0.46871 -3.63591 0
M  V30 2372 H 209.398 2.89883 -4.11068 0
M  V30 2373 H 209.098 1.90521 -5.55856 0
M  V30 2374 H 210.622 2.82614 -5.41259 0
M  V30 2375 H 212.036 0.573509 -5.70424 0
M  V30 2376 H 210.433 -0.160783 -5.99885 0
M  V30 2377 H 211.503 -0.86237 -4.7717 0
M  V30 2378 N 212.846 1.57033 -0.133567 0
M  V30 2379 C 213.794 2.17348 0.828412 0
M  V30 2380 C 214.788 1.12671 1.26498 0
M  V30 2381 O 215.994 1.30947 1.23502 0
M  V30 2382 H 212.369 0.695775 0.285309 0
M  V30 2383 H 214.34 2.96935 0.295372 0
M  V30 2384 C 213.089 2.79893 2.06289 0
M  V30 2385 H 212.412 3.60147 1.73592 0
M  V30 2386 H 213.852 3.25615 2.71572 0
M  V30 2387 C 212.311 1.77713 2.86216 0
M  V30 2388 O 212.841 1.23937 3.82103 0
M  V30 2389 N 211.047 1.47321 2.50489 0
M  V30 2390 H 210.594 1.91243 1.7258 0
M  V30 2391 H 210.552 0.79199 3.04261 0
M  V30 2392 N 214.325 -0.140222 1.56975 0
M  V30 2393 C 215.736 -0.699596 1.73097 0
M  V30 2394 C 216.087 -1.8134 0.749022 0
M  V30 2395 O 215.212 -2.16241 -0.0828503 0
M  V30 2396 C 215.807 -1.27582 3.1386 0
M  V30 2397 C 214.366 -1.78169 3.31561 0
M  V30 2398 C 213.513 -0.672855 2.69013 0
M  V30 2399 H 216.464 0.0855115 1.58469 0
M  V30 2400 H 216.485 -2.14561 3.14235 0
M  V30 2401 H 215.997 -0.464955 3.85305 0
M  V30 2402 H 214.098 -2.61801 2.65124 0
M  V30 2403 H 214.211 -1.90574 4.39566 0
M  V30 2404 H 212.575 -1.10118 2.29665 0
M  V30 2405 H 213.358 0.126679 3.43066 0
M  V30 2406 N 215.803 -1.52179 -0.40978 0
M  V30 2407 C 216.713 -1.78364 -1.52392 0
M  V30 2408 C 217.729 -0.669183 -1.60617 0
M  V30 2409 O 218.905 -0.954518 -1.77344 0
M  V30 2410 C 215.97 -1.92822 -2.88133 0
M  V30 2411 C 215.031 -3.16725 -2.898 0
M  V30 2412 C 214.264 -3.30483 -4.19067 0
M  V30 2413 O 214.487 -2.49522 -5.12928 0
M  V30 2414 O 213.421 -4.2363 -4.27576 0
M  V30 2415 H 217.247 -2.72931 -1.33201 0
M  V30 2416 H 214.832 -1.37016 -0.59557 0
M  V30 2417 H 216.714 -2.04157 -3.68643 0
M  V30 2418 H 215.389 -1.01444 -3.07393 0
M  V30 2419 H 214.296 -3.10848 -2.08146 0
M  V30 2420 H 215.629 -4.07881 -2.75489 0
M  V30 2421 N 217.281 0.66697 -1.42791 0
M  V30 2422 C 218.527 1.4291 -1.43891 0
M  V30 2423 C 218.86 1.94114 -0.0578972 0
M  V30 2424 O 218.135 1.71414 0.91911 0
M  V30 2425 C 218.418 2.62049 -2.46987 0
M  V30 2426 C 218.271 2.16426 -3.94309 0
M  V30 2427 C 219.59 3.64266 -2.46978 0
M  V30 2428 H 216.709 0.518306 -0.523954 0
M  V30 2429 H 219.351 0.757321 -1.74255 0
M  V30 2430 H 217.501 3.19361 -2.21225 0
M  V30 2431 H 219.173 1.64221 -4.31079 0
M  V30 2432 H 217.416 1.47925 -4.078 0
M  V30 2433 H 218.087 3.02038 -4.62036 0
M  V30 2434 H 220.563 3.16686 -2.69906 0
M  V30 2435 H 219.439 4.45196 -3.21079 0
M  V30 2436 H 219.7 4.15927 -1.49857 0
M  V30 2437 N 218.759 1.29093 0.90403 0
M  V30 2438 C 219.689 1.16401 2.02418 0
M  V30 2439 C 220.67 0.0593085 1.69997 0
M  V30 2440 O 221.855 0.238021 1.92736 0
M  V30 2441 C 218.985 0.835233 3.37107 0
M  V30 2442 C 217.939 1.89578 3.83724 0
M  V30 2443 C 217.265 1.42041 5.15489 0
M  V30 2444 C 218.565 3.30394 4.04521 0
M  V30 2445 H 220.259 2.10109 2.13295 0
M  V30 2446 H 217.805 1.01157 1.02486 0
M  V30 2447 H 219.758 0.733169 4.14973 0
M  V30 2448 H 218.482 -0.137543 3.2631 0
M  V30 2449 H 217.141 1.98715 3.08071 0
M  V30 2450 H 216.789 0.436426 5.01103 0
M  V30 2451 H 216.489 2.12964 5.4765 0
M  V30 2452 H 218.013 1.33176 5.959 0
M  V30 2453 H 219.427 3.24123 4.72882 0
M  V30 2454 H 217.824 3.99237 4.48029 0
M  V30 2455 H 218.894 3.73692 3.09002 0
M  V30 2456 N 220.237 -1.11381 1.11499 0
M  V30 2457 C 221.462 -1.87475 0.887019 0
M  V30 2458 C 221.887 -1.79639 -0.557796 0
M  V30 2459 O 221.245 -1.15924 -1.39396 0
M  V30 2460 C 221.293 -3.34213 1.35403 0
M  V30 2461 O 220.397 -4.0903 0.526146 0
M  V30 2462 H 219.738 -0.582099 0.319463 0
M  V30 2463 H 222.268 -1.40785 1.48461 0
M  V30 2464 H 222.278 -3.8506 1.34881 0
M  V30 2465 H 220.953 -3.39232 2.40612 0
M  V30 2466 H 219.53 -3.68082 0.597522 0
M  V30 2467 N 221.715 -0.905404 -1.28997 0
M  V30 2468 C 223.126 -0.581953 -1.77398 0
M  V30 2469 C 223.477 0.902552 -1.74208 0
M  V30 2470 O 222.602 1.70584 -1.33154 0
M  V30 2471 C 223.197 -1.04961 -3.22131 0
M  V30 2472 C 221.756 -0.777229 -3.68288 0
M  V30 2473 C 220.903 -1.22109 -2.48967 0
M  V30 2474 H 223.854 -1.08754 -1.15578 0
M  V30 2475 H 223.875 -0.387387 -3.78523 0
M  V30 2476 H 223.387 -2.13008 -3.24421 0
M  V30 2477 H 221.488 0.290383 -3.71467 0
M  V30 2478 H 221.601 -1.37911 -4.58822 0
M  V30 2479 H 219.965 -0.639971 -2.46529 0
M  V30 2480 H 220.748 -2.30972 -2.53982 0
M  V30 2481 N 223.193 1.4272 -0.668489 0
M  V30 2482 C 224.141 2.32586 0.0254857 0
M  V30 2483 C 225.135 1.49471 0.797176 0
M  V30 2484 O 226.341 1.65583 0.705853 0
M  V30 2485 H 222.716 0.751514 0.0270339 0
M  V30 2486 H 224.687 2.88823 -0.749936 0
M  V30 2487 C 223.436 3.3397 0.967427 0
M  V30 2488 H 222.759 3.97961 0.383048 0
M  V30 2489 H 224.199 3.9945 1.42181 0
M  V30 2490 C 222.658 2.65744 2.0708 0
M  V30 2491 O 223.188 2.48454 3.15648 0
M  V30 2492 N 221.394 2.2487 1.8407 0
M  V30 2493 H 220.941 2.39132 0.95778 0
M  V30 2494 H 220.899 1.79552 2.58086 0
M  V30 2495 N 224.671 0.411399 1.52136 0
M  V30 2496 C 225.634 -0.401089 2.25663 0
M  V30 2497 C 226.634 -0.971732 1.28117 0
M  V30 2498 O 227.824 -0.850254 1.52041 0
M  V30 2499 C 224.956 -1.56483 3.02863 0
M  V30 2500 H 226.149 0.24295 2.98914 0
M  V30 2501 H 223.702 0.163968 1.55438 0
M  V30 2502 H 224.437 -2.24567 2.33967 0
M  V30 2503 H 224.222 -1.16211 3.74483 0
M  V30 2504 H 225.712 -2.13951 3.58629 0
M  V30 2505 N 226.149 -1.5696 0.141893 0
M  V30 2506 C 227.395 -1.9625 -0.511248 0
M  V30 2507 C 227.728 -1.02654 -1.64851 0
M  V30 2508 O 227.003 -0.0679676 -1.94381 0
M  V30 2509 C 227.286 -3.45285 -1.02227 0
M  V30 2510 C 227.139 -4.49658 0.113138 0
M  V30 2511 C 228.458 -3.96698 -1.90574 0
M  V30 2512 H 225.577 -0.713567 -0.184367 0
M  V30 2513 H 228.219 -1.88698 0.222087 0
M  V30 2514 H 226.369 -3.51852 -1.64719 0
M  V30 2515 H 228.041 -4.55174 0.749302 0
M  V30 2516 H 226.284 -4.26857 0.773026 0
M  V30 2517 H 226.955 -5.51258 -0.286053 0
M  V30 2518 H 229.431 -3.92578 -1.37918 0
M  V30 2519 H 228.307 -5.01453 -2.2324 0
M  V30 2520 H 228.568 -3.3875 -2.84079 0
M  V30 2521 N 227.627 0.131896 -1.57047 0
M  V30 2522 C 228.559 1.1878 -1.9602 0
M  V30 2523 C 229.572 1.38363 -0.857875 0
M  V30 2524 O 230.761 1.37666 -1.13623 0
M  V30 2525 C 227.861 2.55008 -2.23213 0
M  V30 2526 C 227.034 2.56201 -3.54513 0
M  V30 2527 C 226.093 3.7408 -3.70069 0
M  V30 2528 O 225.119 3.58258 -4.42312 0
M  V30 2529 N 226.321 4.92137 -3.07866 0
M  V30 2530 H 229.086 0.85639 -2.87204 0
M  V30 2531 H 226.647 0.321309 -1.5868 0
M  V30 2532 H 228.639 3.32404 -2.30846 0
M  V30 2533 H 227.209 2.80382 -1.3822 0
M  V30 2534 H 226.429 1.64613 -3.58185 0
M  V30 2535 H 227.717 2.54043 -4.4084 0
M  V30 2536 H 227.115 5.07895 -2.49116 0
M  V30 2537 H 225.672 5.67254 -3.21039 0
M  V30 2538 N 229.106 1.52395 0.401703 0
M  V30 2539 C 230.522 1.41363 0.740864 0
M  V30 2540 C 230.722 0.523982 1.94568 0
M  V30 2541 O 229.778 -0.00741204 2.52499 0
M  V30 2542 C 231.091 2.84011 0.987847 0
M  V30 2543 C 232.639 2.93404 1.09011 0
M  V30 2544 C 233.114 4.37036 1.3698 0
M  V30 2545 N 234.605 4.40304 1.43829 0
M  V30 2546 C 235.34 5.48508 1.67112 0
M  V30 2547 N 234.836 6.66819 1.87949 0
M  V30 2548 N 236.629 5.36034 1.69187 0
M  V30 2549 H 228.78 2.08765 -0.391262 0
M  V30 2550 H 231.043 0.941265 -0.112798 0
M  V30 2551 H 230.749 3.51265 0.174835 0
M  V30 2552 H 230.623 3.25502 1.906 0
M  V30 2553 H 233.01 2.26325 1.8937 0
M  V30 2554 H 233.091 2.55359 0.15015 0
M  V30 2555 H 232.735 5.04676 0.571353 0
M  V30 2556 H 232.665 4.72623 2.3224 0
M  V30 2557 H 235.156 3.55024 1.29486 0
M  V30 2558 H 235.469 7.45063 2.05185 0
M  V30 2559 H 233.814 6.6987 1.85199 0
M  V30 2560 H 237.005 4.42579 1.52451 0
M  V30 2561 H 237.178 6.20434 1.86993 0
M  V30 2562 N 230.584 -0.659388 1.43143 0
M  V30 2563 C 231.831 -1.41935 1.44433 0
M  V30 2564 C 232.159 -1.94387 0.0663522 0
M  V30 2565 O 231.414 -1.72314 -0.927706 0
M  V30 2566 C 231.713 -2.62206 2.42864 0
M  V30 2567 C 231.379 -2.28208 3.88886 0
M  V30 2568 C 230.041 -2.18647 4.28657 0
M  V30 2569 C 232.393 -2.00887 4.8093 0
M  V30 2570 C 229.721 -1.79914 5.58433 0
M  V30 2571 C 232.073 -1.63653 6.11065 0
M  V30 2572 C 230.737 -1.52614 6.49819 0
M  V30 2573 H 230.007 -0.519376 0.528517 0
M  V30 2574 H 232.654 -0.750453 1.76183 0
M  V30 2575 H 230.959 -3.34199 2.04495 0
M  V30 2576 H 232.656 -3.2041 2.41119 0
M  V30 2577 H 229.246 -2.36557 3.57406 0
M  V30 2578 H 233.43 -2.07198 4.5098 0
M  V30 2579 H 228.686 -1.69948 5.87305 0
M  V30 2580 H 232.86 -1.41543 6.81864 0
M  V30 2581 H 230.487 -1.22371 7.50286 0
M  V30 2582 N 232.062 -1.29571 -0.897171 0
M  V30 2583 C 232.992 -1.17473 -2.01798 0
M  V30 2584 C 233.973 -0.068323 -1.69963 0
M  V30 2585 O 235.158 -0.248239 -1.92607 0
M  V30 2586 C 232.288 -0.853099 -3.36659 0
M  V30 2587 C 231.242 -1.9161 -3.82713 0
M  V30 2588 C 230.568 -1.44773 -5.14728 0
M  V30 2589 C 231.868 -3.32535 -4.02763 0
M  V30 2590 H 233.562 -2.11237 -2.12177 0
M  V30 2591 H 231.108 -1.01699 -1.01948 0
M  V30 2592 H 233.061 -0.755165 -4.14578 0
M  V30 2593 H 231.785 0.120236 -3.26379 0
M  V30 2594 H 230.444 -2.00346 -3.07013 0
M  V30 2595 H 230.092 -0.462995 -5.00865 0
M  V30 2596 H 229.792 -2.15865 -5.46513 0
M  V30 2597 H 231.316 -1.36334 -5.95185 0
M  V30 2598 H 232.73 -3.26626 -4.71156 0
M  V30 2599 H 231.127 -4.01607 -4.45905 0
M  V30 2600 H 232.197 -3.75326 -3.07016 0
M  V30 2601 N 233.54 1.10788 -1.12088 0
M  V30 2602 C 234.951 1.64181 -0.88891 0
M  V30 2603 C 235.302 1.87508 0.577498 0
M  V30 2604 O 234.427 1.61434 1.44112 0
M  V30 2605 C 235.022 2.98257 -1.60712 0
M  V30 2606 C 233.581 3.4853 -1.42139 0
M  V30 2607 C 232.728 2.23208 -1.6454 0
M  V30 2608 H 235.679 0.943368 -1.27618 0
M  V30 2609 H 235.7 3.65552 -1.05604 0
M  V30 2610 H 235.212 2.81246 -2.67436 0
M  V30 2611 H 233.313 3.70692 -0.376552 0
M  V30 2612 H 233.426 4.26882 -2.17505 0
M  V30 2613 H 231.79 2.31169 -1.06925 0
M  V30 2614 H 232.573 2.08733 -2.72554 0
M  V30 2615 N 235.018 0.912232 1.28515 0
M  V30 2616 C 235.951 0.343928 2.25593 0
M  V30 2617 C 236.929 -0.550994 1.5298 0
M  V30 2618 O 238.113 -0.494991 1.81885 0
M  V30 2619 C 235.24 -0.508525 3.34861 0
M  V30 2620 C 234.286 0.320808 4.25292 0
M  V30 2621 S 235.119 1.72658 5.06902 0
M  V30 2622 C 236.275 0.881394 6.19663 0
M  V30 2623 H 236.508 1.16674 2.73449 0
M  V30 2624 H 234.041 0.713384 1.36931 0
M  V30 2625 H 235.999 -0.994539 3.9827 0
M  V30 2626 H 234.66 -1.30571 2.85675 0
M  V30 2627 H 233.853 -0.330941 5.02912 0
M  V30 2628 H 233.455 0.74042 3.66598 0
M  V30 2629 H 235.747 0.110359 6.7741 0
M  V30 2630 H 236.69 1.63009 6.89082 0
M  V30 2631 H 237.098 0.430239 5.62858 0
M  V30 2632 N 236.496 -1.42363 0.676048 0
M  V30 2633 C 237.742 -2.0182 0.199125 0
M  V30 2634 C 238.075 -1.53339 -1.19168 0
M  V30 2635 O 237.35 -0.736124 -1.80032 0
M  V30 2636 C 237.633 -3.59331 0.235144 0
M  V30 2637 C 237.486 -4.17989 1.66149 0
M  V30 2638 C 238.805 -4.3813 -0.41595 0
M  V30 2639 H 235.924 -0.733293 0.0738311 0
M  V30 2640 H 238.566 -1.69368 0.86107 0
M  V30 2641 H 236.716 -3.87109 -0.328487 0
M  V30 2642 H 238.388 -4.0116 2.27747 0
M  V30 2643 H 236.631 -3.7377 2.20178 0
M  V30 2644 H 237.302 -5.27126 1.63837 0
M  V30 2645 H 239.778 -4.16051 0.0638529 0
M  V30 2646 H 238.654 -5.47717 -0.360115 0
M  V30 2647 H 238.915 -4.16101 -1.49373 0
M  V30 2648 N 237.974 -0.419461 -1.51915 0
M  V30 2649 C 239.251 0.211999 -1.94448 0
M  V30 2650 C 239.631 1.61703 -1.35703 0
M  V30 2651 O 238.979 2.22102 -0.536931 0
M  V30 2652 C 239.189 0.207872 -3.4838 0
M  V30 2653 C 240.537 0.422192 -4.22496 0
M  V30 2654 O 241.561 0.286778 -3.55044 0
M  V30 2655 O 240.42 0.690009 -5.42126 0
M  V30 2656 H 237.514 0.139586 -0.815135 0
M  V30 2657 H 240.06 -0.476151 -1.62883 0
M  V30 2658 H 238.832 -0.775102 -3.83546 0
M  V30 2659 H 238.455 0.939688 -3.86336 0
M  V30 2660 N 239.452 1.56882 -0.150215 0
M  V30 2661 C 240.415 2.1573 0.774157 0
M  V30 2662 C 241.415 1.0999 1.17298 0
M  V30 2663 O 242.605 1.35613 1.09338 0
M  V30 2664 C 239.737 2.72302 2.05096 0
M  V30 2665 H 240.93 2.98752 0.262201 0
M  V30 2666 H 238.483 1.55985 0.099248 0
M  V30 2667 H 239.218 1.92956 2.6065 0
M  V30 2668 H 239.003 3.49665 1.77416 0
M  V30 2669 H 240.493 3.17632 2.71109 0
M  V30 2670 N 240.93 -0.123565 1.57115 0
M  V30 2671 C 242.176 -0.833386 1.84885 0
M  V30 2672 C 242.509 -1.79742 0.735292 0
M  V30 2673 O 241.784 -1.92764 -0.25925 0
M  V30 2674 C 242.067 -1.5873 3.23228 0
M  V30 2675 C 241.92 -0.643183 4.45178 0
M  V30 2676 C 243.239 -2.54453 3.59085 0
M  V30 2677 H 240.358 -0.301518 0.6725 0
M  V30 2678 H 243 -0.097778 1.89748 0
M  V30 2679 H 241.15 -2.21438 3.19214 0
M  V30 2680 H 242.822 -0.0253015 4.61293 0
M  V30 2681 H 241.065 0.0456139 4.33776 0
M  V30 2682 H 241.736 -1.20724 5.38637 0
M  V30 2683 H 244.212 -2.01853 3.63861 0
M  V30 2684 H 243.088 -3.04238 4.5687 0
M  V30 2685 H 243.349 -3.36906 2.86264 0
M  V30 2686 N 242.408 -1.52605 -0.393616 0
M  V30 2687 C 243.371 -1.76415 -1.46323 0
M  V30 2688 C 244.371 -0.634126 -1.47768 0
M  V30 2689 O 245.561 -0.902142 -1.4902 0
M  V30 2690 C 242.693 -1.8607 -2.85641 0
M  V30 2691 H 243.886 -2.71916 -1.26498 0
M  V30 2692 H 241.439 -1.43257 -0.625073 0
M  V30 2693 H 242.174 -0.925378 -3.10817 0
M  V30 2694 H 241.959 -2.68235 -2.85993 0
M  V30 2695 H 243.449 -2.06179 -3.63153 0
M  V30 2696 N 243.887 0.651787 -1.4349 0
M  V30 2697 C 245.303 0.96762 -1.26922 0
M  V30 2698 C 245.503 2.00602 -0.189982 0
M  V30 2699 O 244.559 2.48793 0.431107 0
M  V30 2700 C 245.872 1.45052 -2.63401 0
M  V30 2701 C 247.42 1.5671 -2.70945 0
M  V30 2702 C 247.895 2.0839 -4.07845 0
M  V30 2703 N 249.386 2.1569 -4.09917 0
M  V30 2704 C 250.121 2.56804 -5.12679 0
M  V30 2705 N 249.617 2.97203 -6.25813 0
M  V30 2706 N 251.41 2.56756 -5.00033 0
M  V30 2707 H 243.561 -0.0353158 -2.12371 0
M  V30 2708 H 245.824 0.0467858 -0.946845 0
M  V30 2709 H 245.53 0.761926 -3.43348 0
M  V30 2710 H 245.404 2.42529 -2.88894 0
M  V30 2711 H 247.791 2.2467 -1.9133 0
M  V30 2712 H 247.872 0.57662 -2.49216 0
M  V30 2713 H 247.516 1.41031 -4.87927 0
M  V30 2714 H 247.446 3.08271 -4.26938 0
M  V30 2715 H 249.937 1.87237 -3.28254 0
M  V30 2716 H 250.25 3.27328 -7.00055 0
M  V30 2717 H 248.595 2.95004 -6.29283 0
M  V30 2718 H 251.786 2.24572 -4.10713 0
M  V30 2719 H 251.959 2.88475 -5.80247 0
M  V30 2720 N 245.365 1.30045 0.890287 0
M  V30 2721 C 246.642 1.09227 1.62262 0
M  V30 2722 C 247.022 -0.360305 2.08002 0
M  V30 2723 O 246.37 -1.35084 1.84295 0
M  V30 2724 C 246.58 2.08835 2.79623 0
M  V30 2725 C 247.928 2.40266 3.50082 0
M  V30 2726 O 248.952 2.07104 2.89804 0
M  V30 2727 O 247.811 2.96967 4.58773 0
M  V30 2728 H 244.905 0.419132 0.712922 0
M  V30 2729 H 247.451 1.41451 0.937529 0
M  V30 2730 H 246.223 3.06633 2.43089 0
M  V30 2731 H 245.846 1.77397 3.55832 0
M  V30 2732 N 246.843 -1.10192 1.12674 0
M  V30 2733 C 248.09 -1.82205 0.883606 0
M  V30 2734 C 248.418 -1.8532 -0.590492 0
M  V30 2735 O 247.673 -1.31137 -1.45264 0
M  V30 2736 C 247.972 -3.28552 1.4067 0
M  V30 2737 C 247.638 -3.45582 2.89627 0
M  V30 2738 C 246.3 -3.49937 3.30299 0
M  V30 2739 C 248.652 -3.50768 3.85501 0
M  V30 2740 C 245.98 -3.57049 4.65546 0
M  V30 2741 C 248.332 -3.59414 5.20581 0
M  V30 2742 C 246.996 -3.62034 5.60792 0
M  V30 2743 H 246.266 -0.666735 0.323334 0
M  V30 2744 H 248.913 -1.29868 1.40736 0
M  V30 2745 H 247.218 -3.83473 0.80347 0
M  V30 2746 H 248.915 -3.82788 1.19475 0
M  V30 2747 H 245.505 -3.42871 2.57172 0
M  V30 2748 H 249.689 -3.46651 3.55171 0
M  V30 2749 H 244.945 -3.57361 4.96088 0
M  V30 2750 H 249.119 -3.62371 5.94693 0
M  V30 2751 H 246.746 -3.67298 6.6558 0
M  V30 2752 N 248.321 -0.919034 -1.28029 0
M  V30 2753 C 249.546 -0.570357 -1.99403 0
M  V30 2754 C 249.971 0.842486 -1.68178 0
M  V30 2755 O 249.329 1.56391 -0.917141 0
M  V30 2756 C 249.377 -0.792541 -3.51783 0
M  V30 2757 O 248.481 0.145988 -4.12142 0
M  V30 2758 H 247.822 -0.220555 -0.6263 0
M  V30 2759 H 250.352 -1.23592 -1.63053 0
M  V30 2760 H 250.362 -0.704708 -4.01868 0
M  V30 2761 H 249.037 -1.82247 -3.73844 0
M  V30 2762 H 247.614 0.00897528 -3.72899 0
M  V30 2763 N 249.799 1.42003 -0.683588 0
M  V30 2764 C 250.731 2.29183 0.0283068 0
M  V30 2765 C 251.744 1.4415 0.756611 0
M  V30 2766 O 252.933 1.67779 0.609306 0
M  V30 2767 C 250.033 3.21765 1.06398 0
M  V30 2768 C 249.206 4.35496 0.407723 0
M  V30 2769 C 248.265 5.08737 1.34437 0
M  V30 2770 O 247.291 5.62948 0.841318 0
M  V30 2771 N 248.493 5.15075 2.67728 0
M  V30 2772 H 251.258 2.9092 -0.720105 0
M  V30 2773 H 248.819 1.53025 -0.528682 0
M  V30 2774 H 250.811 3.6763 1.69204 0
M  V30 2775 H 249.381 2.61418 1.71404 0
M  V30 2776 H 248.601 3.92165 -0.400012 0
M  V30 2777 H 249.889 5.08776 -0.0490956 0
M  V30 2778 H 249.287 4.72457 3.11129 0
M  V30 2779 H 247.844 5.64556 3.2576 0
M  V30 2780 N 251.277 0.427512 1.51691 0
M  V30 2781 C 252.24 -0.377132 2.26076 0
M  V30 2782 C 253.24 -0.958089 1.29141 0
M  V30 2783 O 254.43 -0.83408 1.52934 0
M  V30 2784 C 251.562 -1.53262 3.04506 0
M  V30 2785 H 252.755 0.27464 2.9864 0
M  V30 2786 H 250.308 0.180445 1.55255 0
M  V30 2787 H 251.043 -2.22072 2.36335 0
M  V30 2788 H 250.828 -1.12232 3.75694 0
M  V30 2789 H 252.318 -2.10135 3.60878 0
M  V30 2790 N 252.755 -1.56801 0.158532 0
M  V30 2791 C 253.685 -2.20347 -0.772609 0
M  V30 2792 C 254.666 -1.15518 -1.24859 0
M  V30 2793 O 255.851 -1.43902 -1.30406 0
M  V30 2794 C 252.981 -2.83417 -2.00729 0
M  V30 2795 C 251.935 -3.94174 -1.66765 0
M  V30 2796 C 251.261 -4.44233 -2.97592 0
M  V30 2797 C 252.561 -5.14392 -0.905447 0
M  V30 2798 H 254.255 -2.98413 -0.242959 0
M  V30 2799 H 251.801 -1.43537 -0.115419 0
M  V30 2800 H 253.754 -3.26543 -2.6636 0
M  V30 2801 H 252.478 -2.02701 -2.56086 0
M  V30 2802 H 251.137 -3.51684 -1.03508 0
M  V30 2803 H 250.785 -3.60325 -3.50963 0
M  V30 2804 H 250.485 -5.18945 -2.75626 0
M  V30 2805 H 252.009 -4.90037 -3.64274 0
M  V30 2806 H 253.423 -5.5429 -1.46408 0
M  V30 2807 H 251.82 -5.9494 -0.7853 0
M  V30 2808 H 252.89 -4.84795 0.100668 0
M  V30 2809 N 254.233 0.115231 -1.57178 0
M  V30 2810 C 255.18 1.14115 -2.00615 0
M  V30 2811 C 256.15 1.40939 -0.878941 0
M  V30 2812 O 257.335 1.52741 -1.14345 0
M  V30 2813 C 254.475 2.46156 -2.4187 0
M  V30 2814 C 253.588 2.26236 -3.68024 0
M  V30 2815 C 252.723 3.51534 -3.98243 0
M  V30 2816 C 251.762 3.26787 -5.17568 0
M  V30 2817 N 250.899 4.44298 -5.43639 0
M  V30 2818 H 255.739 0.763743 -2.88047 0
M  V30 2819 H 253.276 0.365615 -1.42484 0
M  V30 2820 H 255.234 3.23189 -2.63827 0
M  V30 2821 H 253.864 2.81783 -1.57475 0
M  V30 2822 H 252.916 1.40102 -3.5366 0
M  V30 2823 H 254.228 2.03929 -4.55208 0
M  V30 2824 H 253.382 4.36984 -4.20868 0
M  V30 2825 H 252.121 3.76876 -3.09541 0
M  V30 2826 H 251.126 2.39729 -4.94783 0
M  V30 2827 H 252.351 3.02812 -6.0785 0
M  V30 2828 H 250.297 4.69754 -4.57895 0
M  V30 2829 H 250.214 4.25109 -6.25154 0
M  V30 2830 H 251.482 5.3087 -5.70786 0
M  V30 2831 N 255.711 1.52812 0.385517 0
M  V30 2832 C 256.658 1.77838 1.47113 0
M  V30 2833 C 257.628 0.621757 1.54024 0
M  V30 2834 O 258.813 0.861846 1.70226 0
M  V30 2835 C 255.953 1.95618 2.84302 0
M  V30 2836 C 255.066 3.23316 2.86515 0
M  V30 2837 C 254.201 3.31394 4.15152 0
M  V30 2838 C 253.24 4.53201 4.1143 0
M  V30 2839 N 252.377 4.58542 5.3168 0
M  V30 2840 H 257.217 2.70482 1.25073 0
M  V30 2841 H 254.754 1.34006 0.606692 0
M  V30 2842 H 256.712 2.03912 3.63972 0
M  V30 2843 H 255.342 1.06331 3.04784 0
M  V30 2844 H 254.394 3.24076 1.99195 0
M  V30 2845 H 255.706 4.13045 2.79634 0
M  V30 2846 H 254.86 3.3889 5.03228 0
M  V30 2847 H 253.599 2.39645 4.24761 0
M  V30 2848 H 252.604 4.45827 3.21742 0
M  V30 2849 H 253.829 5.46271 4.03442 0
M  V30 2850 H 251.775 3.69686 5.41912 0
M  V30 2851 H 251.692 5.42148 5.26889 0
M  V30 2852 H 252.96 4.70296 6.21644 0
M  V30 2853 N 257.189 -0.644168 1.43834 0
M  V30 2854 C 258.136 -1.75671 1.49694 0
M  V30 2855 C 259.106 -1.6246 0.345809 0
M  V30 2856 O 260.291 -1.82573 0.554234 0
M  V30 2857 C 257.431 -3.13867 1.43463 0
M  V30 2858 C 256.544 -3.38147 2.6885 0
M  V30 2859 C 255.679 -4.66241 2.54544 0
M  V30 2860 C 254.718 -4.83657 3.75157 0
M  V30 2861 N 253.855 -6.03016 3.59605 0
M  V30 2862 H 258.695 -1.69998 2.44754 0
M  V30 2863 H 256.232 -0.829458 1.21484 0
M  V30 2864 H 258.19 -3.9377 1.37843 0
M  V30 2865 H 256.82 -3.18588 0.519783 0
M  V30 2866 H 255.872 -2.52276 2.84712 0
M  V30 2867 H 257.184 -3.46899 3.58417 0
M  V30 2868 H 256.338 -5.54285 2.46683 0
M  V30 2869 H 255.077 -4.59826 1.62516 0
M  V30 2870 H 254.082 -3.94046 3.83416 0
M  V30 2871 H 255.307 -4.91896 4.68204 0
M  V30 2872 H 253.253 -5.97715 2.7032 0
M  V30 2873 H 253.17 -6.12766 4.42779 0
M  V30 2874 H 254.438 -6.93657 3.55613 0
M  V30 2875 N 258.668 -1.30515 -0.883378 0
M  V30 2876 C 259.914 -1.19607 -1.63774 0
M  V30 2877 C 260.247 0.248314 -1.92606 0
M  V30 2878 O 259.522 1.17742 -1.54813 0
M  V30 2879 C 259.805 -2.02669 -2.97653 0
M  V30 2880 C 259.658 -3.55335 -2.75784 0
M  V30 2881 C 260.977 -1.86573 -3.98596 0
M  V30 2882 H 258.096 -0.435856 -0.594305 0
M  V30 2883 H 260.738 -1.60165 -1.02212 0
M  V30 2884 H 258.888 -1.68208 -3.50197 0
M  V30 2885 H 260.56 -3.99863 -2.30016 0
M  V30 2886 H 258.803 -3.79438 -2.1026 0
M  V30 2887 H 259.474 -4.08745 -3.70988 0
M  V30 2888 H 261.95 -2.16703 -3.55217 0
M  V30 2889 H 260.826 -2.47014 -4.90179 0
M  V30 2890 H 261.087 -0.825321 -4.34328 0
M  V30 2891 N 260.146 1.09593 -1.13257 0
M  V30 2892 C 261.076 2.18214 -0.830946 0
M  V30 2893 C 262.057 1.68812 0.208966 0
M  V30 2894 O 263.242 1.9408 0.0682666 0
M  V30 2895 C 260.372 3.46051 -0.294296 0
M  V30 2896 C 259.326 4.08778 -1.26826 0
M  V30 2897 C 258.652 5.31419 -0.591449 0
M  V30 2898 C 259.952 4.51476 -2.62615 0
M  V30 2899 H 261.646 2.43703 -1.73923 0
M  V30 2900 H 259.192 1.17128 -0.837675 0
M  V30 2901 H 261.145 4.2134 -0.0709606 0
M  V30 2902 H 259.869 3.20079 0.649366 0
M  V30 2903 H 258.528 3.35505 -1.47756 0
M  V30 2904 H 258.176 5.01727 0.357633 0
M  V30 2905 H 257.876 5.74341 -1.24123 0
M  V30 2906 H 259.4 6.09433 -0.377355 0
M  V30 2907 H 260.814 5.17999 -2.45663 0
M  V30 2908 H 259.211 5.05277 -3.23752 0
M  V30 2909 H 260.281 3.63962 -3.20406 0
M  V30 2910 N 261.624 0.925811 1.2754 0
M  V30 2911 C 262.556 0.380753 2.26015 0
M  V30 2912 C 263.569 -0.487485 1.5533 0
M  V30 2913 O 264.758 -0.300413 1.75954 0
M  V30 2914 C 261.858 -0.473259 3.35579 0
M  V30 2915 C 261.031 0.375249 4.35787 0
M  V30 2916 C 260.09 -0.415809 5.24555 0
M  V30 2917 O 259.116 0.175834 5.68928 0
M  V30 2918 N 260.318 -1.71607 5.54555 0
M  V30 2919 H 263.083 1.22725 2.73421 0
M  V30 2920 H 260.644 0.793037 1.41147 0
M  V30 2921 H 262.636 -1.00949 3.91907 0
M  V30 2922 H 261.206 -1.2205 2.87789 0
M  V30 2923 H 260.426 1.09279 3.7875 0
M  V30 2924 H 261.714 0.955399 4.99749 0
M  V30 2925 H 261.112 -2.2191 5.20358 0
M  V30 2926 H 259.669 -2.19887 6.1359 0
M  V30 2927 N 263.102 -1.41638 0.69111 0
M  V30 2928 C 264.05 -2.32597 0.0115199 0
M  V30 2929 C 265.044 -1.5072 -0.773296 0
M  V30 2930 O 266.25 -1.66685 -0.67942 0
M  V30 2931 H 262.625 -0.751849 -0.0150746 0
M  V30 2932 H 264.596 -2.87593 0.795791 0
M  V30 2933 C 263.345 -3.35467 -0.914172 0
M  V30 2934 H 262.668 -3.9852 -0.319687 0
M  V30 2935 H 264.108 -4.01662 -1.35808 0
M  V30 2936 C 262.567 -2.69004 -2.02826 0
M  V30 2937 O 263.097 -2.53444 -3.11655 0
M  V30 2938 N 261.303 -2.2777 -1.80469 0
M  V30 2939 H 260.85 -2.40626 -0.919615 0
M  V30 2940 H 260.808 -1.83635 -2.55197 0
M  V30 2941 N 264.58 -0.43555 -1.51462 0
M  V30 2942 C 265.543 0.365137 -2.26273 0
M  V30 2943 C 266.543 0.951227 -1.29647 0
M  V30 2944 O 267.733 0.825958 -1.53374 0
M  V30 2945 C 264.865 1.51645 -3.05314 0
M  V30 2946 H 266.058 -0.290474 -2.9849 0
M  V30 2947 H 263.611 -0.188676 -1.55157 0
M  V30 2948 H 264.346 2.20816 -2.3751 0
M  V30 2949 H 264.131 1.10238 -3.76284 0
M  V30 2950 H 265.621 2.08218 -3.61987 0
M  V30 2951 N 266.058 1.56714 -0.166846 0
M  V30 2952 C 267.474 1.58473 0.189372 0
M  V30 2953 C 267.674 1.18201 1.63189 0
M  V30 2954 O 266.73 0.891528 2.36237 0
M  V30 2955 C 268.043 3.00573 -0.0873872 0
M  V30 2956 C 269.591 3.1299 -0.0252443 0
M  V30 2957 C 270.066 4.57174 -0.274934 0
M  V30 2958 N 271.557 4.62665 -0.222553 0
M  V30 2959 C 272.292 5.72072 -0.389985 0
M  V30 2960 N 271.788 6.90054 -0.616229 0
M  V30 2961 N 273.581 5.61153 -0.326202 0
M  V30 2962 H 265.732 1.8118 -1.10849 0
M  V30 2963 H 267.995 0.839525 -0.440342 0
M  V30 2964 H 267.701 3.34497 -1.0865 0
M  V30 2965 H 267.575 3.72019 0.623037 0
M  V30 2966 H 269.962 2.78895 0.96444 0
M  V30 2967 H 270.043 2.43989 -0.768309 0
M  V30 2968 H 269.687 4.91976 -1.26181 0
M  V30 2969 H 269.617 5.24328 0.48869 0
M  V30 2970 H 272.108 3.77863 -0.0531512 0
M  V30 2971 H 272.421 7.69311 -0.733559 0
M  V30 2972 H 270.766 6.91927 -0.652791 0
M  V30 2973 H 273.957 4.67859 -0.150072 0
M  V30 2974 H 274.13 6.46364 -0.460116 0
M  V30 2975 N 267.536 -0.106894 1.57237 0
M  V30 2976 C 268.784 -0.810921 1.85117 0
M  V30 2977 C 269.105 -1.7984 0.753827 0
M  V30 2978 O 268.375 -1.94649 -0.221056 0
M  V30 2979 H 266.955 -0.302466 0.683025 0
M  V30 2980 H 269.617 -0.0913324 1.94686 0
M  V30 2981 H 268.713 -1.34875 2.81452 0
M  V30 2982 N 269.014 -1.53014 -0.377408 0
M  V30 2983 C 270.239 -1.72818 -1.14668 0
M  V30 2984 C 270.664 -0.450725 -1.8262 0
M  V30 2985 O 270.022 0.59439 -1.7128 0
M  V30 2986 C 270.07 -2.88627 -2.16164 0
M  V30 2987 O 269.174 -2.56409 -3.22998 0
M  V30 2988 H 268.515 -0.574301 -0.333278 0
M  V30 2989 H 271.045 -1.99853 -0.438152 0
M  V30 2990 H 271.055 -3.14455 -2.59966 0
M  V30 2991 H 269.73 -3.81294 -1.66095 0
M  V30 2992 H 268.307 -2.4136 -2.84253 0
M  V30 2993 N 270.492 0.636531 -1.44174 0
M  V30 2994 C 271.422 1.76003 -1.53444 0
M  V30 2995 C 272.403 1.65619 -0.387841 0
M  V30 2996 O 273.588 1.84461 -0.607257 0
M  V30 2997 C 270.718 3.14511 -1.4731 0
M  V30 2998 C 269.672 3.39677 -2.60391 0
M  V30 2999 C 268.998 4.78159 -2.39308 0
M  V30 3000 C 270.298 3.32772 -4.02567 0
M  V30 3001 H 271.992 1.68501 -2.47483 0
M  V30 3002 H 269.538 0.809237 -1.19111 0
M  V30 3003 H 271.491 3.92878 -1.52397 0
M  V30 3004 H 270.215 3.22783 -0.49785 0
M  V30 3005 H 268.874 2.63688 -2.54684 0
M  V30 3006 H 268.522 4.83128 -1.39988 0
M  V30 3007 H 268.222 4.95956 -3.15122 0
M  V30 3008 H 269.746 5.58762 -2.46205 0
M  V30 3009 H 271.16 4.01051 -4.09672 0
M  V30 3010 H 269.557 3.62104 -4.7854 0
M  V30 3011 H 270.627 2.30669 -4.2652 0
M  V30 3012 N 271.97 1.30982 0.876444 0
M  V30 3013 C 273.198 1.23242 1.6619 0
M  V30 3014 C 273.613 -0.203345 1.87702 0
M  V30 3015 O 272.97 -1.13317 1.43057 0
M  V30 3016 C 273.021 1.96623 3.03351 0
M  V30 3017 O 272.742 3.34594 2.82804 0
M  V30 3018 C 274.243 1.95644 3.97792 0
M  V30 3019 H 271.463 0.426126 0.518322 0
M  V30 3020 H 274.007 1.7275 1.09442 0
M  V30 3021 H 272.162 1.50892 3.56806 0
M  V30 3022 H 272.576 3.71873 3.69879 0
M  V30 3023 H 274.05 2.51511 4.91372 0
M  V30 3024 H 274.527 0.937395 4.2908 0
M  V30 3025 H 275.133 2.41225 3.50272 0
M  V30 3026 N 273.449 -1.08991 1.13837 0
M  V30 3027 C 274.379 -2.17771 0.842507 0
M  V30 3028 C 275.36 -1.6892 -0.20001 0
M  V30 3029 O 276.545 -1.94113 -0.0579731 0
M  V30 3030 C 273.675 -3.4589 0.312644 0
M  V30 3031 C 272.629 -4.08099 1.28992 0
M  V30 3032 C 271.955 -5.31098 0.619623 0
M  V30 3033 C 273.255 -4.50077 2.65005 0
M  V30 3034 H 274.949 -2.42777 1.75213 0
M  V30 3035 H 272.495 -1.16682 0.843875 0
M  V30 3036 H 274.448 -4.21297 0.0933043 0
M  V30 3037 H 273.172 -3.20419 -0.632382 0
M  V30 3038 H 271.831 -3.34717 1.49533 0
M  V30 3039 H 271.479 -5.0191 -0.33102 0
M  V30 3040 H 271.179 -5.73674 1.27167 0
M  V30 3041 H 272.703 -6.09224 0.409669 0
M  V30 3042 H 274.117 -5.16688 2.48407 0
M  V30 3043 H 272.514 -5.03553 3.26427 0
M  V30 3044 H 273.584 -3.62257 3.22332 0
M  V30 3045 N 274.927 -0.932562 -1.27047 0
M  V30 3046 C 276.204 -0.49377 -1.89265 0
M  V30 3047 C 276.584 1.02833 -1.8436 0
M  V30 3048 O 275.932 1.88461 -1.29209 0
M  V30 3049 C 276.142 -1.04536 -3.32976 0
M  V30 3050 C 277.49 -1.10879 -4.09867 0
M  V30 3051 O 278.514 -0.995327 -3.42011 0
M  V30 3052 O 277.373 -1.28417 -5.31198 0
M  V30 3053 H 274.467 -0.159596 -0.811454 0
M  V30 3054 H 277.013 -1.02457 -1.3528 0
M  V30 3055 H 275.785 -2.08913 -3.30864 0
M  V30 3056 H 275.408 -0.496494 -3.94488 0
M  V30 3057 N 276.405 1.4127 -0.698611 0
M  V30 3058 C 277.651 2.01478 -0.231207 0
M  V30 3059 C 277.984 1.55215 1.16713 0
M  V30 3060 O 277.259 0.764672 1.78838 0
M  V30 3061 C 277.542 3.58912 -0.292281 0
M  V30 3062 C 277.395 4.15293 -1.72778 0
M  V30 3063 C 278.714 4.38736 0.346194 0
M  V30 3064 H 275.833 0.732025 -0.0854878 0
M  V30 3065 H 278.475 1.67977 -0.887906 0
M  V30 3066 H 276.625 3.87582 0.26686 0
M  V30 3067 H 278.297 3.97486 -2.341 0
M  V30 3068 H 276.54 3.7022 -2.26096 0
M  V30 3069 H 277.211 5.24452 -1.72202 0
M  V30 3070 H 279.687 4.15897 -0.130035 0
M  V30 3071 H 278.563 5.48221 0.272932 0
M  V30 3072 H 278.824 4.18425 1.42734 0
M  V30 3073 N 277.883 0.443576 1.51229 0
M  V30 3074 C 278.815 -0.400608 2.25672 0
M  V30 3075 C 279.828 -0.980945 1.29928 0
M  V30 3076 O 281.017 -0.874024 1.55638 0
M  V30 3077 C 278.117 -1.57304 3.00181 0
M  V30 3078 C 277.29 -1.11046 4.23069 0
M  V30 3079 C 276.349 -2.15374 4.80105 0
M  V30 3080 O 275.375 -1.74554 5.41774 0
M  V30 3081 N 276.577 -3.47922 4.64683 0
M  V30 3082 H 279.342 0.23745 2.98758 0
M  V30 3083 H 276.903 0.272809 1.59585 0
M  V30 3084 H 278.895 -2.26733 3.35223 0
M  V30 3085 H 277.465 -2.11632 2.30066 0
M  V30 3086 H 276.685 -0.243019 3.9345 0
M  V30 3087 H 277.973 -0.778888 5.02803 0
M  V30 3088 H 277.371 -3.83815 4.15575 0
M  V30 3089 H 275.928 -4.13228 5.0407 0
M  V30 3090 N 279.361 -1.56624 0.175154 0
M  V30 3091 C 280.772 -1.83561 -0.340916 0
M  V30 3092 C 281.123 -1.09511 -1.62794 0
M  V30 3093 O 280.248 -0.349389 -2.13561 0
M  V30 3094 C 280.843 -3.32979 -0.625313 0
M  V30 3095 C 279.402 -3.60399 -1.08581 0
M  V30 3096 C 278.549 -2.77024 -0.123722 0
M  V30 3097 H 281.5 -1.53593 0.399344 0
M  V30 3098 H 281.521 -3.50666 -1.47694 0
M  V30 3099 H 281.033 -3.86847 0.311575 0
M  V30 3100 H 279.134 -3.11945 -2.03767 0
M  V30 3101 H 279.247 -4.68711 -0.992317 0
M  V30 3102 H 277.611 -2.46993 -0.621821 0
M  V30 3103 H 278.394 -3.33674 0.807256 0
M  V30 3104 N 280.839 0.0985539 -1.57292 0
M  V30 3105 C 282.064 0.820196 -1.90493 0
M  V30 3106 C 282.489 1.71658 -0.769094 0
M  V30 3107 O 281.847 1.79133 0.279495 0
M  V30 3108 C 281.895 1.61242 -3.22542 0
M  V30 3109 O 280.999 2.72108 -3.09888 0
M  V30 3110 H 280.34 0.225547 -0.62452 0
M  V30 3111 H 282.87 0.0748159 -2.04463 0
M  V30 3112 H 282.88 1.99737 -3.55766 0
M  V30 3113 H 281.555 0.954535 -4.04798 0
M  V30 3114 H 280.132 2.36667 -2.88172 0
M  V30 3115 N 282.317 1.53212 0.369288 0
M  V30 3116 C 283.566 1.68436 1.10961 0
M  V30 3117 C 283.879 0.440738 1.9057 0
M  V30 3118 O 285.085 0.473446 2.6734 0
M  V30 3119 C 283.541 2.97744 2.0218 0
M  V30 3120 C 283.149 4.29355 1.279 0
M  V30 3121 C 284.893 3.22334 2.76226 0
M  V30 3122 C 282.8 5.49755 2.17999 0
M  V30 3123 H 281.73 0.627568 0.41794 0
M  V30 3124 H 284.381 1.79713 0.370884 0
M  V30 3125 H 282.763 2.8026 2.79768 0
M  V30 3126 H 283.937 4.57458 0.554007 0
M  V30 3127 H 282.252 4.11179 0.657311 0
M  V30 3128 H 284.849 4.09471 3.43857 0
M  V30 3129 H 285.192 2.38238 3.41392 0
M  V30 3130 H 285.725 3.40475 2.05723 0
M  V30 3131 H 282.464 6.36318 1.57417 0
M  V30 3132 H 281.984 5.25937 2.88359 0
M  V30 3133 H 283.663 5.84401 2.77641 0
M  V30 3134 N 283.795 -0.628877 1.44509 0
M  V30 3135 C 285.042 -1.38839 1.47411 0
M  V30 3136 C 285.37 -1.94202 0.10757 0
M  V30 3137 O 284.625 -1.74243 -0.890947 0
M  V30 3138 C 284.924 -2.56995 2.48371 0
M  V30 3139 C 284.59 -2.19908 3.93639 0
M  V30 3140 C 283.252 -2.09506 4.33198 0
M  V30 3141 C 285.604 -1.9064 4.85083 0
M  V30 3142 C 282.932 -1.68028 5.62124 0
M  V30 3143 C 285.284 -1.50655 6.14399 0
M  V30 3144 C 283.948 -1.38796 6.5291 0
M  V30 3145 H 283.218 -0.508048 0.539414 0
M  V30 3146 H 285.865 -0.712913 1.77735 0
M  V30 3147 H 284.17 -3.29786 2.11538 0
M  V30 3148 H 285.867 -3.15223 2.47861 0
M  V30 3149 H 282.457 -2.28922 3.62343 0
M  V30 3150 H 286.641 -1.97585 4.55273 0
M  V30 3151 H 281.897 -1.57452 5.90778 0
M  V30 3152 H 286.071 -1.27048 6.84713 0
M  V30 3153 H 283.698 -1.06429 7.52713 0
M  V30 3154 N 285.273 -1.31445 -0.869486 0
M  V30 3155 C 286.223 -1.15731 -1.96444 0
M  V30 3156 C 287.207 -0.0681855 -1.60755 0
M  V30 3157 O 288.399 -0.293154 -1.74555 0
M  V30 3158 C 285.528 -0.867255 -3.32165 0
M  V30 3159 C 284.614 -1.99738 -3.74119 0
M  V30 3160 N 285.005 -3.24447 -3.88031 0
M  V30 3161 C 283.303 -1.89723 -4.03635 0
M  V30 3162 C 284.004 -3.98374 -4.23879 0
M  V30 3163 N 282.98 -3.26547 -4.3459 0
M  V30 3164 H 286.782 -2.10296 -2.05312 0
M  V30 3165 H 284.296 -1.23009 -1.06031 0
M  V30 3166 H 286.293 -0.735668 -4.10358 0
M  V30 3167 H 284.953 0.0701614 -3.24624 0
M  V30 3168 H 285.964 -3.59557 -3.72746 0
M  V30 3169 H 282.641 -1.03449 -4.04481 0
M  V30 3170 H 284.031 -5.05844 -4.42235 0
M  V30 3171 N 286.751 1.08385 -1.14413 0
M  V30 3172 C 287.981 1.8425 -0.934644 0
M  V30 3173 C 288.389 1.81907 0.520234 0
M  V30 3174 O 287.732 1.22126 1.37226 0
M  V30 3175 C 287.794 3.32853 -1.35828 0
M  V30 3176 C 287.458 3.5893 -2.82875 0
M  V30 3177 C 288.455 3.53756 -3.80989 0
M  V30 3178 C 286.14 3.86934 -3.20293 0
M  V30 3179 C 288.134 3.76216 -5.14529 0
M  V30 3180 C 285.821 4.09047 -4.54008 0
M  V30 3181 C 286.819 4.03682 -5.50936 0
M  V30 3182 O 286.507 4.25214 -6.82238 0
M  V30 3183 H 286.239 0.588502 -0.332628 0
M  V30 3184 H 288.793 1.37792 -1.52324 0
M  V30 3185 H 287.023 3.8007 -0.713019 0
M  V30 3186 H 288.712 3.90154 -1.11957 0
M  V30 3187 H 289.478 3.32135 -3.53428 0
M  V30 3188 H 285.357 3.9023 -2.45442 0
M  V30 3189 H 288.901 3.71943 -5.90173 0
M  V30 3190 H 284.798 4.30151 -4.8129 0
M  V30 3191 H 285.566 4.42619 -6.88499 0
M  V30 3192 N 288.23 0.939286 1.26551 0
M  V30 3193 C 289.458 0.602536 1.97932 0
M  V30 3194 C 289.873 -0.82206 1.69964 0
M  V30 3195 O 289.23 -1.54789 0.966784 0
M  V30 3196 C 289.281 0.832946 3.51773 0
M  V30 3197 O 289.002 2.20151 3.78768 0
M  V30 3198 C 290.503 0.506483 4.40397 0
M  V30 3199 H 287.723 0.227248 0.631347 0
M  V30 3200 H 290.267 1.25948 1.61113 0
M  V30 3201 H 288.422 0.222644 3.8676 0
M  V30 3202 H 288.836 2.26013 4.73306 0
M  V30 3203 H 290.31 0.718333 5.47306 0
M  V30 3204 H 290.787 -0.558451 4.35635 0
M  V30 3205 H 291.393 1.09543 4.10951 0
M  V30 3206 N 289.708 -1.40897 0.706093 0
M  V30 3207 C 290.957 -2.00284 0.238574 0
M  V30 3208 C 291.27 -1.56604 -1.17194 0
M  V30 3209 O 292.476 -2.08624 -1.73748 0
M  V30 3210 C 290.932 -3.57934 0.375623 0
M  V30 3211 C 290.54 -4.10591 1.79217 0
M  V30 3212 C 292.284 -4.24488 -0.0315857 0
M  V30 3213 C 290.191 -5.60712 1.88032 0
M  V30 3214 H 289.121 -0.749144 0.0854398 0
M  V30 3215 H 291.772 -1.61251 0.875813 0
M  V30 3216 H 290.154 -3.94622 -0.330042 0
M  V30 3217 H 291.328 -3.85301 2.52745 0
M  V30 3218 H 289.643 -3.56601 2.15 0
M  V30 3219 H 292.24 -5.34698 0.0136842 0
M  V30 3220 H 292.583 -4.02261 -1.072 0
M  V30 3221 H 293.116 -3.92873 0.624181 0
M  V30 3222 H 289.855 -5.87781 2.90161 0
M  V30 3223 H 289.375 -5.87896 1.18903 0
M  V30 3224 H 291.054 -6.25658 1.64805 0
M  V30 3225 N 291.186 -0.45159 -1.50991 0
M  V30 3226 C 292.096 0.358431 -2.31846 0
M  V30 3227 C 293.112 1.01438 -1.41373 0
M  V30 3228 O 294.288 1.00663 -1.74439 0
M  V30 3229 C 291.353 1.43704 -3.15515 0
M  V30 3230 C 290.414 0.799742 -4.21785 0
M  V30 3231 C 289.647 1.82696 -5.01456 0
M  V30 3232 O 289.87 3.05105 -4.81941 0
M  V30 3233 O 288.804 1.40958 -5.85162 0
M  V30 3234 H 292.63 -0.302032 -3.02194 0
M  V30 3235 H 290.215 -0.213825 -1.47862 0
M  V30 3236 H 292.097 2.06227 -3.67489 0
M  V30 3237 H 290.772 2.08133 -2.47916 0
M  V30 3238 H 289.679 0.136084 -3.73852 0
M  V30 3239 H 291.012 0.198718 -4.91799 0
M  V30 3240 N 292.664 1.56529 -0.183458 0
M  V30 3241 C 293.627 2.17324 0.728223 0
M  V30 3242 C 294.627 1.12453 1.14939 0
M  V30 3243 O 295.817 1.37902 1.06437 0
M  V30 3244 C 292.949 2.76591 1.99274 0
M  V30 3245 H 294.142 2.99241 0.198772 0
M  V30 3246 H 291.695 1.5616 0.0661391 0
M  V30 3247 H 292.43 1.98441 2.56499 0
M  V30 3248 H 292.215 3.5335 1.69959 0
M  V30 3249 H 293.705 3.23311 2.6431 0
M  V30 3250 N 294.142 -0.090211 1.57342 0
M  V30 3251 C 295.367 -0.810082 1.90925 0
M  V30 3252 C 295.792 -1.71248 0.778187 0
M  V30 3253 O 295.15 -1.79278 -0.269991 0
M  V30 3254 C 295.198 -1.59529 3.23393 0
M  V30 3255 O 294.302 -2.70461 3.11327 0
M  V30 3256 H 293.643 -0.222231 0.625707 0
M  V30 3257 H 296.173 -0.0639716 2.045 0
M  V30 3258 H 296.183 -1.97847 3.5682 0
M  V30 3259 H 294.858 -0.933055 4.05299 0
M  V30 3260 H 293.435 -2.35135 2.89423 0
M  V30 3261 N 295.62 -1.53406 -0.361157 0
M  V30 3262 C 296.568 -1.80832 -1.46296 0
M  V30 3263 C 297.562 -0.677699 -1.55253 0
M  V30 3264 O 298.768 -0.860723 -1.58087 0
M  V30 3265 H 295.143 -0.572627 -0.487445 0
M  V30 3266 H 297.114 -2.73045 -1.20371 0
M  V30 3267 C 295.863 -2.01907 -2.8307 0
M  V30 3268 H 295.186 -2.88349 -2.76938 0
M  V30 3269 H 296.626 -2.25072 -3.59331 0
M  V30 3270 C 295.085 -0.799449 -3.27277 0
M  V30 3271 O 295.615 0.00971761 -4.01699 0
M  V30 3272 N 293.821 -0.621637 -2.83873 0
M  V30 3273 H 293.368 -1.28126 -2.23476 0
M  V30 3274 H 293.326 0.19298 -3.13807 0
M  V30 3275 N 297.098 0.621204 -1.44841 0
M  V30 3276 C 298.028 1.74366 -1.55303 0
M  V30 3277 C 299.009 1.65199 -0.405385 0
M  V30 3278 O 300.194 1.83807 -0.626787 0
M  V30 3279 C 297.324 3.12931 -1.50637 0
M  V30 3280 C 296.278 3.36896 -2.63979 0
M  V30 3281 C 295.604 4.75594 -2.44366 0
M  V30 3282 C 296.904 3.28483 -4.06074 0
M  V30 3283 H 298.598 1.65867 -2.49256 0
M  V30 3284 H 296.144 0.796558 -1.19962 0
M  V30 3285 H 298.097 3.9124 -1.56555 0
M  V30 3286 H 296.821 3.22237 -0.532057 0
M  V30 3287 H 295.48 2.60972 -2.57467 0
M  V30 3288 H 295.128 4.81616 -1.45105 0
M  V30 3289 H 294.828 4.92586 -3.20364 0
M  V30 3290 H 296.352 5.5612 -2.52117 0
M  V30 3291 H 297.766 3.96684 -4.13902 0
M  V30 3292 H 296.163 3.57008 -4.82354 0
M  V30 3293 H 297.233 2.26133 -4.28943 0
M  V30 3294 N 298.576 1.31904 0.862503 0
M  V30 3295 C 299.539 1.20131 1.95195 0
M  V30 3296 C 300.539 0.126409 1.60302 0
M  V30 3297 O 301.729 0.376234 1.70089 0
M  V30 3298 C 298.861 0.845691 3.30244 0
M  V30 3299 H 300.054 2.16943 2.07064 0
M  V30 3300 H 297.607 1.15622 1.05172 0
M  V30 3301 H 298.342 -0.120957 3.24074 0
M  V30 3302 H 298.127 1.62276 3.56944 0
M  V30 3303 H 299.617 0.787418 4.10109 0
M  V30 3304 N 300.054 -1.07777 1.14986 0
M  V30 3305 C 300.984 -2.16865 0.865557 0
M  V30 3306 C 301.965 -1.69123 -0.182083 0
M  V30 3307 O 303.15 -1.94164 -0.0373815 0
M  V30 3308 C 300.28 -3.45539 0.349313 0
M  V30 3309 C 299.234 -4.06708 1.33313 0
M  V30 3310 C 298.56 -5.30411 0.675918 0
M  V30 3311 C 299.86 -4.47241 2.69764 0
M  V30 3312 H 301.554 -2.40905 1.77778 0
M  V30 3313 H 299.1 -1.15781 0.856203 0
M  V30 3314 H 301.053 -4.21174 0.137983 0
M  V30 3315 H 299.777 -3.21072 -0.598362 0
M  V30 3316 H 298.436 -3.33112 1.53075 0
M  V30 3317 H 298.084 -5.02232 -0.277767 0
M  V30 3318 H 297.784 -5.72293 1.33244 0
M  V30 3319 H 299.308 -6.08755 0.474262 0
M  V30 3320 H 300.722 -5.14025 2.53873 0
M  V30 3321 H 299.119 -5.00062 3.3175 0
M  V30 3322 H 300.189 -3.58818 3.26156 0
M  V30 3323 N 301.532 -0.945985 -1.26051 0
M  V30 3324 C 302.779 -0.596118 -1.93527 0
M  V30 3325 C 303.107 0.865559 -1.74179 0
M  V30 3326 O 302.362 1.63524 -1.0751 0
M  V30 3327 C 302.661 -0.890475 -3.46129 0
M  V30 3328 C 302.327 -2.3368 -3.85622 0
M  V30 3329 C 300.989 -2.73216 -3.96114 0
M  V30 3330 C 303.341 -3.27648 -4.05334 0
M  V30 3331 C 300.669 -4.05806 -4.2372 0
M  V30 3332 C 303.021 -4.59841 -4.3443 0
M  V30 3333 C 301.685 -4.99185 -4.43137 0
M  V30 3334 H 300.955 -0.218135 -0.708165 0
M  V30 3335 H 303.602 -1.1934 -1.49768 0
M  V30 3336 H 301.907 -0.210711 -3.91233 0
M  V30 3337 H 303.604 -0.598478 -3.96509 0
M  V30 3338 H 300.194 -2.02015 -3.78005 0
M  V30 3339 H 304.378 -2.98298 -3.96651 0
M  V30 3340 H 299.634 -4.35945 -4.28675 0
M  V30 3341 H 303.808 -5.32641 -4.48628 0
M  V30 3342 H 301.435 -6.01952 -4.64282 0
M  V30 3343 N 303.011 1.40521 -0.713556 0
M  V30 3344 C 304.259 2.00527 -0.251692 0
M  V30 3345 C 304.58 1.56857 1.15848 0
M  V30 3346 O 303.85 0.807127 1.785 0
M  V30 3347 H 302.43 0.741551 -0.0900646 0
M  V30 3348 H 305.092 1.71887 -0.918733 0
M  V30 3349 H 304.188 3.10813 -0.283192 0
M  V30 3350 N 304.489 0.459591 1.5075 0
M  V30 3351 C 305.399 -0.34613 2.32033 0
M  V30 3352 C 306.415 -1.00686 1.41909 0
M  V30 3353 O 307.591 -0.997361 1.7497 0
M  V30 3354 C 304.656 -1.42029 3.16273 0
M  V30 3355 C 303.717 -0.777362 4.22203 0
M  V30 3356 C 302.95 -1.80034 5.02418 0
M  V30 3357 O 303.173 -3.02544 4.83553 0
M  V30 3358 O 302.107 -1.37853 5.85901 0
M  V30 3359 H 305.933 0.318054 3.0203 0
M  V30 3360 H 303.518 0.221663 1.47746 0
M  V30 3361 H 305.4 -2.04275 3.68578 0
M  V30 3362 H 304.075 -2.06815 2.49016 0
M  V30 3363 H 302.982 -0.116256 3.73919 0
M  V30 3364 H 304.315 -0.172634 4.91897 0
M  V30 3365 N 305.967 -1.56429 0.191757 0
M  V30 3366 C 307.383 -1.58754 -0.164137 0
M  V30 3367 C 307.583 -1.20782 -1.61288 0
M  V30 3368 O 306.639 -0.928999 -2.34789 0
M  V30 3369 C 307.952 -3.00396 0.135195 0
M  V30 3370 C 309.5 -3.1291 0.0750351 0
M  V30 3371 C 309.975 -4.56679 0.347632 0
M  V30 3372 N 311.466 -4.62252 0.296131 0
M  V30 3373 C 312.201 -5.71379 0.480948 0
M  V30 3374 N 311.697 -6.88986 0.725933 0
M  V30 3375 N 313.49 -5.60563 0.415435 0
M  V30 3376 H 305.641 -1.79393 1.13718 0
M  V30 3377 H 307.904 -0.832414 0.453643 0
M  V30 3378 H 307.61 -3.32726 1.13958 0
M  V30 3379 H 307.484 -3.72963 -0.563773 0
M  V30 3380 H 309.871 -2.80394 -0.919948 0
M  V30 3381 H 309.952 -2.42736 0.807029 0
M  V30 3382 H 309.596 -4.89907 1.33992 0
M  V30 3383 H 309.526 -5.25039 -0.405212 0
M  V30 3384 H 312.017 -3.7773 0.113259 0
M  V30 3385 H 312.33 -7.68046 0.855857 0
M  V30 3386 H 310.675 -6.90801 0.762788 0
M  V30 3387 H 313.866 -4.67561 0.224486 0
M  V30 3388 H 314.039 -6.45551 0.562889 0
M  V30 3389 N 307.445 0.0818655 -1.57387 0
M  V30 3390 C 308.375 1.09885 -2.06028 0
M  V30 3391 C 309.356 1.4098 -0.951774 0
M  V30 3392 O 310.541 1.50781 -1.22387 0
M  V30 3393 C 307.671 2.4151 -2.4958 0
M  V30 3394 C 306.625 2.24792 -3.64215 0
M  V30 3395 C 305.951 3.61712 -3.93787 0
M  V30 3396 C 307.251 1.67749 -4.94629 0
M  V30 3397 H 308.945 0.694128 -2.91243 0
M  V30 3398 H 306.491 0.332448 -1.4011 0
M  V30 3399 H 308.444 3.12939 -2.82219 0
M  V30 3400 H 307.168 2.83943 -1.61381 0
M  V30 3401 H 305.827 1.55807 -3.31843 0
M  V30 3402 H 305.475 4.01697 -3.02735 0
M  V30 3403 H 305.175 3.51368 -4.70971 0
M  V30 3404 H 306.699 4.34587 -4.28913 0
M  V30 3405 H 308.113 2.29032 -5.25564 0
M  V30 3406 H 306.51 1.68128 -5.76067 0
M  V30 3407 H 307.58 0.638059 -4.80684 0
M  V30 3408 N 308.923 1.53595 0.353017 0
M  V30 3409 C 310.171 1.70049 1.09215 0
M  V30 3410 C 310.492 0.461406 1.89463 0
M  V30 3411 O 309.762 -0.524633 1.88744 0
M  V30 3412 H 308.342 0.626912 0.40619 0
M  V30 3413 H 311.004 1.90822 0.396585 0
M  V30 3414 H 310.1 2.56718 1.77488 0
M  V30 3415 N 310.401 -0.613514 1.45168 0
M  V30 3416 C 311.331 -1.7354 1.56225 0
M  V30 3417 C 312.312 -1.64981 0.41414 0
M  V30 3418 O 313.497 -1.83472 0.636526 0
M  V30 3419 C 310.627 -3.12128 1.52295 0
M  V30 3420 C 309.581 -3.35491 2.65762 0
M  V30 3421 C 308.907 -4.74291 2.46885 0
M  V30 3422 C 310.207 -3.26325 4.0781 0
M  V30 3423 H 311.901 -1.64543 2.50132 0
M  V30 3424 H 309.447 -0.790185 1.20383 0
M  V30 3425 H 311.4 -3.90404 1.58628 0
M  V30 3426 H 310.124 -3.2195 0.549139 0
M  V30 3427 H 308.783 -2.59603 2.58847 0
M  V30 3428 H 308.431 -4.80839 1.47657 0
M  V30 3429 H 308.131 -4.9088 3.22972 0
M  V30 3430 H 309.655 -5.54775 2.55063 0
M  V30 3431 H 311.069 -3.94483 4.16 0
M  V30 3432 H 309.466 -3.54445 4.8424 0
M  V30 3433 H 310.536 -2.23855 4.30136 0
M  V30 3434 N 311.879 -1.3236 -0.855495 0
M  V30 3435 C 313.125 -1.23054 -1.612 0
M  V30 3436 C 313.458 0.207404 -1.93089 0
M  V30 3437 O 312.733 1.14432 -1.57275 0
M  V30 3438 C 313.016 -2.08937 -2.93287 0
M  V30 3439 C 312.869 -3.61105 -2.68185 0
M  V30 3440 C 314.188 -1.94986 -3.94549 0
M  V30 3441 H 311.307 -0.448364 -0.584926 0
M  V30 3442 H 313.949 -1.62297 -0.987917 0
M  V30 3443 H 312.099 -1.75599 -3.46551 0
M  V30 3444 H 313.771 -4.04652 -2.21483 0
M  V30 3445 H 312.014 -3.83813 -2.02164 0
M  V30 3446 H 312.685 -4.16522 -3.62234 0
M  V30 3447 H 315.161 -2.24189 -3.5054 0
M  V30 3448 H 314.037 -2.57356 -4.84829 0
M  V30 3449 H 314.298 -0.917263 -4.3248 0
M  V30 3450 N 313.357 1.07166 -1.15556 0
M  V30 3451 C 314.605 1.79443 -0.929764 0
M  V30 3452 C 314.926 1.87246 0.544414 0
M  V30 3453 O 314.196 1.37473 1.39564 0
M  V30 3454 H 312.776 0.664625 -0.341003 0
M  V30 3455 H 315.438 1.29499 -1.45657 0
M  V30 3456 H 314.534 2.81832 -1.34079 0
M  V30 3457 N 314.835 0.952656 1.25548 0
M  V30 3458 C 315.785 0.442033 2.23674 0
M  V30 3459 C 316.769 -0.467632 1.53955 0
M  V30 3460 O 317.961 -0.301006 1.74422 0
M  V30 3461 C 315.09 -0.280816 3.4215 0
M  V30 3462 C 314.176 0.646803 4.19139 0
M  V30 3463 N 314.567 1.77759 4.73535 0
M  V30 3464 C 312.865 0.454617 4.43677 0
M  V30 3465 C 313.566 2.35658 5.31827 0
M  V30 3466 N 312.542 1.64333 5.18166 0
M  V30 3467 H 316.344 1.30505 2.63336 0
M  V30 3468 H 313.858 0.809904 1.40763 0
M  V30 3469 H 315.855 -0.663747 4.11582 0
M  V30 3470 H 314.515 -1.14046 3.04012 0
M  V30 3471 H 315.526 2.15949 4.7073 0
M  V30 3472 H 312.203 -0.362312 4.15925 0
M  V30 3473 H 313.593 3.30998 5.84713 0
M  V30 3474 N 316.313 -1.40141 0.720998 0
M  V30 3475 C 317.538 -2.05618 0.271258 0
M  V30 3476 C 317.963 -1.53978 -1.08039 0
M  V30 3477 O 317.321 -0.677463 -1.68167 0
M  V30 3478 C 317.369 -3.59609 0.267197 0
M  V30 3479 O 316.473 -4.05526 -0.749814 0
M  V30 3480 H 315.814 -0.651904 0.126162 0
M  V30 3481 H 318.344 -1.79439 0.982997 0
M  V30 3482 H 318.354 -4.0786 0.106744 0
M  V30 3483 H 317.029 -3.96559 1.25354 0
M  V30 3484 H 315.606 -3.68722 -0.556644 0
M  V30 3485 N 317.792 -0.46758 -1.50504 0
M  V30 3486 C 319.203 -0.0116166 -1.86696 0
M  V30 3487 C 319.554 1.39202 -1.38265 0
M  V30 3488 O 318.679 2.0313 -0.746132 0
M  V30 3489 C 319.274 -0.0143044 -3.38797 0
M  V30 3490 C 317.833 0.386175 -3.74414 0
M  V30 3491 C 316.98 -0.401287 -2.74381 0
M  V30 3492 H 319.931 -0.682022 -1.43297 0
M  V30 3493 H 319.952 0.788641 -3.72237 0
M  V30 3494 H 319.464 -1.03602 -3.74016 0
M  V30 3495 H 317.565 1.41237 -3.44794 0
M  V30 3496 H 317.678 0.0899596 -4.79016 0
M  V30 3497 H 316.042 0.144536 -2.5429 0
M  V30 3498 H 316.825 -1.42244 -3.12444 0
M  V30 3499 N 319.27 1.56325 -0.20005 0
M  V30 3500 C 320.495 2.02548 0.44597 0
M  V30 3501 C 320.92 1.07922 1.5406 0
M  V30 3502 O 320.278 0.0635775 1.81188 0
M  V30 3503 C 320.326 3.47175 0.974761 0
M  V30 3504 O 319.43 3.55671 2.08739 0
M  V30 3505 H 318.771 0.655862 0.103638 0
M  V30 3506 H 321.301 2.02201 -0.312381 0
M  V30 3507 H 321.311 3.87067 1.2901 0
M  V30 3508 H 319.986 4.15538 0.17347 0
M  V30 3509 H 318.563 3.27657 1.78032 0
M  V30 3510 N 320.748 -0.0735177 1.57428 0
M  V30 3511 C 321.973 -0.789787 1.91774 0
M  V30 3512 C 322.398 -1.70413 0.796306 0
M  V30 3513 O 321.756 -1.79555 -0.250961 0
M  V30 3514 C 321.804 -1.5609 3.25067 0
M  V30 3515 O 320.908 -2.67144 3.14178 0
M  V30 3516 H 320.249 -0.215582 0.628029 0
M  V30 3517 H 322.779 -0.0422781 2.04556 0
M  V30 3518 H 322.789 -1.94052 3.58898 0
M  V30 3519 H 321.464 -0.890015 4.06265 0
M  V30 3520 H 320.041 -2.32052 2.91901 0
M  V30 3521 N 322.226 -1.5378 -0.344866 0
M  V30 3522 C 323.189 -1.80981 -1.40637 0
M  V30 3523 C 324.189 -0.680816 -1.45676 0
M  V30 3524 O 325.379 -0.949095 -1.46075 0
M  V30 3525 C 322.511 -1.95063 -2.79577 0
M  V30 3526 H 323.704 -2.75803 -1.17783 0
M  V30 3527 H 321.257 -1.45173 -0.579181 0
M  V30 3528 H 321.992 -1.02379 -3.07716 0
M  V30 3529 H 321.777 -2.77198 -2.77315 0
M  V30 3530 H 323.267 -2.17629 -3.56409 0
M  V30 3531 N 323.704 0.605807 -1.45491 0
M  V30 3532 C 324.929 1.39625 -1.53361 0
M  V30 3533 C 325.354 1.87351 -0.167645 0
M  V30 3534 O 324.712 1.60243 0.848051 0
M  V30 3535 C 324.76 2.57559 -2.5238 0
M  V30 3536 O 323.864 3.58248 -2.04285 0
M  V30 3537 H 323.205 0.416771 -0.516912 0
M  V30 3538 H 325.735 0.737103 -1.90861 0
M  V30 3539 H 325.745 3.0478 -2.71244 0
M  V30 3540 H 324.42 2.22171 -3.51586 0
M  V30 3541 H 322.997 3.17664 -1.95305 0
M  V30 3542 N 325.182 1.32811 0.848464 0
M  V30 3543 C 326.112 1.24882 1.97299 0
M  V30 3544 C 327.093 0.131357 1.69592 0
M  V30 3545 O 328.278 0.319553 1.91553 0
M  V30 3546 C 325.408 0.97746 3.33261 0
M  V30 3547 C 324.362 2.05682 3.75338 0
M  V30 3548 C 323.688 1.63777 5.09 0
M  V30 3549 C 324.988 3.47254 3.90144 0
M  V30 3550 H 326.682 2.18966 2.04191 0
M  V30 3551 H 324.228 1.05413 0.981029 0
M  V30 3552 H 326.181 0.908513 4.1149 0
M  V30 3553 H 324.905 0.000980011 3.266 0
M  V30 3554 H 323.564 2.11603 2.99366 0
M  V30 3555 H 323.212 0.648569 4.98801 0
M  V30 3556 H 322.912 2.36 5.38124 0
M  V30 3557 H 324.436 1.5833 5.89715 0
M  V30 3558 H 325.85 3.43888 4.58709 0
M  V30 3559 H 324.247 4.1788 4.30693 0
M  V30 3560 H 325.317 3.86462 2.92874 0
M  V30 3561 N 326.66 -1.06551 1.16123 0
M  V30 3562 C 327.608 -2.16063 0.861371 0
M  V30 3563 C 328.602 -1.6856 -0.168517 0
M  V30 3564 O 329.808 -1.79986 -0.0227579 0
M  V30 3565 H 326.183 -0.705278 0.260934 0
M  V30 3566 H 328.154 -2.38567 1.79244 0
M  V30 3567 C 326.903 -3.45661 0.376018 0
M  V30 3568 H 326.226 -3.82604 1.15992 0
M  V30 3569 H 327.666 -4.23504 0.204951 0
M  V30 3570 C 326.125 -3.24546 -0.903954 0
M  V30 3571 O 326.655 -3.49865 -1.97377 0
M  V30 3572 N 324.861 -2.77992 -0.846679 0
M  V30 3573 H 324.408 -2.57589 0.0241017 0
M  V30 3574 H 324.366 -2.64244 -1.70359 0
M  V30 3575 N 328.138 -0.959301 -1.25041 0
M  V30 3576 C 329.385 -0.616611 -1.92884 0
M  V30 3577 C 329.713 0.847036 -1.75087 0
M  V30 3578 O 328.968 1.62374 -1.09239 0
M  V30 3579 C 329.267 -0.927136 -3.45165 0
M  V30 3580 C 328.933 -2.37757 -3.83122 0
M  V30 3581 C 327.595 -2.77402 -3.93194 0
M  V30 3582 C 329.947 -3.31929 -4.01836 0
M  V30 3583 C 327.275 -4.10277 -4.19392 0
M  V30 3584 C 329.627 -4.64423 -4.29528 0
M  V30 3585 C 328.291 -5.03857 -4.37818 0
M  V30 3586 H 327.561 -0.225634 -0.705812 0
M  V30 3587 H 330.208 -1.20921 -1.48493 0
M  V30 3588 H 328.513 -0.252195 -3.90987 0
M  V30 3589 H 330.21 -0.6405 -3.95852 0
M  V30 3590 H 326.8 -2.06013 -3.75841 0
M  V30 3591 H 330.984 -3.02488 -3.93465 0
M  V30 3592 H 326.24 -4.40467 -4.24027 0
M  V30 3593 H 330.414 -5.37369 -4.42953 0
M  V30 3594 H 328.041 -6.06843 -4.57871 0
M  V30 3595 N 329.616 1.39756 -0.72842 0
M  V30 3596 C 330.546 2.33289 -0.0991354 0
M  V30 3597 C 331.527 1.53568 0.731489 0
M  V30 3598 O 332.712 1.81987 0.677807 0
M  V30 3599 C 329.842 3.3763 0.813834 0
M  V30 3600 C 328.796 4.2791 0.0878663 0
M  V30 3601 C 328.122 5.22894 1.11741 0
M  V30 3602 C 329.422 5.11314 -1.06563 0
M  V30 3603 H 331.116 2.86163 -0.880408 0
M  V30 3604 H 328.662 1.37591 -0.424819 0
M  V30 3605 H 330.615 4.0201 1.26355 0
M  V30 3606 H 329.339 2.83181 1.62715 0
M  V30 3607 H 327.998 3.65 -0.342159 0
M  V30 3608 H 327.646 4.64744 1.92412 0
M  V30 3609 H 327.346 5.84143 0.636477 0
M  V30 3610 H 328.87 5.90151 1.56697 0
M  V30 3611 H 330.284 5.69076 -0.694671 0
M  V30 3612 H 328.681 5.81671 -1.47577 0
M  V30 3613 H 329.751 4.46534 -1.89038 0
M  V30 3614 N 331.094 0.475555 1.50254 0
M  V30 3615 C 332.044 -0.335025 2.25525 0
M  V30 3616 C 333.028 -0.957625 1.29299 0
M  V30 3617 O 334.22 -0.869436 1.54175 0
M  V30 3618 C 331.349 -1.41385 3.12834 0
M  V30 3619 C 330.435 -0.798762 4.1651 0
M  V30 3620 N 330.826 0.0835815 5.05731 0
M  V30 3621 C 329.124 -1.06221 4.33166 0
M  V30 3622 C 329.825 0.433113 5.80085 0
M  V30 3623 N 328.801 -0.1928 5.43258 0
M  V30 3624 H 332.603 0.344612 2.91873 0
M  V30 3625 H 330.117 0.289986 1.5979 0
M  V30 3626 H 332.114 -2.00777 3.65368 0
M  V30 3627 H 330.774 -2.09543 2.48036 0
M  V30 3628 H 331.785 0.452715 5.15918 0
M  V30 3629 H 328.462 -1.73844 3.79585 0
M  V30 3630 H 329.852 1.15346 6.61925 0
M  V30 3631 N 332.573 -1.56217 0.208337 0
M  V30 3632 C 333.536 -2.18455 -0.693557 0
M  V30 3633 C 334.536 -1.14268 -1.13135 0
M  V30 3634 O 335.726 -1.39577 -1.0423 0
M  V30 3635 C 332.858 -2.79727 -1.94848 0
M  V30 3636 H 334.051 -2.99519 -0.15114 0
M  V30 3637 H 331.604 -1.56245 -0.041287 0
M  V30 3638 H 332.339 -2.02497 -2.53309 0
M  V30 3639 H 332.124 -3.56009 -1.64316 0
M  V30 3640 H 333.614 -3.27475 -2.59133 0
M  V30 3641 N 334.051 0.0651679 -1.57465 0
M  V30 3642 C 334.981 1.07693 -2.07182 0
M  V30 3643 C 335.962 1.39962 -0.966673 0
M  V30 3644 O 337.147 1.49475 -1.2398 0
M  V30 3645 C 334.277 2.3885 -2.52127 0
M  V30 3646 C 333.231 2.20917 -3.66579 0
M  V30 3647 C 332.557 3.57515 -3.97601 0
M  V30 3648 C 333.857 1.62493 -4.9638 0
M  V30 3649 H 335.551 0.663199 -2.91962 0
M  V30 3650 H 333.097 0.317569 -1.40455 0
M  V30 3651 H 335.05 3.09928 -2.85522 0
M  V30 3652 H 333.774 2.82215 -1.64384 0
M  V30 3653 H 332.433 1.52279 -3.33477 0
M  V30 3654 H 332.081 3.98463 -3.06979 0
M  V30 3655 H 331.781 3.46353 -4.74672 0
M  V30 3656 H 333.305 4.30013 -4.33499 0
M  V30 3657 H 334.719 2.23445 -5.27963 0
M  V30 3658 H 333.116 1.62009 -5.77818 0
M  V30 3659 H 334.186 0.587041 -4.81333 0
M  V30 3660 N 335.529 1.53961 0.336706 0
M  V30 3661 C 336.439 1.85432 1.43708 0
M  V30 3662 C 337.455 0.745053 1.57242 0
M  V30 3663 O 338.631 1.03804 1.72588 0
M  V30 3664 C 335.696 2.06349 2.78605 0
M  V30 3665 C 334.757 3.30191 2.74358 0
M  V30 3666 C 333.99 3.50101 4.02822 0
M  V30 3667 O 334.213 2.7371 5.00439 0
M  V30 3668 O 333.147 4.43547 4.06878 0
M  V30 3669 H 336.973 2.78975 1.20028 0
M  V30 3670 H 334.558 1.39701 0.52952 0
M  V30 3671 H 336.44 2.21513 3.58483 0
M  V30 3672 H 335.115 1.15995 3.02203 0
M  V30 3673 H 334.022 3.20425 1.93078 0
M  V30 3674 H 335.355 4.2056 2.55715 0
M  V30 3675 N 337.007 -0.598083 1.45811 0
M  V30 3676 C 338.253 -1.35882 1.50545 0
M  V30 3677 C 338.586 -1.93616 0.150445 0
M  V30 3678 O 337.861 -1.75604 -0.83628 0
M  V30 3679 C 338.144 -2.49966 2.59208 0
M  V30 3680 C 337.997 -1.97367 4.04186 0
M  V30 3681 C 339.316 -3.52068 2.64076 0
M  V30 3682 H 336.435 -0.492717 0.548087 0
M  V30 3683 H 339.077 -0.673319 1.77669 0
M  V30 3684 H 337.227 -3.08443 2.3621 0
M  V30 3685 H 338.899 -1.43466 4.38423 0
M  V30 3686 H 337.142 -1.283 4.14393 0
M  V30 3687 H 337.813 -2.79649 4.75921 0
M  V30 3688 H 340.289 -3.03448 2.84708 0
M  V30 3689 H 339.165 -4.2937 3.41954 0
M  V30 3690 H 339.426 -4.08304 1.69531 0
M  V30 3691 N 338.485 -1.33259 -0.841409 0
M  V30 3692 C 339.418 -1.1764 -1.95541 0
M  V30 3693 C 340.396 -0.072501 -1.62438 0
M  V30 3694 O 341.58 -0.23427 -1.87039 0
M  V30 3695 C 338.707 -0.803794 -3.29024 0
M  V30 3696 C 337.753 -1.91482 -3.81099 0
M  V30 3697 S 338.586 -3.52538 -4.03085 0
M  V30 3698 C 339.742 -3.17279 -5.39523 0
M  V30 3699 H 339.975 -2.11941 -2.08491 0
M  V30 3700 H 337.508 -1.18072 -0.9949 0
M  V30 3701 H 339.466 -0.595592 -4.06156 0
M  V30 3702 H 338.127 0.120574 -3.13868 0
M  V30 3703 H 337.32 -1.60742 -4.7768 0
M  V30 3704 H 336.922 -2.07956 -3.10854 0
M  V30 3705 H 339.214 -2.67946 -6.22263 0
M  V30 3706 H 340.157 -4.1293 -5.75234 0
M  V30 3707 H 340.565 -2.53943 -5.04156 0
M  V30 3708 N 339.963 1.05934 -1.16686 0
M  V30 3709 C 341.21 1.788 -0.950622 0
M  V30 3710 C 341.538 1.87384 0.521305 0
M  V30 3711 O 340.793 1.36438 1.40297 0
M  V30 3712 C 341.092 3.23105 -1.52767 0
M  V30 3713 C 340.758 3.34594 -3.02254 0
M  V30 3714 C 339.42 3.37437 -3.43059 0
M  V30 3715 C 341.772 3.36219 -3.98254 0
M  V30 3716 C 339.1 3.39525 -4.78477 0
M  V30 3717 C 341.452 3.39845 -5.33562 0
M  V30 3718 C 340.116 3.40971 -5.73842 0
M  V30 3719 H 339.386 0.654275 -0.347857 0
M  V30 3720 H 342.033 1.24555 -1.45459 0
M  V30 3721 H 340.338 3.80227 -0.94524 0
M  V30 3722 H 342.035 3.7809 -1.336 0
M  V30 3723 H 338.625 3.3309 -2.6972 0
M  V30 3724 H 342.809 3.33231 -3.67792 0
M  V30 3725 H 338.065 3.38703 -5.09009 0
M  V30 3726 H 342.239 3.4005 -6.07733 0
M  V30 3727 H 339.866 3.42342 -6.78753 0
M  V30 3728 N 341.441 0.965919 1.2453 0
M  V30 3729 C 342.388 0.49402 2.25451 0
M  V30 3730 C 343.358 -0.45948 1.59618 0
M  V30 3731 O 344.543 -0.370238 1.87173 0
M  V30 3732 C 341.683 -0.211359 3.44452 0
M  V30 3733 C 340.796 0.7807 4.24887 0
M  V30 3734 C 339.931 0.0516105 5.31175 0
M  V30 3735 C 338.97 1.03385 6.03306 0
M  V30 3736 N 338.107 0.334887 7.01301 0
M  V30 3737 H 342.947 1.35946 2.65184 0
M  V30 3738 H 340.484 0.681515 1.3036 0
M  V30 3739 H 342.442 -0.637 4.12308 0
M  V30 3740 H 341.072 -1.04077 3.05562 0
M  V30 3741 H 340.124 1.32479 3.56586 0
M  V30 3742 H 341.436 1.52978 4.74762 0
M  V30 3743 H 340.59 -0.432114 6.05159 0
M  V30 3744 H 339.329 -0.730179 4.82203 0
M  V30 3745 H 338.334 1.52847 5.28127 0
M  V30 3746 H 339.559 1.81606 6.54367 0
M  V30 3747 H 337.505 -0.427959 6.54603 0
M  V30 3748 H 337.422 1.02287 7.49048 0
M  V30 3749 H 338.69 -0.126928 7.79397 0
M  V30 3750 N 342.919 -1.39368 0.735821 0
M  V30 3751 C 344.144 -2.05319 0.293052 0
M  V30 3752 C 344.569 -1.55115 -1.064 0
M  V30 3753 O 343.927 -0.695261 -1.67439 0
M  V30 3754 C 343.975 -3.59305 0.305323 0
M  V30 3755 O 343.079 -4.06299 -0.706761 0
M  V30 3756 H 342.42 -0.650529 0.13307 0
M  V30 3757 H 344.95 -1.78386 1.00197 0
M  V30 3758 H 344.96 -4.07724 0.149997 0
M  V30 3759 H 343.635 -3.95207 1.29553 0
M  V30 3760 H 342.212 -3.69292 -0.517504 0
M  V30 3761 N 344.397 -0.483516 -1.5 0
M  V30 3762 C 345.625 0.0644831 -2.06799 0
M  V30 3763 C 346.04 1.32399 -1.34596 0
M  V30 3764 O 345.397 1.77626 -0.418946 0
M  V30 3765 C 345.448 0.339927 -3.59898 0
M  V30 3766 O 345.169 -0.869635 -4.29382 0
M  V30 3767 C 346.67 0.933515 -4.33359 0
M  V30 3768 H 343.89 -0.0126333 -0.670881 0
M  V30 3769 H 346.434 -0.675864 -1.93009 0
M  V30 3770 H 344.589 1.03022 -3.7345 0
M  V30 3771 H 345.003 -0.62179 -5.20801 0
M  V30 3772 H 346.477 1.07593 -5.41413 0
M  V30 3773 H 346.954 1.92685 -3.94676 0
M  V30 3774 H 347.56 0.281221 -4.24369 0
M  V30 3775 N 345.875 1.56104 -0.216619 0
M  V30 3776 C 347.121 1.98466 0.417033 0
M  V30 3777 C 347.454 1.10403 1.59765 0
M  V30 3778 O 346.729 0.160632 1.93836 0
M  V30 3779 C 347.012 3.49769 0.85637 0
M  V30 3780 C 346.865 4.48606 -0.327546 0
M  V30 3781 C 348.184 4.05339 1.7143 0
M  V30 3782 H 345.303 0.721551 0.150112 0
M  V30 3783 H 347.945 1.87423 -0.311864 0
M  V30 3784 H 346.095 3.5931 1.47745 0
M  V30 3785 H 347.767 4.5108 -0.965618 0
M  V30 3786 H 346.01 4.22682 -0.975805 0
M  V30 3787 H 346.681 5.51995 0.0227149 0
M  V30 3788 H 349.157 3.98712 1.19031 0
M  V30 3789 H 348.033 5.11533 1.99061 0
M  V30 3790 H 348.294 3.51918 2.67593 0
M  V30 3791 N 347.353 -0.0568162 1.57498 0
M  V30 3792 C 348.285 -1.09292 2.01464 0
M  V30 3793 C 349.298 -1.34112 0.922913 0
M  V30 3794 O 350.487 -1.32089 1.20062 0
M  V30 3795 C 347.587 -2.44068 2.35125 0
M  V30 3796 C 346.76 -2.38995 3.66333 0
M  V30 3797 C 345.819 -3.55997 3.87495 0
M  V30 3798 O 344.845 -3.36746 4.58901 0
M  V30 3799 N 346.047 -4.76888 3.30996 0
M  V30 3800 H 348.812 -0.718386 2.90963 0
M  V30 3801 H 346.373 -0.245235 1.60032 0
M  V30 3802 H 348.365 -3.21011 2.46443 0
M  V30 3803 H 346.935 -2.73468 1.5144 0
M  V30 3804 H 346.155 -1.47336 3.65631 0
M  V30 3805 H 347.443 -2.3272 4.52458 0
M  V30 3806 H 346.841 -4.95431 2.73065 0
M  V30 3807 H 345.398 -5.51291 3.47738 0
M  V30 3808 N 348.832 -1.54138 -0.328536 0
M  V30 3809 C 349.762 -1.86167 -1.40939 0
M  V30 3810 C 350.743 -0.718044 -1.54202 0
M  V30 3811 O 351.928 -0.971328 -1.68163 0
M  V30 3812 C 349.058 -2.08461 -2.77779 0
M  V30 3813 C 348.012 -3.24299 -2.7931 0
M  V30 3814 C 347.338 -3.31955 -4.19178 0
M  V30 3815 C 348.638 -4.62065 -2.43502 0
M  V30 3816 H 350.332 -2.76689 -1.14383 0
M  V30 3817 H 347.878 -1.33132 -0.548806 0
M  V30 3818 H 349.831 -2.29453 -3.53454 0
M  V30 3819 H 348.555 -1.14684 -3.05802 0
M  V30 3820 H 347.214 -3.03187 -2.0609 0
M  V30 3821 H 346.862 -2.35745 -4.44335 0
M  V30 3822 H 346.562 -4.09805 -4.2111 0
M  V30 3823 H 348.086 -3.55175 -4.96672 0
M  V30 3824 H 349.5 -4.8297 -3.08889 0
M  V30 3825 H 347.897 -5.42429 -2.56693 0
M  V30 3826 H 348.967 -4.64652 -1.38659 0
M  V30 3827 N 350.31 0.590341 -1.46126 0
M  V30 3828 C 351.243 1.71434 -1.50617 0
M  V30 3829 C 352.221 1.58543 -0.360948 0
M  V30 3830 O 353.405 1.79865 -0.563985 0
M  V30 3831 C 350.532 3.09422 -1.37753 0
M  V30 3832 C 349.578 3.40854 -2.5636 0
M  V30 3833 S 350.411 3.33773 -4.18755 0
M  V30 3834 C 351.567 4.74312 -4.08386 0
M  V30 3835 H 351.8 1.67364 -2.45717 0
M  V30 3836 H 349.333 0.76845 -1.33919 0
M  V30 3837 H 351.291 3.8903 -1.31018 0
M  V30 3838 H 349.952 3.10989 -0.440949 0
M  V30 3839 H 349.145 4.41368 -2.43332 0
M  V30 3840 H 348.747 2.68798 -2.60046 0
M  V30 3841 H 351.039 5.64522 -3.74595 0
M  V30 3842 H 351.982 4.92397 -5.08872 0
M  V30 3843 H 352.39 4.50803 -3.3976 0
M  V30 3844 N 351.788 1.33704 0.83433 0
M  V30 3845 C 353.035 1.25417 1.58987 0
M  V30 3846 C 353.363 -0.178869 1.93676 0
M  V30 3847 O 352.618 -1.13723 1.59265 0
M  V30 3848 C 352.917 2.07926 2.90692 0
M  V30 3849 C 352.583 3.57066 2.75345 0
M  V30 3850 C 351.245 3.97724 2.70867 0
M  V30 3851 C 353.597 4.51817 2.59828 0
M  V30 3852 C 350.925 5.31344 2.48778 0
M  V30 3853 C 353.277 5.85604 2.39272 0
M  V30 3854 C 351.941 6.25439 2.33199 0
M  V30 3855 H 351.211 0.458934 0.581774 0
M  V30 3856 H 353.858 1.65335 0.966261 0
M  V30 3857 H 352.163 1.608 3.57282 0
M  V30 3858 H 353.86 1.98868 3.48213 0
M  V30 3859 H 350.45 3.24785 2.79665 0
M  V30 3860 H 354.634 4.21311 2.62319 0
M  V30 3861 H 349.89 5.61241 2.42526 0
M  V30 3862 H 354.064 6.58623 2.2625 0
M  V30 3863 H 351.691 7.28914 2.15843 0
M  V30 3864 N 353.266 -1.05314 1.17247 0
M  V30 3865 C 354.199 -2.12512 0.831507 0
M  V30 3866 C 355.177 -1.61351 -0.201168 0
M  V30 3867 O 356.361 -1.88317 -0.0829831 0
M  V30 3868 C 353.488 -3.37848 0.24015 0
M  V30 3869 C 352.534 -4.07832 1.24801 0
M  V30 3870 S 353.367 -4.56537 2.79882 0
M  V30 3871 C 354.523 -5.85122 2.22223 0
M  V30 3872 H 354.756 -2.41106 1.7394 0
M  V30 3873 H 352.289 -1.17896 0.996988 0
M  V30 3874 H 354.247 -4.10391 -0.0945588 0
M  V30 3875 H 352.908 -3.07392 -0.645668 0
M  V30 3876 H 352.101 -4.97883 0.78287 0
M  V30 3877 H 351.703 -3.41348 1.52831 0
M  V30 3878 H 353.995 -6.58408 1.59703 0
M  V30 3879 H 354.938 -6.36381 3.10523 0
M  V30 3880 H 355.346 -5.39626 1.65722 0
M  V30 3881 N 354.744 -0.972509 -1.24016 0
M  V30 3882 C 356.155 -0.67517 -1.74064 0
M  V30 3883 C 356.506 0.808939 -1.78747 0
M  V30 3884 O 355.631 1.63286 -1.42009 0
M  V30 3885 C 356.226 -1.21889 -3.16115 0
M  V30 3886 C 354.785 -0.971358 -3.6365 0
M  V30 3887 C 353.932 -1.35134 -2.42145 0
M  V30 3888 H 356.883 -1.14727 -1.09651 0
M  V30 3889 H 356.904 -0.587489 -3.75937 0
M  V30 3890 H 356.416 -2.29906 -3.12674 0
M  V30 3891 H 354.517 0.0930686 -3.72484 0
M  V30 3892 H 354.63 -1.62039 -4.50866 0
M  V30 3893 H 352.994 -0.769751 -2.4279 0
M  V30 3894 H 353.777 -2.4411 -2.41381 0
M  V30 3895 N 356.222 1.38976 -0.743202 0
M  V30 3896 C 357.638 1.53984 -0.419664 0
M  V30 3897 C 357.838 1.70837 1.0685 0
M  V30 3898 O 356.894 1.7135 1.8546 0
M  V30 3899 C 358.207 2.75287 -1.20985 0
M  V30 3900 C 359.755 2.89129 -1.19889 0
M  V30 3901 C 360.23 4.13381 -1.97181 0
M  V30 3902 N 361.721 4.20437 -1.94389 0
M  V30 3903 C 362.456 5.15547 -2.50996 0
M  V30 3904 N 361.952 6.16395 -3.16274 0
M  V30 3905 N 363.745 5.07822 -2.40984 0
M  V30 3906 H 355.896 1.26285 -1.7078 0
M  V30 3907 H 358.159 0.612689 -0.723406 0
M  V30 3908 H 357.865 2.69204 -2.26323 0
M  V30 3909 H 357.739 3.68184 -0.819759 0
M  V30 3910 H 360.126 2.947 -0.153606 0
M  V30 3911 H 360.207 1.97272 -1.62841 0
M  V30 3912 H 359.851 4.08572 -3.01714 0
M  V30 3913 H 359.781 5.04298 -1.51629 0
M  V30 3914 H 362.272 3.48205 -1.46839 0
M  V30 3915 H 362.585 6.85443 -3.56915 0
M  V30 3916 H 360.93 6.16758 -3.20367 0
M  V30 3917 H 364.121 4.27973 -1.89622 0
M  V30 3918 H 364.294 5.81767 -2.85397 0
M  V30 3919 N 357.7 0.491464 1.49741 0
M  V30 3920 C 358.925 -0.0557177 2.07325 0
M  V30 3921 C 359.35 -1.30925 1.35056 0
M  V30 3922 O 358.708 -1.76733 0.404365 0
M  V30 3923 C 358.756 -0.302074 3.59333 0
M  V30 3924 O 357.86 -1.37868 3.88672 0
M  V30 3925 H 357.201 0.0219956 0.663636 0
M  V30 3926 H 359.731 0.688352 1.92673 0
M  V30 3927 H 359.741 -0.536464 4.04458 0
M  V30 3928 H 358.416 0.61383 4.11345 0
M  V30 3929 H 356.993 -1.12999 3.55367 0
M  V30 3930 N 359.178 -1.55987 0.224894 0
M  V30 3931 C 360.108 -2.23426 -0.678457 0
M  V30 3932 C 361.089 -1.20709 -1.19847 0
M  V30 3933 O 362.274 -1.49304 -1.24186 0
M  V30 3934 C 359.404 -2.91676 -1.88527 0
M  V30 3935 C 358.358 -4.00893 -1.49896 0
M  V30 3936 C 357.684 -4.56455 -2.78483 0
M  V30 3937 C 358.984 -5.17769 -0.686461 0
M  V30 3938 H 360.678 -2.99175 -0.116173 0
M  V30 3939 H 358.224 -1.43897 -0.054436 0
M  V30 3940 H 360.177 -3.37547 -2.5227 0
M  V30 3941 H 358.901 -2.1338 -2.47258 0
M  V30 3942 H 357.56 -3.55758 -0.884985 0
M  V30 3943 H 357.208 -3.74886 -3.35365 0
M  V30 3944 H 356.908 -5.30169 -2.53368 0
M  V30 3945 H 358.432 -5.05047 -3.43162 0
M  V30 3946 H 359.846 -5.60001 -1.22767 0
M  V30 3947 H 358.243 -5.97735 -0.532259 0
M  V30 3948 H 359.313 -4.83932 0.306196 0
M  V30 3949 N 360.656 0.0484629 -1.57525 0
M  V30 3950 C 361.881 0.759177 -1.93006 0
M  V30 3951 C 362.306 1.69125 -0.823317 0
M  V30 3952 O 361.664 1.79931 0.222364 0
M  V30 3953 C 361.712 1.50899 -3.27509 0
M  V30 3954 O 360.816 2.62112 -3.18388 0
M  V30 3955 H 360.157 0.205564 -0.631379 0
M  V30 3956 H 362.687 0.00972959 -2.04598 0
M  V30 3957 H 362.697 1.88317 -3.6194 0
M  V30 3958 H 361.372 0.825269 -4.0763 0
M  V30 3959 H 359.949 2.27379 -2.95556 0
M  V30 3960 N 362.134 1.5431 0.320358 0
M  V30 3961 C 363.55 1.45091 0.664889 0
M  V30 3962 C 363.75 0.626382 1.91517 0
M  V30 3963 O 362.806 0.126443 2.52183 0
M  V30 3964 C 364.119 2.88848 0.83591 0
M  V30 3965 C 365.667 2.9877 0.933046 0
M  V30 3966 C 366.142 4.43683 1.13621 0
M  V30 3967 N 367.633 4.47309 1.20287 0
M  V30 3968 C 368.368 5.56595 1.37801 0
M  V30 3969 N 367.864 6.75844 1.52338 0
M  V30 3970 N 369.657 5.44248 1.40535 0
M  V30 3971 H 361.808 2.06398 -0.501374 0
M  V30 3972 H 364.071 0.933963 -0.162534 0
M  V30 3973 H 363.777 3.51698 -0.0116092 0
M  V30 3974 H 363.651 3.35148 1.73078 0
M  V30 3975 H 366.038 2.36045 1.77107 0
M  V30 3976 H 366.119 2.55796 0.0145782 0
M  V30 3977 H 365.763 5.06995 0.303032 0
M  V30 3978 H 365.693 4.84269 2.0686 0
M  V30 3979 H 368.184 3.61388 1.10485 0
M  V30 3980 H 368.497 7.54892 1.65403 0
M  V30 3981 H 366.842 6.78746 1.4943 0
M  V30 3982 H 370.033 4.50038 1.28777 0
M  V30 3983 H 370.206 6.29473 1.53842 0
M  V30 3984 N 363.613 -0.582584 1.46437 0
M  V30 3985 C 364.859 -1.34064 1.52965 0
M  V30 3986 C 365.214 -1.91566 0.178968 0
M  V30 3987 O 364.507 -1.73526 -0.812365 0
M  V30 3988 C 364.701 -2.48964 2.56421 0
M  V30 3989 C 364.53 -2.02717 4.01417 0
M  V30 3990 C 363.3 -1.87728 4.69134 0
M  V30 3991 C 365.498 -1.58675 4.8921 0
M  V30 3992 N 363.48 -1.35554 5.98747 0
M  V30 3993 C 364.851 -1.18093 6.08649 0
M  V30 3994 C 366.906 -1.46494 4.75861 0
M  V30 3995 C 365.609 -0.665427 7.16215 0
M  V30 3996 C 367.635 -0.96347 5.83499 0
M  V30 3997 C 366.997 -0.567432 7.02111 0
M  V30 3998 H 363.096 -0.483551 0.614575 0
M  V30 3999 H 365.68 -0.663309 1.83053 0
M  V30 4000 H 363.851 -3.1426 2.28244 0
M  V30 4001 H 365.583 -3.15913 2.52944 0
M  V30 4002 H 362.338 -2.09678 4.24655 0
M  V30 4003 H 362.762 -1.11628 6.67734 0
M  V30 4004 H 367.404 -1.75731 3.8455 0
M  V30 4005 H 365.122 -0.360639 8.07295 0
M  V30 4006 H 368.708 -0.873129 5.75211 0
M  V30 4007 H 367.588 -0.185389 7.83981 0
M  V30 4008 N 365.091 -1.34144 -0.827227 0
M  V30 4009 C 366.319 -1.29325 -1.61501 0
M  V30 4010 C 366.734 0.13354 -1.88327 0
M  V30 4011 O 366.091 1.0793 -1.47164 0
M  V30 4012 C 366.142 -2.07746 -2.95844 0
M  V30 4013 O 365.863 -3.4486 -2.70191 0
M  V30 4014 C 367.364 -2.10273 -3.90256 0
M  V30 4015 H 364.584 -0.445069 -0.50215 0
M  V30 4016 H 367.128 -1.76693 -1.02955 0
M  V30 4017 H 365.283 -1.6403 -3.5096 0
M  V30 4018 H 365.697 -3.85345 -3.55822 0
M  V30 4019 H 367.171 -2.69575 -4.81698 0
M  V30 4020 H 367.648 -1.096 -4.25305 0
M  V30 4021 H 368.254 -2.54059 -3.41078 0
M  V30 4022 N 366.569 1.04691 -1.17803 0
M  V30 4023 C 367.794 1.81984 -0.994813 0
M  V30 4024 C 368.219 1.82586 0.452112 0
M  V30 4025 O 367.577 1.23854 1.324 0
M  V30 4026 C 367.625 3.2575 -1.54659 0
M  V30 4027 O 366.729 4.05267 -0.763728 0
M  V30 4028 H 366.07 0.562483 -0.352857 0
M  V30 4029 H 368.6 1.3189 -1.56417 0
M  V30 4030 H 368.61 3.76541 -1.57102 0
M  V30 4031 H 367.285 3.24627 -2.59981 0
M  V30 4032 H 365.862 3.63972 -0.811108 0
M  V30 4033 N 368.047 0.979072 1.23499 0
M  V30 4034 C 369.458 0.684391 1.73704 0
M  V30 4035 C 369.809 -0.799448 1.79174 0
M  V30 4036 O 368.934 -1.62531 1.42873 0
M  V30 4037 C 369.529 1.23564 3.15464 0
M  V30 4038 C 368.088 0.99063 3.6313 0
M  V30 4039 C 367.235 1.36416 2.41425 0
M  V30 4040 H 370.186 1.15307 1.09041 0
M  V30 4041 H 370.207 0.607417 3.7562 0
M  V30 4042 H 369.719 2.31561 3.1145 0
M  V30 4043 H 367.82 -0.0733136 3.72528 0
M  V30 4044 H 367.933 1.64427 4.5 0
M  V30 4045 H 366.297 0.782616 2.42378 0
M  V30 4046 H 367.08 2.45387 2.40083 0
M  V30 4047 N 369.525 -1.3858 0.750561 0
M  V30 4048 C 370.472 -2.30483 0.120835 0
M  V30 4049 C 371.442 -1.50022 -0.712923 0
M  V30 4050 O 372.627 -1.78662 -0.669676 0
M  V30 4051 C 369.767 -3.36431 -0.768666 0
M  V30 4052 C 368.88 -4.31927 0.0793922 0
M  V30 4053 C 368.015 -5.24944 -0.81283 0
M  V30 4054 C 367.054 -6.12088 0.0390447 0
M  V30 4055 N 366.191 -6.97412 -0.809969 0
M  V30 4056 H 371.031 -2.83761 0.91015 0
M  V30 4057 H 368.568 -1.39707 0.460463 0
M  V30 4058 H 370.526 -3.96462 -1.29898 0
M  V30 4059 H 369.156 -2.8457 -1.5238 0
M  V30 4060 H 368.208 -3.73382 0.727303 0
M  V30 4061 H 369.52 -4.93319 0.737401 0
M  V30 4062 H 368.674 -5.90078 -1.41042 0
M  V30 4063 H 367.413 -4.63911 -1.50458 0
M  V30 4064 H 366.418 -5.45952 0.649328 0
M  V30 4065 H 367.643 -6.75189 0.727809 0
M  V30 4066 H 365.589 -6.38931 -1.48672 0
M  V30 4067 H 365.506 -7.55712 -0.208789 0
M  V30 4068 H 366.774 -7.66959 -1.39263 0
M  V30 4069 N 371.003 -0.499398 -1.49478 0
M  V30 4070 C 372.249 0.0457576 -2.02748 0
M  V30 4071 C 372.582 1.36793 -1.37846 0
M  V30 4072 O 371.857 1.87596 -0.513601 0
M  V30 4073 C 372.14 0.199986 -3.59544 0
M  V30 4074 C 371.993 -1.1452 -4.34977 0
M  V30 4075 C 373.312 0.94137 -4.29914 0
M  V30 4076 H 370.431 0.0151552 -0.736844 0
M  V30 4077 H 373.073 -0.650498 -1.78518 0
M  V30 4078 H 371.223 0.793007 -3.8032 0
M  V30 4079 H 372.895 -1.77697 -4.25701 0
M  V30 4080 H 371.138 -1.73488 -3.97598 0
M  V30 4081 H 371.809 -0.990607 -5.43039 0
M  V30 4082 H 374.285 0.43844 -4.13784 0
M  V30 4083 H 373.161 1.01812 -5.39375 0
M  V30 4084 H 373.422 1.98471 -3.95046 0
M  V30 4085 N 372.481 1.55866 -0.233164 0
M  V30 4086 C 373.727 1.99643 0.389148 0
M  V30 4087 C 374.082 1.11836 1.56558 0
M  V30 4088 O 373.375 0.170848 1.90837 0
M  V30 4089 C 373.569 3.46856 0.861724 0
M  V30 4090 C 373.398 4.48904 -0.267376 0
M  V30 4091 C 372.168 4.99888 -0.737577 0
M  V30 4092 C 374.366 5.02624 -1.08966 0
M  V30 4093 N 372.348 5.8566 -1.84052 0
M  V30 4094 C 373.719 5.85434 -2.04125 0
M  V30 4095 C 375.774 4.84959 -1.12779 0
M  V30 4096 C 374.477 6.52466 -3.02789 0
M  V30 4097 C 376.503 5.52759 -2.10266 0
M  V30 4098 C 375.865 6.35346 -3.04162 0
M  V30 4099 H 371.964 0.774402 0.108742 0
M  V30 4100 H 374.548 1.91572 -0.347596 0
M  V30 4101 H 372.719 3.55352 1.5678 0
M  V30 4102 H 374.451 3.77531 1.45783 0
M  V30 4103 H 371.206 4.7249 -0.324122 0
M  V30 4104 H 371.63 6.33246 -2.39434 0
M  V30 4105 H 376.272 4.20751 -0.415749 0
M  V30 4106 H 373.99 7.15849 -3.74948 0
M  V30 4107 H 377.576 5.41051 -2.13905 0
M  V30 4108 H 376.456 6.86883 -3.78366 0
M  V30 4109 N 373.959 -0.0401083 1.57549 0
M  V30 4110 C 374.906 -1.04413 2.05831 0
M  V30 4111 C 375.876 -1.36585 0.945184 0
M  V30 4112 O 377.061 -1.47112 1.21502 0
M  V30 4113 C 374.201 -2.34336 2.53339 0
M  V30 4114 C 373.314 -2.08419 3.78398 0
M  V30 4115 C 372.449 -3.32133 4.14561 0
M  V30 4116 C 371.488 -3.01721 5.3257 0
M  V30 4117 N 370.625 -4.17855 5.64218 0
M  V30 4118 H 375.465 -0.625442 2.91363 0
M  V30 4119 H 373.002 -0.297218 1.44066 0
M  V30 4120 H 374.96 -3.10234 2.78946 0
M  V30 4121 H 373.59 -2.73948 1.7074 0
M  V30 4122 H 372.642 -1.23069 3.59942 0
M  V30 4123 H 373.954 -1.81978 4.64419 0
M  V30 4124 H 373.108 -4.16406 4.41238 0
M  V30 4125 H 371.847 -3.61678 3.2717 0
M  V30 4126 H 370.852 -2.15849 5.05657 0
M  V30 4127 H 372.077 -2.73466 6.21605 0
M  V30 4128 H 370.023 -4.47372 4.79786 0
M  V30 4129 H 369.94 -3.94798 6.44725 0
M  V30 4130 H 371.208 -5.03033 5.95465 0
M  V30 4131 N 375.437 -1.54477 -0.31217 0
M  V30 4132 C 376.347 -1.87695 -1.4074 0
M  V30 4133 C 377.363 -0.769975 -1.56036 0
M  V30 4134 O 378.539 -1.06537 -1.70915 0
M  V30 4135 C 375.604 -2.10755 -2.75287 0
M  V30 4136 C 374.665 -3.34514 -2.69071 0
M  V30 4137 C 373.898 -3.56465 -3.97201 0
M  V30 4138 O 374.121 -2.81637 -4.96021 0
M  V30 4139 O 373.055 -4.49964 -3.9977 0
M  V30 4140 H 376.881 -2.80849 -1.15574 0
M  V30 4141 H 374.466 -1.40526 -0.507228 0
M  V30 4142 H 376.348 -2.27188 -3.54913 0
M  V30 4143 H 375.023 -1.20788 -3.0032 0
M  V30 4144 H 373.93 -3.23456 -1.87955 0
M  V30 4145 H 375.263 -4.24575 -2.48992 0
M  V30 4146 N 376.915 0.57481 -1.46744 0
M  V30 4147 C 377.865 1.67838 -1.54319 0
M  V30 4148 C 378.849 1.55759 -0.40346 0
M  V30 4149 O 380.041 1.6454 -0.652347 0
M  V30 4150 C 377.17 3.06624 -1.5439 0
M  V30 4151 C 376.256 3.23971 -2.73685 0
M  V30 4152 N 376.647 3.11447 -3.9854 0
M  V30 4153 C 374.945 3.5493 -2.70075 0
M  V30 4154 C 375.646 3.31011 -4.78337 0
M  V30 4155 N 374.622 3.56533 -4.10348 0
M  V30 4156 H 378.424 1.56698 -2.48642 0
M  V30 4157 H 375.938 0.779071 -1.42493 0
M  V30 4158 H 377.935 3.85839 -1.57905 0
M  V30 4159 H 376.595 3.1889 -0.611493 0
M  V30 4160 H 377.606 2.89145 -4.29669 0
M  V30 4161 H 374.283 3.73832 -1.85893 0
M  V30 4162 H 375.673 3.26445 -5.87268 0
M  V30 4163 N 378.394 1.34581 0.820102 0
M  V30 4164 C 379.641 1.27096 1.57648 0
M  V30 4165 C 379.969 -0.158317 1.93855 0
M  V30 4166 O 379.224 -1.12028 1.60463 0
M  V30 4167 C 379.523 2.10997 2.8847 0
M  V30 4168 C 379.189 3.59966 2.71543 0
M  V30 4169 C 377.851 4.00575 2.66634 0
M  V30 4170 C 380.203 4.54548 2.55021 0
M  V30 4171 C 377.531 5.33953 2.43128 0
M  V30 4172 C 379.883 5.88109 2.33047 0
M  V30 4173 C 378.547 6.27878 2.26552 0
M  V30 4174 H 377.817 0.465078 0.576874 0
M  V30 4175 H 380.464 1.6635 0.948671 0
M  V30 4176 H 378.769 1.6458 3.55557 0
M  V30 4177 H 380.466 2.0255 3.46084 0
M  V30 4178 H 377.056 3.27733 2.76205 0
M  V30 4179 H 381.24 4.24069 2.57835 0
M  V30 4180 H 376.496 5.63781 2.3656 0
M  V30 4181 H 380.67 6.60985 2.19251 0
M  V30 4182 H 378.297 7.31162 2.081 0
M  V30 4183 N 379.872 -1.04064 1.18357 0
M  V30 4184 C 380.782 -2.15569 0.925596 0
M  V30 4185 C 381.798 -1.7365 -0.110295 0
M  V30 4186 O 382.974 -2.01273 0.0716218 0
M  V30 4187 C 380.039 -3.43704 0.454836 0
M  V30 4188 C 379.1 -4.00004 1.55869 0
M  V30 4189 C 378.333 -5.22023 1.1103 0
M  V30 4190 O 378.556 -5.70392 -0.0309756 0
M  V30 4191 O 377.49 -5.70856 1.90805 0
M  V30 4192 H 381.316 -2.40187 1.8586 0
M  V30 4193 H 378.901 -1.1402 0.965394 0
M  V30 4194 H 380.783 -4.20923 0.200382 0
M  V30 4195 H 379.458 -3.20559 -0.449876 0
M  V30 4196 H 378.365 -3.24172 1.86716 0
M  V30 4197 H 379.698 -4.2749 2.43953 0
M  V30 4198 N 381.35 -0.985608 -1.22978 0
M  V30 4199 C 382.313 -0.535071 -2.22867 0
M  V30 4200 C 383.313 0.378123 -1.56291 0
M  V30 4201 O 384.503 0.171092 -1.73358 0
M  V30 4202 C 381.635 0.222702 -3.40172 0
M  V30 4203 H 382.828 -1.41835 -2.6424 0
M  V30 4204 H 380.381 -0.772042 -1.35901 0
M  V30 4205 H 381.116 1.12229 -3.04262 0
M  V30 4206 H 380.901 -0.43288 -3.89703 0
M  V30 4207 H 382.391 0.526335 -4.1427 0
M  V30 4208 N 382.828 1.3818 -0.7579 0
M  V30 4209 C 384.074 2.0078 -0.325423 0
M  V30 4210 C 384.429 1.59085 1.08211 0
M  V30 4211 O 383.722 0.820394 1.73148 0
M  V30 4212 C 383.916 3.55252 -0.391218 0
M  V30 4213 C 383.745 4.11947 -1.8036 0
M  V30 4214 C 382.515 4.43519 -2.42113 0
M  V30 4215 C 384.713 4.33908 -2.76095 0
M  V30 4216 N 382.695 4.85847 -3.75267 0
M  V30 4217 C 384.066 4.78692 -3.94023 0
M  V30 4218 C 386.121 4.16015 -2.73561 0
M  V30 4219 C 384.824 5.07459 -5.09782 0
M  V30 4220 C 386.85 4.45909 -3.88483 0
M  V30 4221 C 386.212 4.90921 -5.0515 0
M  V30 4222 H 382.311 0.764215 -0.165831 0
M  V30 4223 H 384.895 1.67724 -0.988776 0
M  V30 4224 H 383.066 3.87646 0.241886 0
M  V30 4225 H 384.798 4.04653 0.061989 0
M  V30 4226 H 381.553 4.32113 -1.93842 0
M  V30 4227 H 381.977 5.11339 -4.4369 0
M  V30 4228 H 386.619 3.80399 -1.84544 0
M  V30 4229 H 384.337 5.4197 -5.99412 0
M  V30 4230 H 387.923 4.33666 -3.87847 0
M  V30 4231 H 386.803 5.1361 -5.92599 0
M  V30 4232 N 384.306 0.507319 1.49211 0
M  V30 4233 C 385.583 -0.0982702 1.95353 0
M  V30 4234 C 385.963 -1.53516 1.449 0
M  V30 4235 O 385.311 -2.18594 0.66551 0
M  V30 4236 C 385.521 -0.00440283 3.49 0
M  V30 4237 C 386.869 -0.175147 4.24239 0
M  V30 4238 O 387.893 -0.0792891 3.56112 0
M  V30 4239 O 386.752 -0.37276 5.45227 0
M  V30 4240 H 383.846 -0.0918236 0.821887 0
M  V30 4241 H 386.392 0.570307 1.5983 0
M  V30 4242 H 385.164 0.997402 3.78375 0
M  V30 4243 H 384.787 -0.712845 3.91158 0
M  V30 4244 N 385.784 -1.5574 0.241426 0
M  V30 4245 C 387.024 -2.00714 -0.38644 0
M  V30 4246 C 387.388 -1.12586 -1.55526 0
M  V30 4247 O 388.589 -1.46992 -2.25048 0
M  V30 4248 C 386.86 -3.48534 -0.791128 0
M  V30 4249 S 388.419 -4.15519 -1.41029 0
M  V30 4250 H 385.237 -0.700484 -0.121834 0
M  V30 4251 H 387.839 -1.92243 0.355377 0
M  V30 4252 H 386.543 -4.10342 0.0689225 0
M  V30 4253 H 386.074 -3.6092 -1.56526 0
M  V30 4254 H 388.089 -4.16352 -2.69936 0
M  V30 4255 N 387.262 0.0317525 -1.57568 0
M  V30 4256 C 388.511 0.722131 -1.8833 0
M  V30 4257 C 388.824 1.76664 -0.839587 0
M  V30 4258 O 390.03 2.50942 -1.03635 0
M  V30 4259 C 388.486 1.33544 -3.34207 0
M  V30 4260 C 388.094 0.327415 -4.46802 0
M  V30 4261 C 389.838 2.00585 -3.7412 0
M  V30 4262 C 387.745 0.948915 -5.83738 0
M  V30 4263 H 386.675 0.273466 -0.702661 0
M  V30 4264 H 389.326 -0.0235811 -1.83485 0
M  V30 4265 H 387.708 2.13077 -3.33788 0
M  V30 4266 H 388.882 -0.441006 -4.58685 0
M  V30 4267 H 387.197 -0.240758 -4.15703 0
M  V30 4268 H 389.794 2.47932 -4.73744 0
M  V30 4269 H 390.137 2.82285 -3.05975 0
M  V30 4270 H 390.67 1.27831 -3.76702 0
M  V30 4271 H 387.409 0.171387 -6.55276 0
M  V30 4272 H 386.929 1.68724 -5.7558 0
M  V30 4273 H 388.608 1.45705 -6.3038 0
M  V30 4274 N 388.74 1.54641 0.303973 0
M  V30 4275 C 389.987 1.7378 1.03955 0
M  V30 4276 C 390.315 0.521986 1.87365 0
M  V30 4277 O 389.57 -0.496099 1.89308 0
M  V30 4278 C 389.869 2.97753 1.97681 0
M  V30 4279 C 389.535 4.31671 1.30271 0
M  V30 4280 C 388.197 4.68075 1.11619 0
M  V30 4281 C 390.549 5.147 0.82055 0
M  V30 4282 C 387.877 5.8509 0.434304 0
M  V30 4283 C 390.229 6.32416 0.152395 0
M  V30 4284 C 388.893 6.67484 -0.0461067 0
M  V30 4285 H 388.163 0.635908 0.380398 0
M  V30 4286 H 390.81 1.88896 0.314718 0
M  V30 4287 H 389.115 2.77406 2.76682 0
M  V30 4288 H 390.812 3.09756 2.54661 0
M  V30 4289 H 387.402 4.03041 1.45795 0
M  V30 4290 H 391.586 4.87077 0.952374 0
M  V30 4291 H 386.842 6.10806 0.269495 0
M  V30 4292 H 391.016 6.96023 -0.229126 0
M  V30 4293 H 388.643 7.58011 -0.576494 0
M  V30 4294 N 390.218 -0.567019 1.47046 0
M  V30 4295 C 391.15 -1.68985 1.54844 0
M  V30 4296 C 392.163 -1.56869 0.435431 0
M  V30 4297 O 393.352 -1.64006 0.70457 0
M  V30 4298 C 390.452 -3.07373 1.42742 0
M  V30 4299 C 389.625 -3.45339 2.6844 0
M  V30 4300 C 388.684 -4.62849 2.50314 0
M  V30 4301 O 387.71 -4.67922 3.24095 0
M  V30 4302 N 388.912 -5.58726 1.57499 0
M  V30 4303 H 391.677 -1.62745 2.51663 0
M  V30 4304 H 389.238 -0.753411 1.43302 0
M  V30 4305 H 391.23 -3.83803 1.28365 0
M  V30 4306 H 389.8 -3.07893 0.540445 0
M  V30 4307 H 389.02 -2.58455 2.97648 0
M  V30 4308 H 390.308 -3.67476 3.51907 0
M  V30 4309 H 389.706 -5.57376 0.966876 0
M  V30 4310 H 388.263 -6.34523 1.49078 0
M  V30 4311 N 391.696 -1.35014 -0.812953 0
M  V30 4312 C 392.926 -1.30841 -1.59888 0
M  V30 4313 C 393.334 0.117576 -1.88834 0
M  V30 4314 O 392.677 1.07807 -1.48739 0
M  V30 4315 C 392.739 -2.0412 -2.95931 0
M  V30 4316 C 392.403 -3.53336 -2.89832 0
M  V30 4317 C 393.4 -4.48052 -2.63714 0
M  V30 4318 C 391.085 -3.95894 -3.0915 0
M  V30 4319 C 393.079 -5.833 -2.56982 0
M  V30 4320 C 390.766 -5.31239 -3.0204 0
M  V30 4321 C 391.764 -6.24754 -2.75991 0
M  V30 4322 O 391.452 -7.57617 -2.68833 0
M  V30 4323 H 391.184 -0.451215 -0.50337 0
M  V30 4324 H 393.738 -1.78354 -1.01877 0
M  V30 4325 H 391.968 -1.51235 -3.559 0
M  V30 4326 H 393.657 -1.93107 -3.57022 0
M  V30 4327 H 394.423 -4.16492 -2.48515 0
M  V30 4328 H 390.302 -3.23495 -3.28438 0
M  V30 4329 H 393.846 -6.56263 -2.36569 0
M  V30 4330 H 389.743 -5.62415 -3.16796 0
M  V30 4331 H 390.511 -7.67469 -2.84487 0
M  V30 4332 N 393.175 1.03435 -1.18907 0
M  V30 4333 C 394.423 1.76394 -0.986382 0
M  V30 4334 C 394.744 1.88883 0.484567 0
M  V30 4335 O 394.014 1.41843 1.3512 0
M  V30 4336 H 392.594 0.65344 -0.361975 0
M  V30 4337 H 395.256 1.248 -1.49703 0
M  V30 4338 H 394.352 2.77424 -1.42978 0
M  V30 4339 N 394.653 0.992116 1.22453 0
M  V30 4340 C 395.93 0.583508 1.86694 0
M  V30 4341 C 396.31 -0.9392 1.89056 0
M  V30 4342 O 395.658 -1.82081 1.38053 0
M  V30 4343 C 395.868 1.20304 3.2761 0
M  V30 4344 C 397.216 1.30308 4.0411 0
M  V30 4345 O 398.24 1.15737 3.36873 0
M  V30 4346 O 397.099 1.53615 5.24466 0
M  V30 4347 H 394.193 0.198129 0.802916 0
M  V30 4348 H 396.739 1.08794 1.30238 0
M  V30 4349 H 395.511 2.24461 3.2052 0
M  V30 4350 H 395.134 0.684144 3.9167 0
M  V30 4351 N 396.131 -1.37776 0.765217 0
M  V30 4352 C 397.079 -2.32209 0.134798 0
M  V30 4353 C 398.073 -1.54607 -0.692315 0
M  V30 4354 O 399.279 -1.70052 -0.590109 0
M  V30 4355 H 395.654 -0.751591 0.0248005 0
M  V30 4356 H 397.625 -2.8297 0.947119 0
M  V30 4357 C 396.374 -3.39841 -0.735063 0
M  V30 4358 H 395.697 -3.99654 -0.107991 0
M  V30 4359 H 397.137 -4.08296 -1.14326 0
M  V30 4360 C 395.596 -2.79378 -1.88281 0
M  V30 4361 O 396.126 -2.69608 -2.97783 0
M  V30 4362 N 394.332 -2.37016 -1.68142 0
M  V30 4363 H 393.879 -2.45162 -0.790772 0
M  V30 4364 H 393.837 -1.96905 -2.45104 0
M  V30 4365 N 397.609 -0.515225 -1.4894 0
M  V30 4366 C 398.849 0.0223983 -2.04388 0
M  V30 4367 C 399.213 1.32961 -1.38511 0
M  V30 4368 O 400.414 1.95236 -1.8476 0
M  V30 4369 C 398.685 0.157056 -3.57055 0
M  V30 4370 S 400.244 0.646875 -4.34006 0
M  V30 4371 H 397.062 -0.00500662 -0.710982 0
M  V30 4372 H 399.664 -0.69243 -1.82827 0
M  V30 4373 H 398.368 -0.799412 -4.02539 0
M  V30 4374 H 397.899 0.896704 -3.83044 0
M  V30 4375 H 399.914 1.91381 -4.57808 0
M  V30 4376 N 399.087 1.5561 -0.249682 0
M  V30 4377 C 400.336 1.98187 0.37479 0
M  V30 4378 C 400.649 1.14111 1.58865 0
M  V30 4379 O 401.855 1.46714 2.28445 0
M  V30 4380 C 400.311 3.52661 0.718192 0
M  V30 4381 C 399.919 4.45481 -0.474428 0
M  V30 4382 C 401.663 4.03888 1.3067 0
M  V30 4383 C 399.57 5.91303 -0.107026 0
M  V30 4384 H 398.5 0.740159 0.143808 0
M  V30 4385 H 401.151 1.80125 -0.350336 0
M  V30 4386 H 399.533 3.66429 1.50152 0
M  V30 4387 H 400.707 4.43473 -1.25172 0
M  V30 4388 H 399.022 4.04751 -0.978052 0
M  V30 4389 H 401.619 5.10358 1.59496 0
M  V30 4390 H 401.962 3.51401 2.23211 0
M  V30 4391 H 402.495 3.93457 0.586211 0
M  V30 4392 H 399.234 6.47833 -0.999642 0
M  V30 4393 H 398.754 5.9644 0.634013 0
M  V30 4394 H 400.433 6.46258 0.309807 0
M  V30 4395 N 400.565 -0.0233959 1.57583 0
M  V30 4396 C 401.497 -1.04994 2.03737 0
M  V30 4397 C 402.51 -1.32125 0.951152 0
M  V30 4398 O 403.699 -1.29512 1.22837 0
M  V30 4399 C 400.799 -2.39026 2.40249 0
M  V30 4400 C 399.972 -2.31171 3.7132 0
M  V30 4401 C 399.031 -3.47698 3.94959 0
M  V30 4402 O 398.057 -3.26937 4.65941 0
M  V30 4403 N 399.259 -4.6976 3.41037 0
M  V30 4404 H 402.024 -0.656507 2.92421 0
M  V30 4405 H 399.585 -0.211235 1.60516 0
M  V30 4406 H 401.577 -3.15712 2.53196 0
M  V30 4407 H 400.147 -2.70194 1.57207 0
M  V30 4408 H 399.367 -1.39547 3.68674 0
M  V30 4409 H 400.655 -2.23071 4.57293 0
M  V30 4410 H 400.053 -4.89528 2.83512 0
M  V30 4411 H 398.61 -5.43791 3.59353 0
M  V30 4412 N 402.043 -1.548 -0.295768 0
M  V30 4413 C 402.99 -1.86113 -1.36494 0
M  V30 4414 C 403.96 -0.7105 -1.50137 0
M  V30 4415 O 405.145 -0.959626 -1.64912 0
M  V30 4416 C 402.285 -2.11861 -2.72413 0
M  V30 4417 C 401.398 -3.39471 -2.67177 0
M  V30 4418 C 400.533 -3.55035 -3.95125 0
M  V30 4419 C 399.572 -4.76418 -3.84308 0
M  V30 4420 N 398.709 -4.8876 -5.04042 0
M  V30 4421 H 403.549 -2.77314 -1.09091 0
M  V30 4422 H 401.086 -1.37315 -0.52753 0
M  V30 4423 H 403.044 -2.24786 -3.51464 0
M  V30 4424 H 401.674 -1.2392 -2.98066 0
M  V30 4425 H 400.726 -3.35139 -1.79962 0
M  V30 4426 H 402.038 -4.28646 -2.55076 0
M  V30 4427 H 401.192 -3.67653 -4.82614 0
M  V30 4428 H 399.931 -2.64002 -4.10066 0
M  V30 4429 H 398.936 -4.63827 -2.95202 0
M  V30 4430 H 400.161 -5.68863 -3.70906 0
M  V30 4431 H 398.107 -4.00652 -5.19436 0
M  V30 4432 H 398.024 -5.71945 -4.94384 0
M  V30 4433 H 399.292 -5.0574 -5.93167 0
M  V30 4434 N 403.521 0.559213 -1.47345 0
M  V30 4435 C 404.77 1.31281 -1.53128 0
M  V30 4436 C 405.083 1.94602 -0.197344 0
M  V30 4437 O 406.289 2.71173 -0.133154 0
M  V30 4438 C 404.745 2.38051 -2.69925 0
M  V30 4439 C 404.353 1.8093 -4.0984 0
M  V30 4440 C 406.097 3.14604 -2.84999 0
M  V30 4441 C 404.004 2.85468 -5.1794 0
M  V30 4442 H 402.934 0.493614 -0.569966 0
M  V30 4443 H 405.585 0.594155 -1.73615 0
M  V30 4444 H 403.967 3.12822 -2.42814 0
M  V30 4445 H 405.141 1.12544 -4.46845 0
M  V30 4446 H 403.456 1.16967 -3.99634 0
M  V30 4447 H 406.053 3.92666 -3.62929 0
M  V30 4448 H 406.396 3.68665 -1.93369 0
M  V30 4449 H 406.929 2.46945 -3.1187 0
M  V30 4450 H 403.668 2.36264 -6.1144 0
M  V30 4451 H 403.188 3.52269 -4.85455 0
M  V30 4452 H 404.867 3.48996 -5.44803 0
M  V30 4453 N 404.999 1.35443 0.805782 0
M  V30 4454 C 406.229 1.31687 1.59192 0
M  V30 4455 C 406.637 -0.10756 1.88894 0
M  V30 4456 O 405.98 -1.07017 1.49309 0
M  V30 4457 C 406.042 2.05686 2.94845 0
M  V30 4458 C 405.706 3.54868 2.87954 0
M  V30 4459 C 406.703 4.49444 2.61335 0
M  V30 4460 C 404.388 3.97528 3.07046 0
M  V30 4461 C 406.382 5.84655 2.53885 0
M  V30 4462 C 404.069 5.32833 2.99219 0
M  V30 4463 C 405.067 6.26209 2.72674 0
M  V30 4464 O 404.755 7.59032 2.64811 0
M  V30 4465 H 404.487 0.453878 0.50097 0
M  V30 4466 H 407.041 1.78892 1.0093 0
M  V30 4467 H 405.271 1.5312 3.55093 0
M  V30 4468 H 406.96 1.94998 3.55993 0
M  V30 4469 H 407.726 4.17804 2.46303 0
M  V30 4470 H 403.605 3.25233 3.26718 0
M  V30 4471 H 407.149 6.57508 2.33086 0
M  V30 4472 H 403.046 5.64087 3.13809 0
M  V30 4473 H 403.814 7.68967 2.80413 0
M  V30 4474 N 406.477 -1.02803 1.19454 0
M  V30 4475 C 407.409 -2.11181 0.890807 0
M  V30 4476 C 408.422 -1.6238 -0.116829 0
M  V30 4477 O 409.611 -1.78144 0.112694 0
M  V30 4478 C 406.711 -3.37461 0.311942 0
M  V30 4479 C 405.884 -4.15446 1.36834 0
M  V30 4480 C 404.943 -5.20039 0.802864 0
M  V30 4481 O 403.969 -5.49602 1.48077 0
M  V30 4482 N 405.171 -5.79165 -0.393417 0
M  V30 4483 H 407.936 -2.37827 1.82369 0
M  V30 4484 H 405.497 -1.19101 1.09666 0
M  V30 4485 H 407.489 -4.0462 -0.0802225 0
M  V30 4486 H 406.059 -3.08156 -0.52524 0
M  V30 4487 H 405.279 -3.43423 1.93531 0
M  V30 4488 H 406.567 -4.64335 2.08015 0
M  V30 4489 H 405.965 -5.57466 -0.961658 0
M  V30 4490 H 404.522 -6.47729 -0.727351 0
M  V30 4491 N 407.956 -0.998596 -1.21925 0
M  V30 4492 C 408.866 -0.562736 -2.27751 0
M  V30 4493 C 409.882 0.391203 -1.69545 0
M  V30 4494 O 411.058 0.256625 -1.99758 0
M  V30 4495 C 408.123 0.11012 -3.46525 0
M  V30 4496 C 407.184 -0.887495 -4.20026 0
M  V30 4497 C 406.417 -0.246654 -5.3313 0
M  V30 4498 O 406.64 0.958088 -5.62296 0
M  V30 4499 O 405.574 -0.954374 -5.94286 0
M  V30 4500 H 409.4 -1.44329 -2.67213 0
M  V30 4501 H 406.985 -0.767135 -1.28201 0
M  V30 4502 H 408.867 0.486756 -4.18579 0
M  V30 4503 H 407.542 0.965154 -3.08976 0
M  V30 4504 H 406.449 -1.31517 -3.5022 0
M  V30 4505 H 407.782 -1.71191 -4.6147 0
M  V30 4506 N 409.434 1.37368 -0.772513 0
M  V30 4507 C 410.364 2.32856 -0.173304 0
M  V30 4508 C 411.345 1.55818 0.682262 0
M  V30 4509 O 412.53 1.84052 0.619566 0
M  V30 4510 C 409.66 3.40048 0.706007 0
M  V30 4511 C 408.614 4.27973 -0.0483144 0
M  V30 4512 C 407.94 5.26184 0.950491 0
M  V30 4513 C 409.24 5.07665 -1.22776 0
M  V30 4514 H 410.934 2.83217 -0.971002 0
M  V30 4515 H 408.48 1.3617 -0.468377 0
M  V30 4516 H 410.433 4.05827 1.13501 0
M  V30 4517 H 409.157 2.88214 1.53623 0
M  V30 4518 H 407.816 3.63726 -0.458107 0
M  V30 4519 H 407.464 4.7063 1.77529 0
M  V30 4520 H 407.164 5.85872 0.450314 0
M  V30 4521 H 408.688 5.94838 1.37842 0
M  V30 4522 H 410.102 5.66578 -0.875366 0
M  V30 4523 H 408.499 5.76681 -1.66007 0
M  V30 4524 H 409.569 4.40294 -2.03149 0
M  V30 4525 N 410.912 0.523116 1.48665 0
M  V30 4526 C 411.875 -0.232592 2.28017 0
M  V30 4527 C 412.875 -0.874021 1.34972 0
M  V30 4528 O 414.065 -0.735132 1.57929 0
M  V30 4529 C 411.197 -1.33586 3.13636 0
M  V30 4530 H 412.39 0.464008 2.96289 0
M  V30 4531 H 409.943 0.278816 1.53793 0
M  V30 4532 H 410.678 -2.06593 2.4998 0
M  V30 4533 H 410.463 -0.881125 3.82071 0
M  V30 4534 H 411.953 -1.86759 3.73511 0
M  V30 4535 N 412.39 -1.55475 0.257931 0
M  V30 4536 C 413.637 -1.99207 -0.363728 0
M  V30 4537 C 413.965 -1.1462 -1.57139 0
M  V30 4538 O 413.22 -0.199653 -1.94679 0
M  V30 4539 C 413.519 -3.48183 -0.806433 0
M  V30 4540 C 413.185 -4.49936 0.294684 0
M  V30 4541 C 411.847 -4.77481 0.597076 0
M  V30 4542 C 414.199 -5.10769 1.03751 0
M  V30 4543 C 411.527 -5.63132 1.64618 0
M  V30 4544 C 413.879 -5.97558 2.07622 0
M  V30 4545 C 412.543 -6.23432 2.38514 0
M  V30 4546 H 411.813 -0.728949 -0.133097 0
M  V30 4547 H 414.46 -1.8793 0.368059 0
M  V30 4548 H 412.765 -3.56848 -1.61761 0
M  V30 4549 H 414.462 -3.79415 -1.29789 0
M  V30 4550 H 411.052 -4.28572 0.0488649 0
M  V30 4551 H 415.236 -4.89527 0.817149 0
M  V30 4552 H 410.492 -5.8143 1.89074 0
M  V30 4553 H 414.666 -6.43735 2.65666 0
M  V30 4554 H 412.293 -6.89594 3.19943 0
M  V30 4555 N 413.868 0.0150385 -1.57593 0
M  V30 4556 C 415.093 0.718067 -1.94573 0
M  V30 4557 C 415.518 1.6734 -0.859005 0
M  V30 4558 O 414.876 1.80362 0.184147 0
M  V30 4559 C 414.924 1.43918 -3.30636 0
M  V30 4560 O 414.028 2.55299 -3.23876 0
M  V30 4561 H 413.369 0.192125 -0.635597 0
M  V30 4562 H 415.899 -0.0336708 -2.04572 0
M  V30 4563 H 415.909 1.80598 -3.65853 0
M  V30 4564 H 414.584 0.738619 -4.09289 0
M  V30 4565 H 413.161 2.21058 -3.00312 0
M  V30 4566 N 415.346 1.54954 0.287554 0
M  V30 4567 C 416.762 1.46469 0.633964 0
M  V30 4568 C 416.962 0.666865 1.90145 0
M  V30 4569 O 416.018 0.179906 2.51858 0
M  V30 4570 C 417.331 2.90556 0.774454 0
M  V30 4571 C 418.879 3.00681 0.869462 0
M  V30 4572 C 419.354 4.45993 1.04184 0
M  V30 4573 N 420.845 4.4976 1.10772 0
M  V30 4574 C 421.58 5.59393 1.25964 0
M  V30 4575 N 421.076 6.78923 1.37968 0
M  V30 4576 N 422.869 5.47107 1.28959 0
M  V30 4577 H 415.02 2.05288 -0.545041 0
M  V30 4578 H 417.283 0.930305 -0.182308 0
M  V30 4579 H 416.989 3.51594 -0.086207 0
M  V30 4580 H 416.863 3.38743 1.6593 0
M  V30 4581 H 419.25 2.39749 1.7206 0
M  V30 4582 H 419.331 2.55769 -0.0396831 0
M  V30 4583 H 418.975 5.07524 0.195422 0
M  V30 4584 H 418.905 4.88548 1.96542 0
M  V30 4585 H 421.396 3.63651 1.02794 0
M  V30 4586 H 421.709 7.58231 1.49353 0
M  V30 4587 H 420.054 6.81763 1.34999 0
M  V30 4588 H 423.245 4.52668 1.19202 0
M  V30 4589 H 423.418 6.32595 1.40455 0
M  V30 4590 N 416.824 -0.551391 1.4764 0
M  V30 4591 C 418.235 -1.13349 1.48354 0
M  V30 4592 C 418.586 -1.94709 0.241432 0
M  V30 4593 O 417.711 -2.06306 -0.653205 0
M  V30 4594 C 418.306 -2.0623 2.68802 0
M  V30 4595 C 416.865 -2.597 2.72457 0
M  V30 4596 C 416.012 -1.36201 2.41546 0
M  V30 4597 H 418.963 -0.337698 1.55065 0
M  V30 4598 H 418.984 -2.90196 2.46103 0
M  V30 4599 H 418.496 -1.46987 3.59188 0
M  V30 4600 H 416.597 -3.22724 1.86225 0
M  V30 4601 H 416.71 -3.00296 3.73308 0
M  V30 4602 H 415.074 -1.67068 1.9225 0
M  V30 4603 H 415.857 -0.787425 3.34147 0
M  V30 4604 N 418.302 -1.35869 -0.798587 0
M  V30 4605 C 419.234 -1.25305 -1.91915 0
M  V30 4606 C 420.247 -0.174548 -1.61862 0
M  V30 4607 O 421.436 -0.428499 -1.73281 0
M  V30 4608 C 418.536 -0.9086 -3.26493 0
M  V30 4609 C 417.709 -2.08711 -3.84394 0
M  V30 4610 C 416.768 -1.71717 -4.97393 0
M  V30 4611 O 415.794 -2.43692 -5.14396 0
M  V30 4612 N 416.996 -0.645473 -5.769 0
M  V30 4613 H 419.761 -2.21849 -2.01502 0
M  V30 4614 H 417.322 -1.29143 -0.976408 0
M  V30 4615 H 419.314 -0.642455 -3.99568 0
M  V30 4616 H 417.884 -0.0325815 -3.12583 0
M  V30 4617 H 417.104 -2.51659 -3.03416 0
M  V30 4618 H 418.392 -2.87468 -4.19809 0
M  V30 4619 H 417.79 -0.047648 -5.6568 0
M  V30 4620 H 416.347 -0.43913 -6.50319 0
M  V30 4621 N 419.78 1.02168 -1.19998 0
M  V30 4622 C 420.712 2.10705 -0.901994 0
M  V30 4623 C 421.725 1.6244 0.108216 0
M  V30 4624 O 422.914 1.78082 -0.12214 0
M  V30 4625 C 420.014 3.37291 -0.329834 0
M  V30 4626 C 419.187 4.14714 -1.39035 0
M  V30 4627 C 418.246 5.19606 -0.830432 0
M  V30 4628 O 417.272 5.48809 -1.50989 0
M  V30 4629 N 418.474 5.79366 0.362696 0
M  V30 4630 H 421.239 2.36856 -1.83628 0
M  V30 4631 H 418.8 1.18518 -1.10296 0
M  V30 4632 H 420.792 4.04657 0.0587633 0
M  V30 4633 H 419.362 3.0843 0.508891 0
M  V30 4634 H 418.582 3.42392 -1.9535 0
M  V30 4635 H 419.87 4.63226 -2.10474 0
M  V30 4636 H 419.268 5.57968 0.932081 0
M  V30 4637 H 417.825 6.48106 0.69299 0
M  V30 4638 N 421.258 1.00505 1.21394 0
M  V30 4639 C 422.488 0.705584 1.94178 0
M  V30 4640 C 422.896 -0.735846 1.74304 0
M  V30 4641 O 422.239 -1.50954 1.04683 0
M  V30 4642 C 422.301 0.94689 3.46806 0
M  V30 4643 C 421.965 2.37517 3.90429 0
M  V30 4644 C 422.962 3.35539 3.97127 0
M  V30 4645 C 420.647 2.71284 4.22742 0
M  V30 4646 C 422.641 4.65395 4.3553 0
M  V30 4647 C 420.328 4.01356 4.60822 0
M  V30 4648 C 421.326 4.98223 4.67186 0
M  V30 4649 O 421.014 6.25969 5.04399 0
M  V30 4650 H 420.746 0.259216 0.624326 0
M  V30 4651 H 423.3 1.34592 1.55159 0
M  V30 4652 H 421.53 0.249386 3.85895 0
M  V30 4653 H 423.219 0.640804 4.0081 0
M  V30 4654 H 423.985 3.10786 3.7234 0
M  V30 4655 H 419.864 1.96581 4.16985 0
M  V30 4656 H 423.408 5.41002 4.40412 0
M  V30 4657 H 419.305 4.25893 4.85063 0
M  V30 4658 H 420.073 6.30085 5.22431 0
M  V30 4659 N 422.737 -1.36956 0.779787 0
M  V30 4660 C 423.965 -2.03755 0.359398 0
M  V30 4661 C 424.38 -1.58807 -1.02106 0
M  V30 4662 O 423.737 -0.773024 -1.6532 0
M  V30 4663 C 423.788 -3.59251 0.402568 0
M  V30 4664 O 423.509 -4.02557 1.72858 0
M  V30 4665 C 425.01 -4.43291 -0.0284068 0
M  V30 4666 H 422.23 -0.654148 0.149437 0
M  V30 4667 H 424.774 -1.75128 1.05595 0
M  V30 4668 H 422.929 -3.86621 -0.245478 0
M  V30 4669 H 423.343 -4.97111 1.67275 0
M  V30 4670 H 424.817 -5.51975 0.0529466 0
M  V30 4671 H 425.294 -4.25719 -1.07982 0
M  V30 4672 H 425.9 -4.21163 0.591758 0
M  V30 4673 N 424.215 -0.530993 -1.48385 0
M  V30 4674 C 425.44 0.000729535 -2.074 0
M  V30 4675 C 425.865 1.27298 -1.3848 0
M  V30 4676 O 425.223 1.75599 -0.451081 0
M  V30 4677 C 425.271 0.206697 -3.60007 0
M  V30 4678 O 424.375 1.27514 -3.92191 0
M  V30 4679 H 423.716 -0.039583 -0.662819 0
M  V30 4680 H 426.246 -0.739194 -1.9078 0
M  V30 4681 H 426.256 0.42904 -4.05738 0
M  V30 4682 H 424.931 -0.722675 -4.09573 0
M  V30 4683 H 423.508 1.03537 -3.58238 0
M  V30 4684 N 425.693 1.55336 -0.266172 0
M  V30 4685 C 426.942 1.98574 0.353749 0
M  V30 4686 C 427.255 1.15789 1.57646 0
M  V30 4687 O 428.461 1.49129 2.26876 0
M  V30 4688 C 426.917 3.53403 0.680747 0
M  V30 4689 C 426.525 4.44953 -0.52165 0
M  V30 4690 C 428.269 4.05251 1.26379 0
M  V30 4691 C 426.176 5.91156 -0.169736 0
M  V30 4692 H 425.106 0.741643 0.135949 0
M  V30 4693 H 427.757 1.79743 -0.369421 0
M  V30 4694 H 426.139 3.68001 1.46257 0
M  V30 4695 H 427.313 4.42121 -1.29869 0
M  V30 4696 H 425.628 4.03691 -1.02093 0
M  V30 4697 H 428.225 5.12021 1.54074 0
M  V30 4698 H 428.568 3.53749 2.19471 0
M  V30 4699 H 429.101 3.94057 0.544447 0
M  V30 4700 H 425.84 6.46736 -1.0683 0
M  V30 4701 H 425.36 5.97079 0.570717 0
M  V30 4702 H 427.039 6.4655 0.241245 0
M  V30 4703 N 427.171 -0.0066808 1.57599 0
M  V30 4704 C 428.417 -0.693947 1.90558 0
M  V30 4705 C 428.75 -1.73792 0.866594 0
M  V30 4706 O 428.025 -1.94156 -0.115548 0
M  V30 4707 C 428.308 -1.34317 3.34112 0
M  V30 4708 C 428.161 -0.311189 4.48722 0
M  V30 4709 C 429.48 -2.27116 3.7697 0
M  V30 4710 H 426.599 -0.250803 0.693013 0
M  V30 4711 H 429.241 0.043242 1.89951 0
M  V30 4712 H 427.391 -1.9715 3.3476 0
M  V30 4713 H 429.063 0.316944 4.6021 0
M  V30 4714 H 427.306 0.367253 4.32243 0
M  V30 4715 H 427.977 -0.804366 5.46108 0
M  V30 4716 H 430.453 -1.74306 3.77831 0
M  V30 4717 H 429.329 -2.69511 4.78179 0
M  V30 4718 H 429.59 -3.14743 3.10466 0
M  V30 4719 N 428.649 -1.55105 -0.279332 0
M  V30 4720 C 429.612 -1.86783 -1.32834 0
M  V30 4721 C 430.612 -0.74199 -1.42657 0
M  V30 4722 O 431.802 -1.0102 -1.41918 0
M  V30 4723 C 428.934 -2.06746 -2.71052 0
M  V30 4724 H 430.127 -2.8055 -1.05979 0
M  V30 4725 H 427.68 -1.47499 -0.517087 0
M  V30 4726 H 428.415 -1.15339 -3.03097 0
M  V30 4727 H 428.2 -2.88711 -2.65309 0
M  V30 4728 H 429.69 -2.32549 -3.46858 0
M  V30 4729 N 430.127 0.543554 -1.4793 0
M  V30 4730 C 431.037 1.67657 -1.64098 0
M  V30 4731 C 432.053 1.65934 -0.523622 0
M  V30 4732 O 433.229 1.85133 -0.792943 0
M  V30 4733 C 430.294 3.04146 -1.66421 0
M  V30 4734 C 429.355 3.16831 -2.89684 0
M  V30 4735 C 428.588 4.46809 -2.91886 0
M  V30 4736 O 428.811 5.33095 -2.02895 0
M  V30 4737 O 427.745 4.63573 -3.83906 0
M  V30 4738 H 431.571 1.56957 -2.59997 0
M  V30 4739 H 429.156 0.715116 -1.31173 0
M  V30 4740 H 431.038 3.85346 -1.70548 0
M  V30 4741 H 429.713 3.152 -0.736923 0
M  V30 4742 H 428.62 2.34977 -2.91095 0
M  V30 4743 H 429.953 3.10687 -3.81752 0
M  V30 4744 N 431.605 1.3629 0.791371 0
M  V30 4745 C 432.535 1.33137 1.91825 0
M  V30 4746 C 433.516 0.203168 1.68882 0
M  V30 4747 O 434.701 0.400509 1.90025 0
M  V30 4748 C 431.831 1.11793 3.28816 0
M  V30 4749 C 430.785 2.21417 3.66277 0
M  V30 4750 C 430.111 1.85218 5.01596 0
M  V30 4751 C 431.411 3.63489 3.75064 0
M  V30 4752 H 433.105 2.2743 1.9472 0
M  V30 4753 H 430.651 1.09479 0.935437 0
M  V30 4754 H 432.604 1.08222 4.07266 0
M  V30 4755 H 431.328 0.139501 3.26302 0
M  V30 4756 H 429.987 2.2411 2.90121 0
M  V30 4757 H 429.635 0.859544 4.95602 0
M  V30 4758 H 429.335 2.58611 5.27631 0
M  V30 4759 H 430.859 1.832 5.82469 0
M  V30 4760 H 432.273 3.63034 4.43711 0
M  V30 4761 H 430.67 4.35771 4.12582 0
M  V30 4762 H 431.74 3.98536 2.76219 0
M  V30 4763 N 433.083 -1.0153 1.20538 0
M  V30 4764 C 434.013 -2.11972 0.979295 0
M  V30 4765 C 434.994 -1.6985 -0.0921787 0
M  V30 4766 O 436.179 -1.94089 0.0655932 0
M  V30 4767 C 433.309 -3.43201 0.531984 0
M  V30 4768 C 432.263 -3.9907 1.54685 0
M  V30 4769 C 431.589 -5.26082 0.956127 0
M  V30 4770 C 432.889 -4.32313 2.93092 0
M  V30 4771 H 434.583 -2.31143 1.90298 0
M  V30 4772 H 432.129 -1.11079 0.916372 0
M  V30 4773 H 434.082 -4.1985 0.361044 0
M  V30 4774 H 432.806 -3.23792 -0.427327 0
M  V30 4775 H 431.465 -3.2453 1.70517 0
M  V30 4776 H 431.113 -5.02999 -0.0111538 0
M  V30 4777 H 430.813 -5.64426 1.63393 0
M  V30 4778 H 432.337 -6.05386 0.796284 0
M  V30 4779 H 433.751 -4.99845 2.80763 0
M  V30 4780 H 432.148 -4.81774 3.57791 0
M  V30 4781 H 433.218 -3.41025 3.44717 0
M  V30 4782 N 434.561 -1.01147 -1.20859 0
M  V30 4783 C 435.491 -0.597663 -2.25722 0
M  V30 4784 C 436.472 0.384744 -1.65692 0
M  V30 4785 O 437.657 0.271303 -1.92296 0
M  V30 4786 C 434.787 0.0700149 -3.47229 0
M  V30 4787 C 433.741 -0.832843 -4.19819 0
M  V30 4788 C 433.067 -0.0312202 -5.34691 0
M  V30 4789 C 434.367 -2.1385 -4.76514 0
M  V30 4790 H 436.061 -1.47423 -2.60589 0
M  V30 4791 H 433.607 -0.710301 -1.25263 0
M  V30 4792 H 435.56 0.37103 -4.19763 0
M  V30 4793 H 434.284 0.981259 -3.11511 0
M  V30 4794 H 432.943 -1.11778 -3.49144 0
M  V30 4795 H 432.591 0.881515 -4.95215 0
M  V30 4796 H 432.291 -0.632434 -5.84187 0
M  V30 4797 H 433.815 0.26346 -6.10031 0
M  V30 4798 H 435.229 -1.9002 -5.40893 0
M  V30 4799 H 433.626 -2.69012 -5.36426 0
M  V30 4800 H 434.696 -2.80495 -3.95538 0
M  V30 4801 N 436.039 1.36541 -0.78704 0
M  V30 4802 C 436.987 2.31965 -0.171724 0
M  V30 4803 C 437.981 1.55689 0.667631 0
M  V30 4804 O 439.187 1.70969 0.562981 0
M  V30 4805 H 435.562 0.751101 -0.0367545 0
M  V30 4806 H 437.533 2.81428 -0.992017 0
M  V30 4807 C 436.282 3.40968 0.680904 0
M  V30 4808 H 435.605 3.99775 0.0443961 0
M  V30 4809 H 437.045 4.10063 1.07815 0
M  V30 4810 C 435.504 2.82338 1.83813 0
M  V30 4811 O 436.034 2.74311 2.93456 0
M  V30 4812 N 434.24 2.39661 1.6435 0
M  V30 4813 H 433.787 2.46389 0.751668 0
M  V30 4814 H 433.745 2.00779 2.4194 0
M  V30 4815 N 437.518 0.538854 1.48102 0
M  V30 4816 C 438.481 -0.208395 2.28251 0
M  V30 4817 C 439.481 -0.859656 1.35892 0
M  V30 4818 O 440.671 -0.71834 1.58699 0
M  V30 4819 C 437.803 -1.30252 3.15035 0
M  V30 4820 H 438.996 0.495407 2.9578 0
M  V30 4821 H 436.549 0.295112 1.53489 0
M  V30 4822 H 437.284 -2.0393 2.52157 0
M  V30 4823 H 437.069 -0.840551 3.82985 0
M  V30 4824 H 438.559 -1.82787 3.75471 0
M  V30 4825 N 438.996 -1.55193 0.274407 0
M  V30 4826 C 439.906 -2.26164 -0.623473 0
M  V30 4827 C 440.922 -1.28729 -1.17068 0
M  V30 4828 O 442.098 -1.61663 -1.20112 0
M  V30 4829 C 439.163 -2.96833 -1.7914 0
M  V30 4830 C 438.224 -4.09745 -1.28093 0
M  V30 4831 C 437.457 -4.77034 -2.3932 0
M  V30 4832 O 437.68 -4.4353 -3.5866 0
M  V30 4833 O 436.614 -5.64996 -2.07516 0
M  V30 4834 H 440.44 -3.03661 -0.0485661 0
M  V30 4835 H 438.025 -1.49341 0.0418382 0
M  V30 4836 H 439.907 -3.41248 -2.4724 0
M  V30 4837 H 438.582 -2.22253 -2.35341 0
M  V30 4838 H 437.489 -3.69787 -0.566416 0
M  V30 4839 H 438.822 -4.86224 -0.764683 0
M  V30 4840 N 440.474 -0.00167713 -1.576 0
M  V30 4841 C 441.404 0.988091 -2.11563 0
M  V30 4842 C 442.385 1.35736 -1.02517 0
M  V30 4843 O 443.57 1.44082 -1.30208 0
M  V30 4844 C 440.7 2.27941 -2.62031 0
M  V30 4845 C 439.654 2.0517 -3.75619 0
M  V30 4846 C 438.98 3.4033 -4.12407 0
M  V30 4847 C 440.28 1.41294 -5.02825 0
M  V30 4848 H 441.974 0.538771 -2.94513 0
M  V30 4849 H 439.52 0.257712 -1.41675 0
M  V30 4850 H 441.473 2.97539 -2.9841 0
M  V30 4851 H 440.197 2.74989 -1.76205 0
M  V30 4852 H 438.856 1.37998 -3.39635 0
M  V30 4853 H 438.504 3.85085 -3.23603 0
M  V30 4854 H 438.204 3.25909 -4.88935 0
M  V30 4855 H 439.728 4.1124 -4.51347 0
M  V30 4856 H 441.142 2.00851 -5.36965 0
M  V30 4857 H 439.539 1.37356 -5.84169 0
M  V30 4858 H 440.609 0.382362 -4.8339 0
M  V30 4859 N 441.952 1.55251 0.271103 0
M  V30 4860 C 443.177 1.80306 1.02491 0
M  V30 4861 C 443.602 0.575457 1.79081 0
M  V30 4862 O 442.96 -0.474987 1.74967 0
M  V30 4863 C 443.008 3.02832 1.95768 0
M  V30 4864 O 442.112 2.78051 3.04568 0
M  V30 4865 H 441.453 0.595896 0.292923 0
M  V30 4866 H 443.983 2.02397 0.299436 0
M  V30 4867 H 443.993 3.31616 2.37686 0
M  V30 4868 H 442.668 3.9183 1.39434 0
M  V30 4869 H 441.245 2.60369 2.66951 0
M  V30 4870 N 443.43 -0.535701 1.48216 0
M  V30 4871 C 444.841 -1.11769 1.49548 0
M  V30 4872 C 445.192 -1.94442 0.26207 0
M  V30 4873 O 444.317 -2.06987 -0.631287 0
M  V30 4874 C 444.912 -2.03367 2.70975 0
M  V30 4875 C 443.471 -2.56795 2.75196 0
M  V30 4876 C 442.618 -1.33631 2.42977 0
M  V30 4877 H 445.569 -0.321232 1.55415 0
M  V30 4878 H 445.59 -2.87569 2.49167 0
M  V30 4879 H 445.102 -1.43169 3.60727 0
M  V30 4880 H 443.203 -3.20731 1.89638 0
M  V30 4881 H 443.316 -2.9632 3.76472 0
M  V30 4882 H 441.68 -1.6502 1.94012 0
M  V30 4883 H 442.463 -0.75194 3.34964 0
M  V30 4884 N 444.908 -1.36708 -0.784132 0
M  V30 4885 C 446.185 -1.21776 -1.53069 0
M  V30 4886 C 446.565 0.193876 -2.10208 0
M  V30 4887 O 445.913 1.20012 -1.94446 0
M  V30 4888 C 446.123 -2.30395 -2.62143 0
M  V30 4889 C 447.471 -2.67325 -3.29882 0
M  V30 4890 O 448.495 -2.29478 -2.7243 0
M  V30 4891 O 447.354 -3.32485 -4.33724 0
M  V30 4892 H 444.448 -0.474459 -0.677361 0
M  V30 4893 H 446.994 -1.48454 -0.82216 0
M  V30 4894 H 445.766 -3.2498 -2.17953 0
M  V30 4895 H 445.389 -2.05112 -3.40609 0
M  V30 4896 N 446.386 1.0089 -1.21074 0
M  V30 4897 C 447.349 2.0775 -0.968129 0
M  V30 4898 C 448.349 1.6069 0.0593445 0
M  V30 4899 O 449.539 1.73293 -0.177525 0
M  V30 4900 C 446.671 3.37794 -0.459108 0
M  V30 4901 H 447.864 2.30707 -1.9161 0
M  V30 4902 H 445.417 1.17807 -1.02719 0
M  V30 4903 H 446.152 3.20516 0.49397 0
M  V30 4904 H 445.937 3.7328 -1.20019 0
M  V30 4905 H 447.427 4.16454 -0.309099 0
M  V30 4906 N 447.864 1.01787 1.20321 0
M  V30 4907 C 449.113 0.703249 1.89043 0
M  V30 4908 C 449.426 -0.770445 1.79787 0
M  V30 4909 O 450.632 -1.19767 2.43656 0
M  V30 4910 C 449.088 1.20749 3.3904 0
M  V30 4911 C 448.696 2.70817 3.56878 0
M  V30 4912 C 450.44 0.968352 4.13308 0
M  V30 4913 C 448.347 3.14716 5.00708 0
M  V30 4914 H 447.277 0.259354 0.707991 0
M  V30 4915 H 449.928 1.23072 1.36108 0
M  V30 4916 H 448.31 0.607989 3.91305 0
M  V30 4917 H 449.484 3.36327 3.14993 0
M  V30 4918 H 447.799 2.92888 2.95983 0
M  V30 4919 H 450.396 1.27173 5.19356 0
M  V30 4920 H 450.739 -0.095149 4.16191 0
M  V30 4921 H 451.272 1.53129 3.67146 0
M  V30 4922 H 448.011 4.20347 5.02979 0
M  V30 4923 H 447.531 2.53927 5.43398 0
M  V30 4924 H 449.21 3.07426 5.69296 0
M  V30 4925 N 449.342 -1.36122 0.79427 0
M  V30 4926 C 450.289 -2.29982 0.194101 0
M  V30 4927 C 451.259 -1.52214 -0.664833 0
M  V30 4928 O 452.444 -1.80702 -0.612498 0
M  V30 4929 C 449.584 -3.38706 -0.661244 0
M  V30 4930 C 448.697 -4.31456 0.216766 0
M  V30 4931 C 447.832 -5.27265 -0.645411 0
M  V30 4932 C 446.871 -6.11653 0.233756 0
M  V30 4933 N 446.008 -6.99636 -0.587682 0
M  V30 4934 H 450.848 -2.80722 0.999965 0
M  V30 4935 H 448.385 -1.38172 0.504677 0
M  V30 4936 H 450.343 -4.00394 -1.17219 0
M  V30 4937 H 448.973 -2.89274 -1.43249 0
M  V30 4938 H 448.025 -3.7088 0.845724 0
M  V30 4939 H 449.337 -4.90724 0.893973 0
M  V30 4940 H 448.491 -5.94266 -1.22198 0
M  V30 4941 H 447.23 -4.68463 -1.35623 0
M  V30 4942 H 446.235 -5.4361 0.82269 0
M  V30 4943 H 447.46 -6.72531 0.942247 0
M  V30 4944 H 445.406 -6.43337 -1.2827 0
M  V30 4945 H 445.323 -7.55993 0.0317402 0
M  V30 4946 H 446.591 -7.71001 -1.14792 0
M  V30 4947 N 450.82 -0.546701 -1.47814 0
M  V30 4948 C 451.783 0.196287 -2.28358 0
M  V30 4949 C 452.783 0.852437 -1.36346 0
M  V30 4950 O 453.973 0.709913 -1.59078 0
M  V30 4951 C 451.105 1.28579 -3.15722 0
M  V30 4952 H 452.298 -0.511086 -2.95513 0
M  V30 4953 H 449.851 -0.303248 -1.5333 0
M  V30 4954 H 450.586 2.0259 -2.53235 0
M  V30 4955 H 450.371 0.820229 -3.83425 0
M  V30 4956 H 451.861 1.80793 -3.76435 0
M  V30 4957 N 452.299 1.55045 -0.282633 0
M  V30 4958 C 453.247 2.24254 0.617478 0
M  V30 4959 C 454.241 1.24215 1.15183 0
M  V30 4960 O 455.447 1.42123 1.10459 0
M  V30 4961 H 451.822 0.719801 0.217693 0
M  V30 4962 H 453.793 2.98398 0.0110076 0
M  V30 4963 C 452.542 2.98281 1.78672 0
M  V30 4964 H 451.865 3.75053 1.38475 0
M  V30 4965 H 453.305 3.50017 2.393 0
M  V30 4966 C 451.764 2.04184 2.67975 0
M  V30 4967 O 452.294 1.59792 3.6855 0
M  V30 4968 N 450.5 1.70526 2.35307 0
M  V30 4969 H 450.047 2.06821 1.53567 0
M  V30 4970 H 450.005 1.07839 2.95327 0
M  V30 4971 N 453.777 0.010035 1.57597 0
M  V30 4972 C 455.002 -0.687021 1.95691 0
M  V30 4973 C 455.427 -1.65952 0.885519 0
M  V30 4974 O 454.785 -1.80633 -0.15543 0
M  V30 4975 C 454.833 -1.3864 3.32884 0
M  V30 4976 O 453.937 -2.50115 3.27897 0
M  V30 4977 H 453.278 -0.181989 0.638573 0
M  V30 4978 H 455.808 0.0662122 2.04493 0
M  V30 4979 H 455.818 -1.74754 3.6868 0
M  V30 4980 H 454.493 -0.673411 4.10412 0
M  V30 4981 H 453.07 -2.16253 3.03791 0
M  V30 4982 N 455.255 -1.55392 -0.262866 0
M  V30 4983 C 456.188 -1.8391 -1.35101 0
M  V30 4984 C 457.166 -0.692901 -1.47097 0
M  V30 4985 O 458.35 -0.936979 -1.63563 0
M  V30 4986 C 455.477 -2.00969 -2.72634 0
M  V30 4987 C 454.523 -3.23559 -2.7787 0
M  V30 4988 S 455.356 -4.80647 -2.3609 0
M  V30 4989 C 456.512 -5.00692 -3.75578 0
M  V30 4990 H 456.745 -2.75918 -1.1071 0
M  V30 4991 H 454.278 -1.47294 -0.463029 0
M  V30 4992 H 456.236 -2.11482 -3.51832 0
M  V30 4993 H 454.897 -1.09832 -2.94272 0
M  V30 4994 H 454.09 -3.32413 -3.78837 0
M  V30 4995 H 453.692 -3.11689 -2.06702 0
M  V30 4996 H 455.984 -4.87055 -4.70939 0
M  V30 4997 H 456.927 -6.02717 -3.71669 0
M  V30 4998 H 457.335 -4.28619 -3.6735 0
M  V30 4999 N 456.733 0.527833 -1.48498 0
M  V30 5000 C 457.643 1.65907 -1.65867 0
M  V30 5001 C 458.659 1.6537 -0.541192 0
M  V30 5002 O 459.835 1.84282 -0.812534 0
M  V30 5003 C 456.9 3.02364 -1.69637 0
M  V30 5004 C 455.961 3.1374 -2.93028 0
M  V30 5005 C 455.194 4.43688 -2.96609 0
M  V30 5006 O 455.417 5.30913 -2.08538 0
M  V30 5007 O 454.351 4.59475 -3.88802 0
M  V30 5008 H 458.177 1.5419 -2.61647 0
M  V30 5009 H 455.762 0.701163 -1.31924 0
M  V30 5010 H 457.644 3.83515 -1.74625 0
M  V30 5011 H 456.319 3.14401 -0.770312 0
M  V30 5012 H 455.226 2.31877 -2.93571 0
M  V30 5013 H 456.559 3.06621 -3.85026 0
M  V30 5014 N 458.211 1.37122 0.776871 0
M  V30 5015 C 459.141 1.35164 1.90402 0
M  V30 5016 C 460.122 0.221069 1.68657 0
M  V30 5017 O 461.307 0.420642 1.8959 0
M  V30 5018 C 458.437 1.15274 3.27611 0
M  V30 5019 C 457.391 2.25289 3.63908 0
M  V30 5020 C 456.717 1.90527 4.99603 0
M  V30 5021 C 458.017 3.67446 3.71188 0
M  V30 5022 H 459.711 2.29482 1.92297 0
M  V30 5023 H 457.257 1.10465 0.923773 0
M  V30 5024 H 459.21 1.12536 4.06096 0
M  V30 5025 H 457.934 0.174102 3.26136 0
M  V30 5026 H 456.593 2.27174 2.87728 0
M  V30 5027 H 456.241 0.91206 4.94662 0
M  V30 5028 H 455.941 2.64193 5.24858 0
M  V30 5029 H 457.465 1.89367 5.80493 0
M  V30 5030 H 458.879 3.67719 4.39836 0
M  V30 5031 H 457.276 4.40123 4.07936 0
M  V30 5032 H 458.346 4.01443 2.71977 0
M  V30 5033 N 459.689 -1.00246 1.21608 0
M  V30 5034 C 460.917 -1.77631 1.06089 0
M  V30 5035 C 461.332 -1.84746 -0.38916 0
M  V30 5036 O 460.689 -1.31068 -1.26994 0
M  V30 5037 C 460.74 -3.21415 1.65453 0
M  V30 5038 O 460.461 -3.14703 3.04785 0
M  V30 5039 C 461.962 -4.15289 1.55079 0
M  V30 5040 H 459.182 -0.558162 0.37242 0
M  V30 5041 H 461.726 -1.26093 1.60999 0
M  V30 5042 H 459.881 -3.70053 1.14629 0
M  V30 5043 H 460.295 -4.05056 3.33212 0
M  V30 5044 H 461.769 -5.13965 2.01355 0
M  V30 5045 H 462.246 -4.36279 0.505665 0
M  V30 5046 H 462.852 -3.72543 2.05163 0
M  V30 5047 N 461.167 -1.02423 -1.1978 0
M  V30 5048 C 462.13 -0.605703 -2.21052 0
M  V30 5049 C 463.13 0.328209 -1.57415 0
M  V30 5050 O 464.32 0.115853 -1.73814 0
M  V30 5051 C 461.452 0.114366 -3.40708 0
M  V30 5052 H 462.645 -1.5017 -2.59594 0
M  V30 5053 H 460.198 -0.814888 -1.33376 0
M  V30 5054 H 460.933 1.02492 -3.07678 0
M  V30 5055 H 460.718 -0.556641 -3.88129 0
M  V30 5056 H 462.208 0.394272 -4.15735 0
M  V30 5057 N 462.645 1.35699 -0.801477 0
M  V30 5058 C 463.893 1.9852 -0.37871 0
M  V30 5059 C 464.214 1.63907 1.05638 0
M  V30 5060 O 463.484 0.919013 1.73006 0
M  V30 5061 H 462.064 0.734322 -0.137042 0
M  V30 5062 H 464.726 1.65697 -1.02619 0
M  V30 5063 H 463.822 3.08382 -0.480284 0
M  V30 5064 N 464.123 0.554532 1.47522 0
M  V30 5065 C 465.348 0.0322661 2.07375 0
M  V30 5066 C 465.773 -1.25079 1.40488 0
M  V30 5067 O 465.131 -1.74859 0.47896 0
M  V30 5068 C 465.179 -0.149397 3.6029 0
M  V30 5069 O 464.283 -1.21259 3.9417 0
M  V30 5070 H 463.624 0.0501228 0.662106 0
M  V30 5071 H 466.154 0.769452 1.8958 0
M  V30 5072 H 466.164 -0.364437 4.06369 0
M  V30 5073 H 464.839 0.787743 4.08372 0
M  V30 5074 H 463.416 -0.97825 3.5984 0
M  V30 5075 N 465.601 -1.54893 0.290851 0
M  V30 5076 C 466.847 -2.0023 -0.321867 0
M  V30 5077 C 467.18 -1.179 -1.54316 0
M  V30 5078 O 466.455 -0.25293 -1.92848 0
M  V30 5079 C 466.738 -3.53456 -0.688515 0
M  V30 5080 C 466.591 -4.46532 0.541209 0
M  V30 5081 C 467.91 -4.13057 -1.51895 0
M  V30 5082 H 465.029 -0.727891 -0.115515 0
M  V30 5083 H 467.671 -1.85722 0.400931 0
M  V30 5084 H 465.821 -3.6595 -1.30433 0
M  V30 5085 H 467.493 -4.4596 1.17973 0
M  V30 5086 H 465.736 -4.17545 1.17636 0
M  V30 5087 H 466.407 -5.51475 0.240675 0
M  V30 5088 H 468.883 -4.03937 -0.99872 0
M  V30 5089 H 467.759 -5.20448 -1.74429 0
M  V30 5090 H 468.02 -3.64284 -2.50498 0
M  V30 5091 N 467.08 -0.0183926 -1.57589 0
M  V30 5092 C 468.357 0.700621 -1.82622 0
M  V30 5093 C 468.737 1.90951 -0.90005 0
M  V30 5094 O 468.085 2.28452 0.0469145 0
M  V30 5095 C 468.295 1.08899 -3.31575 0
M  V30 5096 C 469.643 1.48514 -3.9778 0
M  V30 5097 O 470.667 1.18227 -3.36007 0
M  V30 5098 O 469.526 2.04903 -5.06633 0
M  V30 5099 H 466.62 0.342743 -0.752633 0
M  V30 5100 H 469.166 -0.0452548 -1.6964 0
M  V30 5101 H 467.938 0.228113 -3.90635 0
M  V30 5102 H 467.561 1.89338 -3.49624 0
M  V30 5103 N 468.558 1.5553 0.254621 0
M  V30 5104 C 469.786 1.81046 1.00149 0
M  V30 5105 C 470.201 0.593047 1.79244 0
M  V30 5106 O 469.558 -0.438196 1.77161 0
M  V30 5107 C 469.609 3.04684 1.94551 0
M  V30 5108 O 469.33 4.21725 1.18658 0
M  V30 5109 C 470.831 3.42943 2.80901 0
M  V30 5110 H 468.051 0.602653 0.295044 0
M  V30 5111 H 470.595 2.02576 0.279842 0
M  V30 5112 H 468.75 2.85226 2.62154 0
M  V30 5113 H 469.164 4.91746 1.82445 0
M  V30 5114 H 470.638 4.32576 3.42902 0
M  V30 5115 H 471.115 2.63176 3.51617 0
M  V30 5116 H 471.721 3.64724 2.18762 0
M  V30 5117 N 470.036 -0.519951 1.48776 0
M  V30 5118 C 471.264 -1.29971 1.60982 0
M  V30 5119 C 471.679 -1.86803 0.273885 0
M  V30 5120 O 471.036 -1.66904 -0.738193 0
M  V30 5121 C 471.087 -2.44346 2.66415 0
M  V30 5122 O 470.808 -1.89855 3.94825 0
M  V30 5123 C 472.309 -3.36014 2.89153 0
M  V30 5124 H 469.529 -0.394891 0.542496 0
M  V30 5125 H 472.073 -0.626214 1.94676 0
M  V30 5126 H 470.228 -3.07562 2.35552 0
M  V30 5127 H 470.642 -2.64798 4.5275 0
M  V30 5128 H 472.116 -4.12593 3.66703 0
M  V30 5129 H 472.593 -3.91859 1.98351 0
M  V30 5130 H 473.199 -2.78582 3.21359 0
M  V30 5131 N 471.514 -1.37532 -0.769588 0
M  V30 5132 C 472.76 -1.33057 -1.53048 0
M  V30 5133 C 473.093 0.0841865 -1.94017 0
M  V30 5134 O 472.368 1.04198 -1.64235 0
M  V30 5135 C 472.651 -2.27166 -2.79406 0
M  V30 5136 C 472.504 -3.77429 -2.44677 0
M  V30 5137 C 473.823 -2.19683 -3.81349 0
M  V30 5138 H 470.942 -0.484655 -0.555228 0
M  V30 5139 H 473.584 -1.68251 -0.882702 0
M  V30 5140 H 471.734 -1.97283 -3.34682 0
M  V30 5141 H 473.406 -4.17918 -1.953 0
M  V30 5142 H 471.649 -3.95892 -1.77346 0
M  V30 5143 H 472.32 -4.38716 -3.35011 0
M  V30 5144 H 474.796 -2.46029 -3.35573 0
M  V30 5145 H 473.672 -2.87668 -4.67481 0
M  V30 5146 H 473.933 -1.19045 -4.25771 0
M  V30 5147 N 472.992 0.995999 -1.22138 0
M  V30 5148 C 474.239 1.7351 -1.04406 0
M  V30 5149 C 474.567 1.89884 0.421244 0
M  V30 5150 O 473.822 1.43683 1.32867 0
M  V30 5151 C 474.121 3.14553 -1.6968 0
M  V30 5152 C 473.787 3.18102 -3.19565 0
M  V30 5153 C 472.449 3.18778 -3.60464 0
M  V30 5154 C 474.801 3.14636 -4.15516 0
M  V30 5155 C 472.129 3.13684 -4.95801 0
M  V30 5156 C 474.481 3.11084 -5.50826 0
M  V30 5157 C 473.145 3.10074 -5.91109 0
M  V30 5158 H 472.415 0.634916 -0.38205 0
M  V30 5159 H 475.062 1.1667 -1.51857 0
M  V30 5160 H 473.367 3.74682 -1.14546 0
M  V30 5161 H 475.064 3.70477 -1.53454 0
M  V30 5162 H 471.654 3.18324 -2.86998 0
M  V30 5163 H 475.838 3.13266 -3.84939 0
M  V30 5164 H 471.094 3.11245 -5.26247 0
M  V30 5165 H 475.268 3.07357 -6.24904 0
M  V30 5166 H 472.895 3.05882 -6.95946 0
M  V30 5167 N 474.47 1.03057 1.19235 0
M  V30 5168 C 475.881 0.757449 1.70645 0
M  V30 5169 C 476.232 -0.722735 1.82403 0
M  V30 5170 O 475.357 -1.56325 1.49638 0
M  V30 5171 C 475.952 1.36833 3.09939 0
M  V30 5172 C 474.511 1.14375 3.58602 0
M  V30 5173 C 473.658 1.46533 2.35422 0
M  V30 5174 H 476.609 1.19828 1.04052 0
M  V30 5175 H 476.63 0.766184 3.72706 0
M  V30 5176 H 476.142 2.44562 3.01349 0
M  V30 5177 H 474.243 0.0847542 3.72504 0
M  V30 5178 H 474.356 1.83366 4.42622 0
M  V30 5179 H 472.72 0.884712 2.38841 0
M  V30 5180 H 473.503 2.55349 2.2946 0
M  V30 5181 N 475.948 -1.35272 0.808662 0
M  V30 5182 C 476.878 -2.32315 0.234981 0
M  V30 5183 C 477.859 -1.57572 -0.64071 0
M  V30 5184 O 479.044 -1.8563 -0.570551 0
M  V30 5185 C 476.174 -3.41801 -0.615601 0
M  V30 5186 C 475.128 -4.27694 0.161767 0
M  V30 5187 C 474.454 -5.28519 -0.810649 0
M  V30 5188 C 475.754 -5.04231 1.36193 0
M  V30 5189 H 477.448 -2.80543 1.04575 0
M  V30 5190 H 474.994 -1.3488 0.504315 0
M  V30 5191 H 476.947 -4.08693 -1.02702 0
M  V30 5192 H 475.671 -2.92186 -1.45928 0
M  V30 5193 H 474.33 -3.62384 0.554382 0
M  V30 5194 H 473.978 -4.75171 -1.64988 0
M  V30 5195 H 473.678 -5.8686 -0.294822 0
M  V30 5196 H 475.202 -5.98283 -1.22023 0
M  V30 5197 H 476.616 -5.64058 1.02528 0
M  V30 5198 H 475.013 -5.72077 1.81239 0
M  V30 5199 H 476.083 -4.34753 2.14751 0
M  V30 5200 N 477.426 -0.562348 -1.47226 0
M  V30 5201 C 478.356 0.170627 -2.32876 0
M  V30 5202 C 479.337 0.903748 -1.44106 0
M  V30 5203 O 480.522 0.883206 -1.72954 0
M  V30 5204 C 477.652 1.19786 -3.25989 0
M  V30 5205 C 476.606 0.580875 -4.2404 0
M  V30 5206 C 475.932 1.71311 -5.06514 0
M  V30 5207 C 477.232 -0.468714 -5.20193 0
M  V30 5208 H 478.926 -0.544441 -2.94408 0
M  V30 5209 H 476.472 -0.263271 -1.41573 0
M  V30 5210 H 478.425 1.71884 -3.84752 0
M  V30 5211 H 477.149 1.94294 -2.62521 0
M  V30 5212 H 475.808 0.0811538 -3.6651 0
M  V30 5213 H 475.456 2.44736 -4.39447 0
M  V30 5214 H 475.156 1.30604 -5.72902 0
M  V30 5215 H 476.68 2.23725 -5.68137 0
M  V30 5216 H 478.094 -0.0336028 -5.7329 0
M  V30 5217 H 476.491 -0.794957 -5.94811 0
M  V30 5218 H 477.561 -1.36269 -4.65359 0
M  V30 5219 N 478.904 1.54736 -0.299062 0
M  V30 5220 C 479.837 2.1962 0.619851 0
M  V30 5221 C 480.815 1.16496 1.13434 0
M  V30 5222 O 481.999 1.4513 1.2029 0
M  V30 5223 C 479.126 2.8385 1.84788 0
M  V30 5224 C 478.172 4.00484 1.46679 0
M  V30 5225 S 479.005 5.32926 0.524389 0
M  V30 5226 C 480.161 6.00638 1.76026 0
M  V30 5227 H 480.394 2.97221 0.0686177 0
M  V30 5228 H 477.927 1.54176 -0.0832085 0
M  V30 5229 H 479.885 3.21483 2.55263 0
M  V30 5230 H 478.546 2.06099 2.37028 0
M  V30 5231 H 477.739 4.44201 2.38121 0
M  V30 5232 H 477.341 3.64398 0.842008 0
M  V30 5233 H 479.633 6.21327 2.70109 0
M  V30 5234 H 480.576 6.94805 1.36569 0
M  V30 5235 H 480.984 5.3026 1.93609 0
M  V30 5236 N 480.382 0.0267497 1.57577 0
M  V30 5237 C 481.61 -0.662661 1.96001 0
M  V30 5238 C 482.025 -1.65799 0.903117 0
M  V30 5239 O 481.382 -1.82135 -0.115317 0
M  V30 5240 C 481.433 -1.37112 3.34488 0
M  V30 5241 O 481.154 -0.415683 4.36123 0
M  V30 5242 C 482.655 -2.15257 3.8753 0
M  V30 5243 H 479.875 -0.18287 0.6456 0
M  V30 5244 H 482.419 0.0858116 2.0432 0
M  V30 5245 H 480.574 -2.07101 3.27395 0
M  V30 5246 H 480.988 -0.918496 5.16395 0
M  V30 5247 H 482.462 -2.60285 4.86781 0
M  V30 5248 H 482.939 -2.99063 3.21649 0
M  V30 5249 H 483.545 -1.50231 3.97883 0
M  V30 5250 N 481.861 -1.55662 -0.24637 0
M  V30 5251 C 482.791 -1.93377 -1.30873 0
M  V30 5252 C 483.772 -0.798773 -1.50179 0
M  V30 5253 O 484.957 -1.0591 -1.62778 0
M  V30 5254 C 482.087 -2.22893 -2.66338 0
M  V30 5255 C 481.041 -3.38649 -2.61727 0
M  V30 5256 C 480.367 -3.53708 -4.00992 0
M  V30 5257 C 481.667 -4.74323 -2.18666 0
M  V30 5258 H 483.361 -2.82363 -0.995552 0
M  V30 5259 H 480.907 -1.35854 -0.477464 0
M  V30 5260 H 482.86 -2.47866 -3.40794 0
M  V30 5261 H 481.584 -1.30733 -2.99293 0
M  V30 5262 H 480.243 -3.13685 -1.89729 0
M  V30 5263 H 479.891 -2.58967 -4.31214 0
M  V30 5264 H 479.591 -4.31551 -3.98795 0
M  V30 5265 H 481.115 -3.81003 -4.77147 0
M  V30 5266 H 482.529 -4.98665 -2.82854 0
M  V30 5267 H 480.926 -5.55273 -2.27579 0
M  V30 5268 H 481.996 -4.71349 -1.13834 0
M  V30 5269 N 483.339 0.512053 -1.4905 0
M  V30 5270 C 484.586 1.26686 -1.57978 0
M  V30 5271 C 484.914 1.92733 -0.261553 0
M  V30 5272 O 484.169 1.80772 0.749667 0
M  V30 5273 C 484.468 2.36446 -2.68008 0
M  V30 5274 C 484.134 1.87932 -4.09869 0
M  V30 5275 C 482.796 1.74419 -4.48477 0
M  V30 5276 C 485.148 1.5149 -4.98698 0
M  V30 5277 C 482.476 1.22827 -5.73699 0
M  V30 5278 C 484.828 1.01355 -6.24428 0
M  V30 5279 C 483.492 0.864735 -6.61875 0
M  V30 5280 H 482.762 0.463577 -0.578081 0
M  V30 5281 H 485.409 0.569421 -1.82838 0
M  V30 5282 H 483.714 3.11933 -2.37076 0
M  V30 5283 H 485.411 2.9453 -2.72127 0
M  V30 5284 H 482.001 1.99405 -3.79389 0
M  V30 5285 H 486.185 1.60782 -4.69535 0
M  V30 5286 H 481.441 1.10008 -6.01422 0
M  V30 5287 H 485.615 0.722351 -6.92644 0
M  V30 5288 H 483.242 0.462777 -7.5879 0
M  V30 5289 N 484.817 1.37938 0.762283 0
M  V30 5290 C 485.727 1.36681 1.90671 0
M  V30 5291 C 486.743 0.265078 1.71969 0
M  V30 5292 O 487.919 0.502055 1.95042 0
M  V30 5293 C 484.984 1.18211 3.25925 0
M  V30 5294 C 484.045 2.3811 3.57214 0
M  V30 5295 C 483.278 2.20512 4.86014 0
M  V30 5296 O 483.501 1.19429 5.57757 0
M  V30 5297 O 482.435 3.08911 5.16583 0
M  V30 5298 H 486.261 2.33091 1.94685 0
M  V30 5299 H 483.846 1.18767 0.906356 0
M  V30 5300 H 485.728 1.09937 4.06807 0
M  V30 5301 H 484.403 0.248807 3.22742 0
M  V30 5302 H 483.31 2.51958 2.76529 0
M  V30 5303 H 484.643 3.30041 3.65149 0
M  V30 5304 N 486.295 -0.989507 1.22664 0
M  V30 5305 C 487.225 -2.09847 1.02404 0
M  V30 5306 C 488.206 -1.70007 -0.0561303 0
M  V30 5307 O 489.391 -1.93906 0.106748 0
M  V30 5308 C 486.521 -3.41996 0.604663 0
M  V30 5309 C 485.475 -3.95699 1.63115 0
M  V30 5310 C 484.801 -5.23936 1.0675 0
M  V30 5311 C 486.101 -4.25999 3.02196 0
M  V30 5312 H 487.795 -2.27054 1.95158 0
M  V30 5313 H 485.341 -1.09111 0.939727 0
M  V30 5314 H 487.294 -4.1899 0.45002 0
M  V30 5315 H 486.018 -3.24626 -0.35855 0
M  V30 5316 H 484.677 -3.2084 1.77362 0
M  V30 5317 H 484.325 -5.02909 0.0955422 0
M  V30 5318 H 484.025 -5.60833 1.75328 0
M  V30 5319 H 485.549 -6.0356 0.924516 0
M  V30 5320 H 486.963 -4.93777 2.91303 0
M  V30 5321 H 485.36 -4.74076 3.67929 0
M  V30 5322 H 486.43 -3.33636 3.51873 0
M  V30 5323 N 487.773 -1.03688 -1.18687 0
M  V30 5324 C 488.736 -0.629115 -2.20397 0
M  V30 5325 C 489.736 0.311495 -1.57754 0
M  V30 5326 O 490.926 0.0974107 -1.73927 0
M  V30 5327 C 488.058 0.0782231 -3.4081 0
M  V30 5328 H 489.251 -1.52915 -2.57987 0
M  V30 5329 H 486.804 -0.828988 -1.32505 0
M  V30 5330 H 487.539 0.992233 -3.08748 0
M  V30 5331 H 487.324 -0.597776 -3.87517 0
M  V30 5332 H 488.814 0.350156 -4.16129 0
M  V30 5333 N 489.251 1.34841 -0.815825 0
M  V30 5334 C 490.667 1.51543 -0.500697 0
M  V30 5335 C 490.867 1.76261 0.976444 0
M  V30 5336 O 489.923 1.8094 1.76117 0
M  V30 5337 C 491.236 2.68487 -1.35407 0
M  V30 5338 C 492.784 2.82368 -1.35046 0
M  V30 5339 C 493.259 4.02347 -2.18816 0
M  V30 5340 N 494.75 4.09542 -2.16402 0
M  V30 5341 C 495.485 5.01517 -2.77971 0
M  V30 5342 N 494.981 5.98763 -3.48503 0
M  V30 5343 N 496.774 4.94334 -2.67563 0
M  V30 5344 H 488.925 1.17055 -1.77234 0
M  V30 5345 H 491.188 0.573481 -0.754866 0
M  V30 5346 H 490.894 2.56829 -2.40274 0
M  V30 5347 H 490.768 3.63321 -1.01377 0
M  V30 5348 H 493.155 2.93471 -0.309604 0
M  V30 5349 H 493.236 1.88363 -1.73069 0
M  V30 5350 H 492.88 3.92004 -3.22948 0
M  V30 5351 H 492.81 4.95551 -1.78148 0
M  V30 5352 H 495.301 3.39932 -1.65091 0
M  V30 5353 H 495.614 6.6556 -3.92747 0
M  V30 5354 H 493.959 5.98909 -3.52609 0
M  V30 5355 H 497.15 4.1732 -2.12041 0
M  V30 5356 H 497.323 5.6582 -3.15834 0
M  V30 5357 N 490.729 0.570148 1.46925 0
M  V30 5358 C 491.677 -0.183181 2.31878 0
M  V30 5359 C 492.671 -0.896721 1.43719 0
M  V30 5360 O 493.877 -0.816536 1.60414 0
M  V30 5361 H 490.252 -0.077944 0.74795 0
M  V30 5362 H 492.223 0.552312 2.93244 0
M  V30 5363 C 490.972 -1.19172 3.2664 0
M  V30 5364 H 490.295 -0.652088 3.94446 0
M  V30 5365 H 491.735 -1.68946 3.88887 0
M  V30 5366 C 490.194 -2.24627 2.51086 0
M  V30 5367 O 490.724 -3.31773 2.26472 0
M  V30 5368 N 488.93 -1.98898 2.11867 0
M  V30 5369 H 488.477 -1.11777 2.32086 0
M  V30 5370 H 488.435 -2.6967 1.61634 0
M  V30 5371 N 492.207 -1.54576 0.307264 0
M  V30 5372 C 493.618 -1.8579 -0.184121 0
M  V30 5373 C 493.969 -1.22914 -1.52927 0
M  V30 5374 O 493.094 -0.529126 -2.09831 0
M  V30 5375 C 493.689 -3.37081 -0.340862 0
M  V30 5376 C 492.248 -3.68304 -0.776465 0
M  V30 5377 C 491.395 -2.77076 0.111503 0
M  V30 5378 H 494.346 -1.49656 0.528078 0
M  V30 5379 H 494.367 -3.61922 -1.17443 0
M  V30 5380 H 493.879 -3.82815 0.638309 0
M  V30 5381 H 491.98 -3.28092 -1.76596 0
M  V30 5382 H 492.093 -4.75434 -0.591512 0
M  V30 5383 H 490.457 -2.51374 -0.410256 0
M  V30 5384 H 491.24 -3.25632 1.08714 0
M  V30 5385 N 493.685 -0.035106 -1.57561 0
M  V30 5386 C 494.633 0.962707 -2.11742 0
M  V30 5387 C 495.627 1.33296 -1.0454 0
M  V30 5388 O 496.833 1.31449 -1.22968 0
M  V30 5389 H 493.208 0.32826 -0.676572 0
M  V30 5390 H 495.179 0.48048 -2.94506 0
M  V30 5391 C 493.928 2.23388 -2.66445 0
M  V30 5392 H 493.251 1.95774 -3.48587 0
M  V30 5393 H 494.691 2.91402 -3.07995 0
M  V30 5394 C 493.15 2.96769 -1.59467 0
M  V30 5395 O 493.68 3.89105 -0.998 0
M  V30 5396 N 491.886 2.59212 -1.31369 0
M  V30 5397 H 491.433 1.84202 -1.80076 0
M  V30 5398 H 491.391 3.08618 -0.600173 0
M  V30 5399 N 495.163 1.55791 0.238111 0
M  V30 5400 C 496.409 1.78297 0.966337 0
M  V30 5401 C 496.742 0.601903 1.84637 0
M  V30 5402 O 496.017 -0.399499 1.90353 0
M  V30 5403 C 496.3 3.10758 1.81939 0
M  V30 5404 C 496.153 4.39283 0.966958 0
M  V30 5405 C 497.472 3.39519 2.80027 0
M  V30 5406 H 494.591 0.648654 0.349882 0
M  V30 5407 H 497.233 1.88525 0.236253 0
M  V30 5408 H 495.383 3.02168 2.44185 0
M  V30 5409 H 497.055 4.59873 0.362514 0
M  V30 5410 H 495.298 4.32948 0.271669 0
M  V30 5411 H 495.969 5.28368 1.59784 0
M  V30 5412 H 498.445 3.48128 2.27917 0
M  V30 5413 H 497.321 4.33402 3.36829 0
M  V30 5414 H 497.582 2.60864 3.56934 0
M  V30 5415 N 496.642 -0.504142 1.49319 0
M  V30 5416 C 497.574 -1.62265 1.61872 0
M  V30 5417 C 498.587 -1.54881 0.501573 0
M  V30 5418 O 499.776 -1.6087 0.773497 0
M  V30 5419 C 496.876 -3.01042 1.55651 0
M  V30 5420 C 496.049 -3.33642 2.82845 0
M  V30 5421 C 495.108 -4.51816 2.69719 0
M  V30 5422 O 494.134 -4.53755 3.4365 0
M  V30 5423 N 495.336 -5.51543 1.81055 0
M  V30 5424 H 498.101 -1.51924 2.58339 0
M  V30 5425 H 495.662 -0.691954 1.46368 0
M  V30 5426 H 497.654 -3.78013 1.44528 0
M  V30 5427 H 496.224 -3.05323 0.670546 0
M  V30 5428 H 495.444 -2.45598 3.08343 0
M  V30 5429 H 496.732 -3.5222 3.67177 0
M  V30 5430 H 496.13 -5.52774 1.20241 0
M  V30 5431 H 494.687 -6.27629 1.75856 0
M  V30 5432 N 498.12 -1.38341 -0.754957 0
M  V30 5433 C 499.052 -1.31347 -1.87831 0
M  V30 5434 C 500.065 -0.225955 -1.61224 0
M  V30 5435 O 501.254 -0.48341 -1.7183 0
M  V30 5436 C 498.354 -1.01201 -3.23437 0
M  V30 5437 C 497.527 -2.20834 -3.77559 0
M  V30 5438 C 496.586 -1.87454 -4.91678 0
M  V30 5439 O 495.612 -2.59934 -5.06382 0
M  V30 5440 N 496.814 -0.828682 -5.74555 0
M  V30 5441 H 499.579 -2.28147 -1.94342 0
M  V30 5442 H 497.14 -1.32184 -0.934828 0
M  V30 5443 H 499.132 -0.769249 -3.97322 0
M  V30 5444 H 497.702 -0.132011 -3.12321 0
M  V30 5445 H 496.922 -2.61184 -2.95256 0
M  V30 5446 H 498.21 -3.00678 -4.10451 0
M  V30 5447 H 497.608 -0.227591 -5.65242 0
M  V30 5448 H 496.165 -0.645802 -6.48593 0
M  V30 5449 N 499.598 0.982988 -1.23187 0
M  V30 5450 C 500.561 2.05649 -1.01198 0
M  V30 5451 C 501.561 1.6078 0.0252464 0
M  V30 5452 O 502.751 1.72878 -0.214243 0
M  V30 5453 C 499.883 3.36744 -0.530656 0
M  V30 5454 H 501.076 2.2659 -1.96461 0
M  V30 5455 H 498.629 1.15602 -1.05195 0
M  V30 5456 H 499.364 3.21492 0.425873 0
M  V30 5457 H 499.149 3.7065 -1.2791 0
M  V30 5458 H 500.639 4.15705 -0.397366 0
M  V30 5459 N 501.076 1.04316 1.18135 0
M  V30 5460 C 502.006 0.657299 2.24058 0
M  V30 5461 C 502.987 -0.340678 1.66654 0
M  V30 5462 O 504.172 -0.220223 1.92947 0
M  V30 5463 C 501.302 0.0220715 3.47293 0
M  V30 5464 C 500.256 0.943857 4.17463 0
M  V30 5465 C 499.582 0.172973 5.3442 0
M  V30 5466 C 500.882 2.26409 4.70677 0
M  V30 5467 H 502.576 1.5428 2.56589 0
M  V30 5468 H 500.122 0.743263 1.23335 0
M  V30 5469 H 502.075 -0.259607 4.206 0
M  V30 5470 H 500.799 -0.898323 3.14003 0
M  V30 5471 H 499.458 1.20996 3.46057 0
M  V30 5472 H 499.106 -0.749907 4.97379 0
M  V30 5473 H 498.806 0.787098 5.82304 0
M  V30 5474 H 500.33 -0.101628 6.10515 0
M  V30 5475 H 501.744 2.04294 5.35665 0
M  V30 5476 H 500.141 2.8314 5.29105 0
M  V30 5477 H 501.211 2.90883 3.87962 0
M  V30 5478 N 502.554 -1.34406 0.822964 0
M  V30 5479 C 503.97 -1.51275 0.508727 0
M  V30 5480 C 504.17 -1.76776 -0.967083 0
M  V30 5481 O 503.226 -1.81871 -1.75155 0
M  V30 5482 C 504.539 -2.67765 1.36829 0
M  V30 5483 C 506.087 -2.81647 1.36542 0
M  V30 5484 C 506.562 -4.01181 2.20947 0
M  V30 5485 N 508.053 -4.08388 2.18571 0
M  V30 5486 C 508.788 -5.00036 2.80627 0
M  V30 5487 N 508.284 -5.96906 3.51674 0
M  V30 5488 N 510.077 -4.92908 2.70181 0
M  V30 5489 H 502.228 -1.16113 1.77852 0
M  V30 5490 H 504.491 -0.56947 0.757897 0
M  V30 5491 H 504.197 -2.55551 2.41633 0
M  V30 5492 H 504.071 -3.62779 1.03303 0
M  V30 5493 H 506.458 -2.93303 0.325163 0
M  V30 5494 H 506.539 -1.87443 1.74066 0
M  V30 5495 H 506.183 -3.90286 3.25022 0
M  V30 5496 H 506.113 -4.94599 1.80774 0
M  V30 5497 H 508.604 -3.39051 1.66891 0
M  V30 5498 H 508.917 -6.63468 3.96271 0
M  V30 5499 H 507.262 -5.9703 3.5578 0
M  V30 5500 H 510.453 -4.1619 2.14251 0
M  V30 5501 H 510.626 -5.64137 3.18831 0
M  V30 5502 N 504.032 -0.577932 -1.46621 0
M  V30 5503 C 504.964 0.195801 -2.28362 0
M  V30 5504 C 505.977 0.859983 -1.38232 0
M  V30 5505 O 507.166 0.730349 -1.62875 0
M  V30 5506 C 504.266 1.29639 -3.13124 0
M  V30 5507 C 503.439 0.725049 -4.31349 0
M  V30 5508 C 502.498 1.71274 -4.97546 0
M  V30 5509 O 501.524 1.25067 -5.5529 0
M  V30 5510 N 502.726 3.04672 -4.94121 0
M  V30 5511 H 505.491 -0.505468 -2.95407 0
M  V30 5512 H 503.052 -0.415381 -1.56481 0
M  V30 5513 H 505.044 1.95631 -3.54275 0
M  V30 5514 H 503.614 1.90059 -2.48186 0
M  V30 5515 H 502.834 -0.112205 -3.9404 0
M  V30 5516 H 504.122 0.323034 -5.07774 0
M  V30 5517 H 503.52 3.4484 -4.48444 0
M  V30 5518 H 502.077 3.66166 -5.39227 0
M  V30 5519 N 505.51 1.54411 -0.315457 0
M  V30 5520 C 506.42 2.27737 0.56329 0
M  V30 5521 C 507.436 1.31787 1.13614 0
M  V30 5522 O 508.612 1.64791 1.15784 0
M  V30 5523 C 505.677 3.01478 1.71207 0
M  V30 5524 C 504.738 4.12997 1.17185 0
M  V30 5525 C 503.971 4.83212 2.26588 0
M  V30 5526 O 504.194 4.52884 3.46775 0
M  V30 5527 O 503.128 5.70299 1.92463 0
M  V30 5528 H 506.954 3.03683 -0.0319614 0
M  V30 5529 H 504.539 1.49178 -0.0814188 0
M  V30 5530 H 506.421 3.47683 2.38106 0
M  V30 5531 H 505.096 2.28414 2.29366 0
M  V30 5532 H 504.003 3.71159 0.468174 0
M  V30 5533 H 505.336 4.8808 0.635501 0
M  V30 5534 N 506.988 0.0434614 1.5754 0
M  V30 5535 C 508.213 -0.645358 1.97104 0
M  V30 5536 C 508.638 -1.64037 0.920521 0
M  V30 5537 O 507.996 -1.80922 -0.11708 0
M  V30 5538 C 508.044 -1.31547 3.35749 0
M  V30 5539 O 507.148 -2.43103 3.33129 0
M  V30 5540 H 506.489 -0.168403 0.64229 0
M  V30 5541 H 509.019 0.109573 2.04306 0
M  V30 5542 H 509.029 -1.66895 3.72304 0
M  V30 5543 H 507.704 -0.586205 4.11748 0
M  V30 5544 H 506.281 -2.0976 3.0831 0
M  V30 5545 N 508.466 -1.55915 -0.229846 0
M  V30 5546 C 509.396 -1.94754 -1.28815 0
M  V30 5547 C 510.377 -0.814657 -1.49323 0
M  V30 5548 O 511.562 -1.07631 -1.61645 0
M  V30 5549 C 508.692 -2.25705 -2.63959 0
M  V30 5550 C 507.646 -3.41406 -2.5812 0
M  V30 5551 C 506.972 -3.57941 -3.97218 0
M  V30 5552 C 508.272 -4.76616 -2.13623 0
M  V30 5553 H 509.966 -2.83404 -0.965547 0
M  V30 5554 H 507.512 -1.36353 -0.463028 0
M  V30 5555 H 509.465 -2.51467 -3.38146 0
M  V30 5556 H 508.189 -1.339 -2.9789 0
M  V30 5557 H 506.848 -3.1568 -1.86391 0
M  V30 5558 H 506.496 -2.63526 -4.28443 0
M  V30 5559 H 506.196 -4.35757 -3.94195 0
M  V30 5560 H 507.72 -3.86042 -4.73079 0
M  V30 5561 H 509.134 -5.01637 -2.77549 0
M  V30 5562 H 507.531 -5.57655 -2.21677 0
M  V30 5563 H 508.601 -4.7253 -1.08829 0
M  V30 5564 N 509.944 0.496216 -1.49584 0
M  V30 5565 C 510.907 1.57952 -1.66084 0
M  V30 5566 C 511.907 1.51729 -0.53244 0
M  V30 5567 O 513.097 1.54796 -0.79899 0
M  V30 5568 C 510.229 2.97604 -1.66268 0
M  V30 5569 H 511.422 1.44649 -2.6271 0
M  V30 5570 H 508.975 0.7208 -1.38687 0
M  V30 5571 H 509.71 3.16378 -0.712432 0
M  V30 5572 H 509.495 3.03528 -2.4822 0
M  V30 5573 H 510.985 3.76301 -1.81073 0
M  V30 5574 N 511.423 1.38739 0.74761 0
M  V30 5575 C 512.386 1.36241 1.84312 0
M  V30 5576 C 513.386 0.261811 1.58654 0
M  V30 5577 O 514.576 0.519031 1.66288 0
M  V30 5578 C 511.708 1.12253 3.21888 0
M  V30 5579 H 512.901 2.33712 1.87933 0
M  V30 5580 H 510.454 1.2412 0.949946 0
M  V30 5581 H 511.189 0.154133 3.23934 0
M  V30 5582 H 510.974 1.91943 3.41907 0
M  V30 5583 H 512.464 1.13215 4.0196 0
M  V30 5584 N 512.901 -0.976442 1.23707 0
M  V30 5585 C 513.864 -2.0511 1.02287 0
M  V30 5586 C 514.864 -1.60791 -0.0167195 0
M  V30 5587 O 516.054 -1.72761 0.223408 0
M  V30 5588 C 513.186 -3.36458 0.548507 0
M  V30 5589 H 514.379 -2.25545 1.9766 0
M  V30 5590 H 511.932 -1.15042 1.05806 0
M  V30 5591 H 512.667 -3.21713 -0.408818 0
M  V30 5592 H 512.452 -3.69967 1.29874 0
M  V30 5593 H 513.942 -4.15489 0.419406 0
M  V30 5594 N 514.379 -1.04941 -1.1758 0
M  V30 5595 C 515.342 -0.652456 -2.19717 0
M  V30 5596 C 516.342 0.294745 -1.58076 0
M  V30 5597 O 517.532 0.0789579 -1.74021 0
M  V30 5598 C 514.664 0.0420712 -3.40874 0
M  V30 5599 H 515.857 -1.55642 -2.5635 0
M  V30 5600 H 513.41 -0.842995 -1.31618 0
M  V30 5601 H 514.145 0.95943 -3.09783 0
M  V30 5602 H 513.93 -0.638844 -3.86861 0
M  V30 5603 H 515.42 0.306 -4.16477 0
M  V30 5604 N 515.857 1.33968 -0.830081 0
M  V30 5605 C 517.082 2.02813 -0.433796 0
M  V30 5606 C 517.507 1.62076 0.954614 0
M  V30 5607 O 516.865 0.808955 1.62252 0
M  V30 5608 C 516.913 3.56348 -0.552115 0
M  V30 5609 O 516.017 4.10202 0.425191 0
M  V30 5610 H 515.358 0.639817 -0.177567 0
M  V30 5611 H 517.888 1.7106 -1.12248 0
M  V30 5612 H 517.898 4.05722 -0.430513 0
M  V30 5613 H 516.573 3.85344 -1.56471 0
M  V30 5614 H 515.15 3.71979 0.261878 0
M  V30 5615 N 517.335 0.585699 1.46312 0
M  V30 5616 C 518.584 0.0701192 2.01578 0
M  V30 5617 C 518.897 -1.29889 1.46247 0
M  V30 5618 O 520.103 -1.90598 1.93351 0
M  V30 5619 C 518.559 0.0747499 3.59822 0
M  V30 5620 C 518.167 1.44226 4.24149 0
M  V30 5621 C 519.911 -0.38673 4.22735 0
M  V30 5622 C 517.818 1.40446 5.74481 0
M  V30 5623 H 516.748 0.0224441 0.753666 0
M  V30 5624 H 519.399 0.737789 1.68015 0
M  V30 5625 H 517.781 -0.659144 3.90476 0
M  V30 5626 H 518.955 2.19612 4.05101 0
M  V30 5627 H 517.27 1.84401 3.73343 0
M  V30 5628 H 519.867 -0.433853 5.32937 0
M  V30 5629 H 520.21 -1.40489 3.91878 0
M  V30 5630 H 520.743 0.293195 3.96718 0
M  V30 5631 H 517.482 2.39952 6.10003 0
M  V30 5632 H 517.002 0.692845 5.95785 0
M  V30 5633 H 518.681 1.11865 6.37256 0
M  V30 5634 N 518.813 -1.54241 0.323641 0
M  V30 5635 C 520.038 -2.05452 -0.283605 0
M  V30 5636 C 520.463 -1.19823 -1.44997 0
M  V30 5637 O 519.821 -0.207358 -1.8011 0
M  V30 5638 C 519.869 -3.53823 -0.695795 0
M  V30 5639 O 518.973 -3.71134 -1.79815 0
M  V30 5640 H 518.314 -0.662024 -0.0511917 0
M  V30 5641 H 520.844 -1.99079 0.472073 0
M  V30 5642 H 520.854 -3.96094 -0.978434 0
M  V30 5643 H 519.529 -4.15602 0.157287 0
M  V30 5644 H 518.106 -3.40768 -1.51431 0
M  V30 5645 N 520.291 -0.0518155 -1.57515 0
M  V30 5646 C 521.201 0.937539 -2.15052 0
M  V30 5647 C 522.217 1.34121 -1.10849 0
M  V30 5648 O 523.393 1.418 -1.4302 0
M  V30 5649 C 520.458 2.19379 -2.68466 0
M  V30 5650 C 519.519 1.84841 -3.87469 0
M  V30 5651 C 518.752 3.04477 -4.38326 0
M  V30 5652 O 518.975 4.17868 -3.88256 0
M  V30 5653 O 517.909 2.85453 -5.29906 0
M  V30 5654 H 521.735 0.478201 -2.99912 0
M  V30 5655 H 519.32 0.17012 -1.48428 0
M  V30 5656 H 521.202 2.93084 -3.02787 0
M  V30 5657 H 519.877 2.64449 -1.86677 0
M  V30 5658 H 518.784 1.08449 -3.58036 0
M  V30 5659 H 520.117 1.44569 -4.7049 0
M  V30 5660 N 521.769 1.56035 0.221574 0
M  V30 5661 C 522.719 1.8881 1.27807 0
M  V30 5662 C 523.703 0.751177 1.42289 0
M  V30 5663 O 524.895 1.01359 1.45104 0
M  V30 5664 C 522.024 2.20828 2.6285 0
M  V30 5665 C 521.11 3.40912 2.52269 0
M  V30 5666 N 521.501 4.59531 2.1134 0
M  V30 5667 C 519.799 3.44526 2.83228 0
M  V30 5668 C 520.5 5.41689 2.1201 0
M  V30 5669 N 519.476 4.814 2.52497 0
M  V30 5670 H 523.278 2.78036 0.952529 0
M  V30 5671 H 520.792 1.566 0.430134 0
M  V30 5672 H 522.789 2.42483 3.39127 0
M  V30 5673 H 521.449 1.32914 2.9625 0
M  V30 5674 H 522.46 4.8469 1.82472 0
M  V30 5675 H 519.137 2.66956 3.21 0
M  V30 5676 H 520.527 6.46643 1.82491 0
M  V30 5677 N 523.247 -0.488276 1.49845 0
M  V30 5678 C 524.658 -1.06955 1.53028 0
M  V30 5679 C 525.009 -1.9351 0.323797 0
M  V30 5680 O 524.134 -2.08891 -0.565116 0
M  V30 5681 C 524.729 -1.94643 2.77307 0
M  V30 5682 C 523.288 -2.4791 2.83227 0
M  V30 5683 C 522.435 -1.25833 2.47106 0
M  V30 5684 H 525.386 -0.271626 1.56358 0
M  V30 5685 H 525.407 -2.79496 2.5819 0
M  V30 5686 H 524.919 -1.31621 3.65099 0
M  V30 5687 H 523.02 -3.14535 1.99745 0
M  V30 5688 H 523.133 -2.84193 3.85709 0
M  V30 5689 H 521.497 -1.58764 1.99163 0
M  V30 5690 H 522.28 -0.644993 3.37186 0
M  V30 5691 N 524.725 -1.39134 -0.740242 0
M  V30 5692 C 525.657 -1.33332 -1.86428 0
M  V30 5693 C 526.67 -0.243042 -1.60976 0
M  V30 5694 O 527.859 -0.501608 -1.71307 0
M  V30 5695 C 524.959 -1.04626 -3.22346 0
M  V30 5696 C 524.132 -2.24826 -3.75196 0
M  V30 5697 C 523.191 -1.92659 -4.89662 0
M  V30 5698 O 522.217 -2.6529 -5.03597 0
M  V30 5699 N 523.419 -0.889575 -5.73643 0
M  V30 5700 H 526.184 -2.30196 -1.91911 0
M  V30 5701 H 523.745 -1.33168 -0.920756 0
M  V30 5702 H 525.737 -0.811347 -3.96484 0
M  V30 5703 H 524.307 -0.165129 -3.12164 0
M  V30 5704 H 523.527 -2.64301 -2.9247 0
M  V30 5705 H 524.815 -3.05015 -4.07239 0
M  V30 5706 H 524.213 -0.287529 -5.64969 0
M  V30 5707 H 522.77 -0.714557 -6.47871 0
M  V30 5708 N 526.204 0.969867 -1.24223 0
M  V30 5709 C 527.151 2.06407 -1.0327 0
M  V30 5710 C 528.121 1.66014 0.0533 0
M  V30 5711 O 529.306 1.90533 -0.100896 0
M  V30 5712 C 526.446 3.3909 -0.641262 0
M  V30 5713 C 525.559 3.9269 -1.80051 0
M  V30 5714 C 524.694 5.13631 -1.35486 0
M  V30 5715 C 523.733 5.59423 -2.48419 0
M  V30 5716 N 522.87 6.71586 -2.04737 0
M  V30 5717 H 527.71 2.23663 -1.96923 0
M  V30 5718 H 525.247 1.09624 -0.980862 0
M  V30 5719 H 527.205 4.15323 -0.395351 0
M  V30 5720 H 525.835 3.21765 0.258269 0
M  V30 5721 H 524.887 3.13116 -2.16014 0
M  V30 5722 H 526.199 4.22636 -2.64916 0
M  V30 5723 H 525.353 5.97231 -1.0677 0
M  V30 5724 H 524.092 4.85364 -0.476722 0
M  V30 5725 H 523.097 4.74398 -2.77897 0
M  V30 5726 H 524.322 5.89705 -3.36786 0
M  V30 5727 H 522.268 6.45058 -1.19318 0
M  V30 5728 H 522.185 7.0097 -2.83156 0
M  V30 5729 H 523.453 7.58633 -1.79154 0
M  V30 5730 N 527.682 1.05563 1.17022 0
M  V30 5731 C 528.645 0.664098 2.19368 0
M  V30 5732 C 529.645 -0.286358 1.5823 0
M  V30 5733 O 530.835 -0.069728 1.7406 0
M  V30 5734 C 527.967 -0.0239932 3.40892 0
M  V30 5735 H 529.16 1.57 2.55521 0
M  V30 5736 H 526.713 0.849964 1.31169 0
M  V30 5737 H 527.448 -0.942988 3.10287 0
M  V30 5738 H 527.233 0.659351 3.86516 0
M  V30 5739 H 528.723 -0.283909 4.16634 0
M  V30 5740 N 529.16 -1.33526 0.837174 0
M  V30 5741 C 530.388 -2.02047 0.445494 0
M  V30 5742 C 530.803 -1.62995 -0.952788 0
M  V30 5743 O 530.16 -0.842447 -1.61892 0
M  V30 5744 C 530.211 -3.57221 0.554577 0
M  V30 5745 O 529.932 -3.94863 1.89776 0
M  V30 5746 C 531.433 -4.43012 0.159634 0
M  V30 5747 H 528.653 -0.647221 0.177048 0
M  V30 5748 H 531.197 -1.70492 1.12928 0
M  V30 5749 H 529.352 -3.87315 -0.0812781 0
M  V30 5750 H 529.766 -4.89569 1.88208 0
M  V30 5751 H 531.24 -5.51253 0.28701 0
M  V30 5752 H 531.717 -4.29916 -0.898289 0
M  V30 5753 H 532.323 -4.18274 0.769855 0
M  V30 5754 N 530.638 -0.59345 -1.46 0
M  V30 5755 C 531.866 -0.0890934 -2.06708 0
M  V30 5756 C 532.281 1.2205 -1.44046 0
M  V30 5757 O 531.638 1.74029 -0.549551 0
M  V30 5758 C 531.689 0.0720263 -3.61428 0
M  V30 5759 O 531.41 -1.18574 -4.21748 0
M  V30 5760 C 532.911 0.609487 -4.3909 0
M  V30 5761 H 530.131 -0.0623628 -0.668096 0
M  V30 5762 H 532.675 -0.817171 -1.87464 0
M  V30 5763 H 530.83 0.750369 -3.80063 0
M  V30 5764 H 531.244 -1.0064 -5.14754 0
M  V30 5765 H 532.718 0.671363 -5.47902 0
M  V30 5766 H 533.195 1.62878 -4.07882 0
M  V30 5767 H 533.801 -0.03434 -4.25286 0
M  V30 5768 N 532.116 1.54067 -0.331816 0
M  V30 5769 C 533.026 2.28322 0.539104 0
M  V30 5770 C 534.042 1.32985 1.1221 0
M  V30 5771 O 535.218 1.6601 1.1403 0
M  V30 5772 C 532.283 3.03277 1.68 0
M  V30 5773 C 531.344 4.14216 1.12798 0
M  V30 5774 C 530.577 4.85588 2.2145 0
M  V30 5775 O 530.8 4.56536 3.41952 0
M  V30 5776 O 529.734 5.72309 1.86404 0
M  V30 5777 H 533.56 3.03632 -0.0641692 0
M  V30 5778 H 531.145 1.49083 -0.0972365 0
M  V30 5779 H 533.027 3.50189 2.34405 0
M  V30 5780 H 531.702 2.30834 2.2693 0
M  V30 5781 H 530.609 3.71635 0.428782 0
M  V30 5782 H 531.942 4.88727 0.583698 0
M  V30 5783 N 533.594 0.0601682 1.57485 0
M  V30 5784 C 534.524 -0.90889 2.15085 0
M  V30 5785 C 535.505 -1.31838 1.07484 0
M  V30 5786 O 536.69 -1.3915 1.35466 0
M  V30 5787 C 533.82 -2.18059 2.7031 0
M  V30 5788 C 532.774 -1.91088 3.82974 0
M  V30 5789 C 532.1 -3.24789 4.24754 0
M  V30 5790 C 533.4 -1.22535 5.07723 0
M  V30 5791 H 535.094 -0.429093 2.96309 0
M  V30 5792 H 532.64 -0.204952 1.42534 0
M  V30 5793 H 534.593 -2.86258 3.09248 0
M  V30 5794 H 533.317 -2.6826 1.8629 0
M  V30 5795 H 531.976 -1.25297 3.44523 0
M  V30 5796 H 531.624 -3.72809 3.37672 0
M  V30 5797 H 531.324 -3.07538 5.00694 0
M  V30 5798 H 532.848 -3.94205 4.66299 0
M  V30 5799 H 534.262 -1.80783 5.4405 0
M  V30 5800 H 532.659 -1.1558 5.88864 0
M  V30 5801 H 533.729 -0.202692 4.84476 0
M  V30 5802 N 535.072 -1.5615 -0.213296 0
M  V30 5803 C 536.483 -1.69645 -0.779582 0
M  V30 5804 C 536.834 -0.663615 -1.84636 0
M  V30 5805 O 535.959 0.183633 -2.15619 0
M  V30 5806 C 536.554 -3.07567 -1.42084 0
M  V30 5807 C 535.113 -3.22889 -1.93442 0
M  V30 5808 C 534.26 -2.65581 -0.797612 0
M  V30 5809 H 537.211 -1.58696 0.0114951 0
M  V30 5810 H 537.232 -3.03884 -2.28986 0
M  V30 5811 H 536.744 -3.82716 -0.644187 0
M  V30 5812 H 534.845 -2.52623 -2.73884 0
M  V30 5813 H 534.958 -4.30197 -2.10872 0
M  V30 5814 H 533.322 -2.24278 -1.20712 0
M  V30 5815 H 534.105 -3.43284 -0.033494 0
M  V30 5816 N 536.55 0.480323 -1.50102 0
M  V30 5817 C 537.48 1.58769 -1.71215 0
M  V30 5818 C 538.461 1.60583 -0.560997 0
M  V30 5819 O 539.646 1.76996 -0.799127 0
M  V30 5820 C 536.776 2.97148 -1.79778 0
M  V30 5821 C 535.73 3.10201 -2.94888 0
M  V30 5822 C 535.056 4.50137 -2.88584 0
M  V30 5823 C 536.356 2.88283 -4.35534 0
M  V30 5824 H 538.05 1.41354 -2.6393 0
M  V30 5825 H 535.596 0.678591 -1.27008 0
M  V30 5826 H 537.549 3.74536 -1.93133 0
M  V30 5827 H 536.273 3.15699 -0.836772 0
M  V30 5828 H 534.932 2.35244 -2.81169 0
M  V30 5829 H 534.58 4.65593 -1.90349 0
M  V30 5830 H 534.28 4.59808 -3.65856 0
M  V30 5831 H 535.804 5.29558 -3.03976 0
M  V30 5832 H 537.218 3.55427 -4.49827 0
M  V30 5833 H 535.615 3.09408 -5.14186 0
M  V30 5834 H 536.685 1.84219 -4.48544 0
M  V30 5835 N 538.028 1.39524 0.732853 0
M  V30 5836 C 538.958 1.41153 1.86005 0
M  V30 5837 C 539.939 0.274614 1.67869 0
M  V30 5838 O 541.124 0.480745 1.88155 0
M  V30 5839 C 538.254 1.25638 3.23778 0
M  V30 5840 C 537.208 2.36752 3.56556 0
M  V30 5841 C 536.534 2.06326 4.93289 0
M  V30 5842 C 537.834 3.79069 3.5931 0
M  V30 5843 H 539.528 2.35484 1.84899 0
M  V30 5844 H 537.074 1.13348 0.888162 0
M  V30 5845 H 539.027 1.25398 4.0231 0
M  V30 5846 H 537.751 0.277772 3.25417 0
M  V30 5847 H 536.41 2.36213 2.80355 0
M  V30 5848 H 536.058 1.06897 4.9151 0
M  V30 5849 H 535.758 2.80757 5.16187 0
M  V30 5850 H 537.282 2.07739 5.74175 0
M  V30 5851 H 538.696 3.81526 4.27914 0
M  V30 5852 H 537.093 4.52878 3.93728 0
M  V30 5853 H 538.163 4.09893 2.59068 0
M  V30 5854 N 539.506 -0.963266 1.24736 0
M  V30 5855 C 540.922 -1.23273 1.01371 0
M  V30 5856 C 541.122 -1.99618 -0.274776 0
M  V30 5857 O 540.178 -2.32293 -0.989769 0
M  V30 5858 C 541.491 -2.01554 2.23152 0
M  V30 5859 C 543.039 -2.14629 2.27823 0
M  V30 5860 C 543.514 -2.96307 3.49237 0
M  V30 5861 N 545.005 -3.03887 3.49581 0
M  V30 5862 C 545.74 -3.67456 4.40186 0
M  V30 5863 N 545.236 -4.32706 5.41052 0
M  V30 5864 N 547.029 -3.64511 4.27888 0
M  V30 5865 H 539.18 -0.452294 2.07528 0
M  V30 5866 H 541.443 -0.262521 0.910926 0
M  V30 5867 H 541.149 -1.52847 3.1675 0
M  V30 5868 H 541.023 -3.02278 2.25628 0
M  V30 5869 H 543.41 -2.62537 1.34753 0
M  V30 5870 H 543.491 -1.13238 2.2937 0
M  V30 5871 H 543.135 -2.49091 4.42624 0
M  V30 5872 H 543.065 -3.97905 3.44933 0
M  V30 5873 H 545.556 -2.57477 2.76611 0
M  V30 5874 H 545.869 -4.79042 6.06415 0
M  V30 5875 H 544.214 -4.31361 5.44934 0
M  V30 5876 H 547.405 -3.12715 3.4832 0
M  V30 5877 H 547.578 -4.13768 4.98698 0
M  V30 5878 N 540.985 -1.06182 -1.16461 0
M  V30 5879 C 541.948 -0.675723 -2.19013 0
M  V30 5880 C 542.948 0.277963 -1.58379 0
M  V30 5881 O 544.138 0.0604962 -1.74095 0
M  V30 5882 C 541.27 0.00591459 -3.40899 0
M  V30 5883 H 542.463 -1.58353 -2.54685 0
M  V30 5884 H 540.016 -0.856908 -1.30716 0
M  V30 5885 H 540.751 0.92652 -3.10783 0
M  V30 5886 H 540.536 -0.67984 -3.86161 0
M  V30 5887 H 542.026 0.26181 -4.16778 0
M  V30 5888 N 542.463 1.3308 -0.844243 0
M  V30 5889 C 543.426 2.27403 -0.286485 0
M  V30 5890 C 544.426 1.51179 0.547872 0
M  V30 5891 O 545.616 1.70421 0.360886 0
M  V30 5892 C 542.748 3.35653 0.595813 0
M  V30 5893 H 543.941 2.78248 -1.11885 0
M  V30 5894 H 541.494 1.43574 -0.617749 0
M  V30 5895 H 542.229 2.90058 1.4504 0
M  V30 5896 H 542.014 3.921 -0.00125994 0
M  V30 5897 H 543.504 4.05958 0.979168 0
M  V30 5898 N 543.941 0.601185 1.45683 0
M  V30 5899 C 544.871 -0.108824 2.33246 0
M  V30 5900 C 545.852 -0.865223 1.46451 0
M  V30 5901 O 547.037 -0.83704 1.75235 0
M  V30 5902 C 544.167 -1.11101 3.2905 0
M  V30 5903 C 543.121 -0.468244 4.25431 0
M  V30 5904 C 542.447 -1.57822 5.10878 0
M  V30 5905 C 543.747 0.606469 5.18767 0
M  V30 5906 H 545.441 0.622306 2.92861 0
M  V30 5907 H 542.987 0.300714 1.40825 0
M  V30 5908 H 544.94 -1.61622 3.89174 0
M  V30 5909 H 543.664 -1.87265 2.67581 0
M  V30 5910 H 542.323 0.0160484 3.66596 0
M  V30 5911 H 541.971 -2.32998 4.45781 0
M  V30 5912 H 541.671 -1.15369 5.76163 0
M  V30 5913 H 543.195 -2.08583 5.73869 0
M  V30 5914 H 544.609 0.185589 5.73 0
M  V30 5915 H 543.006 0.952381 5.92494 0
M  V30 5916 H 544.076 1.48559 4.61582 0
M  V30 5917 N 545.419 -1.53889 0.339982 0
M  V30 5918 C 546.366 -2.24902 -0.518452 0
M  V30 5919 C 547.336 -1.24593 -1.09844 0
M  V30 5920 O 548.521 -1.53317 -1.13572 0
M  V30 5921 C 545.661 -3.02262 -1.66529 0
M  V30 5922 C 544.774 -4.17418 -1.11295 0
M  V30 5923 C 543.909 -4.82273 -2.2268 0
M  V30 5924 C 542.948 -5.89503 -1.6478 0
M  V30 5925 N 542.085 -6.48153 -2.69893 0
M  V30 5926 H 546.925 -2.97853 0.0936579 0
M  V30 5927 H 544.462 -1.46986 0.0579924 0
M  V30 5928 H 546.42 -3.45371 -2.3404 0
M  V30 5929 H 545.05 -2.31614 -2.24844 0
M  V30 5930 H 544.102 -3.78976 -0.328886 0
M  V30 5931 H 545.414 -4.94554 -0.649414 0
M  V30 5932 H 544.568 -5.28435 -2.98063 0
M  V30 5933 H 543.307 -4.04552 -2.72376 0
M  V30 5934 H 542.312 -5.42728 -0.879004 0
M  V30 5935 H 543.537 -6.6913 -1.1594 0
M  V30 5936 H 541.483 -5.73298 -3.1885 0
M  V30 5937 H 541.4 -7.20752 -2.28151 0
M  V30 5938 H 542.668 -6.98968 -3.45056 0
M  V30 5939 N 546.897 -0.0685191 -1.57451 0
M  V30 5940 C 547.807 0.914677 -2.16034 0
M  V30 5941 C 548.823 1.32938 -1.12265 0
M  V30 5942 O 549.999 1.40275 -1.44516 0
M  V30 5943 C 547.064 2.16519 -2.70777 0
M  V30 5944 C 546.125 1.80721 -3.89408 0
M  V30 5945 C 545.358 2.9981 -4.41531 0
M  V30 5946 O 545.581 4.13727 -3.92666 0
M  V30 5947 O 544.515 2.79817 -5.32903 0
M  V30 5948 H 548.341 0.446364 -3.00402 0
M  V30 5949 H 545.926 0.154367 -1.486 0
M  V30 5950 H 547.808 2.89856 -3.05878 0
M  V30 5951 H 546.483 2.62454 -1.89471 0
M  V30 5952 H 545.39 1.04646 -3.59166 0
M  V30 5953 H 546.723 1.39571 -4.71997 0
M  V30 5954 N 548.375 1.56261 0.205012 0
M  V30 5955 C 549.603 1.84141 0.943386 0
M  V30 5956 C 550.018 0.649772 1.77266 0
M  V30 5957 O 549.375 -0.381612 1.78466 0
M  V30 5958 C 549.426 3.10719 1.84759 0
M  V30 5959 O 549.147 4.25286 1.05181 0
M  V30 5960 C 550.648 3.51706 2.69848 0
M  V30 5961 H 547.868 0.611734 0.275721 0
M  V30 5962 H 550.412 2.03364 0.215253 0
M  V30 5963 H 548.567 2.93422 2.52947 0
M  V30 5964 H 548.981 4.97301 1.66709 0
M  V30 5965 H 550.455 4.43266 3.28967 0
M  V30 5966 H 550.932 2.7423 3.43067 0
M  V30 5967 H 551.538 3.71499 2.07047 0
M  V30 5968 N 549.853 -0.472356 1.50355 0
M  V30 5969 C 550.783 -1.57859 1.72055 0
M  V30 5970 C 551.764 -1.60283 0.569505 0
M  V30 5971 O 552.949 -1.7657 0.808503 0
M  V30 5972 C 550.079 -2.96191 1.81351 0
M  V30 5973 C 549.033 -3.08633 2.96529 0
M  V30 5974 C 548.359 -4.486 2.90968 0
M  V30 5975 C 549.659 -2.85969 4.37057 0
M  V30 5976 H 551.353 -1.39953 2.64676 0
M  V30 5977 H 548.899 -0.671846 1.27367 0
M  V30 5978 H 550.852 -3.73507 1.95117 0
M  V30 5979 H 549.576 -3.15251 0.853502 0
M  V30 5980 H 548.235 -2.33749 2.82413 0
M  V30 5981 H 547.883 -4.64577 1.92815 0
M  V30 5982 H 547.583 -4.57861 3.68289 0
M  V30 5983 H 549.107 -5.27938 3.0678 0
M  V30 5984 H 550.521 -3.53036 4.51706 0
M  V30 5985 H 548.918 -3.06677 5.15819 0
M  V30 5986 H 549.988 -1.81838 4.49514 0
M  V30 5987 N 551.331 -1.39911 -0.725443 0
M  V30 5988 C 552.747 -1.21725 -1.03224 0
M  V30 5989 C 552.947 -0.0855224 -2.01318 0
M  V30 5990 O 552.003 0.55976 -2.46217 0
M  V30 5991 C 553.316 -2.55511 -1.58539 0
M  V30 5992 C 554.864 -2.62439 -1.70572 0
M  V30 5993 C 555.339 -3.9647 -2.29294 0
M  V30 5994 N 556.83 -3.98159 -2.36692 0
M  V30 5995 C 557.565 -4.98647 -2.83088 0
M  V30 5996 N 557.061 -6.0953 -3.2931 0
M  V30 5997 N 558.854 -4.8602 -2.82384 0
M  V30 5998 H 551.005 -2.12267 -0.075048 0
M  V30 5999 H 553.268 -0.943136 -0.0959066 0
M  V30 6000 H 552.974 -3.38926 -0.939249 0
M  V30 6001 H 552.848 -2.75905 -2.57208 0
M  V30 6002 H 555.235 -1.79401 -2.34306 0
M  V30 6003 H 555.316 -2.45885 -0.705297 0
M  V30 6004 H 554.96 -4.79942 -1.66186 0
M  V30 6005 H 554.89 -4.10349 -3.30032 0
M  V30 6006 H 557.381 -3.18085 -2.04035 0
M  V30 6007 H 557.694 -6.82106 -3.6325 0
M  V30 6008 H 556.039 -6.1311 -3.27294 0
M  V30 6009 H 559.23 -3.98493 -2.45603 0
M  V30 6010 H 559.403 -5.64478 -3.18226 0
M  V30 6011 N 552.809 0.956637 -1.25245 0
M  V30 6012 C 553.739 2.07058 -1.07931 0
M  V30 6013 C 554.72 1.70096 0.0110361 0
M  V30 6014 O 555.905 1.93555 -0.158121 0
M  V30 6015 C 553.035 3.40272 -0.695124 0
M  V30 6016 C 551.989 3.91235 -1.73549 0
M  V30 6017 C 551.315 5.20921 -1.20604 0
M  V30 6018 C 552.615 4.17837 -3.13385 0
M  V30 6019 H 554.309 2.218 -2.01109 0
M  V30 6020 H 551.855 1.06581 -0.968326 0
M  V30 6021 H 553.808 4.1765 -0.560949 0
M  V30 6022 H 552.532 3.25462 0.272355 0
M  V30 6023 H 551.191 3.16025 -1.85807 0
M  V30 6024 H 550.839 5.02479 -0.228846 0
M  V30 6025 H 550.539 5.55987 -1.90136 0
M  V30 6026 H 552.063 6.00897 -1.08421 0
M  V30 6027 H 553.477 4.8588 -3.04292 0
M  V30 6028 H 551.874 4.64154 -3.80369 0
M  V30 6029 H 552.944 3.2419 -3.60595 0
M  V30 6030 N 554.287 1.06798 1.15896 0
M  V30 6031 C 555.517 0.807522 1.90165 0
M  V30 6032 C 555.925 -0.642417 1.7796 0
M  V30 6033 O 555.268 -1.45193 1.12537 0
M  V30 6034 C 555.33 1.12939 3.41299 0
M  V30 6035 C 554.994 2.57879 3.7729 0
M  V30 6036 C 555.991 3.56118 3.78782 0
M  V30 6037 C 553.676 2.93311 4.07767 0
M  V30 6038 C 555.67 4.87827 4.10248 0
M  V30 6039 C 553.357 4.25219 4.38899 0
M  V30 6040 C 554.355 5.22287 4.4012 0
M  V30 6041 O 554.043 6.51826 4.70508 0
M  V30 6042 H 553.775 0.291946 0.609708 0
M  V30 6043 H 556.329 1.42627 1.47806 0
M  V30 6044 H 554.559 0.45359 3.84031 0
M  V30 6045 H 556.248 0.852363 3.9685 0
M  V30 6046 H 557.014 3.30086 3.55342 0
M  V30 6047 H 552.893 2.18409 4.05979 0
M  V30 6048 H 556.437 5.63586 4.11116 0
M  V30 6049 H 552.334 4.51006 4.61805 0
M  V30 6050 H 553.102 6.56893 4.88298 0
M  V30 6051 N 555.766 -1.3263 0.851289 0
M  V30 6052 C 557.177 -1.79653 0.5081 0
M  V30 6053 C 557.528 -1.70327 -0.973815 0
M  V30 6054 O 556.653 -1.25986 -1.75944 0
M  V30 6055 C 557.248 -3.26196 0.915515 0
M  V30 6056 C 555.807 -3.71187 0.624277 0
M  V30 6057 C 554.954 -2.53804 1.11709 0
M  V30 6058 H 557.905 -1.19976 1.03882 0
M  V30 6059 H 557.926 -3.79801 0.230535 0
M  V30 6060 H 557.438 -3.32952 1.99411 0
M  V30 6061 H 555.539 -3.69948 -0.443737 0
M  V30 6062 H 555.652 -4.64132 1.18821 0
M  V30 6063 H 554.016 -2.48964 0.537484 0
M  V30 6064 H 554.799 -2.63315 2.20272 0
M  V30 6065 N 557.244 -0.608902 -1.45362 0
M  V30 6066 C 558.49 -0.104762 -2.02529 0
M  V30 6067 C 558.823 1.26191 -1.47613 0
M  V30 6068 O 558.098 1.8327 -0.65134 0
M  V30 6069 C 558.381 -0.0672661 -3.60037 0
M  V30 6070 C 558.234 -1.4647 -4.25284 0
M  V30 6071 C 559.553 0.619877 -4.35713 0
M  V30 6072 H 556.672 -0.0395438 -0.735938 0
M  V30 6073 H 559.314 -0.781126 -1.73201 0
M  V30 6074 H 557.464 0.50871 -3.85155 0
M  V30 6075 H 559.136 -2.08785 -4.11347 0
M  V30 6076 H 557.379 -2.02502 -3.83634 0
M  V30 6077 H 558.05 -1.39069 -5.34195 0
M  V30 6078 H 560.526 0.130297 -4.15896 0
M  V30 6079 H 559.402 0.615224 -5.45441 0
M  V30 6080 H 559.663 1.68621 -4.0868 0
M  V30 6081 N 558.722 1.53707 -0.348139 0
M  V30 6082 C 559.97 2.00591 0.246478 0
M  V30 6083 C 560.291 1.23753 1.50699 0
M  V30 6084 O 559.561 0.345964 1.92821 0
M  V30 6085 H 558.141 0.741053 0.0940679 0
M  V30 6086 H 560.803 1.89139 -0.470354 0
M  V30 6087 H 559.899 3.08297 0.485714 0
M  V30 6088 N 560.2 0.0768682 1.57412 0
M  V30 6089 C 561.13 -0.886026 2.16037 0
M  V30 6090 C 562.111 -1.30691 1.08876 0
M  V30 6091 O 563.296 -1.37705 1.36934 0
M  V30 6092 C 560.426 -2.1518 2.72608 0
M  V30 6093 C 559.38 -1.87015 3.8498 0
M  V30 6094 C 558.706 -3.20266 4.28175 0
M  V30 6095 C 560.006 -1.17143 5.08994 0
M  V30 6096 H 561.7 -0.397642 2.96748 0
M  V30 6097 H 559.246 -0.189823 1.42743 0
M  V30 6098 H 561.199 -2.82962 3.12266 0
M  V30 6099 H 559.923 -2.66269 1.89125 0
M  V30 6100 H 558.582 -1.21636 3.45833 0
M  V30 6101 H 558.23 -3.69207 3.41607 0
M  V30 6102 H 557.93 -3.0221 5.03927 0
M  V30 6103 H 559.454 -3.89237 4.70454 0
M  V30 6104 H 560.868 -1.75003 5.45937 0
M  V30 6105 H 559.265 -1.09328 5.90057 0
M  V30 6106 H 560.335 -0.151295 4.84664 0
M  V30 6107 N 561.678 -1.56367 -0.196722 0
M  V30 6108 C 562.925 -1.80529 -0.917366 0
M  V30 6109 C 563.253 -0.649817 -1.83324 0
M  V30 6110 O 562.508 0.36451 -1.92275 0
M  V30 6111 C 562.807 -3.10663 -1.767 0
M  V30 6112 C 562.473 -4.3962 -1.00225 0
M  V30 6113 C 561.135 -4.74653 -0.791095 0
M  V30 6114 C 563.487 -5.1913 -0.464035 0
M  V30 6115 C 560.815 -5.86692 -0.0302155 0
M  V30 6116 C 563.167 -6.31964 0.283625 0
M  V30 6117 C 561.831 -6.65581 0.505813 0
M  V30 6118 H 561.101 -0.660602 -0.335688 0
M  V30 6119 H 563.748 -1.90615 -0.183844 0
M  V30 6120 H 562.053 -2.95807 -2.56915 0
M  V30 6121 H 563.75 -3.26563 -2.32718 0
M  V30 6122 H 560.34 -4.12127 -1.17684 0
M  V30 6123 H 564.524 -4.9248 -0.614575 0
M  V30 6124 H 559.78 -6.11211 0.151917 0
M  V30 6125 H 563.954 -6.92791 0.708057 0
M  V30 6126 H 561.581 -7.52239 1.0973 0
M  V30 6127 N 563.156 0.464375 -1.50603 0
M  V30 6128 C 564.086 1.56944 -1.72889 0
M  V30 6129 C 565.067 1.59979 -0.577997 0
M  V30 6130 O 566.252 1.76138 -0.817855 0
M  V30 6131 C 563.382 2.95225 -1.8292 0
M  V30 6132 C 562.336 3.07056 -2.98162 0
M  V30 6133 C 561.662 4.47051 -2.93343 0
M  V30 6134 C 562.962 2.83648 -4.38567 0
M  V30 6135 H 564.656 1.38547 -2.65415 0
M  V30 6136 H 562.202 0.665082 -1.27721 0
M  V30 6137 H 564.155 3.72467 -1.97095 0
M  V30 6138 H 562.879 3.14793 -0.870209 0
M  V30 6139 H 561.538 2.32248 -2.83648 0
M  V30 6140 H 561.186 4.63547 -1.95276 0
M  V30 6141 H 560.886 4.55902 -3.70712 0
M  V30 6142 H 562.41 5.26304 -3.09575 0
M  V30 6143 H 563.824 3.50636 -4.53572 0
M  V30 6144 H 562.221 3.03937 -5.17438 0
M  V30 6145 H 563.291 1.79451 -4.50472 0
M  V30 6146 N 564.634 1.40294 0.718013 0
M  V30 6147 C 565.544 1.42678 1.86226 0
M  V30 6148 C 566.56 0.319655 1.71039 0
M  V30 6149 O 567.736 0.563852 1.93346 0
M  V30 6150 C 564.801 1.2852 3.21999 0
M  V30 6151 C 563.862 2.49354 3.49458 0
M  V30 6152 C 563.095 2.35863 4.78753 0
M  V30 6153 O 563.318 1.37114 5.53675 0
M  V30 6154 O 562.252 3.25189 5.06494 0
M  V30 6155 H 566.078 2.39167 1.87171 0
M  V30 6156 H 563.663 1.2159 0.868112 0
M  V30 6157 H 565.545 1.22824 4.03103 0
M  V30 6158 H 564.22 0.351359 3.21787 0
M  V30 6159 H 563.127 2.60628 2.68373 0
M  V30 6160 H 564.46 3.41491 3.54464 0
M  V30 6161 N 566.112 -0.949982 1.2575 0
M  V30 6162 C 567.528 -1.22191 1.02672 0
M  V30 6163 C 567.728 -1.99898 -0.253588 0
M  V30 6164 O 566.784 -2.33329 -0.965076 0
M  V30 6165 C 568.097 -1.99175 2.25277 0
M  V30 6166 C 569.645 -2.12201 2.30087 0
M  V30 6167 C 570.12 -2.92586 3.5236 0
M  V30 6168 N 571.611 -3.00163 3.52784 0
M  V30 6169 C 572.346 -3.62766 4.44059 0
M  V30 6170 N 571.842 -4.26943 5.45611 0
M  V30 6171 N 573.635 -3.59953 4.3173 0
M  V30 6172 H 565.786 -0.430258 2.07996 0
M  V30 6173 H 568.049 -0.252844 0.91366 0
M  V30 6174 H 567.755 -1.49479 3.18354 0
M  V30 6175 H 567.629 -2.99868 2.28821 0
M  V30 6176 H 570.016 -2.61093 1.3753 0
M  V30 6177 H 570.097 -1.10799 2.30559 0
M  V30 6178 H 569.741 -2.44383 4.45241 0
M  V30 6179 H 569.671 -3.94224 3.49134 0
M  V30 6180 H 572.162 -2.54529 2.79327 0
M  V30 6181 H 572.475 -4.72583 6.11461 0
M  V30 6182 H 570.82 -4.25557 5.49478 0
M  V30 6183 H 574.011 -3.09003 3.51617 0
M  V30 6184 H 574.184 -4.08455 5.03059 0
M  V30 6185 N 567.59 -1.07411 -1.15328 0
M  V30 6186 C 568.836 -0.798831 -1.86404 0
M  V30 6187 C 569.169 0.673433 -1.8215 0
M  V30 6188 O 568.444 1.49428 -1.24505 0
M  V30 6189 C 568.727 -1.30846 -3.35487 0
M  V30 6190 C 568.58 -2.84532 -3.4837 0
M  V30 6191 C 569.899 -0.925486 -4.30259 0
M  V30 6192 H 567.018 -0.291659 -0.676834 0
M  V30 6193 H 569.66 -1.332 -1.35491 0
M  V30 6194 H 567.81 -0.854916 -3.78977 0
M  V30 6195 H 569.482 -3.3818 -3.13739 0
M  V30 6196 H 567.725 -3.22699 -2.8991 0
M  V30 6197 H 568.396 -3.15259 -4.53118 0
M  V30 6198 H 570.872 -1.3163 -3.94731 0
M  V30 6199 H 569.748 -1.3094 -5.33053 0
M  V30 6200 H 570.009 0.168525 -4.41779 0
M  V30 6201 N 569.068 1.32177 -0.85831 0
M  V30 6202 C 570.031 2.27086 -0.310588 0
M  V30 6203 C 571.031 1.51751 0.531806 0
M  V30 6204 O 572.221 1.70794 0.34279 0
M  V30 6205 C 569.353 3.36266 0.560179 0
M  V30 6206 H 570.546 2.77045 -1.1483 0
M  V30 6207 H 568.099 1.42911 -0.632942 0
M  V30 6208 H 568.834 2.9158 1.41956 0
M  V30 6209 H 568.619 3.92077 -0.0428473 0
M  V30 6210 H 570.109 4.06974 0.936056 0
M  V30 6211 N 570.547 0.616602 1.45037 0
M  V30 6212 C 571.772 0.120192 2.07051 0
M  V30 6213 C 572.197 -1.19008 1.45666 0
M  V30 6214 O 571.555 -1.7267 0.552692 0
M  V30 6215 C 571.603 0.00354901 3.606 0
M  V30 6216 O 570.707 -1.04431 3.98958 0
M  V30 6217 H 570.048 0.0781599 0.659384 0
M  V30 6218 H 572.578 0.849167 1.86146 0
M  V30 6219 H 572.588 -0.191754 4.07549 0
M  V30 6220 H 571.263 0.960239 4.04663 0
M  V30 6221 H 569.84 -0.824749 3.63665 0
M  V30 6222 N 572.025 -1.5352 0.356285 0
M  V30 6223 C 573.25 -2.06007 -0.239961 0
M  V30 6224 C 573.675 -1.22872 -1.42422 0
M  V30 6225 O 573.033 -0.245516 -1.7963 0
M  V30 6226 C 573.081 -3.5522 -0.620587 0
M  V30 6227 O 572.185 -3.74864 -1.71902 0
M  V30 6228 H 571.526 -0.662961 -0.0371377 0
M  V30 6229 H 574.056 -1.98033 0.514194 0
M  V30 6230 H 574.066 -3.98081 -0.894197 0
M  V30 6231 H 572.741 -4.15175 0.245407 0
M  V30 6232 H 571.318 -3.43904 -1.44169 0
M  V30 6233 N 573.503 -0.0852151 -1.57369 0
M  V30 6234 C 574.78 0.622534 -1.85429 0
M  V30 6235 C 575.16 1.86962 -0.980229 0
M  V30 6236 O 574.508 2.28445 -0.0500219 0
M  V30 6237 C 574.718 0.947374 -3.35896 0
M  V30 6238 C 576.066 1.31509 -4.03721 0
M  V30 6239 O 577.09 1.03869 -3.40719 0
M  V30 6240 O 575.949 1.83231 -5.14868 0
M  V30 6241 H 573.043 0.310513 -0.766492 0
M  V30 6242 H 575.589 -0.117164 -1.69295 0
M  V30 6243 H 574.361 0.0622264 -3.91251 0
M  V30 6244 H 573.984 1.74338 -3.5734 0
M  V30 6245 N 574.981 1.5647 0.188427 0
M  V30 6246 C 575.911 1.98101 1.23606 0
M  V30 6247 C 576.892 0.853961 1.47111 0
M  V30 6248 O 578.077 1.11879 1.58735 0
M  V30 6249 C 575.207 2.32624 2.57882 0
M  V30 6250 C 574.161 3.48129 2.48978 0
M  V30 6251 C 573.487 3.68347 3.87588 0
M  V30 6252 C 574.787 4.82112 2.00911 0
M  V30 6253 H 576.481 2.85864 0.890068 0
M  V30 6254 H 574.027 1.37532 0.426714 0
M  V30 6255 H 575.98 2.60343 3.3136 0
M  V30 6256 H 574.704 1.41751 2.94235 0
M  V30 6257 H 573.363 3.20511 1.77956 0
M  V30 6258 H 573.011 2.74793 4.21305 0
M  V30 6259 H 572.711 4.46055 3.82503 0
M  V30 6260 H 574.235 3.98449 4.62678 0
M  V30 6261 H 575.649 5.08819 2.64151 0
M  V30 6262 H 574.046 5.63337 2.06814 0
M  V30 6263 H 575.116 4.75249 0.96262 0
M  V30 6264 N 576.459 -0.456382 1.50847 0
M  V30 6265 C 577.705 -1.20914 1.62811 0
M  V30 6266 C 578.038 -1.91301 0.334304 0
M  V30 6267 O 577.313 -1.82775 -0.665098 0
M  V30 6268 C 577.596 -2.24122 2.81853 0
M  V30 6269 C 577.449 -1.57944 4.21158 0
M  V30 6270 C 578.768 -3.25295 2.96431 0
M  V30 6271 H 575.887 -0.438233 0.592554 0
M  V30 6272 H 578.529 -0.50091 1.83278 0
M  V30 6273 H 576.679 -2.84524 2.64534 0
M  V30 6274 H 578.351 -1.01025 4.50102 0
M  V30 6275 H 576.594 -0.882185 4.24735 0
M  V30 6276 H 577.265 -2.33014 5.00408 0
M  V30 6277 H 579.741 -2.7493 3.12335 0
M  V30 6278 H 578.617 -3.94822 3.81322 0
M  V30 6279 H 578.878 -3.90286 2.07676 0
M  V30 6280 N 577.937 -1.40673 -0.710563 0
M  V30 6281 C 578.867 -1.44095 -1.83736 0
M  V30 6282 C 579.848 -0.301286 -1.67411 0
M  V30 6283 O 581.033 -0.510618 -1.87367 0
M  V30 6284 C 578.163 -1.30773 -3.21738 0
M  V30 6285 C 577.117 -2.42395 -3.52745 0
M  V30 6286 C 576.443 -2.14147 -4.89944 0
M  V30 6287 C 577.743 -3.84738 -3.53234 0
M  V30 6288 H 579.437 -2.38396 -1.81129 0
M  V30 6289 H 576.983 -1.14746 -0.870017 0
M  V30 6290 H 578.936 -1.31783 -4.00264 0
M  V30 6291 H 577.66 -0.329507 -3.24934 0
M  V30 6292 H 576.319 -2.40643 -2.76562 0
M  V30 6293 H 575.967 -1.14703 -4.89747 0
M  V30 6294 H 575.667 -2.88934 -5.11655 0
M  V30 6295 H 577.191 -2.16848 -5.70797 0
M  V30 6296 H 578.605 -3.88286 -4.2179 0
M  V30 6297 H 577.002 -4.59085 -3.86473 0
M  V30 6298 H 578.072 -4.13962 -2.52514 0
M  V30 6299 N 579.415 0.9433 -1.26252 0
M  V30 6300 C 580.347 2.04542 -1.03417 0
M  V30 6301 C 581.36 1.62799 0.0046911 0
M  V30 6302 O 582.549 1.76944 -0.235146 0
M  V30 6303 C 579.649 3.34511 -0.543671 0
M  V30 6304 C 578.822 4.05033 -1.65128 0
M  V30 6305 C 577.881 5.13273 -1.1592 0
M  V30 6306 O 576.907 5.38095 -1.85586 0
M  V30 6307 N 578.109 5.805 -0.00649279 0
M  V30 6308 H 580.874 2.24699 -1.98319 0
M  V30 6309 H 578.435 1.11264 -1.1761 0
M  V30 6310 H 580.427 4.04212 -0.198703 0
M  V30 6311 H 578.997 3.11042 0.311711 0
M  V30 6312 H 578.217 3.29275 -2.16729 0
M  V30 6313 H 579.505 4.48903 -2.39508 0
M  V30 6314 H 578.903 5.62767 0.575347 0
M  V30 6315 H 577.46 6.51201 0.279416 0
M  V30 6316 N 580.893 1.08022 1.14757 0
M  V30 6317 C 581.841 0.701088 2.21783 0
M  V30 6318 C 582.835 -0.291311 1.66876 0
M  V30 6319 O 584.041 -0.154296 1.79337 0
M  V30 6320 H 580.416 0.208668 0.722469 0
M  V30 6321 H 582.387 1.61321 2.51034 0
M  V30 6322 C 581.136 0.122278 3.47485 0
M  V30 6323 H 580.459 0.877065 3.90061 0
M  V30 6324 H 581.899 -0.105248 4.23869 0
M  V30 6325 C 580.358 -1.13883 3.17068 0
M  V30 6326 O 580.888 -2.22429 3.34497 0
M  V30 6327 N 579.094 -1.04767 2.71058 0
M  V30 6328 H 578.641 -0.164302 2.57075 0
M  V30 6329 H 578.599 -1.89224 2.51081 0
M  V30 6330 N 582.371 -1.3172 0.865308 0
M  V30 6331 C 583.601 -2.00765 0.487543 0
M  V30 6332 C 584.009 -1.65145 -0.92325 0
M  V30 6333 O 583.352 -0.874294 -1.61561 0
M  V30 6334 C 583.414 -3.55122 0.559369 0
M  V30 6335 C 583.078 -4.14202 1.93095 0
M  V30 6336 C 584.075 -4.3165 2.89784 0
M  V30 6337 C 581.76 -4.50036 2.23099 0
M  V30 6338 C 583.754 -4.84114 4.14623 0
M  V30 6339 C 581.441 -5.02203 3.48189 0
M  V30 6340 C 582.439 -5.19192 4.43767 0
M  V30 6341 O 582.127 -5.70241 5.6664 0
M  V30 6342 H 581.859 -0.649066 0.188915 0
M  V30 6343 H 584.413 -1.69032 1.16694 0
M  V30 6344 H 582.643 -3.86295 -0.176926 0
M  V30 6345 H 584.332 -4.05428 0.195694 0
M  V30 6346 H 585.098 -4.04288 2.6791 0
M  V30 6347 H 580.977 -4.36091 1.49485 0
M  V30 6348 H 584.521 -4.9729 4.89233 0
M  V30 6349 H 580.418 -5.28997 3.69908 0
M  V30 6350 H 581.186 -5.88617 5.68746 0
M  V30 6351 N 583.85 -0.624285 -1.44708 0
M  V30 6352 C 584.8 0.106466 -2.27751 0
M  V30 6353 C 585.784 0.822703 -1.38277 0
M  V30 6354 O 586.976 0.709939 -1.62138 0
M  V30 6355 C 584.105 1.092 -3.25469 0
M  V30 6356 C 583.191 0.375737 -4.22432 0
M  V30 6357 N 583.582 -0.591881 -5.02325 0
M  V30 6358 C 581.88 0.621093 -4.41654 0
M  V30 6359 C 582.581 -1.01443 -5.72786 0
M  V30 6360 N 581.557 -0.354651 -5.42442 0
M  V30 6361 H 585.359 -0.636464 -2.86926 0
M  V30 6362 H 582.873 -0.44925 -1.56062 0
M  V30 6363 H 584.87 1.63006 -3.83712 0
M  V30 6364 H 583.529 1.8353 -2.67856 0
M  V30 6365 H 584.541 -0.969389 -5.08747 0
M  V30 6366 H 581.218 1.34779 -3.95147 0
M  V30 6367 H 582.608 -1.81345 -6.46965 0
M  V30 6368 N 585.328 1.53329 -0.364422 0
M  V30 6369 C 586.577 2.00421 0.226747 0
M  V30 6370 C 586.89 1.25581 1.49963 0
M  V30 6371 O 588.096 1.63256 2.16933 0
M  V30 6372 C 586.552 3.57017 0.454618 0
M  V30 6373 C 586.16 4.40734 -0.803568 0
M  V30 6374 C 587.904 4.12468 1.00351 0
M  V30 6375 C 585.811 5.8888 -0.545345 0
M  V30 6376 H 584.741 0.748787 0.0885082 0
M  V30 6377 H 587.392 1.7703 -0.482983 0
M  V30 6378 H 585.774 3.76558 1.22558 0
M  V30 6379 H 586.948 4.32967 -1.57723 0
M  V30 6380 H 585.263 3.96381 -1.27559 0
M  V30 6381 H 587.86 5.20783 1.212 0
M  V30 6382 H 588.203 3.6699 1.9653 0
M  V30 6383 H 588.736 3.96721 0.29274 0
M  V30 6384 H 585.475 6.38633 -1.47743 0
M  V30 6385 H 584.995 5.99499 0.189842 0
M  V30 6386 H 586.674 6.46776 -0.170425 0
M  V30 6387 N 586.806 0.0935595 1.57322 0
M  V30 6388 C 588.217 -0.435807 1.81542 0
M  V30 6389 C 588.568 -1.68263 1.00907 0
M  V30 6390 O 587.693 -2.15087 0.237983 0
M  V30 6391 C 588.288 -0.797436 3.29282 0
M  V30 6392 C 586.847 -1.27155 3.54272 0
M  V30 6393 C 585.994 -0.267455 2.76007 0
M  V30 6394 H 588.945 0.31902 1.5546 0
M  V30 6395 H 588.966 -1.6571 3.42521 0
M  V30 6396 H 588.478 0.110206 3.87943 0
M  V30 6397 H 586.579 -2.19696 3.00939 0
M  V30 6398 H 586.692 -1.23445 4.62923 0
M  V30 6399 H 585.056 -0.749282 2.43429 0
M  V30 6400 H 585.839 0.632839 3.37417 0
M  V30 6401 N 588.284 -1.56567 -0.180126 0
M  V30 6402 C 589.247 -1.94852 -1.20686 0
M  V30 6403 C 590.247 -0.831212 -1.3765 0
M  V30 6404 O 591.437 -1.09841 -1.35206 0
M  V30 6405 C 588.569 -2.23565 -2.57355 0
M  V30 6406 H 589.762 -2.86722 -0.879225 0
M  V30 6407 H 587.315 -1.50489 -0.422237 0
M  V30 6408 H 588.05 -1.34381 -2.95148 0
M  V30 6409 H 587.835 -3.04999 -2.46411 0
M  V30 6410 H 589.325 -2.54137 -3.31367 0
M  V30 6411 N 589.762 0.448376 -1.51087 0
M  V30 6412 C 591.01 1.19635 -1.62886 0
M  V30 6413 C 591.331 1.91977 -0.342024 0
M  V30 6414 O 590.601 1.85094 0.641636 0
M  V30 6415 H 589.181 0.444598 -0.600285 0
M  V30 6416 H 591.843 0.515138 -1.87969 0
M  V30 6417 H 590.939 1.93194 -2.45117 0
M  V30 6418 N 591.24 1.41047 0.703093 0
M  V30 6419 C 592.468 1.4334 1.49202 0
M  V30 6420 C 592.883 0.0365596 1.88765 0
M  V30 6421 O 592.24 -0.942419 1.56284 0
M  V30 6422 C 592.291 2.33538 2.75939 0
M  V30 6423 O 592.012 3.67786 2.38045 0
M  V30 6424 C 593.513 2.44555 3.6974 0
M  V30 6425 H 590.733 0.488472 0.460039 0
M  V30 6426 H 593.277 1.85245 0.86629 0
M  V30 6427 H 591.432 1.94962 3.34766 0
M  V30 6428 H 591.846 4.15816 3.19683 0
M  V30 6429 H 593.32 3.11849 4.55471 0
M  V30 6430 H 593.797 1.47447 4.1371 0
M  V30 6431 H 594.403 2.83735 3.16819 0
M  V30 6432 N 592.718 -0.936591 1.26751 0
M  V30 6433 C 593.648 -2.05315 1.11212 0
M  V30 6434 C 594.629 -1.70092 0.0160262 0
M  V30 6435 O 595.814 -1.93279 0.188894 0
M  V30 6436 C 592.944 -3.39123 0.749171 0
M  V30 6437 C 591.898 -3.88425 1.79751 0
M  V30 6438 C 591.224 -5.18936 1.28876 0
M  V30 6439 C 592.524 -4.12798 3.19992 0
M  V30 6440 H 594.218 -2.18573 2.04613 0
M  V30 6441 H 591.764 -1.05027 0.985159 0
M  V30 6442 H 593.717 -4.16704 0.627323 0
M  V30 6443 H 592.441 -3.25855 -0.220543 0
M  V30 6444 H 591.1 -3.13028 1.90811 0
M  V30 6445 H 590.748 -5.02051 0.308757 0
M  V30 6446 H 590.448 -5.52892 1.98958 0
M  V30 6447 H 591.972 -5.99096 1.17967 0
M  V30 6448 H 593.386 -4.80977 3.11983 0
M  V30 6449 H 591.783 -4.58044 3.87705 0
M  V30 6450 H 592.853 -3.18412 3.65707 0
M  V30 6451 N 594.196 -1.08629 -1.14182 0
M  V30 6452 C 595.442 -0.818556 -1.85546 0
M  V30 6453 C 595.775 0.654076 -1.82854 0
M  V30 6454 O 595.05 1.48099 -1.26083 0
M  V30 6455 C 595.333 -1.34397 -3.3408 0
M  V30 6456 C 595.186 -2.8821 -3.45333 0
M  V30 6457 C 596.505 -0.971069 -4.29253 0
M  V30 6458 H 593.624 -0.298821 -0.673702 0
M  V30 6459 H 596.266 -1.34629 -1.34071 0
M  V30 6460 H 594.416 -0.895064 -3.78049 0
M  V30 6461 H 596.088 -3.41488 -3.10134 0
M  V30 6462 H 594.331 -3.25756 -2.86471 0
M  V30 6463 H 595.002 -3.20047 -4.49749 0
M  V30 6464 H 597.478 -1.35809 -3.93313 0
M  V30 6465 H 596.354 -1.36586 -5.31635 0
M  V30 6466 H 596.615 0.121659 -4.41933 0
M  V30 6467 N 595.674 1.31259 -0.872281 0
M  V30 6468 C 597.09 1.49283 -0.564521 0
M  V30 6469 C 597.29 1.80243 0.900807 0
M  V30 6470 O 596.346 1.88246 1.68284 0
M  V30 6471 C 597.659 2.62503 -1.46673 0
M  V30 6472 C 599.207 2.76386 -1.46901 0
M  V30 6473 C 599.682 3.92705 -2.35684 0
M  V30 6474 N 601.173 3.99995 -2.33577 0
M  V30 6475 C 601.908 4.89276 -2.98992 0
M  V30 6476 N 601.404 5.83443 -3.73585 0
M  V30 6477 N 603.197 4.82541 -2.88289 0
M  V30 6478 H 595.348 1.09432 -1.82039 0
M  V30 6479 H 597.611 0.540949 -0.77851 0
M  V30 6480 H 597.317 2.46407 -2.50951 0
M  V30 6481 H 597.191 3.58695 -1.16696 0
M  V30 6482 H 599.578 2.91894 -0.433796 0
M  V30 6483 H 599.659 1.80853 -1.80903 0
M  V30 6484 H 599.303 3.77954 -3.39283 0
M  V30 6485 H 599.233 4.87549 -1.99006 0
M  V30 6486 H 601.724 3.32624 -1.7936 0
M  V30 6487 H 602.037 6.48303 -4.20622 0
M  V30 6488 H 600.382 5.83415 -3.77694 0
M  V30 6489 H 603.573 4.07951 -2.2955 0
M  V30 6490 H 603.746 5.51916 -3.39549 0
M  V30 6491 N 597.152 0.631951 1.44375 0
M  V30 6492 C 598.398 0.13697 2.02337 0
M  V30 6493 C 598.731 -1.23826 1.49602 0
M  V30 6494 O 598.006 -1.8221 0.680415 0
M  V30 6495 C 598.289 0.124536 3.59885 0
M  V30 6496 C 598.142 1.53217 4.229 0
M  V30 6497 C 599.461 -0.550481 4.36644 0
M  V30 6498 H 596.58 0.051247 0.735216 0
M  V30 6499 H 599.222 0.808581 1.71936 0
M  V30 6500 H 597.372 -0.44737 3.85916 0
M  V30 6501 H 599.044 2.15303 4.07973 0
M  V30 6502 H 597.287 2.0858 3.80364 0
M  V30 6503 H 597.958 1.4755 5.31914 0
M  V30 6504 H 600.434 -0.0641154 4.16051 0
M  V30 6505 H 599.31 -0.528371 5.46351 0
M  V30 6506 H 599.571 -1.62097 4.11311 0
M  V30 6507 N 598.631 -1.53133 0.372548 0
M  V30 6508 C 599.878 -2.01356 -0.214959 0
M  V30 6509 C 600.206 -1.2596 -1.48204 0
M  V30 6510 O 599.461 -0.343511 -1.92662 0
M  V30 6511 C 599.76 -3.53206 -0.545938 0
M  V30 6512 C 599.426 -4.46511 0.627624 0
M  V30 6513 C 598.088 -4.71737 0.949615 0
M  V30 6514 C 600.44 -5.01666 1.41353 0
M  V30 6515 C 597.768 -5.4937 2.05936 0
M  V30 6516 C 600.12 -5.80511 2.51375 0
M  V30 6517 C 598.784 -6.04022 2.84101 0
M  V30 6518 H 598.054 -0.736813 -0.078659 0
M  V30 6519 H 600.701 -1.84682 0.506447 0
M  V30 6520 H 599.006 -3.67864 -1.34845 0
M  V30 6521 H 600.703 -3.87997 -1.01287 0
M  V30 6522 H 597.293 -4.27029 0.366635 0
M  V30 6523 H 601.477 -4.82117 1.17802 0
M  V30 6524 H 596.733 -5.65803 2.31682 0
M  V30 6525 H 600.907 -6.22255 3.12684 0
M  V30 6526 H 598.534 -6.63962 3.70214 0
M  V30 6527 N 600.109 -0.101901 -1.5727 0
M  V30 6528 C 601.039 0.851544 -2.17419 0
M  V30 6529 C 602.02 1.28942 -1.10941 0
M  V30 6530 O 603.205 1.35509 -1.39107 0
M  V30 6531 C 600.335 2.10816 -2.75996 0
M  V30 6532 C 599.289 1.80867 -3.87906 0
M  V30 6533 C 598.615 3.13413 -4.33216 0
M  V30 6534 C 599.915 1.0903 -5.10793 0
M  V30 6535 H 601.609 0.350381 -2.97343 0
M  V30 6536 H 599.155 0.16709 -1.43027 0
M  V30 6537 H 601.108 2.77959 -3.16729 0
M  V30 6538 H 599.832 2.63227 -1.93337 0
M  V30 6539 H 598.491 1.16119 -3.47724 0
M  V30 6540 H 598.139 3.63725 -3.47438 0
M  V30 6541 H 597.839 2.94155 -5.08671 0
M  V30 6542 H 599.363 3.81704 -4.76586 0
M  V30 6543 H 600.777 1.66295 -5.48652 0
M  V30 6544 H 599.174 0.99927 -5.91722 0
M  V30 6545 H 600.244 0.0741704 -4.84843 0
M  V30 6546 N 601.587 1.56661 0.17182 0
M  V30 6547 C 602.817 1.85831 0.902804 0
M  V30 6548 C 603.225 0.685157 1.76358 0
M  V30 6549 O 602.568 -0.354947 1.80238 0
M  V30 6550 C 602.63 3.09406 1.83053 0
M  V30 6551 C 602.294 4.4231 1.1494 0
M  V30 6552 C 603.291 5.17342 0.515104 0
M  V30 6553 C 600.976 4.89045 1.14631 0
M  V30 6554 C 602.97 6.37299 -0.113194 0
M  V30 6555 C 600.657 6.08933 0.514184 0
M  V30 6556 C 601.655 6.82904 -0.114463 0
M  V30 6557 O 601.343 8.00518 -0.736622 0
M  V30 6558 H 601.075 0.620715 0.267748 0
M  V30 6559 H 603.629 2.04637 0.176918 0
M  V30 6560 H 601.859 2.86544 2.59672 0
M  V30 6561 H 603.548 3.25027 2.4313 0
M  V30 6562 H 604.314 4.82317 0.509474 0
M  V30 6563 H 600.193 4.31409 1.62502 0
M  V30 6564 H 603.737 6.94976 -0.604477 0
M  V30 6565 H 599.634 6.43423 0.517395 0
M  V30 6566 H 600.402 8.16027 -0.635822 0
M  V30 6567 N 603.065 -0.440357 1.51323 0
M  V30 6568 C 604.29 -1.21716 1.67928 0
M  V30 6569 C 604.715 -1.84328 0.374826 0
M  V30 6570 O 604.073 -1.68675 -0.664706 0
M  V30 6571 C 604.121 -2.27914 2.79442 0
M  V30 6572 O 603.225 -3.33325 2.42834 0
M  V30 6573 H 602.566 -0.35674 0.560029 0
M  V30 6574 H 605.096 -0.520417 1.97871 0
M  V30 6575 H 605.106 -2.72746 3.03436 0
M  V30 6576 H 603.781 -1.8172 3.741 0
M  V30 6577 H 602.358 -2.9399 2.294 0
M  V30 6578 N 604.543 -1.41418 -0.695603 0
M  V30 6579 C 605.473 -1.46035 -1.82197 0
M  V30 6580 C 606.454 -0.319025 -1.67082 0
M  V30 6581 O 607.639 -0.530462 -1.86815 0
M  V30 6582 C 604.769 -1.34179 -3.20333 0
M  V30 6583 C 603.723 -2.46123 -3.50154 0
M  V30 6584 C 603.049 -2.19332 -4.87645 0
M  V30 6585 C 604.349 -3.88463 -3.49133 0
M  V30 6586 H 606.043 -2.40303 -1.78591 0
M  V30 6587 H 603.589 -1.15663 -0.857797 0
M  V30 6588 H 605.542 -1.36021 -3.98844 0
M  V30 6589 H 604.266 -0.363952 -3.24566 0
M  V30 6590 H 602.925 -2.43563 -2.73994 0
M  V30 6591 H 602.573 -1.19891 -4.88503 0
M  V30 6592 H 602.273 -2.94344 -5.08562 0
M  V30 6593 H 603.797 -2.22889 -5.68465 0
M  V30 6594 H 605.211 -3.92738 -4.17648 0
M  V30 6595 H 603.608 -4.63158 -3.81582 0
M  V30 6596 H 604.678 -4.16617 -2.48109 0
M  V30 6597 N 606.021 0.929856 -1.27246 0
M  V30 6598 C 607.269 1.674 -1.13233 0
M  V30 6599 C 607.59 1.92311 0.322744 0
M  V30 6600 O 606.86 1.52784 1.22612 0
M  V30 6601 H 605.44 0.620411 -0.416052 0
M  V30 6602 H 608.102 1.11663 -1.59741 0
M  V30 6603 H 607.198 2.64308 -1.65975 0
M  V30 6604 N 607.499 1.09233 1.13605 0
M  V30 6605 C 608.915 0.82163 1.36826 0
M  V30 6606 C 609.115 -0.565021 1.93416 0
M  V30 6607 O 608.171 -1.32026 2.15234 0
M  V30 6608 C 609.484 1.91124 2.32147 0
M  V30 6609 C 611.032 1.93824 2.45767 0
M  V30 6610 C 611.507 3.01923 3.44393 0
M  V30 6611 N 612.998 3.01149 3.51942 0
M  V30 6612 C 613.733 3.81434 4.2813 0
M  V30 6613 N 613.229 4.71621 5.07489 0
M  V30 6614 N 615.022 3.69702 4.23411 0
M  V30 6615 H 607.173 1.98633 0.752234 0
M  V30 6616 H 609.436 0.862482 0.393482 0
M  V30 6617 H 609.142 2.90862 1.97717 0
M  V30 6618 H 609.016 1.78777 3.32142 0
M  V30 6619 H 611.403 0.94726 2.79483 0
M  V30 6620 H 611.484 2.10248 1.45703 0
M  V30 6621 H 611.128 4.01232 3.11408 0
M  V30 6622 H 611.058 2.82742 4.44257 0
M  V30 6623 H 613.549 2.35789 2.95317 0
M  V30 6624 H 613.862 5.29468 5.62924 0
M  V30 6625 H 612.207 4.75658 5.06729 0
M  V30 6626 H 615.398 2.98606 3.60489 0
M  V30 6627 H 615.571 4.32509 4.82535 0
M  V30 6628 N 608.977 -1.30795 0.87923 0
M  V30 6629 C 609.925 -2.30231 0.331112 0
M  V30 6630 C 610.919 -1.59918 -0.558794 0
M  V30 6631 O 612.125 -1.74441 -0.443866 0
M  V30 6632 H 608.5 -0.746785 0.088409 0
M  V30 6633 H 610.471 -2.73925 1.18353 0
M  V30 6634 C 609.22 -3.44848 -0.444401 0
M  V30 6635 H 608.543 -3.99131 0.231106 0
M  V30 6636 H 609.983 -4.16516 -0.793109 0
M  V30 6637 C 608.442 -2.94329 -1.63926 0
M  V30 6638 O 608.972 -2.93875 -2.73862 0
M  V30 6639 N 607.178 -2.50413 -1.4745 0
M  V30 6640 H 606.725 -2.50982 -0.58015 0
M  V30 6641 H 606.683 -2.16969 -2.27534 0
M  V30 6642 N 610.455 -0.639598 -1.44038 0
M  V30 6643 C 611.866 -0.228866 -1.85292 0
M  V30 6644 C 612.217 1.22161 -1.53529 0
M  V30 6645 O 611.342 1.93064 -0.977518 0
M  V30 6646 C 611.937 -0.408592 -3.36327 0
M  V30 6647 C 610.496 -0.0522953 -3.76364 0
M  V30 6648 C 609.643 -0.717959 -2.67844 0
M  V30 6649 H 612.594 -0.844194 -1.34384 0
M  V30 6650 H 612.615 0.349968 -3.78887 0
M  V30 6651 H 612.127 -1.46435 -3.59414 0
M  V30 6652 H 610.228 1.0014 -3.58891 0
M  V30 6653 H 610.341 -0.468261 -4.76806 0
M  V30 6654 H 608.705 -0.152459 -2.54243 0
M  V30 6655 H 609.488 -1.77648 -2.93762 0
M  V30 6656 N 611.933 1.52934 -0.380664 0
M  V30 6657 C 612.896 2.24809 0.446473 0
M  V30 6658 C 613.896 1.26133 0.997347 0
M  V30 6659 O 615.086 1.50297 0.880714 0
M  V30 6660 C 612.218 2.99649 1.62553 0
M  V30 6661 H 613.411 2.99343 -0.182677 0
M  V30 6662 H 610.964 1.55736 -0.132618 0
M  V30 6663 H 611.699 2.29395 2.29235 0
M  V30 6664 H 611.484 3.72066 1.23732 0
M  V30 6665 H 612.974 3.54246 2.21133 0
M  V30 6666 N 613.412 0.11024 1.57214 0
M  V30 6667 C 614.342 -0.840002 2.17867 0
M  V30 6668 C 615.323 -1.28352 1.11624 0
M  V30 6669 O 616.508 -1.3477 1.39824 0
M  V30 6670 C 613.638 -2.09349 2.77111 0
M  V30 6671 C 612.592 -1.78807 3.8886 0
M  V30 6672 C 611.918 -3.11112 4.34872 0
M  V30 6673 C 613.218 -1.0632 5.11364 0
M  V30 6674 H 614.912 -0.334608 2.97524 0
M  V30 6675 H 612.458 -0.159502 1.43114 0
M  V30 6676 H 614.411 -2.76275 3.18198 0
M  V30 6677 H 613.135 -2.62198 1.9473 0
M  V30 6678 H 611.794 -1.14273 3.48335 0
M  V30 6679 H 611.442 -3.61877 3.49362 0
M  V30 6680 H 611.142 -2.91453 5.10224 0
M  V30 6681 H 612.666 -3.79171 4.78604 0
M  V30 6682 H 614.08 -1.63383 5.49526 0
M  V30 6683 H 612.477 -0.967876 5.92243 0
M  V30 6684 H 613.547 -0.0484569 4.84876 0
M  V30 6685 N 614.89 -1.56749 -0.16351 0
M  V30 6686 C 616.137 -1.82434 -0.878866 0
M  V30 6687 C 616.465 -0.688557 -1.81904 0
M  V30 6688 O 615.72 0.323644 -1.93005 0
M  V30 6689 C 616.019 -3.14342 -1.70071 0
M  V30 6690 C 615.685 -4.41647 -0.908775 0
M  V30 6691 C 614.347 -4.76224 -0.690236 0
M  V30 6692 C 616.699 -5.19998 -0.353815 0
M  V30 6693 C 614.027 -5.86624 0.0942374 0
M  V30 6694 C 616.379 -6.3122 0.41761 0
M  V30 6695 C 615.043 -6.64358 0.646879 0
M  V30 6696 H 614.313 -0.667574 -0.3216 0
M  V30 6697 H 616.96 -1.90963 -0.14337 0
M  V30 6698 H 615.265 -3.0119 -2.50583 0
M  V30 6699 H 616.962 -3.31426 -2.25738 0
M  V30 6700 H 613.552 -4.1453 -1.08916 0
M  V30 6701 H 617.736 -4.93673 -0.509975 0
M  V30 6702 H 612.992 -6.10751 0.281529 0
M  V30 6703 H 617.166 -6.91133 0.854849 0
M  V30 6704 H 614.793 -7.49742 1.25662 0
M  V30 6705 N 616.368 0.432326 -1.51554 0
M  V30 6706 C 617.779 1.01202 -1.56892 0
M  V30 6707 C 618.13 1.92175 -0.395394 0
M  V30 6708 O 617.255 2.10844 0.487198 0
M  V30 6709 C 617.85 1.84217 -2.8434 0
M  V30 6710 C 616.409 2.37228 -2.92233 0
M  V30 6711 C 615.556 1.16576 -2.51606 0
M  V30 6712 H 618.507 0.213407 -1.57259 0
M  V30 6713 H 618.528 2.69721 -2.68385 0
M  V30 6714 H 618.04 1.17979 -3.69733 0
M  V30 6715 H 616.141 3.06905 -2.11282 0
M  V30 6716 H 616.254 2.69682 -3.95991 0
M  V30 6717 H 614.618 1.51263 -2.04919 0
M  V30 6718 H 615.401 0.519404 -3.39348 0
M  V30 6719 N 617.846 1.41785 0.688094 0
M  V30 6720 C 619.262 1.24419 0.999608 0
M  V30 6721 C 619.462 0.138868 2.01021 0
M  V30 6722 O 618.518 -0.494283 2.47615 0
M  V30 6723 C 619.831 2.59625 1.51709 0
M  V30 6724 C 621.379 2.66869 1.63554 0
M  V30 6725 C 621.854 4.0241 2.18702 0
M  V30 6726 N 623.345 4.04295 2.26053 0
M  V30 6727 C 624.08 5.05977 2.69768 0
M  V30 6728 N 623.576 6.18047 3.13033 0
M  V30 6729 N 625.369 4.93336 2.69398 0
M  V30 6730 H 617.52 2.12392 0.0187427 0
M  V30 6731 H 619.783 0.945347 0.0708673 0
M  V30 6732 H 619.489 3.41297 0.849059 0
M  V30 6733 H 619.363 2.82628 2.49803 0
M  V30 6734 H 621.75 1.8555 2.29467 0
M  V30 6735 H 621.831 2.47668 0.639857 0
M  V30 6736 H 621.475 4.8418 1.53402 0
M  V30 6737 H 621.405 4.18955 3.19037 0
M  V30 6738 H 623.896 3.23383 1.9553 0
M  V30 6739 H 624.209 6.91498 3.45038 0
M  V30 6740 H 622.554 6.21572 3.10923 0
M  V30 6741 H 625.745 4.04865 2.34952 0
M  V30 6742 H 625.918 5.72717 3.03148 0
M  V30 6743 N 619.324 -0.923095 1.27737 0
M  V30 6744 C 620.735 -1.48626 1.12993 0
M  V30 6745 C 621.086 -1.94142 -0.283439 0
M  V30 6746 O 620.211 -1.81605 -1.17681 0
M  V30 6747 C 620.806 -2.70117 2.04505 0
M  V30 6748 C 619.365 -3.22642 1.93853 0
M  V30 6749 C 618.512 -1.95368 1.96791 0
M  V30 6750 H 621.463 -0.736737 1.40563 0
M  V30 6751 H 621.484 -3.4506 1.60356 0
M  V30 6752 H 620.996 -2.36959 3.07363 0
M  V30 6753 H 619.097 -3.60549 0.939968 0
M  V30 6754 H 619.21 -3.88525 2.80331 0
M  V30 6755 H 617.574 -2.12061 1.41076 0
M  V30 6756 H 618.357 -1.64517 3.01312 0
M  V30 6757 N 620.802 -1.09834 -1.13024 0
M  V30 6758 C 621.712 -0.753731 -2.22162 0
M  V30 6759 C 622.728 0.246105 -1.72251 0
M  V30 6760 O 623.904 0.0864051 -2.01215 0
M  V30 6761 C 620.969 -0.183958 -3.46212 0
M  V30 6762 C 620.03 -1.24028 -4.10993 0
M  V30 6763 C 619.263 -0.697597 -5.29121 0
M  V30 6764 O 619.486 0.478092 -5.68393 0
M  V30 6765 O 618.42 -1.4546 -5.84059 0
M  V30 6766 H 622.246 -1.66456 -2.5402 0
M  V30 6767 H 619.831 -0.873026 -1.21238 0
M  V30 6768 H 621.713 0.130257 -4.21199 0
M  V30 6769 H 620.388 0.699823 -3.16045 0
M  V30 6770 H 619.295 -1.60725 -3.37814 0
M  V30 6771 H 620.628 -2.09685 -4.45301 0
M  V30 6772 N 622.28 1.30327 -0.886154 0
M  V30 6773 C 623.696 1.48676 -0.580323 0
M  V30 6774 C 623.896 1.81189 0.881639 0
M  V30 6775 O 622.952 1.90021 1.66278 0
M  V30 6776 C 624.265 2.60932 -1.49449 0
M  V30 6777 C 625.813 2.74812 -1.49824 0
M  V30 6778 C 626.288 3.90183 -2.39836 0
M  V30 6779 N 627.779 3.97495 -2.37806 0
M  V30 6780 C 628.514 4.86078 -3.04165 0
M  V30 6781 N 628.01 5.79448 -3.79753 0
M  V30 6782 N 629.803 4.79456 -2.93391 0
M  V30 6783 H 621.954 1.07495 -1.8319 0
M  V30 6784 H 624.217 0.532661 -0.784204 0
M  V30 6785 H 623.923 2.43731 -2.5355 0
M  V30 6786 H 623.797 3.57437 -1.20494 0
M  V30 6787 H 626.184 2.91418 -0.464731 0
M  V30 6788 H 626.265 1.78924 -1.82811 0
M  V30 6789 H 625.909 3.74334 -3.43273 0
M  V30 6790 H 625.839 4.85411 -2.04166 0
M  V30 6791 H 628.33 3.30703 -1.82877 0
M  V30 6792 H 628.643 6.43805 -4.27475 0
M  V30 6793 H 626.988 5.79376 -3.8386 0
M  V30 6794 H 630.179 4.05494 -2.33864 0
M  V30 6795 H 630.352 5.48283 -3.45383 0
M  V30 6796 N 623.758 0.647228 1.43697 0
M  V30 6797 C 624.988 0.16551 2.05936 0
M  V30 6798 C 625.396 -1.17164 1.48557 0
M  V30 6799 O 624.739 -1.73307 0.60914 0
M  V30 6800 C 624.801 -0.00648082 3.59499 0
M  V30 6801 C 624.465 1.25503 4.39429 0
M  V30 6802 C 625.462 2.18241 4.71876 0
M  V30 6803 C 623.147 1.49494 4.79538 0
M  V30 6804 C 625.141 3.33268 5.43333 0
M  V30 6805 C 622.828 2.64815 5.50742 0
M  V30 6806 C 623.826 3.56528 5.82561 0
M  V30 6807 O 623.514 4.69836 6.52311 0
M  V30 6808 H 623.246 0.0844124 0.670709 0
M  V30 6809 H 625.8 0.88638 1.8529 0
M  V30 6810 H 624.03 -0.782661 3.78697 0
M  V30 6811 H 625.719 -0.444794 4.03456 0
M  V30 6812 H 626.485 2.00946 4.41413 0
M  V30 6813 H 622.364 0.789912 4.54182 0
M  V30 6814 H 625.908 4.04874 5.68087 0
M  V30 6815 H 621.805 2.82047 5.8062 0
M  V30 6816 H 622.573 4.69024 6.70789 0
M  V30 6817 N 625.236 -1.5273 0.388769 0
M  V30 6818 C 626.184 -2.27975 -0.461527 0
M  V30 6819 C 627.178 -1.31854 -1.06352 0
M  V30 6820 O 628.384 -1.49394 -1.00406 0
M  V30 6821 H 624.759 -0.733088 -0.16759 0
M  V30 6822 H 626.73 -2.97765 0.194579 0
M  V30 6823 C 625.479 -3.09881 -1.577 0
M  V30 6824 H 624.802 -3.83701 -1.12309 0
M  V30 6825 H 626.242 -3.6567 -2.14619 0
M  V30 6826 C 624.701 -2.22159 -2.53272 0
M  V30 6827 O 625.231 -1.84802 -3.56667 0
M  V30 6828 N 623.437 -1.8633 -2.23001 0
M  V30 6829 H 622.984 -2.16909 -1.38954 0
M  V30 6830 H 622.942 -1.27927 -2.87197 0
M  V30 6831 N 626.714 -0.118576 -1.57153 0
M  V30 6832 C 628.125 0.40687 -1.82213 0
M  V30 6833 C 628.476 1.66636 -1.03571 0
M  V30 6834 O 627.601 2.14682 -0.272171 0
M  V30 6835 C 628.196 0.744949 -3.30509 0
M  V30 6836 C 626.755 1.21503 -3.5625 0
M  V30 6837 C 625.902 0.223511 -2.76398 0
M  V30 6838 H 628.853 -0.343712 -1.54933 0
M  V30 6839 H 628.874 1.6024 -3.45114 0
M  V30 6840 H 628.386 -0.171911 -3.87719 0
M  V30 6841 H 626.487 2.1488 -3.04396 0
M  V30 6842 H 626.6 1.16065 -4.64829 0
M  V30 6843 H 624.964 0.71046 -2.44591 0
M  V30 6844 H 625.747 -0.686439 -3.36367 0
M  V30 6845 N 628.193 1.56834 0.155195 0
M  V30 6846 C 629.125 1.94235 1.21677 0
M  V30 6847 C 630.138 0.83724 1.39621 0
M  V30 6848 O 631.327 1.11567 1.39338 0
M  V30 6849 C 628.427 2.19402 2.58294 0
M  V30 6850 C 627.6 3.50671 2.61436 0
M  V30 6851 C 626.659 3.64475 3.79532 0
M  V30 6852 O 625.685 4.36945 3.64784 0
M  V30 6853 N 626.887 3.00526 4.96653 0
M  V30 6854 H 629.652 2.85901 0.898932 0
M  V30 6855 H 627.213 1.58185 0.34483 0
M  V30 6856 H 629.205 2.25886 3.35794 0
M  V30 6857 H 627.775 1.34042 2.82403 0
M  V30 6858 H 626.995 3.55702 1.69912 0
M  V30 6859 H 628.283 4.3702 2.60559 0
M  V30 6860 H 627.681 2.41549 5.11538 0
M  V30 6861 H 626.238 3.12583 5.71958 0
M  V30 6862 N 629.671 -0.424282 1.51781 0
M  V30 6863 C 631.087 -0.761768 1.40247 0
M  V30 6864 C 631.287 -1.95324 0.495041 0
M  V30 6865 O 630.343 -2.5246 -0.0448949 0
M  V30 6866 C 631.656 -1.0299 2.82513 0
M  V30 6867 C 633.204 -1.13354 2.91753 0
M  V30 6868 C 633.679 -1.43453 4.34954 0
M  V30 6869 N 635.17 -1.5035 4.3812 0
M  V30 6870 C 635.905 -1.75236 5.45967 0
M  V30 6871 N 635.401 -1.97827 6.63955 0
M  V30 6872 N 637.194 -1.77126 5.33463 0
M  V30 6873 H 629.345 0.360228 2.09323 0
M  V30 6874 H 631.608 0.0988128 0.942836 0
M  V30 6875 H 631.314 -0.226961 3.50967 0
M  V30 6876 H 631.188 -1.95411 3.22637 0
M  V30 6877 H 633.575 -1.92709 2.23489 0
M  V30 6878 H 633.656 -0.188041 2.55108 0
M  V30 6879 H 633.3 -0.646209 5.03772 0
M  V30 6880 H 633.23 -2.3923 4.69123 0
M  V30 6881 H 635.721 -1.34742 3.53062 0
M  V30 6882 H 636.034 -2.16223 7.41935 0
M  V30 6883 H 634.379 -1.95123 6.67047 0
M  V30 6884 H 637.57 -1.59005 4.40267 0
M  V30 6885 H 637.743 -1.96182 6.17589 0
M  V30 6886 N 631.149 -1.42148 -0.680565 0
M  V30 6887 C 632.395 -1.4352 -1.44131 0
M  V30 6888 C 632.75 -0.0486244 -1.92339 0
M  V30 6889 O 632.043 0.92819 -1.67616 0
M  V30 6890 C 632.237 -2.38945 -2.65782 0
M  V30 6891 C 632.066 -3.86743 -2.29477 0
M  V30 6892 C 630.836 -4.5532 -2.19115 0
M  V30 6893 C 633.034 -4.77321 -1.91491 0
M  V30 6894 N 631.016 -5.88174 -1.75853 0
M  V30 6895 C 632.387 -5.99238 -1.59103 0
M  V30 6896 C 634.442 -4.64829 -1.78432 0
M  V30 6897 C 633.145 -7.10053 -1.14968 0
M  V30 6898 C 635.171 -5.75621 -1.35702 0
M  V30 6899 C 634.533 -6.96645 -1.04234 0
M  V30 6900 H 630.632 -0.580363 -0.524121 0
M  V30 6901 H 633.216 -1.78132 -0.785939 0
M  V30 6902 H 631.387 -2.06403 -3.29017 0
M  V30 6903 H 633.119 -2.30935 -3.32342 0
M  V30 6904 H 629.874 -4.09456 -2.37998 0
M  V30 6905 H 630.298 -6.58625 -1.56661 0
M  V30 6906 H 634.94 -3.71745 -2.01409 0
M  V30 6907 H 632.658 -8.0299 -0.907365 0
M  V30 6908 H 636.244 -5.67964 -1.26126 0
M  V30 6909 H 635.124 -7.80918 -0.716707 0
M  V30 6910 N 632.627 0.916307 -1.28225 0
M  V30 6911 C 633.557 2.0352 -1.14464 0
M  V30 6912 C 634.538 1.70045 -0.0430844 0
M  V30 6913 O 635.723 1.92954 -0.219619 0
M  V30 6914 C 632.853 3.37889 -0.803027 0
M  V30 6915 C 631.807 3.85516 -1.85908 0
M  V30 6916 C 631.133 5.1682 -1.37116 0
M  V30 6917 C 632.433 4.07655 -3.26519 0
M  V30 6918 H 634.127 2.1529 -2.08064 0
M  V30 6919 H 631.673 1.03446 -1.00174 0
M  V30 6920 H 633.626 4.15654 -0.693537 0
M  V30 6921 H 632.35 3.26164 0.168674 0
M  V30 6922 H 631.009 3.09953 -1.95767 0
M  V30 6923 H 630.657 5.01497 -0.38859 0
M  V30 6924 H 630.357 5.49657 -2.07728 0
M  V30 6925 H 631.881 5.97143 -1.27484 0
M  V30 6926 H 633.295 4.75953 -3.19596 0
M  V30 6927 H 631.692 4.51818 -3.94943 0
M  V30 6928 H 632.762 3.12553 -3.70727 0
M  V30 6929 N 634.105 1.10431 1.1244 0
M  V30 6930 C 635.382 0.758797 1.80282 0
M  V30 6931 C 635.762 -0.754727 1.97147 0
M  V30 6932 O 635.11 -1.68094 1.54779 0
M  V30 6933 C 635.32 1.50982 3.14651 0
M  V30 6934 C 636.668 1.68232 3.8985 0
M  V30 6935 O 637.692 1.47319 3.24308 0
M  V30 6936 O 636.551 2.02905 5.07437 0
M  V30 6937 H 633.645 0.273756 0.780376 0
M  V30 6938 H 636.191 1.20713 1.19275 0
M  V30 6939 H 634.963 2.53989 2.97666 0
M  V30 6940 H 634.586 1.05435 3.83366 0
M  V30 6941 N 635.583 -1.29855 0.893053 0
M  V30 6942 C 636.832 -1.95104 0.511597 0
M  V30 6943 C 637.145 -1.71226 -0.945567 0
M  V30 6944 O 638.351 -2.30525 -1.43424 0
M  V30 6945 C 636.807 -3.49374 0.864034 0
M  V30 6946 C 636.415 -3.82061 2.33952 0
M  V30 6947 C 638.159 -4.20894 0.552167 0
M  V30 6948 C 636.066 -5.29546 2.63316 0
M  V30 6949 H 634.996 -0.73029 0.187597 0
M  V30 6950 H 637.647 -1.47682 1.08914 0
M  V30 6951 H 636.029 -3.95413 0.215493 0
M  V30 6952 H 637.203 -3.46904 3.03305 0
M  V30 6953 H 635.518 -3.23665 2.61973 0
M  V30 6954 H 638.115 -5.29435 0.748489 0
M  V30 6955 H 638.458 -4.13178 -0.508924 0
M  V30 6956 H 638.991 -3.80564 1.15825 0
M  V30 6957 H 635.73 -5.4232 3.68197 0
M  V30 6958 H 635.25 -5.65974 1.9858 0
M  V30 6959 H 636.929 -5.97068 2.49236 0
M  V30 6960 N 637.061 -0.65484 -1.43351 0
M  V30 6961 C 638.477 -0.32255 -1.56307 0
M  V30 6962 C 638.677 1.17324 -1.63821 0
M  V30 6963 O 637.733 1.95813 -1.59417 0
M  V30 6964 C 639.046 -1.03533 -2.82314 0
M  V30 6965 C 640.594 -1.01574 -2.9606 0
M  V30 6966 C 641.069 -1.70945 -4.24902 0
M  V30 6967 N 642.56 -1.67716 -4.3177 0
M  V30 6968 C 643.295 -2.18265 -5.30234 0
M  V30 6969 N 642.791 -2.7711 -6.34966 0
M  V30 6970 N 644.584 -2.08756 -5.21898 0
M  V30 6971 H 636.735 -1.62549 -1.36717 0
M  V30 6972 H 638.998 -0.683676 -0.656727 0
M  V30 6973 H 638.704 -2.09045 -2.8283 0
M  V30 6974 H 638.578 -0.587913 -3.7259 0
M  V30 6975 H 640.965 0.0309834 -2.95084 0
M  V30 6976 H 641.046 -1.50186 -2.07069 0
M  V30 6977 H 640.69 -2.75574 -4.26639 0
M  V30 6978 H 640.62 -1.19797 -5.12793 0
M  V30 6979 H 643.111 -1.24777 -3.56706 0
M  V30 6980 H 643.424 -3.13353 -7.06421 0
M  V30 6981 H 641.769 -2.81171 -6.35585 0
M  V30 6982 H 644.96 -1.62488 -4.38994 0
M  V30 6983 H 645.133 -2.48459 -5.98475 0
M  V30 6984 N 638.539 1.52521 -0.396863 0
M  V30 6985 C 639.787 2.01274 0.182536 0
M  V30 6986 C 640.108 1.28485 1.46685 0
M  V30 6987 O 639.378 0.407134 1.91623 0
M  V30 6988 H 637.958 0.743671 0.0704442 0
M  V30 6989 H 640.62 1.87547 -0.530289 0
M  V30 6990 H 639.716 3.09687 0.387385 0
M  V30 6991 N 640.017 0.126909 1.57088 0
M  V30 6992 C 641.242 -0.53997 2.00248 0
M  V30 6993 C 641.667 -1.58927 1.00618 0
M  V30 6994 O 641.025 -1.81288 -0.0210131 0
M  V30 6995 C 641.073 -1.13565 3.4225 0
M  V30 6996 O 640.177 -2.25103 3.45547 0
M  V30 6997 H 639.518 -0.13412 0.650314 0
M  V30 6998 H 642.048 0.217718 2.03438 0
M  V30 6999 H 642.058 -1.46925 3.80627 0
M  V30 7000 H 640.733 -0.367122 4.14277 0
M  V30 7001 H 639.31 -1.93123 3.18995 0
M  V30 7002 N 641.495 -1.56914 -0.146875 0
M  V30 7003 C 642.743 -1.82994 -0.85777 0
M  V30 7004 C 643.064 -0.707814 -1.817 0
M  V30 7005 O 642.334 0.270521 -1.94023 0
M  V30 7006 H 640.914 -0.675106 -0.319751 0
M  V30 7007 H 643.576 -1.9439 -0.140849 0
M  V30 7008 H 642.672 -2.77928 -1.41994 0
M  V30 7009 N 642.974 0.416227 -1.52004 0
M  V30 7010 C 644.39 0.754319 -1.40649 0
M  V30 7011 C 644.59 1.95059 -0.505392 0
M  V30 7012 O 643.646 2.5248 0.0315057 0
M  V30 7013 C 644.959 1.0149 -2.83055 0
M  V30 7014 C 646.507 1.11805 -2.9235 0
M  V30 7015 C 646.982 1.41144 -4.35709 0
M  V30 7016 N 648.473 1.48024 -4.38911 0
M  V30 7017 C 649.208 1.72338 -5.46889 0
M  V30 7018 N 648.704 1.94303 -6.64995 0
M  V30 7019 N 650.497 1.74294 -5.34395 0
M  V30 7020 H 642.648 -0.371324 -2.09129 0
M  V30 7021 H 644.911 -0.103811 -0.942299 0
M  V30 7022 H 644.617 0.208345 -3.51082 0
M  V30 7023 H 644.491 1.93697 -3.23668 0
M  V30 7024 H 646.878 1.91521 -2.24508 0
M  V30 7025 H 646.959 0.17451 -2.55204 0
M  V30 7026 H 646.603 0.619484 -5.04108 0
M  V30 7027 H 646.533 2.36739 -4.70385 0
M  V30 7028 H 649.024 1.32868 -3.53772 0
M  V30 7029 H 649.337 2.12286 -7.43071 0
M  V30 7030 H 647.682 1.91582 -6.68073 0
M  V30 7031 H 650.873 1.56667 -4.41104 0
M  V30 7032 H 651.046 1.92904 -6.18621 0
M  V30 7033 N 644.452 1.42507 0.673017 0
M  V30 7034 C 645.4 1.46362 1.80779 0
M  V30 7035 C 646.394 0.339166 1.6597 0
M  V30 7036 O 647.6 0.512262 1.72557 0
M  V30 7037 H 643.975 0.458433 0.596107 0
M  V30 7038 H 645.946 2.41953 1.74646 0
M  V30 7039 C 644.695 1.38462 3.18941 0
M  V30 7040 H 644.018 2.24283 3.30964 0
M  V30 7041 H 645.458 1.45221 3.98355 0
M  V30 7042 C 643.917 0.0996354 3.36753 0
M  V30 7043 O 644.447 -0.846894 3.92671 0
M  V30 7044 N 642.653 0.016211 2.90595 0
M  V30 7045 H 642.2 0.78725 2.45276 0
M  V30 7046 H 642.158 -0.84291 3.0289 0
M  V30 7047 N 645.93 -0.909495 1.28709 0
M  V30 7048 C 647.177 -1.65905 1.16111 0
M  V30 7049 C 647.505 -1.92334 -0.289436 0
M  V30 7050 O 646.76 -1.52495 -1.22653 0
M  V30 7051 C 647.059 -3.02117 1.90945 0
M  V30 7052 C 646.725 -2.95332 3.40719 0
M  V30 7053 C 645.387 -2.93189 3.81567 0
M  V30 7054 C 647.739 -2.85264 4.36204 0
M  V30 7055 C 645.067 -2.78784 5.16233 0
M  V30 7056 C 647.419 -2.724 5.70948 0
M  V30 7057 C 646.083 -2.68617 6.11066 0
M  V30 7058 H 645.353 -0.60709 0.42488 0
M  V30 7059 H 648 -1.05932 1.59533 0
M  V30 7060 H 646.305 -3.65901 1.40085 0
M  V30 7061 H 648.002 -3.59026 1.7861 0
M  V30 7062 H 644.592 -2.97797 3.08245 0
M  V30 7063 H 648.776 -2.86005 4.05605 0
M  V30 7064 H 644.032 -2.74254 5.46438 0
M  V30 7065 H 648.206 -2.63579 6.44592 0
M  V30 7066 H 645.833 -2.57213 7.15364 0
M  V30 7067 N 647.408 -1.11026 -1.11852 0
M  V30 7068 C 648.638 -0.877544 -1.87037 0
M  V30 7069 C 649.046 0.575925 -1.80221 0
M  V30 7070 O 648.389 1.40916 -1.17849 0
M  V30 7071 C 648.451 -1.25529 -3.36872 0
M  V30 7072 C 648.115 -2.71704 -3.67459 0
M  V30 7073 C 649.112 -3.69931 -3.65304 0
M  V30 7074 C 646.797 -3.08243 -3.966 0
M  V30 7075 C 648.791 -5.02717 -3.9186 0
M  V30 7076 C 646.478 -4.41215 -4.22815 0
M  V30 7077 C 647.476 -5.38262 -4.20432 0
M  V30 7078 O 647.164 -6.68839 -4.45992 0
M  V30 7079 H 646.896 -0.314374 -0.598452 0
M  V30 7080 H 649.45 -1.48015 -1.42411 0
M  V30 7081 H 647.68 -0.595808 -3.82082 0
M  V30 7082 H 649.369 -0.999064 -3.93413 0
M  V30 7083 H 650.135 -3.43047 -3.42846 0
M  V30 7084 H 646.014 -2.33326 -3.97593 0
M  V30 7085 H 649.558 -5.78456 -3.89916 0
M  V30 7086 H 645.455 -4.67835 -4.44748 0
M  V30 7087 H 646.223 -6.74563 -4.63581 0
M  V30 7088 N 648.886 1.2938 -0.899927 0
M  V30 7089 C 649.836 2.25311 -0.349165 0
M  V30 7090 C 650.82 1.51889 0.530892 0
M  V30 7091 O 652.012 1.73028 0.372872 0
M  V30 7092 C 649.141 3.40696 0.422055 0
M  V30 7093 C 648.227 4.21455 -0.472935 0
M  V30 7094 N 648.618 4.8048 -1.58026 0
M  V30 7095 C 646.916 4.45177 -0.270767 0
M  V30 7096 C 647.617 5.41117 -2.13465 0
M  V30 7097 N 646.593 5.24518 -1.42766 0
M  V30 7098 H 650.395 2.68507 -1.19505 0
M  V30 7099 H 647.909 1.43992 -0.751006 0
M  V30 7100 H 649.906 4.08486 0.833369 0
M  V30 7101 H 648.566 2.99037 1.2652 0
M  V30 7102 H 649.577 4.79257 -1.96299 0
M  V30 7103 H 646.254 4.14071 0.533988 0
M  V30 7104 H 647.644 5.979 -3.06537 0
M  V30 7105 N 650.364 0.662433 1.43002 0
M  V30 7106 C 651.61 0.179857 2.02001 0
M  V30 7107 C 651.943 -1.20625 1.52195 0
M  V30 7108 O 651.218 -1.80726 0.718911 0
M  V30 7109 C 651.501 0.200845 3.59539 0
M  V30 7110 C 651.354 1.62153 4.19555 0
M  V30 7111 C 652.673 -0.457738 4.37713 0
M  V30 7112 H 649.792 0.0668305 0.733964 0
M  V30 7113 H 652.434 0.84487 1.70182 0
M  V30 7114 H 650.584 -0.365411 3.86778 0
M  V30 7115 H 652.256 2.23908 4.03315 0
M  V30 7116 H 650.499 2.16601 3.75854 0
M  V30 7117 H 651.17 1.58799 5.28665 0
M  V30 7118 H 653.646 0.0241495 4.16093 0
M  V30 7119 H 652.522 -0.412363 5.47349 0
M  V30 7120 H 652.783 -1.53336 4.14657 0
M  V30 7121 N 651.842 -1.52309 0.404946 0
M  V30 7122 C 653.253 -1.86585 -0.0655926 0
M  V30 7123 C 653.604 -1.3239 -1.44801 0
M  V30 7124 O 652.729 -0.6615 -2.06042 0
M  V30 7125 C 653.324 -3.38566 -0.125801 0
M  V30 7126 C 651.883 -3.72497 -0.540666 0
M  V30 7127 C 651.03 -2.75806 0.287487 0
M  V30 7128 H 653.981 -1.45995 0.622185 0
M  V30 7129 H 654.002 -3.68658 -0.941888 0
M  V30 7130 H 653.514 -3.77981 0.880473 0
M  V30 7131 H 651.615 -3.38659 -1.55373 0
M  V30 7132 H 651.728 -4.78234 -0.287956 0
M  V30 7133 H 650.092 -2.53474 -0.249561 0
M  V30 7134 H 650.875 -3.18059 1.29203 0
M  V30 7135 N 653.32 -0.135238 -1.57019 0
M  V30 7136 C 654.567 0.518794 -1.95742 0
M  V30 7137 C 654.895 1.65642 -1.01947 0
M  V30 7138 O 654.15 1.95645 -0.0464016 0
M  V30 7139 C 654.449 1.07694 -3.40788 0
M  V30 7140 C 654.115 0.058992 -4.50861 0
M  V30 7141 C 652.777 -0.220872 -4.80693 0
M  V30 7142 C 655.129 -0.633856 -5.17331 0
M  V30 7143 C 652.457 -1.19959 -5.74305 0
M  V30 7144 C 654.809 -1.60131 -6.11997 0
M  V30 7145 C 653.473 -1.889 -6.40213 0
M  V30 7146 H 652.743 0.18984 -0.716269 0
M  V30 7147 H 655.39 -0.219581 -1.90237 0
M  V30 7148 H 653.695 1.89241 -3.43067 0
M  V30 7149 H 655.392 1.59137 -3.68071 0
M  V30 7150 H 651.982 0.287304 -4.27636 0
M  V30 7151 H 656.166 -0.430823 -4.94427 0
M  V30 7152 H 651.422 -1.42905 -5.94465 0
M  V30 7153 H 655.596 -2.14376 -6.62583 0
M  V30 7154 H 653.223 -2.64891 -7.12556 0
M  V30 7155 N 654.798 1.5699 0.138552 0
M  V30 7156 C 656.046 1.83446 0.848053 0
M  V30 7157 C 656.367 0.71744 1.81322 0
M  V30 7158 O 655.637 -0.260228 1.94164 0
M  V30 7159 H 654.217 0.676792 0.316166 0
M  V30 7160 H 656.879 1.94462 0.130538 0
M  V30 7161 H 655.975 2.78677 1.40518 0
M  V30 7162 N 656.276 -0.40816 1.52223 0
M  V30 7163 C 657.523 -1.15502 1.66329 0
M  V30 7164 C 657.851 -1.90474 0.393701 0
M  V30 7165 O 657.106 -1.85507 -0.623356 0
M  V30 7166 C 657.405 -2.17422 2.83659 0
M  V30 7167 C 657.071 -1.5925 4.21841 0
M  V30 7168 C 655.733 -1.4311 4.59427 0
M  V30 7169 C 658.085 -1.16776 5.0795 0
M  V30 7170 C 655.413 -0.830148 5.80797 0
M  V30 7171 C 657.765 -0.580988 6.29926 0
M  V30 7172 C 656.429 -0.406729 6.6626 0
M  V30 7173 H 655.699 -0.422653 0.608642 0
M  V30 7174 H 658.346 -0.442114 1.86327 0
M  V30 7175 H 656.651 -2.94861 2.58001 0
M  V30 7176 H 658.348 -2.75084 2.9177 0
M  V30 7177 H 654.938 -1.72796 3.92224 0
M  V30 7178 H 659.122 -1.28055 4.79495 0
M  V30 7179 H 654.378 -0.68316 6.07571 0
M  V30 7180 H 658.552 -0.243488 6.95974 0
M  V30 7181 H 656.179 0.0610366 7.60175 0
M  V30 7182 N 657.755 -1.42862 -0.66545 0
M  V30 7183 C 659.003 -1.43546 -1.42264 0
M  V30 7184 C 659.324 -0.0563116 -1.94919 0
M  V30 7185 O 658.594 0.906568 -1.73661 0
M  V30 7186 H 657.174 -0.528464 -0.527953 0
M  V30 7187 H 659.836 -1.78363 -0.785665 0
M  V30 7188 H 658.932 -2.14079 -2.27105 0
M  V30 7189 N 659.233 0.902656 -1.29189 0
M  V30 7190 C 660.166 2.00816 -1.0839 0
M  V30 7191 C 661.144 1.626 0.00335266 0
M  V30 7192 O 662.328 1.87928 -0.146765 0
M  V30 7193 C 659.455 3.32415 -0.649435 0
M  V30 7194 C 658.501 3.89617 -1.73496 0
M  V30 7195 S 659.334 4.19091 -3.33351 0
M  V30 7196 C 660.49 5.53736 -2.91766 0
M  V30 7197 H 660.723 2.18151 -2.01984 0
M  V30 7198 H 658.256 1.0489 -1.13303 0
M  V30 7199 H 660.214 4.08492 -0.405479 0
M  V30 7200 H 658.875 3.12964 0.266857 0
M  V30 7201 H 658.068 4.84658 -1.38284 0
M  V30 7202 H 657.67 3.20217 -1.93229 0
M  V30 7203 H 659.962 6.34085 -2.38627 0
M  V30 7204 H 660.905 5.93871 -3.85647 0
M  V30 7205 H 661.313 5.15453 -2.30149 0
M  V30 7206 N 660.711 1.11618 1.11262 0
M  V30 7207 C 662.127 0.850468 1.35053 0
M  V30 7208 C 662.327 -0.523868 1.94571 0
M  V30 7209 O 661.383 -1.2743 2.17986 0
M  V30 7210 C 662.696 1.96005 2.28041 0
M  V30 7211 C 664.244 1.98993 2.416 0
M  V30 7212 C 664.719 3.0916 3.37911 0
M  V30 7213 N 666.21 3.08547 3.45475 0
M  V30 7214 C 666.945 3.9043 4.19943 0
M  V30 7215 N 666.441 4.8228 4.97371 0
M  V30 7216 N 668.234 3.786 4.15474 0
M  V30 7217 H 660.385 2.00184 0.709932 0
M  V30 7218 H 662.648 0.870635 0.375099 0
M  V30 7219 H 662.354 2.9499 1.91503 0
M  V30 7220 H 662.228 1.85782 3.28275 0
M  V30 7221 H 664.615 1.00633 2.77411 0
M  V30 7222 H 664.696 2.13292 1.4121 0
M  V30 7223 H 664.34 4.07748 3.02827 0
M  V30 7224 H 664.27 2.92102 4.3816 0
M  V30 7225 H 666.761 2.42 2.90249 0
M  V30 7226 H 667.074 5.41289 5.51567 0
M  V30 7227 H 665.419 4.863 4.96525 0
M  V30 7228 H 668.61 3.06185 3.54074 0
M  V30 7229 H 668.783 4.42647 4.73253 0
M  V30 7230 N 662.189 -1.289 0.906776 0
M  V30 7231 C 663.121 -2.26556 0.347159 0
M  V30 7232 C 664.134 -1.54589 -0.51049 0
M  V30 7233 O 665.323 -1.75489 -0.326501 0
M  V30 7234 C 662.423 -3.3484 -0.523024 0
M  V30 7235 C 661.596 -4.36296 0.310515 0
M  V30 7236 C 660.655 -5.23879 -0.493634 0
M  V30 7237 O 659.681 -5.69127 0.0913569 0
M  V30 7238 N 660.883 -5.51946 -1.7982 0
M  V30 7239 H 663.648 -2.75212 1.18652 0
M  V30 7240 H 661.209 -1.42309 0.771996 0
M  V30 7241 H 663.201 -3.90366 -1.06756 0
M  V30 7242 H 661.771 -2.85946 -1.26309 0
M  V30 7243 H 660.991 -3.80331 1.03644 0
M  V30 7244 H 662.279 -5.01113 0.881106 0
M  V30 7245 H 661.677 -5.17006 -2.2961 0
M  V30 7246 H 660.234 -6.10258 -2.28971 0
M  V30 7247 N 663.667 -0.670007 -1.42649 0
M  V30 7248 C 664.907 -0.194106 -2.03476 0
M  V30 7249 C 665.271 1.1755 -1.51809 0
M  V30 7250 O 666.472 1.74579 -2.04391 0
M  V30 7251 C 664.743 -0.221828 -3.56711 0
M  V30 7252 S 666.302 0.183772 -4.38415 0
M  V30 7253 H 663.12 -0.0802478 -0.706457 0
M  V30 7254 H 665.722 -0.882092 -1.74469 0
M  V30 7255 H 664.426 -1.22107 -3.91814 0
M  V30 7256 H 663.957 0.486149 -3.90385 0
M  V30 7257 H 665.972 1.41839 -4.75496 0
M  V30 7258 N 665.145 1.52092 -0.413018 0
M  V30 7259 C 666.075 2.30021 0.401567 0
M  V30 7260 C 667.056 1.34395 1.04269 0
M  V30 7261 O 668.241 1.63304 1.05097 0
M  V30 7262 C 665.371 3.12447 1.51638 0
M  V30 7263 C 664.325 4.16153 1.00005 0
M  V30 7264 C 663.651 4.86948 2.20875 0
M  V30 7265 C 664.951 5.22275 0.0513757 0
M  V30 7266 H 666.645 2.98365 -0.248704 0
M  V30 7267 H 664.191 1.4349 -0.121052 0
M  V30 7268 H 666.144 3.65733 2.09326 0
M  V30 7269 H 664.868 2.41879 2.19458 0
M  V30 7270 H 663.527 3.63882 0.445549 0
M  V30 7271 H 663.175 4.12905 2.8726 0
M  V30 7272 H 662.875 5.57057 1.86978 0
M  V30 7273 H 664.399 5.43048 2.79162 0
M  V30 7274 H 665.813 5.70778 0.537176 0
M  V30 7275 H 664.21 5.9977 -0.198977 0
M  V30 7276 H 665.28 4.76611 -0.892736 0
M  V30 7277 N 666.623 0.143563 1.56945 0
M  V30 7278 C 667.871 -0.507402 1.95627 0
M  V30 7279 C 668.192 -1.65626 1.02922 0
M  V30 7280 O 667.462 -1.95693 0.0901136 0
M  V30 7281 H 666.042 -0.190436 0.722318 0
M  V30 7282 H 668.704 0.218257 1.93674 0
M  V30 7283 H 667.8 -0.885816 2.99265 0
M  V30 7284 N 668.101 -1.57061 -0.130224 0
M  V30 7285 C 669.517 -1.52103 -0.483413 0
M  V30 7286 C 669.717 -0.854752 -1.82473 0
M  V30 7287 O 668.773 -0.432342 -2.48771 0
M  V30 7288 C 670.086 -2.96872 -0.47825 0
M  V30 7289 C 671.634 -3.07902 -0.562592 0
M  V30 7290 C 672.109 -4.54211 -0.587929 0
M  V30 7291 N 673.6 -4.58621 -0.649684 0
M  V30 7292 C 674.335 -5.69227 -0.690551 0
M  V30 7293 N 673.831 -6.89358 -0.689743 0
M  V30 7294 N 675.624 -5.57304 -0.732708 0
M  V30 7295 H 667.775 -1.98764 0.748779 0
M  V30 7296 H 670.038 -0.907248 0.274965 0
M  V30 7297 H 669.744 -3.48944 0.439444 0
M  V30 7298 H 669.618 -3.53716 -1.31013 0
M  V30 7299 H 672.005 -2.5584 -1.47071 0
M  V30 7300 H 672.086 -2.54073 0.296764 0
M  V30 7301 H 671.73 -5.06915 0.316096 0
M  V30 7302 H 671.66 -5.0584 -1.46401 0
M  V30 7303 H 674.151 -3.72146 -0.656927 0
M  V30 7304 H 674.464 -7.69408 -0.723239 0
M  V30 7305 H 672.809 -6.91884 -0.657347 0
M  V30 7306 H 676 -4.62363 -0.730625 0
M  V30 7307 H 676.173 -6.43515 -0.76109 0
M  V30 7308 N 669.579 0.400081 -1.52437 0
M  V30 7309 C 670.995 0.739359 -1.41441 0
M  V30 7310 C 671.195 1.94512 -0.526053 0
M  V30 7311 O 670.251 2.525 0.00472502 0
M  V30 7312 C 671.564 0.984824 -2.84116 0
M  V30 7313 C 673.112 1.08698 -2.93519 0
M  V30 7314 C 673.587 1.36515 -4.37181 0
M  V30 7315 N 675.078 1.43361 -4.40457 0
M  V30 7316 C 675.813 1.66528 -5.48686 0
M  V30 7317 N 675.309 1.87239 -6.67018 0
M  V30 7318 N 677.102 1.68617 -5.36213 0
M  V30 7319 H 669.253 -0.393484 -2.08723 0
M  V30 7320 H 671.516 -0.1138 -0.941145 0
M  V30 7321 H 671.222 0.171096 -3.51284 0
M  V30 7322 H 671.096 1.90253 -3.25705 0
M  V30 7323 H 673.483 1.89129 -2.26526 0
M  V30 7324 H 673.564 0.147432 -2.55375 0
M  V30 7325 H 673.208 0.565982 -5.04737 0
M  V30 7326 H 673.138 2.31737 -4.7287 0
M  V30 7327 H 675.629 1.29108 -3.55161 0
M  V30 7328 H 675.942 2.04392 -7.45281 0
M  V30 7329 H 674.287 1.84486 -6.70067 0
M  V30 7330 H 677.478 1.5198 -4.42741 0
M  V30 7331 H 677.651 1.86332 -6.20632 0
M  V30 7332 N 671.057 1.43213 0.657864 0
M  V30 7333 C 671.987 1.50815 1.78262 0
M  V30 7334 C 672.968 0.363211 1.66177 0
M  V30 7335 O 674.153 0.579806 1.85343 0
M  V30 7336 C 671.283 1.42625 3.16663 0
M  V30 7337 C 670.237 2.5532 3.43505 0
M  V30 7338 C 669.563 2.32184 4.81658 0
M  V30 7339 C 670.863 3.97583 3.38711 0
M  V30 7340 H 672.557 2.44954 1.72157 0
M  V30 7341 H 670.103 1.17896 0.82683 0
M  V30 7342 H 672.056 1.46548 3.95097 0
M  V30 7343 H 670.78 0.449877 3.23487 0
M  V30 7344 H 669.439 2.50742 2.6744 0
M  V30 7345 H 669.087 1.32801 4.85153 0
M  V30 7346 H 668.787 3.07724 5.00579 0
M  V30 7347 H 670.311 2.37883 5.62356 0
M  V30 7348 H 671.725 4.03673 4.07089 0
M  V30 7349 H 670.122 4.73112 3.69168 0
M  V30 7350 H 671.192 4.23049 2.36976 0
M  V30 7351 N 672.536 -0.895792 1.29666 0
M  V30 7352 C 673.499 -1.98189 1.15124 0
M  V30 7353 C 674.499 -1.60572 0.0855717 0
M  V30 7354 O 675.689 -1.70991 0.332826 0
M  V30 7355 C 672.821 -3.32289 0.761372 0
M  V30 7356 H 674.014 -2.12518 2.11603 0
M  V30 7357 H 671.567 -1.0808 1.12908 0
M  V30 7358 H 672.302 -3.23662 -0.203393 0
M  V30 7359 H 672.087 -3.60958 1.53139 0
M  V30 7360 H 673.577 -4.1198 0.682792 0
M  V30 7361 N 674.014 -1.12206 -1.10668 0
M  V30 7362 C 674.924 -0.800686 -2.20513 0
M  V30 7363 C 675.94 0.209512 -1.72734 0
M  V30 7364 O 677.116 0.043705 -2.01353 0
M  V30 7365 C 674.181 -0.257353 -3.45744 0
M  V30 7366 C 673.242 -1.32718 -4.0827 0
M  V30 7367 C 672.475 -0.809674 -5.27522 0
M  V30 7368 O 672.698 0.35742 -5.69279 0
M  V30 7369 O 671.632 -1.57816 -5.80842 0
M  V30 7370 H 675.458 -1.71807 -2.50432 0
M  V30 7371 H 673.043 -0.898546 -1.19359 0
M  V30 7372 H 674.925 0.0408849 -4.2138 0
M  V30 7373 H 673.6 0.632627 -3.17458 0
M  V30 7374 H 672.507 -1.67855 -3.34329 0
M  V30 7375 H 673.84 -2.19083 -4.40753 0
M  V30 7376 N 675.492 1.28418 -0.913599 0
M  V30 7377 C 676.455 2.25564 -0.406624 0
M  V30 7378 C 677.455 1.5387 0.466965 0
M  V30 7379 O 678.645 1.72094 0.270042 0
M  V30 7380 C 675.777 3.38339 0.417053 0
M  V30 7381 H 676.97 2.71926 -1.26477 0
M  V30 7382 H 674.523 1.40098 -0.692986 0
M  V30 7383 H 675.258 2.97339 1.29461 0
M  V30 7384 H 675.043 3.91542 -0.209102 0
M  V30 7385 H 676.533 4.10578 0.762602 0
M  V30 7386 N 676.97 0.677563 1.42291 0
M  V30 7387 C 677.88 0.000962654 2.346 0
M  V30 7388 C 678.896 -0.785833 1.55244 0
M  V30 7389 O 680.072 -0.727523 1.87801 0
M  V30 7390 C 677.137 -0.936746 3.33805 0
M  V30 7391 C 676.198 -0.144173 4.29058 0
M  V30 7392 C 675.431 -1.03722 5.23524 0
M  V30 7393 O 675.654 -2.27675 5.22992 0
M  V30 7394 O 674.588 -0.496542 5.99848 0
M  V30 7395 H 678.414 0.761397 2.94001 0
M  V30 7396 H 675.999 0.43781 1.42841 0
M  V30 7397 H 677.881 -1.47497 3.94744 0
M  V30 7398 H 676.556 -1.67698 2.76874 0
M  V30 7399 H 675.463 0.438224 3.71524 0
M  V30 7400 H 676.796 0.55701 4.89038 0
M  V30 7401 N 678.448 -1.51871 0.421078 0
M  V30 7402 C 679.381 -2.23851 -0.443369 0
M  V30 7403 C 680.359 -1.25142 -1.03818 0
M  V30 7404 O 681.543 -1.5423 -1.08377 0
M  V30 7405 C 678.67 -2.97637 -1.61648 0
M  V30 7406 C 677.716 -4.10873 -1.14391 0
M  V30 7407 S 678.549 -5.35408 -0.0992403 0
M  V30 7408 C 679.705 -6.12726 -1.27739 0
M  V30 7409 H 679.938 -2.96826 0.167786 0
M  V30 7410 H 677.471 -1.53027 0.205461 0
M  V30 7411 H 679.429 -3.40751 -2.28909 0
M  V30 7412 H 678.09 -2.24282 -2.199 0
M  V30 7413 H 677.283 -4.61718 -2.02069 0
M  V30 7414 H 676.885 -3.69937 -0.549775 0
M  V30 7415 H 679.177 -6.40827 -2.19881 0
M  V30 7416 H 680.12 -7.03461 -0.809239 0
M  V30 7417 H 680.528 -5.43968 -1.5086 0
M  V30 7418 N 679.926 -0.151884 -1.56866 0
M  V30 7419 C 680.856 0.781943 -2.20018 0
M  V30 7420 C 681.837 1.25347 -1.14987 0
M  V30 7421 O 683.022 1.31015 -1.43348 0
M  V30 7422 C 680.152 2.01928 -2.82564 0
M  V30 7423 C 679.106 1.68434 -3.93464 0
M  V30 7424 C 678.432 2.99472 -4.42968 0
M  V30 7425 C 679.732 0.927244 -5.14003 0
M  V30 7426 H 681.426 0.255607 -2.98307 0
M  V30 7427 H 678.972 0.121502 -1.43486 0
M  V30 7428 H 680.925 2.67741 -3.25411 0
M  V30 7429 H 679.649 2.56943 -2.01614 0
M  V30 7430 H 678.308 1.04998 -3.51242 0
M  V30 7431 H 677.956 3.52488 -3.58834 0
M  V30 7432 H 677.656 2.77823 -5.17772 0
M  V30 7433 H 679.18 3.66348 -4.88489 0
M  V30 7434 H 680.594 1.48756 -5.53665 0
M  V30 7435 H 678.991 0.810513 -5.94601 0
M  V30 7436 H 680.061 -0.0801163 -4.84834 0
M  V30 7437 N 681.404 1.57128 0.121893 0
M  V30 7438 C 682.334 2.03165 1.15092 0
M  V30 7439 C 683.315 0.915587 1.43356 0
M  V30 7440 O 684.5 1.1851 1.53847 0
M  V30 7441 C 681.63 2.43352 2.47784 0
M  V30 7442 C 680.584 3.58376 2.33989 0
M  V30 7443 C 679.91 3.84454 3.71617 0
M  V30 7444 C 681.21 4.90199 1.80283 0
M  V30 7445 H 682.904 2.89382 0.768023 0
M  V30 7446 H 680.45 1.39218 0.367998 0
M  V30 7447 H 682.403 2.74163 3.20019 0
M  V30 7448 H 681.127 1.54103 2.87958 0
M  V30 7449 H 679.786 3.2777 1.64202 0
M  V30 7450 H 679.434 2.92414 4.09271 0
M  V30 7451 H 679.134 4.61877 3.6324 0
M  V30 7452 H 680.658 4.17714 4.45362 0
M  V30 7453 H 682.072 5.19565 2.42333 0
M  V30 7454 H 680.469 5.71601 1.82735 0
M  V30 7455 H 681.539 4.78904 0.760184 0
M  V30 7456 N 682.882 -0.391992 1.52647 0
M  V30 7457 C 683.812 -1.48517 1.8018 0
M  V30 7458 C 684.793 -1.57039 0.653667 0
M  V30 7459 O 685.978 -1.72036 0.900962 0
M  V30 7460 C 683.108 -2.86161 1.96797 0
M  V30 7461 C 682.062 -2.92481 3.12472 0
M  V30 7462 C 681.388 -4.32546 3.14338 0
M  V30 7463 C 682.688 -2.624 4.51601 0
M  V30 7464 H 684.382 -1.25726 2.71723 0
M  V30 7465 H 681.928 -0.603387 1.30749 0
M  V30 7466 H 683.881 -3.62639 2.14641 0
M  V30 7467 H 682.605 -3.10283 1.01941 0
M  V30 7468 H 681.264 -2.18451 2.94406 0
M  V30 7469 H 680.912 -4.53703 2.1717 0
M  V30 7470 H 680.612 -4.37695 3.92042 0
M  V30 7471 H 682.136 -5.10934 3.34333 0
M  V30 7472 H 683.55 -3.28596 4.69785 0
M  V30 7473 H 681.947 -2.78903 5.3135 0
M  V30 7474 H 683.017 -1.57754 4.58521 0
M  V30 7475 N 684.36 -1.4356 -0.65026 0
M  V30 7476 C 685.29 -1.51758 -1.77459 0
M  V30 7477 C 686.271 -0.372019 -1.65982 0
M  V30 7478 O 687.456 -0.589627 -1.85033 0
M  V30 7479 C 684.586 -1.44302 -3.15902 0
M  V30 7480 C 683.54 -2.57138 -3.42146 0
M  V30 7481 C 682.866 -2.34735 -4.8042 0
M  V30 7482 C 684.166 -3.99373 -3.36598 0
M  V30 7483 H 685.86 -2.45863 -1.70855 0
M  V30 7484 H 683.406 -1.18333 -0.820566 0
M  V30 7485 H 685.359 -1.48641 -3.94314 0
M  V30 7486 H 684.083 -0.467026 -3.23244 0
M  V30 7487 H 682.742 -2.52157 -2.66106 0
M  V30 7488 H 682.39 -1.35372 -4.84441 0
M  V30 7489 H 682.09 -3.10375 -4.9894 0
M  V30 7490 H 683.614 -2.40862 -5.61086 0
M  V30 7491 H 685.028 -4.05826 -4.04942 0
M  V30 7492 H 683.425 -4.75063 -3.66654 0
M  V30 7493 H 684.495 -4.243 -2.34729 0
M  V30 7494 N 685.838 0.888903 -1.30139 0
M  V30 7495 C 686.788 1.9814 -1.12803 0
M  V30 7496 C 687.772 1.60839 -0.0443137 0
M  V30 7497 O 688.964 1.74971 -0.267208 0
M  V30 7498 C 686.093 3.33416 -0.817849 0
M  V30 7499 C 685.179 3.77043 -1.94163 0
M  V30 7500 N 685.57 3.92805 -3.18651 0
M  V30 7501 C 683.868 4.06407 -1.8371 0
M  V30 7502 C 684.569 4.29746 -3.92038 0
M  V30 7503 N 683.545 4.3939 -3.20059 0
M  V30 7504 H 687.347 2.08411 -2.07225 0
M  V30 7505 H 684.861 1.07845 -1.21421 0
M  V30 7506 H 686.858 4.11405 -0.674668 0
M  V30 7507 H 685.518 3.24484 0.118344 0
M  V30 7508 H 686.529 3.78042 -3.53984 0
M  V30 7509 H 683.206 4.05972 -0.974331 0
M  V30 7510 H 684.596 4.49695 -4.99223 0
M  V30 7511 N 687.317 1.12792 1.10072 0
M  V30 7512 C 688.267 0.768086 2.14673 0
M  V30 7513 C 689.251 -0.234716 1.59179 0
M  V30 7514 O 690.443 -0.039643 1.76956 0
M  V30 7515 C 687.572 0.228472 3.42539 0
M  V30 7516 C 686.658 1.25979 4.04957 0
M  V30 7517 N 687.049 2.4586 4.42025 0
M  V30 7518 C 685.347 1.10602 4.32069 0
M  V30 7519 C 686.048 3.11747 4.9111 0
M  V30 7520 N 685.024 2.39185 4.88151 0
M  V30 7521 H 688.826 1.68029 2.4113 0
M  V30 7522 H 686.34 1.00925 1.27232 0
M  V30 7523 H 688.337 -0.0475216 4.16873 0
M  V30 7524 H 686.997 -0.678136 3.1754 0
M  V30 7525 H 688.008 2.83215 4.33601 0
M  V30 7526 H 684.685 0.257021 4.16708 0
M  V30 7527 H 686.075 4.13862 5.29309 0
M  V30 7528 N 688.795 -1.27931 0.920396 0
M  V30 7529 C 690.041 -1.94977 0.557832 0
M  V30 7530 C 690.374 -1.72224 -0.897365 0
M  V30 7531 O 689.649 -1.04705 -1.63912 0
M  V30 7532 C 689.932 -3.49289 0.875741 0
M  V30 7533 C 689.785 -3.81416 2.38416 0
M  V30 7534 C 691.104 -4.38486 0.376517 0
M  V30 7535 H 688.223 -0.708164 0.20414 0
M  V30 7536 H 690.865 -1.5118 1.15085 0
M  V30 7537 H 689.015 -3.86724 0.371062 0
M  V30 7538 H 690.687 -3.53813 2.95997 0
M  V30 7539 H 688.93 -3.28225 2.83639 0
M  V30 7540 H 689.601 -4.89198 2.55713 0
M  V30 7541 H 692.077 -4.08161 0.808945 0
M  V30 7542 H 690.953 -5.45296 0.627976 0
M  V30 7543 H 691.214 -4.36143 -0.723293 0
M  V30 7544 N 690.273 -0.685099 -1.4193 0
M  V30 7545 C 691.203 -0.0273506 -2.33484 0
M  V30 7546 C 692.184 0.778366 -1.51246 0
M  V30 7547 O 693.369 0.733449 -1.79817 0
M  V30 7548 C 690.499 0.917272 -3.34968 0
M  V30 7549 C 689.453 0.21941 -4.27437 0
M  V30 7550 C 688.779 1.27768 -5.1921 0
M  V30 7551 C 690.079 -0.907894 -5.14349 0
M  V30 7552 H 691.773 -0.791994 -2.88735 0
M  V30 7553 H 689.319 -0.382308 -1.38832 0
M  V30 7554 H 691.272 1.38657 -3.97935 0
M  V30 7555 H 689.996 1.71346 -2.78043 0
M  V30 7556 H 688.655 -0.229757 -3.65879 0
M  V30 7557 H 688.303 2.06612 -4.58607 0
M  V30 7558 H 688.003 0.815803 -5.81909 0
M  V30 7559 H 689.527 1.7477 -5.85054 0
M  V30 7560 H 690.941 -0.519348 -5.70943 0
M  V30 7561 H 689.338 -1.2962 -5.85934 0
M  V30 7562 H 690.408 -1.75218 -4.52136 0
M  V30 7563 N 691.751 1.51645 -0.429126 0
M  V30 7564 C 692.698 2.27542 0.386446 0
M  V30 7565 C 693.668 1.30786 1.02393 0
M  V30 7566 O 694.853 1.59678 1.0444 0
M  V30 7567 C 691.993 3.11457 1.48623 0
M  V30 7568 C 691.106 4.23196 0.867691 0
M  V30 7569 C 690.241 4.94435 1.94183 0
M  V30 7570 C 689.28 5.98108 1.30129 0
M  V30 7571 N 688.417 6.62786 2.31644 0
M  V30 7572 H 693.257 2.968 -0.267155 0
M  V30 7573 H 690.794 1.46397 -0.143591 0
M  V30 7574 H 692.752 3.58429 2.13506 0
M  V30 7575 H 691.382 2.44329 2.10957 0
M  V30 7576 H 690.434 3.80248 0.107373 0
M  V30 7577 H 691.746 4.97499 0.35997 0
M  V30 7578 H 690.9 5.44914 2.66747 0
M  V30 7579 H 689.639 4.19744 2.48326 0
M  V30 7580 H 688.644 5.4693 0.561082 0
M  V30 7581 H 689.869 6.74751 0.767303 0
M  V30 7582 H 687.815 5.90913 2.84883 0
M  V30 7583 H 687.732 7.32828 1.85741 0
M  V30 7584 H 689 7.17897 3.03717 0
M  V30 7585 N 693.229 0.160201 1.56784 0
M  V30 7586 C 694.179 -0.786461 2.14007 0
M  V30 7587 C 695.163 -1.20046 1.07134 0
M  V30 7588 O 696.355 -1.16468 1.33283 0
M  V30 7589 C 693.484 -2.02024 2.77563 0
M  V30 7590 C 692.57 -1.62874 3.91578 0
M  V30 7591 N 692.961 -0.946176 4.96871 0
M  V30 7592 C 691.259 -1.92054 4.02531 0
M  V30 7593 C 691.96 -0.755084 5.76778 0
M  V30 7594 N 690.936 -1.29307 5.27997 0
M  V30 7595 H 694.738 -0.255879 2.92784 0
M  V30 7596 H 692.252 -0.0408778 1.62349 0
M  V30 7597 H 694.249 -2.70855 3.16928 0
M  V30 7598 H 692.909 -2.55587 2.00263 0
M  V30 7599 H 693.92 -0.605455 5.14349 0
M  V30 7600 H 690.597 -2.47374 3.36322 0
M  V30 7601 H 691.987 -0.216138 6.71552 0
M  V30 7602 N 694.707 -1.5719 -0.113559 0
M  V30 7603 C 695.637 -2.03772 -1.14013 0
M  V30 7604 C 696.618 -0.923176 -1.42869 0
M  V30 7605 O 697.803 -1.19325 -1.53216 0
M  V30 7606 C 694.933 -2.44663 -2.4649 0
M  V30 7607 C 693.887 -3.59612 -2.32085 0
M  V30 7608 C 693.213 -3.8642 -3.69573 0
M  V30 7609 C 694.513 -4.91149 -1.7768 0
M  V30 7610 H 696.207 -2.89785 -0.752665 0
M  V30 7611 H 693.753 -1.39412 -0.360609 0
M  V30 7612 H 695.706 -2.75857 -3.18561 0
M  V30 7613 H 694.43 -1.55628 -2.87137 0
M  V30 7614 H 693.089 -3.28636 -1.62461 0
M  V30 7615 H 692.737 -2.94581 -4.07715 0
M  V30 7616 H 692.437 -4.63797 -3.60786 0
M  V30 7617 H 693.961 -4.2007 -4.4314 0
M  V30 7618 H 695.375 -5.20843 -2.39574 0
M  V30 7619 H 693.772 -5.72562 -1.79701 0
M  V30 7620 H 694.842 -4.79301 -0.734776 0
M  V30 7621 N 696.185 0.383891 -1.52853 0
M  V30 7622 C 697.117 1.48889 -1.74255 0
M  V30 7623 C 698.13 1.50405 -0.623063 0
M  V30 7624 O 699.319 1.54215 -0.898887 0
M  V30 7625 C 696.419 2.87721 -1.79081 0
M  V30 7626 C 695.592 3.10111 -3.08464 0
M  V30 7627 C 694.651 4.28954 -3.0477 0
M  V30 7628 O 693.677 4.25012 -3.78621 0
M  V30 7629 N 694.879 5.35411 -2.24311 0
M  V30 7630 H 697.644 1.30915 -2.69595 0
M  V30 7631 H 695.205 0.573454 -1.51404 0
M  V30 7632 H 697.197 3.65333 -1.7411 0
M  V30 7633 H 695.767 2.99029 -0.911052 0
M  V30 7634 H 694.987 2.20319 -3.26884 0
M  V30 7635 H 696.275 3.21928 -3.94005 0
M  V30 7636 H 695.673 5.41471 -1.63787 0
M  V30 7637 H 694.23 6.1167 -2.25175 0
M  V30 7638 N 697.663 1.43903 0.642637 0
M  V30 7639 C 698.909 1.46296 1.40447 0
M  V30 7640 C 699.242 0.0908361 1.93987 0
M  V30 7641 O 698.517 -0.889884 1.72949 0
M  V30 7642 C 698.8 2.51399 2.57819 0
M  V30 7643 C 698.653 3.97926 2.09702 0
M  V30 7644 C 699.972 2.53125 3.60022 0
M  V30 7645 H 697.091 0.532676 0.509338 0
M  V30 7646 H 699.733 1.75515 0.727635 0
M  V30 7647 H 697.883 2.26614 3.1556 0
M  V30 7648 H 699.555 4.33804 1.5688 0
M  V30 7649 H 697.798 4.10252 1.40982 0
M  V30 7650 H 698.469 4.67096 2.94152 0
M  V30 7651 H 700.945 2.75242 3.12059 0
M  V30 7652 H 699.821 3.28589 4.39682 0
M  V30 7653 H 700.082 1.56895 4.13324 0
M  V30 7654 N 699.141 -0.881989 1.30609 0
M  V30 7655 C 700.051 -2.02076 1.19174 0
M  V30 7656 C 701.067 -1.73645 0.11102 0
M  V30 7657 O 702.243 -1.98735 0.326528 0
M  V30 7658 C 699.308 -3.3515 0.887438 0
M  V30 7659 C 698.369 -3.76983 2.05383 0
M  V30 7660 C 697.602 -5.03707 1.76395 0
M  V30 7661 O 697.825 -5.66171 0.693302 0
M  V30 7662 O 696.759 -5.42019 2.61723 0
M  V30 7663 H 700.585 -2.14652 2.14845 0
M  V30 7664 H 698.17 -1.00843 1.10232 0
M  V30 7665 H 700.052 -4.14975 0.73306 0
M  V30 7666 H 698.727 -3.23676 -0.0393354 0
M  V30 7667 H 697.634 -2.97849 2.26355 0
M  V30 7668 H 698.967 -3.93066 2.96243 0
M  V30 7669 N 700.619 -1.13374 -1.09472 0
M  V30 7670 C 701.847 -0.918351 -1.85402 0
M  V30 7671 C 702.262 0.53281 -1.81126 0
M  V30 7672 O 701.619 1.36879 -1.20708 0
M  V30 7673 C 701.67 -1.39743 -3.33398 0
M  V30 7674 O 701.391 -2.79172 -3.37631 0
M  V30 7675 C 702.892 -1.22042 -4.2617 0
M  V30 7676 H 700.112 -0.327511 -0.585643 0
M  V30 7677 H 702.656 -1.50617 -1.38328 0
M  V30 7678 H 700.811 -0.852619 -3.77901 0
M  V30 7679 H 701.225 -3.00428 -4.29934 0
M  V30 7680 H 702.699 -1.60438 -5.2817 0
M  V30 7681 H 703.176 -0.162047 -4.38901 0
M  V30 7682 H 703.782 -1.75323 -3.87482 0
M  V30 7683 N 702.098 1.27442 -0.927168 0
M  V30 7684 C 703.028 2.29256 -0.443188 0
M  V30 7685 C 704.009 1.62701 0.49624 0
M  V30 7686 O 705.194 1.90013 0.401105 0
M  V30 7687 C 702.324 3.45955 0.305366 0
M  V30 7688 C 701.278 4.24501 -0.546178 0
M  V30 7689 C 700.604 5.33671 0.331512 0
M  V30 7690 C 701.904 4.89921 -1.81037 0
M  V30 7691 H 703.598 2.69988 -1.29409 0
M  V30 7692 H 701.144 1.29792 -0.623705 0
M  V30 7693 H 703.097 4.1628 0.654885 0
M  V30 7694 H 701.821 3.04138 1.19029 0
M  V30 7695 H 700.48 3.55921 -0.878398 0
M  V30 7696 H 700.128 4.88096 1.21537 0
M  V30 7697 H 699.828 5.87131 -0.234746 0
M  V30 7698 H 701.352 6.0684 0.676614 0
M  V30 7699 H 702.766 5.52536 -1.52895 0
M  V30 7700 H 701.163 5.53436 -2.32009 0
M  V30 7701 H 702.233 4.13652 -2.53021 0
M  V30 7702 N 703.576 0.692616 1.41565 0
M  V30 7703 C 704.804 0.231279 2.05603 0
M  V30 7704 C 705.219 -1.11837 1.52111 0
M  V30 7705 O 704.576 -1.6983 0.66813 0
M  V30 7706 C 704.627 0.177125 3.61066 0
M  V30 7707 O 704.348 1.47346 4.12578 0
M  V30 7708 C 705.849 -0.30556 4.42246 0
M  V30 7709 H 703.069 0.108238 0.662213 0
M  V30 7710 H 705.613 0.944369 1.81389 0
M  V30 7711 H 703.768 -0.486769 3.8433 0
M  V30 7712 H 704.182 1.35861 5.06599 0
M  V30 7713 H 705.656 -0.29233 5.51225 0
M  V30 7714 H 706.133 -1.34393 4.18133 0
M  V30 7715 H 706.739 0.327229 4.24039 0
M  V30 7716 N 705.054 -1.51416 0.437162 0
M  V30 7717 C 705.986 -2.255 -0.410171 0
M  V30 7718 C 706.999 -1.29511 -0.986444 0
M  V30 7719 O 708.188 -1.55266 -0.880614 0
M  V30 7720 C 705.288 -2.99511 -1.58575 0
M  V30 7721 C 704.461 -4.22595 -1.12839 0
M  V30 7722 C 703.52 -4.79187 -2.17407 0
M  V30 7723 O 702.546 -5.4103 -1.76849 0
M  V30 7724 N 703.748 -4.63204 -3.49889 0
M  V30 7725 H 706.513 -2.98856 0.224783 0
M  V30 7726 H 704.074 -1.59699 0.266041 0
M  V30 7727 H 706.066 -3.34258 -2.28152 0
M  V30 7728 H 704.636 -2.29167 -2.12606 0
M  V30 7729 H 703.856 -3.93344 -0.259695 0
M  V30 7730 H 705.144 -5.02468 -0.800196 0
M  V30 7731 H 704.542 -4.13945 -3.85573 0
M  V30 7732 H 703.099 -5.02313 -4.15361 0
M  V30 7733 N 706.532 -0.168513 -1.56696 0
M  V30 7734 C 707.442 0.775435 -2.21414 0
M  V30 7735 C 708.458 1.25529 -1.20492 0
M  V30 7736 O 709.634 1.30801 -1.53144 0
M  V30 7737 C 706.699 1.9886 -2.83999 0
M  V30 7738 C 705.76 1.5559 -4.00113 0
M  V30 7739 C 704.993 2.71124 -4.59704 0
M  V30 7740 O 705.216 3.87917 -4.18182 0
M  V30 7741 O 704.15 2.4536 -5.4962 0
M  V30 7742 H 707.976 0.254416 -3.02632 0
M  V30 7743 H 705.561 0.0595507 -1.49281 0
M  V30 7744 H 707.443 2.69816 -3.23693 0
M  V30 7745 H 706.118 2.49874 -2.05779 0
M  V30 7746 H 705.025 0.815924 -3.65094 0
M  V30 7747 H 706.358 1.09271 -4.79917 0
M  V30 7748 N 708.01 1.57248 0.105221 0
M  V30 7749 C 709.287 1.76566 0.841647 0
M  V30 7750 C 709.667 0.747566 1.9742 0
M  V30 7751 O 709.015 -0.225886 2.27381 0
M  V30 7752 C 709.225 3.22016 1.3456 0
M  V30 7753 C 710.573 3.84911 1.79244 0
M  V30 7754 O 711.597 3.25703 1.44207 0
M  V30 7755 O 710.456 4.89008 2.43995 0
M  V30 7756 H 707.55 0.723443 0.400698 0
M  V30 7757 H 710.096 1.69472 0.0878893 0
M  V30 7758 H 708.868 3.87644 0.533685 0
M  V30 7759 H 708.491 3.33703 2.16167 0
M  V30 7760 N 709.488 -0.375779 1.53054 0
M  V30 7761 C 710.737 -1.11674 1.67964 0
M  V30 7762 C 711.05 -1.90755 0.432655 0
M  V30 7763 O 712.256 -2.67538 0.462109 0
M  V30 7764 C 710.712 -2.0344 2.96884 0
M  V30 7765 C 710.32 -1.29719 4.28809 0
M  V30 7766 C 712.064 -2.7759 3.2116 0
M  V30 7767 C 709.971 -2.20327 5.48826 0
M  V30 7768 H 708.901 -0.420597 0.625791 0
M  V30 7769 H 711.552 -0.378499 1.79554 0
M  V30 7770 H 709.934 -2.80953 2.79072 0
M  V30 7771 H 711.108 -0.573394 4.57219 0
M  V30 7772 H 709.423 -0.674735 4.10897 0
M  V30 7773 H 712.02 -3.4559 4.0801 0
M  V30 7774 H 712.363 -3.42399 2.36789 0
M  V30 7775 H 712.896 -2.07164 3.396 0
M  V30 7776 H 709.635 -1.60113 6.35645 0
M  V30 7777 H 709.155 -2.90585 5.2471 0
M  V30 7778 H 710.834 -2.80116 5.83219 0
M  V30 7779 N 710.966 -1.44241 -0.634997 0
M  V30 7780 C 711.913 -1.5081 -1.74714 0
M  V30 7781 C 712.883 -0.356147 -1.62237 0
M  V30 7782 O 714.068 -0.565848 -1.82216 0
M  V30 7783 C 711.208 -1.45458 -3.12947 0
M  V30 7784 C 710.321 -2.70998 -3.36428 0
M  V30 7785 C 709.456 -2.57507 -4.64611 0
M  V30 7786 C 708.495 -3.78229 -4.81258 0
M  V30 7787 N 707.632 -3.63438 -6.00714 0
M  V30 7788 H 712.472 -2.45832 -1.68436 0
M  V30 7789 H 710.009 -1.2201 -0.821706 0
M  V30 7790 H 711.967 -1.40347 -3.92885 0
M  V30 7791 H 710.597 -0.540058 -3.1825 0
M  V30 7792 H 709.649 -2.86312 -2.50458 0
M  V30 7793 H 710.961 -3.60619 -3.44609 0
M  V30 7794 H 710.115 -2.50207 -5.52703 0
M  V30 7795 H 708.854 -1.65441 -4.58782 0
M  V30 7796 H 707.859 -3.85918 -3.91596 0
M  V30 7797 H 709.084 -4.71327 -4.88904 0
M  V30 7798 H 707.03 -2.7412 -5.95982 0
M  V30 7799 H 706.947 -4.46672 -6.09934 0
M  V30 7800 H 708.215 -3.60022 -6.91378 0
M  V30 7801 N 712.444 0.87505 -1.31075 0
M  V30 7802 C 713.377 1.98471 -1.12625 0
M  V30 7803 C 714.355 1.6257 -0.0311379 0
M  V30 7804 O 715.539 1.87574 -0.186594 0
M  V30 7805 C 712.666 3.30963 -0.719799 0
M  V30 7806 C 711.712 3.85849 -1.81722 0
M  V30 7807 S 712.545 4.11926 -3.42165 0
M  V30 7808 C 713.701 5.47423 -3.03445 0
M  V30 7809 H 713.934 2.13817 -2.06566 0
M  V30 7810 H 711.467 1.02463 -1.15502 0
M  V30 7811 H 713.425 4.07541 -0.492035 0
M  V30 7812 H 712.086 3.1346 0.200413 0
M  V30 7813 H 711.279 4.81616 -1.48533 0
M  V30 7814 H 710.881 3.16046 -1.99977 0
M  V30 7815 H 713.173 6.28881 -2.52023 0
M  V30 7816 H 714.116 5.85557 -3.98157 0
M  V30 7817 H 714.524 5.10455 -2.41031 0
M  V30 7818 N 713.922 1.13953 1.08869 0
M  V30 7819 C 715.168 0.906151 1.8143 0
M  V30 7820 C 715.501 -0.566089 1.85766 0
M  V30 7821 O 714.776 -1.41915 1.33006 0
M  V30 7822 C 715.059 1.50183 3.27287 0
M  V30 7823 C 714.912 3.04359 3.31189 0
M  V30 7824 C 716.231 1.17477 4.24131 0
M  V30 7825 H 713.35 0.330624 0.658678 0
M  V30 7826 H 715.992 1.40873 1.27495 0
M  V30 7827 H 714.142 1.07442 3.73348 0
M  V30 7828 H 715.814 3.55896 2.93488 0
M  V30 7829 H 714.057 3.39053 2.70602 0
M  V30 7830 H 714.728 3.41141 4.33966 0
M  V30 7831 H 717.204 1.5442 3.86385 0
M  V30 7832 H 716.08 1.61795 5.24513 0
M  V30 7833 H 716.341 0.0893312 4.4201 0
M  V30 7834 N 715.4 -1.26948 0.933913 0
M  V30 7835 C 716.63 -1.97898 0.593279 0
M  V30 7836 C 717.038 -1.69806 -0.834412 0
M  V30 7837 O 716.381 -0.958704 -1.56699 0
M  V30 7838 C 716.443 -3.51657 0.746825 0
M  V30 7839 C 716.107 -4.03384 2.14779 0
M  V30 7840 C 717.104 -4.15682 3.12257 0
M  V30 7841 C 714.789 -4.37577 2.46641 0
M  V30 7842 C 716.783 -4.61455 4.39702 0
M  V30 7843 C 714.47 -4.8304 3.7432 0
M  V30 7844 C 715.468 -4.94939 4.70664 0
M  V30 7845 O 715.156 -5.39403 5.96071 0
M  V30 7846 H 714.888 -0.63814 0.223055 0
M  V30 7847 H 717.442 -1.62608 1.2549 0
M  V30 7848 H 715.672 -3.8669 0.0280889 0
M  V30 7849 H 717.361 -4.03821 0.410328 0
M  V30 7850 H 718.127 -3.89519 2.88964 0
M  V30 7851 H 714.006 -4.27554 1.72391 0
M  V30 7852 H 717.55 -4.70658 5.14905 0
M  V30 7853 H 713.447 -5.08646 3.97429 0
M  V30 7854 H 714.215 -5.57641 5.99148 0
M  V30 7855 N 716.879 -0.700114 -1.41195 0
M  V30 7856 C 718.104 -0.240704 -2.05998 0
M  V30 7857 C 718.529 1.10313 -1.52357 0
M  V30 7858 O 717.887 1.69154 -0.652424 0
M  V30 7859 C 717.935 -0.213783 -3.59966 0
M  V30 7860 O 717.039 0.809933 -4.04368 0
M  V30 7861 H 716.38 -0.116471 -0.653705 0
M  V30 7862 H 718.91 -0.956251 -1.80878 0
M  V30 7863 H 718.92 -0.0461852 -4.07974 0
M  V30 7864 H 717.595 -1.19454 -3.98376 0
M  V30 7865 H 716.172 0.611319 -3.67855 0
M  V30 7866 N 718.357 1.51182 -0.445186 0
M  V30 7867 C 719.604 2.02152 0.118645 0
M  V30 7868 C 719.932 1.32888 1.42025 0
M  V30 7869 O 719.187 0.435041 1.90803 0
M  V30 7870 C 719.486 3.55408 0.376797 0
M  V30 7871 C 719.152 4.43008 -0.839945 0
M  V30 7872 C 717.814 4.66669 -1.17361 0
M  V30 7873 C 720.166 4.9435 -1.65127 0
M  V30 7874 C 717.494 5.38919 -2.31913 0
M  V30 7875 C 719.846 5.67857 -2.78786 0
M  V30 7876 C 718.51 5.89779 -3.12597 0
M  V30 7877 H 717.78 0.739727 0.0434152 0
M  V30 7878 H 720.427 1.82055 -0.593984 0
M  V30 7879 H 718.732 3.73879 1.1714 0
M  V30 7880 H 720.429 3.92388 0.826602 0
M  V30 7881 H 717.019 4.24793 -0.569958 0
M  V30 7882 H 721.203 4.75947 -1.4067 0
M  V30 7883 H 716.459 5.54105 -2.58413 0
M  V30 7884 H 720.633 6.06628 -3.42017 0
M  V30 7885 H 718.26 6.45542 -4.01471 0
M  V30 7886 N 719.835 0.176821 1.56605 0
M  V30 7887 C 721.084 -0.466833 1.96223 0
M  V30 7888 C 721.397 -1.64015 1.06576 0
M  V30 7889 O 722.603 -2.3504 1.35898 0
M  V30 7890 C 721.059 -0.881921 3.48927 0
M  V30 7891 C 720.667 0.266102 4.47209 0
M  V30 7892 C 722.411 -1.49368 3.97353 0
M  V30 7893 C 720.318 -0.168923 5.91159 0
M  V30 7894 H 719.248 -0.178178 0.732645 0
M  V30 7895 H 721.899 0.265929 1.81563 0
M  V30 7896 H 720.281 -1.67082 3.59026 0
M  V30 7897 H 721.455 1.04349 4.4883 0
M  V30 7898 H 719.77 0.788178 4.08872 0
M  V30 7899 H 722.367 -1.8313 5.02362 0
M  V30 7900 H 722.71 -2.3936 3.40606 0
M  V30 7901 H 723.243 -0.769114 3.90294 0
M  V30 7902 H 719.982 0.696351 6.51791 0
M  V30 7903 H 719.502 -0.911552 5.92833 0
M  V30 7904 H 721.181 -0.610938 6.44109 0
M  V30 7905 N 721.313 -1.57302 -0.09688 0
M  V30 7906 C 722.243 -2.0497 -1.11846 0
M  V30 7907 C 723.224 -0.938278 -1.41882 0
M  V30 7908 O 724.409 -1.20943 -1.51942 0
M  V30 7909 C 721.539 -2.47264 -2.43881 0
M  V30 7910 C 720.493 -3.62053 -2.28257 0
M  V30 7911 C 719.819 -3.90318 -3.65453 0
M  V30 7912 C 721.119 -4.93005 -1.72461 0
M  V30 7913 H 722.813 -2.90567 -0.721888 0
M  V30 7914 H 720.359 -1.39786 -0.345803 0
M  V30 7915 H 722.312 -2.7922 -3.15617 0
M  V30 7916 H 721.036 -1.58664 -2.8547 0
M  V30 7917 H 719.695 -3.30341 -1.58967 0
M  V30 7918 H 719.343 -2.98889 -4.04567 0
M  V30 7919 H 719.043 -4.67597 -3.55846 0
M  V30 7920 H 720.567 -4.24747 -4.3866 0
M  V30 7921 H 721.981 -5.23354 -2.34036 0
M  V30 7922 H 720.378 -5.74436 -1.73618 0
M  V30 7923 H 721.448 -4.80053 -0.683898 0
M  V30 7924 N 722.791 0.367657 -1.53252 0
M  V30 7925 C 724.207 0.709191 -1.42978 0
M  V30 7926 C 724.407 1.93352 -0.567193 0
M  V30 7927 O 723.463 2.52453 -0.0488349 0
M  V30 7928 C 724.776 0.924338 -2.86141 0
M  V30 7929 C 726.324 1.02448 -2.95759 0
M  V30 7930 C 726.799 1.27211 -4.39979 0
M  V30 7931 N 728.29 1.33986 -4.43398 0
M  V30 7932 C 729.025 1.54852 -5.52095 0
M  V30 7933 N 728.521 1.73049 -6.7084 0
M  V30 7934 N 730.314 1.57205 -5.39669 0
M  V30 7935 H 722.465 -0.437669 -2.07842 0
M  V30 7936 H 724.728 -0.133737 -0.938519 0
M  V30 7937 H 724.434 0.0965455 -3.51567 0
M  V30 7938 H 724.308 1.83302 -3.29667 0
M  V30 7939 H 726.695 1.84282 -2.30487 0
M  V30 7940 H 726.776 0.0932301 -2.5563 0
M  V30 7941 H 726.42 0.458792 -5.05824 0
M  V30 7942 H 726.35 2.21654 -4.77679 0
M  V30 7943 H 728.841 1.21545 -3.5782 0
M  V30 7944 H 729.154 1.88538 -7.49449 0
M  V30 7945 H 727.499 1.70231 -6.7383 0
M  V30 7946 H 730.69 1.42555 -4.45865 0
M  V30 7947 H 730.863 1.73126 -6.24445 0
M  V30 7948 N 724.269 1.44576 0.627338 0
M  V30 7949 C 725.68 1.42266 1.20902 0
M  V30 7950 C 726.031 0.139964 1.957 0
M  V30 7951 O 725.156 -0.759489 2.02634 0
M  V30 7952 C 725.751 2.57727 2.19914 0
M  V30 7953 C 724.31 2.58599 2.73502 0
M  V30 7954 C 723.457 2.34145 1.48564 0
M  V30 7955 H 726.408 1.53102 0.417791 0
M  V30 7956 H 726.429 2.30697 3.02588 0
M  V30 7957 H 725.941 3.51068 1.65447 0
M  V30 7958 H 724.042 1.6921 3.31962 0
M  V30 7959 H 724.155 3.57205 3.19282 0
M  V30 7960 H 722.519 1.83313 1.76829 0
M  V30 7961 H 723.302 3.29606 0.959935 0
M  V30 7962 N 725.747 -0.868086 1.31537 0
M  V30 7963 C 726.972 -1.65926 1.24432 0
M  V30 7964 C 727.397 -1.87169 -0.186936 0
M  V30 7965 O 726.755 -1.4148 -1.13371 0
M  V30 7966 C 726.803 -3.00347 1.9956 0
M  V30 7967 O 725.907 -3.90221 1.33422 0
M  V30 7968 H 725.248 -0.506375 0.429512 0
M  V30 7969 H 727.778 -1.0822 1.73637 0
M  V30 7970 H 727.788 -3.50269 2.09226 0
M  V30 7971 H 726.463 -2.84205 3.03645 0
M  V30 7972 H 725.04 -3.48672 1.32219 0
M  V30 7973 N 727.225 -1.14528 -1.08264 0
M  V30 7974 C 728.158 -0.777154 -2.14559 0
M  V30 7975 C 729.136 0.242165 -1.60787 0
M  V30 7976 O 730.32 0.130882 -1.88045 0
M  V30 7977 C 727.447 -0.154092 -3.38349 0
M  V30 7978 C 726.493 -1.14382 -4.10876 0
M  V30 7979 S 727.326 -2.68173 -4.63512 0
M  V30 7980 C 728.482 -2.0726 -5.90588 0
M  V30 7981 H 728.715 -1.67748 -2.45454 0
M  V30 7982 H 726.248 -0.966661 -1.20395 0
M  V30 7983 H 728.206 0.19897 -4.10018 0
M  V30 7984 H 726.867 0.723688 -3.05649 0
M  V30 7985 H 726.06 -0.655908 -4.99714 0
M  V30 7986 H 725.662 -1.44095 -3.45127 0
M  V30 7987 H 727.954 -1.42895 -6.62259 0
M  V30 7988 H 728.897 -2.94227 -6.44078 0
M  V30 7989 H 729.305 -1.51935 -5.43669 0
M  V30 7990 N 728.703 1.26451 -0.940633 0
M  V30 7991 C 729.95 1.93778 -0.587909 0
M  V30 7992 C 730.278 1.73811 0.872935 0
M  V30 7993 O 729.533 1.06816 1.63978 0
M  V30 7994 C 729.832 3.46503 -0.875794 0
M  V30 7995 C 729.498 3.86609 -2.32043 0
M  V30 7996 C 728.16 3.97269 -2.71534 0
M  V30 7997 C 730.512 4.0672 -3.25927 0
M  V30 7998 C 727.84 4.25436 -4.04006 0
M  V30 7999 C 730.192 4.36375 -4.57995 0
M  V30 8000 C 728.856 4.45249 -4.97302 0
M  V30 8001 H 728.126 0.709084 -0.215131 0
M  V30 8002 H 730.773 1.50272 -1.18704 0
M  V30 8003 H 729.078 3.91319 -0.194124 0
M  V30 8004 H 730.775 3.96759 -0.581665 0
M  V30 8005 H 727.365 3.78858 -2.00411 0
M  V30 8006 H 731.549 3.97912 -2.96614 0
M  V30 8007 H 726.805 4.30519 -4.34124 0
M  V30 8008 H 730.979 4.50882 -5.30734 0
M  V30 8009 H 728.606 4.66829 -5.99979 0
M  V30 8010 N 730.181 0.707592 1.40822 0
M  V30 8011 C 731.592 0.317011 1.83989 0
M  V30 8012 C 731.943 -1.14697 1.59182 0
M  V30 8013 O 731.068 -1.8818 1.06852 0
M  V30 8014 C 731.663 0.568593 3.33995 0
M  V30 8015 C 730.222 0.231804 3.75686 0
M  V30 8016 C 729.369 0.844933 2.64114 0
M  V30 8017 H 732.32 0.907349 1.30203 0
M  V30 8018 H 732.341 -0.168798 3.80125 0
M  V30 8019 H 731.853 1.63417 3.52018 0
M  V30 8020 H 729.954 -0.82903 3.6326 0
M  V30 8021 H 730.067 0.695219 4.74029 0
M  V30 8022 H 728.431 0.273588 2.53226 0
M  V30 8023 H 729.214 1.91462 2.84951 0
M  V30 8024 N 731.66 -1.50943 0.453197 0
M  V30 8025 C 732.59 -2.31005 -0.34044 0
M  V30 8026 C 733.571 -1.37112 -1.00669 0
M  V30 8027 O 734.756 -1.66033 -1.0073 0
M  V30 8028 C 731.886 -3.16358 -1.433 0
M  V30 8029 C 730.84 -4.18658 -0.889363 0
M  V30 8030 C 730.166 -4.92633 -2.07887 0
M  V30 8031 C 731.466 -5.22227 0.0871142 0
M  V30 8032 H 733.16 -2.97601 0.327723 0
M  V30 8033 H 730.706 -1.43119 0.159054 0
M  V30 8034 H 732.659 -3.71155 -1.99555 0
M  V30 8035 H 731.383 -2.47613 -2.12968 0
M  V30 8036 H 730.042 -3.64936 -0.348915 0
M  V30 8037 H 729.69 -4.20376 -2.76211 0
M  V30 8038 H 729.39 -5.61819 -1.72143 0
M  V30 8039 H 730.914 -5.50258 -2.64666 0
M  V30 8040 H 732.328 -5.72001 -0.385656 0
M  V30 8041 H 730.725 -5.99032 0.357926 0
M  V30 8042 H 731.795 -4.74077 1.01879 0
M  V30 8043 N 733.138 -0.185124 -1.56509 0
M  V30 8044 C 734.068 0.735098 -2.21627 0
M  V30 8045 C 735.049 1.2288 -1.1762 0
M  V30 8046 O 736.234 1.27945 -1.46095 0
M  V30 8047 C 733.364 1.95889 -2.86783 0
M  V30 8048 C 732.318 1.6005 -3.96948 0
M  V30 8049 C 731.644 2.90009 -4.4922 0
M  V30 8050 C 732.944 0.818008 -5.15855 0
M  V30 8051 H 734.638 0.192274 -2.98782 0
M  V30 8052 H 732.184 0.0910393 -1.43712 0
M  V30 8053 H 734.137 2.60779 -3.31017 0
M  V30 8054 H 732.861 2.52608 -2.07018 0
M  V30 8055 H 731.52 0.975237 -3.5339 0
M  V30 8056 H 731.168 3.44797 -3.6623 0
M  V30 8057 H 730.868 2.66778 -5.23549 0
M  V30 8058 H 732.392 3.55904 -4.9615 0
M  V30 8059 H 733.806 1.36979 -5.56695 0
M  V30 8060 H 732.203 0.684207 -5.96187 0
M  V30 8061 H 733.273 -0.182939 -4.84555 0
M  V30 8062 N 734.616 1.57351 0.0885366 0
M  V30 8063 C 735.844 1.90631 0.804196 0
M  V30 8064 C 736.259 0.779474 1.71958 0
M  V30 8065 O 735.616 -0.248179 1.80805 0
M  V30 8066 C 735.667 3.23568 1.61202 0
M  V30 8067 O 735.388 4.31917 0.733447 0
M  V30 8068 C 736.889 3.70753 2.43016 0
M  V30 8069 H 734.109 0.630501 0.229585 0
M  V30 8070 H 736.653 2.044 0.0638092 0
M  V30 8071 H 734.808 3.11377 2.30485 0
M  V30 8072 H 735.222 5.08297 1.29361 0
M  V30 8073 H 736.696 4.66447 2.9518 0
M  V30 8074 H 737.173 2.98922 3.2178 0
M  V30 8075 H 737.779 3.85834 1.7892 0
M  V30 8076 N 736.094 -0.359525 1.53444 0
M  V30 8077 C 737.341 -1.10152 1.6992 0
M  V30 8078 C 737.669 -1.89125 0.4541 0
M  V30 8079 O 736.924 -1.87396 -0.564023 0
M  V30 8080 C 737.223 -2.08287 2.90433 0
M  V30 8081 C 736.889 -1.45749 4.26694 0
M  V30 8082 C 735.551 -1.28421 4.63747 0
M  V30 8083 C 737.903 -1.00557 5.11408 0
M  V30 8084 C 735.231 -0.644951 5.83144 0
M  V30 8085 C 737.583 -0.380288 6.31456 0
M  V30 8086 C 736.247 -0.194557 6.67216 0
M  V30 8087 H 735.517 -0.403076 0.621781 0
M  V30 8088 H 738.164 -0.382612 1.87639 0
M  V30 8089 H 736.469 -2.86503 2.67251 0
M  V30 8090 H 738.166 -2.65662 3.00374 0
M  V30 8091 H 734.756 -1.6023 3.97523 0
M  V30 8092 H 738.94 -1.12735 4.83326 0
M  V30 8093 H 734.196 -0.48952 6.09437 0
M  V30 8094 H 738.37 -0.0219455 6.96397 0
M  V30 8095 H 735.997 0.30285 7.59597 0
M  V30 8096 N 737.572 -1.44907 -0.619662 0
M  V30 8097 C 738.988 -1.29046 -0.939107 0
M  V30 8098 C 739.188 -0.23462 -2.00129 0
M  V30 8099 O 738.244 0.37558 -2.49691 0
M  V30 8100 C 739.557 -2.66567 -1.39149 0
M  V30 8101 C 741.105 -2.74368 -1.50635 0
M  V30 8102 C 741.58 -4.12386 -1.99253 0
M  V30 8103 N 743.071 -4.1462 -2.06506 0
M  V30 8104 C 743.806 -5.18272 -2.4532 0
M  V30 8105 N 743.302 -6.32278 -2.83189 0
M  V30 8106 N 745.095 -5.05628 -2.45554 0
M  V30 8107 H 737.246 -2.12239 0.0826135 0
M  V30 8108 H 739.509 -0.947652 -0.0256829 0
M  V30 8109 H 739.215 -3.4496 -0.685254 0
M  V30 8110 H 739.089 -2.94224 -2.36034 0
M  V30 8111 H 741.476 -1.96287 -2.20353 0
M  V30 8112 H 741.557 -2.50439 -0.520963 0
M  V30 8113 H 741.201 -4.90947 -1.30127 0
M  V30 8114 H 741.131 -4.33699 -2.98684 0
M  V30 8115 H 743.622 -3.32343 -1.79878 0
M  V30 8116 H 743.935 -7.07172 -3.11652 0
M  V30 8117 H 742.28 -6.35699 -2.80913 0
M  V30 8118 H 745.471 -4.15613 -2.15367 0
M  V30 8119 H 745.644 -5.86529 -2.75478 0
M  V30 8120 N 739.05 0.861098 -1.31996 0
M  V30 8121 C 740.013 1.95068 -1.20338 0
M  V30 8122 C 741.013 1.60289 -0.128114 0
M  V30 8123 O 742.203 1.70048 -0.378044 0
M  V30 8124 C 739.335 3.30153 -0.849205 0
M  V30 8125 H 740.528 2.06833 -2.17164 0
M  V30 8126 H 738.081 1.05049 -1.15734 0
M  V30 8127 H 738.816 3.24087 0.117508 0
M  V30 8128 H 738.601 3.56771 -1.62655 0
M  V30 8129 H 740.091 4.10025 -0.791782 0
M  V30 8130 N 740.528 1.15101 1.07655 0
M  V30 8131 C 741.777 0.918528 1.79572 0
M  V30 8132 C 742.09 -0.555922 1.87534 0
M  V30 8133 O 743.296 -0.905893 2.55941 0
M  V30 8134 C 741.752 1.59394 3.22679 0
M  V30 8135 C 741.36 3.1052 3.22927 0
M  V30 8136 C 743.104 1.44289 3.99225 0
M  V30 8137 C 741.011 3.70862 4.60668 0
M  V30 8138 H 739.941 0.340006 0.672987 0
M  V30 8139 H 742.592 1.38079 1.20857 0
M  V30 8140 H 740.974 1.05936 3.81567 0
M  V30 8141 H 742.148 3.70708 2.737 0
M  V30 8142 H 740.463 3.25351 2.59876 0
M  V30 8143 H 743.06 1.86766 5.01022 0
M  V30 8144 H 743.403 0.389975 4.14469 0
M  V30 8145 H 743.936 1.94826 3.46825 0
M  V30 8146 H 740.675 4.7604 4.50628 0
M  V30 8147 H 740.195 3.15456 5.10145 0
M  V30 8148 H 741.874 3.71607 5.29639 0
M  V30 8149 N 742.006 -1.2595 0.947325 0
M  V30 8150 C 742.954 -2.28152 0.452687 0
M  V30 8151 C 743.948 -1.62655 -0.473239 0
M  V30 8152 O 745.154 -1.76549 -0.350774 0
M  V30 8153 H 741.529 -0.741049 0.12787 0
M  V30 8154 H 743.5 -2.67267 1.32707 0
M  V30 8155 C 742.249 -3.46719 -0.26098 0
M  V30 8156 H 741.572 -3.97345 0.442352 0
M  V30 8157 H 743.012 -4.20135 -0.571208 0
M  V30 8158 C 741.471 -3.02605 -1.48094 0
M  V30 8159 O 742.001 -3.07979 -2.57899 0
M  V30 8160 N 740.207 -2.57877 -1.33969 0
M  V30 8161 H 739.754 -2.53704 -0.446295 0
M  V30 8162 H 739.712 -2.28725 -2.15713 0
M  V30 8163 O 743.523 -0.8533 -1.37117 0
M  V30 8164 H 744.214 -0.44662 -1.88481 0
M  V30 END ATOM
M  V30 BEGIN BOND
M  V30 END BOND
M  V30 END CTAB
M  END
$$$$
