drugbank_target|P55882 Hydroxymethylpyrimidine/phosphomethylpyrimidine kinase (DB02022)
 OpenBabel12092119543D

  0  0  0     0  0            999 V3000
M  V30 BEGIN CTAB
M  V30 COUNTS 4013 4051 0 0 0
M  V30 BEGIN ATOM
M  V30 1 H -0.908 1.98254 -0.117106 0
M  V30 2 N 0 1.576 0 0
M  V30 3 C 0.933 2.03868 1.02534 0
M  V30 4 C 1.911 0.928543 1.3348 0
M  V30 5 O 3.095 1.19667 1.45644 0
M  V30 6 C 0.222 2.43627 2.35294 0
M  V30 7 C -0.732 3.65373 2.2001 0
M  V30 8 S 0.101 5.13292 1.52614 0
M  V30 9 C 1.257 5.56322 2.86805 0
M  V30 10 H 1.49 2.90518 0.631377 0
M  V30 11 H -0.977 1.52953 0.210867 0
M  V30 12 H 0.981 2.67203 3.11629 0
M  V30 13 H -0.358 1.57376 2.7183 0
M  V30 14 H -1.165 3.90944 3.18086 0
M  V30 15 H -1.563 3.418 1.51819 0
M  V30 16 H 0.729 5.58782 3.83104 0
M  V30 17 H 1.672 6.56266 2.65933 0
M  V30 18 H 2.08 4.83886 2.90714 0
M  V30 19 N 1.4781 -0.272755 1.55222 0
M  V30 20 C 2.4101 -1.35946 1.8453 0
M  V30 21 C 3.4231 -1.45525 0.729818 0
M  V30 22 O 4.6121 -1.47337 1.00767 0
M  V30 23 C 1.7121 -2.74069 1.99347 0
M  V30 24 C 0.8851 -2.87079 3.30007 0
M  V30 25 C -0.0559 -4.05879 3.34886 0
M  V30 26 O -1.0299 -3.96626 4.08261 0
M  V30 27 N 0.1721 -5.17857 2.62307 0
M  V30 28 H 2.9371 -1.11149 2.78327 0
M  V30 29 H 0.4981 -0.462869 1.55142 0
M  V30 30 H 2.4901 -3.51838 1.99981 0
M  V30 31 H 1.0601 -2.91688 1.12415 0
M  V30 32 H 0.2801 -1.96193 3.41909 0
M  V30 33 H 1.5681 -2.92701 4.16177 0
M  V30 34 H 0.9661 -5.28261 2.02377 0
M  V30 35 H -0.4769 -5.93855 2.68663 0
M  V30 36 N 2.9562 -1.48159 -0.537278 0
M  V30 37 C 4.3722 -1.34118 -0.865129 0
M  V30 38 C 4.5722 -0.346678 -1.98495 0
M  V30 39 O 3.6282 0.234715 -2.51407 0
M  V30 40 C 4.9412 -2.73963 -1.23954 0
M  V30 41 C 6.4892 -2.82397 -1.34984 0
M  V30 42 C 6.9642 -4.22928 -1.75772 0
M  V30 43 N 8.4552 -4.25566 -1.82887 0
M  V30 44 C 9.1902 -5.31235 -2.15817 0
M  V30 45 N 8.6862 -6.47189 -2.47222 0
M  V30 46 N 10.4792 -5.18624 -2.16761 0
M  V30 47 H 2.6302 -2.1144 0.201715 0
M  V30 48 H 4.8932 -0.947598 0.0275949 0
M  V30 49 H 4.5992 -3.48264 -0.490381 0
M  V30 50 H 4.4732 -3.0702 -2.19132 0
M  V30 51 H 6.8602 -2.08356 -2.08978 0
M  V30 52 H 6.9412 -2.5297 -0.379448 0
M  V30 53 H 6.5852 -4.97482 -1.02341 0
M  V30 54 H 6.5152 -4.49794 -2.73848 0
M  V30 55 H 9.0062 -3.41924 -1.60924 0
M  V30 56 H 9.3192 -7.23564 -2.71433 0
M  V30 57 H 7.6642 -6.50476 -2.44757 0
M  V30 58 H 10.8552 -4.27056 -1.91679 0
M  V30 59 H 11.0282 -6.01078 -2.42093 0
M  V30 60 N 4.4343 0.785586 -1.36625 0
M  V30 61 C 5.6833 1.53883 -1.30396 0
M  V30 62 C 5.9963 1.95271 0.113452 0
M  V30 63 O 7.2023 2.69858 0.298142 0
M  V30 64 C 5.6583 2.77808 -2.28802 0
M  V30 65 C 5.2663 2.43574 -3.75999 0
M  V30 66 C 7.0103 3.55783 -2.31558 0
M  V30 67 C 4.9173 3.63919 -4.66173 0
M  V30 68 H 3.8473 0.577678 -0.484566 0
M  V30 69 H 6.4983 0.861705 -1.62009 0
M  V30 70 H 4.8803 3.47339 -1.90188 0
M  V30 71 H 6.0543 1.81916 -4.23371 0
M  V30 72 H 4.3693 1.78803 -3.76056 0
M  V30 73 H 6.9663 4.45205 -2.96137 0
M  V30 74 H 7.3093 3.94644 -1.3252 0
M  V30 75 H 7.8423 2.93235 -2.68809 0
M  V30 76 H 4.5813 3.3015 -5.66287 0
M  V30 77 H 4.1013 4.2473 -4.23515 0
M  V30 78 H 5.7803 4.30901 -4.82632 0
M  V30 79 N 5.9124 1.20967 1.01018 0
M  V30 80 C 6.8604 0.961223 2.1181 0
M  V30 81 C 7.8544 -0.0897034 1.69162 0
M  V30 82 O 9.0604 0.0612271 1.79896 0
M  V30 83 H 5.4354 0.29355 0.692338 0
M  V30 84 H 7.4064 1.90178 2.29946 0
M  V30 85 C 6.1554 0.536854 3.4353 0
M  V30 86 H 5.4784 1.33713 3.76777 0
M  V30 87 H 6.9184 0.402286 4.22087 0
M  V30 88 C 5.3774 -0.751574 3.2841 0
M  V30 89 O 5.9074 -1.80841 3.58691 0
M  V30 90 N 4.1134 -0.716079 2.81639 0
M  V30 91 H 3.6604 0.144236 2.57196 0
M  V30 92 H 3.6184 -1.57847 2.71904 0
M  V30 93 N 7.3905 -1.2043 1.01659 0
M  V30 94 C 8.3535 -2.21433 0.591616 0
M  V30 95 C 9.3535 -1.57203 -0.338226 0
M  V30 96 O 10.5435 -1.73737 -0.126918 0
M  V30 97 C 7.6755 -3.40628 -0.136058 0
M  V30 98 H 8.8685 -2.60545 1.48514 0
M  V30 99 H 6.4215 -1.33893 0.806379 0
M  V30 100 H 7.1565 -3.07019 -1.04449 0
M  V30 101 H 6.9415 -3.88475 0.531917 0
M  V30 102 H 8.4315 -4.15475 -0.420735 0
M  V30 103 N 8.8686 -0.792821 -1.36206 0
M  V30 104 C 9.7986 -0.207853 -2.32573 0
M  V30 105 C 10.7796 0.659055 -1.56813 0
M  V30 106 O 11.9646 0.592176 -1.84951 0
M  V30 107 C 9.0946 0.655449 -3.41059 0
M  V30 108 C 8.0486 -0.111842 -4.27854 0
M  V30 109 C 7.3746 0.872274 -5.27537 0
M  V30 110 C 8.6746 -1.30299 -5.05786 0
M  V30 111 H 10.3686 -1.01294 -2.81744 0
M  V30 112 H 7.9146 -0.48854 -1.3546 0
M  V30 113 H 9.8676 1.07464 -4.07467 0
M  V30 114 H 8.5916 1.49328 -2.90463 0
M  V30 115 H 7.2506 -0.512053 -3.63006 0
M  V30 116 H 6.8986 1.70523 -4.73214 0
M  V30 117 H 6.5986 0.363291 -5.86476 0
M  V30 118 H 8.1226 1.28996 -5.96818 0
M  V30 119 H 9.5366 -0.959379 -5.65216 0
M  V30 120 H 7.9336 -1.7455 -5.74154 0
M  V30 121 H 9.0036 -2.09663 -4.37229 0
M  V30 122 N 10.3467 1.47872 -0.545128 0
M  V30 123 C 11.5747 2.06889 -0.021084 0
M  V30 124 C 11.9897 1.39955 1.2672 0
M  V30 125 O 11.3467 0.492036 1.75742 0
M  V30 126 C 11.3977 3.60996 0.190817 0
M  V30 127 O 11.1187 4.25419 -1.04644 0
M  V30 128 C 12.6197 4.36849 0.753521 0
M  V30 129 H 9.8397 0.669785 -0.0403635 0
M  V30 130 H 12.3837 1.90049 -0.755095 0
M  V30 131 H 10.5387 3.77391 0.87492 0
M  V30 132 H 10.9527 5.17785 -0.836611 0
M  V30 133 H 12.4267 5.45399 0.851139 0
M  V30 134 H 12.9037 4.02306 1.762 0
M  V30 135 H 13.5097 4.25169 0.105503 0
M  V30 136 N 11.8248 0.280983 1.55075 0
M  V30 137 C 13.0738 -0.334784 1.98902 0
M  V30 138 C 13.3868 -1.56534 1.17288 0
M  V30 139 O 14.5928 -2.25443 1.51287 0
M  V30 140 C 13.0488 -0.646994 3.54037 0
M  V30 141 C 12.6568 0.564085 4.44435 0
M  V30 142 C 14.4008 -1.22506 4.06439 0
M  V30 143 C 12.3078 0.226137 5.90967 0
M  V30 144 H 11.2378 -0.128866 0.742906 0
M  V30 145 H 13.8888 0.386556 1.79382 0
M  V30 146 H 12.2708 -1.42739 3.6938 0
M  V30 147 H 13.4448 1.34082 4.40861 0
M  V30 148 H 11.7598 1.0594 4.02698 0
M  V30 149 H 14.3568 -1.49182 5.13468 0
M  V30 150 H 14.6998 -2.16085 3.55827 0
M  V30 151 H 15.2328 -0.50682 3.94558 0
M  V30 152 H 11.9718 1.12996 6.45687 0
M  V30 153 H 11.4918 -0.513717 5.97596 0
M  V30 154 H 13.1708 -0.179539 6.46751 0
M  V30 155 N 13.3029 -1.57598 0.00835791 0
M  V30 156 C 14.2659 -2.07884 -0.965242 0
M  V30 157 C 15.2659 -0.989825 -1.26725 0
M  V30 158 O 16.4559 -1.25218 -1.21104 0
M  V30 159 C 13.5879 -2.52731 -2.28779 0
M  V30 160 H 14.7809 -2.95178 -0.530112 0
M  V30 161 H 12.3339 -1.54458 -0.239283 0
M  V30 162 H 13.0689 -1.68705 -2.76964 0
M  V30 163 H 12.8539 -3.32272 -2.08177 0
M  V30 164 H 14.3439 -2.91933 -2.98605 0
M  V30 165 N 14.781 0.264519 -1.55364 0
M  V30 166 C 16.029 0.993021 -1.76021 0
M  V30 167 C 16.35 1.86511 -0.569099 0
M  V30 168 O 15.62 1.91438 0.415735 0
M  V30 169 H 14.2 0.369639 -0.649135 0
M  V30 170 H 16.862 0.286707 -1.9278 0
M  V30 171 H 15.958 1.62502 -2.66457 0
M  V30 172 N 16.2591 1.48442 0.529413 0
M  V30 173 C 17.4871 1.60151 1.30994 0
M  V30 174 C 17.9021 0.261985 1.86973 0
M  V30 175 O 17.2591 -0.748805 1.66431 0
M  V30 176 C 17.3101 2.64854 2.46038 0
M  V30 177 O 17.0311 3.93608 1.92365 0
M  V30 178 C 18.5321 2.87007 3.37849 0
M  V30 179 H 15.7521 0.539971 0.398338 0
M  V30 180 H 18.2961 1.94273 0.638597 0
M  V30 181 H 16.4511 2.33589 3.09055 0
M  V30 182 H 16.8651 4.51055 2.67675 0
M  V30 183 H 18.3391 3.64068 4.14919 0
M  V30 184 H 18.8161 1.95852 3.93114 0
M  V30 185 H 19.4221 3.19579 2.80623 0
M  V30 186 N 17.7372 -0.778329 1.37039 0
M  V30 187 C 19.0142 -1.52551 1.22424 0
M  V30 188 C 19.3942 -2.10288 -0.184964 0
M  V30 189 O 18.7422 -1.94953 -1.19187 0
M  V30 190 C 18.9522 -2.61164 2.31504 0
M  V30 191 C 20.3002 -3.28746 2.68721 0
M  V30 192 O 21.3242 -2.71455 2.30631 0
M  V30 193 O 20.1832 -4.3231 3.3432 0
M  V30 194 H 17.2772 -0.675343 0.477326 0
M  V30 195 H 19.8232 -0.815859 1.48801 0
M  V30 196 H 18.5952 -2.16574 3.25901 0
M  V30 197 H 18.2182 -3.39737 2.06554 0
M  V30 198 N 19.2153 -1.21501 -1.00376 0
M  V30 199 C 20.6263 -1.03146 -1.55621 0
M  V30 200 C 20.9773 0.408375 -1.91903 0
M  V30 201 O 20.1023 1.29177 -1.73616 0
M  V30 202 C 20.6973 -1.86612 -2.82775 0
M  V30 203 C 19.2563 -1.72586 -3.34501 0
M  V30 204 C 18.4033 -1.83747 -2.07683 0
M  V30 205 H 21.3543 -1.35505 -0.826081 0
M  V30 206 H 21.3753 -1.3771 -3.54706 0
M  V30 207 H 20.8873 -2.91399 -2.56336 0
M  V30 208 H 18.9883 -0.704877 -3.65872 0
M  V30 209 H 19.1013 -2.54623 -4.05837 0
M  V30 210 H 17.4653 -1.27069 -2.20739 0
M  V30 211 H 18.2483 -2.90044 -1.83655 0
M  V30 212 N 20.6934 1.19889 -1.02296 0
M  V30 213 C 21.9184 1.9393 -0.735237 0
M  V30 214 C 22.3434 1.74639 0.698782 0
M  V30 215 O 21.7014 1.04481 1.48167 0
M  V30 216 C 21.7494 3.43916 -1.08417 0
M  V30 217 O 20.8534 4.11917 -0.199446 0
M  V30 218 H 20.1944 0.605645 -0.272196 0
M  V30 219 H 22.7244 1.52137 -1.36804 0
M  V30 220 H 22.7344 3.9456 -1.03856 0
M  V30 221 H 21.4094 3.5728 -2.12894 0
M  V30 222 H 19.9864 3.71666 -0.303136 0
M  V30 223 N 22.1715 0.800033 1.35784 0
M  V30 224 C 23.4195 0.376597 1.9856 0
M  V30 225 C 23.7405 -1.05812 1.63795 0
M  V30 226 O 23.0105 -1.73103 0.917171 0
M  V30 227 H 21.5905 0.136261 0.734467 0
M  V30 228 H 24.2525 1.02442 1.65806 0
M  V30 229 H 23.3485 0.477002 3.08433 0
M  V30 230 N 23.6496 -1.47581 0.552962 0
M  V30 231 C 24.8976 -2.02082 0.0272703 0
M  V30 232 C 25.2186 -1.4301 -1.32563 0
M  V30 233 O 24.4886 -0.603745 -1.86365 0
M  V30 234 H 23.0686 -0.746966 0.00709182 0
M  V30 235 H 25.7306 -1.81033 0.722008 0
M  V30 236 H 24.8266 -3.12034 -0.0639951 0
M  V30 237 N 25.1277 -0.289203 -1.54924 0
M  V30 238 C 26.0907 0.579144 -2.21762 0
M  V30 239 C 27.0907 1.07047 -1.1999 0
M  V30 240 O 28.2807 0.968384 -1.44803 0
M  V30 241 C 25.4127 1.80055 -2.8947 0
M  V30 242 H 26.6057 -0.00464908 -2.999 0
M  V30 243 H 24.1587 -0.0399306 -1.56249 0
M  V30 244 H 24.8937 2.42449 -2.15381 0
M  V30 245 H 24.6787 1.45602 -3.64064 0
M  V30 246 H 26.1687 2.41773 -3.40493 0
M  V30 247 N 26.6058 1.57591 -0.0167156 0
M  V30 248 C 27.8538 1.90906 0.663285 0
M  V30 249 C 28.1748 0.892509 1.73376 0
M  V30 250 O 27.4448 -0.0677623 1.95783 0
M  V30 251 H 26.0248 0.704637 0.247983 0
M  V30 252 H 28.6868 1.94803 -0.0615909 0
M  V30 253 H 27.7828 2.9116 1.12393 0
M  V30 254 N 28.0839 -0.256276 1.55502 0
M  V30 255 C 29.3329 -0.983486 1.76098 0
M  V30 256 C 29.6459 -1.86837 0.578896 0
M  V30 257 O 30.8519 -2.63163 0.667648 0
M  V30 258 C 29.3079 -1.79868 3.1173 0
M  V30 259 C 28.9159 -0.961648 4.37557 0
M  V30 260 C 30.6599 -2.51919 3.41668 0
M  V30 261 C 28.5669 -1.77219 5.64223 0
M  V30 262 H 27.4969 -0.370936 0.656447 0
M  V30 263 H 30.1479 -0.238492 1.81944 0
M  V30 264 H 28.5299 -2.58527 2.99966 0
M  V30 265 H 29.7039 -0.218048 4.60284 0
M  V30 266 H 28.0189 -0.354913 4.14885 0
M  V30 267 H 30.6159 -3.12998 4.33516 0
M  V30 268 H 30.9589 -3.23059 2.62562 0
M  V30 269 H 31.4919 -1.80278 3.54605 0
M  V30 270 H 28.2309 -1.10471 6.46124 0
M  V30 271 H 27.7509 -2.49132 5.45613 0
M  V30 272 H 29.4299 -2.34169 6.03137 0
M  V30 273 N 29.562 -1.4872 -0.521534 0
M  V30 274 C 30.494 -1.59968 -1.64143 0
M  V30 275 C 31.507 -0.483463 -1.55456 0
M  V30 276 O 32.696 -0.75467 -1.61762 0
M  V30 277 C 29.796 -1.52127 -3.02838 0
M  V30 278 C 28.969 -2.78932 -3.36921 0
M  V30 279 C 28.028 -2.64428 -4.54933 0
M  V30 280 O 27.054 -3.38331 -4.57735 0
M  V30 281 N 28.256 -1.74606 -5.53618 0
M  V30 282 H 31.021 -2.56548 -1.54929 0
M  V30 283 H 28.582 -1.45551 -0.708988 0
M  V30 284 H 30.574 -1.40106 -3.79674 0
M  V30 285 H 29.144 -0.634868 -3.06085 0
M  V30 286 H 28.364 -3.05455 -2.4918 0
M  V30 287 H 29.652 -3.63041 -3.56481 0
M  V30 288 H 29.05 -1.13782 -5.54139 0
M  V30 289 H 27.607 -1.6852 -6.29638 0
M  V30 290 N 31.0401 0.771051 -1.3745 0
M  V30 291 C 32.0031 1.86598 -1.33093 0
M  V30 292 C 33.0031 1.59076 -0.234845 0
M  V30 293 O 34.1931 1.67145 -0.490732 0
M  V30 294 C 31.3251 3.23747 -1.06773 0
M  V30 295 H 32.5181 1.91873 -2.30488 0
M  V30 296 H 30.0711 0.970876 -1.2249 0
M  V30 297 H 30.8061 3.24148 -0.099129 0
M  V30 298 H 30.5911 3.45115 -1.86112 0
M  V30 299 H 32.0811 4.03824 -1.06377 0
M  V30 300 N 32.5182 1.22032 0.997298 0
M  V30 301 C 33.7952 0.950823 1.70935 0
M  V30 302 C 34.1752 -0.535292 2.042 0
M  V30 303 O 33.5232 -1.50217 1.72183 0
M  V30 304 C 33.7332 1.84386 2.96315 0
M  V30 305 C 35.0812 2.09732 3.69185 0
M  V30 306 O 36.1052 1.81798 3.06314 0
M  V30 307 O 34.9642 2.57018 4.82291 0
M  V30 308 H 32.0582 0.357204 0.745878 0
M  V30 309 H 34.6042 1.32997 1.05404 0
M  V30 310 H 33.3762 2.84928 2.68201 0
M  V30 311 H 32.9992 1.46602 3.69586 0
M  V30 312 N 33.9963 -1.19345 1.0293 0
M  V30 313 C 34.9263 -2.2481 0.631105 0
M  V30 314 C 35.9073 -1.66245 -0.360104 0
M  V30 315 O 37.0923 -1.92677 -0.242726 0
M  V30 316 C 34.2223 -3.47295 -0.0184607 0
M  V30 317 C 33.1763 -4.18536 0.895073 0
M  V30 318 C 32.5023 -5.34586 0.110592 0
M  V30 319 C 33.8023 -4.73287 2.209 0
M  V30 320 H 35.4963 -2.58372 1.51275 0
M  V30 321 H 33.0423 -1.24194 0.728818 0
M  V30 322 H 34.9953 -4.20268 -0.308675 0
M  V30 323 H 33.7193 -3.12933 -0.934907 0
M  V30 324 H 32.3783 -3.47446 1.16949 0
M  V30 325 H 32.0263 -4.96469 -0.807902 0
M  V30 326 H 31.7263 -5.83183 0.719087 0
M  V30 327 H 33.2503 -6.10355 -0.172871 0
M  V30 328 H 34.6643 -5.38013 1.98028 0
M  V30 329 H 33.0613 -5.32373 2.76946 0
M  V30 330 H 34.1313 -3.91331 2.86336 0
M  V30 331 N 35.4744 -0.807222 -1.35358 0
M  V30 332 C 36.4214 -0.216037 -2.29787 0
M  V30 333 C 37.3914 0.650278 -1.52842 0
M  V30 334 O 38.5764 0.595227 -1.81278 0
M  V30 335 C 35.7164 0.628893 -3.39321 0
M  V30 336 C 34.8294 -0.257927 -4.31229 0
M  V30 337 C 33.9644 0.595069 -5.27856 0
M  V30 338 C 33.0034 -0.292111 -6.11403 0
M  V30 339 N 32.1404 0.520895 -7.00165 0
M  V30 340 H 36.9804 -1.02671 -2.79755 0
M  V30 341 H 34.5174 -0.517839 -1.37684 0
M  V30 342 H 36.4754 1.13393 -4.01494 0
M  V30 343 H 35.1054 1.40482 -2.90628 0
M  V30 344 H 34.1574 -0.881076 -3.70056 0
M  V30 345 H 35.4694 -0.940759 -4.89848 0
M  V30 346 H 34.6234 1.16522 -5.95405 0
M  V30 347 H 33.3624 1.31146 -4.69736 0
M  V30 348 H 32.3674 -0.874525 -5.428 0
M  V30 349 H 33.5924 -1.00638 -6.71602 0
M  V30 350 H 31.5384 1.22125 -6.44532 0
M  V30 351 H 31.4554 -0.103877 -7.55929 0
M  V30 352 H 32.7234 1.0743 -7.72062 0
M  V30 353 N 36.9525 1.47285 -0.560781 0
M  V30 354 C 38.1805 2.06855 -0.0430262 0
M  V30 355 C 38.5955 1.41291 1.25229 0
M  V30 356 O 37.9525 0.510648 1.7521 0
M  V30 357 C 38.0035 3.61178 0.152518 0
M  V30 358 O 37.7245 4.24285 -1.0915 0
M  V30 359 C 39.2255 4.37624 0.707145 0
M  V30 360 H 36.4455 0.669319 -0.0474652 0
M  V30 361 H 38.9895 1.89237 -0.77521 0
M  V30 362 H 37.1445 3.78298 0.834843 0
M  V30 363 H 37.5585 5.16868 -0.891482 0
M  V30 364 H 39.0325 5.46271 0.793244 0
M  V30 365 H 39.5095 4.04152 1.71923 0
M  V30 366 H 40.1155 4.25257 0.0604027 0
M  V30 367 N 38.4306 0.297415 1.54768 0
M  V30 368 C 39.6776 -0.312913 2.00068 0
M  V30 369 C 40.0056 -1.54171 1.18582 0
M  V30 370 O 39.2606 -1.94108 0.249133 0
M  V30 371 C 39.5596 -0.717561 3.50123 0
M  V30 372 C 39.2256 0.409095 4.4904 0
M  V30 373 C 37.8876 0.718399 4.75807 0
M  V30 374 C 40.2396 1.16717 5.07963 0
M  V30 375 C 37.5676 1.78896 5.5876 0
M  V30 376 C 39.9196 2.22762 5.92081 0
M  V30 377 C 38.5836 2.54303 6.1716 0
M  V30 378 H 37.8536 -0.114503 0.7321 0
M  V30 379 H 40.5006 0.415767 1.86932 0
M  V30 380 H 38.8056 -1.52627 3.60849 0
M  V30 381 H 40.5026 -1.20091 3.82595 0
M  V30 382 H 37.0926 0.157918 4.28309 0
M  V30 383 H 41.2766 0.941466 4.87289 0
M  V30 384 H 36.5326 2.0381 5.7643 0
M  V30 385 H 40.7066 2.81962 6.36765 0
M  V30 386 H 38.3336 3.3739 6.81229 0
M  V30 387 N 39.9087 -1.5758 0.0250728 0
M  V30 388 C 41.1337 -1.96337 -0.668317 0
M  V30 389 C 41.5587 -0.901314 -1.651 0
M  V30 390 O 40.9167 0.138187 -1.80773 0
M  V30 391 C 40.9647 -3.34191 -1.35457 0
M  V30 392 O 40.0687 -3.30269 -2.46974 0
M  V30 393 H 39.4097 -0.640281 -0.175887 0
M  V30 394 H 41.9397 -2.0442 0.0857224 0
M  V30 395 H 41.9497 -3.70331 -1.71228 0
M  V30 396 H 40.6247 -4.11036 -0.634218 0
M  V30 397 H 39.2017 -3.05841 -2.13344 0
M  V30 398 N 41.3868 0.248026 -1.55636 0
M  V30 399 C 42.3498 1.29044 -1.89421 0
M  V30 400 C 43.3498 1.41134 -0.770581 0
M  V30 401 O 44.5398 1.39854 -1.03858 0
M  V30 402 C 41.6718 2.66831 -2.12165 0
M  V30 403 H 42.8648 1.00305 -2.82629 0
M  V30 404 H 40.4178 0.487265 -1.48511 0
M  V30 405 H 41.1528 3.00711 -1.21422 0
M  V30 406 H 40.9378 2.59438 -2.93997 0
M  V30 407 H 42.4278 3.42103 -2.3949 0
M  V30 408 N 42.8649 1.48995 0.513639 0
M  V30 409 C 43.7949 1.67636 1.62544 0
M  V30 410 C 44.7759 0.525087 1.61793 0
M  V30 411 O 45.9609 0.759502 1.78732 0
M  V30 412 C 43.0909 1.73114 3.01079 0
M  V30 413 C 42.0449 2.87905 3.16693 0
M  V30 414 C 41.3709 2.78486 4.56453 0
M  V30 415 C 42.6709 4.29005 2.97913 0
M  V30 416 H 44.3649 2.60716 1.47198 0
M  V30 417 H 41.9109 1.25465 0.706714 0
M  V30 418 H 43.8639 1.84742 3.78746 0
M  V30 419 H 42.5879 0.766241 3.17484 0
M  V30 420 H 41.2469 2.75859 2.41448 0
M  V30 421 H 40.8949 1.7993 4.69717 0
M  V30 422 H 40.5949 3.55523 4.67843 0
M  V30 423 H 42.1189 2.92104 5.36197 0
M  V30 424 H 43.5329 4.41798 3.65359 0
M  V30 425 H 41.9299 5.07166 3.20785 0
M  V30 426 H 42.9999 4.44329 1.94165 0
M  V30 427 N 44.343 -0.763751 1.37857 0
M  V30 428 C 45.591 -1.51957 1.33243 0
M  V30 429 C 45.912 -1.94835 -0.0801709 0
M  V30 430 O 45.182 -1.66894 -1.02582 0
M  V30 431 H 43.762 -0.563626 0.49024 0
M  V30 432 H 46.424 -0.908504 1.7243 0
M  V30 433 H 45.52 -2.41523 1.97669 0
M  V30 434 N 45.8211 -1.22559 -0.990812 0
M  V30 435 C 46.7841 -0.998863 -2.0629 0
M  V30 436 C 47.7841 0.0354834 -1.60761 0
M  V30 437 O 48.9741 -0.203231 -1.7301 0
M  V30 438 C 46.1061 -0.509203 -3.37076 0
M  V30 439 H 47.2991 -1.95014 -2.27837 0
M  V30 440 H 44.8521 -1.04456 -1.16269 0
M  V30 441 H 45.5871 0.446335 -3.21214 0
M  V30 442 H 45.3721 -1.25547 -3.71457 0
M  V30 443 H 46.8621 -0.370888 -4.1595 0
M  V30 444 N 47.2992 1.18797 -1.03562 0
M  V30 445 C 48.5292 1.92319 -0.754773 0
M  V30 446 C 48.9372 1.7612 0.691248 0
M  V30 447 O 48.2802 1.08491 1.48241 0
M  V30 448 C 48.3422 3.44284 -1.03484 0
M  V30 449 C 48.0062 3.84258 -2.47376 0
M  V30 450 C 49.0032 3.88459 -3.45537 0
M  V30 451 C 46.6882 4.15701 -2.81954 0
M  V30 452 C 48.6822 4.23545 -4.76328 0
M  V30 453 C 46.3692 4.50458 -4.12954 0
M  V30 454 C 47.3672 4.54356 -5.09951 0
M  V30 455 O 47.0552 4.88305 -6.38603 0
M  V30 456 H 46.7872 0.617527 -0.275021 0
M  V30 457 H 49.3412 1.51683 -1.38497 0
M  V30 458 H 47.5712 3.85135 -0.347513 0
M  V30 459 H 49.2602 3.99049 -0.7426 0
M  V30 460 H 50.0262 3.6431 -3.20162 0
M  V30 461 H 45.9052 4.11847 -2.0713 0
M  V30 462 H 49.4492 4.26502 -5.52035 0
M  V30 463 H 45.3462 4.74067 -4.38099 0
M  V30 464 H 46.1142 5.06227 -6.43177 0
M  V30 465 N 48.7773 0.814389 1.34928 0
M  V30 466 C 50.0253 0.397636 1.9815 0
M  V30 467 C 50.3463 -1.04069 1.64908 0
M  V30 468 O 49.6163 -1.72121 0.93548 0
M  V30 469 H 48.1963 0.144043 0.732981 0
M  V30 470 H 50.8583 1.04195 1.6471 0
M  V30 471 H 49.9543 0.509688 3.0791 0
M  V30 472 N 50.2554 -1.46986 0.568584 0
M  V30 473 C 51.4954 -2.04336 0.0512999 0
M  V30 474 C 51.8594 -1.43214 -1.27881 0
M  V30 475 O 53.0604 -1.91679 -1.88448 0
M  V30 476 C 51.3314 -3.57389 -0.0282328 0
M  V30 477 S 52.8904 -4.36056 -0.489991 0
M  V30 478 H 49.7084 -0.71034 0.0306349 0
M  V30 479 H 52.3104 -1.80212 0.757891 0
M  V30 480 H 51.0144 -3.99395 0.944011 0
M  V30 481 H 50.5454 -3.86028 -0.75803 0
M  V30 482 H 52.5604 -4.6441 -1.74752 0
M  V30 483 N 51.7335 -0.305618 -1.54608 0
M  V30 484 C 52.9585 0.307562 -2.05107 0
M  V30 485 C 53.3835 1.46385 -1.18123 0
M  V30 486 O 52.7415 1.8034 -0.186324 0
M  V30 487 C 52.7895 0.73704 -3.52987 0
M  V30 488 O 51.8935 1.84134 -3.6901 0
M  V30 489 H 51.2345 0.0589143 -0.661381 0
M  V30 490 H 53.7645 -0.448807 -1.99617 0
M  V30 491 H 53.7745 1.02459 -3.94925 0
M  V30 492 H 52.4495 -0.108773 -4.15758 0
M  V30 493 H 51.0265 1.55398 -3.38978 0
M  V30 494 N 53.2116 1.57565 -0.0334293 0
M  V30 495 C 54.4576 1.92262 0.645226 0
M  V30 496 C 54.7906 0.910543 1.71531 0
M  V30 497 O 54.0656 -0.066099 1.94388 0
M  V30 498 C 54.3486 3.37422 1.2577 0
M  V30 499 C 54.2016 4.49369 0.196891 0
M  V30 500 C 55.5206 3.82628 2.17449 0
M  V30 501 H 52.6396 0.699171 0.233085 0
M  V30 502 H 55.2816 1.89779 -0.0915694 0
M  V30 503 H 53.4316 3.39669 1.88566 0
M  V30 504 H 55.1036 4.59254 -0.433962 0
M  V30 505 H 53.3466 4.31168 -0.477137 0
M  V30 506 H 54.0176 5.47978 0.665124 0
M  V30 507 H 56.4936 3.82145 1.64634 0
M  V30 508 H 55.3696 4.84883 2.57254 0
M  V30 509 H 55.6306 3.18376 3.0674 0
M  V30 510 N 54.6897 -0.239769 1.55765 0
M  V30 511 C 55.9387 -0.964754 1.77131 0
M  V30 512 C 56.2517 -1.86213 0.59868 0
M  V30 513 O 57.4577 -2.6244 0.695522 0
M  V30 514 C 55.9137 -1.76552 3.1362 0
M  V30 515 C 55.5217 -0.915185 4.38553 0
M  V30 516 C 57.2657 -2.48281 3.44321 0
M  V30 517 C 55.1727 -1.71225 5.66071 0
M  V30 518 H 54.1027 -0.363953 0.660344 0
M  V30 519 H 56.7537 -0.219181 1.82186 0
M  V30 520 H 55.1357 -2.55331 3.02691 0
M  V30 521 H 56.3097 -0.169217 4.60489 0
M  V30 522 H 54.6247 -0.310889 4.15238 0
M  V30 523 H 57.2217 -3.08382 4.36812 0
M  V30 524 H 57.5647 -3.20256 2.65973 0
M  V30 525 H 58.0977 -1.76507 3.56497 0
M  V30 526 H 54.8367 -1.03612 6.4726 0
M  V30 527 H 54.3567 -2.43331 5.48224 0
M  V30 528 H 56.0357 -2.27758 6.05587 0
M  V30 529 N 56.1678 -1.49265 -0.50573 0
M  V30 530 C 57.3958 -1.62215 -1.28429 0
M  V30 531 C 57.8108 -0.291697 -1.86533 0
M  V30 532 O 57.1678 0.722233 -1.67601 0
M  V30 533 C 57.2188 -2.68735 -2.41793 0
M  V30 534 O 56.9398 -3.96619 -1.86078 0
M  V30 535 C 58.4408 -2.92346 -3.3324 0
M  V30 536 H 55.6608 -0.546239 -0.389697 0
M  V30 537 H 58.2048 -1.95265 -0.607609 0
M  V30 538 H 56.3598 -2.38476 -3.053 0
M  V30 539 H 56.7738 -4.55256 -2.60465 0
M  V30 540 H 58.2478 -3.70623 -4.09075 0
M  V30 541 H 58.7248 -2.02081 -3.89948 0
M  V30 542 H 59.3308 -3.24003 -2.75503 0
M  V30 543 N 57.6459 0.756429 -1.3826 0
M  V30 544 C 58.6089 1.85176 -1.35065 0
M  V30 545 C 59.6089 1.58818 -0.251703 0
M  V30 546 O 60.7989 1.66615 -0.508433 0
M  V30 547 C 57.9309 3.22596 -1.10201 0
M  V30 548 H 59.1239 1.89417 -2.3251 0
M  V30 549 H 56.6769 0.95783 -1.23512 0
M  V30 550 H 57.4119 3.24025 -0.133504 0
M  V30 551 H 57.1969 3.43122 -1.89762 0
M  V30 552 H 58.6869 4.02673 -1.10654 0
M  V30 553 N 59.124 1.23083 0.984299 0
M  V30 554 C 60.054 1.03292 2.09411 0
M  V30 555 C 61.035 -0.048923 1.7003 0
M  V30 556 O 62.22 0.114967 1.93859 0
M  V30 557 C 59.35 0.619155 3.41736 0
M  V30 558 C 58.304 1.64791 3.95004 0
M  V30 559 C 57.63 1.0897 5.23478 0
M  V30 560 C 58.93 3.03999 4.24714 0
M  V30 561 H 60.624 1.96119 2.26225 0
M  V30 562 H 58.17 0.944344 1.08711 0
M  V30 563 H 60.123 0.467777 4.18796 0
M  V30 564 H 58.847 -0.344786 3.24775 0
M  V30 565 H 57.506 1.78721 3.20085 0
M  V30 566 H 57.154 0.11686 5.02864 0
M  V30 567 H 56.854 1.77704 5.60085 0
M  V30 568 H 58.378 0.950093 6.03163 0
M  V30 569 H 59.792 2.93393 4.92538 0
M  V30 570 H 58.189 3.69936 4.72512 0
M  V30 571 H 59.259 3.53285 3.32142 0
M  V30 572 N 60.6021 -1.18246 1.0419 0
M  V30 573 C 61.8481 -1.88536 0.747122 0
M  V30 574 C 62.1811 -1.80223 -0.723409 0
M  V30 575 O 61.4561 -1.20337 -1.52804 0
M  V30 576 C 61.7391 -3.38968 1.21544 0
M  V30 577 C 61.5921 -3.56084 2.74816 0
M  V30 578 C 62.9111 -4.32648 0.806482 0
M  V30 579 H 60.0301 -0.684619 0.272883 0
M  V30 580 H 62.6721 -1.39113 1.29413 0
M  V30 581 H 60.8221 -3.8119 0.750081 0
M  V30 582 H 62.4941 -3.22946 3.29399 0
M  V30 583 H 60.7371 -2.98699 3.14582 0
M  V30 584 H 61.4081 -4.61639 3.02644 0
M  V30 585 H 63.8841 -3.98211 1.20695 0
M  V30 586 H 62.7601 -5.36462 1.1619 0
M  V30 587 H 63.0211 -4.41146 -0.29029 0
M  V30 588 N 62.0802 -0.821533 -1.34494 0
M  V30 589 C 63.0432 -0.247847 -2.27856 0
M  V30 590 C 64.0432 0.573453 -1.50227 0
M  V30 591 O 65.2332 0.389759 -1.69784 0
M  V30 592 C 62.3652 0.652698 -3.34593 0
M  V30 593 H 63.5582 -1.07146 -2.80107 0
M  V30 594 H 61.1112 -0.593291 -1.44602 0
M  V30 595 H 61.8462 1.49943 -2.87555 0
M  V30 596 H 61.6312 0.065292 -3.92046 0
M  V30 597 H 63.1212 1.04793 -4.04238 0
M  V30 598 N 63.5583 1.46682 -0.576371 0
M  V30 599 C 64.4903 2.28341 0.198231 0
M  V30 600 C 65.5033 1.38141 0.861453 0
M  V30 601 O 66.6923 1.62797 0.732082 0
M  V30 602 C 63.7923 3.12986 1.29972 0
M  V30 603 C 62.9653 4.31271 0.729639 0
M  V30 604 C 62.0243 4.97363 1.71803 0
M  V30 605 O 61.0503 5.55156 1.25658 0
M  V30 606 N 62.2523 4.93796 3.05198 0
M  V30 607 H 65.0173 2.9546 -0.502324 0
M  V30 608 H 62.5783 1.56525 -0.413715 0
M  V30 609 H 64.5703 3.54066 1.96008 0
M  V30 610 H 63.1403 2.47984 1.90323 0
M  V30 611 H 62.3603 3.94052 -0.108012 0
M  V30 612 H 63.6483 5.07739 0.328438 0
M  V30 613 H 63.0463 4.48077 3.45317 0
M  V30 614 H 61.6033 5.38837 3.6674 0
M  V30 615 N 65.0364 0.313813 1.54444 0
M  V30 616 C 65.9844 -0.572171 2.25453 0
M  V30 617 C 66.9784 -1.12657 1.2651 0
M  V30 618 O 68.1844 -1.07573 1.44319 0
M  V30 619 H 64.5594 -0.203146 0.724041 0
M  V30 620 H 66.5304 0.0491145 2.9836 0
M  V30 621 C 65.2794 -1.72626 3.0182 0
M  V30 622 H 64.6024 -1.30891 3.77767 0
M  V30 623 H 66.0424 -2.32199 3.54767 0
M  V30 624 C 64.5014 -2.63806 2.09542 0
M  V30 625 O 65.0314 -3.65256 1.67185 0
M  V30 626 N 63.2374 -2.31824 1.75232 0
M  V30 627 H 62.7844 -1.49368 2.09873 0
M  V30 628 H 62.7424 -2.93095 1.13767 0
M  V30 629 N 66.5145 -1.57545 0.0417849 0
M  V30 630 C 67.7425 -1.96624 -0.643928 0
M  V30 631 C 68.1575 -0.918897 -1.64929 0
M  V30 632 O 67.5145 0.0979323 -1.82237 0
M  V30 633 C 67.5655 -3.35781 -1.33914 0
M  V30 634 O 67.2865 -4.365 -0.374048 0
M  V30 635 C 68.7875 -3.89566 -2.1155 0
M  V30 636 H 66.0075 -0.647316 -0.176702 0
M  V30 637 H 68.5515 -2.04229 0.105304 0
M  V30 638 H 66.7065 -3.29357 -2.03968 0
M  V30 639 H 67.1205 -5.17248 -0.869179 0
M  V30 640 H 68.5945 -4.89242 -2.55628 0
M  V30 641 H 69.0715 -3.24488 -2.9598 0
M  V30 642 H 69.6775 -3.99298 -1.46427 0
M  V30 643 N 67.9926 0.231505 -1.5589 0
M  V30 644 C 69.2326 0.964533 -1.80211 0
M  V30 645 C 69.5966 1.81926 -0.613744 0
M  V30 646 O 70.7976 2.58526 -0.736045 0
M  V30 647 C 69.0686 1.78956 -3.09369 0
M  V30 648 S 70.6276 2.57959 -3.54969 0
M  V30 649 H 67.4456 0.324173 -0.632798 0
M  V30 650 H 70.0476 0.230985 -1.94131 0
M  V30 651 H 68.7516 1.15161 -3.93911 0
M  V30 652 H 68.2826 2.56559 -2.9823 0
M  V30 653 H 70.2976 3.81309 -3.17519 0
M  V30 654 N 69.4707 1.49531 0.497807 0
M  V30 655 C 70.7187 1.58865 1.24926 0
M  V30 656 C 71.0397 0.278721 1.92998 0
M  V30 657 O 70.3097 -0.702144 1.82885 0
M  V30 658 H 68.8897 0.585343 0.464094 0
M  V30 659 H 71.5517 1.86174 0.57666 0
M  V30 660 H 70.6477 2.38633 2.01149 0
M  V30 661 N 70.9488 -0.749086 1.3866 0
M  V30 662 C 72.1948 -1.51056 1.35314 0
M  V30 663 C 72.5278 -1.94121 -0.0553751 0
M  V30 664 O 71.8028 -1.65763 -1.01749 0
M  V30 665 C 72.0858 -2.76003 2.31288 0
M  V30 666 C 71.9388 -2.39047 3.8102 0
M  V30 667 C 73.2578 -3.78046 2.2532 0
M  V30 668 H 70.3768 -0.547972 0.492844 0
M  V30 669 H 73.0188 -0.857628 1.69543 0
M  V30 670 H 71.1688 -3.31716 2.02229 0
M  V30 671 H 72.8408 -1.89074 4.20771 0
M  V30 672 H 71.0838 -1.71449 3.98482 0
M  V30 673 H 71.7548 -3.28462 4.4364 0
M  V30 674 H 74.2308 -3.31884 2.50983 0
M  V30 675 H 73.1068 -4.63159 2.94576 0
M  V30 676 H 73.3678 -4.23957 1.25352 0
M  V30 677 N 72.4269 -1.23603 -0.977757 0
M  V30 678 C 73.3589 -0.977369 -2.07317 0
M  V30 679 C 74.3719 0.0495845 -1.62724 0
M  V30 680 O 75.5609 -0.186261 -1.77526 0
M  V30 681 C 72.6609 -0.451216 -3.35883 0
M  V30 682 C 71.8339 -1.53896 -4.09432 0
M  V30 683 C 70.8929 -1.01721 -5.16274 0
M  V30 684 O 69.9189 -1.70676 -5.43009 0
M  V30 685 N 71.1209 0.153594 -5.80297 0
M  V30 686 H 73.8859 -1.92047 -2.30082 0
M  V30 687 H 71.4469 -1.14497 -1.14465 0
M  V30 688 H 73.4389 -0.0871574 -4.04606 0
M  V30 689 H 72.0089 0.397368 -3.10064 0
M  V30 690 H 71.2289 -2.07566 -3.35127 0
M  V30 691 H 72.5169 -2.27037 -4.55337 0
M  V30 692 H 71.9149 0.730323 -5.60966 0
M  V30 693 H 70.4719 0.458892 -6.50183 0
M  V30 694 N 73.905 1.17692 -1.04816 0
M  V30 695 C 75.13 1.92327 -0.776207 0
M  V30 696 C 75.555 1.76082 0.661581 0
M  V30 697 O 74.913 1.076 1.45917 0
M  V30 698 C 74.961 3.41539 -1.15687 0
M  V30 699 O 74.065 4.11402 -0.286775 0
M  V30 700 H 73.406 0.599735 -0.284981 0
M  V30 701 H 75.936 1.49201 -1.4 0
M  V30 702 H 75.946 3.92269 -1.12202 0
M  V30 703 H 74.621 3.52684 -2.20425 0
M  V30 704 H 73.198 3.70939 -0.381903 0
M  V30 705 N 75.3831 0.828654 1.34056 0
M  V30 706 C 76.6291 0.42008 1.98402 0
M  V30 707 C 76.9621 -1.01564 1.65525 0
M  V30 708 O 76.2371 -1.70834 0.929831 0
M  V30 709 C 76.5201 0.62927 3.54559 0
M  V30 710 C 76.3731 2.11152 3.97159 0
M  V30 711 C 77.6921 0.0688756 4.40046 0
M  V30 712 H 74.8111 0.154104 0.720709 0
M  V30 713 H 77.4531 1.04228 1.5886 0
M  V30 714 H 75.6031 0.0996418 3.88372 0
M  V30 715 H 77.2751 2.70522 3.73651 0
M  V30 716 H 75.5181 2.59985 3.47261 0
M  V30 717 H 76.1891 2.20868 5.05887 0
M  V30 718 H 78.6651 0.521458 4.1282 0
M  V30 719 H 77.5411 0.245006 5.48353 0
M  V30 720 H 77.8021 -1.0266 4.30015 0
M  V30 721 N 76.8612 -1.46375 0.584142 0
M  V30 722 C 78.0912 -2.06461 0.0758195 0
M  V30 723 C 78.4992 -1.43322 -1.23512 0
M  V30 724 O 77.8422 -0.533216 -1.75791 0
M  V30 725 C 77.9042 -3.59131 -0.162773 0
M  V30 726 C 77.5682 -4.4447 1.06279 0
M  V30 727 C 78.5652 -4.80918 1.97519 0
M  V30 728 C 76.2502 -4.85584 1.28504 0
M  V30 729 C 78.2442 -5.57309 3.09331 0
M  V30 730 C 75.9312 -5.61734 2.4062 0
M  V30 731 C 76.9292 -5.9751 3.30863 0
M  V30 732 O 76.6172 -6.72121 4.41032 0
M  V30 733 H 76.3492 -0.673745 0.0551725 0
M  V30 734 H 78.9032 -1.88969 0.804984 0
M  V30 735 H 77.1332 -3.74936 -0.946565 0
M  V30 736 H 78.8222 -4.0114 -0.619782 0
M  V30 737 H 79.5882 -4.49732 1.81565 0
M  V30 738 H 75.4672 -4.57187 0.591702 0
M  V30 739 H 79.0112 -5.85152 3.79793 0
M  V30 740 H 74.9082 -5.92334 2.56537 0
M  V30 741 H 75.6762 -6.90547 4.39417 0
M  V30 742 N 78.3393 -0.321999 -1.54275 0
M  V30 743 C 79.7553 0.0306999 -1.5957 0
M  V30 744 C 79.9553 1.50614 -1.33857 0
M  V30 745 O 79.0113 2.2619 -1.12223 0
M  V30 746 C 80.3243 -0.386122 -2.98211 0
M  V30 747 C 81.8723 -0.336647 -3.11184 0
M  V30 748 C 82.3473 -0.728607 -4.52167 0
M  V30 749 N 83.8383 -0.681952 -4.58152 0
M  V30 750 C 84.5733 -0.957449 -5.6535 0
M  V30 751 N 84.0693 -1.3 -6.80494 0
M  V30 752 N 85.8623 -0.883113 -5.55119 0
M  V30 753 H 78.0133 -1.28332 -1.69247 0
M  V30 754 H 80.2763 -0.521716 -0.791528 0
M  V30 755 H 79.9823 -1.41404 -3.22022 0
M  V30 756 H 79.8563 0.249662 -3.76373 0
M  V30 757 H 82.2433 0.682058 -2.8711 0
M  V30 758 H 82.3243 -1.00734 -2.3513 0
M  V30 759 H 81.9683 -1.74522 -4.76974 0
M  V30 760 H 81.8983 -0.0356152 -5.26588 0
M  V30 761 H 84.3893 -0.428985 -3.75457 0
M  V30 762 H 84.7023 -1.49563 -7.58189 0
M  V30 763 H 83.0473 -1.33824 -6.81994 0
M  V30 764 H 86.2383 -0.615001 -4.64042 0
M  V30 765 H 86.4113 -1.10118 -6.38575 0
M  V30 766 N 79.8174 1.5752 -0.0501392 0
M  V30 767 C 81.0664 1.91827 0.623328 0
M  V30 768 C 81.3794 0.930222 1.72065 0
M  V30 769 O 82.5854 1.1653 2.4522 0
M  V30 770 C 81.0414 3.40692 1.16003 0
M  V30 771 C 80.6494 4.479 0.0948811 0
M  V30 772 C 82.3934 3.84034 1.80881 0
M  V30 773 C 80.3004 5.87879 0.644411 0
M  V30 774 H 79.2304 0.715918 0.236596 0
M  V30 775 H 81.8814 1.83115 -0.118861 0
M  V30 776 H 80.2634 3.44405 1.9545 0
M  V30 777 H 81.4374 4.55775 -0.678675 0
M  V30 778 H 79.7524 4.13892 -0.45637 0
M  V30 779 H 82.3494 4.85984 2.22988 0
M  V30 780 H 82.6924 3.20225 2.6601 0
M  V30 781 H 83.2254 3.82833 1.0809 0
M  V30 782 H 79.9644 6.55282 -0.169229 0
M  V30 783 H 79.4844 5.83567 1.38598 0
M  V30 784 H 81.1634 6.37098 1.12763 0
M  V30 785 N 81.2955 -0.223234 1.56011 0
M  V30 786 C 82.2055 -1.29766 1.95443 0
M  V30 787 C 83.2215 -1.51373 0.858028 0
M  V30 788 O 84.3975 -1.64536 1.16146 0
M  V30 789 C 81.4625 -2.62772 2.26167 0
M  V30 790 C 80.5235 -2.49482 3.49367 0
M  V30 791 C 79.7565 -3.76145 3.78616 0
M  V30 792 O 79.9795 -4.79087 3.09568 0
M  V30 793 O 78.9135 -3.73358 4.72109 0
M  V30 794 H 82.7395 -0.99309 2.87004 0
M  V30 795 H 80.3245 -0.425958 1.43199 0
M  V30 796 H 82.2065 -3.41327 2.47131 0
M  V30 797 H 80.8815 -2.92913 1.37781 0
M  V30 798 H 79.7885 -1.69133 3.33684 0
M  V30 799 H 81.1215 -2.2428 4.38131 0
M  V30 800 N 82.7736 -1.49793 -0.48987 0
M  V30 801 C 84.1846 -1.52914 -1.07118 0
M  V30 802 C 84.5356 -0.321738 -1.93544 0
M  V30 803 O 83.6606 0.567338 -2.08831 0
M  V30 804 C 84.2556 -2.771 -1.94938 0
M  V30 805 C 82.8146 -2.82963 -2.48212 0
M  V30 806 C 81.9616 -2.46972 -1.26096 0
M  V30 807 H 84.9126 -1.56329 -0.273289 0
M  V30 808 H 84.9336 -2.57892 -2.79771 0
M  V30 809 H 84.4456 -3.64959 -1.32009 0
M  V30 810 H 82.5466 -1.99411 -3.14748 0
M  V30 811 H 82.6596 -3.85406 -2.84603 0
M  V30 812 H 81.0236 -1.98994 -1.58976 0
M  V30 813 H 81.8066 -3.37118 -0.648581 0
M  V30 814 N 84.2517 0.741722 -1.39055 0
M  V30 815 C 85.5287 1.49252 -1.26425 0
M  V30 816 C 85.9087 2.10705 0.129144 0
M  V30 817 O 85.2567 1.98045 1.13976 0
M  V30 818 C 85.4667 2.54934 -2.38347 0
M  V30 819 C 86.8147 3.21506 -2.77343 0
M  V30 820 O 87.8387 2.65245 -2.37747 0
M  V30 821 O 86.6977 4.23294 -3.45665 0
M  V30 822 H 83.7917 0.662451 -0.495064 0
M  V30 823 H 86.3377 0.776121 -1.50912 0
M  V30 824 H 85.1097 2.07857 -3.31529 0
M  V30 825 H 84.7327 3.34141 -2.15489 0
M  V30 826 N 85.7298 1.2412 0.971189 0
M  V30 827 C 86.9768 1.07881 1.71371 0
M  V30 828 C 87.3048 -0.382901 1.90694 0
M  V30 829 O 86.5598 -1.29945 1.46331 0
M  V30 830 C 86.8588 1.75983 3.11071 0
M  V30 831 C 86.5248 3.25909 3.11599 0
M  V30 832 C 85.1868 3.66813 3.11451 0
M  V30 833 C 87.5388 4.21771 3.062 0
M  V30 834 C 84.8668 5.02021 3.03631 0
M  V30 835 C 87.2188 5.56982 2.99923 0
M  V30 836 C 85.8828 5.97237 2.98102 0
M  V30 837 H 85.1528 0.394764 0.62709 0
M  V30 838 H 87.7998 1.54176 1.13587 0
M  V30 839 H 86.1048 1.22072 3.72298 0
M  V30 840 H 87.8018 1.60887 3.6731 0
M  V30 841 H 84.3918 2.93353 3.12477 0
M  V30 842 H 88.5758 3.91172 3.05447 0
M  V30 843 H 83.8318 5.32411 3.0058 0
M  V30 844 H 88.0058 6.30969 2.94704 0
M  V30 845 H 85.6328 7.01967 2.91798 0
M  V30 846 N 87.2079 -1.17134 1.05439 0
M  V30 847 C 88.4539 -1.87733 0.767077 0
M  V30 848 C 88.7869 -1.8098 -0.704253 0
M  V30 849 O 88.0619 -1.21951 -1.5152 0
M  V30 850 C 88.3449 -3.37659 1.25133 0
M  V30 851 C 88.1979 -3.53149 2.78578 0
M  V30 852 C 89.5169 -4.31768 0.852324 0
M  V30 853 H 86.6359 -0.681687 0.280129 0
M  V30 854 H 89.2779 -1.37732 1.30881 0
M  V30 855 H 87.4279 -3.80373 0.790469 0
M  V30 856 H 89.0999 -3.19434 3.32806 0
M  V30 857 H 87.3429 -2.95345 3.17732 0
M  V30 858 H 88.0139 -4.58403 3.07523 0
M  V30 859 H 90.4899 -3.96909 1.24911 0
M  V30 860 H 89.3659 -5.35199 1.21873 0
M  V30 861 H 89.6269 -4.41429 -0.243485 0
M  V30 862 N 88.686 -0.835752 -1.33615 0
M  V30 863 C 89.649 -0.272 -2.2758 0
M  V30 864 C 90.649 0.557487 -1.50827 0
M  V30 865 O 91.839 0.37173 -1.70188 0
M  V30 866 C 88.971 0.617173 -3.35267 0
M  V30 867 H 90.164 -1.10111 -2.78954 0
M  V30 868 H 87.717 -0.608594 -1.43965 0
M  V30 869 H 88.452 1.46884 -2.89129 0
M  V30 870 H 88.237 0.0237066 -3.92093 0
M  V30 871 H 89.727 1.005 -4.05326 0
M  V30 872 N 90.1641 1.46063 -0.591896 0
M  V30 873 C 91.1271 2.28854 0.125973 0
M  V30 874 C 92.1271 1.38903 0.810107 0
M  V30 875 O 93.3171 1.61186 0.66066 0
M  V30 876 C 90.4491 3.19526 1.1881 0
M  V30 877 H 91.6421 2.93802 -0.601717 0
M  V30 878 H 89.1951 1.52325 -0.350254 0
M  V30 879 H 89.9301 2.59345 1.94707 0
M  V30 880 H 89.7151 3.85766 0.701936 0
M  V30 881 H 91.2051 3.81817 1.69132 0
M  V30 882 N 91.6422 0.330177 1.54103 0
M  V30 883 C 92.5742 -0.566902 2.22079 0
M  V30 884 C 93.5872 -1.07462 1.22294 0
M  V30 885 O 94.7762 -0.987065 1.48726 0
M  V30 886 C 91.8762 -1.79138 2.87685 0
M  V30 887 C 91.0492 -1.42123 4.13666 0
M  V30 888 C 90.1082 -2.50394 4.62806 0
M  V30 889 O 89.1342 -2.14261 5.27334 0
M  V30 890 N 90.3362 -3.81433 4.37595 0
M  V30 891 H 93.1012 0.0151844 2.99696 0
M  V30 892 H 90.6622 0.153681 1.61169 0
M  V30 893 H 92.6542 -2.50975 3.1748 0
M  V30 894 H 91.2242 -2.28115 2.13734 0
M  V30 895 H 90.4442 -0.534201 3.90564 0
M  V30 896 H 91.7322 -1.14971 4.9564 0
M  V30 897 H 91.1302 -4.13584 3.8596 0
M  V30 898 H 89.6872 -4.4948 4.72029 0
M  V30 899 N 93.1203 -1.57491 0.0584922 0
M  V30 900 C 94.0503 -2.14988 -0.911178 0
M  V30 901 C 95.0313 -1.07343 -1.31952 0
M  V30 902 O 96.2163 -1.35318 -1.39294 0
M  V30 903 C 93.3463 -2.70078 -2.18347 0
M  V30 904 C 92.3003 -3.82771 -1.91495 0
M  V30 905 C 91.6263 -4.24408 -3.25241 0
M  V30 906 C 92.9263 -5.07592 -1.23075 0
M  V30 907 H 94.6203 -2.96263 -0.432246 0
M  V30 908 H 92.1663 -1.42512 -0.206469 0
M  V30 909 H 94.1193 -3.08943 -2.86587 0
M  V30 910 H 92.8433 -1.86005 -2.68458 0
M  V30 911 H 91.5023 -3.44389 -1.25664 0
M  V30 912 H 91.1503 -3.37275 -3.73168 0
M  V30 913 H 90.8503 -5.00366 -3.08071 0
M  V30 914 H 92.3743 -4.65879 -3.94701 0
M  V30 915 H 93.7883 -5.43857 -1.81362 0
M  V30 916 H 92.1853 -5.88741 -1.16207 0
M  V30 917 H 93.2553 -4.84454 -0.207847 0
M  V30 918 N 94.5984 0.214957 -1.56127 0
M  V30 919 C 95.8754 0.963093 -1.70247 0
M  V30 920 C 96.2554 2.02166 -0.60764 0
M  V30 921 O 95.6034 2.25244 0.384385 0
M  V30 922 C 95.8134 1.56756 -3.11815 0
M  V30 923 C 97.1614 2.0573 -3.7143 0
M  V30 924 O 98.1854 1.66637 -3.14818 0
M  V30 925 O 97.0444 2.77603 -4.70743 0
M  V30 926 H 94.1384 0.450321 -0.693643 0
M  V30 927 H 96.6844 0.206219 -1.68442 0
M  V30 928 H 95.4564 0.803533 -3.82961 0
M  V30 929 H 95.0794 2.3898 -3.17765 0
M  V30 930 N 96.0765 1.50051 0.48192 0
M  V30 931 C 97.3015 1.64508 1.26301 0
M  V30 932 C 97.7265 0.323851 1.85291 0
M  V30 933 O 97.0845 -0.710969 1.66778 0
M  V30 934 C 97.1325 2.7305 2.35533 0
M  V30 935 O 96.2365 2.3355 3.39895 0
M  V30 936 H 95.5775 0.549978 0.372048 0
M  V30 937 H 98.1075 1.9636 0.574786 0
M  V30 938 H 98.1175 2.95799 2.8101 0
M  V30 939 H 96.7925 3.68946 1.91967 0
M  V30 940 H 95.3695 2.21205 3.00204 0
M  V30 941 N 97.5546 -0.734337 1.39446 0
M  V30 942 C 98.8006 -1.49613 1.36908 0
M  V30 943 C 99.1336 -1.94169 -0.0347829 0
M  V30 944 O 98.4086 -1.66833 -0.999847 0
M  V30 945 C 98.6916 -2.73534 2.34203 0
M  V30 946 C 98.5446 -2.34993 3.83534 0
M  V30 947 C 99.8636 -3.75635 2.29317 0
M  V30 948 H 96.9826 -0.542714 0.498629 0
M  V30 949 H 99.6246 -0.839597 1.70443 0
M  V30 950 H 97.7746 -3.29553 2.05736 0
M  V30 951 H 99.4466 -1.84601 4.22753 0
M  V30 952 H 97.6896 -1.67213 4.00278 0
M  V30 953 H 98.3606 -3.23738 4.47099 0
M  V30 954 H 100.837 -3.29203 2.54489 0
M  V30 955 H 99.7126 -4.60008 2.99472 0
M  V30 956 H 99.9736 -4.22603 1.29842 0
M  V30 957 N 99.0327 -1.24633 -0.964593 0
M  V30 958 C 100.28 -1.08788 -1.70796 0
M  V30 959 C 100.608 0.372783 -1.90894 0
M  V30 960 O 99.8627 1.29167 -1.47018 0
M  V30 961 C 100.162 -1.7763 -3.10133 0
M  V30 962 C 99.8277 -3.27557 -3.09866 0
M  V30 963 C 98.4897 -3.6846 -3.09501 0
M  V30 964 C 100.842 -4.23389 -3.03959 0
M  V30 965 C 98.1697 -5.03624 -3.00965 0
M  V30 966 C 100.522 -5.58565 -2.96965 0
M  V30 967 C 99.1857 -5.98809 -2.9493 0
M  V30 968 H 98.4557 -0.398084 -0.624988 0
M  V30 969 H 101.103 -1.54777 -1.12767 0
M  V30 970 H 99.4077 -1.24044 -3.71645 0
M  V30 971 H 101.105 -1.62832 -3.66451 0
M  V30 972 H 97.6947 -2.95006 -3.10917 0
M  V30 973 H 101.879 -3.92787 -3.03368 0
M  V30 974 H 97.1347 -5.33998 -2.97752 0
M  V30 975 H 101.309 -6.32523 -2.91354 0
M  V30 976 H 98.9357 -7.03505 -2.88071 0
M  V30 977 N 100.511 1.16574 -1.06058 0
M  V30 978 C 101.736 1.91493 -0.796562 0
M  V30 979 C 102.161 1.76773 0.642868 0
M  V30 980 O 101.519 1.09142 1.44768 0
M  V30 981 C 101.567 3.40293 -1.19303 0
M  V30 982 O 100.671 4.11074 -0.330394 0
M  V30 983 H 100.012 0.596678 -0.291326 0
M  V30 984 H 102.542 1.47708 -1.41575 0
M  V30 985 H 102.552 3.91057 -1.16356 0
M  V30 986 H 101.227 3.50326 -2.24153 0
M  V30 987 H 99.8038 3.70513 -0.421225 0
M  V30 988 N 101.989 0.842826 1.3317 0
M  V30 989 C 103.266 0.362216 1.92217 0
M  V30 990 C 103.646 -1.15289 1.76838 0
M  V30 991 O 102.994 -1.96914 1.15919 0
M  V30 992 C 103.204 0.813495 3.39387 0
M  V30 993 C 104.552 0.823804 4.16532 0
M  V30 994 O 105.576 0.757358 3.48055 0
M  V30 995 O 104.435 0.915193 5.38782 0
M  V30 996 H 101.529 0.103317 0.820521 0
M  V30 997 H 104.075 0.928942 1.42017 0
M  V30 998 H 102.847 1.85624 3.4447 0
M  V30 999 H 102.47 0.223561 3.96971 0
M  V30 1000 N 103.467 -1.45747 0.599634 0
M  V30 1001 C 104.713 -2.02592 0.0918643 0
M  V30 1002 C 105.046 -1.46806 -1.27128 0
M  V30 1003 O 104.321 -0.639658 -1.83681 0
M  V30 1004 C 104.604 -3.60073 0.0443398 0
M  V30 1005 C 104.457 -4.26208 1.43759 0
M  V30 1006 C 105.776 -4.35309 -0.647608 0
M  V30 1007 H 102.895 -0.736175 0.034857 0
M  V30 1008 H 105.537 -1.73694 0.770081 0
M  V30 1009 H 103.687 -3.84823 -0.533224 0
M  V30 1010 H 105.359 -4.12668 2.06162 0
M  V30 1011 H 103.602 -3.84916 2.00056 0
M  V30 1012 H 104.273 -5.35069 1.35665 0
M  V30 1013 H 106.749 -4.15805 -0.156776 0
M  V30 1014 H 105.625 -5.45038 -0.649942 0
M  V30 1015 H 105.886 -4.07598 -1.71219 0
M  V30 1016 N 104.945 -0.338344 -1.53925 0
M  V30 1017 C 106.361 0.0137736 -1.59594 0
M  V30 1018 C 106.561 1.49186 -1.35447 0
M  V30 1019 O 105.617 2.24987 -1.14616 0
M  V30 1020 C 106.93 -0.41773 -2.97784 0
M  V30 1021 C 108.478 -0.369633 -3.1081 0
M  V30 1022 C 108.953 -0.776524 -4.51369 0
M  V30 1023 N 110.444 -0.730506 -4.57403 0
M  V30 1024 C 111.179 -1.01736 -5.64303 0
M  V30 1025 N 110.675 -1.3721 -6.79077 0
M  V30 1026 N 112.468 -0.941942 -5.54151 0
M  V30 1027 H 104.619 -1.3012 -1.67876 0
M  V30 1028 H 106.882 -0.530082 -0.78595 0
M  V30 1029 H 106.588 -1.44811 -3.20504 0
M  V30 1030 H 106.462 0.209729 -3.76616 0
M  V30 1031 H 108.849 0.651568 -2.87817 0
M  V30 1032 H 108.93 -1.03223 -2.34049 0
M  V30 1033 H 108.574 -1.79571 -4.75096 0
M  V30 1034 H 108.504 -0.0914649 -5.26521 0
M  V30 1035 H 110.995 -0.468783 -3.74981 0
M  V30 1036 H 111.308 -1.57597 -7.5656 0
M  V30 1037 H 109.653 -1.4105 -6.80536 0
M  V30 1038 H 112.844 -0.664184 -4.63364 0
M  V30 1039 H 113.017 -1.16884 -6.37371 0
M  V30 1040 N 106.423 1.57458 -0.0668435 0
M  V30 1041 C 107.672 1.92477 0.602947 0
M  V30 1042 C 107.985 0.948419 1.71068 0
M  V30 1043 O 109.191 1.19124 2.43971 0
M  V30 1044 C 107.647 3.41903 1.12383 0
M  V30 1045 C 107.255 4.47975 0.04737 0
M  V30 1046 C 108.999 3.85931 1.76797 0
M  V30 1047 C 106.906 5.88529 0.582022 0
M  V30 1048 H 105.836 0.718387 0.22899 0
M  V30 1049 H 108.487 1.82978 -0.138276 0
M  V30 1050 H 106.869 3.46459 1.91787 0
M  V30 1051 H 108.043 4.55029 -0.726978 0
M  V30 1052 H 106.358 4.13384 -0.500243 0
M  V30 1053 H 108.955 4.88322 2.17821 0
M  V30 1054 H 109.298 3.23029 2.62599 0
M  V30 1055 H 109.831 3.83958 1.04024 0
M  V30 1056 H 106.57 6.55065 -0.238721 0
M  V30 1057 H 106.09 5.85004 1.324 0
M  V30 1058 H 107.769 6.38258 1.05999 0
M  V30 1059 N 107.901 -0.206675 1.56239 0
M  V30 1060 C 109.178 -0.954051 1.70755 0
M  V30 1061 C 109.558 -2.01841 0.618353 0
M  V30 1062 O 108.906 -2.25444 -0.372434 0
M  V30 1063 C 109.116 -1.551 3.12642 0
M  V30 1064 C 110.464 -2.03757 3.72516 0
M  V30 1065 O 111.488 -1.64965 3.15698 0
M  V30 1066 O 110.347 -2.75103 4.72208 0
M  V30 1067 H 107.441 -0.446636 0.696021 0
M  V30 1068 H 109.987 -0.197283 1.68549 0
M  V30 1069 H 108.759 -0.783212 3.83382 0
M  V30 1070 H 108.382 -2.37291 3.19028 0
M  V30 1071 N 109.379 -1.50304 -0.473955 0
M  V30 1072 C 110.607 -1.64902 -1.24959 0
M  V30 1073 C 111.022 -0.331198 -1.85872 0
M  V30 1074 O 110.379 0.68652 -1.69095 0
M  V30 1075 C 110.43 -2.73803 -2.36038 0
M  V30 1076 O 110.151 -4.00477 -1.77624 0
M  V30 1077 C 111.652 -2.99349 -3.26964 0
M  V30 1078 H 108.872 -0.554383 -0.378022 0
M  V30 1079 H 111.416 -1.9651 -0.566054 0
M  V30 1080 H 109.571 -2.44898 -3.00173 0
M  V30 1081 H 109.985 -4.60678 -2.5075 0
M  V30 1082 H 111.459 -3.79217 -4.01121 0
M  V30 1083 H 111.936 -2.10307 -3.85574 0
M  V30 1084 H 112.542 -3.29774 -2.68569 0
M  V30 1085 N 110.857 0.726932 -1.39834 0
M  V30 1086 C 112.085 1.51613 -1.40787 0
M  V30 1087 C 112.5 1.88799 -0.00451505 0
M  V30 1088 O 111.857 1.54662 0.968809 0
M  V30 1089 C 111.908 2.79863 -2.28821 0
M  V30 1090 O 111.629 2.44253 -3.63692 0
M  V30 1091 C 113.13 3.73837 -2.38245 0
M  V30 1092 H 110.35 0.468264 -0.480593 0
M  V30 1093 H 112.894 0.897607 -1.83748 0
M  V30 1094 H 111.049 3.38027 -1.89252 0
M  V30 1095 H 111.463 3.26695 -4.1033 0
M  V30 1096 H 112.937 4.60699 -3.04073 0
M  V30 1097 H 113.414 4.16153 -1.40403 0
M  V30 1098 H 114.02 3.21589 -2.78317 0
M  V30 1099 N 112.336 1.25143 0.95797 0
M  V30 1100 C 113.283 1.05235 2.05412 0
M  V30 1101 C 114.253 -0.0374561 1.66058 0
M  V30 1102 O 115.438 0.119073 1.90428 0
M  V30 1103 C 112.578 0.673589 3.38462 0
M  V30 1104 C 111.691 1.8379 3.90954 0
M  V30 1105 C 110.826 1.40381 5.12315 0
M  V30 1106 C 109.865 2.53746 5.57027 0
M  V30 1107 N 109.002 2.11136 6.69601 0
M  V30 1108 H 113.842 1.99048 2.21774 0
M  V30 1109 H 111.379 0.991277 1.08683 0
M  V30 1110 H 113.337 0.434964 4.14926 0
M  V30 1111 H 111.967 -0.227554 3.21997 0
M  V30 1112 H 111.019 2.18992 3.11041 0
M  V30 1113 H 112.331 2.68937 4.20089 0
M  V30 1114 H 111.485 1.12464 5.96185 0
M  V30 1115 H 110.224 0.523015 4.84887 0
M  V30 1116 H 109.229 2.82412 4.71724 0
M  V30 1117 H 110.454 3.42398 5.86464 0
M  V30 1118 H 108.4 1.25468 6.4389 0
M  V30 1119 H 108.317 2.89832 6.98236 0
M  V30 1120 H 109.585 1.86385 7.56889 0
M  V30 1121 N 113.814 -1.1601 1.06675 0
M  V30 1122 C 115.063 -1.85973 0.780818 0
M  V30 1123 C 115.376 -1.82819 -0.695444 0
M  V30 1124 O 116.582 -2.484 -1.09589 0
M  V30 1125 C 115.038 -3.33757 1.34665 0
M  V30 1126 C 114.646 -3.45374 2.85343 0
M  V30 1127 C 116.39 -4.0895 1.13843 0
M  V30 1128 C 114.297 -4.87266 3.35151 0
M  V30 1129 H 113.227 -0.696661 0.288407 0
M  V30 1130 H 115.878 -1.30903 1.28595 0
M  V30 1131 H 114.26 -3.88456 0.769274 0
M  V30 1132 H 115.434 -3.00816 3.49065 0
M  V30 1133 H 113.749 -2.83619 3.04876 0
M  V30 1134 H 116.346 -5.13654 1.4854 0
M  V30 1135 H 116.689 -4.16229 0.0770282 0
M  V30 1136 H 117.222 -3.605 1.68179 0
M  V30 1137 H 113.961 -4.85168 4.40786 0
M  V30 1138 H 113.481 -5.32433 2.76179 0
M  V30 1139 H 115.16 -5.56097 3.30704 0
M  V30 1140 N 115.292 -0.849877 -1.32721 0
M  V30 1141 C 116.54 -0.450032 -1.97026 0
M  V30 1142 C 116.861 0.996604 -1.67609 0
M  V30 1143 O 116.131 1.6958 -0.980786 0
M  V30 1144 H 114.711 -0.163426 -0.728904 0
M  V30 1145 H 117.373 -1.08526 -1.6189 0
M  V30 1146 H 116.469 -0.591146 -3.0645 0
M  V30 1147 N 116.77 1.45427 -0.607355 0
M  V30 1148 C 117.703 2.27635 0.160482 0
M  V30 1149 C 118.681 1.37122 0.873857 0
M  V30 1150 O 119.865 1.66551 0.882775 0
M  V30 1151 C 116.992 3.15486 1.23231 0
M  V30 1152 C 116.038 4.21939 0.622097 0
M  V30 1153 S 116.871 5.32459 -0.569852 0
M  V30 1154 C 118.027 6.23879 0.502577 0
M  V30 1155 H 118.26 2.9241 -0.536983 0
M  V30 1156 H 115.793 1.49265 -0.394868 0
M  V30 1157 H 117.751 3.66659 1.84585 0
M  V30 1158 H 116.412 2.49977 1.90185 0
M  V30 1159 H 115.605 4.8333 1.42856 0
M  V30 1160 H 115.207 3.73906 0.0837063 0
M  V30 1161 H 117.499 6.63261 1.38171 0
M  V30 1162 H 118.442 7.0806 -0.0751759 0
M  V30 1163 H 118.85 5.58545 0.8178 0
M  V30 1164 N 118.248 0.346503 1.53744 0
M  V30 1165 C 119.178 -0.501193 2.28058 0
M  V30 1166 C 120.159 -1.10014 1.29734 0
M  V30 1167 O 121.344 -1.12097 1.58581 0
M  V30 1168 C 118.474 -1.65078 3.05559 0
M  V30 1169 C 117.428 -1.18003 4.11411 0
M  V30 1170 C 116.754 -2.41837 4.76884 0
M  V30 1171 C 118.054 -0.278394 5.21558 0
M  V30 1172 H 119.748 0.11875 2.99164 0
M  V30 1173 H 117.294 0.0585531 1.43881 0
M  V30 1174 H 119.247 -2.25028 3.56287 0
M  V30 1175 H 117.971 -2.29767 2.32109 0
M  V30 1176 H 116.63 -0.603331 3.61601 0
M  V30 1177 H 116.278 -3.0494 4.00026 0
M  V30 1178 H 115.978 -2.1102 5.48402 0
M  V30 1179 H 117.502 -3.02508 5.30397 0
M  V30 1180 H 118.916 -0.784823 5.67903 0
M  V30 1181 H 117.313 -0.0619707 6.00068 0
M  V30 1182 H 118.383 0.684677 4.80042 0
M  V30 1183 N 119.726 -1.57421 0.075193 0
M  V30 1184 C 120.689 -2.11791 -0.876203 0
M  V30 1185 C 121.689 -1.04268 -1.22412 0
M  V30 1186 O 122.879 -1.30242 -1.15684 0
M  V30 1187 C 120.011 -2.62207 -2.17854 0
M  V30 1188 H 121.204 -2.9716 -0.40444 0
M  V30 1189 H 118.757 -1.55333 -0.173557 0
M  V30 1190 H 119.492 -1.803 -2.6956 0
M  V30 1191 H 119.277 -3.40802 -1.93897 0
M  V30 1192 H 120.767 -3.04335 -2.85955 0
M  V30 1193 N 121.204 0.198386 -1.56346 0
M  V30 1194 C 122.114 1.2664 -1.97483 0
M  V30 1195 C 123.13 1.49989 -0.882002 0
M  V30 1196 O 124.306 1.62668 -1.18748 0
M  V30 1197 C 121.371 2.59141 -2.30319 0
M  V30 1198 C 120.432 2.43892 -3.53292 0
M  V30 1199 C 119.665 3.70074 -3.84553 0
M  V30 1200 O 119.888 4.74101 -3.1715 0
M  V30 1201 O 118.822 3.658 -4.7799 0
M  V30 1202 H 122.648 0.947304 -2.88548 0
M  V30 1203 H 120.233 0.403123 -1.43859 0
M  V30 1204 H 122.115 3.37352 -2.5253 0
M  V30 1205 H 120.79 2.90684 -1.42423 0
M  V30 1206 H 119.697 1.63803 -3.36332 0
M  V30 1207 H 121.03 2.17282 -4.41644 0
M  V30 1208 N 122.682 1.50554 0.465978 0
M  V30 1209 C 123.91 1.65563 1.24083 0
M  V30 1210 C 124.325 0.341051 1.85694 0
M  V30 1211 O 123.682 -0.677543 1.69457 0
M  V30 1212 C 123.733 2.75051 2.34583 0
M  V30 1213 O 123.454 4.01413 1.75497 0
M  V30 1214 C 124.955 3.01078 3.25372 0
M  V30 1215 H 122.175 0.55638 0.375077 0
M  V30 1216 H 124.719 1.96807 0.555624 0
M  V30 1217 H 122.874 2.46486 2.9887 0
M  V30 1218 H 123.288 4.62002 2.48303 0
M  V30 1219 H 124.762 3.81339 3.99105 0
M  V30 1220 H 125.239 2.12349 3.84453 0
M  V30 1221 H 125.845 3.31194 2.66816 0
M  V30 1222 N 124.16 -0.719506 1.40217 0
M  V30 1223 C 125.437 -1.47221 1.28784 0
M  V30 1224 C 125.817 -2.10883 -0.0956067 0
M  V30 1225 O 125.165 -1.99833 -1.10811 0
M  V30 1226 C 125.375 -2.5111 2.42373 0
M  V30 1227 C 126.723 -3.17053 2.82423 0
M  V30 1228 O 127.747 -2.61429 2.41937 0
M  V30 1229 O 126.606 -4.17742 3.52355 0
M  V30 1230 H 123.7 -0.654491 0.50554 0
M  V30 1231 H 126.246 -0.752014 1.52128 0
M  V30 1232 H 125.018 -2.02556 3.34793 0
M  V30 1233 H 124.641 -3.3067 2.20778 0
M  V30 1234 N 125.638 -1.25649 -0.95132 0
M  V30 1235 C 126.887 -1.09988 -1.69073 0
M  V30 1236 C 127.2 0.358355 -1.92289 0
M  V30 1237 O 128.406 0.635466 -2.63958 0
M  V30 1238 C 126.862 -1.92012 -3.044 0
M  V30 1239 C 126.47 -3.42347 -2.88968 0
M  V30 1240 C 128.214 -1.8493 -3.82101 0
M  V30 1241 C 126.121 -4.16655 -4.19705 0
M  V30 1242 H 125.051 -0.407993 -0.63408 0
M  V30 1243 H 127.702 -1.49873 -1.05879 0
M  V30 1244 H 126.084 -1.44952 -3.68517 0
M  V30 1245 H 127.258 -3.97104 -2.33762 0
M  V30 1246 H 125.573 -3.50557 -2.24719 0
M  V30 1247 H 128.17 -2.37739 -4.78941 0
M  V30 1248 H 128.513 -0.817883 -4.08187 0
M  V30 1249 H 129.046 -2.29758 -3.2474 0
M  V30 1250 H 125.785 -5.20224 -3.98807 0
M  V30 1251 H 125.305 -3.66681 -4.74663 0
M  V30 1252 H 126.984 -4.24551 -4.88227 0
M  V30 1253 N 127.117 1.15442 -1.07289 0
M  V30 1254 C 128.363 1.86489 -0.796846 0
M  V30 1255 C 128.696 1.82078 0.675371 0
M  V30 1256 O 127.971 1.24346 1.4956 0
M  V30 1257 C 128.254 3.35626 -1.30489 0
M  V30 1258 C 128.107 3.48673 -2.84161 0
M  V30 1259 C 129.426 4.30357 -0.920907 0
M  V30 1260 H 126.545 0.677144 -0.290939 0
M  V30 1261 H 129.187 1.35633 -1.33056 0
M  V30 1262 H 127.337 3.79068 -0.850883 0
M  V30 1263 H 129.009 3.14099 -3.37846 0
M  V30 1264 H 127.252 2.90253 -3.22391 0
M  V30 1265 H 127.923 4.53453 -3.14777 0
M  V30 1266 H 130.399 3.94871 -1.3121 0
M  V30 1267 H 129.275 5.33193 -1.30372 0
M  V30 1268 H 129.536 4.4176 0.173226 0
M  V30 1269 N 128.595 0.856903 1.32268 0
M  V30 1270 C 129.505 0.306131 2.32594 0
M  V30 1271 C 130.521 -0.577209 1.64147 0
M  V30 1272 O 131.697 -0.477043 1.95669 0
M  V30 1273 C 128.762 -0.494561 3.43154 0
M  V30 1274 C 127.823 0.415186 4.27288 0
M  V30 1275 C 127.056 -0.347387 5.32568 0
M  V30 1276 O 127.279 -1.57708 5.48165 0
M  V30 1277 O 126.213 0.287982 6.01211 0
M  V30 1278 H 130.039 1.13737 2.81598 0
M  V30 1279 H 127.624 0.619902 1.35932 0
M  V30 1280 H 129.506 -0.948944 4.10576 0
M  V30 1281 H 128.181 -1.30257 2.96336 0
M  V30 1282 H 127.088 0.917793 3.62667 0
M  V30 1283 H 128.421 1.18844 4.77637 0
M  V30 1284 N 130.073 -1.45103 0.615059 0
M  V30 1285 C 131.036 -2.29025 -0.0895485 0
M  V30 1286 C 132.036 -1.40174 -0.787906 0
M  V30 1287 O 133.226 -1.62217 -0.634933 0
M  V30 1288 C 130.358 -3.21376 -1.13711 0
M  V30 1289 H 131.551 -2.92807 0.648382 0
M  V30 1290 H 129.104 -1.51749 0.374444 0
M  V30 1291 H 129.839 -2.6241 -1.90556 0
M  V30 1292 H 129.624 -3.86834 -0.640475 0
M  V30 1293 H 131.114 -3.84459 -1.63036 0
M  V30 1294 N 131.551 -0.354651 -1.53558 0
M  V30 1295 C 132.797 0.238797 -2.01389 0
M  V30 1296 C 133.13 1.49309 -1.2418 0
M  V30 1297 O 132.405 1.91638 -0.332457 0
M  V30 1298 C 132.688 0.541771 -3.56001 0
M  V30 1299 C 132.541 -0.725388 -4.43912 0
M  V30 1300 C 133.86 1.34685 -4.18984 0
M  V30 1301 H 130.979 0.0853177 -0.732045 0
M  V30 1302 H 133.621 -0.477384 -1.83905 0
M  V30 1303 H 131.771 1.15189 -3.71031 0
M  V30 1304 H 133.443 -1.36313 -4.407 0
M  V30 1305 H 131.686 -1.34801 -4.12324 0
M  V30 1306 H 132.357 -0.468505 -5.50008 0
M  V30 1307 H 134.833 0.830837 -4.07721 0
M  V30 1308 H 133.709 1.52759 -5.27215 0
M  V30 1309 H 133.97 2.35221 -3.74331 0
M  V30 1310 N 133.029 1.57378 -0.0835403 0
M  V30 1311 C 133.992 2.12252 0.864959 0
M  V30 1312 C 134.992 1.04916 1.21858 0
M  V30 1313 O 136.182 1.30853 1.14991 0
M  V30 1314 C 133.314 2.63358 2.16461 0
M  V30 1315 H 134.507 2.97371 0.388676 0
M  V30 1316 H 132.06 1.55423 0.165317 0
M  V30 1317 H 132.795 1.81727 2.686 0
M  V30 1318 H 132.58 3.41826 1.92087 0
M  V30 1319 H 134.07 3.05847 2.84337 0
M  V30 1320 N 134.507 -0.190092 1.56449 0
M  V30 1321 C 135.417 -1.25591 1.98152 0
M  V30 1322 C 136.433 -1.49519 0.889944 0
M  V30 1323 O 137.609 -1.62036 1.19609 0
M  V30 1324 C 134.674 -2.57916 2.3169 0
M  V30 1325 C 133.735 -2.42015 3.5458 0
M  V30 1326 C 132.968 -3.6803 3.8651 0
M  V30 1327 O 133.191 -4.72413 3.1966 0
M  V30 1328 O 132.125 -3.6326 4.79923 0
M  V30 1329 H 135.951 -0.931988 2.89046 0
M  V30 1330 H 133.536 -0.395488 1.4407 0
M  V30 1331 H 135.418 -3.36008 2.54316 0
M  V30 1332 H 134.093 -2.89925 1.43963 0
M  V30 1333 H 133 -1.62017 3.37196 0
M  V30 1334 H 134.333 -2.14937 4.4279 0
M  V30 1335 N 135.985 -1.50799 -0.457987 0
M  V30 1336 C 137.401 -1.38515 -0.792819 0
M  V30 1337 C 137.601 -0.451409 -1.96379 0
M  V30 1338 O 136.657 0.10112 -2.52297 0
M  V30 1339 C 137.97 -2.80149 -1.09258 0
M  V30 1340 C 139.518 -2.89156 -1.19825 0
M  V30 1341 C 139.993 -4.31651 -1.53106 0
M  V30 1342 N 141.484 -4.34662 -1.60072 0
M  V30 1343 C 142.219 -5.41928 -1.87354 0
M  V30 1344 N 141.715 -6.59384 -2.12568 0
M  V30 1345 N 143.508 -5.29385 -1.88965 0
M  V30 1346 H 135.659 -2.10073 0.313511 0
M  V30 1347 H 137.922 -0.944803 0.0777862 0
M  V30 1348 H 137.628 -3.50374 -0.305084 0
M  V30 1349 H 137.502 -3.18204 -2.02549 0
M  V30 1350 H 139.889 -2.19141 -1.97639 0
M  V30 1351 H 139.97 -2.54626 -0.244821 0
M  V30 1352 H 139.614 -5.02208 -0.758266 0
M  V30 1353 H 139.544 -4.63678 -2.49621 0
M  V30 1354 H 142.035 -3.49973 -1.42573 0
M  V30 1355 H 142.348 -7.36934 -2.32696 0
M  V30 1356 H 140.693 -6.62535 -2.09933 0
M  V30 1357 H 143.884 -4.36616 -1.68772 0
M  V30 1358 H 144.057 -6.13066 -2.09891 0
M  V30 1359 N 137.463 0.71206 -1.40597 0
M  V30 1360 C 138.393 1.83889 -1.43899 0
M  V30 1361 C 139.374 1.67442 -0.299504 0
M  V30 1362 O 140.559 1.87421 -0.508624 0
M  V30 1363 C 137.689 3.21877 -1.30431 0
M  V30 1364 C 136.643 3.53002 -2.42019 0
M  V30 1365 C 135.969 4.90172 -2.13626 0
M  V30 1366 C 137.269 3.53643 -3.84362 0
M  V30 1367 H 138.963 1.81383 -2.38203 0
M  V30 1368 H 136.509 0.871237 -1.14654 0
M  V30 1369 H 138.462 4.00404 -1.31357 0
M  V30 1370 H 137.186 3.24968 -0.326049 0
M  V30 1371 H 135.845 2.76818 -2.40349 0
M  V30 1372 H 135.493 4.89869 -1.14182 0
M  V30 1373 H 135.193 5.11962 -2.88389 0
M  V30 1374 H 136.717 5.71028 -2.1624 0
M  V30 1375 H 138.131 4.22203 -3.87837 0
M  V30 1376 H 136.528 3.86961 -4.58673 0
M  V30 1377 H 137.598 2.52954 -4.13693 0
M  V30 1378 N 138.941 1.26152 0.944643 0
M  V30 1379 C 139.873 1.03199 2.04652 0
M  V30 1380 C 140.886 -0.00642356 1.62799 0
M  V30 1381 O 142.075 0.233263 1.76969 0
M  V30 1382 C 139.175 0.540111 3.34568 0
M  V30 1383 C 138.348 1.64697 4.05208 0
M  V30 1384 C 137.407 1.15374 5.13396 0
M  V30 1385 O 136.433 1.85013 5.38293 0
M  V30 1386 N 137.635 0.00031529 5.805 0
M  V30 1387 H 140.4 1.9808 2.2491 0
M  V30 1388 H 137.961 1.17491 1.11389 0
M  V30 1389 H 139.953 0.194401 4.04233 0
M  V30 1390 H 138.523 -0.315021 3.11009 0
M  V30 1391 H 137.743 2.16379 3.29506 0
M  V30 1392 H 139.031 2.3903 4.49157 0
M  V30 1393 H 138.429 -0.581336 5.62705 0
M  V30 1394 H 136.986 -0.286346 6.51171 0
M  V30 1395 N 140.419 -1.14872 1.07899 0
M  V30 1396 C 141.835 -1.37776 0.805606 0
M  V30 1397 C 142.035 -1.92743 -0.587555 0
M  V30 1398 O 141.091 -2.13678 -1.34528 0
M  V30 1399 C 142.404 -2.34361 1.88402 0
M  V30 1400 C 143.952 -2.48012 1.90942 0
M  V30 1401 C 144.427 -3.47893 2.97883 0
M  V30 1402 N 145.918 -3.55433 2.97021 0
M  V30 1403 C 146.653 -4.32553 3.76412 0
M  V30 1404 N 146.149 -5.12959 4.65666 0
M  V30 1405 N 147.942 -4.27697 3.64735 0
M  V30 1406 H 140.093 -0.775365 1.97742 0
M  V30 1407 H 142.356 -0.403521 0.857831 0
M  V30 1408 H 142.062 -2.01098 2.88535 0
M  V30 1409 H 141.936 -3.34206 1.74889 0
M  V30 1410 H 144.323 -2.8057 0.914579 0
M  V30 1411 H 144.404 -1.48147 2.08534 0
M  V30 1412 H 144.048 -3.16069 3.97571 0
M  V30 1413 H 143.978 -4.47527 2.77538 0
M  V30 1414 H 146.469 -2.98048 2.32326 0
M  V30 1415 H 146.782 -5.69065 5.22862 0
M  V30 1416 H 145.127 -5.12245 4.69712 0
M  V30 1417 H 148.318 -3.63949 2.94378 0
M  V30 1418 H 148.491 -4.8755 4.26848 0
M  V30 1419 N 141.898 -0.863906 -1.31812 0
M  V30 1420 C 142.848 -0.286898 -2.26188 0
M  V30 1421 C 143.832 0.572577 -1.50367 0
M  V30 1422 O 145.024 0.420447 -1.71934 0
M  V30 1423 C 142.153 0.515849 -3.39402 0
M  V30 1424 C 141.239 -0.356531 -4.22599 0
M  V30 1425 N 141.63 -1.44716 -4.84656 0
M  V30 1426 C 139.928 -0.147898 -4.45755 0
M  V30 1427 C 140.629 -1.98462 -5.46798 0
M  V30 1428 N 139.605 -1.28247 -5.28255 0
M  V30 1429 H 143.407 -1.12055 -2.717 0
M  V30 1430 H 140.921 -0.711012 -1.46008 0
M  V30 1431 H 142.918 0.945701 -4.06032 0
M  V30 1432 H 141.578 1.34718 -2.95434 0
M  V30 1433 H 142.589 -1.83008 -4.84488 0
M  V30 1434 H 139.266 0.647973 -4.12441 0
M  V30 1435 H 140.656 -2.89932 -6.06126 0
M  V30 1436 N 143.376 1.44774 -0.622745 0
M  V30 1437 C 144.326 2.2774 0.108889 0
M  V30 1438 C 145.31 1.38189 0.824175 0
M  V30 1439 O 146.502 1.62063 0.711664 0
M  V30 1440 C 143.631 3.25353 1.09546 0
M  V30 1441 C 142.717 4.22392 0.380232 0
M  V30 1442 N 143.108 5.02388 -0.586535 0
M  V30 1443 C 141.406 4.41588 0.625792 0
M  V30 1444 C 142.107 5.72894 -1.00834 0
M  V30 1445 N 141.083 5.42479 -0.348878 0
M  V30 1446 H 144.885 2.86993 -0.63341 0
M  V30 1447 H 142.399 1.5611 -0.447589 0
M  V30 1448 H 144.396 3.83538 1.63414 0
M  V30 1449 H 143.056 2.6766 1.83815 0
M  V30 1450 H 144.067 5.0885 -0.963975 0
M  V30 1451 H 140.744 3.95003 1.352 0
M  V30 1452 H 142.134 6.47158 -1.80656 0
M  V30 1453 N 144.854 0.36279 1.53368 0
M  V30 1454 C 146.1 -0.228113 2.01513 0
M  V30 1455 C 146.433 -1.48648 1.2497 0
M  V30 1456 O 145.708 -1.91459 0.342616 0
M  V30 1457 C 145.991 -0.522884 3.56284 0
M  V30 1458 C 145.844 0.74892 4.43521 0
M  V30 1459 C 147.163 -1.32461 4.19693 0
M  V30 1460 H 144.282 -0.0814343 0.732487 0
M  V30 1461 H 146.924 0.48713 1.83649 0
M  V30 1462 H 145.074 -1.1322 3.71636 0
M  V30 1463 H 146.746 1.38648 4.39971 0
M  V30 1464 H 144.989 1.36986 4.11603 0
M  V30 1465 H 145.66 0.497667 5.49752 0
M  V30 1466 H 148.136 -0.809203 4.08156 0
M  V30 1467 H 147.012 -1.49961 5.28018 0
M  V30 1468 H 147.273 -2.33232 3.75573 0
M  V30 1469 N 146.332 -1.57332 0.0918853 0
M  V30 1470 C 147.748 -1.57389 -0.264766 0
M  V30 1471 C 147.948 -1.10281 -1.68643 0
M  V30 1472 O 147.004 -0.777801 -2.40222 0
M  V30 1473 C 148.317 -3.00648 -0.0561195 0
M  V30 1474 C 149.865 -3.12754 -0.124116 0
M  V30 1475 C 150.34 -4.57965 0.0564972 0
M  V30 1476 N 151.831 -4.632 0.00155611 0
M  V30 1477 C 152.566 -5.73281 0.116598 0
M  V30 1478 N 152.062 -6.92208 0.286294 0
M  V30 1479 N 153.855 -5.6207 0.0580973 0
M  V30 1480 H 146.006 -1.86262 1.02079 0
M  V30 1481 H 148.269 -0.859579 0.399786 0
M  V30 1482 H 147.975 -3.393 0.925669 0
M  V30 1483 H 147.849 -3.68623 -0.799823 0
M  V30 1484 H 150.236 -2.73976 -1.09641 0
M  V30 1485 H 150.317 -2.47377 0.651024 0
M  V30 1486 H 149.961 -4.97436 1.02564 0
M  V30 1487 H 149.891 -5.21399 -0.738297 0
M  V30 1488 H 152.382 -3.77686 -0.127192 0
M  V30 1489 H 152.695 -7.71934 0.365676 0
M  V30 1490 H 151.04 -6.94254 0.32192 0
M  V30 1491 H 154.231 -4.68043 -0.0733204 0
M  V30 1492 H 154.404 -6.47824 0.151203 0
M  V30 1493 N 147.81 0.181792 -1.56548 0
M  V30 1494 C 148.758 1.24461 -1.965 0
M  V30 1495 C 149.752 1.464 -0.852261 0
M  V30 1496 O 150.958 1.47103 -1.03733 0
M  V30 1497 H 147.333 0.418138 -0.625031 0
M  V30 1498 H 149.304 0.880714 -2.85107 0
M  V30 1499 C 148.053 2.57891 -2.33212 0
M  V30 1500 H 147.376 2.41829 -3.18369 0
M  V30 1501 H 148.816 3.3097 -2.65019 0
M  V30 1502 C 147.275 3.15871 -1.17163 0
M  V30 1503 O 147.805 3.9913 -0.453708 0
M  V30 1504 N 146.011 2.74808 -0.944936 0
M  V30 1505 H 145.558 2.07205 -1.53049 0
M  V30 1506 H 145.516 3.13939 -0.170286 0
M  V30 1507 N 149.288 1.51039 0.449983 0
M  V30 1508 C 150.534 1.63322 1.20223 0
M  V30 1509 C 150.867 0.34241 1.91158 0
M  V30 1510 O 150.142 -0.657344 1.83055 0
M  V30 1511 C 150.425 2.82801 2.22925 0
M  V30 1512 C 150.278 4.21823 1.56157 0
M  V30 1513 C 151.597 2.97807 3.24035 0
M  V30 1514 H 148.716 0.594407 0.435718 0
M  V30 1515 H 151.358 1.83489 0.493136 0
M  V30 1516 H 149.508 2.65738 2.834 0
M  V30 1517 H 151.18 4.50526 0.991162 0
M  V30 1518 H 149.423 4.25105 0.864172 0
M  V30 1519 H 150.094 5.01391 2.30891 0
M  V30 1520 H 152.57 3.13497 2.73603 0
M  V30 1521 H 151.446 3.82992 3.93202 0
M  V30 1522 H 151.707 2.09328 3.89402 0
M  V30 1523 N 150.766 -0.704594 1.40972 0
M  V30 1524 C 152.012 -1.46675 1.40051 0
M  V30 1525 C 152.345 -1.94199 0.00641102 0
M  V30 1526 O 151.62 -1.68916 -0.964235 0
M  V30 1527 C 151.903 -2.68505 2.39952 0
M  V30 1528 C 151.756 -2.26805 3.88432 0
M  V30 1529 C 153.075 -3.70686 2.37233 0
M  V30 1530 H 150.194 -0.532015 0.510028 0
M  V30 1531 H 152.836 -0.803255 1.72185 0
M  V30 1532 H 150.986 -3.25114 2.1268 0
M  V30 1533 H 152.658 -1.75592 4.26574 0
M  V30 1534 H 150.901 -1.58685 4.03734 0
M  V30 1535 H 151.572 -3.14181 4.53866 0
M  V30 1536 H 154.048 -3.23731 2.61415 0
M  V30 1537 H 152.924 -4.53553 3.09162 0
M  V30 1538 H 153.185 -4.19754 1.38777 0
M  V30 1539 N 152.244 -1.26651 -0.937939 0
M  V30 1540 C 153.174 -1.10993 -2.05433 0
M  V30 1541 C 154.155 -0.0142161 -1.70094 0
M  V30 1542 O 155.34 -0.186837 -1.93299 0
M  V30 1543 C 152.47 -0.745561 -3.39203 0
M  V30 1544 C 151.424 -1.79337 -3.88616 0
M  V30 1545 C 150.75 -1.28324 -5.19073 0
M  V30 1546 C 152.05 -3.19553 -4.13138 0
M  V30 1547 H 153.744 -2.0438 -2.1879 0
M  V30 1548 H 151.29 -0.984041 -1.05131 0
M  V30 1549 H 153.243 -0.622888 -4.16771 0
M  V30 1550 H 151.967 0.22401 -3.25831 0
M  V30 1551 H 150.626 -1.90477 -3.13231 0
M  V30 1552 H 150.274 -0.303414 -5.02084 0
M  V30 1553 H 149.974 -1.98369 -5.53103 0
M  V30 1554 H 151.498 -1.1733 -5.99221 0
M  V30 1555 H 152.912 -3.11471 -4.81309 0
M  V30 1556 H 151.309 -3.87218 -4.58457 0
M  V30 1557 H 152.379 -3.65368 -3.18801 0
M  V30 1558 N 153.722 1.14298 -1.08507 0
M  V30 1559 C 154.999 1.81544 -0.728088 0
M  V30 1560 C 155.379 1.95838 0.78808 0
M  V30 1561 O 154.727 1.51904 1.70697 0
M  V30 1562 C 154.937 3.17169 -1.45619 0
M  V30 1563 C 156.285 3.9265 -1.61591 0
M  V30 1564 O 157.309 3.26762 -1.41793 0
M  V30 1565 O 156.168 5.10807 -1.94263 0
M  V30 1566 H 153.262 0.78491 -0.260471 0
M  V30 1567 H 155.808 1.21307 -1.18671 0
M  V30 1568 H 154.58 3.01934 -2.489 0
M  V30 1569 H 154.203 3.851 -0.989124 0
M  V30 1570 N 155.201 0.870884 1.31352 0
M  V30 1571 C 156.429 0.49677 2.00848 0
M  V30 1572 C 156.844 -0.910998 1.65367 0
M  V30 1573 O 156.201 -1.59696 0.883374 0
M  V30 1574 C 156.252 0.645308 3.55694 0
M  V30 1575 O 155.973 1.99764 3.89905 0
M  V30 1576 C 157.474 0.272326 4.42463 0
M  V30 1577 H 154.694 0.193462 0.642506 0
M  V30 1578 H 157.238 1.1723 1.67563 0
M  V30 1579 H 155.393 0.0173176 3.87396 0
M  V30 1580 H 155.807 2.00607 4.84621 0
M  V30 1581 H 157.281 0.427208 5.50344 0
M  V30 1582 H 157.758 -0.788587 4.32062 0
M  V30 1583 H 158.364 0.876054 4.1618 0
M  V30 1584 N 156.679 -1.44442 0.630414 0
M  V30 1585 C 157.925 -2.02351 0.134816 0
M  V30 1586 C 158.258 -1.4947 -1.23986 0
M  V30 1587 O 157.533 -0.678475 -1.82283 0
M  V30 1588 C 157.816 -3.59898 0.120707 0
M  V30 1589 C 157.669 -4.23063 1.52767 0
M  V30 1590 C 158.988 -4.36585 -0.555127 0
M  V30 1591 H 156.107 -0.73527 0.0504646 0
M  V30 1592 H 158.749 -1.72022 0.806751 0
M  V30 1593 H 156.899 -3.85868 -0.451477 0
M  V30 1594 H 158.571 -4.08202 2.14869 0
M  V30 1595 H 156.814 -3.80586 2.08175 0
M  V30 1596 H 157.485 -5.32071 1.46984 0
M  V30 1597 H 159.961 -4.16044 -0.0685429 0
M  V30 1598 H 158.837 -5.46294 -0.534185 0
M  V30 1599 H 159.098 -4.11138 -1.62535 0
M  V30 1600 N 158.157 -0.370918 -1.53173 0
M  V30 1601 C 159.09 0.516727 -2.22273 0
M  V30 1602 C 160.068 1.07877 -1.21661 0
M  V30 1603 O 161.252 1.13389 -1.50583 0
M  V30 1604 C 158.379 1.71346 -2.92161 0
M  V30 1605 C 157.425 1.27838 -4.0689 0
M  V30 1606 S 158.258 0.275217 -5.34792 0
M  V30 1607 C 159.414 1.47816 -6.08195 0
M  V30 1608 H 159.647 -0.0701054 -2.97217 0
M  V30 1609 H 157.18 -0.155038 -1.5362 0
M  V30 1610 H 159.138 2.39988 -3.3304 0
M  V30 1611 H 157.799 2.27156 -2.16931 0
M  V30 1612 H 156.992 2.17141 -4.54825 0
M  V30 1613 H 156.594 0.671105 -3.6793 0
M  V30 1614 H 158.886 2.40831 -6.33251 0
M  V30 1615 H 159.829 1.04008 -7.0042 0
M  V30 1616 H 160.237 1.68663 -5.38714 0
M  V30 1617 N 159.635 1.57281 -0.100228 0
M  V30 1618 C 160.565 2.17328 0.853857 0
M  V30 1619 C 161.546 1.10804 1.2906 0
M  V30 1620 O 162.731 1.38963 1.35657 0
M  V30 1621 C 159.861 2.75772 2.11109 0
M  V30 1622 C 158.815 3.87713 1.81279 0
M  V30 1623 C 158.141 4.32882 3.13874 0
M  V30 1624 C 159.441 5.10677 1.09574 0
M  V30 1625 H 161.135 2.97305 0.353545 0
M  V30 1626 H 158.681 1.43009 0.168612 0
M  V30 1627 H 160.634 3.16433 2.78296 0
M  V30 1628 H 159.358 1.93057 2.63432 0
M  V30 1629 H 158.017 3.476 1.16489 0
M  V30 1630 H 157.665 3.47051 3.64095 0
M  V30 1631 H 157.365 5.08358 2.94696 0
M  V30 1632 H 158.889 4.7618 3.82211 0
M  V30 1633 H 160.303 5.48474 1.66879 0
M  V30 1634 H 158.7 5.91615 1.00557 0
M  V30 1635 H 159.77 4.84835 0.0793299 0
M  V30 1636 N 161.113 -0.173488 1.56642 0
M  V30 1637 C 162.076 -1.19859 1.95362 0
M  V30 1638 C 163.076 -1.37296 0.83704 0
M  V30 1639 O 164.266 -1.34739 1.10413 0
M  V30 1640 C 161.398 -2.56405 2.24654 0
M  V30 1641 H 162.591 -0.867062 2.87092 0
M  V30 1642 H 160.144 -0.415853 1.50666 0
M  V30 1643 H 160.879 -2.94576 1.35631 0
M  V30 1644 H 160.664 -2.45115 3.06041 0
M  V30 1645 H 162.154 -3.30287 2.5554 0
M  V30 1646 N 162.591 -1.51276 -0.441967 0
M  V30 1647 C 163.538 -1.72256 -1.53612 0
M  V30 1648 C 164.508 -0.564164 -1.56225 0
M  V30 1649 O 165.693 -0.798074 -1.73307 0
M  V30 1650 C 162.833 -1.84932 -2.91366 0
M  V30 1651 C 161.946 -3.12459 -2.98317 0
M  V30 1652 C 161.081 -3.15758 -4.27166 0
M  V30 1653 C 160.12 -4.37619 -4.27967 0
M  V30 1654 N 159.257 -4.38493 -5.48333 0
M  V30 1655 H 164.097 -2.65654 -1.35026 0
M  V30 1656 H 161.634 -1.31662 -0.656009 0
M  V30 1657 H 163.592 -1.90263 -3.7129 0
M  V30 1658 H 162.222 -0.949461 -3.08521 0
M  V30 1659 H 161.274 -3.1646 -2.11086 0
M  V30 1660 H 162.586 -4.02382 -2.94771 0
M  V30 1661 H 161.74 -3.19979 -5.15459 0
M  V30 1662 H 160.479 -2.23715 -4.33362 0
M  V30 1663 H 159.484 -4.33579 -3.38067 0
M  V30 1664 H 160.709 -5.30921 -4.23438 0
M  V30 1665 H 158.655 -3.49318 -5.55259 0
M  V30 1666 H 158.572 -5.22219 -5.46647 0
M  V30 1667 H 159.84 -4.469 -6.38671 0
M  V30 1668 N 164.069 0.697108 -1.41344 0
M  V30 1669 C 165.294 1.49096 -1.44171 0
M  V30 1670 C 165.719 1.88038 -0.0481568 0
M  V30 1671 O 165.077 1.54525 0.948243 0
M  V30 1672 C 165.125 2.73088 -2.3549 0
M  V30 1673 O 164.229 3.70514 -1.81088 0
M  V30 1674 H 163.57 0.448801 -0.489361 0
M  V30 1675 H 166.1 0.856992 -1.85787 0
M  V30 1676 H 166.11 3.21413 -2.51312 0
M  V30 1677 H 164.785 2.44081 -3.36745 0
M  V30 1678 H 163.362 3.29441 -1.74708 0
M  V30 1679 N 165.547 1.27147 0.931209 0
M  V30 1680 C 166.795 1.13055 1.6752 0
M  V30 1681 C 167.116 -0.324791 1.92276 0
M  V30 1682 O 166.386 -1.22775 1.52654 0
M  V30 1683 H 164.966 0.415391 0.620854 0
M  V30 1684 H 167.628 1.59623 1.11833 0
M  V30 1685 H 166.724 1.65694 2.64485 0
M  V30 1686 N 167.025 -1.13721 1.09112 0
M  V30 1687 C 168.302 -1.81155 0.737706 0
M  V30 1688 C 168.682 -1.96253 -0.777683 0
M  V30 1689 O 168.03 -1.52807 -1.69889 0
M  V30 1690 C 168.24 -3.16392 1.47299 0
M  V30 1691 C 169.588 -3.91787 1.63671 0
M  V30 1692 O 170.612 -3.26005 1.43524 0
M  V30 1693 O 169.471 -5.0977 1.96969 0
M  V30 1694 H 166.565 -0.783518 0.26463 0
M  V30 1695 H 169.111 -1.20676 1.19312 0
M  V30 1696 H 167.883 -3.0061 2.50498 0
M  V30 1697 H 167.506 -3.8457 1.00953 0
M  V30 1698 N 168.503 -0.877838 -1.30888 0
M  V30 1699 C 169.914 -0.544193 -1.78593 0
M  V30 1700 C 170.265 0.939301 -1.72254 0
M  V30 1701 O 169.39 1.7337 -1.29505 0
M  V30 1702 C 169.985 -0.98105 -3.24285 0
M  V30 1703 C 168.544 -0.698935 -3.69854 0
M  V30 1704 C 167.691 -1.168 -2.51502 0
M  V30 1705 H 170.642 -1.06278 -1.17859 0
M  V30 1706 H 170.663 -0.307009 -3.79259 0
M  V30 1707 H 170.175 -2.06079 -3.28866 0
M  V30 1708 H 168.276 0.369112 -3.70767 0
M  V30 1709 H 168.389 -1.28148 -4.61644 0
M  V30 1710 H 166.753 -0.587535 -2.47831 0
M  V30 1711 H 167.536 -2.25533 -2.58824 0
M  V30 1712 N 169.982 1.44106 -0.638065 0
M  V30 1713 C 170.912 2.33448 0.0494287 0
M  V30 1714 C 171.893 1.48606 0.827672 0
M  V30 1715 O 173.078 1.77308 0.792173 0
M  V30 1716 C 170.208 3.31771 1.02691 0
M  V30 1717 C 169.162 4.26485 0.359823 0
M  V30 1718 C 168.488 5.14729 1.44769 0
M  V30 1719 C 169.788 5.17056 -0.738296 0
M  V30 1720 H 171.482 2.91183 -0.696636 0
M  V30 1721 H 169.028 1.40014 -0.336456 0
M  V30 1722 H 170.981 3.93161 1.51666 0
M  V30 1723 H 169.705 2.7226 1.80395 0
M  V30 1724 H 168.364 3.66437 -0.10934 0
M  V30 1725 H 168.012 4.51566 2.21578 0
M  V30 1726 H 167.712 5.78913 1.00668 0
M  V30 1727 H 169.236 5.78991 1.93911 0
M  V30 1728 H 170.65 5.72342 -0.331354 0
M  V30 1729 H 169.047 5.89879 -1.10286 0
M  V30 1730 H 170.117 4.57652 -1.60258 0
M  V30 1731 N 171.46 0.379036 1.52974 0
M  V30 1732 C 172.39 -0.452706 2.29069 0
M  V30 1733 C 173.371 -1.07237 1.32039 0
M  V30 1734 O 174.556 -1.08708 1.60923 0
M  V30 1735 C 171.686 -1.5856 3.08992 0
M  V30 1736 C 170.64 -1.0925 4.13822 0
M  V30 1737 C 169.966 -2.31668 4.81907 0
M  V30 1738 C 171.266 -0.167702 5.22031 0
M  V30 1739 H 172.96 0.182181 2.98845 0
M  V30 1740 H 170.506 0.0890592 1.43724 0
M  V30 1741 H 172.459 -2.1742 3.6098 0
M  V30 1742 H 171.183 -2.24792 2.36931 0
M  V30 1743 H 169.842 -0.526494 3.628 0
M  V30 1744 H 169.49 -2.96386 4.06404 0
M  V30 1745 H 169.19 -1.9934 5.52754 0
M  V30 1746 H 170.714 -2.91189 5.36695 0
M  V30 1747 H 172.128 -0.664186 5.6944 0
M  V30 1748 H 170.525 0.0653265 6.00064 0
M  V30 1749 H 171.595 0.786347 4.78482 0
M  V30 1750 N 172.938 -1.57226 0.108567 0
M  V30 1751 C 174.163 -1.99604 -0.563303 0
M  V30 1752 C 174.588 -0.987563 -1.6009 0
M  V30 1753 O 173.946 0.0421687 -1.81251 0
M  V30 1754 C 173.994 -3.40902 -1.17552 0
M  V30 1755 O 173.098 -3.42896 -2.2912 0
M  V30 1756 H 172.439 -0.648704 -0.1417 0
M  V30 1757 H 174.969 -2.03679 0.193961 0
M  V30 1758 H 174.979 -3.78886 -1.51357 0
M  V30 1759 H 173.654 -4.1382 -0.415445 0
M  V30 1760 H 172.231 -3.1672 -1.96832 0
M  V30 1761 N 174.416 0.165178 -1.56732 0
M  V30 1762 C 175.827 0.727046 -1.71962 0
M  V30 1763 C 176.178 1.82508 -0.720078 0
M  V30 1764 O 175.303 2.16082 0.117242 0
M  V30 1765 C 175.898 1.32559 -3.11791 0
M  V30 1766 C 174.457 1.83422 -3.28684 0
M  V30 1767 C 173.604 0.715567 -2.67908 0
M  V30 1768 H 176.555 -0.0602896 -1.58585 0
M  V30 1769 H 176.576 2.19533 -3.10782 0
M  V30 1770 H 176.088 0.526195 -3.84516 0
M  V30 1771 H 174.189 2.65986 -2.60926 0
M  V30 1772 H 174.302 1.97543 -4.36478 0
M  V30 1773 H 172.666 1.13758 -2.27884 0
M  V30 1774 H 173.449 -0.0720836 -3.43224 0
M  V30 1775 N 175.894 1.51508 0.433938 0
M  V30 1776 C 177.119 1.68443 1.21003 0
M  V30 1777 C 177.544 0.382636 1.84167 0
M  V30 1778 O 176.902 -0.65755 1.68956 0
M  V30 1779 C 176.95 2.80405 2.26727 0
M  V30 1780 O 176.054 2.44245 3.32292 0
M  V30 1781 H 175.395 0.561536 0.354363 0
M  V30 1782 H 177.925 1.9809 0.512024 0
M  V30 1783 H 177.935 3.0459 2.71457 0
M  V30 1784 H 176.61 3.74867 1.80132 0
M  V30 1785 H 175.187 2.30644 2.93015 0
M  V30 1786 N 177.372 -0.689602 1.41712 0
M  V30 1787 C 178.335 -1.78521 1.43746 0
M  V30 1788 C 179.335 -1.57436 0.327191 0
M  V30 1789 O 180.525 -1.64 0.587348 0
M  V30 1790 C 177.657 -3.16971 1.25467 0
M  V30 1791 H 178.85 -1.78108 2.41283 0
M  V30 1792 H 176.403 -0.89781 1.27942 0
M  V30 1793 H 177.138 -3.23019 0.287948 0
M  V30 1794 H 176.923 -3.33678 2.05917 0
M  V30 1795 H 178.413 -3.96935 1.2974 0
M  V30 1796 N 178.85 -1.27639 -0.924453 0
M  V30 1797 C 180.099 -1.13549 -1.66702 0
M  V30 1798 C 180.412 0.317487 -1.93006 0
M  V30 1799 O 181.618 0.579333 -2.65247 0
M  V30 1800 C 180.074 -1.98426 -3.00259 0
M  V30 1801 C 179.682 -3.484 -2.81641 0
M  V30 1802 C 181.426 -1.92993 -3.78092 0
M  V30 1803 C 179.333 -4.25464 -4.10773 0
M  V30 1804 H 178.263 -0.421351 -0.625283 0
M  V30 1805 H 180.914 -1.52085 -1.02676 0
M  V30 1806 H 179.296 -1.52736 -3.6536 0
M  V30 1807 H 180.47 -4.01973 -2.25287 0
M  V30 1808 H 178.785 -3.55245 -2.17232 0
M  V30 1809 H 181.382 -2.47844 -4.7379 0
M  V30 1810 H 181.725 -0.904281 -4.0636 0
M  V30 1811 H 182.258 -2.36595 -3.19793 0
M  V30 1812 H 178.997 -5.28566 -3.87683 0
M  V30 1813 H 178.517 -3.76667 -4.66779 0
M  V30 1814 H 180.196 -4.34812 -4.79111 0
M  V30 1815 N 180.328 1.1314 -1.09713 0
M  V30 1816 C 181.238 2.22242 -0.751367 0
M  V30 1817 C 182.254 1.72224 0.247938 0
M  V30 1818 O 183.43 2.01205 0.0885463 0
M  V30 1819 C 180.495 3.46231 -0.180274 0
M  V30 1820 C 179.556 4.11125 -1.2359 0
M  V30 1821 C 178.789 5.29195 -0.691966 0
M  V30 1822 O 179.012 5.68342 0.48414 0
M  V30 1823 O 177.946 5.84214 -1.44838 0
M  V30 1824 H 181.772 2.54197 -1.66186 0
M  V30 1825 H 179.357 1.21331 -0.871735 0
M  V30 1826 H 181.239 4.21185 0.134739 0
M  V30 1827 H 179.914 3.1597 0.703185 0
M  V30 1828 H 178.821 3.37985 -1.60366 0
M  V30 1829 H 180.154 4.45524 -2.09211 0
M  V30 1830 N 181.806 0.884767 1.30421 0
M  V30 1831 C 183.034 0.518044 2.0031 0
M  V30 1832 C 183.449 -0.893408 1.66324 0
M  V30 1833 O 182.806 -1.5875 0.900262 0
M  V30 1834 C 182.857 0.682997 3.54989 0
M  V30 1835 O 182.578 2.03888 3.87764 0
M  V30 1836 C 184.079 0.31924 4.42149 0
M  V30 1837 H 181.299 0.200265 0.640418 0
M  V30 1838 H 183.843 1.19001 1.6631 0
M  V30 1839 H 181.998 0.0584052 3.87356 0
M  V30 1840 H 182.412 2.05735 4.82466 0
M  V30 1841 H 183.886 0.485555 5.4986 0
M  V30 1842 H 184.363 -0.742717 4.32875 0
M  V30 1843 H 184.969 0.920147 4.15227 0
M  V30 1844 N 183.284 -1.43765 0.645699 0
M  V30 1845 C 184.214 -2.33471 -0.0370477 0
M  V30 1846 C 185.195 -1.49042 -0.819779 0
M  V30 1847 O 186.38 -1.77726 -0.782758 0
M  V30 1848 C 183.51 -3.32311 -1.0093 0
M  V30 1849 C 182.464 -4.2667 -0.337201 0
M  V30 1850 C 181.79 -5.1549 -1.42037 0
M  V30 1851 C 183.09 -5.16657 0.765706 0
M  V30 1852 H 184.784 -2.90809 0.712069 0
M  V30 1853 H 182.33 -1.39834 0.343876 0
M  V30 1854 H 184.283 -3.9396 -1.49578 0
M  V30 1855 H 183.007 -2.73213 -1.78948 0
M  V30 1856 H 181.666 -3.66374 0.128771 0
M  V30 1857 H 181.314 -4.52735 -2.1918 0
M  V30 1858 H 181.014 -5.79438 -0.975966 0
M  V30 1859 H 182.538 -5.80012 -1.90838 0
M  V30 1860 H 183.952 -5.72158 0.361702 0
M  V30 1861 H 182.349 -5.89286 1.13413 0
M  V30 1862 H 183.419 -4.56796 1.62683 0
M  V30 1863 N 184.763 -0.387143 -1.52771 0
M  V30 1864 C 186.179 -0.037007 -1.59557 0
M  V30 1865 C 186.379 1.44801 -1.40124 0
M  V30 1866 O 185.435 2.21227 -1.21716 0
M  V30 1867 C 186.748 -0.512256 -2.96305 0
M  V30 1868 C 188.296 -0.468328 -3.09476 0
M  V30 1869 C 188.771 -0.919731 -4.4867 0
M  V30 1870 N 190.262 -0.875656 -4.54848 0
M  V30 1871 C 190.997 -1.19637 -5.6078 0
M  V30 1872 N 190.493 -1.58745 -6.74368 0
M  V30 1873 N 192.286 -1.11776 -5.50874 0
M  V30 1874 H 184.437 -1.35395 -1.63652 0
M  V30 1875 H 186.7 -0.554818 -0.768688 0
M  V30 1876 H 186.406 -1.54935 -3.15734 0
M  V30 1877 H 186.28 0.089805 -3.77093 0
M  V30 1878 H 188.667 0.559671 -2.89744 0
M  V30 1879 H 188.748 -1.10616 -2.30646 0
M  V30 1880 H 188.392 -1.94595 -4.69143 0
M  V30 1881 H 188.322 -0.258927 -5.25963 0
M  V30 1882 H 190.813 -0.587843 -3.733 0
M  V30 1883 H 191.126 -1.81586 -7.51163 0
M  V30 1884 H 189.471 -1.6263 -6.75705 0
M  V30 1885 H 192.662 -0.811264 -4.61016 0
M  V30 1886 H 192.835 -1.37103 -6.3333 0
M  V30 1887 N 186.241 1.57166 -0.116904 0
M  V30 1888 C 187.487 1.95412 0.542405 0
M  V30 1889 C 187.82 1.00019 1.66463 0
M  V30 1890 O 187.095 0.0370346 1.94465 0
M  V30 1891 C 187.378 3.43615 1.07708 0
M  V30 1892 C 187.231 4.49781 -0.0415868 0
M  V30 1893 C 188.55 3.93616 1.96861 0
M  V30 1894 H 185.669 0.710543 0.195696 0
M  V30 1895 H 188.311 1.89027 -0.192038 0
M  V30 1896 H 186.461 3.49187 1.70296 0
M  V30 1897 H 188.133 4.56308 -0.676793 0
M  V30 1898 H 186.376 4.28033 -0.705019 0
M  V30 1899 H 187.047 5.50733 0.373717 0
M  V30 1900 H 189.523 3.90335 1.44146 0
M  V30 1901 H 188.399 4.97838 2.3119 0
M  V30 1902 H 188.66 3.34188 2.89432 0
M  V30 1903 N 187.719 -0.156864 1.56817 0
M  V30 1904 C 189.135 -0.50916 1.5126 0
M  V30 1905 C 189.335 -1.83897 0.823658 0
M  V30 1906 O 188.391 -2.49469 0.390055 0
M  V30 1907 C 189.704 -0.52857 2.96018 0
M  V30 1908 C 191.252 -0.614771 3.06903 0
M  V30 1909 C 191.727 -0.664938 4.53147 0
M  V30 1910 N 193.218 -0.727433 4.57452 0
M  V30 1911 C 193.953 -0.787067 5.67973 0
M  V30 1912 N 193.449 -0.806649 6.88088 0
M  V30 1913 N 195.242 -0.827195 5.5598 0
M  V30 1914 H 187.393 0.714935 2.00006 0
M  V30 1915 H 189.656 0.259526 0.911784 0
M  V30 1916 H 189.362 0.380154 3.49639 0
M  V30 1917 H 189.236 -1.36998 3.51442 0
M  V30 1918 H 191.623 -1.51392 2.53307 0
M  V30 1919 H 191.704 0.253597 2.5454 0
M  V30 1920 H 191.348 0.230011 5.07379 0
M  V30 1921 H 191.278 -1.54966 5.03282 0
M  V30 1922 H 193.769 -0.719998 3.70978 0
M  V30 1923 H 194.082 -0.853727 7.6807 0
M  V30 1924 H 192.427 -0.774687 6.90669 0
M  V30 1925 H 195.618 -0.808998 4.61056 0
M  V30 1926 H 195.791 -0.870206 6.4213 0
M  V30 1927 N 189.197 -1.51736 -0.425897 0
M  V30 1928 C 190.127 -1.76827 -1.52494 0
M  V30 1929 C 191.108 -0.618524 -1.58456 0
M  V30 1930 O 192.293 -0.862416 -1.74 0
M  V30 1931 C 189.423 -1.90374 -2.90474 0
M  V30 1932 C 188.377 -3.0588 -2.99369 0
M  V30 1933 C 187.703 -3.04625 -4.3944 0
M  V30 1934 C 189.003 -4.45644 -2.72394 0
M  V30 1935 H 190.697 -2.68855 -1.31748 0
M  V30 1936 H 188.243 -1.29372 -0.632362 0
M  V30 1937 H 190.196 -2.0651 -3.6733 0
M  V30 1938 H 188.92 -0.95004 -3.12477 0
M  V30 1939 H 187.579 -2.89467 -2.24954 0
M  V30 1940 H 187.227 -2.0701 -4.58428 0
M  V30 1941 H 186.927 -3.82195 -4.46319 0
M  V30 1942 H 188.451 -3.22869 -5.18255 0
M  V30 1943 H 189.865 -4.62348 -3.38979 0
M  V30 1944 H 188.262 -5.25006 -2.9067 0
M  V30 1945 H 189.332 -4.54893 -1.67929 0
M  V30 1946 N 190.675 0.682077 -1.42076 0
M  V30 1947 C 191.605 1.80796 -1.47767 0
M  V30 1948 C 192.586 1.6677 -0.334954 0
M  V30 1949 O 193.771 1.863 -0.548264 0
M  V30 1950 C 190.901 3.19038 -1.37229 0
M  V30 1951 C 189.855 3.47789 -2.49453 0
M  V30 1952 C 189.181 4.8553 -2.23975 0
M  V30 1953 C 190.481 3.45411 -3.91776 0
M  V30 1954 H 192.175 1.7629 -2.41997 0
M  V30 1955 H 189.721 0.846721 -1.16476 0
M  V30 1956 H 191.674 3.97528 -1.39821 0
M  V30 1957 H 190.398 3.24204 -0.394907 0
M  V30 1958 H 189.057 2.71657 -2.46166 0
M  V30 1959 H 188.705 4.87337 -1.24547 0
M  V30 1960 H 188.405 5.0573 -2.99184 0
M  V30 1961 H 189.929 5.66312 -2.28304 0
M  V30 1962 H 191.343 4.13882 -3.96705 0
M  V30 1963 H 189.74 3.77145 -4.66778 0
M  V30 1964 H 190.81 2.44122 -4.18966 0
M  V30 1965 N 192.153 1.28127 0.917671 0
M  V30 1966 C 193.564 1.13622 1.48145 0
M  V30 1967 C 193.915 -0.275207 1.9426 0
M  V30 1968 O 193.04 -1.1691 1.82102 0
M  V30 1969 C 193.635 2.05648 2.69248 0
M  V30 1970 C 192.194 1.95219 3.21818 0
M  V30 1971 C 191.341 1.97618 1.94532 0
M  V30 1972 H 194.292 1.40874 0.730772 0
M  V30 1973 H 194.313 1.61818 3.44377 0
M  V30 1974 H 193.825 3.08365 2.35653 0
M  V30 1975 H 191.926 0.955244 3.60147 0
M  V30 1976 H 192.039 2.81976 3.87333 0
M  V30 1977 H 190.403 1.41973 2.11461 0
M  V30 1978 H 191.186 3.02007 1.63238 0
M  V30 1979 N 193.631 -1.12557 1.10312 0
M  V30 1980 C 194.563 -2.17971 0.708625 0
M  V30 1981 C 195.576 -1.60806 -0.254027 0
M  V30 1982 O 196.765 -1.78458 -0.0386891 0
M  V30 1983 C 193.865 -3.38891 0.0248198 0
M  V30 1984 C 193.038 -4.25548 1.01132 0
M  V30 1985 C 192.097 -5.24972 0.35924 0
M  V30 1986 O 191.123 -5.60174 1.00965 0
M  V30 1987 N 192.325 -5.73747 -0.882847 0
M  V30 1988 H 195.09 -2.52427 1.61557 0
M  V30 1989 H 192.651 -1.27967 0.991771 0
M  V30 1990 H 194.643 -4.02485 -0.422852 0
M  V30 1991 H 193.213 -3.02596 -0.784514 0
M  V30 1992 H 192.433 -3.58589 1.6373 0
M  V30 1993 H 193.721 -4.80294 1.67914 0
M  V30 1994 H 193.119 -5.4731 -1.43065 0
M  V30 1995 H 191.676 -6.39234 -1.27369 0
M  V30 1996 N 195.109 -0.891671 -1.2995 0
M  V30 1997 C 196.355 -0.514261 -1.96171 0
M  V30 1998 C 196.688 0.935506 -1.70182 0
M  V30 1999 O 195.963 1.66204 -1.01028 0
M  V30 2000 C 196.246 -0.797719 -3.51153 0
M  V30 2001 C 196.099 -2.2986 -3.86632 0
M  V30 2002 C 197.418 -0.278749 -4.39216 0
M  V30 2003 H 194.537 -0.188314 -0.712535 0
M  V30 2004 H 197.179 -1.11689 -1.53706 0
M  V30 2005 H 195.329 -0.284826 -3.87455 0
M  V30 2006 H 197.001 -2.88042 -3.60319 0
M  V30 2007 H 195.244 -2.76257 -3.34462 0
M  V30 2008 H 195.915 -2.44753 -4.94773 0
M  V30 2009 H 198.391 -0.717825 -4.09862 0
M  V30 2010 H 197.267 -0.506353 -5.46559 0
M  V30 2011 H 197.528 0.820266 -4.34424 0
M  V30 2012 N 196.587 1.43421 -0.653314 0
M  V30 2013 C 197.812 2.06678 -0.172846 0
M  V30 2014 C 198.237 1.48648 1.15262 0
M  V30 2015 O 197.595 0.596457 1.71208 0
M  V30 2016 C 197.643 3.60474 -0.0953184 0
M  V30 2017 O 196.747 4.01487 0.942442 0
M  V30 2018 H 196.088 0.657181 -0.0949155 0
M  V30 2019 H 198.618 1.83925 -0.896265 0
M  V30 2020 H 198.628 4.07905 0.0879728 0
M  V30 2021 H 197.303 4.02088 -1.06291 0
M  V30 2022 H 195.88 3.65646 0.731932 0
M  V30 2023 N 198.065 0.39524 1.52563 0
M  V30 2024 C 198.995 -0.428384 2.29537 0
M  V30 2025 C 199.976 -1.05831 1.33169 0
M  V30 2026 O 201.161 -1.06995 1.62067 0
M  V30 2027 C 198.291 -1.55274 3.10656 0
M  V30 2028 C 197.245 -1.04855 4.14957 0
M  V30 2029 C 196.571 -2.26543 4.84337 0
M  V30 2030 C 197.871 -0.112324 5.22179 0
M  V30 2031 H 199.565 0.213867 2.98635 0
M  V30 2032 H 197.111 0.104298 1.43622 0
M  V30 2033 H 199.064 -2.1358 3.63265 0
M  V30 2034 H 197.788 -2.22266 2.39302 0
M  V30 2035 H 196.447 -0.487985 3.63338 0
M  V30 2036 H 196.095 -2.92059 4.09525 0
M  V30 2037 H 195.795 -1.93466 5.54837 0
M  V30 2038 H 197.319 -2.85481 5.39753 0
M  V30 2039 H 198.733 -0.603752 5.70112 0
M  V30 2040 H 197.13 0.128968 5.99961 0
M  V30 2041 H 198.2 0.837052 4.77621 0
M  V30 2042 N 199.544 -1.57102 0.125237 0
M  V30 2043 C 200.793 -1.94582 -0.531095 0
M  V30 2044 C 201.106 -1.01126 -1.6743 0
M  V30 2045 O 202.312 -1.28097 -2.39381 0
M  V30 2046 C 200.768 -3.45839 -0.996164 0
M  V30 2047 C 200.376 -4.47842 0.118926 0
M  V30 2048 C 202.12 -3.92227 -1.62352 0
M  V30 2049 C 200.027 -5.90284 -0.363192 0
M  V30 2050 H 198.957 -0.726391 -0.20217 0
M  V30 2051 H 201.608 -1.82339 0.206092 0
M  V30 2052 H 199.99 -3.53338 -1.78796 0
M  V30 2053 H 201.164 -4.52018 0.895358 0
M  V30 2054 H 199.479 -4.11243 0.653324 0
M  V30 2055 H 202.076 -4.96069 -1.99548 0
M  V30 2056 H 202.419 -3.32552 -2.50429 0
M  V30 2057 H 202.952 -3.87554 -0.897019 0
M  V30 2058 H 199.691 -6.53728 0.481679 0
M  V30 2059 H 199.211 -5.89515 -1.10597 0
M  V30 2060 H 200.89 -6.41752 -0.822377 0
M  V30 2061 N 201.022 0.148545 -1.56898 0
M  V30 2062 C 202.25 0.876389 -1.87422 0
M  V30 2063 C 202.665 1.74809 -0.713256 0
M  V30 2064 O 202.022 1.79725 0.317025 0
M  V30 2065 C 202.073 1.73438 -3.17178 0
M  V30 2066 O 201.794 0.897809 -4.28802 0
M  V30 2067 C 203.295 2.56993 -3.61205 0
M  V30 2068 H 200.515 0.253489 -0.621277 0
M  V30 2069 H 203.059 0.141798 -2.04008 0
M  V30 2070 H 201.214 2.42205 -3.0235 0
M  V30 2071 H 201.628 1.48672 -5.02988 0
M  V30 2072 H 203.102 3.12773 -4.54838 0
M  V30 2073 H 203.579 3.32958 -2.86419 0
M  V30 2074 H 204.185 1.9352 -3.78722 0
M  V30 2075 N 202.5 1.5196 0.417844 0
M  V30 2076 C 203.911 1.57851 0.997 0
M  V30 2077 C 204.262 0.413714 1.91789 0
M  V30 2078 O 203.387 -0.467057 2.113 0
M  V30 2079 C 203.982 2.86085 1.81496 0
M  V30 2080 C 202.541 2.94483 2.34428 0
M  V30 2081 C 201.688 2.52707 1.14169 0
M  V30 2082 H 204.639 1.57455 0.198392 0
M  V30 2083 H 204.66 2.70947 2.67148 0
M  V30 2084 H 204.172 3.70842 1.14446 0
M  V30 2085 H 202.273 2.142 3.04875 0
M  V30 2086 H 202.386 3.98546 2.65891 0
M  V30 2087 H 200.75 2.06353 1.49301 0
M  V30 2088 H 201.533 3.39828 0.486999 0
M  V30 2089 N 203.978 -0.674533 1.42435 0
M  V30 2090 C 204.926 -1.80934 1.46169 0
M  V30 2091 C 205.92 -1.66006 0.3374 0
M  V30 2092 O 207.126 -1.72611 0.510425 0
M  V30 2093 H 203.501 -0.596594 0.457798 0
M  V30 2094 H 205.472 -1.74903 2.41767 0
M  V30 2095 C 204.221 -3.19088 1.38123 0
M  V30 2096 H 203.544 -3.31203 2.23931 0
M  V30 2097 H 204.984 -3.9851 1.44797 0
M  V30 2098 C 203.443 -3.36763 0.0960517 0
M  V30 2099 O 203.973 -3.92581 -0.851073 0
M  V30 2100 N 202.179 -2.90597 0.0131186 0
M  V30 2101 H 201.726 -2.45359 0.784639 0
M  V30 2102 H 201.684 -3.028 -0.846133 0
M  V30 2103 N 205.456 -1.28612 -0.910864 0
M  V30 2104 C 206.386 -1.15326 -2.03032 0
M  V30 2105 C 207.367 -0.0502924 -1.70026 0
M  V30 2106 O 208.552 -0.227797 -1.92859 0
M  V30 2107 C 205.682 -0.817343 -3.37545 0
M  V30 2108 C 204.636 -1.8754 -3.84724 0
M  V30 2109 C 203.962 -1.39305 -5.16235 0
M  V30 2110 C 205.262 -3.28244 -4.06267 0
M  V30 2111 H 206.956 -2.08975 -2.14406 0
M  V30 2112 H 204.502 -1.00612 -1.03021 0
M  V30 2113 H 206.455 -0.711151 -4.15356 0
M  V30 2114 H 205.179 0.154846 -3.26233 0
M  V30 2115 H 203.838 -1.97079 -3.09121 0
M  V30 2116 H 203.486 -0.409846 -5.01328 0
M  V30 2117 H 203.186 -2.10057 -5.48771 0
M  V30 2118 H 204.71 -1.30014 -5.96598 0
M  V30 2119 H 206.124 -3.21611 -4.74594 0
M  V30 2120 H 204.521 -3.96855 -4.5014 0
M  V30 2121 H 205.591 -3.72048 -3.10979 0
M  V30 2122 N 206.934 1.1197 -1.10907 0
M  V30 2123 C 208.345 1.65114 -0.871446 0
M  V30 2124 C 208.696 1.86885 0.597353 0
M  V30 2125 O 207.821 1.59896 1.45816 0
M  V30 2126 C 208.416 2.99944 -1.5754 0
M  V30 2127 C 206.975 3.50018 -1.38435 0
M  V30 2128 C 206.122 2.24941 -1.62164 0
M  V30 2129 H 209.073 0.956851 -1.2661 0
M  V30 2130 H 209.094 3.66651 -1.01721 0
M  V30 2131 H 208.606 2.84067 -2.64438 0
M  V30 2132 H 206.707 3.71071 -0.337214 0
M  V30 2133 H 206.82 4.29165 -2.12965 0
M  V30 2134 H 205.184 2.3229 -1.04467 0
M  V30 2135 H 205.967 2.11612 -2.70324 0
M  V30 2136 N 208.412 0.89855 1.29475 0
M  V30 2137 C 209.322 0.379974 2.31502 0
M  V30 2138 C 210.338 -0.524695 1.659 0
M  V30 2139 O 211.514 -0.414551 1.97087 0
M  V30 2140 C 208.579 -0.385138 3.44554 0
M  V30 2141 C 207.64 0.550914 4.2575 0
M  V30 2142 C 206.873 -0.177778 5.33404 0
M  V30 2143 O 207.096 -1.40189 5.52904 0
M  V30 2144 O 206.03 0.479106 5.9999 0
M  V30 2145 H 209.856 1.22639 2.77837 0
M  V30 2146 H 207.441 0.662834 1.33891 0
M  V30 2147 H 209.323 -0.817841 4.13388 0
M  V30 2148 H 207.998 -1.20763 3.0033 0
M  V30 2149 H 206.905 1.03271 3.59564 0
M  V30 2150 H 208.238 1.33979 4.73614 0
M  V30 2151 N 209.89 -1.43072 0.660911 0
M  V30 2152 C 210.853 -2.29194 -0.0166406 0
M  V30 2153 C 211.853 -1.42609 -0.742912 0
M  V30 2154 O 213.043 -1.64155 -0.583004 0
M  V30 2155 C 210.175 -3.24831 -1.0343 0
M  V30 2156 H 211.368 -2.90596 0.741208 0
M  V30 2157 H 208.921 -1.5048 0.422532 0
M  V30 2158 H 209.656 -2.68339 -1.82111 0
M  V30 2159 H 209.441 -3.88676 -0.517082 0
M  V30 2160 H 210.931 -3.89451 -1.50723 0
M  V30 2161 N 211.368 -0.403325 -1.52352 0
M  V30 2162 C 212.331 0.413051 -2.25447 0
M  V30 2163 C 213.331 0.978513 -1.276 0
M  V30 2164 O 214.521 0.858305 -1.51587 0
M  V30 2165 C 211.653 1.58087 -3.02029 0
M  V30 2166 H 212.846 -0.227094 -2.99039 0
M  V30 2167 H 210.399 -0.155722 -1.55522 0
M  V30 2168 H 211.134 2.25804 -2.32772 0
M  V30 2169 H 210.919 1.18195 -3.73861 0
M  V30 2170 H 212.409 2.1585 -3.57489 0
M  V30 2171 N 212.846 1.57033 -0.133567 0
M  V30 2172 C 213.809 2.14897 0.796995 0
M  V30 2173 C 214.809 1.0874 1.18458 0
M  V30 2174 O 215.999 1.34446 1.1077 0
M  V30 2175 C 213.131 2.70112 2.07973 0
M  V30 2176 H 214.324 2.98457 0.293873 0
M  V30 2177 H 211.877 1.55871 0.115787 0
M  V30 2178 H 212.612 1.9018 2.62682 0
M  V30 2179 H 212.397 3.47764 1.81115 0
M  V30 2180 H 213.887 3.14738 2.74462 0
M  V30 2181 N 214.325 -0.140222 1.56975 0
M  V30 2182 C 215.255 -1.17456 2.01808 0
M  V30 2183 C 216.236 -1.44415 0.898794 0
M  V30 2184 O 217.421 -1.5522 1.16707 0
M  V30 2185 C 214.551 -2.50607 2.40444 0
M  V30 2186 C 213.505 -2.38155 3.55621 0
M  V30 2187 C 212.831 -3.76078 3.80091 0
M  V30 2188 C 214.131 -1.85991 4.88062 0
M  V30 2189 H 215.825 -0.801743 2.88466 0
M  V30 2190 H 213.371 -0.38422 1.38779 0
M  V30 2191 H 215.324 -3.23197 2.7041 0
M  V30 2192 H 214.048 -2.89737 1.50732 0
M  V30 2193 H 212.707 -1.68016 3.25832 0
M  V30 2194 H 212.355 -4.12656 2.87618 0
M  V30 2195 H 212.055 -3.68606 4.57606 0
M  V30 2196 H 213.579 -4.50206 4.12488 0
M  V30 2197 H 214.993 -2.4838 5.16701 0
M  V30 2198 H 213.39 -1.89393 5.6943 0
M  V30 2199 H 214.46 -0.816023 4.77984 0
M  V30 2200 N 215.803 -1.52179 -0.40978 0
M  V30 2201 C 216.733 -1.78435 -1.5061 0
M  V30 2202 C 217.714 -0.635295 -1.57791 0
M  V30 2203 O 218.899 -0.880823 -1.73076 0
M  V30 2204 C 216.029 -1.93444 -2.88439 0
M  V30 2205 C 214.983 -3.09038 -2.96108 0
M  V30 2206 C 214.309 -3.09268 -4.36185 0
M  V30 2207 C 215.609 -4.48508 -2.67652 0
M  V30 2208 H 217.303 -2.70237 -1.28889 0
M  V30 2209 H 214.849 -1.30036 -0.618605 0
M  V30 2210 H 216.802 -2.10394 -3.65119 0
M  V30 2211 H 215.526 -0.983129 -3.11452 0
M  V30 2212 H 214.185 -2.91837 -2.21872 0
M  V30 2213 H 213.833 -2.11861 -4.56206 0
M  V30 2214 H 213.533 -3.86907 -4.42241 0
M  V30 2215 H 215.057 -3.28348 -5.14801 0
M  V30 2216 H 216.471 -4.65918 -3.34056 0
M  V30 2217 H 214.868 -5.28059 -2.85085 0
M  V30 2218 H 215.938 -4.56649 -1.63095 0
M  V30 2219 N 217.281 0.66697 -1.42791 0
M  V30 2220 C 218.558 1.4234 -1.34159 0
M  V30 2221 C 218.938 2.11093 0.0172729 0
M  V30 2222 O 218.286 2.03808 1.03318 0
M  V30 2223 C 218.496 2.41942 -2.51526 0
M  V30 2224 C 219.844 3.06353 -2.93995 0
M  V30 2225 O 220.868 2.52269 -2.51473 0
M  V30 2226 O 219.727 4.04376 -3.67617 0
M  V30 2227 H 216.821 0.635277 -0.529483 0
M  V30 2228 H 219.367 0.695034 -1.54814 0
M  V30 2229 H 218.139 1.89991 -3.42081 0
M  V30 2230 H 217.762 3.22249 -2.32898 0
M  V30 2231 N 218.759 1.29093 0.90403 0
M  V30 2232 C 219.722 1.1386 1.98919 0
M  V30 2233 C 220.722 0.0753457 1.60623 0
M  V30 2234 O 221.912 0.321931 1.71199 0
M  V30 2235 C 219.044 0.740198 3.32767 0
M  V30 2236 H 220.237 2.10246 2.13861 0
M  V30 2237 H 217.79 1.12218 1.08797 0
M  V30 2238 H 218.525 -0.223997 3.23525 0
M  V30 2239 H 218.31 1.50838 3.61926 0
M  V30 2240 H 219.8 0.656546 4.12407 0
M  V30 2241 N 220.237 -1.11381 1.11499 0
M  V30 2242 C 221.648 -1.6465 0.880191 0
M  V30 2243 C 221.999 -1.87199 -0.587434 0
M  V30 2244 O 221.124 -1.60667 -1.44966 0
M  V30 2245 C 221.719 -2.99105 1.59128 0
M  V30 2246 C 220.278 -3.49279 1.40289 0
M  V30 2247 C 219.425 -2.24077 1.63354 0
M  V30 2248 H 222.376 -0.950123 1.27116 0
M  V30 2249 H 222.397 -3.66107 1.03664 0
M  V30 2250 H 221.909 -2.82661 2.65941 0
M  V30 2251 H 220.01 -3.70887 0.356888 0
M  V30 2252 H 220.123 -4.2803 2.15238 0
M  V30 2253 H 218.487 -2.31733 1.05698 0
M  V30 2254 H 219.27 -2.10175 2.71443 0
M  V30 2255 N 221.715 -0.905404 -1.28997 0
M  V30 2256 C 222.665 -0.358713 -2.25161 0
M  V30 2257 C 223.649 0.524449 -1.52113 0
M  V30 2258 O 224.841 0.365534 -1.73184 0
M  V30 2259 C 221.97 0.407609 -3.40872 0
M  V30 2260 C 221.056 -0.490797 -4.21251 0
M  V30 2261 N 221.447 -1.60061 -4.79806 0
M  V30 2262 C 219.745 -0.289636 -4.45059 0
M  V30 2263 C 220.446 -2.15757 -5.40207 0
M  V30 2264 N 219.422 -1.44988 -5.23908 0
M  V30 2265 H 223.224 -1.20642 -2.67998 0
M  V30 2266 H 220.738 -0.757103 -1.43672 0
M  V30 2267 H 222.735 0.816046 -4.08835 0
M  V30 2268 H 221.395 1.25251 -2.9957 0
M  V30 2269 H 222.406 -1.98329 -4.7842 0
M  V30 2270 H 219.083 0.51643 -4.14294 0
M  V30 2271 H 220.473 -3.09069 -5.96595 0
M  V30 2272 N 223.193 1.4272 -0.668489 0
M  V30 2273 C 224.156 2.292 0.00448567 0
M  V30 2274 C 225.156 1.43001 0.735339 0
M  V30 2275 O 226.346 1.64461 0.57429 0
M  V30 2276 C 223.478 3.25375 1.01705 0
M  V30 2277 H 224.671 2.90199 -0.756608 0
M  V30 2278 H 222.224 1.50254 -0.430506 0
M  V30 2279 H 222.959 2.69301 1.80686 0
M  V30 2280 H 222.744 3.88944 0.496463 0
M  V30 2281 H 224.234 3.90245 1.48655 0
M  V30 2282 N 224.671 0.411399 1.52136 0
M  V30 2283 C 226.087 0.0623865 1.59478 0
M  V30 2284 C 226.287 -1.42554 1.4241 0
M  V30 2285 O 225.343 -2.19263 1.2522 0
M  V30 2286 C 226.656 0.559331 2.95452 0
M  V30 2287 C 228.204 0.517503 3.08692 0
M  V30 2288 C 228.679 0.990994 4.4715 0
M  V30 2289 N 230.17 0.947908 4.53397 0
M  V30 2290 C 230.905 1.28544 5.58806 0
M  V30 2291 N 230.401 1.69454 6.71757 0
M  V30 2292 N 232.194 1.20526 5.49026 0
M  V30 2293 H 224.345 1.37982 1.61477 0
M  V30 2294 H 226.608 0.566977 0.759764 0
M  V30 2295 H 226.314 1.59938 3.1323 0
M  V30 2296 H 226.188 -0.0298014 3.77188 0
M  V30 2297 H 228.575 -0.513505 2.90598 0
M  V30 2298 H 228.656 1.14272 2.28857 0
M  V30 2299 H 228.3 2.02034 4.65988 0
M  V30 2300 H 228.23 0.34257 5.25485 0
M  V30 2301 H 230.721 0.647157 3.72317 0
M  V30 2302 H 231.034 1.93513 7.48179 0
M  V30 2303 H 229.379 1.73359 6.73032 0
M  V30 2304 H 232.57 0.884505 4.59667 0
M  V30 2305 H 232.743 1.47161 6.31069 0
M  V30 2306 N 226.149 -1.5696 0.141893 0
M  V30 2307 C 227.377 -2.00322 -0.517579 0
M  V30 2308 C 227.792 -1.02193 -1.58752 0
M  V30 2309 O 227.149 -0.0181619 -1.82491 0
M  V30 2310 C 227.2 -3.43618 -1.12289 0
M  V30 2311 O 226.921 -4.37995 -0.0956929 0
M  V30 2312 C 228.422 -4.02231 -1.86347 0
M  V30 2313 H 225.642 -0.657243 -0.135177 0
M  V30 2314 H 228.186 -2.03146 0.234973 0
M  V30 2315 H 226.341 -3.41662 -1.82609 0
M  V30 2316 H 226.755 -5.21729 -0.538469 0
M  V30 2317 H 228.229 -5.04509 -2.23997 0
M  V30 2318 H 228.706 -3.42655 -2.74744 0
M  V30 2319 H 229.312 -4.07802 -1.20737 0
M  V30 2320 N 227.627 0.131896 -1.57047 0
M  V30 2321 C 228.537 1.1815 -2.02676 0
M  V30 2322 C 229.553 1.46113 -0.944824 0
M  V30 2323 O 230.729 1.57485 -1.25541 0
M  V30 2324 C 227.794 2.49139 -2.41103 0
M  V30 2325 C 226.855 2.28688 -3.63318 0
M  V30 2326 C 226.088 3.53431 -3.99903 0
M  V30 2327 O 226.311 4.60223 -3.36973 0
M  V30 2328 O 225.245 3.45198 -4.93074 0
M  V30 2329 H 229.071 0.824069 -2.92306 0
M  V30 2330 H 226.656 0.341745 -1.45439 0
M  V30 2331 H 228.538 3.26338 -2.66611 0
M  V30 2332 H 227.213 2.84382 -1.54624 0
M  V30 2333 H 226.12 1.4939 -3.42977 0
M  V30 2334 H 227.453 1.98355 -4.50462 0
M  V30 2335 N 229.106 1.52395 0.401703 0
M  V30 2336 C 230.038 1.72505 1.50912 0
M  V30 2337 C 231.051 0.605468 1.51122 0
M  V30 2338 O 232.24 0.880828 1.55254 0
M  V30 2339 C 229.34 1.75711 2.89791 0
M  V30 2340 C 228.513 3.04824 3.1369 0
M  V30 2341 C 227.572 2.99743 4.32482 0
M  V30 2342 O 226.598 3.73635 4.29402 0
M  V30 2343 N 227.8 2.18047 5.37992 0
M  V30 2344 H 230.565 2.68049 1.34052 0
M  V30 2345 H 228.126 1.50724 0.591084 0
M  V30 2346 H 230.118 1.69834 3.6734 0
M  V30 2347 H 228.688 0.876092 3.00072 0
M  V30 2348 H 227.908 3.2429 2.24119 0
M  V30 2349 H 229.196 3.90221 3.26504 0
M  V30 2350 H 228.594 1.57456 5.43345 0
M  V30 2351 H 227.151 2.18021 6.14256 0
M  V30 2352 N 230.584 -0.659388 1.43143 0
M  V30 2353 C 231.494 -1.80167 1.50256 0
M  V30 2354 C 232.51 -1.69571 0.390106 0
M  V30 2355 O 233.686 -1.90849 0.643319 0
M  V30 2356 C 230.751 -3.16409 1.41725 0
M  V30 2357 C 229.812 -3.38848 2.63591 0
M  V30 2358 C 229.045 -4.68591 2.55458 0
M  V30 2359 O 229.268 -5.47532 1.59891 0
M  V30 2360 O 228.202 -4.92614 3.45854 0
M  V30 2361 H 232.028 -1.77121 2.46702 0
M  V30 2362 H 229.613 -0.817092 1.25076 0
M  V30 2363 H 231.495 -3.9768 1.39387 0
M  V30 2364 H 230.17 -3.20059 0.484118 0
M  V30 2365 H 229.077 -2.57366 2.71502 0
M  V30 2366 H 230.41 -3.4004 3.55856 0
M  V30 2367 N 232.062 -1.29571 -0.897171 0
M  V30 2368 C 232.995 -1.0924 -2.00354 0
M  V30 2369 C 233.973 -0.00354011 -1.626 0
M  V30 2370 O 235.157 -0.15473 -1.87864 0
M  V30 2371 C 232.284 -0.66352 -3.32137 0
M  V30 2372 C 231.33 -1.75146 -3.88878 0
M  V30 2373 S 232.163 -3.35124 -4.17674 0
M  V30 2374 C 233.319 -2.9411 -5.52494 0
M  V30 2375 H 233.552 -2.02907 -2.17292 0
M  V30 2376 H 231.085 -1.13746 -1.04408 0
M  V30 2377 H 233.043 -0.422791 -4.08317 0
M  V30 2378 H 231.704 0.253588 -3.13075 0
M  V30 2379 H 230.897 -1.40337 -4.84068 0
M  V30 2380 H 230.499 -1.94584 -3.19395 0
M  V30 2381 H 232.791 -2.41312 -6.33068 0
M  V30 2382 H 233.734 -3.88161 -5.9223 0
M  V30 2383 H 234.142 -2.32332 -5.14473 0
M  V30 2384 N 233.54 1.10788 -1.12088 0
M  V30 2385 C 234.47 2.19083 -0.807755 0
M  V30 2386 C 235.451 1.6858 0.226859 0
M  V30 2387 O 236.636 1.93997 0.0888475 0
M  V30 2388 C 233.766 3.46344 -0.257576 0
M  V30 2389 C 232.72 4.101 -1.22483 0
M  V30 2390 C 232.046 5.32016 -0.535052 0
M  V30 2391 C 233.346 4.54236 -2.57811 0
M  V30 2392 H 235.04 2.45534 -1.71328 0
M  V30 2393 H 232.586 1.1801 -0.825205 0
M  V30 2394 H 234.539 4.21392 -0.0262679 0
M  V30 2395 H 233.263 3.19373 0.683278 0
M  V30 2396 H 231.922 3.37054 -1.44189 0
M  V30 2397 H 231.57 5.01319 0.410827 0
M  V30 2398 H 231.27 5.75625 -1.18024 0
M  V30 2399 H 232.794 6.09799 -0.312695 0
M  V30 2400 H 234.208 5.20575 -2.40155 0
M  V30 2401 H 232.605 5.08682 -3.18375 0
M  V30 2402 H 233.675 3.6734 -3.16528 0
M  V30 2403 N 235.018 0.912232 1.28515 0
M  V30 2404 C 235.981 0.404223 2.25607 0
M  V30 2405 C 236.981 -0.468602 1.53821 0
M  V30 2406 O 238.171 -0.271873 1.72065 0
M  V30 2407 C 235.303 -0.420653 3.38295 0
M  V30 2408 H 236.496 1.26188 2.7206 0
M  V30 2409 H 234.049 0.691495 1.40171 0
M  V30 2410 H 234.784 -1.29777 2.97201 0
M  V30 2411 H 234.569 0.204935 3.91564 0
M  V30 2412 H 236.059 -0.766971 4.10496 0
M  V30 2413 N 236.496 -1.42363 0.676048 0
M  V30 2414 C 237.428 -2.29164 -0.0404605 0
M  V30 2415 C 238.441 -1.43747 -0.764245 0
M  V30 2416 O 239.63 -1.67453 -0.618195 0
M  V30 2417 C 236.73 -3.21196 -1.08103 0
M  V30 2418 C 235.903 -4.35273 -0.430812 0
M  V30 2419 C 234.962 -5.08017 -1.37133 0
M  V30 2420 O 233.988 -5.62494 -0.87116 0
M  V30 2421 N 235.19 -5.13647 -2.70456 0
M  V30 2422 H 237.955 -2.91298 0.704667 0
M  V30 2423 H 235.516 -1.53303 0.520559 0
M  V30 2424 H 237.508 -3.66728 -1.71152 0
M  V30 2425 H 236.078 -2.60505 -1.72788 0
M  V30 2426 H 235.298 -3.92372 0.379209 0
M  V30 2427 H 236.586 -5.08795 0.0221132 0
M  V30 2428 H 235.984 -4.708 -3.1363 0
M  V30 2429 H 234.541 -5.62821 -3.28749 0
M  V30 2430 N 237.974 -0.419461 -1.51915 0
M  V30 2431 C 239.222 0.152637 -2.01523 0
M  V30 2432 C 239.543 1.44762 -1.30649 0
M  V30 2433 O 238.813 1.90997 -0.435535 0
M  V30 2434 H 237.393 0.0593966 -0.744635 0
M  V30 2435 H 240.055 -0.558073 -1.86739 0
M  V30 2436 H 239.151 0.341369 -3.10227 0
M  V30 2437 N 239.452 1.56882 -0.150215 0
M  V30 2438 C 240.868 1.58263 0.20617 0
M  V30 2439 C 241.068 1.16464 1.64434 0
M  V30 2440 O 240.124 0.866422 2.3717 0
M  V30 2441 C 241.437 3.00649 -0.0555025 0
M  V30 2442 C 242.985 3.12999 0.00795388 0
M  V30 2443 C 243.46 4.5744 -0.226429 0
M  V30 2444 N 244.951 4.62875 -0.173469 0
M  V30 2445 C 245.686 5.72454 -0.329288 0
M  V30 2446 N 245.182 6.90669 -0.543005 0
M  V30 2447 N 246.975 5.61467 -0.266666 0
M  V30 2448 H 239.126 1.82345 -1.08922 0
M  V30 2449 H 241.389 0.844149 -0.431413 0
M  V30 2450 H 241.095 3.3563 -1.05096 0
M  V30 2451 H 240.969 3.71337 0.66246 0
M  V30 2452 H 243.356 2.77857 0.993966 0
M  V30 2453 H 243.437 2.4479 -0.742388 0
M  V30 2454 H 243.081 4.93287 -1.20956 0
M  V30 2455 H 243.011 5.2378 0.544274 0
M  V30 2456 H 245.502 3.77898 -0.0130709 0
M  V30 2457 H 245.815 7.70045 -0.651922 0
M  V30 2458 H 244.16 6.92581 -0.579366 0
M  V30 2459 H 247.351 4.67992 -0.100441 0
M  V30 2460 H 247.524 6.46816 -0.391535 0
M  V30 2461 N 240.93 -0.123565 1.57115 0
M  V30 2462 C 241.893 -1.13583 1.99076 0
M  V30 2463 C 242.893 -1.34564 0.880296 0
M  V30 2464 O 244.083 -1.31158 1.14644 0
M  V30 2465 C 241.215 -2.49128 2.32698 0
M  V30 2466 H 242.408 -0.775287 2.89706 0
M  V30 2467 H 239.961 -0.36771 1.51913 0
M  V30 2468 H 240.696 -2.90111 1.44934 0
M  V30 2469 H 240.481 -2.35255 3.13684 0
M  V30 2470 H 241.971 -3.2199 2.65918 0
M  V30 2471 N 242.408 -1.52605 -0.393616 0
M  V30 2472 C 243.338 -1.80022 -1.48709 0
M  V30 2473 C 244.319 -0.651995 -1.57108 0
M  V30 2474 O 245.504 -0.89913 -1.72132 0
M  V30 2475 C 242.634 -1.96492 -2.86371 0
M  V30 2476 C 241.588 -3.12161 -2.92813 0
M  V30 2477 C 240.914 -3.13877 -4.3288 0
M  V30 2478 C 242.214 -4.51322 -2.6288 0
M  V30 2479 H 243.908 -2.71589 -1.26015 0
M  V30 2480 H 241.454 -1.30684 -0.604778 0
M  V30 2481 H 243.407 -2.14255 -3.62867 0
M  V30 2482 H 242.131 -1.01611 -3.10391 0
M  V30 2483 H 240.79 -2.94173 -2.18764 0
M  V30 2484 H 240.438 -2.16687 -4.53933 0
M  V30 2485 H 240.138 -3.91576 -4.38112 0
M  V30 2486 H 241.662 -3.33789 -5.1129 0
M  V30 2487 H 243.076 -4.69435 -3.29096 0
M  V30 2488 H 241.473 -5.31053 -2.79468 0
M  V30 2489 H 242.543 -4.58353 -1.58242 0
M  V30 2490 N 243.887 0.651787 -1.4349 0
M  V30 2491 C 244.817 1.77621 -1.51569 0
M  V30 2492 C 245.798 1.66022 -0.370253 0
M  V30 2493 O 246.983 1.85095 -0.587658 0
M  V30 2494 C 244.113 3.16056 -1.43966 0
M  V30 2495 C 243.067 3.4242 -2.56774 0
M  V30 2496 C 242.393 4.8067 -2.34223 0
M  V30 2497 C 243.693 3.37023 -3.99015 0
M  V30 2498 H 245.387 1.71117 -2.45681 0
M  V30 2499 H 242.933 0.821825 -1.18246 0
M  V30 2500 H 244.886 3.94472 -1.48221 0
M  V30 2501 H 243.61 3.23293 -0.463586 0
M  V30 2502 H 242.269 2.66375 -2.51873 0
M  V30 2503 H 241.917 4.84585 -1.34856 0
M  V30 2504 H 241.617 4.9927 -3.09844 0
M  V30 2505 H 243.141 5.61342 -2.40265 0
M  V30 2506 H 244.555 4.05374 -4.05395 0
M  V30 2507 H 242.952 3.67159 -4.74673 0
M  V30 2508 H 244.022 2.3518 -4.2405 0
M  V30 2509 N 245.365 1.30045 0.890287 0
M  V30 2510 C 246.328 1.15963 1.977 0
M  V30 2511 C 247.328 0.0923777 1.60534 0
M  V30 2512 O 248.518 0.340071 1.70848 0
M  V30 2513 C 245.65 0.775451 3.31963 0
M  V30 2514 H 246.843 2.12502 2.11619 0
M  V30 2515 H 244.396 1.13366 1.07601 0
M  V30 2516 H 245.131 -0.189671 3.23745 0
M  V30 2517 H 244.916 1.54668 3.60306 0
M  V30 2518 H 246.406 0.700251 4.11687 0
M  V30 2519 N 246.843 -1.10192 1.12674 0
M  V30 2520 C 247.776 -2.15847 0.740625 0
M  V30 2521 C 248.754 -1.60352 -0.269421 0
M  V30 2522 O 249.938 -1.87796 -0.16278 0
M  V30 2523 C 247.065 -3.38562 0.096641 0
M  V30 2524 C 246.111 -4.12758 1.07391 0
M  V30 2525 S 246.944 -4.67997 2.60267 0
M  V30 2526 C 248.1 -5.94021 1.97206 0
M  V30 2527 H 248.333 -2.48266 1.63558 0
M  V30 2528 H 245.866 -1.22019 0.946087 0
M  V30 2529 H 247.824 -4.09621 -0.268535 0
M  V30 2530 H 246.485 -3.04377 -0.775462 0
M  V30 2531 H 245.678 -5.00755 0.570997 0
M  V30 2532 H 245.28 -3.47523 1.38216 0
M  V30 2533 H 247.572 -6.64589 1.31634 0
M  V30 2534 H 248.515 -6.48979 2.83253 0
M  V30 2535 H 248.923 -5.46169 1.42686 0
M  V30 2536 N 248.321 -0.919034 -1.28029 0
M  V30 2537 C 249.569 -0.553838 -1.94363 0
M  V30 2538 C 249.89 0.906357 -1.72656 0
M  V30 2539 O 249.16 1.64143 -1.0693 0
M  V30 2540 H 247.74 -0.201834 -0.719216 0
M  V30 2541 H 250.402 -1.16954 -1.55909 0
M  V30 2542 H 249.498 -0.752758 -3.02886 0
M  V30 2543 N 249.799 1.42003 -0.683588 0
M  V30 2544 C 251.039 2.03282 -0.213513 0
M  V30 2545 C 251.403 1.52924 1.16097 0
M  V30 2546 O 252.604 2.06048 1.7262 0
M  V30 2547 C 250.875 3.56483 -0.255856 0
M  V30 2548 S 252.434 4.3857 0.14193 0
M  V30 2549 H 249.252 0.705659 -0.0869853 0
M  V30 2550 H 251.854 1.73619 -0.8987 0
M  V30 2551 H 250.558 3.90631 -1.25841 0
M  V30 2552 H 250.089 3.90831 0.448875 0
M  V30 2553 H 252.104 4.76828 1.37295 0
M  V30 2554 N 251.277 0.427512 1.51691 0
M  V30 2555 C 252.187 -0.39527 2.31246 0
M  V30 2556 C 253.203 -1.03674 1.39742 0
M  V30 2557 O 254.379 -1.03425 1.72816 0
M  V30 2558 C 251.444 -1.48706 3.13189 0
M  V30 2559 C 250.505 -0.866743 4.20459 0
M  V30 2560 C 249.738 -1.90651 4.98486 0
M  V30 2561 O 249.961 -3.12733 4.77026 0
M  V30 2562 O 248.895 -1.5025 5.82845 0
M  V30 2563 H 252.721 0.253918 3.02637 0
M  V30 2564 H 250.306 0.190274 1.48183 0
M  V30 2565 H 252.188 -2.12047 3.64162 0
M  V30 2566 H 250.863 -2.12051 2.44573 0
M  V30 2567 H 249.77 -0.195544 3.73589 0
M  V30 2568 H 251.103 -0.276934 4.9142 0
M  V30 2569 N 252.755 -1.56801 0.158532 0
M  V30 2570 C 253.718 -2.16138 -0.762705 0
M  V30 2571 C 254.718 -1.1061 -1.16713 0
M  V30 2572 O 255.908 -1.36191 -1.08617 0
M  V30 2573 C 253.04 -2.73386 -2.03649 0
M  V30 2574 H 254.233 -2.98886 -0.246354 0
M  V30 2575 H 251.786 -1.56035 -0.0909744 0
M  V30 2576 H 252.521 -1.94335 -2.59623 0
M  V30 2577 H 252.306 -3.50601 -1.75559 0
M  V30 2578 H 253.796 -3.19065 -2.6942 0
M  V30 2579 N 254.233 0.115231 -1.57178 0
M  V30 2580 C 255.479 0.82357 -1.85325 0
M  V30 2581 C 255.812 1.79349 -0.744814 0
M  V30 2582 O 255.087 1.92899 0.249024 0
M  V30 2583 C 255.37 1.57014 -3.24066 0
M  V30 2584 C 255.223 0.619565 -4.45513 0
M  V30 2585 C 256.542 2.52545 -3.60429 0
M  V30 2586 H 253.661 0.297948 -0.674089 0
M  V30 2587 H 256.303 0.0877138 -1.89797 0
M  V30 2588 H 254.453 2.19742 -3.20383 0
M  V30 2589 H 256.125 0.000837639 -4.613 0
M  V30 2590 H 254.368 -0.0686174 -4.33746 0
M  V30 2591 H 255.039 1.17866 -5.3927 0
M  V30 2592 H 257.515 1.9992 -3.64926 0
M  V30 2593 H 256.391 3.01811 -4.58477 0
M  V30 2594 H 256.652 3.35383 -2.88047 0
M  V30 2595 N 255.711 1.52812 0.385517 0
M  V30 2596 C 256.641 1.80808 1.47752 0
M  V30 2597 C 257.622 0.660318 1.5676 0
M  V30 2598 O 258.807 0.908246 1.71652 0
M  V30 2599 C 255.937 1.98008 2.85324 0
M  V30 2600 C 254.891 3.13709 2.91154 0
M  V30 2601 C 254.217 3.16169 4.31209 0
M  V30 2602 C 255.517 4.52709 2.60483 0
M  V30 2603 H 257.211 2.72253 1.24573 0
M  V30 2604 H 254.757 1.31003 0.597839 0
M  V30 2605 H 256.71 2.16176 3.61726 0
M  V30 2606 H 255.434 1.03255 3.09848 0
M  V30 2607 H 254.093 2.95329 2.17201 0
M  V30 2608 H 253.741 2.19092 4.52778 0
M  V30 2609 H 253.441 3.93894 4.36029 0
M  V30 2610 H 254.965 3.36496 5.09512 0
M  V30 2611 H 256.379 4.71173 3.26602 0
M  V30 2612 H 254.776 5.32528 2.76648 0
M  V30 2613 H 255.846 4.59186 1.55809 0
M  V30 2614 N 257.189 -0.644168 1.43834 0
M  V30 2615 C 258.122 -1.76906 1.44151 0
M  V30 2616 C 259.1 -1.59774 0.301857 0
M  V30 2617 O 260.284 -1.81834 0.496841 0
M  V30 2618 C 257.411 -3.14321 1.26174 0
M  V30 2619 C 256.457 -3.50134 2.43533 0
M  V30 2620 S 257.29 -3.49085 4.06079 0
M  V30 2621 C 258.446 -4.89142 3.90501 0
M  V30 2622 H 258.679 -1.76368 2.39336 0
M  V30 2623 H 256.212 -0.817624 1.30974 0
M  V30 2624 H 258.17 -3.93625 1.16489 0
M  V30 2625 H 256.831 -3.12412 0.325224 0
M  V30 2626 H 256.024 -4.50095 2.26783 0
M  V30 2627 H 255.626 -2.78264 2.4989 0
M  V30 2628 H 257.918 -5.78036 3.53385 0
M  V30 2629 H 258.861 -5.10945 4.90246 0
M  V30 2630 H 259.269 -4.63102 3.22795 0
M  V30 2631 N 258.668 -1.30515 -0.883378 0
M  V30 2632 C 259.615 -1.17032 -1.98927 0
M  V30 2633 C 260.585 -0.0594241 -1.65994 0
M  V30 2634 O 261.77 -0.229895 -1.8941 0
M  V30 2635 C 258.91 -0.869777 -3.33959 0
M  V30 2636 C 258.023 -2.06271 -3.79574 0
M  V30 2637 C 257.158 -1.70011 -5.03259 0
M  V30 2638 C 256.197 -2.8579 -5.41286 0
M  V30 2639 N 255.334 -2.49816 -6.56153 0
M  V30 2640 H 260.174 -2.1164 -2.09792 0
M  V30 2641 H 257.711 -1.05296 -1.02719 0
M  V30 2642 H 259.669 -0.676138 -4.11685 0
M  V30 2643 H 258.299 0.0394332 -3.22776 0
M  V30 2644 H 257.351 -2.36755 -2.97744 0
M  V30 2645 H 258.663 -2.92971 -4.03694 0
M  V30 2646 H 257.817 -1.47032 -5.88614 0
M  V30 2647 H 256.556 -0.804829 -4.81013 0
M  V30 2648 H 255.561 -3.09434 -4.54456 0
M  V30 2649 H 256.786 -3.76008 -5.65504 0
M  V30 2650 H 254.732 -1.62795 -6.35479 0
M  V30 2651 H 254.649 -3.30048 -6.8015 0
M  V30 2652 H 255.917 -2.30197 -7.44735 0
M  V30 2653 N 260.146 1.09593 -1.13257 0
M  V30 2654 C 261.394 1.81375 -0.891492 0
M  V30 2655 C 261.715 1.86049 0.584009 0
M  V30 2656 O 260.985 1.34481 1.42449 0
M  V30 2657 H 259.565 0.671708 -0.326828 0
M  V30 2658 H 262.227 1.3256 -1.42877 0
M  V30 2659 H 261.323 2.84612 -1.28071 0
M  V30 2660 N 261.624 0.925811 1.2754 0
M  V30 2661 C 262.872 0.564138 1.94067 0
M  V30 2662 C 263.193 -0.897188 1.73134 0
M  V30 2663 O 262.463 -1.63573 1.07799 0
M  V30 2664 H 261.043 0.205645 0.718136 0
M  V30 2665 H 263.705 1.1778 1.55287 0
M  V30 2666 H 262.801 0.76881 3.02483 0
M  V30 2667 N 263.102 -1.41638 0.69111 0
M  V30 2668 C 264.052 -2.28 -0.000107832 0
M  V30 2669 C 265.036 -1.41964 -0.757304 0
M  V30 2670 O 266.228 -1.65274 -0.633532 0
M  V30 2671 C 263.357 -3.30209 -0.938983 0
M  V30 2672 C 262.443 -4.23725 -0.17827 0
M  V30 2673 N 262.834 -4.99017 0.825563 0
M  V30 2674 C 261.132 -4.44071 -0.414392 0
M  V30 2675 C 261.833 -5.67431 1.28052 0
M  V30 2676 N 260.809 -5.40197 0.607304 0
M  V30 2677 H 264.611 -2.83644 0.769617 0
M  V30 2678 H 262.125 -1.53797 0.521562 0
M  V30 2679 H 264.122 -3.90898 -1.44929 0
M  V30 2680 H 262.782 -2.76126 -1.70836 0
M  V30 2681 H 263.793 -5.03671 1.20566 0
M  V30 2682 H 260.47 -4.01004 -1.162 0
M  V30 2683 H 261.86 -6.37801 2.11327 0
M  V30 2684 N 264.58 -0.43555 -1.51462 0
M  V30 2685 C 265.51 0.367376 -2.30592 0
M  V30 2686 C 266.491 1.02263 -1.35928 0
M  V30 2687 O 267.676 1.02661 -1.64847 0
M  V30 2688 C 264.806 1.46983 -3.14664 0
M  V30 2689 C 263.76 0.938161 -4.17591 0
M  V30 2690 C 263.086 2.13622 -4.90173 0
M  V30 2691 C 264.386 -0.0261621 -5.22293 0
M  V30 2692 H 266.08 -0.292969 -2.97963 0
M  V30 2693 H 263.626 -0.14234 -1.43295 0
M  V30 2694 H 265.579 2.03873 -3.688 0
M  V30 2695 H 264.303 2.15843 -2.4511 0
M  V30 2696 H 262.962 0.391481 -3.64504 0
M  V30 2697 H 262.61 2.81098 -4.17124 0
M  V30 2698 H 262.31 1.78688 -5.59772 0
M  V30 2699 H 263.834 2.7107 -5.47132 0
M  V30 2700 H 265.248 0.452384 -5.71512 0
M  V30 2701 H 263.645 -0.287992 -5.99409 0
M  V30 2702 H 264.715 -0.963391 -4.75233 0
M  V30 2703 N 266.058 1.56714 -0.166846 0
M  V30 2704 C 266.968 2.21331 0.777791 0
M  V30 2705 C 267.984 1.20358 1.25658 0
M  V30 2706 O 269.16 1.53005 1.30964 0
M  V30 2707 C 266.225 2.83787 1.99163 0
M  V30 2708 C 265.286 3.99947 1.56016 0
M  V30 2709 C 264.519 4.59415 2.71613 0
M  V30 2710 O 264.742 4.17769 3.88362 0
M  V30 2711 O 263.676 5.49359 2.45945 0
M  V30 2712 H 267.502 3.02605 0.257636 0
M  V30 2713 H 265.087 1.49275 0.0611393 0
M  V30 2714 H 266.969 3.23405 2.70161 0
M  V30 2715 H 265.644 2.05513 2.50092 0
M  V30 2716 H 264.551 3.65007 0.819809 0
M  V30 2717 H 265.884 4.79801 1.09782 0
M  V30 2718 N 267.536 -0.106894 1.57237 0
M  V30 2719 C 268.813 -0.843526 1.76477 0
M  V30 2720 C 269.193 -1.97499 0.745464 0
M  V30 2721 O 268.541 -2.27357 -0.228306 0
M  V30 2722 C 268.751 -1.34903 3.21873 0
M  V30 2723 C 270.099 -1.79654 3.8472 0
M  V30 2724 O 271.123 -1.44554 3.2555 0
M  V30 2725 O 269.982 -2.44515 4.88748 0
M  V30 2726 H 267.076 -0.401468 0.723016 0
M  V30 2727 H 269.622 -0.0896927 1.69463 0
M  V30 2728 H 268.394 -0.53781 3.87586 0
M  V30 2729 H 268.017 -2.16522 3.33473 0
M  V30 2730 N 269.014 -1.53014 -0.377408 0
M  V30 2731 C 269.977 -1.77957 -1.44444 0
M  V30 2732 C 270.977 -0.649763 -1.47087 0
M  V30 2733 O 272.167 -0.917897 -1.48055 0
M  V30 2734 C 269.299 -1.89089 -2.83651 0
M  V30 2735 H 270.492 -2.73243 -1.23606 0
M  V30 2736 H 268.045 -1.43912 -0.609844 0
M  V30 2737 H 268.78 -0.958293 -3.09818 0
M  V30 2738 H 268.565 -2.71254 -2.83132 0
M  V30 2739 H 270.055 -2.1002 -3.60945 0
M  V30 2740 N 270.492 0.636531 -1.44174 0
M  V30 2741 C 271.424 1.7618 -1.46606 0
M  V30 2742 C 272.437 1.58768 -0.360091 0
M  V30 2743 O 273.626 1.67181 -0.625518 0
M  V30 2744 C 270.726 3.13833 -1.27915 0
M  V30 2745 C 269.899 3.57753 -2.51658 0
M  V30 2746 C 268.958 4.74265 -2.27945 0
M  V30 2747 O 267.984 4.82852 -3.01401 0
M  V30 2748 N 269.186 5.65604 -1.30662 0
M  V30 2749 H 271.951 1.74567 -2.43612 0
M  V30 2750 H 269.512 0.820924 -1.39544 0
M  V30 2751 H 271.504 3.8949 -1.09907 0
M  V30 2752 H 270.074 3.10121 -0.39293 0
M  V30 2753 H 269.294 2.72362 -2.84978 0
M  V30 2754 H 270.582 3.83847 -3.33974 0
M  V30 2755 H 269.98 5.61354 -0.699844 0
M  V30 2756 H 268.537 6.40913 -1.18634 0
M  V30 2757 N 271.97 1.30982 0.876444 0
M  V30 2758 C 273.195 1.23373 1.66715 0
M  V30 2759 C 273.62 -0.19885 1.87046 0
M  V30 2760 O 272.978 -1.1427 1.40756 0
M  V30 2761 C 273.026 1.97644 3.01611 0
M  V30 2762 O 272.13 1.30935 3.91062 0
M  V30 2763 H 271.471 0.426279 0.509099 0
M  V30 2764 H 274.001 1.72944 1.09323 0
M  V30 2765 H 274.011 2.06992 3.51594 0
M  V30 2766 H 272.686 3.01829 2.86133 0
M  V30 2767 H 271.263 1.29996 3.49507 0
M  V30 2768 N 273.449 -1.08991 1.13837 0
M  V30 2769 C 274.86 -1.62746 0.914917 0
M  V30 2770 C 275.211 -1.88403 -0.547594 0
M  V30 2771 O 274.336 -1.63706 -1.41525 0
M  V30 2772 C 274.931 -2.95662 1.65437 0
M  V30 2773 C 273.49 -3.46225 1.47666 0
M  V30 2774 C 272.637 -2.20562 1.6807 0
M  V30 2775 H 275.588 -0.922946 1.29102 0
M  V30 2776 H 275.609 -3.63825 1.11407 0
M  V30 2777 H 275.121 -2.76956 2.71877 0
M  V30 2778 H 273.222 -3.70046 0.435478 0
M  V30 2779 H 273.335 -4.23368 2.24268 0
M  V30 2780 H 271.699 -2.29439 1.10589 0
M  V30 2781 H 272.482 -2.0437 2.7584 0
M  V30 2782 N 274.927 -0.932562 -1.27047 0
M  V30 2783 C 276.204 -0.49377 -1.89265 0
M  V30 2784 C 276.584 1.02833 -1.8436 0
M  V30 2785 O 275.932 1.88461 -1.29209 0
M  V30 2786 C 276.142 -1.04536 -3.32976 0
M  V30 2787 C 277.49 -1.10879 -4.09867 0
M  V30 2788 O 278.514 -0.995327 -3.42011 0
M  V30 2789 O 277.373 -1.28417 -5.31198 0
M  V30 2790 H 274.467 -0.159596 -0.811454 0
M  V30 2791 H 277.013 -1.02457 -1.3528 0
M  V30 2792 H 275.785 -2.08913 -3.30864 0
M  V30 2793 H 275.408 -0.496494 -3.94488 0
M  V30 2794 N 276.405 1.4127 -0.698611 0
M  V30 2795 C 277.651 2.01979 -0.239972 0
M  V30 2796 C 278.006 1.54353 1.14861 0
M  V30 2797 O 277.299 0.746218 1.76471 0
M  V30 2798 C 277.493 3.56592 -0.240192 0
M  V30 2799 C 277.322 4.19226 -1.62726 0
M  V30 2800 C 276.092 4.53389 -2.23084 0
M  V30 2801 C 278.29 4.45228 -2.57443 0
M  V30 2802 N 276.272 5.01327 -3.54323 0
M  V30 2803 C 277.643 4.94973 -3.73365 0
M  V30 2804 C 279.698 4.27243 -2.55671 0
M  V30 2805 C 278.401 5.28624 -4.878 0
M  V30 2806 C 280.427 4.61985 -3.69221 0
M  V30 2807 C 279.789 5.11904 -4.83873 0
M  V30 2808 H 275.888 0.770561 -0.133269 0
M  V30 2809 H 278.472 1.71767 -0.916748 0
M  V30 2810 H 276.643 3.86271 0.406082 0
M  V30 2811 H 278.375 4.04025 0.23356 0
M  V30 2812 H 275.13 4.39946 -1.75341 0
M  V30 2813 H 275.554 5.29697 -4.21604 0
M  V30 2814 H 280.196 3.87884 -1.68243 0
M  V30 2815 H 277.914 5.66905 -5.75885 0
M  V30 2816 H 281.5 4.49725 -3.69105 0
M  V30 2817 H 280.38 5.38282 -5.70282 0
M  V30 2818 N 277.883 0.443576 1.51229 0
M  V30 2819 C 278.813 -0.355142 2.30783 0
M  V30 2820 C 279.794 -1.0154 1.36468 0
M  V30 2821 O 280.979 -1.01785 1.65389 0
M  V30 2822 C 278.109 -1.45312 3.15439 0
M  V30 2823 C 277.063 -0.916002 4.18083 0
M  V30 2824 C 276.389 -2.1102 4.91299 0
M  V30 2825 C 277.689 0.0538602 5.22272 0
M  V30 2826 H 279.383 0.308767 2.97804 0
M  V30 2827 H 276.929 0.149937 1.43217 0
M  V30 2828 H 278.882 -2.01914 3.69876 0
M  V30 2829 H 277.606 -2.14541 2.46252 0
M  V30 2830 H 276.265 -0.372145 3.64706 0
M  V30 2831 H 275.913 -2.78882 4.18609 0
M  V30 2832 H 275.613 -1.75717 5.60712 0
M  V30 2833 H 277.137 -2.68164 5.48562 0
M  V30 2834 H 278.551 -0.422069 5.71744 0
M  V30 2835 H 276.948 0.319776 5.99247 0
M  V30 2836 H 278.018 0.98858 4.74716 0
M  V30 2837 N 279.361 -1.56624 0.175154 0
M  V30 2838 C 280.608 -1.96999 -0.468811 0
M  V30 2839 C 280.936 -1.06129 -1.62994 0
M  V30 2840 O 280.191 -0.0961771 -1.95464 0
M  V30 2841 C 280.49 -3.43419 -0.989864 0
M  V30 2842 C 280.156 -4.50866 0.0557687 0
M  V30 2843 C 278.818 -4.79975 0.343134 0
M  V30 2844 C 281.17 -5.15551 0.765308 0
M  V30 2845 C 278.498 -5.71066 1.34536 0
M  V30 2846 C 280.85 -6.07724 1.75654 0
M  V30 2847 C 279.514 -6.35199 2.05132 0
M  V30 2848 H 278.784 -0.720869 -0.17155 0
M  V30 2849 H 281.431 -1.89616 0.267924 0
M  V30 2850 H 279.736 -3.47772 -1.80449 0
M  V30 2851 H 281.433 -3.72002 -1.49719 0
M  V30 2852 H 278.023 -4.28229 -0.178381 0
M  V30 2853 H 282.207 -4.9317 0.556513 0
M  V30 2854 H 277.463 -5.90635 1.57988 0
M  V30 2855 H 281.637 -6.56912 2.31169 0
M  V30 2856 H 279.264 -7.05584 2.8294 0
M  V30 2857 N 280.839 0.0985539 -1.57292 0
M  V30 2858 C 282.067 0.816318 -1.90115 0
M  V30 2859 C 282.482 1.72451 -0.768509 0
M  V30 2860 O 281.839 1.80643 0.259687 0
M  V30 2861 C 281.89 1.63259 -3.22535 0
M  V30 2862 O 281.611 0.760934 -4.31441 0
M  V30 2863 C 283.112 2.45372 -3.69199 0
M  V30 2864 H 280.332 0.233595 -0.629027 0
M  V30 2865 H 282.876 0.0768229 -2.04356 0
M  V30 2866 H 281.031 2.32463 -3.09903 0
M  V30 2867 H 281.445 1.32595 -5.07463 0
M  V30 2868 H 282.919 2.98144 -4.64558 0
M  V30 2869 H 283.396 3.23677 -2.96867 0
M  V30 2870 H 284.002 1.81373 -3.84687 0
M  V30 2871 N 282.317 1.53212 0.369288 0
M  V30 2872 C 283.733 1.42902 0.710712 0
M  V30 2873 C 283.933 0.565135 1.93413 0
M  V30 2874 O 282.989 0.0461484 2.52458 0
M  V30 2875 C 284.302 2.86042 0.927382 0
M  V30 2876 C 285.85 2.9565 1.02762 0
M  V30 2877 C 286.325 4.39843 1.27679 0
M  V30 2878 N 287.816 4.43256 1.34457 0
M  V30 2879 C 288.551 5.51929 1.55439 0
M  V30 2880 N 288.047 6.70655 1.73762 0
M  V30 2881 N 289.84 5.39502 1.57779 0
M  V30 2882 H 281.991 2.07888 -0.435457 0
M  V30 2883 H 284.254 0.938661 -0.132739 0
M  V30 2884 H 283.96 3.51557 0.100287 0
M  V30 2885 H 283.834 3.29472 1.83653 0
M  V30 2886 H 286.221 2.30291 1.84527 0
M  V30 2887 H 286.302 2.5562 0.0959504 0
M  V30 2888 H 285.946 5.05774 0.464175 0
M  V30 2889 H 285.876 4.77443 2.22162 0
M  V30 2890 H 288.367 3.5769 1.21926 0
M  V30 2891 H 288.68 7.49248 1.89335 0
M  V30 2892 H 287.025 6.73648 1.70948 0
M  V30 2893 H 290.216 4.45713 1.43029 0
M  V30 2894 H 290.389 6.2426 1.7379 0
M  V30 2895 N 283.795 -0.628877 1.44509 0
M  V30 2896 C 284.705 -1.7694 1.54044 0
M  V30 2897 C 285.721 -1.68705 0.425987 0
M  V30 2898 O 286.897 -1.89442 0.683656 0
M  V30 2899 C 283.962 -3.13332 1.48405 0
M  V30 2900 C 283.023 -3.33181 2.70719 0
M  V30 2901 C 282.256 -4.63067 2.6534 0
M  V30 2902 O 282.479 -5.44017 1.71469 0
M  V30 2903 O 281.413 -4.85167 3.56226 0
M  V30 2904 H 285.239 -1.71848 2.50403 0
M  V30 2905 H 282.824 -0.790378 1.26781 0
M  V30 2906 H 284.706 -3.94634 1.47791 0
M  V30 2907 H 283.381 -3.1896 0.551898 0
M  V30 2908 H 282.288 -2.51549 2.769 0
M  V30 2909 H 283.621 -3.32416 3.62988 0
M  V30 2910 N 285.273 -1.31445 -0.869486 0
M  V30 2911 C 286.521 -1.20918 -1.61936 0
M  V30 2912 C 286.842 0.232683 -1.93607 0
M  V30 2913 O 286.112 1.15352 -1.58338 0
M  V30 2914 H 284.692 -0.44454 -0.600328 0
M  V30 2915 H 287.354 -1.64776 -1.0409 0
M  V30 2916 H 286.45 -1.78124 -2.56278 0
M  V30 2917 N 286.751 1.08385 -1.14413 0
M  V30 2918 C 287.661 2.18856 -0.844951 0
M  V30 2919 C 288.677 1.73121 0.174668 0
M  V30 2920 O 289.853 2.014 0.00312857 0
M  V30 2921 C 286.918 3.45155 -0.32696 0
M  V30 2922 C 285.979 4.05513 -1.40916 0
M  V30 2923 C 285.212 5.25784 -0.915793 0
M  V30 2924 O 285.435 5.69884 0.242651 0
M  V30 2925 O 284.369 5.77545 -1.69487 0
M  V30 2926 H 288.195 2.46919 -1.76818 0
M  V30 2927 H 285.78 1.17524 -0.922411 0
M  V30 2928 H 287.662 4.21377 -0.0440211 0
M  V30 2929 H 286.337 3.18668 0.568539 0
M  V30 2930 H 285.244 3.30879 -1.74556 0
M  V30 2931 H 286.577 4.3625 -2.27919 0
M  V30 2932 N 288.23 0.939286 1.26551 0
M  V30 2933 C 289.162 0.404704 2.25599 0
M  V30 2934 C 290.175 -0.470983 1.55838 0
M  V30 2935 O 291.364 -0.281734 1.76263 0
M  V30 2936 C 288.464 -0.43764 3.36062 0
M  V30 2937 C 287.637 0.421449 4.35365 0
M  V30 2938 C 286.696 -0.36015 5.24966 0
M  V30 2939 O 285.722 0.236167 5.6871 0
M  V30 2940 N 286.924 -1.65715 5.56344 0
M  V30 2941 H 289.689 1.25618 2.72103 0
M  V30 2942 H 287.25 0.807963 1.40298 0
M  V30 2943 H 289.242 -0.967866 3.92956 0
M  V30 2944 H 287.812 -1.18991 2.89067 0
M  V30 2945 H 287.032 1.1329 3.7757 0
M  V30 2946 H 288.32 1.00835 4.98708 0
M  V30 2947 H 287.718 -2.16378 5.22682 0
M  V30 2948 H 286.275 -2.13366 6.15888 0
M  V30 2949 N 289.708 -1.40897 0.706093 0
M  V30 2950 C 291.124 -1.55042 0.37869 0
M  V30 2951 C 291.324 -1.67944 -1.11342 0
M  V30 2952 O 290.38 -1.66372 -1.89938 0
M  V30 2953 C 291.693 -2.78398 1.13643 0
M  V30 2954 C 293.241 -2.92206 1.12181 0
M  V30 2955 C 293.716 -4.18463 1.86152 0
M  V30 2956 N 295.207 -4.25443 1.83173 0
M  V30 2957 C 295.942 -5.2202 2.37239 0
M  V30 2958 N 295.438 -6.24563 2.99821 0
M  V30 2959 N 297.231 -5.14033 2.27435 0
M  V30 2960 H 289.382 -1.30769 1.67372 0
M  V30 2961 H 291.645 -0.631653 0.706907 0
M  V30 2962 H 291.351 -2.7511 2.19106 0
M  V30 2963 H 291.225 -3.70228 0.721853 0
M  V30 2964 H 293.612 -2.95004 0.0754171 0
M  V30 2965 H 293.693 -2.01521 1.57554 0
M  V30 2966 H 293.337 -4.16427 2.90776 0
M  V30 2967 H 293.267 -5.08141 1.38206 0
M  V30 2968 H 295.758 -3.51976 1.37556 0
M  V30 2969 H 296.071 -6.94665 3.38616 0
M  V30 2970 H 294.416 -6.25035 3.03902 0
M  V30 2971 H 297.607 -4.3285 1.78208 0
M  V30 2972 H 297.78 -5.89129 2.69873 0
M  V30 2973 N 291.186 -0.45159 -1.50991 0
M  V30 2974 C 292.433 0.110074 -2.02201 0
M  V30 2975 C 292.761 1.4146 -1.33489 0
M  V30 2976 O 292.016 1.90617 -0.443125 0
M  V30 2977 C 292.315 0.361728 -3.55565 0
M  V30 2978 C 291.981 -0.858717 -4.42648 0
M  V30 2979 C 290.643 -1.19338 -4.66167 0
M  V30 2980 C 292.995 -1.67221 -4.93646 0
M  V30 2981 C 290.323 -2.34195 -5.37931 0
M  V30 2982 C 292.675 -2.8119 -5.6667 0
M  V30 2983 C 291.339 -3.15094 -5.88449 0
M  V30 2984 H 290.609 0.040279 -0.739904 0
M  V30 2985 H 293.256 -0.601696 -1.81802 0
M  V30 2986 H 291.561 1.15554 -3.74372 0
M  V30 2987 H 293.258 0.80996 -3.92735 0
M  V30 2988 H 289.848 -0.58796 -4.24548 0
M  V30 2989 H 294.032 -1.42686 -4.75347 0
M  V30 2990 H 289.288 -2.6076 -5.53005 0
M  V30 2991 H 293.462 -3.44585 -6.05173 0
M  V30 2992 H 291.089 -4.04204 -6.43835 0
M  V30 2993 N 292.664 1.56529 -0.183458 0
M  V30 2994 C 293.889 2.02064 0.467428 0
M  V30 2995 C 294.314 1.06282 1.55196 0
M  V30 2996 O 293.672 0.0443565 1.81246 0
M  V30 2997 C 293.72 3.46122 1.01153 0
M  V30 2998 O 292.824 3.53437 2.12499 0
M  V30 2999 H 292.165 0.654726 0.110588 0
M  V30 3000 H 294.695 2.02521 -0.290917 0
M  V30 3001 H 294.705 3.85676 1.33108 0
M  V30 3002 H 293.38 4.15331 0.217533 0
M  V30 3003 H 291.957 3.2575 1.81497 0
M  V30 3004 N 294.142 -0.090211 1.57342 0
M  V30 3005 C 295.105 -1.09335 2.01441 0
M  V30 3006 C 296.105 -1.32666 0.908641 0
M  V30 3007 O 297.295 -1.28697 1.174 0
M  V30 3008 C 294.427 -2.44136 2.3793 0
M  V30 3009 H 295.62 -0.713662 2.91285 0
M  V30 3010 H 293.173 -0.335404 1.52659 0
M  V30 3011 H 293.908 -2.86972 1.51055 0
M  V30 3012 H 293.693 -2.28548 3.18603 0
M  V30 3013 H 295.183 -3.16277 2.72688 0
M  V30 3014 N 295.62 -1.53406 -0.361157 0
M  V30 3015 C 297.031 -1.61442 -0.937728 0
M  V30 3016 C 297.382 -0.48461 -1.90121 0
M  V30 3017 O 296.507 0.388312 -2.12888 0
M  V30 3018 C 297.102 -2.92624 -1.70753 0
M  V30 3019 C 295.661 -3.02981 -2.23337 0
M  V30 3020 C 294.808 -2.5677 -1.04712 0
M  V30 3021 H 297.759 -1.58083 -0.139816 0
M  V30 3022 H 297.78 -2.80675 -2.56908 0
M  V30 3023 H 297.292 -3.74834 -1.00604 0
M  V30 3024 H 295.393 -2.25368 -2.96715 0
M  V30 3025 H 295.506 -4.0814 -2.50916 0
M  V30 3026 H 293.87 -2.11752 -1.41539 0
M  V30 3027 H 294.653 -3.41402 -0.360539 0
M  V30 3028 N 297.098 0.621204 -1.44841 0
M  V30 3029 C 298.514 0.94048 -1.28946 0
M  V30 3030 C 298.714 2.00154 -0.23249 0
M  V30 3031 O 297.77 2.49651 0.378237 0
M  V30 3032 C 299.083 1.39433 -2.66419 0
M  V30 3033 C 300.631 1.50927 -2.74208 0
M  V30 3034 C 301.106 1.99692 -4.12174 0
M  V30 3035 N 302.597 2.06947 -4.144 0
M  V30 3036 C 303.332 2.45871 -5.1801 0
M  V30 3037 N 302.828 2.83862 -6.31977 0
M  V30 3038 N 304.621 2.46092 -5.05366 0
M  V30 3039 H 296.772 -0.0803548 -2.12248 0
M  V30 3040 H 299.035 0.0266913 -0.947624 0
M  V30 3041 H 298.741 0.688925 -3.44887 0
M  V30 3042 H 298.615 2.36347 -2.93973 0
M  V30 3043 H 301.002 2.20561 -1.96053 0
M  V30 3044 H 301.083 0.523627 -2.50383 0
M  V30 3045 H 300.727 1.30649 -4.90809 0
M  V30 3046 H 300.657 2.99146 -4.33381 0
M  V30 3047 H 303.148 1.80232 -3.32152 0
M  V30 3048 H 303.461 3.12405 -7.0684 0
M  V30 3049 H 301.806 2.8159 -6.35399 0
M  V30 3050 H 304.997 2.1581 -4.15384 0
M  V30 3051 H 305.17 2.76102 -5.86235 0
M  V30 3052 N 298.576 1.31904 0.862503 0
M  V30 3053 C 299.822 1.22197 1.61851 0
M  V30 3054 C 300.155 -0.217641 1.92977 0
M  V30 3055 O 299.43 -1.15264 1.56666 0
M  V30 3056 C 299.713 2.07378 2.94391 0
M  V30 3057 C 299.566 3.59678 2.70096 0
M  V30 3058 C 300.885 1.92891 3.95577 0
M  V30 3059 H 298.004 0.445255 0.587296 0
M  V30 3060 H 300.646 1.6177 0.99651 0
M  V30 3061 H 298.796 1.73758 3.47477 0
M  V30 3062 H 300.468 4.03472 2.23625 0
M  V30 3063 H 298.711 3.82735 2.04197 0
M  V30 3064 H 299.382 4.14595 3.64438 0
M  V30 3065 H 301.858 2.22327 3.51724 0
M  V30 3066 H 300.734 2.54781 4.86187 0
M  V30 3067 H 300.995 0.894315 4.3296 0
M  V30 3068 N 300.054 -1.07777 1.14986 0
M  V30 3069 C 301.002 -2.16964 0.838406 0
M  V30 3070 C 301.996 -1.68372 -0.186386 0
M  V30 3071 O 303.202 -1.79951 -0.0418465 0
M  V30 3072 H 299.577 -0.708006 0.253439 0
M  V30 3073 H 301.548 -2.40454 1.76704 0
M  V30 3074 C 300.297 -3.4604 0.339335 0
M  V30 3075 H 299.62 -3.83813 1.11927 0
M  V30 3076 H 301.06 -4.23698 0.160021 0
M  V30 3077 C 299.519 -3.23569 -0.938325 0
M  V30 3078 O 300.049 -3.47752 -2.01077 0
M  V30 3079 N 298.255 -2.77079 -0.876117 0
M  V30 3080 H 297.802 -2.576 -0.00322037 0
M  V30 3081 H 297.76 -2.62422 -1.73153 0
M  V30 3082 N 301.532 -0.945985 -1.26051 0
M  V30 3083 C 302.76 -0.613025 -1.9761 0
M  V30 3084 C 303.175 0.813035 -1.70397 0
M  V30 3085 O 302.532 1.54274 -0.974979 0
M  V30 3086 C 302.583 -0.85159 -3.51326 0
M  V30 3087 O 302.304 -2.22157 -3.77595 0
M  V30 3088 C 303.805 -0.529831 -4.40122 0
M  V30 3089 H 301.025 -0.230593 -0.630133 0
M  V30 3090 H 303.569 -1.268 -1.60443 0
M  V30 3091 H 301.724 -0.243151 -3.86636 0
M  V30 3092 H 302.138 -2.2852 -4.721 0
M  V30 3093 H 303.612 -0.747348 -5.46917 0
M  V30 3094 H 304.089 0.535341 -4.35925 0
M  V30 3095 H 304.695 -1.11721 -4.10364 0
M  V30 3096 N 303.011 1.40521 -0.713556 0
M  V30 3097 C 303.958 2.30723 -0.059684 0
M  V30 3098 C 304.928 1.48079 0.752448 0
M  V30 3099 O 306.113 1.76823 0.71681 0
M  V30 3100 C 303.253 3.34274 0.857594 0
M  V30 3101 C 302.366 4.31986 0.0351536 0
M  V30 3102 C 301.501 5.22605 0.951724 0
M  V30 3103 C 300.54 6.11976 0.123253 0
M  V30 3104 N 299.677 6.9502 0.99459 0
M  V30 3105 H 304.517 2.86074 -0.834596 0
M  V30 3106 H 302.054 1.40879 -0.42326 0
M  V30 3107 H 304.012 3.92879 1.40364 0
M  V30 3108 H 302.642 2.8043 1.59871 0
M  V30 3109 H 301.694 3.7518 -0.628052 0
M  V30 3110 H 303.006 4.95101 -0.606347 0
M  V30 3111 H 302.16 5.86131 1.56638 0
M  V30 3112 H 300.899 4.59759 1.62705 0
M  V30 3113 H 299.904 5.47482 -0.50435 0
M  V30 3114 H 301.129 6.76881 -0.548539 0
M  V30 3115 H 299.075 6.34764 1.6556 0
M  V30 3116 H 298.992 7.54892 0.40908 0
M  V30 3117 H 300.26 7.62997 1.59549 0
M  V30 3118 N 304.489 0.459591 1.5075 0
M  V30 3119 C 305.437 -0.354678 2.2988 0
M  V30 3120 C 306.431 -1.00086 1.36672 0
M  V30 3121 O 307.637 -0.933277 1.53915 0
M  V30 3122 H 304.012 -0.13321 0.740107 0
M  V30 3123 H 305.983 0.333269 2.96533 0
M  V30 3124 C 304.732 -1.43073 3.169 0
M  V30 3125 H 304.055 -0.942882 3.88523 0
M  V30 3126 H 305.495 -1.97328 3.75284 0
M  V30 3127 C 303.954 -2.42633 2.33732 0
M  V30 3128 O 304.484 -3.47658 2.01238 0
M  V30 3129 N 302.69 -2.14066 1.9653 0
M  V30 3130 H 302.237 -1.28685 2.23155 0
M  V30 3131 H 302.195 -2.80917 1.41185 0
M  V30 3132 N 305.967 -1.56429 0.191757 0
M  V30 3133 C 307.195 -2.01867 -0.453586 0
M  V30 3134 C 307.61 -1.07191 -1.5542 0
M  V30 3135 O 306.967 -0.0762108 -1.82341 0
M  V30 3136 C 307.018 -3.47017 -1.013 0
M  V30 3137 O 306.739 -4.38078 0.0437005 0
M  V30 3138 C 308.24 -4.07956 -1.73456 0
M  V30 3139 H 305.46 -0.661211 -0.114199 0
M  V30 3140 H 308.004 -2.02295 0.299483 0
M  V30 3141 H 306.159 -3.47298 -1.71647 0
M  V30 3142 H 306.573 -5.23178 -0.372212 0
M  V30 3143 H 308.047 -5.1138 -2.07833 0
M  V30 3144 H 308.524 -3.51222 -2.63704 0
M  V30 3145 H 309.13 -4.11437 -1.07702 0
M  V30 3146 N 307.445 0.0818655 -1.57387 0
M  V30 3147 C 308.395 1.10501 -1.99433 0
M  V30 3148 C 309.379 1.35041 -0.874798 0
M  V30 3149 O 310.571 1.35511 -1.13868 0
M  V30 3150 C 307.7 2.42159 -2.43339 0
M  V30 3151 C 306.786 2.20937 -3.62005 0
M  V30 3152 N 307.177 1.69616 -4.76512 0
M  V30 3153 C 305.475 2.51451 -3.68359 0
M  V30 3154 C 306.176 1.62973 -5.58404 0
M  V30 3155 N 305.152 2.08664 -5.01956 0
M  V30 3156 H 308.954 0.701373 -2.85408 0
M  V30 3157 H 306.468 0.289096 -1.59806 0
M  V30 3158 H 308.465 3.16208 -2.71695 0
M  V30 3159 H 307.125 2.83249 -1.58746 0
M  V30 3160 H 308.136 1.38624 -4.99003 0
M  V30 3161 H 304.813 2.95975 -2.94457 0
M  V30 3162 H 306.203 1.24233 -6.60315 0
M  V30 3163 N 308.923 1.53595 0.353017 0
M  V30 3164 C 310.171 1.70049 1.09215 0
M  V30 3165 C 310.492 0.461406 1.89463 0
M  V30 3166 O 309.762 -0.524633 1.88744 0
M  V30 3167 H 308.342 0.626912 0.40619 0
M  V30 3168 H 311.004 1.90822 0.396585 0
M  V30 3169 H 310.1 2.56718 1.77488 0
M  V30 3170 N 310.401 -0.613514 1.45168 0
M  V30 3171 C 311.629 -1.39946 1.5239 0
M  V30 3172 C 312.044 -1.88167 0.154531 0
M  V30 3173 O 311.401 -1.61872 -0.842843 0
M  V30 3174 C 311.452 -2.60795 2.50337 0
M  V30 3175 O 311.173 -2.1458 3.81952 0
M  V30 3176 C 312.674 -3.53723 2.67198 0
M  V30 3177 H 309.894 -0.428593 0.516284 0
M  V30 3178 H 312.438 -0.748753 1.903 0
M  V30 3179 H 310.593 -3.21919 2.15515 0
M  V30 3180 H 311.007 -2.93055 4.34993 0
M  V30 3181 H 312.481 -4.35079 3.39721 0
M  V30 3182 H 312.958 -4.0368 1.73029 0
M  V30 3183 H 313.564 -2.98456 3.02992 0
M  V30 3184 N 311.879 -1.3236 -0.855495 0
M  V30 3185 C 313.127 -1.22629 -1.60644 0
M  V30 3186 C 313.448 0.212136 -1.93843 0
M  V30 3187 O 312.718 1.13666 -1.59552 0
M  V30 3188 H 311.298 -0.450882 -0.595579 0
M  V30 3189 H 313.96 -1.65871 -1.02337 0
M  V30 3190 H 313.056 -1.80832 -2.54374 0
M  V30 3191 N 313.357 1.07166 -1.15556 0
M  V30 3192 C 314.597 1.81391 -0.94216 0
M  V30 3193 C 314.961 1.84788 0.521272 0
M  V30 3194 O 316.162 2.54904 0.85307 0
M  V30 3195 C 314.433 3.22431 -1.54185 0
M  V30 3196 S 315.992 4.13379 -1.47183 0
M  V30 3197 H 312.81 0.624963 -0.339031 0
M  V30 3198 H 315.412 1.28725 -1.4714 0
M  V30 3199 H 314.116 3.17548 -2.59984 0
M  V30 3200 H 313.647 3.80172 -1.01156 0
M  V30 3201 H 315.662 4.94007 -0.466004 0
M  V30 3202 N 314.835 0.952656 1.25548 0
M  V30 3203 C 316.063 0.623496 1.97282 0
M  V30 3204 C 316.478 -0.803987 1.70826 0
M  V30 3205 O 315.835 -1.53755 0.983147 0
M  V30 3206 C 315.886 0.870209 3.5087 0
M  V30 3207 O 315.607 2.24156 3.76412 0
M  V30 3208 C 317.108 0.553164 4.39835 0
M  V30 3209 H 314.328 0.233931 0.628902 0
M  V30 3210 H 316.872 1.27649 1.59768 0
M  V30 3211 H 315.027 0.263652 3.86502 0
M  V30 3212 H 315.441 2.31021 4.70882 0
M  V30 3213 H 316.915 0.776342 5.46513 0
M  V30 3214 H 317.392 -0.512215 4.36203 0
M  V30 3215 H 317.998 1.13896 4.09766 0
M  V30 3216 N 316.313 -1.40141 0.720998 0
M  V30 3217 C 317.243 -2.33339 0.0867621 0
M  V30 3218 C 318.224 -1.53178 -0.739622 0
M  V30 3219 O 319.409 -1.81625 -0.687449 0
M  V30 3220 C 316.539 -3.37194 -0.831728 0
M  V30 3221 C 315.493 -4.27857 -0.110558 0
M  V30 3222 C 314.819 -5.22294 -1.14513 0
M  V30 3223 C 316.119 -5.11872 1.0385 0
M  V30 3224 H 317.813 -2.86626 0.865219 0
M  V30 3225 H 315.359 -1.37814 0.417516 0
M  V30 3226 H 317.312 -4.01335 -1.28485 0
M  V30 3227 H 316.036 -2.82314 -1.64214 0
M  V30 3228 H 314.695 -3.65176 0.322797 0
M  V30 3229 H 314.343 -4.63717 -1.94874 0
M  V30 3230 H 314.043 -5.83797 -0.667446 0
M  V30 3231 H 315.567 -5.89312 -1.59824 0
M  V30 3232 H 316.981 -5.69436 0.664482 0
M  V30 3233 H 315.378 -5.82445 1.4449 0
M  V30 3234 H 316.448 -4.4753 1.86668 0
M  V30 3235 N 317.792 -0.46758 -1.50504 0
M  V30 3236 C 319.017 0.0886943 -2.0721 0
M  V30 3237 C 319.442 1.33057 -1.32956 0
M  V30 3238 O 318.8 1.77354 -0.376197 0
M  V30 3239 C 318.848 0.359202 -3.58806 0
M  V30 3240 O 317.952 1.44034 -3.8643 0
M  V30 3241 H 317.293 -0.0114349 -0.663902 0
M  V30 3242 H 319.823 -0.657613 -1.93744 0
M  V30 3243 H 319.833 0.600742 -4.03553 0
M  V30 3244 H 318.508 -0.548311 -4.1227 0
M  V30 3245 H 317.085 1.18638 -3.53524 0
M  V30 3246 N 319.27 1.56325 -0.20005 0
M  V30 3247 C 320.233 2.18084 0.705132 0
M  V30 3248 C 321.233 1.13666 1.1374 0
M  V30 3249 O 322.423 1.39023 1.04968 0
M  V30 3250 C 319.555 2.78689 1.96329 0
M  V30 3251 H 320.748 2.99435 0.167023 0
M  V30 3252 H 318.301 1.56221 0.0495725 0
M  V30 3253 H 319.036 2.0115 2.5438 0
M  V30 3254 H 318.821 3.55133 1.66202 0
M  V30 3255 H 320.311 3.26096 2.60866 0
M  V30 3256 N 320.748 -0.0735177 1.57428 0
M  V30 3257 C 321.711 -1.07192 2.02589 0
M  V30 3258 C 322.711 -1.31695 0.922661 0
M  V30 3259 O 323.901 -1.27445 1.18758 0
M  V30 3260 C 321.033 -2.41599 2.40506 0
M  V30 3261 H 322.226 -0.682727 2.92025 0
M  V30 3262 H 319.779 -0.319193 1.53006 0
M  V30 3263 H 320.514 -2.85354 1.5409 0
M  V30 3264 H 320.299 -2.25156 3.21009 0
M  V30 3265 H 321.789 -3.13367 2.76027 0
M  V30 3266 N 322.226 -1.5378 -0.344866 0
M  V30 3267 C 323.156 -1.84662 -1.42906 0
M  V30 3268 C 324.137 -0.701648 -1.54955 0
M  V30 3269 O 325.322 -0.953438 -1.69184 0
M  V30 3270 C 322.452 -2.05503 -2.79974 0
M  V30 3271 C 321.406 -3.21318 -2.82734 0
M  V30 3272 C 320.732 -3.2749 -4.22675 0
M  V30 3273 C 322.032 -4.59456 -2.48389 0
M  V30 3274 H 323.726 -2.75461 -1.17311 0
M  V30 3275 H 321.272 -1.32542 -0.562896 0
M  V30 3276 H 323.225 -2.25691 -3.55867 0
M  V30 3277 H 321.949 -1.11434 -3.07002 0
M  V30 3278 H 320.608 -3.00984 -2.09294 0
M  V30 3279 H 320.256 -2.31019 -4.4681 0
M  V30 3280 H 319.956 -4.05316 -4.25433 0
M  V30 3281 H 321.48 -3.49887 -5.00412 0
M  V30 3282 H 322.894 -4.79667 -3.13995 0
M  V30 3283 H 321.291 -5.39675 -2.62432 0
M  V30 3284 H 322.361 -4.63155 -1.4358 0
M  V30 3285 N 323.704 0.605807 -1.45491 0
M  V30 3286 C 324.667 1.69836 -1.5391 0
M  V30 3287 C 325.667 1.55261 -0.418424 0
M  V30 3288 O 326.857 1.60296 -0.681965 0
M  V30 3289 C 323.989 3.09117 -1.43734 0
M  V30 3290 H 325.182 1.63738 -2.51257 0
M  V30 3291 H 322.735 0.821689 -1.32959 0
M  V30 3292 H 323.47 3.20791 -0.475788 0
M  V30 3293 H 323.255 3.21104 -2.25021 0
M  V30 3294 H 324.745 3.88696 -1.52661 0
M  V30 3295 N 325.182 1.32811 0.848464 0
M  V30 3296 C 326.145 1.22194 1.9391 0
M  V30 3297 C 327.145 0.143404 1.60159 0
M  V30 3298 O 328.335 0.394253 1.6968 0
M  V30 3299 C 325.467 0.88067 3.29328 0
M  V30 3300 H 326.66 2.19127 2.04752 0
M  V30 3301 H 324.213 1.16731 1.0394 0
M  V30 3302 H 324.948 -0.0865776 3.24184 0
M  V30 3303 H 324.733 1.66052 3.55203 0
M  V30 3304 H 326.223 0.830871 4.09251 0
M  V30 3305 N 326.66 -1.06551 1.16123 0
M  V30 3306 C 327.59 -2.15935 0.88851 0
M  V30 3307 C 328.571 -1.69306 -0.164135 0
M  V30 3308 O 329.756 -1.94193 -0.0167857 0
M  V30 3309 C 326.886 -3.45149 0.385942 0
M  V30 3310 C 325.84 -4.05271 1.3762 0
M  V30 3311 C 325.166 -5.29664 0.732137 0
M  V30 3312 C 326.466 -4.44355 2.74493 0
M  V30 3313 H 328.16 -2.39006 1.80323 0
M  V30 3314 H 325.706 -1.14866 0.868435 0
M  V30 3315 H 327.659 -4.21004 0.182647 0
M  V30 3316 H 326.383 -3.21689 -0.564274 0
M  V30 3317 H 325.042 -3.3147 1.56599 0
M  V30 3318 H 324.69 -5.02499 -0.224483 0
M  V30 3319 H 324.39 -5.70848 1.39307 0
M  V30 3320 H 325.914 -6.08218 0.538802 0
M  V30 3321 H 327.328 -5.11303 2.59311 0
M  V30 3322 H 325.725 -4.96515 3.37035 0
M  V30 3323 H 326.795 -3.55339 3.29943 0
M  V30 3324 N 328.138 -0.959301 -1.25041 0
M  V30 3325 C 329.554 -0.664474 -1.4511 0
M  V30 3326 C 329.754 0.776481 -1.85938 0
M  V30 3327 O 328.81 1.55128 -1.99227 0
M  V30 3328 C 330.123 -1.64139 -2.5195 0
M  V30 3329 C 331.671 -1.65309 -2.65786 0
M  V30 3330 C 332.146 -2.61777 -3.75815 0
M  V30 3331 N 333.637 -2.60169 -3.83231 0
M  V30 3332 C 334.372 -3.31489 -4.6787 0
M  V30 3333 N 333.868 -4.12298 -5.56761 0
M  V30 3334 N 335.661 -3.20354 -4.61876 0
M  V30 3335 H 327.812 -1.89043 -0.968332 0
M  V30 3336 H 330.075 -0.813408 -0.4869 0
M  V30 3337 H 329.781 -2.67086 -2.28819 0
M  V30 3338 H 329.655 -1.40756 -3.49954 0
M  V30 3339 H 332.042 -0.630778 -2.8828 0
M  V30 3340 H 332.123 -1.92753 -1.68167 0
M  V30 3341 H 331.767 -3.64137 -3.54071 0
M  V30 3342 H 331.697 -2.31616 -4.72929 0
M  V30 3343 H 334.188 -2.01507 -3.19692 0
M  V30 3344 H 334.501 -4.63625 -6.18281 0
M  V30 3345 H 332.846 -4.16395 -5.56454 0
M  V30 3346 H 336.037 -2.56692 -3.91442 0
M  V30 3347 H 336.21 -3.76201 -5.27614 0
M  V30 3348 N 329.616 1.39756 -0.72842 0
M  V30 3349 C 331.027 1.83498 -0.344289 0
M  V30 3350 C 331.378 1.60868 1.12321 0
M  V30 3351 O 330.503 1.09634 1.86573 0
M  V30 3352 C 331.098 3.33114 -0.618112 0
M  V30 3353 C 329.657 3.753 -0.287549 0
M  V30 3354 C 328.804 2.62831 -0.884048 0
M  V30 3355 H 331.755 1.28842 -0.926578 0
M  V30 3356 H 331.776 3.80334 0.112349 0
M  V30 3357 H 331.288 3.49553 -1.68625 0
M  V30 3358 H 329.389 3.64451 0.775012 0
M  V30 3359 H 329.502 4.72945 -0.765512 0
M  V30 3360 H 327.866 2.52792 -0.311149 0
M  V30 3361 H 328.649 2.82078 -1.95671 0
M  V30 3362 N 331.094 0.475555 1.50254 0
M  V30 3363 C 332.51 0.12997 1.5907 0
M  V30 3364 C 332.71 -1.36385 1.48328 0
M  V30 3365 O 331.766 -2.13754 1.34407 0
M  V30 3366 C 333.079 0.684139 2.92814 0
M  V30 3367 C 334.627 0.647965 3.0622 0
M  V30 3368 C 335.102 1.17975 4.42545 0
M  V30 3369 N 336.593 1.13936 4.48969 0
M  V30 3370 C 337.328 1.52129 5.52851 0
M  V30 3371 N 336.824 1.97793 6.63965 0
M  V30 3372 N 338.617 1.43704 5.4342 0
M  V30 3373 H 330.768 1.44706 1.55479 0
M  V30 3374 H 333.031 0.598691 0.735033 0
M  V30 3375 H 332.737 1.73079 3.06164 0
M  V30 3376 H 332.611 0.130204 3.76975 0
M  V30 3377 H 334.998 -0.38979 2.92514 0
M  V30 3378 H 335.079 1.23876 2.23805 0
M  V30 3379 H 334.723 2.21616 4.57 0
M  V30 3380 H 334.653 0.565138 5.23559 0
M  V30 3381 H 337.144 0.804488 3.69238 0
M  V30 3382 H 337.457 2.25072 7.39299 0
M  V30 3383 H 335.802 2.01749 6.65073 0
M  V30 3384 H 338.993 1.07867 4.55502 0
M  V30 3385 H 339.166 1.73794 6.24259 0
M  V30 3386 N 332.573 -1.56217 0.208337 0
M  V30 3387 C 333.523 -2.16324 -0.720281 0
M  V30 3388 C 334.507 -1.10775 -1.16695 0
M  V30 3389 O 335.699 -1.36801 -1.12314 0
M  V30 3390 C 332.828 -2.83644 -1.93393 0
M  V30 3391 C 331.914 -3.96401 -1.50755 0
M  V30 3392 N 332.305 -4.99546 -0.792937 0
M  V30 3393 C 330.603 -4.08246 -1.79585 0
M  V30 3394 C 331.304 -5.78828 -0.577364 0
M  V30 3395 N 330.28 -5.31723 -1.1301 0
M  V30 3396 H 334.082 -2.93432 -0.165725 0
M  V30 3397 H 331.596 -1.62397 0.00906463 0
M  V30 3398 H 333.593 -3.25107 -2.60981 0
M  V30 3399 H 332.253 -2.08027 -2.49308 0
M  V30 3400 H 333.264 -5.15967 -0.447004 0
M  V30 3401 H 329.941 -3.4377 -2.36915 0
M  V30 3402 H 331.331 -6.71899 -0.00952956 0
M  V30 3403 N 334.051 0.0651679 -1.57465 0
M  V30 3404 C 335.467 0.420105 -1.53972 0
M  V30 3405 C 335.667 1.78782 -0.929474 0
M  V30 3406 O 334.723 2.46771 -0.534839 0
M  V30 3407 C 336.036 0.355084 -2.98596 0
M  V30 3408 C 337.584 0.434792 -3.09965 0
M  V30 3409 C 338.059 0.399609 -4.56253 0
M  V30 3410 N 339.55 0.459488 -4.60915 0
M  V30 3411 C 340.285 0.454584 -5.71595 0
M  V30 3412 N 339.781 0.404102 -6.9162 0
M  V30 3413 N 341.574 0.501635 -5.59857 0
M  V30 3414 H 333.725 -0.830328 -1.95498 0
M  V30 3415 H 335.988 -0.312244 -0.895102 0
M  V30 3416 H 335.694 -0.583357 -3.46828 0
M  V30 3417 H 335.568 1.16275 -3.58831 0
M  V30 3418 H 337.955 1.36366 -2.61703 0
M  V30 3419 H 338.036 -0.40157 -2.52628 0
M  V30 3420 H 337.68 -0.525436 -5.05175 0
M  V30 3421 H 337.61 1.25359 -5.11461 0
M  V30 3422 H 340.101 0.502482 -3.74544 0
M  V30 3423 H 340.414 0.404468 -7.71741 0
M  V30 3424 H 338.759 0.37069 -6.94011 0
M  V30 3425 H 341.95 0.538812 -4.64989 0
M  V30 3426 H 342.123 0.494345 -6.46112 0
M  V30 3427 N 335.529 1.53961 0.336706 0
M  V30 3428 C 336.754 1.75797 1.10046 0
M  V30 3429 C 337.179 0.498985 1.81361 0
M  V30 3430 O 336.537 -0.548769 1.72795 0
M  V30 3431 C 336.585 2.94257 2.08436 0
M  V30 3432 O 335.689 2.64883 3.16087 0
M  V30 3433 H 335.03 0.582936 0.317934 0
M  V30 3434 H 337.56 2.00945 0.38501 0
M  V30 3435 H 337.57 3.21237 2.51537 0
M  V30 3436 H 336.245 3.85564 1.55927 0
M  V30 3437 H 334.822 2.48812 2.77753 0
M  V30 3438 N 337.007 -0.598083 1.45811 0
M  V30 3439 C 338.253 -1.35679 1.51535 0
M  V30 3440 C 338.608 -1.91745 0.15864 0
M  V30 3441 O 337.901 -1.72654 -0.830724 0
M  V30 3442 C 338.095 -2.51669 2.53766 0
M  V30 3443 C 337.924 -2.06963 3.99245 0
M  V30 3444 C 336.694 -1.92693 4.67116 0
M  V30 3445 C 338.892 -1.63855 4.875 0
M  V30 3446 N 336.874 -1.41897 5.97276 0
M  V30 3447 C 338.245 -1.24541 6.07363 0
M  V30 3448 C 340.3 -1.51533 4.74281 0
M  V30 3449 C 339.003 -0.741354 7.15469 0
M  V30 3450 C 341.029 -1.0253 5.82444 0
M  V30 3451 C 340.391 -0.641869 7.01469 0
M  V30 3452 H 336.49 -0.490042 0.609412 0
M  V30 3453 H 339.074 -0.682687 1.82339 0
M  V30 3454 H 337.245 -3.16663 2.24898 0
M  V30 3455 H 338.977 -3.18578 2.4958 0
M  V30 3456 H 335.732 -2.1417 4.22408 0
M  V30 3457 H 336.156 -1.18704 6.66512 0
M  V30 3458 H 340.798 -1.798 3.82664 0
M  V30 3459 H 338.516 -0.446243 8.06867 0
M  V30 3460 H 342.102 -0.934088 5.74253 0
M  V30 3461 H 340.982 -0.268531 7.8374 0
M  V30 3462 N 338.485 -1.33259 -0.841409 0
M  V30 3463 C 339.733 -1.24326 -1.59334 0
M  V30 3464 C 340.054 0.191564 -1.94057 0
M  V30 3465 O 339.324 1.11967 -1.60749 0
M  V30 3466 H 337.904 -0.457174 -0.590763 0
M  V30 3467 H 340.566 -1.66947 -1.00571 0
M  V30 3468 H 339.662 -1.8352 -2.52442 0
M  V30 3469 N 339.963 1.05934 -1.16686 0
M  V30 3470 C 340.873 2.17014 -0.891183 0
M  V30 3471 C 341.889 1.73453 0.137907 0
M  V30 3472 O 343.065 2.01361 -0.039592 0
M  V30 3473 C 340.13 3.44384 -0.400099 0
M  V30 3474 C 339.191 4.02433 -1.49486 0
M  V30 3475 C 338.424 5.23723 -1.02711 0
M  V30 3476 O 338.647 5.7027 0.121716 0
M  V30 3477 O 337.581 5.7382 -1.81699 0
M  V30 3478 H 341.407 2.43113 -1.82015 0
M  V30 3479 H 338.992 1.15541 -0.947132 0
M  V30 3480 H 340.874 4.21189 -0.133392 0
M  V30 3481 H 339.549 3.19802 0.500817 0
M  V30 3482 H 338.456 3.27102 -1.81535 0
M  V30 3483 H 339.789 4.31317 -2.37121 0
M  V30 3484 N 341.441 0.965919 1.2453 0
M  V30 3485 C 342.669 0.644385 1.96609 0
M  V30 3486 C 343.084 -0.785823 1.71669 0
M  V30 3487 O 342.441 -1.52703 0.999399 0
M  V30 3488 C 342.492 0.907375 3.49927 0
M  V30 3489 O 342.213 2.28136 3.74013 0
M  V30 3490 C 343.714 0.599784 4.39224 0
M  V30 3491 H 340.934 0.240588 0.626385 0
M  V30 3492 H 343.478 1.29337 1.58405 0
M  V30 3493 H 341.633 0.304631 3.862 0
M  V30 3494 H 342.047 2.36002 4.68405 0
M  V30 3495 H 343.521 0.834263 5.45659 0
M  V30 3496 H 343.998 -0.465921 4.36722 0
M  V30 3497 H 344.604 1.18235 4.08535 0
M  V30 3498 N 342.919 -1.39368 0.735821 0
M  V30 3499 C 344.165 -2.00794 0.284544 0
M  V30 3500 C 344.498 -1.58255 -1.12557 0
M  V30 3501 O 343.773 -0.811819 -1.76748 0
M  V30 3502 C 344.056 -3.58011 0.387337 0
M  V30 3503 C 343.909 -4.10566 1.83728 0
M  V30 3504 C 345.228 -4.395 -0.22975 0
M  V30 3505 H 342.347 -0.729501 0.104866 0
M  V30 3506 H 344.989 -1.65564 0.93213 0
M  V30 3507 H 343.139 -3.88154 -0.164006 0
M  V30 3508 H 344.811 -3.91139 2.44556 0
M  V30 3509 H 343.054 -3.64095 2.35833 0
M  V30 3510 H 343.725 -5.19702 1.86047 0
M  V30 3511 H 346.201 -4.15406 0.240257 0
M  V30 3512 H 345.077 -5.48752 -0.127485 0
M  V30 3513 H 345.338 -4.22062 -1.3159 0
M  V30 3514 N 344.397 -0.483516 -1.5 0
M  V30 3515 C 345.345 0.318061 -2.30415 0
M  V30 3516 C 346.339 0.978988 -1.38247 0
M  V30 3517 O 347.545 0.908673 -1.55381 0
M  V30 3518 H 343.92 0.121419 -0.742133 0
M  V30 3519 H 345.891 -0.380403 -2.95965 0
M  V30 3520 C 344.64 1.38013 -3.19136 0
M  V30 3521 H 343.963 0.880952 -3.89973 0
M  V30 3522 H 345.403 1.91332 -3.78375 0
M  V30 3523 C 343.862 2.38884 -2.37563 0
M  V30 3524 O 344.392 3.44412 -2.06744 0
M  V30 3525 N 342.598 2.10912 -1.99911 0
M  V30 3526 H 342.145 1.25118 -2.25174 0
M  V30 3527 H 342.103 2.78635 -1.45636 0
M  V30 3528 N 345.875 1.56104 -0.216619 0
M  V30 3529 C 346.785 2.23694 0.706982 0
M  V30 3530 C 347.801 1.24295 1.21765 0
M  V30 3531 O 348.977 1.57094 1.2603 0
M  V30 3532 C 346.042 2.8998 1.90033 0
M  V30 3533 C 345.103 4.04708 1.43213 0
M  V30 3534 C 344.336 4.67824 2.56859 0
M  V30 3535 O 344.559 4.29913 3.74874 0
M  V30 3536 O 343.493 5.56905 2.28343 0
M  V30 3537 H 347.319 3.03272 0.161235 0
M  V30 3538 H 344.904 1.49394 0.0136177 0
M  V30 3539 H 346.786 3.31837 2.59735 0
M  V30 3540 H 345.461 2.13365 2.43428 0
M  V30 3541 H 344.368 3.6743 0.70327 0
M  V30 3542 H 345.701 4.83051 0.944615 0
M  V30 3543 N 347.353 -0.0568162 1.57498 0
M  V30 3544 C 348.316 -1.05038 2.03715 0
M  V30 3545 C 349.316 -1.30709 0.936577 0
M  V30 3546 O 350.506 -1.26178 1.20103 0
M  V30 3547 C 347.638 -2.39034 2.43055 0
M  V30 3548 H 348.831 -0.651715 2.92733 0
M  V30 3549 H 346.384 -0.302947 1.53336 0
M  V30 3550 H 347.119 -2.83703 1.57108 0
M  V30 3551 H 346.904 -2.21739 3.2338 0
M  V30 3552 H 348.394 -3.10421 2.79336 0
M  V30 3553 N 348.832 -1.54138 -0.328536 0
M  V30 3554 C 349.779 -1.83176 -1.40411 0
M  V30 3555 C 350.749 -0.678494 -1.5161 0
M  V30 3556 O 351.934 -0.92443 -1.6691 0
M  V30 3557 C 349.074 -2.06035 -2.76846 0
M  V30 3558 C 348.187 -3.33727 -2.74318 0
M  V30 3559 C 347.322 -3.46574 -4.02567 0
M  V30 3560 C 346.361 -4.68159 -3.94327 0
M  V30 3561 N 345.498 -4.77959 -5.14296 0
M  V30 3562 H 350.338 -2.74938 -1.14948 0
M  V30 3563 H 347.875 -1.36166 -0.556538 0
M  V30 3564 H 349.833 -2.1728 -3.56153 0
M  V30 3565 H 348.463 -1.1757 -3.00628 0
M  V30 3566 H 347.515 -3.31246 -1.8703 0
M  V30 3567 H 348.827 -4.23139 -2.64111 0
M  V30 3568 H 347.981 -3.57333 -4.90304 0
M  V30 3569 H 346.72 -2.55245 -4.15574 0
M  V30 3570 H 345.725 -4.57461 -3.04974 0
M  V30 3571 H 346.95 -5.60868 -3.82889 0
M  V30 3572 H 344.896 -3.89544 -5.27818 0
M  V30 3573 H 344.813 -5.6133 -5.06404 0
M  V30 3574 H 346.081 -4.93044 -6.03761 0
M  V30 3575 N 350.31 0.590341 -1.46126 0
M  V30 3576 C 351.273 1.68194 -1.55703 0
M  V30 3577 C 352.273 1.54808 -0.434868 0
M  V30 3578 O 353.463 1.59564 -0.698928 0
M  V30 3579 C 350.595 3.07575 -1.47005 0
M  V30 3580 H 351.788 1.61064 -2.52979 0
M  V30 3581 H 349.341 0.807541 -1.33823 0
M  V30 3582 H 350.076 3.20268 -0.509785 0
M  V30 3583 H 349.861 3.187 -2.28414 0
M  V30 3584 H 351.351 3.87055 -1.56776 0
M  V30 3585 N 351.788 1.33704 0.83433 0
M  V30 3586 C 353.034 1.26612 1.59188 0
M  V30 3587 C 353.389 -0.165439 1.91687 0
M  V30 3588 O 352.682 -1.10873 1.56262 0
M  V30 3589 C 352.876 2.07926 2.90692 0
M  V30 3590 C 352.705 3.58844 2.71038 0
M  V30 3591 C 351.475 4.28148 2.68361 0
M  V30 3592 C 353.673 4.53082 2.43353 0
M  V30 3593 N 351.655 5.64987 2.40132 0
M  V30 3594 C 353.026 5.77843 2.24716 0
M  V30 3595 C 355.081 4.42119 2.28987 0
M  V30 3596 C 353.784 6.92877 1.9317 0
M  V30 3597 C 355.81 5.56973 1.98835 0
M  V30 3598 C 355.172 6.80745 1.81012 0
M  V30 3599 H 351.271 0.518517 0.585375 0
M  V30 3600 H 353.855 1.68294 0.979044 0
M  V30 3601 H 352.026 1.68558 3.49918 0
M  V30 3602 H 353.758 1.92568 3.55949 0
M  V30 3603 H 350.513 3.80469 2.82029 0
M  V30 3604 H 350.937 6.37133 2.28889 0
M  V30 3605 H 355.579 3.47058 2.41477 0
M  V30 3606 H 353.297 7.87931 1.79418 0
M  V30 3607 H 356.883 5.50428 1.88468 0
M  V30 3608 H 355.763 7.68115 1.58017 0
M  V30 3609 N 353.266 -1.05314 1.17247 0
M  V30 3610 C 354.196 -2.1498 0.911362 0
M  V30 3611 C 355.177 -1.69471 -0.146169 0
M  V30 3612 O 356.362 -1.942 0.003812 0
M  V30 3613 C 353.492 -3.4472 0.422528 0
M  V30 3614 C 352.446 -4.03789 1.4191 0
M  V30 3615 C 351.772 -5.28858 0.788274 0
M  V30 3616 C 353.072 -4.41418 2.7919 0
M  V30 3617 H 354.766 -2.3708 1.82848 0
M  V30 3618 H 352.312 -1.13938 0.880569 0
M  V30 3619 H 354.265 -4.20787 0.227289 0
M  V30 3620 H 352.989 -3.22269 -0.530123 0
M  V30 3621 H 351.648 -3.2979 1.60106 0
M  V30 3622 H 351.296 -5.02709 -0.171173 0
M  V30 3623 H 350.996 -5.69338 1.45353 0
M  V30 3624 H 352.52 -6.07612 0.603282 0
M  V30 3625 H 353.934 -5.08524 2.64719 0
M  V30 3626 H 352.331 -4.92913 3.42282 0
M  V30 3627 H 353.401 -3.51819 3.33693 0
M  V30 3628 N 354.744 -0.972509 -1.24016 0
M  V30 3629 C 355.969 -0.654417 -1.96805 0
M  V30 3630 C 356.394 0.770398 -1.716 0
M  V30 3631 O 355.752 1.52361 -0.982647 0
M  V30 3632 C 355.8 -0.941031 -3.48105 0
M  V30 3633 O 354.904 -0.0289472 -4.1239 0
M  V30 3634 H 354.245 -0.24692 -0.616382 0
M  V30 3635 H 356.775 -1.30396 -1.57664 0
M  V30 3636 H 356.785 -0.87452 -3.98517 0
M  V30 3637 H 355.46 -1.97939 -3.65777 0
M  V30 3638 H 354.037 -0.149192 -3.72601 0
M  V30 3639 N 356.222 1.38976 -0.743202 0
M  V30 3640 C 357.185 2.28901 -0.117014 0
M  V30 3641 C 358.185 1.46698 0.658503 0
M  V30 3642 O 359.375 1.67274 0.486305 0
M  V30 3643 C 356.507 3.30309 0.84315 0
M  V30 3644 H 357.7 2.8578 -0.909373 0
M  V30 3645 H 355.253 1.47761 -0.509547 0
M  V30 3646 H 355.988 2.785 1.66157 0
M  V30 3647 H 355.773 3.91029 0.289594 0
M  V30 3648 H 357.263 3.97577 1.2776 0
M  V30 3649 N 357.7 0.491464 1.49741 0
M  V30 3650 C 358.663 -0.280906 2.27472 0
M  V30 3651 C 359.663 -0.902454 1.33088 0
M  V30 3652 O 360.853 -0.768465 1.56334 0
M  V30 3653 C 357.985 -1.40209 3.10732 0
M  V30 3654 H 359.178 0.401056 2.97206 0
M  V30 3655 H 356.731 0.246131 1.5435 0
M  V30 3656 H 357.466 -2.11849 2.45541 0
M  V30 3657 H 357.251 -0.961969 3.80117 0
M  V30 3658 H 358.741 -1.9464 3.69466 0
M  V30 3659 N 359.178 -1.55987 0.224894 0
M  V30 3660 C 360.108 -2.23426 -0.678457 0
M  V30 3661 C 361.089 -1.20709 -1.19847 0
M  V30 3662 O 362.274 -1.49304 -1.24186 0
M  V30 3663 C 359.404 -2.91676 -1.88527 0
M  V30 3664 C 358.358 -4.00893 -1.49896 0
M  V30 3665 C 357.684 -4.56455 -2.78483 0
M  V30 3666 C 358.984 -5.17769 -0.686461 0
M  V30 3667 H 360.678 -2.99175 -0.116173 0
M  V30 3668 H 358.224 -1.43897 -0.054436 0
M  V30 3669 H 360.177 -3.37547 -2.5227 0
M  V30 3670 H 358.901 -2.1338 -2.47258 0
M  V30 3671 H 357.56 -3.55758 -0.884985 0
M  V30 3672 H 357.208 -3.74886 -3.35365 0
M  V30 3673 H 356.908 -5.30169 -2.53368 0
M  V30 3674 H 358.432 -5.05047 -3.43162 0
M  V30 3675 H 359.846 -5.60001 -1.22767 0
M  V30 3676 H 358.243 -5.97735 -0.532259 0
M  V30 3677 H 359.313 -4.83932 0.306196 0
M  V30 3678 N 360.656 0.0484629 -1.57525 0
M  V30 3679 C 361.619 1.03956 -2.04269 0
M  V30 3680 C 362.619 1.30211 -0.943496 0
M  V30 3681 O 363.809 1.25539 -1.20771 0
M  V30 3682 C 360.941 2.37742 -2.44319 0
M  V30 3683 H 362.134 0.636182 -2.93075 0
M  V30 3684 H 359.687 0.294811 -1.53494 0
M  V30 3685 H 360.422 2.82866 -1.5861 0
M  V30 3686 H 360.207 2.20021 -3.24551 0
M  V30 3687 H 361.697 3.08936 -2.80978 0
M  V30 3688 N 362.134 1.5431 0.320358 0
M  V30 3689 C 363.066 1.80262 1.41556 0
M  V30 3690 C 364.079 0.684723 1.477 0
M  V30 3691 O 365.268 0.961886 1.50366 0
M  V30 3692 C 362.368 1.90825 2.8007 0
M  V30 3693 C 361.541 3.21023 2.97091 0
M  V30 3694 C 360.6 3.22247 4.15985 0
M  V30 3695 O 359.626 3.95871 4.08992 0
M  V30 3696 N 360.828 2.46258 5.25678 0
M  V30 3697 H 363.593 2.74778 1.19655 0
M  V30 3698 H 361.154 1.53646 0.510358 0
M  V30 3699 H 363.146 1.89067 3.57821 0
M  V30 3700 H 361.716 1.03392 2.95006 0
M  V30 3701 H 360.936 3.35715 2.06614 0
M  V30 3702 H 362.224 4.0698 3.05361 0
M  V30 3703 H 361.622 1.86037 5.34235 0
M  V30 3704 H 360.179 2.50275 6.01835 0
M  V30 3705 N 363.613 -0.582584 1.46437 0
M  V30 3706 C 364.576 -1.67366 1.56592 0
M  V30 3707 C 365.576 -1.54575 0.443072 0
M  V30 3708 O 366.766 -1.59191 0.707381 0
M  V30 3709 C 363.898 -3.06791 1.48634 0
M  V30 3710 H 365.091 -1.5972 2.5383 0
M  V30 3711 H 362.644 -0.800432 1.34249 0
M  V30 3712 H 363.379 -3.19993 0.526763 0
M  V30 3713 H 363.164 -3.17484 2.30101 0
M  V30 3714 H 364.654 -3.86218 1.58826 0
M  V30 3715 N 365.091 -1.34144 -0.827227 0
M  V30 3716 C 366.368 -1.16844 -1.56865 0
M  V30 3717 C 366.748 0.260654 -2.09485 0
M  V30 3718 O 366.096 1.26138 -1.9053 0
M  V30 3719 C 366.306 -2.21939 -2.6934 0
M  V30 3720 C 367.654 -2.56695 -3.3822 0
M  V30 3721 O 368.678 -2.20695 -2.79593 0
M  V30 3722 O 367.537 -3.18518 -4.44082 0
M  V30 3723 H 364.631 -0.452669 -0.692112 0
M  V30 3724 H 367.177 -1.45763 -0.868973 0
M  V30 3725 H 365.949 -3.17882 -2.28182 0
M  V30 3726 H 365.572 -1.94172 -3.46962 0
M  V30 3727 N 366.569 1.04691 -1.17803 0
M  V30 3728 C 367.797 1.81446 -0.99423 0
M  V30 3729 C 368.212 1.83174 0.457459 0
M  V30 3730 O 367.569 1.26265 1.31771 0
M  V30 3731 C 367.62 3.27334 -1.5341 0
M  V30 3732 O 367.341 3.25798 -2.92895 0
M  V30 3733 C 368.842 4.20759 -1.39559 0
M  V30 3734 H 366.062 0.571599 -0.351447 0
M  V30 3735 H 368.606 1.31982 -1.56208 0
M  V30 3736 H 366.761 3.74052 -1.00815 0
M  V30 3737 H 367.175 4.17144 -3.17949 0
M  V30 3738 H 368.649 5.21084 -1.82141 0
M  V30 3739 H 369.126 4.37856 -0.343394 0
M  V30 3740 H 369.732 3.79901 -1.91195 0
M  V30 3741 N 368.047 0.979072 1.23499 0
M  V30 3742 C 368.977 0.537606 2.27227 0
M  V30 3743 C 369.958 -0.428539 1.64613 0
M  V30 3744 O 371.143 -0.322191 1.91509 0
M  V30 3745 C 368.273 -0.162052 3.46922 0
M  V30 3746 C 367.227 0.721242 4.21879 0
M  V30 3747 C 366.553 -0.110555 5.34586 0
M  V30 3748 C 367.853 2.01141 4.82016 0
M  V30 3749 H 369.547 1.40462 2.64406 0
M  V30 3750 H 367.093 0.67684 1.27102 0
M  V30 3751 H 369.046 -0.482192 4.18632 0
M  V30 3752 H 367.77 -1.06351 3.08799 0
M  V30 3753 H 366.429 1.02482 3.51984 0
M  V30 3754 H 366.077 -1.0125 4.92704 0
M  V30 3755 H 365.777 0.477325 5.85658 0
M  V30 3756 H 367.301 -0.425107 6.09118 0
M  V30 3757 H 368.715 1.75612 5.45741 0
M  V30 3758 H 367.112 2.54695 5.43369 0
M  V30 3759 H 368.182 2.69909 4.02836 0
M  V30 3760 N 369.525 -1.3858 0.750561 0
M  V30 3761 C 370.435 -2.34278 0.122825 0
M  V30 3762 C 371.451 -1.59116 -0.704131 0
M  V30 3763 O 372.627 -1.91326 -0.628987 0
M  V30 3764 C 369.692 -3.38221 -0.762086 0
M  V30 3765 C 368.753 -4.29227 0.078896 0
M  V30 3766 C 367.986 -5.28205 -0.763874 0
M  V30 3767 O 368.209 -5.34112 -2.00201 0
M  V30 3768 O 367.143 -6.01618 -0.18428 0
M  V30 3769 H 370.969 -2.89649 0.913088 0
M  V30 3770 H 368.554 -1.40374 0.511417 0
M  V30 3771 H 370.436 -4.01872 -1.26793 0
M  V30 3772 H 369.111 -2.85211 -1.5309 0
M  V30 3773 H 368.018 -3.68747 0.630621 0
M  V30 3774 H 369.351 -4.85484 0.810289 0
M  V30 3775 N 371.003 -0.499398 -1.49478 0
M  V30 3776 C 372.249 0.0457576 -2.02748 0
M  V30 3777 C 372.582 1.36793 -1.37846 0
M  V30 3778 O 371.857 1.87596 -0.513601 0
M  V30 3779 C 372.14 0.199986 -3.59544 0
M  V30 3780 C 371.993 -1.1452 -4.34977 0
M  V30 3781 C 373.312 0.94137 -4.29914 0
M  V30 3782 H 370.431 0.0151552 -0.736844 0
M  V30 3783 H 373.073 -0.650498 -1.78518 0
M  V30 3784 H 371.223 0.793007 -3.8032 0
M  V30 3785 H 372.895 -1.77697 -4.25701 0
M  V30 3786 H 371.138 -1.73488 -3.97598 0
M  V30 3787 H 371.809 -0.990607 -5.43039 0
M  V30 3788 H 374.285 0.43844 -4.13784 0
M  V30 3789 H 373.161 1.01812 -5.39375 0
M  V30 3790 H 373.422 1.98471 -3.95046 0
M  V30 3791 N 372.481 1.55866 -0.233164 0
M  V30 3792 C 373.729 1.9821 0.394593 0
M  V30 3793 C 374.05 1.12234 1.59463 0
M  V30 3794 O 373.32 0.201981 1.94856 0
M  V30 3795 H 371.9 0.732034 0.148778 0
M  V30 3796 H 374.562 1.92107 -0.32876 0
M  V30 3797 H 373.658 3.03845 0.713063 0
M  V30 3798 N 373.959 -0.0401083 1.57549 0
M  V30 3799 C 374.906 -1.04413 2.05831 0
M  V30 3800 C 375.876 -1.36585 0.945184 0
M  V30 3801 O 377.061 -1.47112 1.21502 0
M  V30 3802 C 374.201 -2.34336 2.53339 0
M  V30 3803 C 373.314 -2.08419 3.78398 0
M  V30 3804 C 372.449 -3.32133 4.14561 0
M  V30 3805 C 371.488 -3.01721 5.3257 0
M  V30 3806 N 370.625 -4.17855 5.64218 0
M  V30 3807 H 375.465 -0.625442 2.91363 0
M  V30 3808 H 373.002 -0.297218 1.44066 0
M  V30 3809 H 374.96 -3.10234 2.78946 0
M  V30 3810 H 373.59 -2.73948 1.7074 0
M  V30 3811 H 372.642 -1.23069 3.59942 0
M  V30 3812 H 373.954 -1.81978 4.64419 0
M  V30 3813 H 373.108 -4.16406 4.41238 0
M  V30 3814 H 371.847 -3.61678 3.2717 0
M  V30 3815 H 370.852 -2.15849 5.05657 0
M  V30 3816 H 372.077 -2.73466 6.21605 0
M  V30 3817 H 370.023 -4.47372 4.79786 0
M  V30 3818 H 369.94 -3.94798 6.44725 0
M  V30 3819 H 371.208 -5.03033 5.95465 0
M  V30 3820 N 375.437 -1.54477 -0.31217 0
M  V30 3821 C 376.685 -1.72884 -1.04668 0
M  V30 3822 C 377.006 -0.511477 -1.88173 0
M  V30 3823 O 376.276 0.474407 -1.90069 0
M  V30 3824 H 374.856 -0.637461 -0.389425 0
M  V30 3825 H 377.518 -1.91807 -0.345852 0
M  V30 3826 H 376.614 -2.61334 -1.70619 0
M  V30 3827 N 376.915 0.57481 -1.46744 0
M  V30 3828 C 378.164 1.32898 -1.51727 0
M  V30 3829 C 378.477 1.948 -0.176692 0
M  V30 3830 O 379.683 2.71299 -0.104385 0
M  V30 3831 C 378.139 2.40901 -2.67385 0
M  V30 3832 C 377.747 1.85266 -4.07898 0
M  V30 3833 C 379.491 3.17609 -2.81646 0
M  V30 3834 C 377.398 2.90945 -5.14883 0
M  V30 3835 H 376.328 0.499631 -0.564699 0
M  V30 3836 H 378.979 0.612536 -1.72975 0
M  V30 3837 H 377.361 3.15379 -2.39483 0
M  V30 3838 H 378.535 1.17278 -4.45626 0
M  V30 3839 H 376.85 1.21199 -3.98371 0
M  V30 3840 H 379.447 3.96493 -3.58744 0
M  V30 3841 H 379.79 3.70696 -1.89448 0
M  V30 3842 H 380.323 2.50239 -3.09233 0
M  V30 3843 H 377.062 2.42736 -6.089 0
M  V30 3844 H 376.582 3.57398 -4.81691 0
M  V30 3845 H 378.261 3.54755 -5.41071 0
M  V30 3846 N 378.394 1.34581 0.820102 0
M  V30 3847 C 379.642 1.26845 1.57336 0
M  V30 3848 C 379.963 -0.160667 1.94337 0
M  V30 3849 O 379.233 -1.09396 1.6251 0
M  V30 3850 H 377.813 0.466514 0.583415 0
M  V30 3851 H 380.475 1.68526 0.979027 0
M  V30 3852 H 379.571 1.87513 2.4949 0
M  V30 3853 N 379.872 -1.04064 1.18357 0
M  V30 3854 C 381.283 -1.58719 0.98312 0
M  V30 3855 C 381.634 -1.90556 -0.467193 0
M  V30 3856 O 380.759 -1.69561 -1.34454 0
M  V30 3857 C 381.354 -2.88379 1.77828 0
M  V30 3858 C 379.913 -3.3965 1.62218 0
M  V30 3859 C 379.06 -2.13235 1.77274 0
M  V30 3860 H 382.011 -0.867359 1.32901 0
M  V30 3861 H 382.032 -3.58773 1.26737 0
M  V30 3862 H 381.544 -2.65176 2.83379 0
M  V30 3863 H 379.645 -3.67866 0.592036 0
M  V30 3864 H 379.758 -4.13475 2.42023 0
M  V30 3865 H 378.122 -2.24542 1.20221 0
M  V30 3866 H 378.905 -1.92487 2.8426 0
M  V30 3867 N 381.35 -0.985608 -1.22978 0
M  V30 3868 C 382.596 -0.65836 -1.91816 0
M  V30 3869 C 382.929 0.806692 -1.76653 0
M  V30 3870 O 382.204 1.58252 -1.13078 0
M  V30 3871 C 382.487 -1.056 -3.44268 0
M  V30 3872 C 382.34 -2.57906 -3.68516 0
M  V30 3873 C 383.659 -0.603781 -4.35939 0
M  V30 3874 H 380.778 -0.24065 -0.696604 0
M  V30 3875 H 383.42 -1.22783 -1.44998 0
M  V30 3876 H 381.57 -0.571445 -3.84274 0
M  V30 3877 H 383.242 -3.13976 -3.3796 0
M  V30 3878 H 381.485 -3.00305 -3.13048 0
M  V30 3879 H 382.156 -2.80779 -4.75255 0
M  V30 3880 H 384.632 -1.01987 -4.03408 0
M  V30 3881 H 383.508 -0.910383 -5.41298 0
M  V30 3882 H 383.769 0.495761 -4.39312 0
M  V30 3883 N 382.828 1.3818 -0.7579 0
M  V30 3884 C 383.778 2.27741 -0.108674 0
M  V30 3885 C 384.762 1.45415 0.688709 0
M  V30 3886 O 385.954 1.68108 0.553956 0
M  V30 3887 C 383.083 3.34313 0.780367 0
M  V30 3888 C 382.169 4.24093 -0.0240977 0
M  V30 3889 N 382.56 4.9451 -1.06271 0
M  V30 3890 C 380.858 4.45542 0.202049 0
M  V30 3891 C 381.559 5.60675 -1.54979 0
M  V30 3892 N 380.535 5.36684 -0.864348 0
M  V30 3893 H 384.337 2.79649 -0.904071 0
M  V30 3894 H 381.851 1.51133 -0.594346 0
M  V30 3895 H 383.848 3.97368 1.26114 0
M  V30 3896 H 382.508 2.83962 1.57467 0
M  V30 3897 H 383.519 4.97345 -1.44459 0
M  V30 3898 H 380.196 4.06091 0.96935 0
M  V30 3899 H 381.586 6.26992 -2.41517 0
M  V30 3900 N 384.306 0.507319 1.49211 0
M  V30 3901 C 385.256 -0.287112 2.26185 0
M  V30 3902 C 386.24 -0.929983 1.31302 0
M  V30 3903 O 387.432 -0.836538 1.55984 0
M  V30 3904 C 384.561 -1.34718 3.15763 0
M  V30 3905 C 383.647 -0.710235 4.18111 0
M  V30 3906 N 384.038 0.190836 5.0544 0
M  V30 3907 C 382.336 -0.97009 4.35322 0
M  V30 3908 C 383.037 0.55606 5.79036 0
M  V30 3909 N 382.013 -0.0775232 5.43545 0
M  V30 3910 H 385.815 0.406445 2.91076 0
M  V30 3911 H 383.329 0.323814 1.59139 0
M  V30 3912 H 385.326 -1.92982 3.69545 0
M  V30 3913 H 383.986 -2.04235 2.52424 0
M  V30 3914 H 384.997 0.562047 5.14841 0
M  V30 3915 H 381.674 -1.65753 3.83187 0
M  V30 3916 H 383.064 1.2936 6.5933 0
M  V30 3917 N 385.784 -1.5574 0.241426 0
M  V30 3918 C 387.031 -1.9881 -0.384836 0
M  V30 3919 C 387.359 -1.12947 -1.58346 0
M  V30 3920 O 386.614 -0.178993 -1.9488 0
M  V30 3921 C 386.913 -3.47308 -0.843317 0
M  V30 3922 C 386.579 -4.50223 0.246946 0
M  V30 3923 C 385.241 -4.78088 0.546399 0
M  V30 3924 C 387.593 -5.11841 0.983282 0
M  V30 3925 C 384.921 -5.64846 1.58636 0
M  V30 3926 C 387.273 -5.99727 2.01272 0
M  V30 3927 C 385.937 -6.25927 2.31888 0
M  V30 3928 H 385.207 -0.727496 -0.140821 0
M  V30 3929 H 387.854 -1.8831 0.348106 0
M  V30 3930 H 386.159 -3.55112 -1.65537 0
M  V30 3931 H 387.856 -3.78017 -1.33806 0
M  V30 3932 H 384.446 -4.286 0.00340639 0
M  V30 3933 H 388.63 -4.90366 0.765182 0
M  V30 3934 H 383.886 -5.83403 1.82896 0
M  V30 3935 H 388.06 -6.46517 2.58823 0
M  V30 3936 H 385.687 -6.92949 3.12611 0
M  V30 3937 N 387.262 0.0317525 -1.57568 0
M  V30 3938 C 388.212 1.04101 -2.02847 0
M  V30 3939 C 389.196 1.3219 -0.917317 0
M  V30 3940 O 390.388 1.31819 -1.18121 0
M  V30 3941 C 387.517 2.34295 -2.5092 0
M  V30 3942 C 386.603 2.09308 -3.68851 0
M  V30 3943 N 386.994 1.5437 -4.81667 0
M  V30 3944 C 385.292 2.39604 -3.76172 0
M  V30 3945 C 385.993 1.45126 -5.63306 0
M  V30 3946 N 384.969 1.92589 -5.08341 0
M  V30 3947 H 388.771 0.610217 -2.87495 0
M  V30 3948 H 386.285 0.238108 -1.60645 0
M  V30 3949 H 388.282 3.07404 -2.81617 0
M  V30 3950 H 386.942 2.78055 -1.67677 0
M  V30 3951 H 387.953 1.22678 -5.03161 0
M  V30 3952 H 384.63 2.86457 -3.03724 0
M  V30 3953 H 386.02 1.03163 -6.63933 0
M  V30 3954 N 388.74 1.54641 0.303973 0
M  V30 3955 C 389.703 1.84646 1.35789 0
M  V30 3956 C 390.703 0.7192 1.4382 0
M  V30 3957 O 391.893 0.987491 1.43507 0
M  V30 3958 C 389.025 2.02407 2.74307 0
M  V30 3959 H 390.218 2.78829 1.10429 0
M  V30 3960 H 387.771 1.46658 0.540487 0
M  V30 3961 H 388.506 1.10502 3.04893 0
M  V30 3962 H 388.291 2.84453 2.69868 0
M  V30 3963 H 389.781 2.27002 3.50514 0
M  V30 3964 N 390.218 -0.567019 1.47046 0
M  V30 3965 C 391.464 -1.32434 1.54379 0
M  V30 3966 C 391.819 -1.91365 0.199276 0
M  V30 3967 O 391.112 -1.74378 -0.793915 0
M  V30 3968 C 391.306 -2.4623 2.59047 0
M  V30 3969 C 391.135 -1.98448 4.03545 0
M  V30 3970 C 389.905 -1.82741 4.71098 0
M  V30 3971 C 392.103 -1.53477 4.90866 0
M  V30 3972 N 390.085 -1.29196 6.00151 0
M  V30 3973 C 391.456 -1.1163 6.09868 0
M  V30 3974 C 393.511 -1.41438 4.77388 0
M  V30 3975 C 392.214 -0.589425 7.16881 0
M  V30 3976 C 394.24 -0.901528 5.84488 0
M  V30 3977 C 393.602 -0.492932 7.02673 0
M  V30 3978 H 389.701 -0.477005 0.61967 0
M  V30 3979 H 392.285 -0.643856 1.83746 0
M  V30 3980 H 390.456 -3.11821 2.31564 0
M  V30 3981 H 392.188 -3.13213 2.56281 0
M  V30 3982 H 388.943 -2.05162 4.26855 0
M  V30 3983 H 389.367 -1.0454 6.6888 0
M  V30 3984 H 394.009 -1.71643 3.86392 0
M  V30 3985 H 391.727 -0.274994 8.07632 0
M  V30 3986 H 395.313 -0.812071 5.76105 0
M  V30 3987 H 394.193 -0.102227 7.84133 0
M  V30 3988 N 391.696 -1.35014 -0.812953 0
M  V30 3989 C 392.942 -1.29129 -1.57154 0
M  V30 3990 C 393.297 0.134922 -1.91926 0
M  V30 3991 O 392.59 1.08373 -1.58006 0
M  V30 3992 C 392.784 -2.12524 -2.87347 0
M  V30 3993 C 392.613 -3.6311 -2.65294 0
M  V30 3994 C 391.383 -4.32363 -2.61516 0
M  V30 3995 C 393.581 -4.56897 -2.36114 0
M  V30 3996 N 391.563 -5.68735 -2.31113 0
M  V30 3997 C 392.934 -5.81345 -2.15494 0
M  V30 3998 C 394.989 -4.45706 -2.21925 0
M  V30 3999 C 393.692 -6.95862 -1.82122 0
M  V30 4000 C 395.718 -5.60066 -1.89948 0
M  V30 4001 C 395.08 -6.83539 -1.7016 0
M  V30 4002 H 391.179 -0.527764 -0.577052 0
M  V30 4003 H 393.763 -1.6983 -0.952146 0
M  V30 4004 H 391.934 -1.74104 -3.47192 0
M  V30 4005 H 393.666 -1.98207 -3.5284 0
M  V30 4006 H 390.421 -3.84907 -2.75941 0
M  V30 4007 H 390.845 -6.40694 -2.18724 0
M  V30 4008 H 395.487 -3.50855 -2.35925 0
M  V30 4009 H 393.205 -7.90685 -1.6686 0
M  V30 4010 H 396.791 -5.53357 -1.79687 0
M  V30 4011 H 395.671 -7.70531 -1.45777 0
M  V30 4012 O 393.213 0.951708 -1.30479 0
M  V30 4013 H 393.904 1.58029 -1.12012 0
M  V30 END ATOM
M  V30 BEGIN BOND
M  V30 END BOND
M  V30 END CTAB
M  END
$$$$
