drugbank_target|P76577 Penicillin-binding protein 1C (DB01327; DB09050)
 OpenBabel12092120373D

  0  0  0     0  0            999 V3000
M  V30 BEGIN CTAB
M  V30 COUNTS 12044 12210 0 0 0
M  V30 BEGIN ATOM
M  V30 1 H -0.908 1.98254 -0.117106 0
M  V30 2 N 0 1.576 0 0
M  V30 3 C 0.933 2.03868 1.02534 0
M  V30 4 C 1.911 0.928543 1.3348 0
M  V30 5 O 3.095 1.19667 1.45644 0
M  V30 6 C 0.222 2.43627 2.35294 0
M  V30 7 C -0.732 3.65373 2.2001 0
M  V30 8 S 0.101 5.13292 1.52614 0
M  V30 9 C 1.257 5.56322 2.86805 0
M  V30 10 H 1.49 2.90518 0.631377 0
M  V30 11 H -0.977 1.52953 0.210867 0
M  V30 12 H 0.981 2.67203 3.11629 0
M  V30 13 H -0.358 1.57376 2.7183 0
M  V30 14 H -1.165 3.90944 3.18086 0
M  V30 15 H -1.563 3.418 1.51819 0
M  V30 16 H 0.729 5.58782 3.83104 0
M  V30 17 H 1.672 6.56266 2.65933 0
M  V30 18 H 2.08 4.83886 2.90714 0
M  V30 19 N 1.4781 -0.272755 1.55222 0
M  V30 20 C 2.8891 -0.84378 1.66545 0
M  V30 21 C 3.2401 -1.87035 0.592641 0
M  V30 22 O 2.3651 -2.14761 -0.265818 0
M  V30 23 C 2.9601 -1.53723 3.01918 0
M  V30 24 C 1.5191 -2.05628 3.15268 0
M  V30 25 C 0.6661 -0.898424 2.62343 0
M  V30 26 H 3.6171 -0.0490998 1.58624 0
M  V30 27 H 3.6381 -2.40421 2.94921 0
M  V30 28 H 3.1501 -0.78983 3.79978 0
M  V30 29 H 1.2511 -2.83329 2.41983 0
M  V30 30 H 1.3641 -2.27142 4.21833 0
M  V30 31 H -0.2719 -1.29186 2.19506 0
M  V30 32 H 0.5111 -0.164528 3.42906 0
M  V30 33 N 2.9562 -1.48159 -0.537278 0
M  V30 34 C 4.3722 -1.34118 -0.865129 0
M  V30 35 C 4.5722 -0.346678 -1.98495 0
M  V30 36 O 3.6282 0.234715 -2.51407 0
M  V30 37 C 4.9412 -2.73963 -1.23954 0
M  V30 38 C 6.4892 -2.82397 -1.34984 0
M  V30 39 C 6.9642 -4.22928 -1.75772 0
M  V30 40 N 8.4552 -4.25566 -1.82887 0
M  V30 41 C 9.1902 -5.31235 -2.15817 0
M  V30 42 N 8.6862 -6.47189 -2.47222 0
M  V30 43 N 10.4792 -5.18624 -2.16761 0
M  V30 44 H 2.6302 -2.1144 0.201715 0
M  V30 45 H 4.8932 -0.947598 0.0275949 0
M  V30 46 H 4.5992 -3.48264 -0.490381 0
M  V30 47 H 4.4732 -3.0702 -2.19132 0
M  V30 48 H 6.8602 -2.08356 -2.08978 0
M  V30 49 H 6.9412 -2.5297 -0.379448 0
M  V30 50 H 6.5852 -4.97482 -1.02341 0
M  V30 51 H 6.5152 -4.49794 -2.73848 0
M  V30 52 H 9.0062 -3.41924 -1.60924 0
M  V30 53 H 9.3192 -7.23564 -2.71433 0
M  V30 54 H 7.6642 -6.50476 -2.44757 0
M  V30 55 H 10.8552 -4.27056 -1.91679 0
M  V30 56 H 11.0282 -6.01078 -2.42093 0
M  V30 57 N 4.4343 0.785586 -1.36625 0
M  V30 58 C 5.3643 1.91259 -1.33949 0
M  V30 59 C 6.3453 1.68795 -0.210325 0
M  V30 60 O 7.5303 1.89854 -0.408561 0
M  V30 61 C 4.6603 3.28339 -1.13186 0
M  V30 62 C 3.6143 3.65335 -2.22967 0
M  V30 63 C 2.9403 5.00806 -1.87342 0
M  V30 64 C 4.2403 3.7352 -3.65075 0
M  V30 65 H 5.9343 1.93755 -2.28253 0
M  V30 66 H 3.4803 0.930788 -1.09874 0
M  V30 67 H 5.4333 4.06804 -1.09948 0
M  V30 68 H 4.1573 3.2624 -0.153332 0
M  V30 69 H 2.8163 2.89169 -2.25337 0
M  V30 70 H 2.4643 4.95233 -0.880545 0
M  V30 71 H 2.1643 5.26529 -2.60846 0
M  V30 72 H 3.6883 5.81687 -1.85667 0
M  V30 73 H 5.1023 4.42168 -3.64911 0
M  V30 74 H 3.4993 4.10731 -4.37516 0
M  V30 75 H 4.5693 2.74527 -3.99703 0
M  V30 76 N 5.9124 1.20967 1.01018 0
M  V30 77 C 6.8424 0.988272 2.11555 0
M  V30 78 C 7.8234 -0.0849778 1.69888 0
M  V30 79 O 9.0084 0.0738202 1.9406 0
M  V30 80 C 6.1384 0.546528 3.42973 0
M  V30 81 C 5.0924 1.56375 3.9841 0
M  V30 82 C 4.4184 0.97842 5.25672 0
M  V30 83 C 5.7184 2.94922 4.31066 0
M  V30 84 H 7.4124 1.91276 2.30334 0
M  V30 85 H 4.9584 0.921073 1.1069 0
M  V30 86 H 6.9114 0.378839 4.19694 0
M  V30 87 H 5.6354 -0.413598 3.23971 0
M  V30 88 H 4.2944 1.71891 3.23804 0
M  V30 89 H 3.9424 0.0101688 5.02999 0
M  V30 90 H 3.6424 1.65784 5.63728 0
M  V30 91 H 5.1664 0.821939 6.05043 0
M  V30 92 H 6.5804 2.8288 4.9865 0
M  V30 93 H 4.9774 3.5983 4.80253 0
M  V30 94 H 6.0474 3.4616 3.39561 0
M  V30 95 N 7.3905 -1.2043 1.01659 0
M  V30 96 C 8.6185 -1.93777 0.725132 0
M  V30 97 C 9.0335 -1.74772 -0.714166 0
M  V30 98 O 8.3905 -1.06169 -1.4844 0
M  V30 99 C 8.4415 -3.45876 1.05129 0
M  V30 100 O 8.1625 -3.6426 2.43406 0
M  V30 101 C 9.6635 -4.36368 0.780891 0
M  V30 102 H 6.8835 -0.615901 0.266284 0
M  V30 103 H 9.4275 -1.52922 1.35776 0
M  V30 104 H 7.5825 -3.8461 0.464065 0
M  V30 105 H 7.9965 -4.58246 2.55169 0
M  V30 106 H 9.4705 -5.41743 1.05918 0
M  V30 107 H 9.9475 -4.38275 -0.284937 0
M  V30 108 H 10.5535 -4.03296 1.35027 0
M  V30 109 N 8.8686 -0.792821 -1.36206 0
M  V30 110 C 9.8156 -0.191653 -2.30003 0
M  V30 111 C 10.7856 0.666453 -1.52143 0
M  V30 112 O 11.9706 0.61442 -1.80636 0
M  V30 113 C 9.1106 0.664848 -3.38635 0
M  V30 114 C 8.2236 -0.212175 -4.31479 0
M  V30 115 C 7.3586 0.651022 -5.27196 0
M  V30 116 C 6.3976 -0.227247 -6.11678 0
M  V30 117 N 5.5346 0.595127 -6.99573 0
M  V30 118 H 10.3746 -0.996978 -2.80828 0
M  V30 119 H 7.9116 -0.503206 -1.38225 0
M  V30 120 H 9.8696 1.17645 -4.00269 0
M  V30 121 H 8.4996 1.43557 -2.89122 0
M  V30 122 H 7.5516 -0.841777 -3.70969 0
M  V30 123 H 8.8636 -0.888751 -4.90818 0
M  V30 124 H 8.0176 1.2283 -5.94136 0
M  V30 125 H 6.7566 1.36121 -4.68319 0
M  V30 126 H 5.7616 -0.816904 -5.43697 0
M  V30 127 H 6.9866 -0.93509 -6.72631 0
M  V30 128 H 4.9326 1.28955 -6.432 0
M  V30 129 H 4.8496 -0.0236952 -7.55996 0
M  V30 130 H 6.1176 1.15613 -7.70879 0
M  V30 131 N 10.3467 1.47872 -0.545128 0
M  V30 132 C 11.7627 1.5829 -0.204032 0
M  V30 133 C 11.9627 1.54529 1.29317 0
M  V30 134 O 11.0187 1.44232 2.07252 0
M  V30 135 C 12.3317 2.89304 -0.819987 0
M  V30 136 C 13.8797 3.02864 -0.790105 0
M  V30 137 C 14.3547 4.3656 -1.38491 0
M  V30 138 N 15.8457 4.43165 -1.34755 0
M  V30 139 C 16.5807 5.45153 -1.77753 0
M  V30 140 N 16.0767 6.54016 -2.2855 0
M  V30 141 N 17.8697 5.36125 -1.68897 0
M  V30 142 H 10.0207 1.4856 -1.51802 0
M  V30 143 H 12.2837 0.706305 -0.632327 0
M  V30 144 H 11.9897 2.97757 -1.87173 0
M  V30 145 H 11.8637 3.75957 -0.305915 0
M  V30 146 H 14.2507 2.94014 0.252913 0
M  V30 147 H 14.3317 2.17782 -1.34181 0
M  V30 148 H 13.9757 4.46164 -2.42693 0
M  V30 149 H 13.9057 5.20353 -0.808754 0
M  V30 150 H 16.3967 3.65083 -0.975855 0
M  V30 151 H 16.7097 7.27994 -2.59314 0
M  V30 152 H 15.0547 6.54938 -2.32553 0
M  V30 153 H 18.2457 4.49975 -1.28998 0
M  V30 154 H 18.4187 6.15472 -2.02726 0
M  V30 155 N 11.8248 0.280983 1.55075 0
M  V30 156 C 13.0728 -0.333455 1.9933 0
M  V30 157 C 13.3938 -1.55937 1.17085 0
M  V30 158 O 12.6638 -1.94143 0.261805 0
M  V30 159 H 11.2438 -0.126197 0.736263 0
M  V30 160 H 13.9058 0.387678 1.91005 0
M  V30 161 H 13.0018 -0.619292 3.05894 0
M  V30 162 N 13.3029 -1.57598 0.00835791 0
M  V30 163 C 14.5429 -1.92788 -0.679136 0
M  V30 164 C 14.9069 -0.883378 -1.70471 0
M  V30 165 O 16.1079 -1.12079 -2.44319 0
M  V30 166 C 14.3789 -3.32994 -1.29807 0
M  V30 167 S 15.9379 -3.90082 -2.00952 0
M  V30 168 H 12.7559 -0.67475 -0.224127 0
M  V30 169 H 15.3579 -1.95385 0.0670497 0
M  V30 170 H 14.0619 -4.06846 -0.538922 0
M  V30 171 H 13.5929 -3.33791 -2.082 0
M  V30 172 H 15.6079 -3.71834 -3.28563 0
M  V30 173 N 14.781 0.264519 -1.55364 0
M  V30 174 C 16.027 0.992314 -1.77552 0
M  V30 175 C 16.382 1.83626 -0.574379 0
M  V30 176 O 15.675 1.86648 0.432782 0
M  V30 177 C 15.869 1.9004 -3.02687 0
M  V30 178 C 15.698 1.14583 -4.34857 0
M  V30 179 C 14.468 0.858068 -4.97961 0
M  V30 180 C 16.666 0.532069 -5.1154 0
M  V30 181 N 14.648 0.0775974 -6.13851 0
M  V30 182 C 16.019 -0.113823 -6.19896 0
M  V30 183 C 18.074 0.440763 -4.95945 0
M  V30 184 C 16.777 -0.842231 -7.14352 0
M  V30 185 C 18.803 -0.274072 -5.90765 0
M  V30 186 C 18.165 -0.90867 -6.98515 0
M  V30 187 H 14.264 0.344811 -0.701875 0
M  V30 188 H 16.848 0.267141 -1.92859 0
M  V30 189 H 15.019 2.59775 -2.88741 0
M  V30 190 H 16.751 2.56243 -3.13243 0
M  V30 191 H 13.506 1.16547 -4.59036 0
M  V30 192 H 13.93 -0.300216 -6.76334 0
M  V30 193 H 18.572 0.917064 -4.12735 0
M  V30 194 H 16.29 -1.33019 -7.97077 0
M  V30 195 H 19.876 -0.345151 -5.80775 0
M  V30 196 H 18.756 -1.45299 -7.70622 0
M  V30 197 N 16.2591 1.48442 0.529413 0
M  V30 198 C 17.5081 1.55742 1.28169 0
M  V30 199 C 17.8211 0.236511 1.94165 0
M  V30 200 O 19.0271 0.187761 2.7085 0
M  V30 201 C 17.4831 2.74667 2.32564 0
M  V30 202 C 17.0911 4.13402 1.72636 0
M  V30 203 C 18.8351 2.9128 3.08798 0
M  V30 204 C 16.7421 5.23587 2.74975 0
M  V30 205 H 15.6721 0.579796 0.48203 0
M  V30 206 H 18.3231 1.74776 0.559056 0
M  V30 207 H 16.7051 2.49067 3.07866 0
M  V30 208 H 17.8791 4.49022 1.03519 0
M  V30 209 H 16.1941 4.0191 1.08892 0
M  V30 210 H 18.7911 3.70767 3.85274 0
M  V30 211 H 19.1341 2.00757 3.64695 0
M  V30 212 H 19.6671 3.16782 2.40611 0
M  V30 213 H 16.4061 6.16076 2.23897 0
M  V30 214 H 15.9261 4.92454 3.42417 0
M  V30 215 H 17.6051 5.51724 3.37949 0
M  V30 216 N 17.7372 -0.778329 1.37039 0
M  V30 217 C 18.9652 -1.56734 1.35063 0
M  V30 218 C 19.3802 -1.88686 -0.0655597 0
M  V30 219 O 18.7372 -1.5096 -1.02554 0
M  V30 220 C 18.7882 -2.88163 2.18276 0
M  V30 221 O 18.5092 -2.57583 3.54376 0
M  V30 222 C 20.0102 -3.82422 2.24206 0
M  V30 223 H 17.2302 -0.485778 0.462883 0
M  V30 224 H 19.7742 -0.965185 1.8029 0
M  V30 225 H 17.9292 -3.44818 1.76576 0
M  V30 226 H 18.3432 -3.41699 3.97922 0
M  V30 227 H 19.8172 -4.71667 2.86765 0
M  V30 228 H 20.2942 -4.21078 1.24861 0
M  V30 229 H 20.9002 -3.31697 2.6619 0
M  V30 230 N 19.2153 -1.21501 -1.00376 0
M  V30 231 C 20.1453 -0.999478 -2.11028 0
M  V30 232 C 21.1263 0.0759671 -1.6993 0
M  V30 233 O 22.3113 -0.0841106 -1.94018 0
M  V30 234 C 19.4413 -0.564709 -3.42678 0
M  V30 235 C 18.3953 -1.58486 -3.97576 0
M  V30 236 C 17.7213 -1.00628 -5.25146 0
M  V30 237 C 19.0213 -2.97204 -4.29496 0
M  V30 238 H 20.7153 -1.92495 -2.29317 0
M  V30 239 H 18.2613 -0.92693 -1.102 0
M  V30 240 H 20.2143 -0.401091 -4.19487 0
M  V30 241 H 18.9383 0.396411 -3.24185 0
M  V30 242 H 17.5973 -1.73606 -3.22888 0
M  V30 243 H 17.2453 -0.0368439 -5.02987 0
M  V30 244 H 16.9453 -1.68771 -5.62841 0
M  V30 245 H 18.4693 -0.854015 -6.04598 0
M  V30 246 H 19.8833 -2.8552 -4.97143 0
M  V30 247 H 18.2803 -3.62372 -4.78338 0
M  V30 248 H 19.3503 -3.47956 -3.3772 0
M  V30 249 N 20.6934 1.19889 -1.02296 0
M  V30 250 C 21.6564 2.21116 -0.603351 0
M  V30 251 C 22.6564 1.5738 0.329884 0
M  V30 252 O 23.8464 1.73802 0.117702 0
M  V30 253 C 20.9784 3.40696 0.117992 0
M  V30 254 H 22.1714 2.59754 -1.49893 0
M  V30 255 H 19.7244 1.33463 -0.813468 0
M  V30 256 H 20.4594 3.07569 1.0282 0
M  V30 257 H 20.2444 3.88188 -0.552511 0
M  V30 258 H 21.7344 4.15692 0.398696 0
M  V30 259 N 22.1715 0.800033 1.35784 0
M  V30 260 C 23.1345 0.211565 2.28221 0
M  V30 261 C 24.1345 -0.59728 1.49296 0
M  V30 262 O 25.3245 -0.416721 1.69142 0
M  V30 263 C 22.4565 -0.705846 3.33513 0
M  V30 264 H 23.6495 1.02677 2.81776 0
M  V30 265 H 21.2025 0.570211 1.45528 0
M  V30 266 H 21.9375 -1.54498 2.85133 0
M  V30 267 H 21.7225 -0.127655 3.91892 0
M  V30 268 H 23.2125 -1.11211 4.02519 0
M  V30 269 N 23.6496 -1.47581 0.552962 0
M  V30 270 C 24.6126 -2.28439 -0.186605 0
M  V30 271 C 25.6126 -1.36706 -0.84665 0
M  V30 272 O 26.8026 -1.59378 -0.703164 0
M  V30 273 C 23.9346 -3.16264 -1.2724 0
M  V30 274 H 25.1276 -2.95294 0.523609 0
M  V30 275 H 22.6806 -1.532 0.309745 0
M  V30 276 H 23.4156 -2.54091 -2.01514 0
M  V30 277 H 23.2006 -3.83769 -0.803968 0
M  V30 278 H 24.6906 -3.77198 -1.79196 0
M  V30 279 N 25.1277 -0.289203 -1.54924 0
M  V30 280 C 26.5387 0.205791 -1.85562 0
M  V30 281 C 26.8897 1.54351 -1.2112 0
M  V30 282 O 26.0147 2.10435 -0.504601 0
M  V30 283 C 26.6097 0.380177 -3.3666 0
M  V30 284 C 25.1687 0.819395 -3.67373 0
M  V30 285 C 24.3157 -0.079159 -2.77187 0
M  V30 286 H 27.2667 -0.510577 -1.50262 0
M  V30 287 H 27.2877 1.21659 -3.60526 0
M  V30 288 H 26.7997 -0.593589 -3.83534 0
M  V30 289 H 24.9007 1.80413 -3.26009 0
M  V30 290 H 25.0137 0.646957 -4.74712 0
M  V30 291 H 23.3777 0.439565 -2.50878 0
M  V30 292 H 24.1607 -1.04906 -3.26878 0
M  V30 293 N 26.6058 1.57591 -0.0167156 0
M  V30 294 C 27.8528 1.91283 0.664597 0
M  V30 295 C 28.1808 0.891949 1.72842 0
M  V30 296 O 27.4358 -0.100931 1.9544 0
M  V30 297 C 27.7348 3.3172 1.33029 0
M  V30 298 C 27.4008 4.4914 0.398047 0
M  V30 299 C 26.0628 4.80992 0.141421 0
M  V30 300 C 28.4148 5.20634 -0.242825 0
M  V30 301 C 25.7428 5.81703 -0.764092 0
M  V30 302 C 28.0948 6.22311 -1.13632 0
M  V30 303 C 26.7588 6.52611 -1.40196 0
M  V30 304 H 26.0288 0.699956 0.243193 0
M  V30 305 H 28.6758 1.9135 -0.0758267 0
M  V30 306 H 26.9808 3.27856 2.14517 0
M  V30 307 H 28.6778 3.55055 1.86379 0
M  V30 308 H 25.2678 4.24262 0.608238 0
M  V30 309 H 29.4518 4.96267 -0.0576019 0
M  V30 310 H 24.7078 6.03532 -0.977732 0
M  V30 311 H 28.8818 6.76834 -1.63917 0
M  V30 312 H 26.5088 7.30467 -2.10529 0
M  V30 313 N 28.0839 -0.256276 1.55502 0
M  V30 314 C 29.0139 -1.32102 1.92539 0
M  V30 315 C 29.9949 -1.50684 0.789194 0
M  V30 316 O 31.1799 -1.63449 1.04872 0
M  V30 317 C 28.3099 -2.67752 2.21192 0
M  V30 318 C 27.2639 -2.63878 3.36975 0
M  V30 319 C 26.5899 -4.03236 3.51147 0
M  V30 320 C 27.8899 -2.21682 4.72921 0
M  V30 321 H 29.5839 -1.01351 2.81724 0
M  V30 322 H 27.1299 -0.486105 1.35547 0
M  V30 323 H 29.0829 -3.42365 2.45691 0
M  V30 324 H 27.8069 -3.0012 1.28824 0
M  V30 325 H 26.4659 -1.91722 3.12471 0
M  V30 326 H 26.1139 -4.32854 2.56216 0
M  V30 327 H 25.8139 -4.01535 4.29003 0
M  V30 328 H 27.3379 -4.79563 3.77957 0
M  V30 329 H 28.7519 -2.86023 4.96854 0
M  V30 330 H 27.1489 -2.3111 5.53812 0
M  V30 331 H 28.2189 -1.16833 4.70615 0
M  V30 332 N 29.562 -1.4872 -0.521534 0
M  V30 333 C 30.492 -1.66771 -1.63431 0
M  V30 334 C 31.473 -0.516499 -1.62069 0
M  V30 335 O 32.658 -0.750013 -1.79132 0
M  V30 336 C 29.788 -1.71515 -3.01993 0
M  V30 337 C 28.742 -2.86222 -3.18216 0
M  V30 338 C 28.068 -2.76061 -4.57924 0
M  V30 339 C 29.368 -4.27419 -3.00184 0
M  V30 340 H 31.062 -2.59932 -1.48579 0
M  V30 341 H 28.608 -1.25089 -0.713358 0
M  V30 342 H 30.561 -1.82731 -3.7972 0
M  V30 343 H 29.285 -0.749393 -3.17886 0
M  V30 344 H 27.944 -2.74575 -2.42908 0
M  V30 345 H 27.592 -1.77437 -4.70665 0
M  V30 346 H 27.292 -3.53037 -4.69722 0
M  V30 347 H 28.816 -2.89256 -5.37739 0
M  V30 348 H 30.23 -4.39855 -3.67697 0
M  V30 349 H 28.627 -5.05458 -3.2347 0
M  V30 350 H 29.697 -4.43293 -1.96518 0
M  V30 351 N 31.0401 0.771051 -1.3745 0
M  V30 352 C 32.2871 1.52963 -1.32697 0
M  V30 353 C 32.6151 1.94299 0.0883274 0
M  V30 354 O 31.8701 1.64397 1.0617 0
M  V30 355 C 32.1691 2.80676 -2.2126 0
M  V30 356 C 31.8351 2.58389 -3.69521 0
M  V30 357 C 30.4971 2.52019 -4.09927 0
M  V30 358 C 32.8491 2.38469 -4.63446 0
M  V30 359 C 30.1771 2.23721 -5.42371 0
M  V30 360 C 32.5291 2.11694 -5.96128 0
M  V30 361 C 31.1931 2.03769 -6.35637 0
M  V30 362 H 30.4631 0.559732 -0.485573 0
M  V30 363 H 33.1101 0.888083 -1.69662 0
M  V30 364 H 31.4151 3.49392 -1.77291 0
M  V30 365 H 33.1121 3.38557 -2.14895 0
M  V30 366 H 29.7021 2.6421 -3.37478 0
M  V30 367 H 33.8861 2.4238 -4.33089 0
M  V30 368 H 29.1421 2.16081 -5.71943 0
M  V30 369 H 33.3161 1.9528 -6.6846 0
M  V30 370 H 30.9431 1.81606 -7.38189 0
M  V30 371 N 32.5182 1.22032 0.997298 0
M  V30 372 C 33.4482 1.01065 2.10495 0
M  V30 373 C 34.4292 -0.0669542 1.69968 0
M  V30 374 O 35.6142 0.0943987 1.9397 0
M  V30 375 C 32.7442 0.582874 3.42374 0
M  V30 376 C 31.6982 1.60592 3.96729 0
M  V30 377 C 31.0242 1.03412 5.24605 0
M  V30 378 C 32.3242 2.99478 4.27914 0
M  V30 379 H 34.0182 1.93708 2.28292 0
M  V30 380 H 31.5642 0.932761 1.09707 0
M  V30 381 H 33.5172 0.423332 4.19268 0
M  V30 382 H 32.2412 -0.379213 3.24391 0
M  V30 383 H 30.9002 1.75316 3.21963 0
M  V30 384 H 30.5482 0.063518 5.0296 0
M  V30 385 H 30.2482 1.71754 5.61938 0
M  V30 386 H 31.7722 0.886066 6.04137 0
M  V30 387 H 33.1862 2.88153 4.95622 0
M  V30 388 H 31.5832 3.64903 4.76409 0
M  V30 389 H 32.6532 3.49742 3.3587 0
M  V30 390 N 33.9963 -1.19345 1.0293 0
M  V30 391 C 34.9593 -2.20793 0.615069 0
M  V30 392 C 35.9593 -1.57553 -0.321533 0
M  V30 393 O 37.1493 -1.73862 -0.108483 0
M  V30 394 C 34.2813 -3.40754 -0.0999222 0
M  V30 395 H 35.4743 -2.58955 1.51269 0
M  V30 396 H 33.0273 -1.3303 0.820534 0
M  V30 397 H 33.7623 -3.0811 -1.01187 0
M  V30 398 H 33.5473 -3.87889 0.57309 0
M  V30 399 H 35.0373 -4.15898 -0.376645 0
M  V30 400 N 35.4744 -0.807222 -1.35358 0
M  V30 401 C 36.4374 -0.223665 -2.28106 0
M  V30 402 C 37.4374 0.589354 -1.4961 0
M  V30 403 O 38.6274 0.407745 -1.69361 0
M  V30 404 C 35.7594 0.688149 -3.33882 0
M  V30 405 H 36.9524 -1.04169 -2.81227 0
M  V30 406 H 34.5054 -0.577921 -1.45223 0
M  V30 407 H 35.2404 1.52984 -2.85948 0
M  V30 408 H 35.0254 0.10687 -3.91954 0
M  V30 409 H 36.5154 1.09075 -4.03104 0
M  V30 410 N 36.9525 1.47285 -0.560781 0
M  V30 411 C 38.1985 2.03347 -0.0463654 0
M  V30 412 C 38.5535 1.42702 1.2905 0
M  V30 413 O 37.8465 0.574619 1.8278 0
M  V30 414 C 38.0405 3.57258 0.100784 0
M  V30 415 C 37.8695 4.32827 -1.22027 0
M  V30 416 C 36.6395 4.72588 -1.78854 0
M  V30 417 C 38.8375 4.67739 -2.13834 0
M  V30 418 N 36.8195 5.32816 -3.04927 0
M  V30 419 C 38.1905 5.28307 -3.24487 0
M  V30 420 C 40.2455 4.49667 -2.13784 0
M  V30 421 C 38.9485 5.72711 -4.35194 0
M  V30 422 C 40.9745 4.95073 -3.23506 0
M  V30 423 C 40.3365 5.55693 -4.32879 0
M  V30 424 H 36.4355 0.779755 -0.0592166 0
M  V30 425 H 39.0195 1.79723 -0.748857 0
M  V30 426 H 37.1905 3.80642 0.772404 0
M  V30 427 H 38.9225 3.9996 0.617589 0
M  V30 428 H 35.6775 4.54656 -1.32609 0
M  V30 429 H 36.1015 5.67471 -3.69197 0
M  V30 430 H 40.7435 4.02154 -1.30507 0
M  V30 431 H 38.4615 6.19214 -5.1923 0
M  V30 432 H 42.0475 4.82859 -3.24559 0
M  V30 433 H 40.9275 5.90188 -5.1638 0
M  V30 434 N 38.4306 0.297415 1.54768 0
M  V30 435 C 39.6786 -0.312295 1.99673 0
M  V30 436 C 39.9996 -1.54686 1.18732 0
M  V30 437 O 39.2696 -1.93854 0.282382 0
M  V30 438 H 37.8496 -0.118381 0.73756 0
M  V30 439 H 40.5116 0.407915 1.90583 0
M  V30 440 H 39.6076 -0.586813 3.06534 0
M  V30 441 N 39.9087 -1.5758 0.0250728 0
M  V30 442 C 40.8717 -2.08896 -0.943139 0
M  V30 443 C 41.8717 -1.00321 -1.25668 0
M  V30 444 O 43.0617 -1.26495 -1.19769 0
M  V30 445 C 40.1937 -2.55143 -2.26086 0
M  V30 446 H 41.3867 -2.95723 -0.498775 0
M  V30 447 H 38.9397 -1.54703 -0.222888 0
M  V30 448 H 39.6747 -1.71633 -2.75159 0
M  V30 449 H 39.4597 -3.34461 -2.04641 0
M  V30 450 H 40.9497 -2.95083 -2.95492 0
M  V30 451 N 41.3868 0.248026 -1.55636 0
M  V30 452 C 42.6638 0.998988 -1.68165 0
M  V30 453 C 43.0438 2.03409 -0.564621 0
M  V30 454 O 42.3918 2.24378 0.432076 0
M  V30 455 C 42.6018 1.63334 -3.0842 0
M  V30 456 C 43.9498 2.13562 -3.66983 0
M  V30 457 O 44.9738 1.73277 -3.11213 0
M  V30 458 O 43.8328 2.87526 -4.64749 0
M  V30 459 H 40.9268 0.464933 -0.683935 0
M  V30 460 H 43.4728 0.241902 -1.67967 0
M  V30 461 H 42.2448 0.884583 -3.8117 0
M  V30 462 H 41.8678 2.45666 -3.12624 0
M  V30 463 N 42.8649 1.48995 0.513639 0
M  V30 464 C 43.8119 1.6473 1.61656 0
M  V30 465 C 44.7819 0.488984 1.58739 0
M  V30 466 O 45.9669 0.714478 1.76918 0
M  V30 467 C 43.1069 1.7082 2.99858 0
M  V30 468 C 42.2199 2.9787 3.12885 0
M  V30 469 C 41.3549 2.95017 4.41744 0
M  V30 470 C 40.3939 4.16702 4.48359 0
M  V30 471 N 39.5309 4.11832 5.68629 0
M  V30 472 H 44.3709 2.58909 1.47547 0
M  V30 473 H 41.9079 1.28382 0.71808 0
M  V30 474 H 43.8659 1.72331 3.79944 0
M  V30 475 H 42.4959 0.801181 3.12699 0
M  V30 476 H 41.5479 3.06029 2.25944 0
M  V30 477 H 42.8599 3.8786 3.13633 0
M  V30 478 H 42.0139 2.95021 5.30139 0
M  V30 479 H 40.7529 2.02784 4.43542 0
M  V30 480 H 39.7579 4.16955 3.58369 0
M  V30 481 H 40.9829 5.10113 4.48287 0
M  V30 482 H 38.9289 3.22428 5.71293 0
M  V30 483 H 38.8459 4.95543 5.7094 0
M  V30 484 H 40.1139 4.1592 6.59266 0
M  V30 485 N 44.343 -0.763751 1.37857 0
M  V30 486 C 45.273 -1.89103 1.36975 0
M  V30 487 C 46.254 -1.68439 0.237152 0
M  V30 488 O 47.439 -1.8918 0.438713 0
M  V30 489 C 44.569 -3.26496 1.18395 0
M  V30 490 C 43.523 -3.61741 2.28751 0
M  V30 491 C 42.849 -4.97762 1.95286 0
M  V30 492 C 44.149 -3.67665 3.70972 0
M  V30 493 H 45.843 -1.90099 2.31307 0
M  V30 494 H 43.389 -0.91319 1.11341 0
M  V30 495 H 45.342 -4.05003 1.16406 0
M  V30 496 H 44.066 -3.25955 0.205215 0
M  V30 497 H 42.725 -2.85547 2.29909 0
M  V30 498 H 42.373 -4.93769 0.959221 0
M  V30 499 H 42.073 -5.22313 2.69189 0
M  V30 500 H 43.597 -5.7866 1.94898 0
M  V30 501 H 45.011 -4.36307 3.719 0
M  V30 502 H 43.408 -4.03718 4.43995 0
M  V30 503 H 44.478 -2.68134 4.0402 0
M  V30 504 N 45.8211 -1.22559 -0.990812 0
M  V30 505 C 47.0671 -1.06303 -1.73411 0
M  V30 506 C 47.4221 0.397442 -1.8825 0
M  V30 507 O 46.7151 1.29062 -1.41611 0
M  V30 508 C 46.9091 -1.71011 -3.13831 0
M  V30 509 C 46.7381 -3.232 -3.12685 0
M  V30 510 C 45.5081 -3.92314 -3.18461 0
M  V30 511 C 47.7061 -4.20107 -2.96673 0
M  V30 512 N 45.6881 -5.31571 -3.07091 0
M  V30 513 C 47.0591 -5.46208 -2.93354 0
M  V30 514 C 49.1141 -4.10973 -2.8108 0
M  V30 515 C 47.8171 -6.64225 -2.76039 0
M  V30 516 C 49.8431 -5.28642 -2.65126 0
M  V30 517 C 49.2051 -6.53663 -2.62496 0
M  V30 518 H 45.3041 -0.443441 -0.644115 0
M  V30 519 H 47.8881 -1.55131 -1.17654 0
M  V30 520 H 46.0591 -1.2473 -3.67827 0
M  V30 521 H 47.7911 -1.47828 -3.76735 0
M  V30 522 H 44.5461 -3.43326 -3.26227 0
M  V30 523 H 44.9701 -6.0455 -3.0471 0
M  V30 524 H 49.6121 -3.15098 -2.8191 0
M  V30 525 H 47.3301 -7.60246 -2.73954 0
M  V30 526 H 50.9161 -5.23407 -2.54039 0
M  V30 527 H 49.7961 -7.43182 -2.50302 0
M  V30 528 N 47.2992 1.18797 -1.03562 0
M  V30 529 C 48.7102 1.70322 -0.764676 0
M  V30 530 C 49.0612 1.82708 0.714996 0
M  V30 531 O 48.1862 1.50299 1.55689 0
M  V30 532 C 48.7812 3.09356 -1.38145 0
M  V30 533 C 47.3402 3.58114 -1.15895 0
M  V30 534 C 46.4872 2.34798 -1.4753 0
M  V30 535 H 49.4382 1.03543 -1.20268 0
M  V30 536 H 49.4592 3.72378 -0.781977 0
M  V30 537 H 48.9712 3.00309 -2.45837 0
M  V30 538 H 47.0722 3.72464 -0.100544 0
M  V30 539 H 47.1852 4.4184 -1.8524 0
M  V30 540 H 45.5492 2.38464 -0.894829 0
M  V30 541 H 46.3322 2.28375 -2.56319 0
M  V30 542 N 48.7773 0.814389 1.34928 0
M  V30 543 C 49.7073 0.244827 2.32213 0
M  V30 544 C 50.6883 -0.634024 1.57842 0
M  V30 545 O 51.8733 -0.562676 1.8587 0
M  V30 546 C 49.0033 -0.601106 3.42058 0
M  V30 547 C 47.9573 0.179896 4.27622 0
M  V30 548 C 47.2833 -0.788237 5.28858 0
M  V30 549 C 48.5833 1.38329 5.03649 0
M  V30 550 H 50.2773 1.05763 2.80097 0
M  V30 551 H 47.8233 0.510029 1.34665 0
M  V30 552 H 49.7763 -1.00968 4.09125 0
M  V30 553 H 48.5003 -1.44688 2.92802 0
M  V30 554 H 47.1593 0.569739 3.62146 0
M  V30 555 H 46.8073 -1.62973 4.75866 0
M  V30 556 H 46.5073 -0.269942 5.8698 0
M  V30 557 H 48.0313 -1.19485 5.98795 0
M  V30 558 H 49.4453 1.04918 5.63618 0
M  V30 559 H 47.8423 1.83662 5.71304 0
M  V30 560 H 48.9123 2.16592 4.33839 0
M  V30 561 N 50.2554 -1.46986 0.568584 0
M  V30 562 C 51.6664 -1.86188 0.138219 0
M  V30 563 C 52.0174 -1.47388 -1.29504 0
M  V30 564 O 51.1424 -0.88219 -1.97602 0
M  V30 565 C 51.7374 -3.3792 0.244065 0
M  V30 566 C 50.2964 -3.76171 -0.131335 0
M  V30 567 C 49.4434 -2.71027 0.586465 0
M  V30 568 H 52.3944 -1.38342 0.777645 0
M  V30 569 H 52.4154 -3.76729 -0.534351 0
M  V30 570 H 51.9274 -3.66128 1.28731 0
M  V30 571 H 50.0284 -3.5358 -1.17526 0
M  V30 572 H 50.1414 -4.78523 0.235146 0
M  V30 573 H 48.5054 -2.54684 0.0282722 0
M  V30 574 H 49.2884 -3.02077 1.63109 0
M  V30 575 N 51.7335 -0.305618 -1.54608 0
M  V30 576 C 52.6635 0.561482 -2.26649 0
M  V30 577 C 53.6445 1.13415 -1.26772 0
M  V30 578 O 54.8295 1.16262 -1.55553 0
M  V30 579 C 51.9595 1.73122 -3.01075 0
M  V30 580 C 50.9135 1.2887 -4.08138 0
M  V30 581 C 50.2395 2.54396 -4.70305 0
M  V30 582 C 51.5395 0.416578 -5.20636 0
M  V30 583 H 53.2335 -0.0393902 -2.99374 0
M  V30 584 H 50.7795 -0.020385 -1.43986 0
M  V30 585 H 52.7325 2.34396 -3.50195 0
M  V30 586 H 51.4565 2.3584 -2.25936 0
M  V30 587 H 50.1155 0.698991 -3.59875 0
M  V30 588 H 49.7635 3.15439 -3.918 0
M  V30 589 H 49.4635 2.25486 -5.42614 0
M  V30 590 H 50.9875 3.16464 -5.2219 0
M  V30 591 H 52.4015 0.935116 -5.65622 0
M  V30 592 H 50.7985 0.221046 -5.99693 0
M  V30 593 H 51.8685 -0.557162 -4.81688 0
M  V30 594 N 53.2116 1.57565 -0.0334293 0
M  V30 595 C 54.1616 2.06978 0.956237 0
M  V30 596 C 55.1456 0.971193 1.28283 0
M  V30 597 O 56.3376 1.23471 1.26822 0
M  V30 598 C 53.4666 2.60393 2.23719 0
M  V30 599 C 52.5526 3.7719 1.93877 0
M  V30 600 N 52.9436 4.87639 1.34321 0
M  V30 601 C 51.2416 3.85758 2.23845 0
M  V30 602 C 51.9426 5.68825 1.21709 0
M  V30 603 N 50.9186 5.1587 1.71404 0
M  V30 604 H 54.7206 2.89773 0.490815 0
M  V30 605 H 52.2346 1.61492 0.171478 0
M  V30 606 H 54.2316 2.94088 2.95496 0
M  V30 607 H 52.8916 1.79031 2.70884 0
M  V30 608 H 53.9026 5.07803 1.01767 0
M  V30 609 H 50.5796 3.1531 2.73653 0
M  V30 610 H 51.9696 6.67631 0.75621 0
M  V30 611 N 54.6897 -0.239769 1.55765 0
M  V30 612 C 55.5997 -1.31831 1.94056 0
M  V30 613 C 56.6157 -1.52275 0.841925 0
M  V30 614 O 57.7917 -1.65759 1.14394 0
M  V30 615 C 54.8567 -2.65156 2.23368 0
M  V30 616 C 53.9177 -2.53173 3.46701 0
M  V30 617 C 53.1507 -3.8014 3.74606 0
M  V30 618 O 53.3737 -4.82343 3.04469 0
M  V30 619 O 52.3077 -3.78344 4.68123 0
M  V30 620 H 56.1337 -1.02347 2.85935 0
M  V30 621 H 53.7187 -0.441123 1.42739 0
M  V30 622 H 55.6007 -3.43929 2.43497 0
M  V30 623 H 54.2757 -2.94358 1.34666 0
M  V30 624 H 53.1827 -1.72662 3.31871 0
M  V30 625 H 54.5157 -2.28915 4.35728 0
M  V30 626 N 56.1678 -1.49265 -0.50573 0
M  V30 627 C 57.4138 -1.58748 -1.26202 0
M  V30 628 C 57.7468 -0.271227 -1.92297 0
M  V30 629 O 57.0218 0.724831 -1.80489 0
M  V30 630 C 57.3048 -2.74332 -2.33268 0
M  V30 631 C 57.1578 -4.15737 -1.71705 0
M  V30 632 C 58.4768 -2.85576 -3.34865 0
M  V30 633 H 55.5958 -0.577826 -0.457478 0
M  V30 634 H 58.2378 -1.81532 -0.560897 0
M  V30 635 H 56.3878 -2.55036 -2.93068 0
M  V30 636 H 58.0598 -4.46537 -1.15769 0
M  V30 637 H 56.3028 -4.21605 -1.02135 0
M  V30 638 H 56.9738 -4.92477 -2.49341 0
M  V30 639 H 59.4498 -3.03127 -2.8505 0
M  V30 640 H 58.3258 -3.68135 -4.07146 0
M  V30 641 H 58.5868 -1.94732 -3.96903 0
M  V30 642 N 57.6459 0.756429 -1.3826 0
M  V30 643 C 58.5939 1.89149 -1.35372 0
M  V30 644 C 59.5879 1.67691 -0.24004 0
M  V30 645 O 60.7939 1.75294 -0.408919 0
M  V30 646 H 57.1689 0.622271 -0.422236 0
M  V30 647 H 59.1399 1.88701 -2.31159 0
M  V30 648 C 57.8889 3.26599 -1.19284 0
M  V30 649 H 57.2119 3.43695 -2.0424 0
M  V30 650 H 58.6519 4.06274 -1.21316 0
M  V30 651 C 57.1109 3.3675 0.100454 0
M  V30 652 O 57.6409 3.86951 1.07851 0
M  V30 653 N 55.8469 2.90179 0.15633 0
M  V30 654 H 55.3939 2.49517 -0.640253 0
M  V30 655 H 55.3519 2.97352 1.02123 0
M  V30 656 N 59.124 1.23083 0.984299 0
M  V30 657 C 60.535 1.05609 1.5396 0
M  V30 658 C 60.886 -0.377793 1.92528 0
M  V30 659 O 60.011 -1.26398 1.75649 0
M  V30 660 C 60.606 1.91087 2.7977 0
M  V30 661 C 59.165 1.77885 3.31713 0
M  V30 662 C 58.312 1.87028 2.04733 0
M  V30 663 H 61.263 1.36802 0.804419 0
M  V30 664 H 61.284 1.43336 3.5247 0
M  V30 665 H 60.796 2.9544 2.51668 0
M  V30 666 H 58.897 0.762995 3.64704 0
M  V30 667 H 59.01 2.61047 4.01735 0
M  V30 668 H 57.374 1.30565 2.18689 0
M  V30 669 H 58.157 2.92929 1.79017 0
M  V30 670 N 60.6021 -1.18246 1.0419 0
M  V30 671 C 61.5651 -2.20128 0.638452 0
M  V30 672 C 62.5651 -1.57885 -0.304805 0
M  V30 673 O 63.7551 -1.73967 -0.0900369 0
M  V30 674 C 60.8871 -3.4084 -0.0637751 0
M  V30 675 H 62.0801 -2.57336 1.54007 0
M  V30 676 H 59.6331 -1.32152 0.834598 0
M  V30 677 H 60.3681 -3.09166 -0.979136 0
M  V30 678 H 60.1531 -3.8726 0.614198 0
M  V30 679 H 61.6431 -4.16274 -0.332512 0
M  V30 680 N 62.0802 -0.821533 -1.34494 0
M  V30 681 C 63.4962 -0.507117 -1.51329 0
M  V30 682 C 63.6962 0.968964 -1.76673 0
M  V30 683 O 62.7522 1.75348 -1.81685 0
M  V30 684 C 64.0652 -1.36544 -2.67911 0
M  V30 685 C 65.6132 -1.36242 -2.81793 0
M  V30 686 C 66.0882 -2.2052 -4.01416 0
M  V30 687 N 67.5792 -2.18136 -4.08621 0
M  V30 688 C 68.3142 -2.80095 -5.00334 0
M  V30 689 N 67.8102 -3.51039 -5.9728 0
M  V30 690 N 69.6032 -2.69656 -4.93196 0
M  V30 691 H 61.7542 -1.77729 -1.16302 0
M  V30 692 H 64.0172 -0.757291 -0.570276 0
M  V30 693 H 63.7232 -2.41361 -2.55808 0
M  V30 694 H 63.5972 -1.02917 -3.62888 0
M  V30 695 H 65.9842 -0.322041 -2.93338 0
M  V30 696 H 66.0652 -1.73866 -1.87628 0
M  V30 697 H 65.7092 -3.24607 -3.90631 0
M  V30 698 H 65.6392 -1.80247 -4.94791 0
M  V30 699 H 68.1302 -1.6653 -3.39229 0
M  V30 700 H 68.4432 -3.95565 -6.63889 0
M  V30 701 H 66.7882 -3.55145 -5.97409 0
M  V30 702 H 69.9792 -2.13808 -4.16418 0
M  V30 703 H 70.1522 -3.1823 -5.64476 0
M  V30 704 N 63.5583 1.46682 -0.576371 0
M  V30 705 C 64.8043 2.02712 -0.0596221 0
M  V30 706 C 65.1373 1.44765 1.29448 0
M  V30 707 O 64.4123 0.610355 1.84675 0
M  V30 708 C 64.6953 3.60098 0.0129503 0
M  V30 709 C 64.5483 4.28441 -1.3696 0
M  V30 710 C 65.8673 4.34224 0.71678 0
M  V30 711 H 62.9863 0.736637 -0.0231407 0
M  V30 712 H 65.6283 1.74898 -0.742351 0
M  V30 713 H 63.7783 3.83926 0.594378 0
M  V30 714 H 65.4503 4.15896 -1.9957 0
M  V30 715 H 63.6933 3.8805 -1.93907 0
M  V30 716 H 64.3643 5.3716 -1.27135 0
M  V30 717 H 66.8403 4.15503 0.222908 0
M  V30 718 H 65.7163 5.43936 0.73657 0
M  V30 719 H 65.9773 4.04823 1.77682 0
M  V30 720 N 65.0364 0.313813 1.54444 0
M  V30 721 C 66.2824 -0.292108 2.00685 0
M  V30 722 C 66.6154 -1.52548 1.20177 0
M  V30 723 O 65.8904 -1.92452 0.281531 0
M  V30 724 C 66.1734 -0.635968 3.5444 0
M  V30 725 C 66.0264 0.607437 4.4568 0
M  V30 726 C 67.3454 -1.45747 4.15266 0
M  V30 727 H 64.4644 -0.104697 0.729526 0
M  V30 728 H 67.1064 0.428457 1.85106 0
M  V30 729 H 65.2564 -1.24986 3.67846 0
M  V30 730 H 66.9284 1.24581 4.44159 0
M  V30 731 H 65.1714 1.23822 4.15753 0
M  V30 732 H 65.8424 0.322515 5.51057 0
M  V30 733 H 68.3184 -0.938645 4.05375 0
M  V30 734 H 67.1944 -1.66683 5.2298 0
M  V30 735 H 67.4554 -2.45063 3.67963 0
M  V30 736 N 66.5145 -1.57545 0.0417849 0
M  V30 737 C 67.7605 -1.92601 -0.635021 0
M  V30 738 C 68.0935 -0.919627 -1.71045 0
M  V30 739 O 67.3685 0.0557892 -1.9442 0
M  V30 740 C 67.6515 -3.38085 -1.23979 0
M  V30 741 C 67.5045 -4.49467 -0.173057 0
M  V30 742 C 68.8235 -3.83776 -2.15416 0
M  V30 743 H 65.9425 -0.700397 -0.229374 0
M  V30 744 H 68.5845 -1.89728 0.101633 0
M  V30 745 H 66.7345 -3.40664 -1.86762 0
M  V30 746 H 68.4065 -4.59018 0.458312 0
M  V30 747 H 66.6495 -4.30909 0.499996 0
M  V30 748 H 67.3205 -5.48323 -0.636054 0
M  V30 749 H 69.7965 -3.83013 -1.62605 0
M  V30 750 H 68.6725 -4.8624 -2.54679 0
M  V30 751 H 68.9335 -3.19998 -3.05047 0
M  V30 752 N 67.9926 0.231505 -1.5589 0
M  V30 753 C 68.9556 1.27028 -1.90779 0
M  V30 754 C 69.9556 1.40308 -0.785507 0
M  V30 755 O 71.1456 1.38744 -1.05336 0
M  V30 756 C 68.2776 2.64566 -2.14983 0
M  V30 757 H 69.4706 0.973017 -2.83677 0
M  V30 758 H 67.0236 0.471486 -1.49019 0
M  V30 759 H 67.7586 2.99406 -1.24604 0
M  V30 760 H 67.5436 2.56305 -2.96732 0
M  V30 761 H 69.0336 3.39543 -2.43105 0
M  V30 762 N 69.4707 1.49531 0.497807 0
M  V30 763 C 70.4027 1.62559 1.61578 0
M  V30 764 C 71.4157 0.508134 1.54667 0
M  V30 765 O 72.6047 0.780309 1.60541 0
M  V30 766 C 69.7047 1.56925 3.00379 0
M  V30 767 C 68.8777 2.84257 3.3244 0
M  V30 768 C 67.9367 2.71632 4.50669 0
M  V30 769 O 66.9627 3.4557 4.52294 0
M  V30 770 N 68.1647 1.83391 5.5077 0
M  V30 771 H 70.9297 2.58981 1.50828 0
M  V30 772 H 68.4907 1.4666 0.685743 0
M  V30 773 H 70.4827 1.46129 3.77397 0
M  V30 774 H 69.0527 0.683483 3.05037 0
M  V30 775 H 68.2727 3.09381 2.44289 0
M  V30 776 H 69.5607 3.68666 3.5066 0
M  V30 777 H 68.9587 1.22583 5.52259 0
M  V30 778 H 67.5157 1.78515 6.26878 0
M  V30 779 N 70.9488 -0.749086 1.3866 0
M  V30 780 C 72.2258 -1.4992 1.25632 0
M  V30 781 C 72.6058 -2.10633 -0.140317 0
M  V30 782 O 71.9538 -1.97437 -1.15025 0
M  V30 783 C 72.1638 -2.56195 2.36992 0
M  V30 784 C 73.5118 -3.22972 2.75634 0
M  V30 785 O 74.5358 -2.66502 2.36337 0
M  V30 786 O 73.3948 -4.25122 3.43415 0
M  V30 787 H 70.4888 -0.665067 0.491544 0
M  V30 788 H 73.0348 -0.784113 1.50498 0
M  V30 789 H 71.8068 -2.09612 3.30422 0
M  V30 790 H 71.4298 -3.35279 2.13714 0
M  V30 791 N 72.4269 -1.23603 -0.977757 0
M  V30 792 C 73.6749 -1.06759 -1.71601 0
M  V30 793 C 73.9959 0.395929 -1.90938 0
M  V30 794 O 73.2659 1.28356 -1.47992 0
M  V30 795 H 71.8459 -0.392062 -0.635843 0
M  V30 796 H 74.5079 -1.55362 -1.1768 0
M  V30 797 H 73.6039 -1.55763 -2.70452 0
M  V30 798 N 73.905 1.17692 -1.04816 0
M  V30 799 C 75.133 1.91786 -0.776254 0
M  V30 800 C 75.548 1.76604 0.667577 0
M  V30 801 O 74.905 1.10067 1.45573 0
M  V30 802 C 74.956 3.42967 -1.14263 0
M  V30 803 O 74.677 3.57678 -2.52978 0
M  V30 804 C 76.178 4.34144 -0.896311 0
M  V30 805 H 73.398 0.608624 -0.282519 0
M  V30 806 H 75.942 1.49268 -1.39783 0
M  V30 807 H 74.097 3.83245 -0.565874 0
M  V30 808 H 74.511 4.51319 -2.67229 0
M  V30 809 H 75.985 5.38744 -1.20244 0
M  V30 810 H 76.462 4.38876 0.168636 0
M  V30 811 H 77.068 3.99574 -1.45672 0
M  V30 812 N 75.3831 0.828654 1.34056 0
M  V30 813 C 76.7941 0.477534 1.8049 0
M  V30 814 C 77.1451 -1.00258 1.6865 0
M  V30 815 O 76.2701 -1.78057 1.22982 0
M  V30 816 C 76.8651 0.860018 3.27703 0
M  V30 817 C 75.4241 0.561185 3.72193 0
M  V30 818 C 74.5711 1.07385 2.55663 0
M  V30 819 H 77.5221 1.0183 1.21722 0
M  V30 820 H 77.5431 0.166038 3.80138 0
M  V30 821 H 77.0551 1.93731 3.36288 0
M  V30 822 H 75.1561 -0.506465 3.69142 0
M  V30 823 H 75.2691 1.10926 4.66082 0
M  V30 824 H 73.6331 0.495149 2.49841 0
M  V30 825 H 74.4161 2.15771 2.67016 0
M  V30 826 N 76.8612 -1.46375 0.584142 0
M  V30 827 C 77.7912 -2.33103 -0.136037 0
M  V30 828 C 78.7722 -1.45431 -0.882255 0
M  V30 829 O 79.9572 -1.74246 -0.857434 0
M  V30 830 C 77.0872 -3.27731 -1.14933 0
M  V30 831 C 76.0412 -4.24855 -0.517862 0
M  V30 832 C 75.3672 -5.09001 -1.63773 0
M  V30 833 C 76.6672 -5.19439 0.545886 0
M  V30 834 H 78.3612 -2.93568 0.588086 0
M  V30 835 H 75.9072 -1.41166 0.284259 0
M  V30 836 H 77.8602 -3.87261 -1.66153 0
M  V30 837 H 76.5842 -2.65377 -1.90375 0
M  V30 838 H 75.2432 -3.6659 -0.0267361 0
M  V30 839 H 74.8912 -4.43031 -2.38185 0
M  V30 840 H 74.5912 -5.74777 -1.22085 0
M  V30 841 H 76.1152 -5.71396 -2.15266 0
M  V30 842 H 77.5292 -5.73177 0.118704 0
M  V30 843 H 75.9262 -5.93566 0.88317 0
M  V30 844 H 76.9962 -4.63285 1.43162 0
M  V30 845 N 78.3393 -0.321999 -1.54275 0
M  V30 846 C 79.5853 0.274234 -2.01543 0
M  V30 847 C 79.9403 1.499 -1.20614 0
M  V30 848 O 79.2333 1.89546 -0.279804 0
M  V30 849 C 79.4273 0.661769 -3.5122 0
M  V30 850 C 79.2563 -0.523892 -4.46638 0
M  V30 851 C 78.0263 -1.02251 -4.94846 0
M  V30 852 C 80.2243 -1.37558 -4.95563 0
M  V30 853 N 78.2063 -2.17274 -5.74165 0
M  V30 854 C 79.5773 -2.37301 -5.7279 0
M  V30 855 C 81.6323 -1.40353 -4.77709 0
M  V30 856 C 80.3353 -3.3964 -6.34064 0
M  V30 857 C 82.3613 -2.41562 -5.39817 0
M  V30 858 C 81.7233 -3.40031 -6.16894 0
M  V30 859 H 77.8223 0.0642367 -0.779357 0
M  V30 860 H 80.4063 -0.456683 -1.89268 0
M  V30 861 H 78.5773 1.36182 -3.63743 0
M  V30 862 H 80.3093 1.23934 -3.85256 0
M  V30 863 H 77.0643 -0.594046 -4.6986 0
M  V30 864 H 77.4883 -2.75289 -6.18502 0
M  V30 865 H 82.1303 -0.655907 -4.17681 0
M  V30 866 H 79.8483 -4.15309 -6.93213 0
M  V30 867 H 83.4343 -2.44524 -5.2792 0
M  V30 868 H 82.3143 -4.17063 -6.64099 0
M  V30 869 N 79.8174 1.5752 -0.0501392 0
M  V30 870 C 81.2334 1.56631 0.306402 0
M  V30 871 C 81.4334 1.0577 1.71508 0
M  V30 872 O 80.4894 0.713837 2.422 0
M  V30 873 C 81.8024 3.00393 0.135811 0
M  V30 874 C 83.3504 3.12315 0.206993 0
M  V30 875 C 83.8254 4.57954 0.064944 0
M  V30 876 N 85.3164 4.63041 0.121254 0
M  V30 877 C 86.0514 5.73389 0.0354381 0
M  V30 878 N 85.5474 6.92724 -0.102666 0
M  V30 879 N 87.3404 5.62026 0.090946 0
M  V30 880 H 79.4914 1.88903 -0.971046 0
M  V30 881 H 81.7544 0.869876 -0.376855 0
M  V30 882 H 81.4604 3.41635 -0.835384 0
M  V30 883 H 81.3344 3.66373 0.897275 0
M  V30 884 H 83.7214 2.70973 1.16866 0
M  V30 885 H 83.8024 2.49016 -0.585208 0
M  V30 886 H 83.4464 4.99981 -0.893394 0
M  V30 887 H 83.3764 5.19258 0.876277 0
M  V30 888 H 85.8674 3.77216 0.227284 0
M  V30 889 H 86.1804 7.72633 -0.160882 0
M  V30 890 H 84.5254 6.94864 -0.137737 0
M  V30 891 H 87.7164 4.67684 0.197388 0
M  V30 892 H 87.8894 6.47997 0.0206089 0
M  V30 893 N 81.2955 -0.223234 1.56011 0
M  V30 894 C 82.5425 -0.947875 1.78946 0
M  V30 895 C 82.8705 -1.844 0.618608 0
M  V30 896 O 82.1255 -1.91629 -0.397093 0
M  V30 897 C 82.4245 -1.81948 3.0762 0
M  V30 898 C 82.0905 -1.07672 4.37856 0
M  V30 899 C 80.7525 -0.871544 4.73242 0
M  V30 900 C 83.1045 -0.552081 5.18268 0
M  V30 901 C 80.4325 -0.129791 5.86556 0
M  V30 902 C 82.7845 0.17632 6.32354 0
M  V30 903 C 81.4485 0.39277 6.66343 0
M  V30 904 H 80.7185 -0.346852 0.654809 0
M  V30 905 H 83.3655 -0.216171 1.90276 0
M  V30 906 H 81.6705 -2.61899 2.91404 0
M  V30 907 H 83.3675 -2.38227 3.22566 0
M  V30 908 H 79.9575 -1.24662 4.1007 0
M  V30 909 H 84.1415 -0.698076 4.91366 0
M  V30 910 H 79.3975 0.048153 6.11381 0
M  V30 911 H 83.5715 0.590367 6.93893 0
M  V30 912 H 81.1985 0.969466 7.53993 0
M  V30 913 N 82.7736 -1.49793 -0.48987 0
M  V30 914 C 83.7366 -1.66752 -1.57246 0
M  V30 915 C 84.7366 -0.538867 -1.51502 0
M  V30 916 O 85.9266 -0.805545 -1.54456 0
M  V30 917 C 83.0586 -1.67528 -2.96896 0
M  V30 918 H 84.2516 -2.63321 -1.43534 0
M  V30 919 H 81.8046 -1.38992 -0.714914 0
M  V30 920 H 82.5396 -0.725837 -3.16073 0
M  V30 921 H 82.3246 -2.49504 -3.02473 0
M  V30 922 H 83.8146 -1.82667 -3.7553 0
M  V30 923 N 84.2517 0.741722 -1.39055 0
M  V30 924 C 85.5287 1.49252 -1.26425 0
M  V30 925 C 85.9087 2.10705 0.129144 0
M  V30 926 O 85.2567 1.98045 1.13976 0
M  V30 927 C 85.4667 2.54934 -2.38347 0
M  V30 928 C 86.8147 3.21506 -2.77343 0
M  V30 929 O 87.8387 2.65245 -2.37747 0
M  V30 930 O 86.6977 4.23294 -3.45665 0
M  V30 931 H 83.7917 0.662451 -0.495064 0
M  V30 932 H 86.3377 0.776121 -1.50912 0
M  V30 933 H 85.1097 2.07857 -3.31529 0
M  V30 934 H 84.7327 3.34141 -2.15489 0
M  V30 935 N 85.7298 1.2412 0.971189 0
M  V30 936 C 86.6928 1.03156 2.04674 0
M  V30 937 C 87.6928 -0.00990322 1.60797 0
M  V30 938 O 88.8828 0.230729 1.72665 0
M  V30 939 C 86.0148 0.562765 3.36223 0
M  V30 940 H 87.2078 1.98614 2.24705 0
M  V30 941 H 84.7608 1.06293 1.14593 0
M  V30 942 H 85.4958 -0.395176 3.21883 0
M  V30 943 H 85.2808 1.31441 3.69413 0
M  V30 944 H 86.7708 0.437015 4.15307 0
M  V30 945 N 87.2079 -1.17134 1.05439 0
M  V30 946 C 88.4849 -1.83411 0.679699 0
M  V30 947 C 88.8649 -1.9368 -0.839726 0
M  V30 948 O 88.2129 -1.47325 -1.74664 0
M  V30 949 C 88.4229 -3.20918 1.37159 0
M  V30 950 C 89.7709 -3.96796 1.51123 0
M  V30 951 O 90.7949 -3.30406 1.3308 0
M  V30 952 O 89.6539 -5.15778 1.80651 0
M  V30 953 H 86.7479 -0.79154 0.239569 0
M  V30 954 H 89.2939 -1.24411 1.15413 0
M  V30 955 H 88.0659 -3.08428 2.40807 0
M  V30 956 H 87.6889 -3.87587 0.886674 0
M  V30 957 N 88.686 -0.835752 -1.33615 0
M  V30 958 C 89.934 -0.429109 -1.97492 0
M  V30 959 C 90.255 1.01433 -1.66543 0
M  V30 960 O 89.525 1.70611 -0.962744 0
M  V30 961 H 88.105 -0.155686 -0.730596 0
M  V30 962 H 90.767 -1.06802 -1.63031 0
M  V30 963 H 89.863 -0.55861 -3.0706 0
M  V30 964 N 90.1641 1.46063 -0.591896 0
M  V30 965 C 91.4131 2.01547 -0.0786637 0
M  V30 966 C 91.7261 1.46796 1.29268 0
M  V30 967 O 92.9321 1.94157 1.89777 0
M  V30 968 C 91.3881 3.59787 -0.0900024 0
M  V30 969 C 90.9961 4.23534 -1.46023 0
M  V30 970 C 92.7401 4.22895 0.368806 0
M  V30 971 C 90.6471 5.73881 -1.4288 0
M  V30 972 H 89.5771 0.753564 -0.0256388 0
M  V30 973 H 92.2281 1.677 -0.744905 0
M  V30 974 H 90.6101 3.90752 0.642586 0
M  V30 975 H 91.7841 4.04167 -2.21328 0
M  V30 976 H 90.0991 3.72558 -1.85982 0
M  V30 977 H 92.6961 5.33116 0.411258 0
M  V30 978 H 93.0391 3.9247 1.38827 0
M  V30 979 H 93.5721 3.9659 -0.31001 0
M  V30 980 H 90.3111 6.0898 -2.42536 0
M  V30 981 H 89.8311 5.95486 -0.718095 0
M  V30 982 H 91.5101 6.36776 -1.14565 0
M  V30 983 N 91.6422 0.330177 1.54103 0
M  V30 984 C 92.8882 -0.263542 2.01685 0
M  V30 985 C 93.2432 -1.49258 1.21408 0
M  V30 986 O 92.5362 -1.89395 0.289852 0
M  V30 987 C 92.7302 -0.643134 3.51566 0
M  V30 988 C 92.5592 0.547571 4.46354 0
M  V30 989 C 91.3292 1.04873 4.94297 0
M  V30 990 C 93.5272 1.40184 4.94826 0
M  V30 991 N 91.5092 2.20316 5.73005 0
M  V30 992 C 92.8802 2.40335 5.71524 0
M  V30 993 C 94.9352 1.42884 4.76958 0
M  V30 994 C 93.6382 3.42998 6.32254 0
M  V30 995 C 95.6642 2.44421 5.38528 0
M  V30 996 C 95.0262 3.43298 6.15082 0
M  V30 997 H 91.1252 -0.0601026 0.779687 0
M  V30 998 H 93.7092 0.466714 1.89023 0
M  V30 999 H 91.8802 -1.34251 3.6446 0
M  V30 1000 H 93.6122 -1.21889 3.85908 0
M  V30 1001 H 90.3672 0.618956 4.69538 0
M  V30 1002 H 90.7912 2.78565 6.17034 0
M  V30 1003 H 95.4332 0.678049 4.17328 0
M  V30 1004 H 93.1512 4.1898 6.91 0
M  V30 1005 H 96.7372 2.4732 5.26616 0
M  V30 1006 H 95.6172 4.20579 6.61878 0
M  V30 1007 N 93.1203 -1.57491 0.0584922 0
M  V30 1008 C 94.5363 -1.56792 -0.298091 0
M  V30 1009 C 94.7363 -1.06679 -1.70944 0
M  V30 1010 O 93.7923 -0.726672 -2.41818 0
M  V30 1011 C 95.1053 -3.00461 -0.119879 0
M  V30 1012 C 96.6533 -3.1242 -0.190428 0
M  V30 1013 C 97.1283 -4.57982 -0.0406567 0
M  V30 1014 N 98.6193 -4.63099 -0.0966958 0
M  V30 1015 C 99.3543 -5.734 -0.00502943 0
M  V30 1016 N 98.8503 -6.9266 0.139402 0
M  V30 1017 N 100.643 -5.62067 -0.0611391 0
M  V30 1018 H 92.7943 -1.88386 0.98105 0
M  V30 1019 H 95.0573 -0.867865 0.381463 0
M  V30 1020 H 94.7633 -3.41187 0.85349 0
M  V30 1021 H 94.6373 -3.66843 -0.877833 0
M  V30 1022 H 97.0243 -2.71589 -1.15427 0
M  V30 1023 H 97.1053 -2.48702 0.598405 0
M  V30 1024 H 96.7493 -4.995 0.919897 0
M  V30 1025 H 96.6793 -5.19715 -0.848727 0
M  V30 1026 H 99.1703 -3.77331 -0.207277 0
M  V30 1027 H 99.4833 -7.72536 0.201855 0
M  V30 1028 H 97.8283 -6.94781 0.174586 0
M  V30 1029 H 101.019 -4.67782 -0.172583 0
M  V30 1030 H 101.192 -6.47999 0.0137562 0
M  V30 1031 N 94.5984 0.214957 -1.56127 0
M  V30 1032 C 95.8284 0.953707 -1.8327 0
M  V30 1033 C 96.2364 1.78181 -0.636262 0
M  V30 1034 O 95.5794 1.79191 0.404516 0
M  V30 1035 C 95.6414 1.91516 -3.0424 0
M  V30 1036 C 95.3054 1.27094 -4.38972 0
M  V30 1037 C 96.3024 0.657575 -5.15725 0
M  V30 1038 C 93.9874 1.28073 -4.85698 0
M  V30 1039 C 95.9814 0.0625968 -6.37369 0
M  V30 1040 C 93.6684 0.681914 -6.07283 0
M  V30 1041 C 94.6664 0.0739046 -6.8296 0
M  V30 1042 O 94.3544 -0.515582 -8.02245 0
M  V30 1043 H 94.0864 0.284764 -0.613095 0
M  V30 1044 H 96.6404 0.233283 -2.04071 0
M  V30 1045 H 94.8704 2.67475 -2.79274 0
M  V30 1046 H 96.5594 2.52001 -3.18198 0
M  V30 1047 H 97.3254 0.642288 -4.80728 0
M  V30 1048 H 93.2044 1.74337 -4.26764 0
M  V30 1049 H 96.7484 -0.412593 -6.96379 0
M  V30 1050 H 92.6454 0.694636 -6.41752 0
M  V30 1051 H 93.4134 -0.410544 -8.1747 0
M  V30 1052 N 96.0765 1.50051 0.48192 0
M  V30 1053 C 97.4875 1.5348 1.06305 0
M  V30 1054 C 97.8385 0.331997 1.93371 0
M  V30 1055 O 96.9635 -0.556256 2.09129 0
M  V30 1056 C 97.5585 2.7813 1.93466 0
M  V30 1057 C 96.1175 2.84275 2.46707 0
M  V30 1058 C 95.2645 2.47637 1.24785 0
M  V30 1059 H 98.2155 1.56472 0.264995 0
M  V30 1060 H 98.2365 2.59372 2.78399 0
M  V30 1061 H 97.7485 3.65654 1.30072 0
M  V30 1062 H 95.8495 2.01077 3.13686 0
M  V30 1063 H 95.9625 3.8691 2.82555 0
M  V30 1064 H 94.3265 1.99835 1.57918 0
M  V30 1065 H 95.1095 3.37457 0.630694 0
M  V30 1066 N 97.5546 -0.734337 1.39446 0
M  V30 1067 C 98.8006 -1.49613 1.36908 0
M  V30 1068 C 99.1336 -1.94169 -0.0347829 0
M  V30 1069 O 98.4086 -1.66833 -0.999847 0
M  V30 1070 C 98.6916 -2.73534 2.34203 0
M  V30 1071 C 98.5446 -2.34993 3.83534 0
M  V30 1072 C 99.8636 -3.75635 2.29317 0
M  V30 1073 H 96.9826 -0.542714 0.498629 0
M  V30 1074 H 99.6246 -0.839597 1.70443 0
M  V30 1075 H 97.7746 -3.29553 2.05736 0
M  V30 1076 H 99.4466 -1.84601 4.22753 0
M  V30 1077 H 97.6896 -1.67213 4.00278 0
M  V30 1078 H 98.3606 -3.23738 4.47099 0
M  V30 1079 H 100.837 -3.29203 2.54489 0
M  V30 1080 H 99.7126 -4.60008 2.99472 0
M  V30 1081 H 99.9736 -4.22603 1.29842 0
M  V30 1082 N 99.0327 -1.24633 -0.964593 0
M  V30 1083 C 100.261 -1.11501 -1.74285 0
M  V30 1084 C 100.676 0.332165 -1.85855 0
M  V30 1085 O 100.033 1.22903 -1.34911 0
M  V30 1086 C 100.084 -1.75258 -3.16175 0
M  V30 1087 O 99.8047 -3.14318 -3.05182 0
M  V30 1088 C 101.306 -1.67776 -4.10324 0
M  V30 1089 H 98.5257 -0.389407 -0.546446 0
M  V30 1090 H 101.07 -1.64801 -1.21083 0
M  V30 1091 H 99.2247 -1.25954 -3.66353 0
M  V30 1092 H 99.6387 -3.4551 -3.94618 0
M  V30 1093 H 101.113 -2.17064 -5.0753 0
M  V30 1094 H 101.59 -0.639584 -4.34518 0
M  V30 1095 H 102.196 -2.16522 -3.66058 0
M  V30 1096 N 100.511 1.16574 -1.06058 0
M  V30 1097 C 101.76 1.86385 -0.770944 0
M  V30 1098 C 102.073 1.82448 0.705129 0
M  V30 1099 O 103.279 2.47815 1.10905 0
M  V30 1100 C 101.735 3.34466 -1.32893 0
M  V30 1101 C 101.343 3.46883 -2.83507 0
M  V30 1102 C 103.087 4.09548 -1.11672 0
M  V30 1103 C 100.994 4.89036 -3.32562 0
M  V30 1104 H 99.9238 0.698181 -0.284709 0
M  V30 1105 H 102.575 1.31583 -1.27899 0
M  V30 1106 H 100.957 3.88859 -0.748662 0
M  V30 1107 H 102.131 3.02663 -3.47465 0
M  V30 1108 H 100.446 2.85232 -3.03368 0
M  V30 1109 H 103.043 5.14434 -1.45814 0
M  V30 1110 H 103.386 4.16264 -0.0549535 0
M  V30 1111 H 103.919 3.61387 -1.66265 0
M  V30 1112 H 100.658 4.87499 -4.38207 0
M  V30 1113 H 100.178 5.3389 -2.73351 0
M  V30 1114 H 101.857 5.57843 -3.2775 0
M  V30 1115 N 101.989 0.842826 1.3317 0
M  V30 1116 C 102.899 0.281444 2.32906 0
M  V30 1117 C 103.915 -0.594587 1.63526 0
M  V30 1118 O 105.091 -0.49777 1.95152 0
M  V30 1119 C 102.156 -0.530929 3.42611 0
M  V30 1120 C 101.217 0.369843 4.27704 0
M  V30 1121 C 100.45 -0.403853 5.3217 0
M  V30 1122 O 100.673 -1.63513 5.46461 0
M  V30 1123 O 99.6069 0.224199 6.01482 0
M  V30 1124 H 103.433 1.10744 2.82789 0
M  V30 1125 H 101.018 0.60545 1.36582 0
M  V30 1126 H 102.9 -0.992437 4.09547 0
M  V30 1127 H 101.575 -1.33392 2.94938 0
M  V30 1128 H 100.482 0.879275 3.6362 0
M  V30 1129 H 101.815 1.13771 4.78871 0
M  V30 1130 N 103.467 -1.45747 0.599634 0
M  V30 1131 C 104.744 -1.95585 0.0240846 0
M  V30 1132 C 105.124 -1.54217 -1.44154 0
M  V30 1133 O 104.472 -0.800903 -2.14004 0
M  V30 1134 C 104.682 -3.48344 0.21385 0
M  V30 1135 C 106.03 -4.24504 0.0904902 0
M  V30 1136 O 107.054 -3.55911 0.143558 0
M  V30 1137 O 105.913 -5.46491 -0.0310766 0
M  V30 1138 H 103.007 -0.82602 -0.0402478 0
M  V30 1139 H 105.553 -1.55951 0.669139 0
M  V30 1140 H 104.325 -3.71397 1.23206 0
M  V30 1141 H 103.948 -3.9485 -0.466842 0
M  V30 1142 N 104.945 -0.338344 -1.53925 0
M  V30 1143 C 106.191 0.260143 -2.01125 0
M  V30 1144 C 106.524 1.50617 -1.22589 0
M  V30 1145 O 105.799 1.91979 -0.312113 0
M  V30 1146 C 106.082 0.579499 -3.55407 0
M  V30 1147 C 105.935 -0.678264 -4.44657 0
M  V30 1148 C 107.254 1.39122 -4.17532 0
M  V30 1149 H 104.373 0.0930772 -0.731099 0
M  V30 1150 H 107.015 -0.457852 -1.84401 0
M  V30 1151 H 105.165 1.19118 -3.69788 0
M  V30 1152 H 106.837 -1.31631 -4.42121 0
M  V30 1153 H 105.08 -1.3042 -4.13731 0
M  V30 1154 H 105.751 -0.410143 -5.50474 0
M  V30 1155 H 108.227 0.874035 -4.06817 0
M  V30 1156 H 107.103 1.58342 -5.25565 0
M  V30 1157 H 107.364 2.39178 -3.71815 0
M  V30 1158 N 106.423 1.57458 -0.0668435 0
M  V30 1159 C 107.648 1.9804 0.616027 0
M  V30 1160 C 108.073 0.944771 1.62652 0
M  V30 1161 O 107.431 -0.0902094 1.81075 0
M  V30 1162 C 107.479 3.37665 1.26549 0
M  V30 1163 O 106.583 3.36701 2.38131 0
M  V30 1164 H 105.924 0.644719 0.158849 0
M  V30 1165 H 108.454 2.04121 -0.139891 0
M  V30 1166 H 108.464 3.7474 1.6135 0
M  V30 1167 H 107.139 4.12573 0.525016 0
M  V30 1168 H 105.716 3.1139 2.0516 0
M  V30 1169 N 107.901 -0.206675 1.56239 0
M  V30 1170 C 109.312 -0.772383 1.69974 0
M  V30 1171 C 109.663 -1.84353 0.671436 0
M  V30 1172 O 108.788 -2.15695 -0.174491 0
M  V30 1173 C 109.383 -1.40779 3.08167 0
M  V30 1174 C 107.942 -1.92072 3.23706 0
M  V30 1175 C 107.089 -0.786347 2.65917 0
M  V30 1176 H 110.04 0.0182223 1.5869 0
M  V30 1177 H 110.061 -2.27696 3.04852 0
M  V30 1178 H 109.573 -0.627958 3.82986 0
M  V30 1179 H 107.674 -2.7281 2.53782 0
M  V30 1180 H 107.787 -2.09046 4.31087 0
M  V30 1181 H 106.151 -1.1976 2.24788 0
M  V30 1182 H 106.934 -0.0189416 3.43295 0
M  V30 1183 N 109.379 -1.50304 -0.473955 0
M  V30 1184 C 110.795 -1.37667 -0.807466 0
M  V30 1185 C 110.995 -0.430555 -1.96846 0
M  V30 1186 O 110.051 0.127874 -2.52176 0
M  V30 1187 C 111.364 -2.78974 -1.12223 0
M  V30 1188 C 112.912 -2.87868 -1.22885 0
M  V30 1189 C 113.387 -4.30003 -1.57676 0
M  V30 1190 N 114.878 -4.3294 -1.64673 0
M  V30 1191 C 115.613 -5.3991 -1.93091 0
M  V30 1192 N 115.109 -6.57092 -2.1955 0
M  V30 1193 N 116.902 -5.27351 -1.94569 0
M  V30 1194 H 109.053 -2.10394 0.291212 0
M  V30 1195 H 111.316 -0.945575 0.0677609 0
M  V30 1196 H 111.022 -3.50031 -0.342229 0
M  V30 1197 H 110.896 -3.16038 -2.05913 0
M  V30 1198 H 113.283 -2.17032 -1.99953 0
M  V30 1199 H 113.364 -2.54352 -0.271814 0
M  V30 1200 H 113.008 -5.01375 -0.81149 0
M  V30 1201 H 112.938 -4.61004 -2.54525 0
M  V30 1202 H 115.429 -3.48441 -1.46277 0
M  V30 1203 H 115.742 -7.34425 -2.405 0
M  V30 1204 H 114.087 -6.60272 -2.16948 0
M  V30 1205 H 117.278 -4.34801 -1.73394 0
M  V30 1206 H 117.451 -6.10805 -2.16381 0
M  V30 1207 N 110.857 0.726932 -1.39834 0
M  V30 1208 C 112.087 1.51393 -1.40583 0
M  V30 1209 C 112.495 1.892 -0.000740625 0
M  V30 1210 O 111.838 1.55189 0.982951 0
M  V30 1211 C 111.9 2.82588 -2.22226 0
M  V30 1212 C 111.564 2.67169 -3.70769 0
M  V30 1213 C 112.561 2.3518 -4.63666 0
M  V30 1214 C 110.246 2.83788 -4.14451 0
M  V30 1215 C 112.24 2.20002 -5.98229 0
M  V30 1216 C 109.927 2.68229 -5.49087 0
M  V30 1217 C 110.925 2.36382 -6.4079 0
M  V30 1218 O 110.613 2.2093 -7.72946 0
M  V30 1219 H 110.345 0.474168 -0.48181 0
M  V30 1220 H 112.899 0.905247 -1.84376 0
M  V30 1221 H 111.129 3.45746 -1.73195 0
M  V30 1222 H 112.818 3.44247 -2.15055 0
M  V30 1223 H 113.584 2.21984 -4.31217 0
M  V30 1224 H 109.463 3.07566 -3.43401 0
M  V30 1225 H 113.007 1.95067 -6.69772 0
M  V30 1226 H 108.904 2.81006 -5.81125 0
M  V30 1227 H 109.672 2.35937 -7.83757 0
M  V30 1228 N 112.336 1.25143 0.95797 0
M  V30 1229 C 113.266 1.07711 2.07173 0
M  V30 1230 C 114.247 -0.0128462 1.70095 0
M  V30 1231 O 115.432 0.156061 1.93572 0
M  V30 1232 C 112.562 0.691503 3.40346 0
M  V30 1233 C 111.516 1.73132 3.9142 0
M  V30 1234 C 110.842 1.20049 5.21049 0
M  V30 1235 C 112.142 3.1294 4.1817 0
M  V30 1236 H 113.836 2.00873 2.22014 0
M  V30 1237 H 111.382 0.967191 1.06684 0
M  V30 1238 H 113.335 0.556505 4.17709 0
M  V30 1239 H 112.059 -0.275819 3.25433 0
M  V30 1240 H 110.718 1.8547 3.16222 0
M  V30 1241 H 110.366 0.223499 5.02503 0
M  V30 1242 H 110.066 1.89545 5.56189 0
M  V30 1243 H 111.59 1.07782 6.01012 0
M  V30 1244 H 113.004 3.03775 4.86203 0
M  V30 1245 H 111.401 3.79875 4.64559 0
M  V30 1246 H 112.471 3.6025 3.24573 0
M  V30 1247 N 113.814 -1.1601 1.06675 0
M  V30 1248 C 114.724 -2.24156 0.692179 0
M  V30 1249 C 115.74 -1.71507 -0.293513 0
M  V30 1250 O 116.916 -2.009 -0.141861 0
M  V30 1251 C 113.981 -3.46587 0.0884131 0
M  V30 1252 C 113.042 -4.14257 1.12646 0
M  V30 1253 C 112.275 -5.30844 0.551416 0
M  V30 1254 O 112.498 -5.66858 -0.634656 0
M  V30 1255 O 111.432 -5.87848 1.29298 0
M  V30 1256 H 115.258 -2.58513 1.59388 0
M  V30 1257 H 112.843 -1.23599 0.83926 0
M  V30 1258 H 114.725 -4.20679 -0.246361 0
M  V30 1259 H 113.4 -3.13994 -0.786712 0
M  V30 1260 H 112.307 -3.42118 1.51348 0
M  V30 1261 H 113.64 -4.50914 1.97325 0
M  V30 1262 N 115.292 -0.849877 -1.32721 0
M  V30 1263 C 116.255 -0.296122 -2.27279 0
M  V30 1264 C 117.255 0.541458 -1.5141 0
M  V30 1265 O 118.445 0.353658 -1.70572 0
M  V30 1266 C 115.577 0.581579 -3.35902 0
M  V30 1267 H 116.77 -1.13064 -2.77771 0
M  V30 1268 H 114.323 -0.62383 -1.43311 0
M  V30 1269 H 115.058 1.43809 -2.9067 0
M  V30 1270 H 114.843 -0.0178814 -3.92096 0
M  V30 1271 H 116.333 0.961951 -4.0637 0
M  V30 1272 N 116.77 1.45427 -0.607355 0
M  V30 1273 C 117.7 2.3329 0.0989352 0
M  V30 1274 C 118.681 1.46816 0.859007 0
M  V30 1275 O 119.866 1.75588 0.829604 0
M  V30 1276 C 116.996 3.29518 1.09705 0
M  V30 1277 C 115.95 4.25626 0.450206 0
M  V30 1278 C 115.276 5.11542 1.55655 0
M  V30 1279 C 116.576 5.18505 -0.628455 0
M  V30 1280 H 118.27 2.92595 -0.634716 0
M  V30 1281 H 115.816 1.40696 -0.306681 0
M  V30 1282 H 117.769 3.89855 1.59971 0
M  V30 1283 H 116.493 2.68372 1.86129 0
M  V30 1284 H 115.152 3.66586 -0.0315886 0
M  V30 1285 H 114.8 4.46765 2.31107 0
M  V30 1286 H 114.5 5.76647 1.12925 0
M  V30 1287 H 116.024 5.74748 2.06148 0
M  V30 1288 H 117.438 5.72916 -0.209877 0
M  V30 1289 H 115.835 5.92085 -0.977489 0
M  V30 1290 H 116.905 4.60948 -1.50514 0
M  V30 1291 N 118.248 0.346503 1.53744 0
M  V30 1292 C 119.497 -0.250122 2.00143 0
M  V30 1293 C 119.81 -1.51418 1.23822 0
M  V30 1294 O 121.016 -2.18823 1.60713 0
M  V30 1295 C 119.472 -0.496252 3.56462 0
M  V30 1296 C 119.08 0.752077 4.41642 0
M  V30 1297 C 120.824 -1.05157 4.11269 0
M  V30 1298 C 118.731 0.476583 5.89477 0
M  V30 1299 H 117.661 -0.0972409 0.747703 0
M  V30 1300 H 120.312 0.46229 1.77581 0
M  V30 1301 H 118.694 -1.26944 3.75102 0
M  V30 1302 H 119.868 1.5266 4.34778 0
M  V30 1303 H 118.183 1.22925 3.97842 0
M  V30 1304 H 120.78 -1.27269 5.19333 0
M  V30 1305 H 121.123 -2.00799 3.64672 0
M  V30 1306 H 121.656 -0.339019 3.96353 0
M  V30 1307 H 118.395 1.4028 6.40314 0
M  V30 1308 H 117.915 -0.259794 5.99237 0
M  V30 1309 H 119.594 0.0949315 6.4693 0
M  V30 1310 N 119.726 -1.57421 0.075193 0
M  V30 1311 C 120.674 -2.14124 -0.908508 0
M  V30 1312 C 121.668 -1.07898 -1.30592 0
M  V30 1313 O 122.874 -1.26273 -1.28277 0
M  V30 1314 H 119.249 -0.684707 -0.310935 0
M  V30 1315 H 121.22 -2.95634 -0.405374 0
M  V30 1316 C 119.969 -2.72044 -2.16535 0
M  V30 1317 H 119.292 -3.53456 -1.86839 0
M  V30 1318 H 120.732 -3.15311 -2.83469 0
M  V30 1319 C 119.191 -1.66968 -2.92615 0
M  V30 1320 O 119.721 -1.0967 -3.86439 0
M  V30 1321 N 117.927 -1.37923 -2.55784 0
M  V30 1322 H 117.474 -1.84706 -1.79559 0
M  V30 1323 H 117.432 -0.67852 -3.06991 0
M  V30 1324 N 121.204 0.198386 -1.56346 0
M  V30 1325 C 122.434 0.934215 -1.84271 0
M  V30 1326 C 122.842 1.77496 -0.655125 0
M  V30 1327 O 122.185 1.7961 0.385488 0
M  V30 1328 C 122.247 1.88278 -3.06254 0
M  V30 1329 C 121.911 1.22431 -4.40295 0
M  V30 1330 C 122.908 0.602839 -5.16393 0
M  V30 1331 C 120.593 1.22915 -4.87029 0
M  V30 1332 C 122.587 -0.0050083 -6.374 0
M  V30 1333 C 120.274 0.617465 -6.07973 0
M  V30 1334 C 121.272 0.00146341 -6.83 0
M  V30 1335 O 120.96 -0.600642 -8.01653 0
M  V30 1336 H 120.692 0.278245 -0.616081 0
M  V30 1337 H 123.246 0.211626 -2.04307 0
M  V30 1338 H 121.476 2.64498 -2.82095 0
M  V30 1339 H 123.165 2.48612 -3.20853 0
M  V30 1340 H 123.931 0.591265 -4.81382 0
M  V30 1341 H 119.81 1.69801 -4.28589 0
M  V30 1342 H 123.354 -0.48643 -6.95902 0
M  V30 1343 H 119.251 0.62653 -6.42452 0
M  V30 1344 H 120.019 -0.497225 -8.16988 0
M  V30 1345 N 122.682 1.50554 0.465978 0
M  V30 1346 C 123.592 1.72585 1.58907 0
M  V30 1347 C 124.608 0.60911 1.6299 0
M  V30 1348 O 125.784 0.88804 1.80765 0
M  V30 1349 C 122.849 1.81995 2.95091 0
M  V30 1350 C 121.91 3.05751 3.01355 0
M  V30 1351 C 121.143 3.14702 4.31043 0
M  V30 1352 O 121.366 2.30313 5.21835 0
M  V30 1353 O 120.3 4.07468 4.43005 0
M  V30 1354 H 124.126 2.67799 1.43239 0
M  V30 1355 H 121.711 1.34711 0.646013 0
M  V30 1356 H 123.593 1.90335 3.75966 0
M  V30 1357 H 122.268 0.899659 3.10947 0
M  V30 1358 H 121.175 3.02908 2.19539 0
M  V30 1359 H 122.508 3.97375 2.90437 0
M  V30 1360 N 124.16 -0.719506 1.40217 0
M  V30 1361 C 125.437 -1.47221 1.28784 0
M  V30 1362 C 125.817 -2.10883 -0.0956067 0
M  V30 1363 O 125.165 -1.99833 -1.10811 0
M  V30 1364 C 125.375 -2.5111 2.42373 0
M  V30 1365 C 126.723 -3.17053 2.82423 0
M  V30 1366 O 127.747 -2.61429 2.41937 0
M  V30 1367 O 126.606 -4.17742 3.52355 0
M  V30 1368 H 123.7 -0.654491 0.50554 0
M  V30 1369 H 126.246 -0.752014 1.52128 0
M  V30 1370 H 125.018 -2.02556 3.34793 0
M  V30 1371 H 124.641 -3.3067 2.20778 0
M  V30 1372 N 125.638 -1.25649 -0.95132 0
M  V30 1373 C 127.054 -1.02542 -1.223 0
M  V30 1374 C 127.254 0.255715 -1.99871 0
M  V30 1375 O 126.31 0.967558 -2.33226 0
M  V30 1376 C 127.623 -2.25065 -1.99415 0
M  V30 1377 C 129.171 -2.29861 -2.12446 0
M  V30 1378 C 129.646 -3.52048 -2.92961 0
M  V30 1379 N 131.137 -3.52465 -3.00538 0
M  V30 1380 C 131.872 -4.43672 -3.63239 0
M  V30 1381 N 131.368 -5.45157 -4.27523 0
M  V30 1382 N 133.161 -4.31346 -3.60412 0
M  V30 1383 H 125.312 -2.07951 -0.432471 0
M  V30 1384 H 127.575 -0.91339 -0.253816 0
M  V30 1385 H 127.281 -3.18194 -1.49817 0
M  V30 1386 H 127.155 -2.28502 -3.00111 0
M  V30 1387 H 129.542 -1.37252 -2.61239 0
M  V30 1388 H 129.623 -2.3044 -1.11044 0
M  V30 1389 H 129.267 -4.44981 -2.44856 0
M  V30 1390 H 129.197 -3.48715 -3.94596 0
M  V30 1391 H 131.688 -2.79056 -2.54826 0
M  V30 1392 H 132.001 -6.10958 -4.73234 0
M  V30 1393 H 130.346 -5.49025 -4.26141 0
M  V30 1394 H 133.537 -3.51288 -3.09377 0
M  V30 1395 H 133.71 -5.02624 -4.0899 0
M  V30 1396 N 127.117 1.15442 -1.07289 0
M  V30 1397 C 128.363 1.8672 -0.806679 0
M  V30 1398 C 128.718 1.80723 0.660084 0
M  V30 1399 O 128.011 1.21902 1.47819 0
M  V30 1400 C 128.205 3.3489 -1.24834 0
M  V30 1401 C 128.034 3.55313 -2.7565 0
M  V30 1402 C 126.804 3.7082 -3.4325 0
M  V30 1403 C 129.002 3.53188 -3.73848 0
M  V30 1404 N 126.984 3.7929 -4.82713 0
M  V30 1405 C 128.355 3.67765 -4.99149 0
M  V30 1406 C 130.41 3.36459 -3.67015 0
M  V30 1407 C 129.113 3.6734 -6.18428 0
M  V30 1408 C 131.139 3.37333 -4.85758 0
M  V30 1409 C 130.501 3.52438 -6.09891 0
M  V30 1410 H 126.6 0.700433 -0.347733 0
M  V30 1411 H 129.184 1.38441 -1.36902 0
M  V30 1412 H 127.355 3.81786 -0.713713 0
M  V30 1413 H 129.087 3.93875 -0.929745 0
M  V30 1414 H 125.842 3.71568 -2.93656 0
M  V30 1415 H 126.266 3.8727 -5.55294 0
M  V30 1416 H 130.908 3.237 -2.71989 0
M  V30 1417 H 128.626 3.78878 -7.13777 0
M  V30 1418 H 132.212 3.25617 -4.82146 0
M  V30 1419 H 131.092 3.53047 -7.00234 0
M  V30 1420 N 128.595 0.856903 1.32268 0
M  V30 1421 C 129.842 0.461386 1.97174 0
M  V30 1422 C 130.17 -0.983491 1.67803 0
M  V30 1423 O 129.425 -1.70541 0.959903 0
M  V30 1424 C 129.724 0.649919 3.51441 0
M  V30 1425 C 129.39 2.0656 4.00804 0
M  V30 1426 C 128.052 2.45279 4.13995 0
M  V30 1427 C 130.404 2.98947 4.26943 0
M  V30 1428 C 127.732 3.75653 4.50668 0
M  V30 1429 C 130.084 4.28822 4.65075 0
M  V30 1430 C 128.748 4.67472 4.76472 0
M  V30 1431 H 128.018 0.168833 0.72151 0
M  V30 1432 H 130.665 1.08739 1.57633 0
M  V30 1433 H 128.97 -0.0593018 3.91755 0
M  V30 1434 H 130.667 0.32391 3.9969 0
M  V30 1435 H 127.257 1.75495 3.91024 0
M  V30 1436 H 131.441 2.70265 4.16258 0
M  V30 1437 H 126.697 4.05379 4.57688 0
M  V30 1438 H 130.871 5.0047 4.84255 0
M  V30 1439 H 128.498 5.68539 5.04646 0
M  V30 1440 N 130.073 -1.45103 0.615059 0
M  V30 1441 C 131.319 -2.03035 0.121804 0
M  V30 1442 C 131.674 -1.47393 -1.23665 0
M  V30 1443 O 130.967 -0.642061 -1.80522 0
M  V30 1444 C 131.161 -3.57386 0.0318797 0
M  V30 1445 C 130.99 -4.28 1.38007 0
M  V30 1446 C 129.76 -4.65624 1.9627 0
M  V30 1447 C 131.958 -4.5948 2.31047 0
M  V30 1448 N 129.94 -5.21132 3.24492 0
M  V30 1449 C 131.311 -5.159 3.43872 0
M  V30 1450 C 133.366 -4.41423 2.30326 0
M  V30 1451 C 132.069 -5.56165 4.5615 0
M  V30 1452 C 134.095 -4.82726 3.41658 0
M  V30 1453 C 133.457 -5.39245 4.53205 0
M  V30 1454 H 129.556 -0.77702 0.0881159 0
M  V30 1455 H 132.14 -1.76819 0.815044 0
M  V30 1456 H 130.311 -3.83247 -0.630599 0
M  V30 1457 H 132.043 -4.01976 -0.468721 0
M  V30 1458 H 128.798 -4.49421 1.49392 0
M  V30 1459 H 129.222 -5.53377 3.90004 0
M  V30 1460 H 133.864 -3.97033 1.45343 0
M  V30 1461 H 131.582 -5.99517 5.41854 0
M  V30 1462 H 135.168 -4.7048 3.42257 0
M  V30 1463 H 134.048 -5.70616 5.37929 0
M  V30 1464 N 131.551 -0.354651 -1.53558 0
M  V30 1465 C 132.498 0.496968 -2.25386 0
M  V30 1466 C 133.468 1.0865 -1.25636 0
M  V30 1467 O 134.653 1.12104 -1.54394 0
M  V30 1468 C 131.793 1.63637 -3.03837 0
M  V30 1469 C 130.906 1.07307 -4.18461 0
M  V30 1470 C 130.041 2.18068 -4.84376 0
M  V30 1471 C 129.08 1.59147 -5.91049 0
M  V30 1472 N 128.217 2.63695 -6.50699 0
M  V30 1473 H 133.057 -0.122075 -2.9775 0
M  V30 1474 H 130.594 -0.0720154 -1.46924 0
M  V30 1475 H 132.552 2.30734 -3.47589 0
M  V30 1476 H 131.182 2.22623 -2.33749 0
M  V30 1477 H 130.234 0.292708 -3.79272 0
M  V30 1478 H 131.546 0.602193 -4.95152 0
M  V30 1479 H 130.7 2.93007 -5.31255 0
M  V30 1480 H 129.439 2.68504 -4.07133 0
M  V30 1481 H 128.444 0.827175 -5.43542 0
M  V30 1482 H 129.669 1.09549 -6.70206 0
M  V30 1483 H 127.615 3.13365 -5.76315 0
M  V30 1484 H 127.532 2.21263 -7.22896 0
M  V30 1485 H 128.8 3.3837 -7.02229 0
M  V30 1486 N 133.029 1.57378 -0.0835403 0
M  V30 1487 C 133.979 2.09916 0.889905 0
M  V30 1488 C 134.963 1.01151 1.25129 0
M  V30 1489 O 136.155 1.27443 1.2283 0
M  V30 1490 C 133.284 2.67379 2.15322 0
M  V30 1491 C 132.37 3.83167 1.81779 0
M  V30 1492 N 132.761 4.91665 1.18739 0
M  V30 1493 C 131.059 3.92685 2.11459 0
M  V30 1494 C 131.76 5.72409 1.0355 0
M  V30 1495 N 130.736 5.21062 1.54906 0
M  V30 1496 H 134.538 2.91188 0.398378 0
M  V30 1497 H 132.052 1.61956 0.120013 0
M  V30 1498 H 134.049 3.0334 2.8599 0
M  V30 1499 H 132.709 1.87558 2.65051 0
M  V30 1500 H 133.72 5.10784 0.855604 0
M  V30 1501 H 130.397 3.23856 2.63483 0
M  V30 1502 H 131.787 6.69699 0.543425 0
M  V30 1503 N 134.507 -0.190092 1.56449 0
M  V30 1504 C 135.918 -0.754312 1.70784 0
M  V30 1505 C 136.269 -1.83631 0.690951 0
M  V30 1506 O 135.394 -2.15868 -0.151604 0
M  V30 1507 C 135.989 -1.37503 3.09642 0
M  V30 1508 C 134.548 -1.88628 3.25725 0
M  V30 1509 C 133.695 -0.758098 2.66736 0
M  V30 1510 H 136.646 0.0350524 1.58661 0
M  V30 1511 H 136.667 -2.2445 3.0725 0
M  V30 1512 H 136.179 -0.587302 3.83631 0
M  V30 1513 H 134.28 -2.70103 2.56661 0
M  V30 1514 H 134.393 -2.04462 4.3328 0
M  V30 1515 H 132.757 -1.17369 2.26046 0
M  V30 1516 H 133.54 0.0174705 3.43296 0
M  V30 1517 N 135.985 -1.50799 -0.457987 0
M  V30 1518 C 137.233 -1.62121 -1.2067 0
M  V30 1519 C 137.554 -0.329793 -1.92191 0
M  V30 1520 O 136.824 0.653409 -1.84682 0
M  V30 1521 H 135.404 -0.597441 -0.448411 0
M  V30 1522 H 138.066 -1.87637 -0.527096 0
M  V30 1523 H 137.162 -2.43882 -1.94751 0
M  V30 1524 N 137.463 0.71206 -1.40597 0
M  V30 1525 C 138.709 1.47416 -1.39271 0
M  V30 1526 C 139.042 1.942 0.00388791 0
M  V30 1527 O 138.317 1.68403 0.973179 0
M  V30 1528 C 138.6 2.69774 -2.38525 0
M  V30 1529 C 138.453 2.28861 -3.87224 0
M  V30 1530 C 139.772 3.71939 -2.35264 0
M  V30 1531 H 136.891 0.534713 -0.5072 0
M  V30 1532 H 139.533 0.812375 -1.71757 0
M  V30 1533 H 137.683 3.26238 -2.10953 0
M  V30 1534 H 139.355 1.77852 -4.25636 0
M  V30 1535 H 137.598 1.60824 -4.02887 0
M  V30 1536 H 138.269 3.16584 -4.52193 0
M  V30 1537 H 140.745 3.25113 -2.59694 0
M  V30 1538 H 139.621 4.55186 -3.06753 0
M  V30 1539 H 139.882 4.20484 -1.36549 0
M  V30 1540 N 138.941 1.26152 0.944643 0
M  V30 1541 C 139.889 1.07215 2.06417 0
M  V30 1542 C 140.883 9.2007e-05 1.694 0
M  V30 1543 O 142.089 0.1565 1.79318 0
M  V30 1544 H 138.464 0.329837 0.675805 0
M  V30 1545 H 140.435 2.02099 2.19541 0
M  V30 1546 C 139.184 0.718197 3.40202 0
M  V30 1547 H 138.507 1.53497 3.69159 0
M  V30 1548 H 139.947 0.625459 4.19361 0
M  V30 1549 C 138.406 -0.576435 3.31932 0
M  V30 1550 O 138.936 -1.61574 3.67773 0
M  V30 1551 N 137.142 -0.565781 2.85039 0
M  V30 1552 H 136.689 0.280367 2.5607 0
M  V30 1553 H 136.647 -1.43213 2.79888 0
M  V30 1554 N 140.419 -1.14872 1.07899 0
M  V30 1555 C 141.83 -1.67367 0.827363 0
M  V30 1556 C 142.181 -1.85236 -0.646693 0
M  V30 1557 O 141.306 -1.55974 -1.50004 0
M  V30 1558 C 141.901 -3.04016 1.49532 0
M  V30 1559 C 140.46 -3.53566 1.29106 0
M  V30 1560 C 139.607 -2.29161 1.56143 0
M  V30 1561 H 142.558 -0.990083 1.24028 0
M  V30 1562 H 142.579 -3.69219 0.919643 0
M  V30 1563 H 142.091 -2.90978 2.56814 0
M  V30 1564 H 140.192 -3.71835 0.238713 0
M  V30 1565 H 140.305 -4.34661 2.01511 0
M  V30 1566 H 138.669 -2.34978 0.982717 0
M  V30 1567 H 139.452 -2.18705 2.64619 0
M  V30 1568 N 141.898 -0.863906 -1.31812 0
M  V30 1569 C 143.145 -0.471836 -1.96926 0
M  V30 1570 C 143.473 0.974578 -1.68322 0
M  V30 1571 O 142.728 1.7003 -0.968933 0
M  V30 1572 C 143.027 -0.668547 -3.51091 0
M  V30 1573 C 142.693 -2.08683 -3.99703 0
M  V30 1574 C 141.355 -2.47471 -4.12688 0
M  V30 1575 C 143.707 -3.01207 -4.25351 0
M  V30 1576 C 141.035 -3.78037 -4.4867 0
M  V30 1577 C 143.387 -4.31282 -4.62794 0
M  V30 1578 C 142.051 -4.69992 -4.73987 0
M  V30 1579 H 141.321 -0.172657 -0.720604 0
M  V30 1580 H 143.968 -1.09573 -1.57054 0
M  V30 1581 H 142.273 0.0385252 -3.91781 0
M  V30 1582 H 143.97 -0.345102 -3.99512 0
M  V30 1583 H 140.56 -1.77566 -3.90087 0
M  V30 1584 H 144.744 -2.72469 -4.14819 0
M  V30 1585 H 140 -4.078 -4.55532 0
M  V30 1586 H 144.174 -5.03031 -4.81594 0
M  V30 1587 H 141.801 -5.71207 -5.01624 0
M  V30 1588 N 143.376 1.44774 -0.622745 0
M  V30 1589 C 144.601 2.06999 -0.128968 0
M  V30 1590 C 145.026 1.4617 1.1839 0
M  V30 1591 O 144.384 0.560007 1.72434 0
M  V30 1592 C 144.432 3.60595 -0.0188351 0
M  V30 1593 O 143.536 3.99398 1.02739 0
M  V30 1594 H 142.877 0.659047 -0.0809544 0
M  V30 1595 H 145.407 1.85784 -0.85705 0
M  V30 1596 H 145.417 4.07627 0.174476 0
M  V30 1597 H 144.092 4.04252 -0.977384 0
M  V30 1598 H 142.669 3.64011 0.809326 0
M  V30 1599 N 144.854 0.36279 1.53368 0
M  V30 1600 C 146.1 -0.228113 2.01513 0
M  V30 1601 C 146.433 -1.48648 1.2497 0
M  V30 1602 O 145.708 -1.91459 0.342616 0
M  V30 1603 C 145.991 -0.522884 3.56284 0
M  V30 1604 C 145.844 0.74892 4.43521 0
M  V30 1605 C 147.163 -1.32461 4.19693 0
M  V30 1606 H 144.282 -0.0814343 0.732487 0
M  V30 1607 H 146.924 0.48713 1.83649 0
M  V30 1608 H 145.074 -1.1322 3.71636 0
M  V30 1609 H 146.746 1.38648 4.39971 0
M  V30 1610 H 144.989 1.36986 4.11603 0
M  V30 1611 H 145.66 0.497667 5.49752 0
M  V30 1612 H 148.136 -0.809203 4.08156 0
M  V30 1613 H 147.012 -1.49961 5.28018 0
M  V30 1614 H 147.273 -2.33232 3.75573 0
M  V30 1615 N 146.332 -1.57332 0.0918853 0
M  V30 1616 C 147.295 -2.12708 -0.85369 0
M  V30 1617 C 148.295 -1.05561 -1.213 0
M  V30 1618 O 149.485 -1.31461 -1.14296 0
M  V30 1619 C 146.617 -2.64503 -2.15061 0
M  V30 1620 H 147.81 -2.97573 -0.3729 0
M  V30 1621 H 145.363 -1.55509 -0.157072 0
M  V30 1622 H 146.098 -1.83149 -2.67632 0
M  V30 1623 H 145.883 -3.4284 -1.90272 0
M  V30 1624 H 147.373 -3.07351 -2.82711 0
M  V30 1625 N 147.81 0.181792 -1.56548 0
M  V30 1626 C 149.226 0.53316 -1.50431 0
M  V30 1627 C 149.426 1.85184 -0.794297 0
M  V30 1628 O 148.482 2.50058 -0.350318 0
M  V30 1629 C 149.795 0.575597 -2.9514 0
M  V30 1630 C 151.343 0.663519 -3.05886 0
M  V30 1631 C 151.818 0.736946 -4.52032 0
M  V30 1632 N 153.309 0.800118 -4.56237 0
M  V30 1633 C 154.044 0.877327 -5.66649 0
M  V30 1634 N 153.54 0.916016 -6.86718 0
M  V30 1635 N 155.333 0.915542 -5.54594 0
M  V30 1636 H 147.484 -0.683025 -2.01118 0
M  V30 1637 H 149.747 -0.244988 -0.915797 0
M  V30 1638 H 149.453 -0.324482 -3.502 0
M  V30 1639 H 149.327 1.42572 -3.49218 0
M  V30 1640 H 151.714 1.55403 -2.50867 0
M  V30 1641 H 151.795 -0.21307 -2.54911 0
M  V30 1642 H 151.439 -0.149262 -5.07681 0
M  V30 1643 H 151.369 1.62953 -5.00753 0
M  V30 1644 H 153.86 0.778926 -3.69785 0
M  V30 1645 H 154.173 0.975813 -7.66614 0
M  V30 1646 H 152.518 0.884469 -6.89349 0
M  V30 1647 H 155.709 0.882245 -4.59711 0
M  V30 1648 H 155.882 0.972253 -6.40665 0
M  V30 1649 N 149.288 1.51039 0.449983 0
M  V30 1650 C 150.251 1.70863 1.5277 0
M  V30 1651 C 151.251 0.578846 1.5002 0
M  V30 1652 O 152.441 0.846213 1.52266 0
M  V30 1653 C 149.573 1.75341 2.9235 0
M  V30 1654 H 150.766 2.67034 1.36502 0
M  V30 1655 H 148.319 1.40838 0.677812 0
M  V30 1656 H 149.054 0.809383 3.14037 0
M  V30 1657 H 148.839 2.57436 2.95752 0
M  V30 1658 H 150.329 1.92559 3.70555 0
M  V30 1659 N 150.766 -0.704594 1.40972 0
M  V30 1660 C 151.729 -1.80035 1.41845 0
M  V30 1661 C 152.729 -1.57774 0.310474 0
M  V30 1662 O 153.919 -1.64613 0.56992 0
M  V30 1663 C 151.051 -3.18284 1.22098 0
M  V30 1664 H 152.244 -1.80658 2.3938 0
M  V30 1665 H 149.797 -0.911329 1.26982 0
M  V30 1666 H 150.532 -3.23306 0.253672 0
M  V30 1667 H 150.317 -3.35843 2.02366 0
M  V30 1668 H 151.807 -3.98289 1.25522 0
M  V30 1669 N 152.244 -1.26651 -0.937939 0
M  V30 1670 C 153.49 -1.13562 -1.68746 0
M  V30 1671 C 153.845 0.317241 -1.89767 0
M  V30 1672 O 153.138 1.22939 -1.46957 0
M  V30 1673 C 153.332 -1.84168 -3.06295 0
M  V30 1674 C 153.161 -3.36171 -2.98696 0
M  V30 1675 C 151.931 -4.05468 -3.01535 0
M  V30 1676 C 154.129 -4.32312 -2.78588 0
M  V30 1677 N 152.111 -5.44118 -2.84269 0
M  V30 1678 C 153.482 -5.58159 -2.69924 0
M  V30 1679 C 155.537 -4.22524 -2.63396 0
M  V30 1680 C 154.24 -6.75335 -2.47618 0
M  V30 1681 C 156.266 -5.39411 -2.42466 0
M  V30 1682 C 155.628 -6.64208 -2.34536 0
M  V30 1683 H 151.727 -0.470361 -0.624728 0
M  V30 1684 H 154.311 -1.59982 -1.10968 0
M  V30 1685 H 152.482 -1.40219 -3.62206 0
M  V30 1686 H 154.214 -1.63674 -3.70126 0
M  V30 1687 H 150.969 -3.56854 -3.11372 0
M  V30 1688 H 151.393 -6.1693 -2.78795 0
M  V30 1689 H 156.035 -3.26771 -2.68292 0
M  V30 1690 H 153.753 -7.71182 -2.41463 0
M  V30 1691 H 157.339 -5.33711 -2.31611 0
M  V30 1692 H 156.219 -7.53129 -2.18555 0
M  V30 1693 N 153.722 1.14298 -1.08507 0
M  V30 1694 C 154.654 2.1907 -0.673859 0
M  V30 1695 C 155.667 1.60381 0.279577 0
M  V30 1696 O 156.856 1.78374 0.0670754 0
M  V30 1697 C 153.956 3.38888 0.0290979 0
M  V30 1698 C 153.129 4.27103 -0.943494 0
M  V30 1699 C 152.188 5.25477 -0.275676 0
M  V30 1700 O 151.214 5.61709 -0.920401 0
M  V30 1701 N 152.416 5.7227 0.974013 0
M  V30 1702 H 155.181 2.54965 -1.57521 0
M  V30 1703 H 152.742 1.29528 -0.971287 0
M  V30 1704 H 154.734 4.01761 0.48683 0
M  V30 1705 H 153.304 3.01309 0.832555 0
M  V30 1706 H 152.524 3.61149 -1.58004 0
M  V30 1707 H 153.812 4.82905 -1.60251 0
M  V30 1708 H 153.21 5.44965 1.51755 0
M  V30 1709 H 151.767 6.37127 1.37522 0
M  V30 1710 N 155.201 0.870884 1.31352 0
M  V30 1711 C 156.478 0.402907 1.91405 0
M  V30 1712 C 156.858 -1.11512 1.79244 0
M  V30 1713 O 156.206 -1.94411 1.2007 0
M  V30 1714 C 156.416 0.885301 3.37585 0
M  V30 1715 C 157.764 0.911971 4.14691 0
M  V30 1716 O 158.788 0.831016 3.46371 0
M  V30 1717 O 157.647 1.02927 5.3672 0
M  V30 1718 H 154.741 0.120698 0.818145 0
M  V30 1719 H 157.287 0.958857 1.40014 0
M  V30 1720 H 156.059 1.92889 3.40455 0
M  V30 1721 H 155.682 0.307714 3.96407 0
M  V30 1722 N 156.679 -1.44442 0.630414 0
M  V30 1723 C 157.609 -2.33418 -0.0618083 0
M  V30 1724 C 158.59 -1.48165 -0.835541 0
M  V30 1725 O 159.775 -1.76886 -0.801564 0
M  V30 1726 C 156.905 -3.31222 -1.04449 0
M  V30 1727 C 155.859 -4.26288 -0.382436 0
M  V30 1728 C 155.185 -5.13954 -1.47497 0
M  V30 1729 C 156.485 -5.1744 0.710865 0
M  V30 1730 H 158.179 -2.91548 0.681184 0
M  V30 1731 H 155.725 -1.40191 0.329026 0
M  V30 1732 H 157.678 -3.92351 -1.53748 0
M  V30 1733 H 156.402 -2.71299 -1.81836 0
M  V30 1734 H 155.061 -3.6649 0.0899054 0
M  V30 1735 H 154.709 -4.50385 -2.2397 0
M  V30 1736 H 154.409 -5.7837 -1.03737 0
M  V30 1737 H 155.933 -5.77955 -1.96979 0
M  V30 1738 H 157.347 -5.72509 0.300996 0
M  V30 1739 H 155.744 -5.90455 1.07156 0
M  V30 1740 H 156.814 -4.58496 1.57829 0
M  V30 1741 N 158.157 -0.370918 -1.53173 0
M  V30 1742 C 159.385 0.217704 -2.05751 0
M  V30 1743 C 159.8 1.42018 -1.24404 0
M  V30 1744 O 159.157 1.80245 -0.286033 0
M  V30 1745 C 159.208 0.605954 -3.56385 0
M  V30 1746 O 158.929 -0.548734 -4.3465 0
M  V30 1747 C 160.43 1.2524 -4.25241 0
M  V30 1748 H 157.65 0.0371659 -0.66997 0
M  V30 1749 H 160.194 -0.530832 -1.9749 0
M  V30 1750 H 158.349 1.3044 -3.6478 0
M  V30 1751 H 158.763 -0.23376 -5.23979 0
M  V30 1752 H 160.237 1.47458 -5.3194 0
M  V30 1753 H 160.714 2.2143 -3.79296 0
M  V30 1754 H 161.32 0.595233 -4.21114 0
M  V30 1755 N 159.635 1.57281 -0.100228 0
M  V30 1756 C 160.86 1.99302 0.573881 0
M  V30 1757 C 161.285 0.979059 1.60611 0
M  V30 1758 O 160.643 -0.0517803 1.81226 0
M  V30 1759 C 160.691 3.40274 1.19358 0
M  V30 1760 O 159.795 3.41676 2.30935 0
M  V30 1761 H 159.136 0.647944 0.145138 0
M  V30 1762 H 161.666 2.03779 -0.183156 0
M  V30 1763 H 161.676 3.78078 1.53365 0
M  V30 1764 H 160.351 4.13594 0.437385 0
M  V30 1765 H 158.928 3.15672 1.98509 0
M  V30 1766 N 161.113 -0.173488 1.56642 0
M  V30 1767 C 162.361 -0.888706 1.81512 0
M  V30 1768 C 162.682 -1.82875 0.676872 0
M  V30 1769 O 161.952 -1.93536 -0.303414 0
M  V30 1770 H 160.532 -0.331164 0.669582 0
M  V30 1771 H 163.194 -0.173823 1.94123 0
M  V30 1772 H 162.29 -1.46691 2.75478 0
M  V30 1773 N 162.591 -1.51276 -0.441967 0
M  V30 1774 C 164.007 -1.39349 -0.778083 0
M  V30 1775 C 164.207 -0.472212 -1.95889 0
M  V30 1776 O 163.263 0.0743551 -2.5239 0
M  V30 1777 C 164.576 -2.81292 -1.0628 0
M  V30 1778 C 166.124 -2.9041 -1.16751 0
M  V30 1779 C 166.599 -4.33251 -1.48519 0
M  V30 1780 N 168.09 -4.36336 -1.55453 0
M  V30 1781 C 168.825 -5.43885 -1.81596 0
M  V30 1782 N 168.321 -6.61601 -2.05562 0
M  V30 1783 N 170.114 -5.3136 -1.8334 0
M  V30 1784 H 162.265 -2.09729 0.335774 0
M  V30 1785 H 164.528 -0.943925 0.0878028 0
M  V30 1786 H 164.234 -3.50678 -0.267905 0
M  V30 1787 H 164.108 -3.20334 -1.99163 0
M  V30 1788 H 166.495 -2.21225 -1.95304 0
M  V30 1789 H 166.576 -2.54871 -0.217801 0
M  V30 1790 H 166.22 -5.02984 -0.704958 0
M  V30 1791 H 166.15 -4.66299 -2.44689 0
M  V30 1792 H 168.641 -3.51466 -1.38853 0
M  V30 1793 H 168.954 -7.39361 -2.24867 0
M  V30 1794 H 167.299 -6.64725 -2.02894 0
M  V30 1795 H 170.49 -4.38382 -1.64132 0
M  V30 1796 H 170.663 -6.15258 -2.03377 0
M  V30 1797 N 164.069 0.697108 -1.41344 0
M  V30 1798 C 165.315 1.4593 -1.40827 0
M  V30 1799 C 165.648 1.94193 -0.0167098 0
M  V30 1800 O 164.923 1.69425 0.955263 0
M  V30 1801 C 165.206 2.67229 -2.41373 0
M  V30 1802 C 165.059 2.24741 -3.8963 0
M  V30 1803 C 166.378 3.69423 -2.39196 0
M  V30 1804 H 163.497 0.529303 -0.512842 0
M  V30 1805 H 166.139 0.794112 -1.72609 0
M  V30 1806 H 164.289 3.23982 -2.14401 0
M  V30 1807 H 165.961 1.73327 -4.27499 0
M  V30 1808 H 164.204 1.56542 -4.0457 0
M  V30 1809 H 164.875 3.1177 -4.55525 0
M  V30 1810 H 167.351 3.2234 -2.63128 0
M  V30 1811 H 166.227 4.51907 -3.11563 0
M  V30 1812 H 166.488 4.19012 -1.41001 0
M  V30 1813 N 165.547 1.27147 0.931209 0
M  V30 1814 C 166.796 1.12664 1.67302 0
M  V30 1815 C 167.109 -0.327718 1.92835 0
M  V30 1816 O 168.315 -0.593392 2.64936 0
M  V30 1817 C 166.771 1.9683 3.01307 0
M  V30 1818 C 166.379 3.46901 2.83485 0
M  V30 1819 C 168.123 1.90985 3.79111 0
M  V30 1820 C 166.03 4.23279 4.13024 0
M  V30 1821 H 164.96 0.41803 0.627509 0
M  V30 1822 H 167.611 1.51539 1.03481 0
M  V30 1823 H 165.993 1.50797 3.66164 0
M  V30 1824 H 167.167 4.00773 2.27415 0
M  V30 1825 H 165.482 3.54088 2.19113 0
M  V30 1826 H 168.079 2.45328 4.75098 0
M  V30 1827 H 168.422 0.882718 4.06834 0
M  V30 1828 H 168.955 2.34895 3.21044 0
M  V30 1829 H 165.694 5.26503 3.90481 0
M  V30 1830 H 165.214 3.74186 4.6877 0
M  V30 1831 H 166.893 4.32265 4.81411 0
M  V30 1832 N 167.025 -1.13721 1.09112 0
M  V30 1833 C 168.25 -1.89314 0.847053 0
M  V30 1834 C 168.675 -1.78416 -0.595774 0
M  V30 1835 O 168.033 -1.12942 -1.41823 0
M  V30 1836 C 168.081 -3.3701 1.28284 0
M  V30 1837 O 167.185 -4.10054 0.439267 0
M  V30 1838 H 166.526 -0.588745 0.307044 0
M  V30 1839 H 169.056 -1.43902 1.45442 0
M  V30 1840 H 169.066 -3.87834 1.26683 0
M  V30 1841 H 167.741 -3.4426 2.33363 0
M  V30 1842 H 166.318 -3.69266 0.519312 0
M  V30 1843 N 168.503 -0.877838 -1.30888 0
M  V30 1844 C 169.751 -0.491723 -1.96027 0
M  V30 1845 C 170.072 0.960827 -1.69685 0
M  V30 1846 O 169.342 1.67462 -1.01654 0
M  V30 1847 H 167.922 -0.17885 -0.725273 0
M  V30 1848 H 170.584 -1.11935 -1.59551 0
M  V30 1849 H 169.68 -0.656016 -3.05128 0
M  V30 1850 N 169.982 1.44106 -0.638065 0
M  V30 1851 C 171.23 2.01579 -0.145043 0
M  V30 1852 C 171.551 1.50496 1.24 0
M  V30 1853 O 170.821 0.711374 1.82527 0
M  V30 1854 H 169.401 0.745282 -0.05063 0
M  V30 1855 H 172.063 1.76516 -0.826327 0
M  V30 1856 H 171.159 3.11877 -0.118039 0
M  V30 1857 N 171.46 0.379036 1.52974 0
M  V30 1858 C 172.685 -0.209353 2.06341 0
M  V30 1859 C 173.11 -1.40583 1.24972 0
M  V30 1860 O 172.468 -1.79246 0.272155 0
M  V30 1861 C 172.516 -0.567786 3.56102 0
M  V30 1862 O 171.62 -1.66318 3.77375 0
M  V30 1863 H 170.961 -0.0272919 0.663439 0
M  V30 1864 H 173.491 0.543536 1.97248 0
M  V30 1865 H 173.501 -0.835003 3.99364 0
M  V30 1866 H 172.176 0.307013 4.14765 0
M  V30 1867 H 170.753 -1.39048 3.46006 0
M  V30 1868 N 172.938 -1.57226 0.108567 0
M  V30 1869 C 174.166 -1.99179 -0.559954 0
M  V30 1870 C 174.581 -0.988022 -1.60884 0
M  V30 1871 O 173.938 0.0205512 -1.82488 0
M  V30 1872 C 173.989 -3.41159 -1.19552 0
M  V30 1873 O 173.71 -4.37694 -0.188577 0
M  V30 1874 C 175.211 -3.98188 -1.94837 0
M  V30 1875 H 172.431 -0.654228 -0.149088 0
M  V30 1876 H 174.975 -2.03598 0.19183 0
M  V30 1877 H 173.13 -3.37711 -1.89815 0
M  V30 1878 H 173.544 -5.20469 -0.649014 0
M  V30 1879 H 175.018 -4.99644 -2.34648 0
M  V30 1880 H 175.495 -3.3675 -2.81951 0
M  V30 1881 H 176.101 -4.0515 -1.2936 0
M  V30 1882 N 174.416 0.165178 -1.56732 0
M  V30 1883 C 175.346 1.20651 -1.99914 0
M  V30 1884 C 176.327 1.45827 -0.875705 0
M  V30 1885 O 177.512 1.57057 -1.14223 0
M  V30 1886 C 174.642 2.54401 -2.36427 0
M  V30 1887 C 173.596 2.43782 -3.51787 0
M  V30 1888 C 172.922 3.82078 -3.7406 0
M  V30 1889 C 174.222 1.93732 -4.85041 0
M  V30 1890 H 175.916 0.847534 -2.87154 0
M  V30 1891 H 173.462 0.40625 -1.38151 0
M  V30 1892 H 175.415 3.27458 -2.65234 0
M  V30 1893 H 174.139 2.92098 -1.46103 0
M  V30 1894 H 172.798 1.73178 -3.23117 0
M  V30 1895 H 172.446 4.17179 -2.81017 0
M  V30 1896 H 172.146 3.7584 -4.51684 0
M  V30 1897 H 173.67 4.56712 -4.05274 0
M  V30 1898 H 175.084 2.56569 -5.12684 0
M  V30 1899 H 173.481 1.98428 -5.66345 0
M  V30 1900 H 174.551 0.891962 -4.76626 0
M  V30 1901 N 175.894 1.51508 0.433938 0
M  V30 1902 C 177.122 1.68157 1.20543 0
M  V30 1903 C 177.537 0.380362 1.84929 0
M  V30 1904 O 176.894 -0.641446 1.70856 0
M  V30 1905 C 176.945 2.79965 2.28696 0
M  V30 1906 O 176.666 4.05045 1.66943 0
M  V30 1907 C 178.167 3.07912 3.18912 0
M  V30 1908 H 175.387 0.56421 0.363191 0
M  V30 1909 H 177.931 1.97941 0.513754 0
M  V30 1910 H 176.086 2.5277 2.93574 0
M  V30 1911 H 176.5 4.67165 2.38448 0
M  V30 1912 H 177.974 3.89719 3.90926 0
M  V30 1913 H 178.451 2.20456 3.79863 0
M  V30 1914 H 179.057 3.36779 2.59731 0
M  V30 1915 N 177.372 -0.689602 1.41712 0
M  V30 1916 C 178.305 -1.81403 1.3845 0
M  V30 1917 C 179.283 -1.60653 0.250874 0
M  V30 1918 O 180.467 -1.83323 0.43874 0
M  V30 1919 C 177.594 -3.18176 1.1611 0
M  V30 1920 C 176.64 -3.57705 2.3227 0
M  V30 1921 S 177.473 -3.61827 3.94767 0
M  V30 1922 C 178.629 -5.01318 3.74742 0
M  V30 1923 H 178.862 -1.83893 2.33603 0
M  V30 1924 H 176.395 -0.858878 1.28307 0
M  V30 1925 H 178.353 -3.97132 1.03907 0
M  V30 1926 H 177.014 -3.13288 0.225668 0
M  V30 1927 H 176.207 -4.57082 2.12349 0
M  V30 1928 H 175.809 -2.86073 2.40911 0
M  V30 1929 H 178.101 -5.88986 3.34817 0
M  V30 1930 H 179.044 -5.26283 4.73743 0
M  V30 1931 H 179.452 -4.73138 3.07898 0
M  V30 1932 N 178.85 -1.27639 -0.924453 0
M  V30 1933 C 179.782 -1.06442 -2.02985 0
M  V30 1934 C 180.795 -0.0194771 -1.62788 0
M  V30 1935 O 181.984 -0.261388 -1.76576 0
M  V30 1936 C 179.084 -0.59327 -3.33667 0
M  V30 1937 C 178.257 -1.71123 -4.02537 0
M  V30 1938 C 177.316 -1.23527 -5.11495 0
M  V30 1939 O 176.342 -1.93553 -5.35281 0
M  V30 1940 N 177.544 -0.0926678 -5.80426 0
M  V30 1941 H 180.309 -2.01633 -2.2173 0
M  V30 1942 H 177.87 -1.19248 -1.09505 0
M  V30 1943 H 179.862 -0.258686 -4.03872 0
M  V30 1944 H 178.432 0.265502 -3.1147 0
M  V30 1945 H 177.652 -2.21593 -3.26022 0
M  V30 1946 H 178.94 -2.46145 -4.45298 0
M  V30 1947 H 178.338 0.491741 -5.63559 0
M  V30 1948 H 176.895 0.182714 -6.51544 0
M  V30 1949 N 180.328 1.1314 -1.09713 0
M  V30 1950 C 181.574 1.84757 -0.836224 0
M  V30 1951 C 181.907 1.8347 0.636598 0
M  V30 1952 O 181.182 1.27491 1.46889 0
M  V30 1953 C 181.465 3.32782 -1.37578 0
M  V30 1954 C 181.318 3.42567 -2.91493 0
M  V30 1955 C 182.637 4.28307 -1.01198 0
M  V30 1956 H 179.756 0.67082 -0.305236 0
M  V30 1957 H 182.398 1.3278 -1.35903 0
M  V30 1958 H 180.548 3.77177 -0.931097 0
M  V30 1959 H 182.22 3.06862 -3.44432 0
M  V30 1960 H 180.463 2.83349 -3.28475 0
M  V30 1961 H 181.134 4.46674 -3.24324 0
M  V30 1962 H 183.61 3.91999 -1.39556 0
M  V30 1963 H 182.486 5.30307 -1.41653 0
M  V30 1964 H 182.747 4.42029 0.0794833 0
M  V30 1965 N 181.806 0.884767 1.30421 0
M  V30 1966 C 182.769 0.356277 2.26414 0
M  V30 1967 C 183.769 -0.501124 1.52792 0
M  V30 1968 O 184.959 -0.30831 1.7145 0
M  V30 1969 C 182.091 -0.492316 3.37326 0
M  V30 1970 H 183.284 1.20389 2.74675 0
M  V30 1971 H 180.837 0.661607 1.41607 0
M  V30 1972 H 181.572 -1.36052 2.94381 0
M  V30 1973 H 181.357 0.121832 3.91911 0
M  V30 1974 H 182.847 -0.853871 4.08777 0
M  V30 1975 N 183.284 -1.43765 0.645699 0
M  V30 1976 C 184.7 -1.56509 0.312591 0
M  V30 1977 C 184.9 -1.6307 -1.18365 0
M  V30 1978 O 183.956 -1.58167 -1.96824 0
M  V30 1979 C 185.269 -2.82968 1.01733 0
M  V30 1980 C 186.817 -2.96701 0.996865 0
M  V30 1981 C 187.292 -4.25982 1.68236 0
M  V30 1982 N 188.783 -4.32829 1.64964 0
M  V30 1983 C 189.518 -5.31613 2.14885 0
M  V30 1984 N 189.014 -6.36718 2.73061 0
M  V30 1985 N 190.807 -5.23217 2.05428 0
M  V30 1986 H 182.958 -1.3775 1.61675 0
M  V30 1987 H 185.221 -0.661067 0.679481 0
M  V30 1988 H 184.927 -2.84156 2.0724 0
M  V30 1989 H 184.801 -3.72957 0.564177 0
M  V30 1990 H 187.188 -2.95058 -0.0497719 0
M  V30 1991 H 187.269 -2.08022 1.48865 0
M  V30 1992 H 186.913 -4.28386 2.72852 0
M  V30 1993 H 186.843 -5.13545 1.16529 0
M  V30 1994 H 189.334 -3.57493 1.22503 0
M  V30 1995 H 189.647 -7.08401 3.08848 0
M  V30 1996 H 187.992 -6.37362 2.77118 0
M  V30 1997 H 191.183 -4.40019 1.59689 0
M  V30 1998 H 191.356 -6.00045 2.44643 0
M  V30 1999 N 184.763 -0.387143 -1.52771 0
M  V30 2000 C 185.693 0.440551 -2.29306 0
M  V30 2001 C 186.674 1.06535 -1.32606 0
M  V30 2002 O 187.859 1.07853 -1.61497 0
M  V30 2003 C 184.989 1.56919 -3.09829 0
M  V30 2004 C 183.943 1.07054 -4.14395 0
M  V30 2005 C 183.269 2.29109 -4.83129 0
M  V30 2006 C 184.569 0.140015 -5.22112 0
M  V30 2007 H 186.263 -0.198026 -2.98744 0
M  V30 2008 H 183.809 -0.09668 -1.43675 0
M  V30 2009 H 185.762 2.15503 -3.62128 0
M  V30 2010 H 184.486 2.23532 -2.3812 0
M  V30 2011 H 183.145 0.507247 -3.63074 0
M  V30 2012 H 182.793 2.94227 -4.0797 0
M  V30 2013 H 182.493 1.96406 -5.53804 0
M  V30 2014 H 184.017 2.88339 -5.38231 0
M  V30 2015 H 185.431 0.633978 -5.69784 0
M  V30 2016 H 183.828 -0.0971485 -6.00021 0
M  V30 2017 H 184.898 -0.811711 -4.78058 0
M  V30 2018 N 186.241 1.57166 -0.116904 0
M  V30 2019 C 187.171 2.18222 0.830759 0
M  V30 2020 C 188.152 1.12167 1.27877 0
M  V30 2021 O 189.337 1.40394 1.34176 0
M  V30 2022 C 186.467 2.77996 2.08172 0
M  V30 2023 C 185.421 3.89614 1.77157 0
M  V30 2024 C 184.747 4.36187 3.09265 0
M  V30 2025 C 186.047 5.1181 1.04151 0
M  V30 2026 H 187.741 2.97664 0.321992 0
M  V30 2027 H 185.287 1.4318 0.153434 0
M  V30 2028 H 187.24 3.19366 2.74924 0
M  V30 2029 H 185.964 1.9584 2.6137 0
M  V30 2030 H 184.623 3.48816 1.12796 0
M  V30 2031 H 184.271 3.50893 3.60393 0
M  V30 2032 H 183.971 5.11455 2.89288 0
M  V30 2033 H 185.495 4.80207 3.77139 0
M  V30 2034 H 186.909 5.50214 1.61052 0
M  V30 2035 H 185.306 5.92648 0.942762 0
M  V30 2036 H 186.376 4.84892 0.0279022 0
M  V30 2037 N 187.719 -0.156864 1.56817 0
M  V30 2038 C 188.996 -0.899244 1.73704 0
M  V30 2039 C 189.376 -1.99771 0.682254 0
M  V30 2040 O 188.724 -2.26515 -0.300522 0
M  V30 2041 C 188.934 -1.45075 3.17418 0
M  V30 2042 C 190.282 -1.91802 3.7881 0
M  V30 2043 O 191.306 -1.54838 3.20786 0
M  V30 2044 O 190.165 -2.5994 4.80722 0
M  V30 2045 H 187.259 -0.424267 0.709878 0
M  V30 2046 H 189.805 -0.143561 1.69092 0
M  V30 2047 H 188.577 -0.660846 3.85679 0
M  V30 2048 H 188.2 -2.27021 3.26416 0
M  V30 2049 N 189.197 -1.51736 -0.425897 0
M  V30 2050 C 190.608 -1.5732 -1.00536 0
M  V30 2051 C 190.959 -0.403537 -1.92005 0
M  V30 2052 O 190.084 0.478256 -2.11049 0
M  V30 2053 C 190.679 -2.85119 -1.8301 0
M  V30 2054 C 189.238 -2.93236 -2.35987 0
M  V30 2055 C 188.385 -2.52098 -1.15508 0
M  V30 2056 H 191.336 -1.57348 -0.206739 0
M  V30 2057 H 191.357 -2.69526 -2.68581 0
M  V30 2058 H 190.869 -3.7023 -1.16411 0
M  V30 2059 H 188.97 -2.12581 -3.06007 0
M  V30 2060 H 189.083 -3.9713 -2.68001 0
M  V30 2061 H 187.447 -2.05558 -1.50393 0
M  V30 2062 H 188.23 -3.39565 -0.505014 0
M  V30 2063 N 190.675 0.682077 -1.42076 0
M  V30 2064 C 191.625 1.78823 -1.41444 0
M  V30 2065 C 192.609 1.58323 -0.28681 0
M  V30 2066 O 193.801 1.68926 -0.528498 0
M  V30 2067 C 190.93 3.17232 -1.3122 0
M  V30 2068 C 190.016 3.4338 -2.489 0
M  V30 2069 N 190.407 3.40152 -3.7434 0
M  V30 2070 C 188.705 3.73986 -2.43003 0
M  V30 2071 C 189.406 3.65581 -4.52466 0
M  V30 2072 N 188.382 3.85989 -3.8277 0
M  V30 2073 H 192.184 1.7471 -2.36334 0
M  V30 2074 H 189.698 0.882622 -1.36321 0
M  V30 2075 H 191.695 3.96489 -1.2885 0
M  V30 2076 H 190.355 3.22547 -0.373263 0
M  V30 2077 H 191.366 3.20221 -4.07037 0
M  V30 2078 H 188.043 3.86591 -1.57651 0
M  V30 2079 H 189.433 3.69108 -5.61435 0
M  V30 2080 N 192.153 1.28127 0.917671 0
M  V30 2081 C 193.564 1.13622 1.48145 0
M  V30 2082 C 193.915 -0.275207 1.9426 0
M  V30 2083 O 193.04 -1.1691 1.82102 0
M  V30 2084 C 193.635 2.05648 2.69248 0
M  V30 2085 C 192.194 1.95219 3.21818 0
M  V30 2086 C 191.341 1.97618 1.94532 0
M  V30 2087 H 194.292 1.40874 0.730772 0
M  V30 2088 H 194.313 1.61818 3.44377 0
M  V30 2089 H 193.825 3.08365 2.35653 0
M  V30 2090 H 191.926 0.955244 3.60147 0
M  V30 2091 H 192.039 2.81976 3.87333 0
M  V30 2092 H 190.403 1.41973 2.11461 0
M  V30 2093 H 191.186 3.02007 1.63238 0
M  V30 2094 N 193.631 -1.12557 1.10312 0
M  V30 2095 C 194.578 -2.18247 0.750781 0
M  V30 2096 C 195.548 -1.63853 -0.272293 0
M  V30 2097 O 196.733 -1.90195 -0.151862 0
M  V30 2098 C 193.873 -3.44591 0.187379 0
M  V30 2099 C 192.986 -4.13046 1.2656 0
M  V30 2100 C 192.121 -5.27034 0.663978 0
M  V30 2101 C 191.16 -5.87353 1.72287 0
M  V30 2102 N 190.297 -6.92757 1.1416 0
M  V30 2103 H 195.137 -2.47732 1.65628 0
M  V30 2104 H 192.674 -1.21629 0.827337 0
M  V30 2105 H 194.632 -4.16904 -0.157148 0
M  V30 2106 H 193.262 -3.15527 -0.681355 0
M  V30 2107 H 192.314 -3.38924 1.72727 0
M  V30 2108 H 193.626 -4.53947 2.06721 0
M  V30 2109 H 192.78 -6.06104 0.268824 0
M  V30 2110 H 191.519 -4.87407 -0.169082 0
M  V30 2111 H 190.524 -5.06971 2.12746 0
M  V30 2112 H 191.749 -6.29051 2.55875 0
M  V30 2113 H 189.695 -6.5517 0.329984 0
M  V30 2114 H 189.612 -7.3225 1.88007 0
M  V30 2115 H 190.88 -7.75658 0.772956 0
M  V30 2116 N 195.109 -0.891671 -1.2995 0
M  V30 2117 C 196.337 -0.52866 -2.00032 0
M  V30 2118 C 196.752 0.884574 -1.66795 0
M  V30 2119 O 196.109 1.5827 -0.908669 0
M  V30 2120 C 196.16 -0.701814 -3.54622 0
M  V30 2121 O 195.881 -2.05942 -3.86678 0
M  V30 2122 C 197.382 -0.342683 -4.41973 0
M  V30 2123 H 194.602 -0.203659 -0.639347 0
M  V30 2124 H 197.146 -1.19881 -1.65677 0
M  V30 2125 H 195.301 -0.0789468 -3.8732 0
M  V30 2126 H 195.715 -2.08291 -4.81368 0
M  V30 2127 H 197.189 -0.514709 -5.49595 0
M  V30 2128 H 197.666 0.71975 -4.33262 0
M  V30 2129 H 198.272 -0.942154 -4.14733 0
M  V30 2130 N 196.587 1.43421 -0.653314 0
M  V30 2131 C 197.834 2.01812 -0.166745 0
M  V30 2132 C 198.162 1.51535 1.21931 0
M  V30 2133 O 197.417 0.698975 1.82792 0
M  V30 2134 C 197.716 3.57176 -0.126623 0
M  V30 2135 C 197.382 4.26798 -1.45444 0
M  V30 2136 C 196.044 4.45534 -1.81805 0
M  V30 2137 C 198.396 4.66225 -2.32989 0
M  V30 2138 C 195.724 5.00961 -3.05377 0
M  V30 2139 C 198.076 5.23021 -3.55853 0
M  V30 2140 C 196.74 5.39973 -3.9241 0
M  V30 2141 H 196.01 0.738484 -0.0610162 0
M  V30 2142 H 198.657 1.71896 -0.84404 0
M  V30 2143 H 196.962 3.86634 0.634123 0
M  V30 2144 H 198.659 4.00112 0.266723 0
M  V30 2145 H 195.249 4.12561 -1.16153 0
M  V30 2146 H 199.433 4.51443 -2.06187 0
M  V30 2147 H 194.689 5.12271 -3.3375 0
M  V30 2148 H 198.863 5.52518 -4.23907 0
M  V30 2149 H 196.49 5.82687 -4.88242 0
M  V30 2150 N 198.065 0.39524 1.52563 0
M  V30 2151 C 199.313 -0.184678 2.01254 0
M  V30 2152 C 199.634 -1.46822 1.28329 0
M  V30 2153 O 198.904 -1.91666 0.405094 0
M  V30 2154 H 197.484 -0.0712355 0.743596 0
M  V30 2155 H 200.146 0.528293 1.87603 0
M  V30 2156 H 199.242 -0.390681 3.09645 0
M  V30 2157 N 199.544 -1.57102 0.125237 0
M  V30 2158 C 200.792 -1.95021 -0.530198 0
M  V30 2159 C 201.113 -1.00982 -1.66816 0
M  V30 2160 O 200.383 -0.0672693 -1.95784 0
M  V30 2161 H 198.963 -0.720046 -0.198853 0
M  V30 2162 H 201.625 -1.93916 0.19564 0
M  V30 2163 H 200.721 -2.98211 -0.920681 0
M  V30 2164 N 201.022 0.148545 -1.56898 0
M  V30 2165 C 201.969 1.18345 -1.98149 0
M  V30 2166 C 202.939 1.42772 -0.848848 0
M  V30 2167 O 204.124 1.55132 -1.11079 0
M  V30 2168 C 201.264 2.51231 -2.36594 0
M  V30 2169 C 200.377 2.33991 -3.63142 0
M  V30 2170 C 199.512 3.59902 -3.90697 0
M  V30 2171 C 198.551 3.37692 -5.1052 0
M  V30 2172 N 197.688 4.5573 -5.34092 0
M  V30 2173 H 202.528 0.82467 -2.86362 0
M  V30 2174 H 200.065 0.395756 -1.41676 0
M  V30 2175 H 202.023 3.28713 -2.56912 0
M  V30 2176 H 200.653 2.85059 -1.51463 0
M  V30 2177 H 199.705 1.47572 -3.50609 0
M  V30 2178 H 201.017 2.13539 -4.5078 0
M  V30 2179 H 200.171 4.45813 -4.11505 0
M  V30 2180 H 198.91 3.83357 -3.01477 0
M  V30 2181 H 197.915 2.5017 -4.89587 0
M  V30 2182 H 199.14 3.15637 -6.0129 0
M  V30 2183 H 197.086 4.79361 -4.47827 0
M  V30 2184 H 197.003 4.38274 -6.15996 0
M  V30 2185 H 198.271 5.42858 -5.59397 0
M  V30 2186 N 202.5 1.5196 0.417844 0
M  V30 2187 C 203.749 1.6482 1.16264 0
M  V30 2188 C 204.062 0.379886 1.91876 0
M  V30 2189 O 205.268 0.388154 2.68711 0
M  V30 2190 C 203.724 2.91161 2.1155 0
M  V30 2191 C 203.332 4.25068 1.41495 0
M  V30 2192 C 205.076 3.13383 2.86341 0
M  V30 2193 C 202.983 5.42541 2.35379 0
M  V30 2194 H 201.913 0.613954 0.437694 0
M  V30 2195 H 204.564 1.78442 0.427871 0
M  V30 2196 H 202.946 2.71218 2.88543 0
M  V30 2197 H 204.12 4.55463 0.699263 0
M  V30 2198 H 202.435 4.0888 0.787792 0
M  V30 2199 H 205.032 3.98324 3.5671 0
M  V30 2200 H 205.375 2.27256 3.48798 0
M  V30 2201 H 205.908 3.33757 2.1645 0
M  V30 2202 H 202.647 6.30987 1.77582 0
M  V30 2203 H 202.167 5.16497 3.04945 0
M  V30 2204 H 203.846 5.75272 2.96093 0
M  V30 2205 N 203.978 -0.674533 1.42435 0
M  V30 2206 C 205.394 -0.98769 1.25367 0
M  V30 2207 C 205.594 -2.00879 0.158044 0
M  V30 2208 O 204.65 -2.48075 -0.470633 0
M  V30 2209 C 205.963 -1.49224 2.6106 0
M  V30 2210 C 207.511 -1.61 2.68417 0
M  V30 2211 C 207.986 -2.14852 4.04478 0
M  V30 2212 N 209.477 -2.22185 4.06434 0
M  V30 2213 C 210.212 -2.64928 5.08528 0
M  V30 2214 N 209.708 -3.07121 6.21006 0
M  V30 2215 N 211.501 -2.64679 4.95885 0
M  V30 2216 H 203.652 0.00152503 2.124 0
M  V30 2217 H 205.915 -0.0618434 0.945981 0
M  V30 2218 H 205.621 -0.816453 3.42092 0
M  V30 2219 H 205.495 -2.47094 2.84999 0
M  V30 2220 H 207.882 -2.27686 1.87732 0
M  V30 2221 H 207.963 -0.616195 2.48267 0
M  V30 2222 H 207.607 -1.48775 4.85622 0
M  V30 2223 H 207.537 -3.15024 4.2198 0
M  V30 2224 H 210.028 -1.92435 3.25234 0
M  V30 2225 H 210.341 -3.38423 6.94759 0
M  V30 2226 H 208.686 -3.04978 6.24511 0
M  V30 2227 H 211.877 -2.31078 4.07088 0
M  V30 2228 H 212.05 -2.9767 5.75584 0
M  V30 2229 N 205.456 -1.28612 -0.910864 0
M  V30 2230 C 206.388 -1.08589 -2.01844 0
M  V30 2231 C 207.401 -0.0367419 -1.62759 0
M  V30 2232 O 208.59 -0.280101 -1.76289 0
M  V30 2233 C 205.69 -0.628626 -3.33019 0
M  V30 2234 C 204.863 -1.75382 -4.00699 0
M  V30 2235 C 203.922 -1.28945 -5.10156 0
M  V30 2236 O 202.948 -1.9922 -5.33198 0
M  V30 2237 N 204.15 -0.154224 -5.80295 0
M  V30 2238 H 206.915 -2.03973 -2.19579 0
M  V30 2239 H 204.476 -1.20403 -1.08234 0
M  V30 2240 H 206.468 -0.301508 -4.03575 0
M  V30 2241 H 205.038 0.232451 -3.11735 0
M  V30 2242 H 204.258 -2.25039 -3.23653 0
M  V30 2243 H 205.546 -2.50854 -4.42662 0
M  V30 2244 H 204.944 0.43194 -5.64049 0
M  V30 2245 H 203.501 0.113599 -6.51701 0
M  V30 2246 N 206.934 1.1197 -1.10907 0
M  V30 2247 C 207.864 2.19928 -0.784473 0
M  V30 2248 C 208.845 1.6833 0.244726 0
M  V30 2249 O 210.03 1.93892 0.109418 0
M  V30 2250 C 207.16 3.46597 -0.220827 0
M  V30 2251 C 206.114 4.11376 -1.18127 0
M  V30 2252 C 205.44 5.32554 -0.478594 0
M  V30 2253 C 206.74 4.56945 -2.52979 0
M  V30 2254 H 208.434 2.47337 -1.68715 0
M  V30 2255 H 205.98 1.18879 -0.812642 0
M  V30 2256 H 207.933 4.21396 0.0184278 0
M  V30 2257 H 206.657 3.1863 0.717113 0
M  V30 2258 H 205.316 3.38564 -1.40606 0
M  V30 2259 H 204.964 5.00856 0.463976 0
M  V30 2260 H 204.664 5.76844 -1.11912 0
M  V30 2261 H 206.188 6.10096 -0.248 0
M  V30 2262 H 207.602 5.23093 -2.3462 0
M  V30 2263 H 205.999 5.1203 -3.12962 0
M  V30 2264 H 207.069 3.70676 -3.12614 0
M  V30 2265 N 208.412 0.89855 1.29475 0
M  V30 2266 C 209.658 0.534065 1.96263 0
M  V30 2267 C 210.013 -0.909415 1.69551 0
M  V30 2268 O 209.306 -1.63596 0.997349 0
M  V30 2269 C 209.5 0.761398 3.49195 0
M  V30 2270 C 209.329 2.22542 3.90775 0
M  V30 2271 C 208.099 2.87264 4.15701 0
M  V30 2272 C 210.297 3.20051 4.02581 0
M  V30 2273 N 208.279 4.24121 4.4384 0
M  V30 2274 C 209.65 4.42023 4.34759 0
M  V30 2275 C 211.705 3.15657 3.85052 0
M  V30 2276 C 210.408 5.60161 4.51235 0
M  V30 2277 C 212.434 4.33078 4.02737 0
M  V30 2278 C 211.796 5.5382 4.35273 0
M  V30 2279 H 207.895 0.245013 0.742625 0
M  V30 2280 H 210.479 1.15912 1.56437 0
M  V30 2281 H 208.65 0.165732 3.88046 0
M  V30 2282 H 210.382 0.362462 4.03074 0
M  V30 2283 H 207.137 2.38064 4.09417 0
M  V30 2284 H 207.561 4.94839 4.6202 0
M  V30 2285 H 212.203 2.23396 3.58962 0
M  V30 2286 H 209.921 6.52913 4.76162 0
M  V30 2287 H 213.507 4.31163 3.90628 0
M  V30 2288 H 212.387 6.43166 4.48672 0
M  V30 2289 N 209.89 -1.43072 0.660911 0
M  V30 2290 C 211.306 -1.56169 0.329173 0
M  V30 2291 C 211.506 -1.64317 -1.16629 0
M  V30 2292 O 210.562 -1.60245 -1.95135 0
M  V30 2293 C 211.875 -2.81873 1.04729 0
M  V30 2294 C 213.423 -2.95627 1.02828 0
M  V30 2295 C 213.898 -4.24174 1.72744 0
M  V30 2296 N 215.389 -4.31055 1.69545 0
M  V30 2297 C 216.124 -5.29304 2.20511 0
M  V30 2298 N 215.62 -6.33786 2.79799 0
M  V30 2299 N 217.413 -5.21008 2.10966 0
M  V30 2300 H 209.564 -1.36027 1.63127 0
M  V30 2301 H 211.827 -0.653823 0.686454 0
M  V30 2302 H 211.533 -2.81942 2.10242 0
M  V30 2303 H 211.407 -3.72338 0.603702 0
M  V30 2304 H 213.794 -2.95094 -0.0184742 0
M  V30 2305 H 213.875 -2.06431 1.51063 0
M  V30 2306 H 213.519 -4.25467 2.7738 0
M  V30 2307 H 213.449 -5.1228 1.2197 0
M  V30 2308 H 215.94 -3.56174 1.26288 0
M  V30 2309 H 216.253 -7.05086 3.16344 0
M  V30 2310 H 214.598 -6.34387 2.83863 0
M  V30 2311 H 217.789 -4.38301 1.64347 0
M  V30 2312 H 217.962 -5.97416 2.50993 0
M  V30 2313 N 211.368 -0.403325 -1.52352 0
M  V30 2314 C 212.331 0.413051 -2.25447 0
M  V30 2315 C 213.331 0.978513 -1.276 0
M  V30 2316 O 214.521 0.858305 -1.51587 0
M  V30 2317 C 211.653 1.58087 -3.02029 0
M  V30 2318 H 212.846 -0.227094 -2.99039 0
M  V30 2319 H 210.399 -0.155722 -1.55522 0
M  V30 2320 H 211.134 2.25804 -2.32772 0
M  V30 2321 H 210.919 1.18195 -3.73861 0
M  V30 2322 H 212.409 2.1585 -3.57489 0
M  V30 2323 N 212.846 1.57033 -0.133567 0
M  V30 2324 C 213.776 2.1909 0.807567 0
M  V30 2325 C 214.757 1.13517 1.26681 0
M  V30 2326 O 215.942 1.41809 1.32679 0
M  V30 2327 C 213.072 2.80188 2.05212 0
M  V30 2328 C 212.026 3.91471 1.73015 0
M  V30 2329 C 211.352 4.39443 3.04622 0
M  V30 2330 C 212.652 5.12886 0.987168 0
M  V30 2331 H 214.346 2.97988 0.290403 0
M  V30 2332 H 211.892 1.43335 0.138239 0
M  V30 2333 H 213.845 3.22264 2.71521 0
M  V30 2334 H 212.569 1.98601 2.59278 0
M  V30 2335 H 211.228 3.49993 1.0909 0
M  V30 2336 H 210.876 3.54695 3.56651 0
M  V30 2337 H 210.576 5.14495 2.83847 0
M  V30 2338 H 212.1 4.8418 3.72024 0
M  V30 2339 H 213.514 5.51891 1.55208 0
M  V30 2340 H 211.911 5.93615 0.87985 0
M  V30 2341 H 212.981 4.84894 -0.0235286 0
M  V30 2342 N 214.325 -0.140222 1.56975 0
M  V30 2343 C 215.257 -1.19818 1.95388 0
M  V30 2344 C 216.27 -1.38816 0.850525 0
M  V30 2345 O 217.459 -1.38267 1.12891 0
M  V30 2346 C 214.559 -2.56189 2.21857 0
M  V30 2347 C 213.732 -2.58077 3.5315 0
M  V30 2348 C 212.791 -3.76037 3.6808 0
M  V30 2349 O 211.817 -3.60598 4.40406 0
M  V30 2350 N 213.019 -4.93763 3.05251 0
M  V30 2351 H 215.784 -0.871609 2.86746 0
M  V30 2352 H 213.345 -0.32972 1.58507 0
M  V30 2353 H 215.337 -3.33623 2.2908 0
M  V30 2354 H 213.907 -2.81111 1.36731 0
M  V30 2355 H 213.127 -1.6651 3.57307 0
M  V30 2356 H 214.415 -2.56377 4.39486 0
M  V30 2357 H 213.813 -5.09209 2.46419 0
M  V30 2358 H 212.37 -5.68949 3.18026 0
M  V30 2359 N 215.803 -1.52179 -0.40978 0
M  V30 2360 C 216.733 -1.78435 -1.5061 0
M  V30 2361 C 217.714 -0.635295 -1.57791 0
M  V30 2362 O 218.899 -0.880823 -1.73076 0
M  V30 2363 C 216.029 -1.93444 -2.88439 0
M  V30 2364 C 214.983 -3.09038 -2.96108 0
M  V30 2365 C 214.309 -3.09268 -4.36185 0
M  V30 2366 C 215.609 -4.48508 -2.67652 0
M  V30 2367 H 217.303 -2.70237 -1.28889 0
M  V30 2368 H 214.849 -1.30036 -0.618605 0
M  V30 2369 H 216.802 -2.10394 -3.65119 0
M  V30 2370 H 215.526 -0.983129 -3.11452 0
M  V30 2371 H 214.185 -2.91837 -2.21872 0
M  V30 2372 H 213.833 -2.11861 -4.56206 0
M  V30 2373 H 213.533 -3.86907 -4.42241 0
M  V30 2374 H 215.057 -3.28348 -5.14801 0
M  V30 2375 H 216.471 -4.65918 -3.34056 0
M  V30 2376 H 214.868 -5.28059 -2.85085 0
M  V30 2377 H 215.938 -4.56649 -1.63095 0
M  V30 2378 N 217.281 0.66697 -1.42791 0
M  V30 2379 C 218.191 1.80962 -1.49299 0
M  V30 2380 C 219.207 1.69775 -0.381108 0
M  V30 2381 O 220.383 1.91188 -0.633188 0
M  V30 2382 C 217.448 3.17156 -1.40045 0
M  V30 2383 C 216.509 3.40242 -2.6179 0
M  V30 2384 C 215.742 4.69939 -2.52969 0
M  V30 2385 O 215.965 5.48372 -1.56985 0
M  V30 2386 O 214.899 4.94441 -3.43237 0
M  V30 2387 H 218.725 1.78427 -2.45759 0
M  V30 2388 H 216.31 0.823713 -1.24641 0
M  V30 2389 H 218.192 3.98413 -1.37276 0
M  V30 2390 H 216.867 3.20312 -0.467138 0
M  V30 2391 H 215.774 2.58802 -2.70134 0
M  V30 2392 H 217.107 3.41923 -3.54047 0
M  V30 2393 N 218.759 1.29093 0.90403 0
M  V30 2394 C 220.005 1.17996 1.65676 0
M  V30 2395 C 220.36 -0.266816 1.90541 0
M  V30 2396 O 219.653 -1.19 1.50165 0
M  V30 2397 C 219.847 1.92224 3.01305 0
M  V30 2398 C 219.676 3.43972 2.89678 0
M  V30 2399 C 218.446 4.1332 2.90679 0
M  V30 2400 C 220.644 4.39546 2.67028 0
M  V30 2401 N 218.626 5.51463 2.69743 0
M  V30 2402 C 219.997 5.65119 2.5503 0
M  V30 2403 C 222.052 4.29359 2.52101 0
M  V30 2404 C 220.755 6.81663 2.29626 0
M  V30 2405 C 222.781 5.4565 2.28079 0
M  V30 2406 C 222.143 6.70193 2.16843 0
M  V30 2407 H 218.242 0.486759 0.612037 0
M  V30 2408 H 220.826 1.62868 1.06688 0
M  V30 2409 H 218.997 1.49773 3.58361 0
M  V30 2410 H 220.729 1.73429 3.65656 0
M  V30 2411 H 217.484 3.64984 3.01801 0
M  V30 2412 H 217.908 6.24105 2.6234 0
M  V30 2413 H 222.55 3.33769 2.59534 0
M  V30 2414 H 220.268 7.77313 2.20932 0
M  V30 2415 H 223.854 5.39664 2.1738 0
M  V30 2416 H 222.734 7.58659 1.98511 0
M  V30 2417 N 220.237 -1.11381 1.11499 0
M  V30 2418 C 221.187 -2.15555 0.74298 0
M  V30 2419 C 222.171 -1.58894 -0.253276 0
M  V30 2420 O 223.363 -1.76897 -0.0602918 0
M  V30 2421 C 220.492 -3.42782 0.188481 0
M  V30 2422 C 219.578 -4.064 1.21244 0
M  V30 2423 N 219.969 -4.44864 2.40685 0
M  V30 2424 C 218.267 -4.3333 1.05552 0
M  V30 2425 C 218.968 -4.94715 3.05994 0
M  V30 2426 N 217.944 -4.90909 2.33472 0
M  V30 2427 H 221.746 -2.43074 1.65203 0
M  V30 2428 H 219.26 -1.28401 0.994329 0
M  V30 2429 H 221.257 -4.16789 -0.0961693 0
M  V30 2430 H 219.917 -3.16727 -0.715149 0
M  V30 2431 H 220.928 -4.36876 2.78136 0
M  V30 2432 H 217.605 -4.1698 0.208372 0
M  V30 2433 H 218.995 -5.34103 4.07656 0
M  V30 2434 N 221.715 -0.905404 -1.28997 0
M  V30 2435 C 222.645 -0.404212 -2.29975 0
M  V30 2436 C 223.626 0.523784 -1.61835 0
M  V30 2437 O 224.811 0.433298 -1.89304 0
M  V30 2438 C 221.941 0.364042 -3.45387 0
M  V30 2439 C 220.895 -0.474048 -4.25367 0
M  V30 2440 C 220.221 0.422045 -5.33032 0
M  V30 2441 C 221.521 -1.72696 -4.92923 0
M  V30 2442 H 223.215 -1.24807 -2.72146 0
M  V30 2443 H 220.761 -0.601585 -1.30832 0
M  V30 2444 H 222.714 0.725447 -4.15109 0
M  V30 2445 H 221.438 1.24174 -3.02074 0
M  V30 2446 H 220.097 -0.81786 -3.57361 0
M  V30 2447 H 219.745 1.29804 -4.85963 0
M  V30 2448 H 219.445 -0.135057 -5.87445 0
M  V30 2449 H 220.969 0.779517 -6.05604 0
M  V30 2450 H 222.383 -1.43495 -5.55051 0
M  V30 2451 H 220.78 -2.22582 -5.57295 0
M  V30 2452 H 221.85 -2.45964 -4.17887 0
M  V30 2453 N 223.193 1.4272 -0.668489 0
M  V30 2454 C 224.418 2.06484 -0.194758 0
M  V30 2455 C 224.843 1.49862 1.13679 0
M  V30 2456 O 224.201 0.614582 1.70565 0
M  V30 2457 C 224.249 3.60353 -0.133546 0
M  V30 2458 O 223.353 4.02464 0.899806 0
M  V30 2459 H 222.694 0.656137 -0.10188 0
M  V30 2460 H 225.224 1.82964 -0.915722 0
M  V30 2461 H 225.234 4.07976 0.0447041 0
M  V30 2462 H 223.909 4.00938 -1.1055 0
M  V30 2463 H 222.486 3.66402 0.693109 0
M  V30 2464 N 224.671 0.411399 1.52136 0
M  V30 2465 C 225.618 -0.412975 2.27075 0
M  V30 2466 C 226.588 -1.03912 1.29582 0
M  V30 2467 O 227.773 -1.06296 1.58448 0
M  V30 2468 C 224.913 -1.52247 3.09701 0
M  V30 2469 C 224.026 -0.917021 4.22155 0
M  V30 2470 C 223.161 -1.9994 4.92135 0
M  V30 2471 C 222.2 -1.37101 5.96548 0
M  V30 2472 N 221.337 -2.39364 6.60038 0
M  V30 2473 H 226.177 0.232499 2.97092 0
M  V30 2474 H 223.714 0.126496 1.46555 0
M  V30 2475 H 225.672 -2.17674 3.55913 0
M  V30 2476 H 224.302 -2.13794 2.41851 0
M  V30 2477 H 223.354 -0.151742 3.80097 0
M  V30 2478 H 224.666 -0.418006 4.97045 0
M  V30 2479 H 223.82 -2.73088 5.41763 0
M  V30 2480 H 222.559 -2.53208 4.16818 0
M  V30 2481 H 221.564 -0.624873 5.46237 0
M  V30 2482 H 222.789 -0.845998 6.7381 0
M  V30 2483 H 220.735 -2.91759 5.87548 0
M  V30 2484 H 220.652 -1.9428 7.3061 0
M  V30 2485 H 221.92 -3.12074 7.14304 0
M  V30 2486 N 226.149 -1.5696 0.141893 0
M  V30 2487 C 227.565 -1.58151 -0.21456 0
M  V30 2488 C 227.765 -1.1559 -1.65049 0
M  V30 2489 O 226.821 -0.853832 -2.37626 0
M  V30 2490 C 228.134 -3.00674 0.0395576 0
M  V30 2491 C 229.682 -3.1299 -0.0245529 0
M  V30 2492 C 230.157 -4.57554 0.202167 0
M  V30 2493 N 231.648 -4.62961 0.148919 0
M  V30 2494 C 232.383 -5.7262 0.298924 0
M  V30 2495 N 231.879 -6.90947 0.50637 0
M  V30 2496 N 233.672 -5.61601 0.236886 0
M  V30 2497 H 225.823 -1.8292 1.07953 0
M  V30 2498 H 228.086 -0.846425 0.42693 0
M  V30 2499 H 227.792 -3.36183 1.03315 0
M  V30 2500 H 227.666 -3.70981 -0.682143 0
M  V30 2501 H 230.053 -2.77326 -1.00869 0
M  V30 2502 H 230.134 -2.4518 0.729396 0
M  V30 2503 H 229.778 -4.93922 1.18338 0
M  V30 2504 H 229.708 -5.23484 -0.572044 0
M  V30 2505 H 232.199 -3.77899 -0.00697015 0
M  V30 2506 H 232.512 -7.7038 0.611076 0
M  V30 2507 H 230.857 -6.92878 0.542628 0
M  V30 2508 H 234.048 -4.68039 0.0756209 0
M  V30 2509 H 234.221 -6.47015 0.357227 0
M  V30 2510 N 227.627 0.131896 -1.57047 0
M  V30 2511 C 228.537 1.1815 -2.02676 0
M  V30 2512 C 229.553 1.46113 -0.944824 0
M  V30 2513 O 230.729 1.57485 -1.25541 0
M  V30 2514 C 227.794 2.49139 -2.41103 0
M  V30 2515 C 226.855 2.28688 -3.63318 0
M  V30 2516 C 226.088 3.53431 -3.99903 0
M  V30 2517 O 226.311 4.60223 -3.36973 0
M  V30 2518 O 225.245 3.45198 -4.93074 0
M  V30 2519 H 229.071 0.824069 -2.92306 0
M  V30 2520 H 226.656 0.341745 -1.45439 0
M  V30 2521 H 228.538 3.26338 -2.66611 0
M  V30 2522 H 227.213 2.84382 -1.54624 0
M  V30 2523 H 226.12 1.4939 -3.42977 0
M  V30 2524 H 227.453 1.98355 -4.50462 0
M  V30 2525 N 229.106 1.52395 0.401703 0
M  V30 2526 C 230.355 1.66044 1.14509 0
M  V30 2527 C 230.668 0.400216 1.91462 0
M  V30 2528 O 231.874 0.416632 2.68284 0
M  V30 2529 C 230.33 2.93388 2.0845 0
M  V30 2530 C 229.938 4.26545 1.36978 0
M  V30 2531 C 231.682 3.16402 2.83001 0
M  V30 2532 C 229.589 5.45007 2.29611 0
M  V30 2533 H 228.519 0.618562 0.431158 0
M  V30 2534 H 231.17 1.78886 0.40892 0
M  V30 2535 H 229.552 2.74263 2.8565 0
M  V30 2536 H 230.726 4.56179 0.650916 0
M  V30 2537 H 229.041 4.09692 0.74438 0
M  V30 2538 H 231.638 4.02085 3.52465 0
M  V30 2539 H 231.981 2.30943 3.46368 0
M  V30 2540 H 232.514 3.36034 2.12898 0
M  V30 2541 H 229.253 6.32835 1.70879 0
M  V30 2542 H 228.773 5.19702 2.9945 0
M  V30 2543 H 230.452 5.7838 2.89974 0
M  V30 2544 N 230.584 -0.659388 1.43143 0
M  V30 2545 C 231.514 -1.78422 1.50625 0
M  V30 2546 C 232.495 -1.66216 0.361443 0
M  V30 2547 O 233.68 -1.85404 0.577834 0
M  V30 2548 C 230.81 -3.16815 1.42287 0
M  V30 2549 C 229.764 -3.43777 2.54954 0
M  V30 2550 C 229.09 -4.81905 2.31671 0
M  V30 2551 C 230.39 -3.39134 3.97222 0
M  V30 2552 H 232.084 -1.72417 2.44771 0
M  V30 2553 H 229.63 -0.828084 1.17808 0
M  V30 2554 H 231.583 -3.95253 1.46127 0
M  V30 2555 H 230.307 -3.23534 0.446435 0
M  V30 2556 H 228.966 -2.67707 2.50457 0
M  V30 2557 H 228.614 -4.85294 1.32284 0
M  V30 2558 H 228.314 -5.00906 3.07192 0
M  V30 2559 H 229.838 -5.62609 2.37284 0
M  V30 2560 H 231.252 -4.07518 4.03239 0
M  V30 2561 H 229.649 -3.69671 4.72719 0
M  V30 2562 H 230.719 -2.37426 4.22797 0
M  V30 2563 N 232.062 -1.29571 -0.897171 0
M  V30 2564 C 233.29 -1.20583 -1.68129 0
M  V30 2565 C 233.705 0.233181 -1.87354 0
M  V30 2566 O 233.062 1.15579 -1.41236 0
M  V30 2567 C 233.113 -1.91772 -3.06441 0
M  V30 2568 O 232.834 -3.30053 -2.88091 0
M  V30 2569 C 234.335 -1.89291 -4.00854 0
M  V30 2570 H 231.555 -0.417826 -0.525036 0
M  V30 2571 H 234.099 -1.70987 -1.12177 0
M  V30 2572 H 232.254 -1.45196 -3.59161 0
M  V30 2573 H 232.668 -3.65942 -3.75748 0
M  V30 2574 H 234.142 -2.43662 -4.95311 0
M  V30 2575 H 234.619 -0.869014 -4.30517 0
M  V30 2576 H 235.225 -2.35622 -3.54066 0
M  V30 2577 N 233.54 1.10788 -1.12088 0
M  V30 2578 C 234.47 2.19083 -0.807755 0
M  V30 2579 C 235.451 1.6858 0.226859 0
M  V30 2580 O 236.636 1.93997 0.0888475 0
M  V30 2581 C 233.766 3.46344 -0.257576 0
M  V30 2582 C 232.72 4.101 -1.22483 0
M  V30 2583 C 232.046 5.32016 -0.535052 0
M  V30 2584 C 233.346 4.54236 -2.57811 0
M  V30 2585 H 235.04 2.45534 -1.71328 0
M  V30 2586 H 232.586 1.1801 -0.825205 0
M  V30 2587 H 234.539 4.21392 -0.0262679 0
M  V30 2588 H 233.263 3.19373 0.683278 0
M  V30 2589 H 231.922 3.37054 -1.44189 0
M  V30 2590 H 231.57 5.01319 0.410827 0
M  V30 2591 H 231.27 5.75625 -1.18024 0
M  V30 2592 H 232.794 6.09799 -0.312695 0
M  V30 2593 H 234.208 5.20575 -2.40155 0
M  V30 2594 H 232.605 5.08682 -3.18375 0
M  V30 2595 H 233.675 3.6734 -3.16528 0
M  V30 2596 N 235.018 0.912232 1.28515 0
M  V30 2597 C 236.248 0.559604 1.98877 0
M  V30 2598 C 236.656 -0.863113 1.68366 0
M  V30 2599 O 235.999 -1.58304 0.931969 0
M  V30 2600 C 236.061 0.68703 3.52874 0
M  V30 2601 C 235.725 2.07901 4.06972 0
M  V30 2602 C 236.722 3.05157 4.20922 0
M  V30 2603 C 234.407 2.39178 4.417 0
M  V30 2604 C 236.401 4.31806 4.68852 0
M  V30 2605 C 234.088 3.66068 4.89324 0
M  V30 2606 C 235.086 4.62195 5.02856 0
M  V30 2607 O 234.774 5.86829 5.49442 0
M  V30 2608 H 234.506 0.212191 0.641834 0
M  V30 2609 H 237.06 1.22712 1.64715 0
M  V30 2610 H 235.29 -0.0375486 3.86682 0
M  V30 2611 H 236.979 0.341727 4.04459 0
M  V30 2612 H 237.745 2.82311 3.94367 0
M  V30 2613 H 233.624 1.65109 4.30418 0
M  V30 2614 H 237.168 5.06842 4.79329 0
M  V30 2615 H 233.065 3.88739 5.15318 0
M  V30 2616 H 233.833 5.89597 5.6773 0
M  V30 2617 N 236.496 -1.42363 0.676048 0
M  V30 2618 C 237.426 -2.33497 0.0124832 0
M  V30 2619 C 238.407 -1.50748 -0.787981 0
M  V30 2620 O 239.592 -1.79346 -0.744884 0
M  V30 2621 C 236.722 -3.34377 -0.938582 0
M  V30 2622 C 235.676 -4.27289 -0.246622 0
M  V30 2623 C 235.002 -5.18386 -1.31071 0
M  V30 2624 C 236.302 -5.14916 0.875125 0
M  V30 2625 H 237.996 -2.89233 0.773593 0
M  V30 2626 H 235.542 -1.39073 0.37346 0
M  V30 2627 H 237.495 -3.97044 -1.41188 0
M  V30 2628 H 236.219 -2.76947 -1.73113 0
M  V30 2629 H 234.878 -3.66018 0.206456 0
M  V30 2630 H 234.526 -4.57282 -2.09528 0
M  V30 2631 H 234.226 -5.81378 -0.852839 0
M  V30 2632 H 235.75 -5.83929 -1.78492 0
M  V30 2633 H 237.164 -5.71262 0.482983 0
M  V30 2634 H 235.561 -5.86747 1.25887 0
M  V30 2635 H 236.631 -4.53242 1.72335 0
M  V30 2636 N 237.974 -0.419461 -1.51915 0
M  V30 2637 C 238.922 0.415502 -2.28859 0
M  V30 2638 C 239.916 1.03674 -1.3397 0
M  V30 2639 O 241.122 0.973757 -1.51387 0
M  V30 2640 H 237.497 0.152786 -0.736315 0
M  V30 2641 H 239.468 -0.254531 -2.97312 0
M  V30 2642 C 238.217 1.51425 -3.12995 0
M  V30 2643 H 237.54 1.04556 -3.85886 0
M  V30 2644 H 238.98 2.07208 -3.6992 0
M  V30 2645 C 237.439 2.48745 -2.27217 0
M  V30 2646 O 237.969 3.52871 -1.9195 0
M  V30 2647 N 236.175 2.19202 -1.90785 0
M  V30 2648 H 235.722 1.34556 -2.19664 0
M  V30 2649 H 235.68 2.84561 -1.33687 0
M  V30 2650 N 239.452 1.56882 -0.150215 0
M  V30 2651 C 240.868 1.58263 0.20617 0
M  V30 2652 C 241.068 1.16464 1.64434 0
M  V30 2653 O 240.124 0.866422 2.3717 0
M  V30 2654 C 241.437 3.00649 -0.0555025 0
M  V30 2655 C 242.985 3.12999 0.00795388 0
M  V30 2656 C 243.46 4.5744 -0.226429 0
M  V30 2657 N 244.951 4.62875 -0.173469 0
M  V30 2658 C 245.686 5.72454 -0.329288 0
M  V30 2659 N 245.182 6.90669 -0.543005 0
M  V30 2660 N 246.975 5.61467 -0.266666 0
M  V30 2661 H 239.126 1.82345 -1.08922 0
M  V30 2662 H 241.389 0.844149 -0.431413 0
M  V30 2663 H 241.095 3.3563 -1.05096 0
M  V30 2664 H 240.969 3.71337 0.66246 0
M  V30 2665 H 243.356 2.77857 0.993966 0
M  V30 2666 H 243.437 2.4479 -0.742388 0
M  V30 2667 H 243.081 4.93287 -1.20956 0
M  V30 2668 H 243.011 5.2378 0.544274 0
M  V30 2669 H 245.502 3.77898 -0.0130709 0
M  V30 2670 H 245.815 7.70045 -0.651922 0
M  V30 2671 H 244.16 6.92581 -0.579366 0
M  V30 2672 H 247.351 4.67992 -0.100441 0
M  V30 2673 H 247.524 6.46816 -0.391535 0
M  V30 2674 N 240.93 -0.123565 1.57115 0
M  V30 2675 C 241.893 -1.13583 1.99076 0
M  V30 2676 C 242.893 -1.34564 0.880296 0
M  V30 2677 O 244.083 -1.31158 1.14644 0
M  V30 2678 C 241.215 -2.49128 2.32698 0
M  V30 2679 H 242.408 -0.775287 2.89706 0
M  V30 2680 H 239.961 -0.36771 1.51913 0
M  V30 2681 H 240.696 -2.90111 1.44934 0
M  V30 2682 H 240.481 -2.35255 3.13684 0
M  V30 2683 H 241.971 -3.2199 2.65918 0
M  V30 2684 N 242.408 -1.52605 -0.393616 0
M  V30 2685 C 243.819 -1.59417 -0.971761 0
M  V30 2686 C 244.17 -0.444173 -1.91106 0
M  V30 2687 O 243.295 0.433382 -2.12016 0
M  V30 2688 C 243.89 -2.88936 -1.76921 0
M  V30 2689 C 242.449 -2.98175 -2.29714 0
M  V30 2690 C 241.596 -2.54491 -1.10135 0
M  V30 2691 H 244.547 -1.57751 -0.173317 0
M  V30 2692 H 244.568 -2.75163 -2.62804 0
M  V30 2693 H 244.08 -3.72616 -1.08532 0
M  V30 2694 H 242.181 -2.19024 -3.01429 0
M  V30 2695 H 242.294 -4.02726 -2.59517 0
M  V30 2696 H 240.658 -2.08702 -1.45999 0
M  V30 2697 H 241.441 -3.4056 -0.432874 0
M  V30 2698 N 243.887 0.651787 -1.4349 0
M  V30 2699 C 245.134 1.41167 -1.45183 0
M  V30 2700 C 245.462 1.94349 -0.0766601 0
M  V30 2701 O 244.717 1.72804 0.918555 0
M  V30 2702 C 245.016 2.60914 -2.44251 0
M  V30 2703 C 244.682 2.26142 -3.9009 0
M  V30 2704 C 243.344 2.16371 -4.2981 0
M  V30 2705 C 245.696 1.98334 -4.81989 0
M  V30 2706 C 243.024 1.7695 -5.5938 0
M  V30 2707 C 245.376 1.6041 -6.11924 0
M  V30 2708 C 244.04 1.49166 -6.5062 0
M  V30 2709 H 243.31 0.516566 -0.531263 0
M  V30 2710 H 245.957 0.741099 -1.76579 0
M  V30 2711 H 244.262 3.3311 -2.06265 0
M  V30 2712 H 245.959 3.19127 -2.42815 0
M  V30 2713 H 242.549 2.34658 -3.58655 0
M  V30 2714 H 246.733 2.04803 -4.52072 0
M  V30 2715 H 241.989 1.66831 -5.88198 0
M  V30 2716 H 246.163 1.37925 -6.82605 0
M  V30 2717 H 243.79 1.1839 -7.50925 0
M  V30 2718 N 245.365 1.30045 0.890287 0
M  V30 2719 C 246.613 1.18327 1.63839 0
M  V30 2720 C 246.934 -0.263455 1.93212 0
M  V30 2721 O 246.204 -1.17856 1.56482 0
M  V30 2722 H 244.784 0.434933 0.607324 0
M  V30 2723 H 247.446 1.631 1.06698 0
M  V30 2724 H 246.542 1.74024 2.59079 0
M  V30 2725 N 246.843 -1.10192 1.12674 0
M  V30 2726 C 248.091 -1.81845 0.881861 0
M  V30 2727 C 248.412 -1.85737 -0.593867 0
M  V30 2728 O 247.682 -1.33724 -1.4316 0
M  V30 2729 H 246.262 -0.673432 0.323261 0
M  V30 2730 H 248.924 -1.33316 1.42172 0
M  V30 2731 H 248.02 -2.85288 1.2656 0
M  V30 2732 N 248.321 -0.919034 -1.28029 0
M  V30 2733 C 249.549 -0.570971 -1.98866 0
M  V30 2734 C 249.964 0.848996 -1.68634 0
M  V30 2735 O 249.321 1.56307 -0.942036 0
M  V30 2736 C 249.372 -0.776876 -3.53054 0
M  V30 2737 O 249.093 -2.14097 -3.82222 0
M  V30 2738 C 250.594 -0.436356 -4.41147 0
M  V30 2739 H 247.814 -0.217175 -0.634883 0
M  V30 2740 H 250.358 -1.23368 -1.63097 0
M  V30 2741 H 248.513 -0.161085 -3.87065 0
M  V30 2742 H 248.927 -2.18455 -4.76841 0
M  V30 2743 H 250.401 -0.63117 -5.4838 0
M  V30 2744 H 250.878 0.627686 -4.34692 0
M  V30 2745 H 251.484 -1.02991 -4.12641 0
M  V30 2746 N 249.799 1.42003 -0.683588 0
M  V30 2747 C 250.729 2.33487 -0.024866 0
M  V30 2748 C 251.71 1.51163 0.779975 0
M  V30 2749 O 252.895 1.79739 0.735362 0
M  V30 2750 C 250.025 3.3487 0.920836 0
M  V30 2751 C 248.979 4.27414 0.223958 0
M  V30 2752 C 248.305 5.19074 1.2832 0
M  V30 2753 C 249.605 5.14445 -0.90242 0
M  V30 2754 H 251.299 2.88819 -0.788921 0
M  V30 2755 H 248.845 1.38873 -0.38083 0
M  V30 2756 H 250.798 3.97787 1.39081 0
M  V30 2757 H 249.522 2.77861 1.71642 0
M  V30 2758 H 248.181 3.65904 -0.225864 0
M  V30 2759 H 247.829 4.58387 2.071 0
M  V30 2760 H 247.529 5.81822 0.821995 0
M  V30 2761 H 249.053 5.84867 1.75392 0
M  V30 2762 H 250.467 5.70998 -0.513272 0
M  V30 2763 H 248.864 5.86072 -1.28997 0
M  V30 2764 H 249.934 4.52322 -1.74737 0
M  V30 2765 N 251.277 0.427512 1.51691 0
M  V30 2766 C 252.209 -0.424521 2.25234 0
M  V30 2767 C 253.222 -0.994671 1.2888 0
M  V30 2768 O 254.411 -0.890483 1.54702 0
M  V30 2769 C 251.511 -1.60479 2.98496 0
M  V30 2770 C 250.684 -1.15527 4.21868 0
M  V30 2771 C 249.743 -2.20454 4.77793 0
M  V30 2772 O 248.769 -1.8029 5.39893 0
M  V30 2773 N 249.971 -3.52831 4.60967 0
M  V30 2774 H 252.736 0.205749 2.98993 0
M  V30 2775 H 250.297 0.255867 1.59865 0
M  V30 2776 H 252.289 -2.30276 3.32799 0
M  V30 2777 H 250.859 -2.14061 2.27809 0
M  V30 2778 H 250.079 -0.284736 3.9317 0
M  V30 2779 H 251.367 -0.832173 5.01949 0
M  V30 2780 H 250.765 -3.88201 4.11481 0
M  V30 2781 H 249.322 -4.18551 4.99658 0
M  V30 2782 N 252.755 -1.56801 0.158532 0
M  V30 2783 C 254.003 -1.96102 -0.488712 0
M  V30 2784 C 254.324 -1.04498 -1.64636 0
M  V30 2785 O 253.594 -0.108783 -1.95598 0
M  V30 2786 H 252.174 -0.724102 -0.183535 0
M  V30 2787 H 254.836 -1.93457 0.236728 0
M  V30 2788 H 253.932 -3.00097 -0.857219 0
M  V30 2789 N 254.233 0.115231 -1.57178 0
M  V30 2790 C 255.482 0.820945 -1.84237 0
M  V30 2791 C 255.795 1.80866 -0.744761 0
M  V30 2792 O 257.001 2.56083 -0.901871 0
M  V30 2793 C 255.457 1.51072 -3.26658 0
M  V30 2794 C 255.065 0.563795 -4.44438 0
M  V30 2795 C 256.809 2.20134 -3.62962 0
M  V30 2796 C 254.716 1.25701 -5.77887 0
M  V30 2797 H 253.646 0.310328 -0.687177 0
M  V30 2798 H 256.297 0.0737134 -1.83352 0
M  V30 2799 H 254.679 2.30471 -3.22024 0
M  V30 2800 H 255.853 -0.197247 -4.60378 0
M  V30 2801 H 254.168 -0.0200638 -4.16395 0
M  V30 2802 H 256.765 2.72696 -4.59936 0
M  V30 2803 H 257.108 2.98107 -2.90582 0
M  V30 2804 H 257.641 1.47619 -3.69396 0
M  V30 2805 H 254.38 0.518493 -6.53446 0
M  V30 2806 H 253.9 1.98997 -5.65827 0
M  V30 2807 H 255.579 1.78915 -6.2177 0
M  V30 2808 N 255.711 1.52812 0.385517 0
M  V30 2809 C 256.959 1.67694 1.12797 0
M  V30 2810 C 257.28 0.421115 1.90399 0
M  V30 2811 O 256.55 -0.564551 1.87589 0
M  V30 2812 H 255.13 0.618155 0.419396 0
M  V30 2813 H 257.792 1.89938 0.436972 0
M  V30 2814 H 256.888 2.52896 1.82894 0
M  V30 2815 N 257.189 -0.644168 1.43834 0
M  V30 2816 C 258.152 -1.73857 1.49353 0
M  V30 2817 C 259.152 -1.56315 0.377112 0
M  V30 2818 O 260.342 -1.62048 0.639226 0
M  V30 2819 C 257.474 -3.12819 1.35488 0
M  V30 2820 H 258.667 -1.70342 2.46827 0
M  V30 2821 H 256.22 -0.856652 1.30733 0
M  V30 2822 H 256.955 -3.2194 0.390569 0
M  V30 2823 H 256.74 -3.26958 2.16428 0
M  V30 2824 H 258.23 -3.92606 1.42302 0
M  V30 2825 N 258.668 -1.30515 -0.883378 0
M  V30 2826 C 259.631 -1.1701 -1.97082 0
M  V30 2827 C 260.631 -0.10089 -1.60483 0
M  V30 2828 O 261.821 -0.349127 -1.70666 0
M  V30 2829 C 258.953 -0.793045 -3.31547 0
M  V30 2830 H 260.146 -2.13622 -2.10489 0
M  V30 2831 H 257.699 -1.13935 -1.06998 0
M  V30 2832 H 258.434 0.172499 -3.23841 0
M  V30 2833 H 258.219 -1.56576 -3.5948 0
M  V30 2834 H 259.709 -0.722073 -4.1131 0
M  V30 2835 N 260.146 1.09593 -1.13257 0
M  V30 2836 C 261.371 1.8604 -0.916732 0
M  V30 2837 C 261.796 1.80504 0.529146 0
M  V30 2838 O 261.154 1.18127 1.37534 0
M  V30 2839 C 261.202 3.32017 -1.40703 0
M  V30 2840 O 260.306 4.08141 -0.591153 0
M  V30 2841 H 259.647 0.576943 -0.328683 0
M  V30 2842 H 262.177 1.38405 -1.50682 0
M  V30 2843 H 262.187 3.82865 -1.4099 0
M  V30 2844 H 260.862 3.35361 -2.45979 0
M  V30 2845 H 259.439 3.67084 -0.656005 0
M  V30 2846 N 261.624 0.925811 1.2754 0
M  V30 2847 C 262.87 0.575575 1.95086 0
M  V30 2848 C 263.225 -0.873246 1.71441 0
M  V30 2849 O 262.518 -1.61443 1.03183 0
M  V30 2850 C 262.712 0.835296 3.47502 0
M  V30 2851 C 262.541 2.30781 3.85967 0
M  V30 2852 C 261.311 2.96017 4.09514 0
M  V30 2853 C 263.509 3.28519 3.95702 0
M  V30 2854 N 261.491 4.3344 4.34744 0
M  V30 2855 C 262.862 4.51146 4.25285 0
M  V30 2856 C 264.917 3.23753 3.7827 0
M  V30 2857 C 263.62 5.69606 4.39251 0
M  V30 2858 C 265.646 4.41523 3.9346 0
M  V30 2859 C 265.008 5.62928 4.23428 0
M  V30 2860 H 261.107 0.260711 0.737261 0
M  V30 2861 H 263.691 1.19204 1.53943 0
M  V30 2862 H 261.862 0.248005 3.87607 0
M  V30 2863 H 263.594 0.447878 4.02214 0
M  V30 2864 H 260.349 2.46695 4.04275 0
M  V30 2865 H 260.773 5.04528 4.5142 0
M  V30 2866 H 265.415 2.3096 3.54143 0
M  V30 2867 H 263.133 6.62866 4.62205 0
M  V30 2868 H 266.719 4.39351 3.81394 0
M  V30 2869 H 265.599 6.52538 4.34929 0
M  V30 2870 N 263.102 -1.41638 0.69111 0
M  V30 2871 C 264.065 -2.29178 0.0319786 0
M  V30 2872 C 265.065 -1.44153 -0.712496 0
M  V30 2873 O 266.255 -1.65354 -0.548053 0
M  V30 2874 C 263.387 -3.26952 -0.965161 0
M  V30 2875 H 264.58 -2.88959 0.802681 0
M  V30 2876 H 262.133 -1.4955 0.454356 0
M  V30 2877 H 262.868 -2.72142 -1.76378 0
M  V30 2878 H 262.653 -3.89685 -0.434522 0
M  V30 2879 H 264.143 -3.92561 -1.42428 0
M  V30 2880 N 264.58 -0.43555 -1.51462 0
M  V30 2881 C 265.81 0.130053 -2.0619 0
M  V30 2882 C 266.218 1.37164 -1.30317 0
M  V30 2883 O 265.561 1.80225 -0.355598 0
M  V30 2884 C 265.623 0.519418 -3.55728 0
M  V30 2885 C 265.287 -0.615119 -4.52841 0
M  V30 2886 C 266.284 -1.48671 -4.9819 0
M  V30 2887 C 263.969 -0.795341 -4.95963 0
M  V30 2888 C 265.963 -2.52324 -5.8533 0
M  V30 2889 C 263.65 -1.83514 -5.82894 0
M  V30 2890 C 264.648 -2.69748 -6.27475 0
M  V30 2891 O 264.336 -3.71944 -7.1268 0
M  V30 2892 H 264.068 0.0121612 -0.675891 0
M  V30 2893 H 266.622 -0.6129 -1.96043 0
M  V30 2894 H 264.852 1.31505 -3.63653 0
M  V30 2895 H 266.541 1.01597 -3.92979 0
M  V30 2896 H 267.307 -1.359 -4.65571 0
M  V30 2897 H 263.186 -0.133713 -4.60806 0
M  V30 2898 H 266.73 -3.19665 -6.20048 0
M  V30 2899 H 262.627 -1.96306 -6.14926 0
M  V30 2900 H 263.395 -3.68503 -7.30854 0
M  V30 2901 N 266.058 1.56714 -0.166846 0
M  V30 2902 C 266.988 2.20754 0.760913 0
M  V30 2903 C 267.969 1.16178 1.24244 0
M  V30 2904 O 269.154 1.44592 1.29641 0
M  V30 2905 C 266.284 2.84478 1.99223 0
M  V30 2906 C 265.238 3.95053 1.64672 0
M  V30 2907 C 264.564 4.45805 2.95232 0
M  V30 2908 C 265.864 5.14865 0.878155 0
M  V30 2909 H 267.558 2.98537 0.22713 0
M  V30 2910 H 265.104 1.43596 0.107805 0
M  V30 2911 H 267.057 3.27951 2.64624 0
M  V30 2912 H 265.781 2.04056 2.55007 0
M  V30 2913 H 264.44 3.52228 1.01641 0
M  V30 2914 H 264.088 3.62181 3.49047 0
M  V30 2915 H 263.788 5.204 2.7287 0
M  V30 2916 H 265.312 4.91962 3.6167 0
M  V30 2917 H 266.726 5.55059 1.43466 0
M  V30 2918 H 265.123 5.95348 0.753738 0
M  V30 2919 H 266.193 4.84735 -0.126377 0
M  V30 2920 N 267.536 -0.106894 1.57237 0
M  V30 2921 C 268.784 -0.810921 1.85117 0
M  V30 2922 C 269.105 -1.7984 0.753827 0
M  V30 2923 O 268.375 -1.94649 -0.221056 0
M  V30 2924 H 266.955 -0.302466 0.683025 0
M  V30 2925 H 269.617 -0.0913324 1.94686 0
M  V30 2926 H 268.713 -1.34875 2.81452 0
M  V30 2927 N 269.014 -1.53014 -0.377408 0
M  V30 2928 C 269.961 -1.78616 -1.46168 0
M  V30 2929 C 270.931 -0.629917 -1.53692 0
M  V30 2930 O 272.116 -0.870861 -1.69766 0
M  V30 2931 C 269.256 -1.97123 -2.8326 0
M  V30 2932 C 268.369 -3.24831 -2.84796 0
M  V30 2933 C 267.504 -3.33591 -4.13389 0
M  V30 2934 C 266.543 -4.55377 -4.09021 0
M  V30 2935 N 265.68 -4.61355 -5.29241 0
M  V30 2936 H 270.52 -2.71142 -1.23637 0
M  V30 2937 H 268.057 -1.34326 -0.599577 0
M  V30 2938 H 270.015 -2.05839 -3.62886 0
M  V30 2939 H 268.645 -1.07946 -3.04216 0
M  V30 2940 H 267.697 -3.25128 -1.97474 0
M  V30 2941 H 269.009 -4.14523 -2.77439 0
M  V30 2942 H 268.163 -3.41554 -5.01424 0
M  V30 2943 H 266.902 -2.41894 -4.23484 0
M  V30 2944 H 265.907 -4.47527 -3.19373 0
M  V30 2945 H 267.132 -5.48402 -4.00539 0
M  V30 2946 H 265.078 -3.72554 -5.39944 0
M  V30 2947 H 264.995 -5.44935 -5.24006 0
M  V30 2948 H 266.263 -4.73586 -6.19141 0
M  V30 2949 N 270.492 0.636531 -1.44174 0
M  V30 2950 C 271.717 1.42847 -1.50364 0
M  V30 2951 C 272.142 1.87665 -0.127867 0
M  V30 2952 O 271.5 1.58408 0.88185 0
M  V30 2953 C 271.548 2.62854 -2.4686 0
M  V30 2954 O 270.652 3.62501 -1.9664 0
M  V30 2955 H 269.993 0.427642 -0.507955 0
M  V30 2956 H 272.523 0.777422 -1.89255 0
M  V30 2957 H 272.533 3.10465 -2.64718 0
M  V30 2958 H 271.208 2.29578 -3.46795 0
M  V30 2959 H 269.785 3.21735 -1.88523 0
M  V30 2960 N 271.97 1.30982 0.876444 0
M  V30 2961 C 273.381 1.18277 1.44456 0
M  V30 2962 C 273.732 -0.213265 1.95037 0
M  V30 2963 O 272.857 -1.11057 1.85729 0
M  V30 2964 C 273.452 2.1411 2.62569 0
M  V30 2965 C 272.011 2.05358 3.15444 0
M  V30 2966 C 271.158 2.03706 1.88146 0
M  V30 2967 H 274.109 1.43127 0.685584 0
M  V30 2968 H 274.13 1.72692 3.39054 0
M  V30 2969 H 273.642 3.15706 2.25724 0
M  V30 2970 H 271.743 1.06934 3.56926 0
M  V30 2971 H 271.856 2.94156 3.78166 0
M  V30 2972 H 270.22 1.48629 2.06837 0
M  V30 2973 H 271.003 3.07047 1.53547 0
M  V30 2974 N 273.449 -1.08991 1.13837 0
M  V30 2975 C 274.412 -2.13925 0.822715 0
M  V30 2976 C 275.412 -1.599 -0.1699 0
M  V30 2977 O 276.602 -1.74104 0.0577251 0
M  V30 2978 C 273.734 -3.40155 0.225318 0
M  V30 2979 H 274.927 -2.43358 1.75262 0
M  V30 2980 H 272.48 -1.24603 0.943594 0
M  V30 2981 H 273.215 -3.16352 -0.713594 0
M  V30 2982 H 273 -3.80661 0.940193 0
M  V30 2983 H 274.49 -4.17594 0.0214784 0
M  V30 2984 N 274.927 -0.932562 -1.27047 0
M  V30 2985 C 275.875 -0.42603 -2.28665 0
M  V30 2986 C 276.869 0.49219 -1.62092 0
M  V30 2987 O 278.075 0.371355 -1.76128 0
M  V30 2988 H 274.45 -0.119213 -0.742491 0
M  V30 2989 H 276.421 -1.29579 -2.68797 0
M  V30 2990 C 275.17 0.301426 -3.46391 0
M  V30 2991 H 274.493 -0.39595 -3.97834 0
M  V30 2992 H 275.933 0.6202 -4.1944 0
M  V30 2993 C 274.392 1.51616 -3.00856 0
M  V30 2994 O 274.922 2.61476 -3.04948 0
M  V30 2995 N 273.128 1.36969 -2.56296 0
M  V30 2996 H 272.675 0.475873 -2.53166 0
M  V30 2997 H 272.633 2.18368 -2.26192 0
M  V30 2998 N 276.405 1.4127 -0.698611 0
M  V30 2999 C 277.335 2.33447 -0.049629 0
M  V30 3000 C 278.316 1.51982 0.763898 0
M  V30 3001 O 279.501 1.80509 0.716257 0
M  V30 3002 C 276.631 3.35828 0.885267 0
M  V30 3003 C 275.585 4.27627 0.178613 0
M  V30 3004 C 274.911 5.20406 1.22807 0
M  V30 3005 C 276.211 5.13459 -0.956933 0
M  V30 3006 H 277.905 2.87966 -0.81951 0
M  V30 3007 H 275.451 1.38461 -0.395538 0
M  V30 3008 H 277.404 3.9924 1.34854 0
M  V30 3009 H 276.128 2.79666 1.68685 0
M  V30 3010 H 274.787 3.65643 -0.26466 0
M  V30 3011 H 274.435 4.60558 2.02226 0
M  V30 3012 H 274.135 5.82661 0.760239 0
M  V30 3013 H 275.659 5.86695 1.69179 0
M  V30 3014 H 277.073 5.70421 -0.573805 0
M  V30 3015 H 275.47 5.8467 -1.35205 0
M  V30 3016 H 276.54 4.50443 -1.79524 0
M  V30 3017 N 277.883 0.443576 1.51229 0
M  V30 3018 C 279.108 -0.121648 2.07043 0
M  V30 3019 C 279.533 -1.35156 1.30823 0
M  V30 3020 O 278.891 -1.7793 0.347934 0
M  V30 3021 C 278.939 -0.41624 3.5819 0
M  V30 3022 O 278.043 -1.50163 3.8409 0
M  V30 3023 H 277.384 0.000871367 0.663999 0
M  V30 3024 H 279.914 0.626706 1.94765 0
M  V30 3025 H 279.924 -0.664867 4.02546 0
M  V30 3026 H 278.599 0.482653 4.1309 0
M  V30 3027 H 277.176 -1.24248 3.51592 0
M  V30 3028 N 279.361 -1.56624 0.175154 0
M  V30 3029 C 280.591 -2.01082 -0.474283 0
M  V30 3030 C 280.999 -1.05447 -1.57091 0
M  V30 3031 O 280.342 -0.0480595 -1.83637 0
M  V30 3032 C 280.404 -3.41963 -1.10911 0
M  V30 3033 C 280.068 -4.56742 -0.153666 0
M  V30 3034 C 281.065 -5.16076 0.629448 0
M  V30 3035 C 278.75 -5.02277 -0.0483776 0
M  V30 3036 C 280.744 -6.19377 1.50501 0
M  V30 3037 C 278.431 -6.05427 0.830768 0
M  V30 3038 C 279.429 -6.63849 1.60605 0
M  V30 3039 O 279.117 -7.64998 2.47049 0
M  V30 3040 H 278.849 -0.664261 -0.125432 0
M  V30 3041 H 281.403 -2.03549 0.275163 0
M  V30 3042 H 279.633 -3.36422 -1.90676 0
M  V30 3043 H 281.322 -3.70352 -1.66114 0
M  V30 3044 H 282.088 -4.81776 0.558297 0
M  V30 3045 H 277.967 -4.56513 -0.641611 0
M  V30 3046 H 281.511 -6.64906 2.1106 0
M  V30 3047 H 277.408 -6.39151 0.903107 0
M  V30 3048 H 278.176 -7.82336 2.40607 0
M  V30 3049 N 280.839 0.0985539 -1.57292 0
M  V30 3050 C 282.064 0.820196 -1.90493 0
M  V30 3051 C 282.489 1.71658 -0.769094 0
M  V30 3052 O 281.847 1.79133 0.279495 0
M  V30 3053 C 281.895 1.61242 -3.22542 0
M  V30 3054 O 280.999 2.72108 -3.09888 0
M  V30 3055 H 280.34 0.225547 -0.62452 0
M  V30 3056 H 282.87 0.0748159 -2.04463 0
M  V30 3057 H 282.88 1.99737 -3.55766 0
M  V30 3058 H 281.555 0.954535 -4.04798 0
M  V30 3059 H 280.132 2.36667 -2.88172 0
M  V30 3060 N 282.317 1.53212 0.369288 0
M  V30 3061 C 283.227 1.82342 1.47609 0
M  V30 3062 C 284.243 0.711532 1.58787 0
M  V30 3063 O 285.419 1.0012 1.74751 0
M  V30 3064 C 282.484 2.00393 2.8292 0
M  V30 3065 C 281.545 3.24297 2.81301 0
M  V30 3066 C 280.778 3.41478 4.10157 0
M  V30 3067 O 281.001 2.63033 5.06132 0
M  V30 3068 O 279.935 4.34817 4.16194 0
M  V30 3069 H 283.761 2.76366 1.25918 0
M  V30 3070 H 281.346 1.38547 0.559034 0
M  V30 3071 H 283.228 2.13859 3.63101 0
M  V30 3072 H 281.903 1.09559 3.04596 0
M  V30 3073 H 280.81 3.16257 1.99831 0
M  V30 3074 H 282.143 4.15041 2.64578 0
M  V30 3075 N 283.795 -0.628877 1.44509 0
M  V30 3076 C 284.758 -1.72263 1.51188 0
M  V30 3077 C 285.758 -1.55907 0.39367 0
M  V30 3078 O 286.948 -1.61361 0.656377 0
M  V30 3079 C 284.08 -3.11365 1.38798 0
M  V30 3080 H 285.273 -1.67714 2.4862 0
M  V30 3081 H 282.826 -0.842737 1.31634 0
M  V30 3082 H 283.561 -3.21507 0.424693 0
M  V30 3083 H 283.346 -3.24644 2.19884 0
M  V30 3084 H 284.836 -3.91075 1.46458 0
M  V30 3085 N 285.273 -1.31445 -0.869486 0
M  V30 3086 C 286.236 -1.19094 -1.9583 0
M  V30 3087 C 287.236 -0.117906 -1.60367 0
M  V30 3088 O 288.426 -0.367208 -1.70286 0
M  V30 3089 C 285.558 -0.828165 -3.30688 0
M  V30 3090 H 286.751 -2.15842 -2.08212 0
M  V30 3091 H 284.304 -1.15063 -1.05784 0
M  V30 3092 H 285.039 0.138142 -3.24006 0
M  V30 3093 H 284.824 -1.6038 -3.578 0
M  V30 3094 H 286.314 -0.765658 -4.10521 0
M  V30 3095 N 286.751 1.08385 -1.14413 0
M  V30 3096 C 287.684 2.14642 -0.774871 0
M  V30 3097 C 288.662 1.60761 0.243876 0
M  V30 3098 O 289.846 1.88031 0.132883 0
M  V30 3099 C 286.973 3.38366 -0.150491 0
M  V30 3100 C 286.019 4.10997 -1.13945 0
M  V30 3101 S 286.852 4.63797 -2.67679 0
M  V30 3102 C 288.008 5.90808 -2.06631 0
M  V30 3103 H 288.241 2.45633 -1.67487 0
M  V30 3104 H 285.774 1.20498 -0.96538 0
M  V30 3105 H 287.732 4.09996 0.203334 0
M  V30 3106 H 286.393 3.05572 0.72694 0
M  V30 3107 H 285.586 4.99783 -0.65059 0
M  V30 3108 H 285.188 3.4528 -1.43727 0
M  V30 3109 H 287.48 6.62411 -1.4219 0
M  V30 3110 H 288.423 6.4439 -2.93542 0
M  V30 3111 H 288.831 5.4383 -1.51357 0
M  V30 3112 N 288.23 0.939286 1.26551 0
M  V30 3113 C 289.16 0.465044 2.28822 0
M  V30 3114 C 290.141 -0.480692 1.63167 0
M  V30 3115 O 291.326 -0.382955 1.90387 0
M  V30 3116 C 288.456 -0.27234 3.46231 0
M  V30 3117 C 287.41 0.58666 4.2396 0
M  V30 3118 C 286.736 -0.280573 5.33963 0
M  V30 3119 C 288.036 1.85704 4.88171 0
M  V30 3120 H 289.73 1.31979 2.68741 0
M  V30 3121 H 287.276 0.636061 1.29191 0
M  V30 3122 H 289.229 -0.615133 4.16886 0
M  V30 3123 H 287.953 -1.16121 3.0526 0
M  V30 3124 H 286.612 0.91232 3.55067 0
M  V30 3125 H 286.26 -1.16874 4.89234 0
M  V30 3126 H 285.96 0.29076 5.8688 0
M  V30 3127 H 287.484 -0.618678 6.07458 0
M  V30 3128 H 288.898 1.58161 5.51052 0
M  V30 3129 H 287.295 2.37279 5.51197 0
M  V30 3130 H 288.365 2.56957 4.11219 0
M  V30 3131 N 289.708 -1.40897 0.706093 0
M  V30 3132 C 290.671 -2.29131 0.0562841 0
M  V30 3133 C 291.671 -1.44901 -0.697166 0
M  V30 3134 O 292.861 -1.65926 -0.530484 0
M  V30 3135 C 289.993 -3.27957 -0.93043 0
M  V30 3136 H 291.186 -2.88091 0.833284 0
M  V30 3137 H 288.739 -1.4906 0.470192 0
M  V30 3138 H 289.474 -2.73997 -1.73482 0
M  V30 3139 H 289.259 -3.90124 -0.393166 0
M  V30 3140 H 290.749 -3.94049 -1.38256 0
M  V30 3141 N 291.186 -0.45159 -1.50991 0
M  V30 3142 C 292.432 0.110237 -2.025 0
M  V30 3143 C 292.765 1.41109 -1.33424 0
M  V30 3144 O 292.04 1.89135 -0.453659 0
M  V30 3145 C 292.323 0.314271 -3.58726 0
M  V30 3146 C 292.176 -1.00623 -4.38401 0
M  V30 3147 C 293.495 1.07767 -4.26702 0
M  V30 3148 H 290.614 0.0385897 -0.735989 0
M  V30 3149 H 293.256 -0.593374 -1.80497 0
M  V30 3150 H 291.406 0.913601 -3.77605 0
M  V30 3151 H 293.078 -1.64064 -4.31139 0
M  V30 3152 H 291.321 -1.6075 -4.02917 0
M  V30 3153 H 291.992 -0.817341 -5.45915 0
M  V30 3154 H 294.468 0.56986 -4.12179 0
M  V30 3155 H 293.344 1.18921 -5.35863 0
M  V30 3156 H 293.605 2.10939 -3.88532 0
M  V30 3157 N 292.664 1.56529 -0.183458 0
M  V30 3158 C 293.594 2.21549 0.737456 0
M  V30 3159 C 294.575 1.17489 1.23005 0
M  V30 3160 O 295.76 1.45959 1.281 0
M  V30 3161 C 292.89 2.86575 1.96194 0
M  V30 3162 C 291.844 3.96778 1.60473 0
M  V30 3163 C 291.17 4.48911 2.90487 0
M  V30 3164 C 292.47 5.15767 0.823497 0
M  V30 3165 H 294.164 2.98761 0.195453 0
M  V30 3166 H 291.71 1.43702 0.0925686 0
M  V30 3167 H 293.663 3.30739 2.61131 0
M  V30 3168 H 292.387 2.06749 2.52828 0
M  V30 3169 H 291.046 3.53286 0.978997 0
M  V30 3170 H 290.694 3.65862 3.45186 0
M  V30 3171 H 290.394 5.23265 2.67335 0
M  V30 3172 H 291.918 4.95771 3.56432 0
M  V30 3173 H 293.332 5.56549 1.37571 0
M  V30 3174 H 291.729 5.96114 0.690551 0
M  V30 3175 H 292.799 4.84574 -0.177782 0
M  V30 3176 N 294.142 -0.090211 1.57342 0
M  V30 3177 C 295.553 -0.644173 1.75235 0
M  V30 3178 C 295.904 -1.78865 0.806335 0
M  V30 3179 O 295.029 -2.16395 -0.0140128 0
M  V30 3180 C 295.624 -1.17532 3.1776 0
M  V30 3181 C 294.183 -1.67531 3.37061 0
M  V30 3182 C 293.33 -0.58693 2.71017 0
M  V30 3183 H 296.281 0.135884 1.58117 0
M  V30 3184 H 296.302 -2.04455 3.20902 0
M  V30 3185 H 295.814 -0.342138 3.86589 0
M  V30 3186 H 293.915 -2.53234 2.73319 0
M  V30 3187 H 294.028 -1.76493 4.45406 0
M  V30 3188 H 292.392 -1.02756 2.33052 0
M  V30 3189 H 293.175 0.235758 3.4249 0
M  V30 3190 N 295.62 -1.53406 -0.361157 0
M  V30 3191 C 296.552 -1.76446 -1.46286 0
M  V30 3192 C 297.565 -0.645322 -1.49464 0
M  V30 3193 O 298.754 -0.921681 -1.52864 0
M  V30 3194 C 295.854 -1.83332 -2.85031 0
M  V30 3195 C 295.027 -3.13033 -3.05498 0
M  V30 3196 C 294.086 -3.11104 -4.24383 0
M  V30 3197 O 293.112 -3.84888 -4.19344 0
M  V30 3198 N 294.314 -2.32234 -5.32022 0
M  V30 3199 H 297.079 -2.71508 -1.26899 0
M  V30 3200 H 294.64 -1.52238 -0.550915 0
M  V30 3201 H 296.632 -1.79514 -3.62708 0
M  V30 3202 H 295.202 -0.955342 -2.97644 0
M  V30 3203 H 294.422 -3.30119 -2.15442 0
M  V30 3204 H 295.71 -3.9874 -3.16044 0
M  V30 3205 H 295.108 -1.71807 -5.38979 0
M  V30 3206 H 293.665 -2.3423 -6.08259 0
M  V30 3207 N 297.098 0.621204 -1.44841 0
M  V30 3208 C 298.061 1.71459 -1.521 0
M  V30 3209 C 299.061 1.55696 -0.401933 0
M  V30 3210 O 300.251 1.61011 -0.664925 0
M  V30 3211 C 297.383 3.10624 -1.40447 0
M  V30 3212 H 298.576 1.66394 -2.49506 0
M  V30 3213 H 296.129 0.835745 -1.3208 0
M  V30 3214 H 296.864 3.21277 -0.441737 0
M  V30 3215 H 296.649 3.23473 -2.21602 0
M  V30 3216 H 298.139 3.90293 -1.4853 0
M  V30 3217 N 298.576 1.31904 0.862503 0
M  V30 3218 C 299.987 1.19803 1.43193 0
M  V30 3219 C 300.338 -0.192567 1.95253 0
M  V30 3220 O 299.463 -1.09081 1.86896 0
M  V30 3221 C 300.058 2.16883 2.60283 0
M  V30 3222 C 298.617 2.08692 3.13248 0
M  V30 3223 C 297.764 2.05691 1.85975 0
M  V30 3224 H 300.715 1.43846 0.670365 0
M  V30 3225 H 300.736 1.76278 3.37204 0
M  V30 3226 H 300.248 3.18083 2.22363 0
M  V30 3227 H 298.349 1.10713 3.55771 0
M  V30 3228 H 298.462 2.9815 3.75025 0
M  V30 3229 H 296.826 1.50814 2.05249 0
M  V30 3230 H 297.609 3.08659 1.50282 0
M  V30 3231 N 300.054 -1.07777 1.14986 0
M  V30 3232 C 301.279 -1.84558 0.946213 0
M  V30 3233 C 301.704 -1.81323 -0.500362 0
M  V30 3234 O 301.062 -1.20301 -1.35637 0
M  V30 3235 C 301.11 -3.29736 1.45968 0
M  V30 3236 O 300.214 -4.07149 0.65601 0
M  V30 3237 H 299.555 -0.571641 0.33782 0
M  V30 3238 H 302.085 -1.35991 1.52865 0
M  V30 3239 H 302.095 -3.80574 1.47063 0
M  V30 3240 H 300.77 -3.31406 2.51283 0
M  V30 3241 H 299.347 -3.65994 0.714322 0
M  V30 3242 N 301.532 -0.945985 -1.26051 0
M  V30 3243 C 302.948 -0.649045 -1.45807 0
M  V30 3244 C 303.148 0.796158 -1.85104 0
M  V30 3245 O 302.204 1.57233 -1.97571 0
M  V30 3246 C 303.517 -1.61458 -2.53677 0
M  V30 3247 C 305.065 -1.62481 -2.67524 0
M  V30 3248 C 305.54 -2.57776 -3.7857 0
M  V30 3249 N 307.031 -2.5609 -3.85969 0
M  V30 3250 C 307.766 -3.26508 -4.7136 0
M  V30 3251 N 307.262 -4.0637 -5.61102 0
M  V30 3252 N 309.055 -3.15437 -4.65248 0
M  V30 3253 H 301.206 -1.88005 -0.988328 0
M  V30 3254 H 303.469 -0.808198 -0.4955 0
M  V30 3255 H 303.175 -2.64644 -2.31638 0
M  V30 3256 H 303.049 -1.37036 -3.51427 0
M  V30 3257 H 305.436 -0.600167 -2.88933 0
M  V30 3258 H 305.517 -1.90958 -1.70202 0
M  V30 3259 H 305.161 -3.60361 -3.57913 0
M  V30 3260 H 305.091 -2.26587 -4.75359 0
M  V30 3261 H 307.582 -1.98105 -3.21812 0
M  V30 3262 H 307.895 -4.57042 -6.23164 0
M  V30 3263 H 306.24 -4.10469 -5.60839 0
M  V30 3264 H 309.431 -2.52525 -3.94143 0
M  V30 3265 H 309.604 -3.70584 -5.31575 0
M  V30 3266 N 303.011 1.40521 -0.713556 0
M  V30 3267 C 303.941 2.33381 -0.0743864 0
M  V30 3268 C 304.922 1.52784 0.747735 0
M  V30 3269 O 306.107 1.81258 0.697071 0
M  V30 3270 C 303.237 3.36748 0.849598 0
M  V30 3271 C 302.191 4.27793 0.133247 0
M  V30 3272 C 301.517 5.21679 1.17281 0
M  V30 3273 C 302.817 5.12415 -1.01134 0
M  V30 3274 H 304.511 2.87081 -0.850007 0
M  V30 3275 H 302.057 1.38034 -0.410201 0
M  V30 3276 H 304.01 4.00648 1.30612 0
M  V30 3277 H 302.734 2.81439 1.65709 0
M  V30 3278 H 301.393 3.65342 -0.303426 0
M  V30 3279 H 301.041 4.62677 1.9733 0
M  V30 3280 H 300.741 5.83435 0.698397 0
M  V30 3281 H 302.265 5.88456 1.62947 0
M  V30 3282 H 303.679 5.69781 -0.634274 0
M  V30 3283 H 302.076 5.83203 -1.41399 0
M  V30 3284 H 303.146 4.48514 -1.84292 0
M  V30 3285 N 304.489 0.459591 1.5075 0
M  V30 3286 C 305.905 0.113092 1.59199 0
M  V30 3287 C 306.105 -1.37951 1.46874 0
M  V30 3288 O 305.161 -2.15168 1.32132 0
M  V30 3289 C 306.474 0.653043 2.93523 0
M  V30 3290 C 308.022 0.615449 3.0689 0
M  V30 3291 C 308.497 1.13275 4.43771 0
M  V30 3292 N 309.988 1.09167 4.50152 0
M  V30 3293 C 310.723 1.46256 5.54434 0
M  V30 3294 N 310.219 1.90739 6.66026 0
M  V30 3295 N 312.012 1.37932 5.44914 0
M  V30 3296 H 304.163 1.43049 1.57005 0
M  V30 3297 H 306.426 0.590861 0.741341 0
M  V30 3298 H 306.132 1.69822 3.07983 0
M  V30 3299 H 306.006 0.0902132 3.77092 0
M  V30 3300 H 308.393 -0.420793 2.92084 0
M  V30 3301 H 308.474 1.21495 2.25106 0
M  V30 3302 H 308.118 2.16757 4.59324 0
M  V30 3303 H 308.048 0.509576 5.24129 0
M  V30 3304 H 310.539 0.76528 3.7007 0
M  V30 3305 H 310.852 2.17218 7.41644 0
M  V30 3306 H 309.197 1.94683 6.67176 0
M  V30 3307 H 312.388 1.0303 4.56621 0
M  V30 3308 H 312.561 1.67164 6.26067 0
M  V30 3309 N 305.967 -1.56429 0.191757 0
M  V30 3310 C 307.378 -1.83912 -0.321428 0
M  V30 3311 C 307.729 -1.11231 -1.61623 0
M  V30 3312 O 306.854 -0.37202 -2.13178 0
M  V30 3313 C 307.449 -3.33624 -0.589961 0
M  V30 3314 C 306.008 -3.6153 -1.04753 0
M  V30 3315 C 305.155 -2.7714 -0.0943327 0
M  V30 3316 H 308.106 -1.53161 0.415612 0
M  V30 3317 H 308.127 -3.52213 -1.43966 0
M  V30 3318 H 307.639 -3.86495 0.352588 0
M  V30 3319 H 305.74 -3.14089 -2.00447 0
M  V30 3320 H 305.853 -4.69737 -0.942549 0
M  V30 3321 H 304.217 -2.47638 -0.595589 0
M  V30 3322 H 305 -3.32799 0.842601 0
M  V30 3323 N 307.445 0.0818655 -1.57387 0
M  V30 3324 C 308.722 0.815343 -1.77796 0
M  V30 3325 C 309.102 1.96289 -0.77679 0
M  V30 3326 O 308.45 2.27691 0.192106 0
M  V30 3327 C 308.66 1.29765 -3.23978 0
M  V30 3328 C 310.008 1.7351 -3.8753 0
M  V30 3329 O 311.032 1.39356 -3.27808 0
M  V30 3330 O 309.891 2.36708 -4.92576 0
M  V30 3331 H 306.985 0.389914 -0.729312 0
M  V30 3332 H 309.531 0.0627213 -1.69584 0
M  V30 3333 H 308.303 0.47608 -3.88393 0
M  V30 3334 H 307.926 2.11189 -3.36875 0
M  V30 3335 N 308.923 1.53595 0.353017 0
M  V30 3336 C 310.339 1.43648 0.695516 0
M  V30 3337 C 310.539 0.585617 1.92802 0
M  V30 3338 O 309.595 0.0729223 2.52395 0
M  V30 3339 C 310.908 2.8701 0.896991 0
M  V30 3340 C 312.456 2.96723 0.996209 0
M  V30 3341 C 312.931 4.41173 1.23007 0
M  V30 3342 N 314.422 4.44657 1.29749 0
M  V30 3343 C 315.157 5.53547 1.49577 0
M  V30 3344 N 314.653 6.72461 1.66639 0
M  V30 3345 N 316.446 5.41145 1.52048 0
M  V30 3346 H 308.597 2.07415 -0.457481 0
M  V30 3347 H 310.86 0.9372 -0.142687 0
M  V30 3348 H 310.566 3.51644 0.0629938 0
M  V30 3349 H 310.44 3.31401 1.80148 0
M  V30 3350 H 312.827 2.32235 1.82074 0
M  V30 3351 H 312.908 2.55707 0.0688331 0
M  V30 3352 H 312.552 5.06238 0.410505 0
M  V30 3353 H 312.482 4.79772 2.17086 0
M  V30 3354 H 314.973 3.58963 1.18126 0
M  V30 3355 H 315.286 7.51214 1.81378 0
M  V30 3356 H 313.631 6.75423 1.63794 0
M  V30 3357 H 316.822 4.47205 1.38294 0
M  V30 3358 H 316.995 6.26068 1.67159 0
M  V30 3359 N 310.401 -0.613514 1.45168 0
M  V30 3360 C 311.647 -1.37279 1.50087 0
M  V30 3361 C 312.002 -1.91902 0.138294 0
M  V30 3362 O 311.295 -1.71764 -0.84899 0
M  V30 3363 C 311.489 -2.54347 2.51083 0
M  V30 3364 C 311.318 -2.11186 3.97027 0
M  V30 3365 C 310.088 -1.97636 4.65046 0
M  V30 3366 C 312.286 -1.69016 4.85735 0
M  V30 3367 N 310.268 -1.48224 5.95737 0
M  V30 3368 C 311.639 -1.30976 6.06008 0
M  V30 3369 C 313.694 -1.56555 4.72647 0
M  V30 3370 C 312.397 -0.817197 7.14643 0
M  V30 3371 C 314.423 -1.08702 5.81324 0
M  V30 3372 C 313.785 -0.716233 7.00749 0
M  V30 3373 H 309.884 -0.496478 0.60418 0
M  V30 3374 H 312.468 -0.701988 1.81605 0
M  V30 3375 H 310.639 -3.19031 2.21527 0
M  V30 3376 H 312.371 -3.21208 2.46187 0
M  V30 3377 H 309.126 -2.18638 4.20112 0
M  V30 3378 H 309.55 -1.25767 6.65216 0
M  V30 3379 H 314.192 -1.83849 3.80736 0
M  V30 3380 H 311.91 -0.531797 8.06348 0
M  V30 3381 H 315.496 -0.994943 5.7323 0
M  V30 3382 H 314.376 -0.351642 7.83411 0
M  V30 3383 N 311.879 -1.3236 -0.855495 0
M  V30 3384 C 313.29 -1.2056 -1.42556 0
M  V30 3385 C 313.641 0.182209 -1.95352 0
M  V30 3386 O 312.766 1.08088 -1.87472 0
M  V30 3387 C 313.361 -2.1826 -2.59129 0
M  V30 3388 C 311.92 -2.10351 -3.12137 0
M  V30 3389 C 311.067 -2.06674 -1.84882 0
M  V30 3390 H 314.018 -1.442 -0.662727 0
M  V30 3391 H 314.039 -1.78064 -3.36264 0
M  V30 3392 H 313.551 -3.19257 -2.20673 0
M  V30 3393 H 311.652 -1.12599 -3.55179 0
M  V30 3394 H 311.765 -3.00135 -3.73438 0
M  V30 3395 H 310.129 -1.51901 -2.04446 0
M  V30 3396 H 310.912 -3.09451 -1.48643 0
M  V30 3397 N 313.357 1.07166 -1.15556 0
M  V30 3398 C 314.267 2.17947 -0.868116 0
M  V30 3399 C 315.283 1.73297 0.156297 0
M  V30 3400 O 316.459 2.01392 -0.0182327 0
M  V30 3401 C 313.524 3.44789 -0.36355 0
M  V30 3402 C 312.585 4.03996 -1.45209 0
M  V30 3403 C 311.818 5.24783 -0.971508 0
M  V30 3404 O 312.041 5.70109 0.182194 0
M  V30 3405 O 310.975 5.75715 -1.75603 0
M  V30 3406 H 314.801 2.4503 -1.79427 0
M  V30 3407 H 312.386 1.16539 -0.934824 0
M  V30 3408 H 314.268 4.21307 -0.0887113 0
M  V30 3409 H 312.943 3.19253 0.534708 0
M  V30 3410 H 311.85 3.29009 -1.78056 0
M  V30 3411 H 313.183 4.33808 -2.32533 0
M  V30 3412 N 314.835 0.952656 1.25548 0
M  V30 3413 C 316.251 0.656769 1.4546 0
M  V30 3414 C 316.451 -0.78633 1.85524 0
M  V30 3415 O 315.507 -1.56183 1.98402 0
M  V30 3416 C 316.82 1.62801 2.52817 0
M  V30 3417 C 318.368 1.63897 2.66659 0
M  V30 3418 C 318.843 2.5978 3.77198 0
M  V30 3419 N 320.334 2.58133 3.84606 0
M  V30 3420 C 321.069 3.29003 4.69621 0
M  V30 3421 N 320.565 4.09339 5.58939 0
M  V30 3422 N 322.358 3.179 4.63569 0
M  V30 3423 H 314.509 1.88526 0.978344 0
M  V30 3424 H 316.772 0.810815 0.491206 0
M  V30 3425 H 316.478 2.65869 2.30232 0
M  V30 3426 H 316.352 1.38898 3.50695 0
M  V30 3427 H 318.739 0.615481 2.8861 0
M  V30 3428 H 318.82 1.91858 1.69187 0
M  V30 3429 H 318.464 3.62254 3.55997 0
M  V30 3430 H 318.394 2.29105 4.7415 0
M  V30 3431 H 320.885 1.99809 3.20757 0
M  V30 3432 H 321.198 4.6034 6.20731 0
M  V30 3433 H 319.543 4.13438 5.58654 0
M  V30 3434 H 322.734 2.54612 3.92798 0
M  V30 3435 H 322.907 3.73398 5.29602 0
M  V30 3436 N 316.313 -1.40141 0.720998 0
M  V30 3437 C 317.276 -2.29058 0.0805834 0
M  V30 3438 C 318.276 -1.45632 -0.681758 0
M  V30 3439 O 319.466 -1.6648 -0.512856 0
M  V30 3440 C 316.598 -3.28925 -0.895593 0
M  V30 3441 H 317.791 -2.87191 0.863793 0
M  V30 3442 H 315.344 -1.48553 0.485975 0
M  V30 3443 H 316.079 -2.75822 -1.70566 0
M  V30 3444 H 315.864 -3.90519 -0.351766 0
M  V30 3445 H 317.354 -3.95494 -1.34069 0
M  V30 3446 N 317.792 -0.46758 -1.50504 0
M  V30 3447 C 318.702 0.33382 -2.32213 0
M  V30 3448 C 319.718 0.999323 -1.42441 0
M  V30 3449 O 320.894 0.988068 -1.75497 0
M  V30 3450 C 317.959 1.4035 -3.17022 0
M  V30 3451 C 317.02 0.754961 -4.2261 0
M  V30 3452 C 316.253 1.77367 -5.03365 0
M  V30 3453 O 316.476 2.99976 -4.8515 0
M  V30 3454 O 315.41 1.34744 -5.86624 0
M  V30 3455 H 319.236 -0.334067 -3.01857 0
M  V30 3456 H 316.821 -0.229496 -1.47627 0
M  V30 3457 H 318.703 2.02318 -3.69656 0
M  V30 3458 H 317.378 2.05492 -2.5011 0
M  V30 3459 H 316.285 0.0964244 -3.73976 0
M  V30 3460 H 317.618 0.146545 -4.91982 0
M  V30 3461 N 319.27 1.56325 -0.20005 0
M  V30 3462 C 320.233 2.18084 0.705132 0
M  V30 3463 C 321.233 1.13666 1.1374 0
M  V30 3464 O 322.423 1.39023 1.04968 0
M  V30 3465 C 319.555 2.78689 1.96329 0
M  V30 3466 H 320.748 2.99435 0.167023 0
M  V30 3467 H 318.301 1.56221 0.0495725 0
M  V30 3468 H 319.036 2.0115 2.5438 0
M  V30 3469 H 318.821 3.55133 1.66202 0
M  V30 3470 H 320.311 3.26096 2.60866 0
M  V30 3471 N 320.748 -0.0735177 1.57428 0
M  V30 3472 C 321.711 -1.07192 2.02589 0
M  V30 3473 C 322.711 -1.31695 0.922661 0
M  V30 3474 O 323.901 -1.27445 1.18758 0
M  V30 3475 C 321.033 -2.41599 2.40506 0
M  V30 3476 H 322.226 -0.682727 2.92025 0
M  V30 3477 H 319.779 -0.319193 1.53006 0
M  V30 3478 H 320.514 -2.85354 1.5409 0
M  V30 3479 H 320.299 -2.25156 3.21009 0
M  V30 3480 H 321.789 -3.13367 2.76027 0
M  V30 3481 N 322.226 -1.5378 -0.344866 0
M  V30 3482 C 323.642 -1.44015 -0.687888 0
M  V30 3483 C 323.842 -0.595834 -1.92489 0
M  V30 3484 O 322.898 -0.0863064 -2.52352 0
M  V30 3485 C 324.211 -2.87481 -0.881758 0
M  V30 3486 C 325.759 -2.97247 -0.980459 0
M  V30 3487 C 326.234 -4.41819 -1.20665 0
M  V30 3488 N 327.725 -4.45339 -1.27389 0
M  V30 3489 C 328.46 -5.54333 -1.46639 0
M  V30 3490 N 327.956 -6.73335 -1.63071 0
M  V30 3491 N 329.749 -5.41944 -1.49176 0
M  V30 3492 H 321.9 -2.07169 0.468475 0
M  V30 3493 H 324.163 -0.93643 0.147655 0
M  V30 3494 H 323.869 -3.51672 -0.0443444 0
M  V30 3495 H 323.743 -3.32352 -1.78388 0
M  V30 3496 H 326.13 -2.33197 -1.8084 0
M  V30 3497 H 326.211 -2.5574 -0.0552713 0
M  V30 3498 H 325.855 -5.06449 -0.383652 0
M  V30 3499 H 325.785 -4.80917 -2.14539 0
M  V30 3500 H 328.276 -3.59585 -1.1622 0
M  V30 3501 H 328.589 -7.52165 -1.77391 0
M  V30 3502 H 326.934 -6.76282 -1.60209 0
M  V30 3503 H 330.125 -4.47932 -1.3592 0
M  V30 3504 H 330.298 -6.26946 -1.63837 0
M  V30 3505 N 323.704 0.605807 -1.45491 0
M  V30 3506 C 324.652 1.73754 -1.54636 0
M  V30 3507 C 325.646 1.64207 -0.416219 0
M  V30 3508 O 326.852 1.69979 -0.592199 0
M  V30 3509 H 323.227 0.574073 -0.485741 0
M  V30 3510 H 325.198 1.63169 -2.49837 0
M  V30 3511 C 323.947 3.12135 -1.53189 0
M  V30 3512 H 323.27 3.20141 -2.39478 0
M  V30 3513 H 324.71 3.91147 -1.63645 0
M  V30 3514 C 323.169 3.35921 -0.256616 0
M  V30 3515 O 323.699 3.96194 0.662798 0
M  V30 3516 N 321.905 2.90204 -0.151751 0
M  V30 3517 H 321.452 2.41336 -0.90081 0
M  V30 3518 H 321.41 3.06492 0.700699 0
M  V30 3519 N 325.182 1.32811 0.848464 0
M  V30 3520 C 326.129 1.22265 1.95755 0
M  V30 3521 C 327.099 0.103413 1.65778 0
M  V30 3522 O 328.284 0.280033 1.88734 0
M  V30 3523 C 325.424 0.958014 3.31536 0
M  V30 3524 C 324.537 2.16262 3.73971 0
M  V30 3525 C 323.672 1.83295 4.98575 0
M  V30 3526 C 322.711 3.00041 5.33518 0
M  V30 3527 N 321.848 2.67125 6.49299 0
M  V30 3528 H 326.688 2.17128 2.04107 0
M  V30 3529 H 324.225 1.07982 0.998913 0
M  V30 3530 H 326.183 0.785052 4.09747 0
M  V30 3531 H 324.813 0.046159 3.22767 0
M  V30 3532 H 323.865 2.44565 2.91362 0
M  V30 3533 H 325.177 3.03572 3.95785 0
M  V30 3534 H 324.331 1.62586 5.84509 0
M  V30 3535 H 323.07 0.932078 4.7871 0
M  V30 3536 H 322.075 3.21374 4.46093 0
M  V30 3537 H 323.3 3.90869 5.55336 0
M  V30 3538 H 321.246 1.79586 6.3094 0
M  V30 3539 H 321.163 3.47965 6.71161 0
M  V30 3540 H 322.431 2.49861 7.3837 0
M  V30 3541 N 326.66 -1.06551 1.16123 0
M  V30 3542 C 327.906 -1.79567 0.94252 0
M  V30 3543 C 328.239 -1.86869 -0.528547 0
M  V30 3544 O 327.514 -1.35838 -1.39206 0
M  V30 3545 C 327.797 -3.24195 1.56747 0
M  V30 3546 C 327.65 -3.24989 3.10969 0
M  V30 3547 C 328.969 -4.21678 1.25998 0
M  V30 3548 H 326.088 -0.651883 0.343828 0
M  V30 3549 H 328.73 -1.2463 1.43413 0
M  V30 3550 H 326.88 -3.71107 1.14942 0
M  V30 3551 H 328.552 -2.86258 3.61737 0
M  V30 3552 H 326.795 -2.63716 3.44436 0
M  V30 3553 H 327.466 -4.27005 3.49815 0
M  V30 3554 H 329.942 -3.83196 1.62174 0
M  V30 3555 H 328.818 -5.21146 1.7233 0
M  V30 3556 H 329.079 -4.4174 0.178367 0
M  V30 3557 N 328.138 -0.959301 -1.25041 0
M  V30 3558 C 329.068 -0.501388 -2.28053 0
M  V30 3559 C 330.049 0.454673 -1.63911 0
M  V30 3560 O 331.234 0.352618 -1.90972 0
M  V30 3561 C 328.364 0.217224 -3.4662 0
M  V30 3562 C 327.318 -0.654034 -4.22973 0
M  V30 3563 C 326.644 0.195589 -5.34342 0
M  V30 3564 C 327.944 -1.93447 -4.85155 0
M  V30 3565 H 329.638 -1.36238 -2.66608 0
M  V30 3566 H 327.184 -0.656534 -1.28163 0
M  V30 3567 H 329.137 0.548732 -4.17812 0
M  V30 3568 H 327.861 1.1125 -3.07068 0
M  V30 3569 H 326.52 -0.968693 -3.5357 0
M  V30 3570 H 326.168 1.09076 -4.91031 0
M  V30 3571 H 325.868 -0.384091 -5.86343 0
M  V30 3572 H 327.392 0.521958 -6.08365 0
M  V30 3573 H 328.806 -1.66908 -5.48466 0
M  V30 3574 H 327.203 -2.46018 -5.47353 0
M  V30 3575 H 328.273 -2.63466 -4.07079 0
M  V30 3576 N 329.616 1.39756 -0.72842 0
M  V30 3577 C 330.526 2.34444 -0.0855374 0
M  V30 3578 C 331.542 1.57976 0.729356 0
M  V30 3579 O 332.718 1.90301 0.659346 0
M  V30 3580 C 329.783 3.36965 0.815798 0
M  V30 3581 C 328.844 4.29299 -0.0105996 0
M  V30 3582 C 328.077 5.26923 0.84781 0
M  V30 3583 O 328.3 5.30859 2.08673 0
M  V30 3584 O 327.234 6.01249 0.279969 0
M  V30 3585 H 331.06 2.91065 -0.866892 0
M  V30 3586 H 328.645 1.4117 -0.48902 0
M  V30 3587 H 330.527 3.99804 1.33171 0
M  V30 3588 H 329.202 2.82739 1.57608 0
M  V30 3589 H 328.109 3.69703 -0.571877 0
M  V30 3590 H 329.442 4.86712 -0.73295 0
M  V30 3591 N 331.094 0.475555 1.50254 0
M  V30 3592 C 332.51 0.12997 1.5907 0
M  V30 3593 C 332.71 -1.36385 1.48328 0
M  V30 3594 O 331.766 -2.13754 1.34407 0
M  V30 3595 C 333.079 0.684139 2.92814 0
M  V30 3596 C 334.627 0.647965 3.0622 0
M  V30 3597 C 335.102 1.17975 4.42545 0
M  V30 3598 N 336.593 1.13936 4.48969 0
M  V30 3599 C 337.328 1.52129 5.52851 0
M  V30 3600 N 336.824 1.97793 6.63965 0
M  V30 3601 N 338.617 1.43704 5.4342 0
M  V30 3602 H 330.768 1.44706 1.55479 0
M  V30 3603 H 333.031 0.598691 0.735033 0
M  V30 3604 H 332.737 1.73079 3.06164 0
M  V30 3605 H 332.611 0.130204 3.76975 0
M  V30 3606 H 334.998 -0.38979 2.92514 0
M  V30 3607 H 335.079 1.23876 2.23805 0
M  V30 3608 H 334.723 2.21616 4.57 0
M  V30 3609 H 334.653 0.565138 5.23559 0
M  V30 3610 H 337.144 0.804488 3.69238 0
M  V30 3611 H 337.457 2.25072 7.39299 0
M  V30 3612 H 335.802 2.01749 6.65073 0
M  V30 3613 H 338.993 1.07867 4.55502 0
M  V30 3614 H 339.166 1.73794 6.24259 0
M  V30 3615 N 332.573 -1.56217 0.208337 0
M  V30 3616 C 333.506 -2.15633 -0.746842 0
M  V30 3617 C 334.484 -1.09685 -1.20034 0
M  V30 3618 O 335.668 -1.3787 -1.28547 0
M  V30 3619 C 332.795 -2.72594 -2.01023 0
M  V30 3620 C 331.841 -3.91251 -1.69779 0
M  V30 3621 S 332.674 -5.28962 -0.834209 0
M  V30 3622 C 333.83 -5.89353 -2.10745 0
M  V30 3623 H 334.063 -2.96315 -0.241789 0
M  V30 3624 H 331.596 -1.54398 -0.00682183 0
M  V30 3625 H 333.554 -3.06053 -2.73572 0
M  V30 3626 H 332.215 -1.91929 -2.48641 0
M  V30 3627 H 331.408 -4.29562 -2.63614 0
M  V30 3628 H 331.01 -3.58869 -1.05303 0
M  V30 3629 H 333.302 -6.04522 -3.05875 0
M  V30 3630 H 334.245 -6.85661 -1.76845 0
M  V30 3631 H 334.653 -5.1807 -2.24196 0
M  V30 3632 N 334.051 0.0651679 -1.57465 0
M  V30 3633 C 335.014 1.06117 -2.03155 0
M  V30 3634 C 336.014 1.31204 -0.929632 0
M  V30 3635 O 337.204 1.26813 -1.19432 0
M  V30 3636 C 334.336 2.4032 -2.41783 0
M  V30 3637 H 335.529 0.667231 -2.92383 0
M  V30 3638 H 333.082 0.311075 -1.53173 0
M  V30 3639 H 333.817 2.84532 -1.55601 0
M  V30 3640 H 333.602 2.23451 -3.22199 0
M  V30 3641 H 335.092 3.11898 -2.77685 0
M  V30 3642 N 335.529 1.53961 0.336706 0
M  V30 3643 C 336.775 1.7179 1.07777 0
M  V30 3644 C 337.108 0.483263 1.88091 0
M  V30 3645 O 336.383 -0.519747 1.87427 0
M  V30 3646 C 336.666 2.98558 2.01334 0
M  V30 3647 C 336.519 4.32245 1.24437 0
M  V30 3648 C 337.838 3.21023 3.01052 0
M  V30 3649 H 334.957 0.625089 0.390426 0
M  V30 3650 H 337.599 1.86641 0.35567 0
M  V30 3651 H 335.749 2.86028 2.62908 0
M  V30 3652 H 337.421 4.56637 0.654243 0
M  V30 3653 H 335.664 4.30344 0.546458 0
M  V30 3654 H 336.335 5.17137 1.93063 0
M  V30 3655 H 338.811 3.32929 2.49595 0
M  V30 3656 H 337.687 4.11104 3.6371 0
M  V30 3657 H 337.948 2.37637 3.72802 0
M  V30 3658 N 337.007 -0.598083 1.45811 0
M  V30 3659 C 337.939 -1.72231 1.51225 0
M  V30 3660 C 338.952 -1.57757 0.402059 0
M  V30 3661 O 340.141 -1.65464 0.669624 0
M  V30 3662 C 337.241 -3.10331 1.3619 0
M  V30 3663 C 336.414 -3.50955 2.61054 0
M  V30 3664 C 335.473 -4.68055 2.40439 0
M  V30 3665 O 334.499 -4.74691 3.14097 0
M  V30 3666 N 335.701 -5.61941 1.45612 0
M  V30 3667 H 338.466 -1.68046 2.48154 0
M  V30 3668 H 336.027 -0.783637 1.41671 0
M  V30 3669 H 338.019 -3.86439 1.20195 0
M  V30 3670 H 336.589 -3.0897 0.475015 0
M  V30 3671 H 335.809 -2.64711 2.92099 0
M  V30 3672 H 337.097 -3.74858 3.44034 0
M  V30 3673 H 336.495 -5.59301 0.848431 0
M  V30 3674 H 335.052 -6.37542 1.35585 0
M  V30 3675 N 338.485 -1.33259 -0.841409 0
M  V30 3676 C 339.733 -1.24326 -1.59334 0
M  V30 3677 C 340.054 0.191564 -1.94057 0
M  V30 3678 O 339.324 1.11967 -1.60749 0
M  V30 3679 H 337.904 -0.457174 -0.590763 0
M  V30 3680 H 340.566 -1.66947 -1.00571 0
M  V30 3681 H 339.662 -1.8352 -2.52442 0
M  V30 3682 N 339.963 1.05934 -1.16686 0
M  V30 3683 C 341.209 1.79065 -0.95203 0
M  V30 3684 C 341.542 1.87147 0.518629 0
M  V30 3685 O 340.817 1.36574 1.38484 0
M  V30 3686 C 341.1 3.23359 -1.58464 0
M  V30 3687 C 340.953 3.23336 -3.12689 0
M  V30 3688 C 342.272 4.21004 -1.28232 0
M  V30 3689 H 339.391 0.65005 -0.34728 0
M  V30 3690 H 342.033 1.23868 -1.44072 0
M  V30 3691 H 340.183 3.70493 -1.16908 0
M  V30 3692 H 341.855 2.84336 -3.6325 0
M  V30 3693 H 340.098 2.61886 -3.4583 0
M  V30 3694 H 340.769 4.25144 -3.52075 0
M  V30 3695 H 343.245 3.8233 -1.64203 0
M  V30 3696 H 342.121 5.20225 -1.75092 0
M  V30 3697 H 342.382 4.41639 -0.201791 0
M  V30 3698 N 341.441 0.965919 1.2453 0
M  V30 3699 C 342.687 0.637349 1.93156 0
M  V30 3700 C 343.042 -0.818261 1.74133 0
M  V30 3701 O 342.335 -1.58079 1.08266 0
M  V30 3702 C 342.529 0.945428 3.44669 0
M  V30 3703 C 342.358 2.42944 3.78429 0
M  V30 3704 C 341.128 3.08895 3.9989 0
M  V30 3705 C 343.326 3.40941 3.8505 0
M  V30 3706 N 341.308 4.47052 4.20735 0
M  V30 3707 C 342.679 4.64448 4.10717 0
M  V30 3708 C 344.734 3.35624 3.67779 0
M  V30 3709 C 343.437 5.83292 4.20907 0
M  V30 3710 C 345.463 4.53818 3.79214 0
M  V30 3711 C 344.825 5.76114 4.05304 0
M  V30 3712 H 340.924 0.284034 0.728594 0
M  V30 3713 H 343.508 1.24041 1.50073 0
M  V30 3714 H 341.679 0.371193 3.86622 0
M  V30 3715 H 343.411 0.575613 4.00586 0
M  V30 3716 H 340.166 2.59432 3.96222 0
M  V30 3717 H 340.59 5.18634 4.35141 0
M  V30 3718 H 345.232 2.4211 3.46616 0
M  V30 3719 H 342.95 6.77236 4.40883 0
M  V30 3720 H 346.536 4.51263 3.67224 0
M  V30 3721 H 345.416 6.66045 4.13949 0
M  V30 3722 N 342.919 -1.39368 0.735821 0
M  V30 3723 C 344.144 -2.05319 0.293052 0
M  V30 3724 C 344.569 -1.55115 -1.064 0
M  V30 3725 O 343.927 -0.695261 -1.67439 0
M  V30 3726 C 343.975 -3.59305 0.305323 0
M  V30 3727 O 343.079 -4.06299 -0.706761 0
M  V30 3728 H 342.42 -0.650529 0.13307 0
M  V30 3729 H 344.95 -1.78386 1.00197 0
M  V30 3730 H 344.96 -4.07724 0.149997 0
M  V30 3731 H 343.635 -3.95207 1.29553 0
M  V30 3732 H 342.212 -3.69292 -0.517504 0
M  V30 3733 N 344.397 -0.483516 -1.5 0
M  V30 3734 C 345.813 -0.138404 -1.58999 0
M  V30 3735 C 346.013 1.35597 -1.4905 0
M  V30 3736 O 345.069 2.13039 -1.35539 0
M  V30 3737 C 346.382 -0.699658 -2.92447 0
M  V30 3738 C 347.93 -0.664195 -3.05872 0
M  V30 3739 C 348.405 -1.20321 -4.41913 0
M  V30 3740 N 349.896 -1.16315 -4.48358 0
M  V30 3741 C 350.631 -1.55058 -5.52037 0
M  V30 3742 N 350.127 -2.01311 -6.62907 0
M  V30 3743 N 351.92 -1.46584 -5.42651 0
M  V30 3744 H 344.071 -1.45529 -1.5471 0
M  V30 3745 H 346.334 -0.60258 -0.731848 0
M  V30 3746 H 346.04 -1.747 -3.05242 0
M  V30 3747 H 345.914 -0.150194 -3.76901 0
M  V30 3748 H 348.301 0.374272 -2.92717 0
M  V30 3749 H 348.382 -1.25061 -2.23144 0
M  V30 3750 H 348.026 -2.24037 -4.55818 0
M  V30 3751 H 347.956 -0.592896 -5.23252 0
M  V30 3752 H 350.447 -0.824058 -3.68806 0
M  V30 3753 H 350.76 -2.2899 -7.38095 0
M  V30 3754 H 349.105 -2.05273 -6.63994 0
M  V30 3755 H 352.296 -1.10281 -4.54924 0
M  V30 3756 H 352.469 -1.77103 -6.23329 0
M  V30 3757 N 345.875 1.56104 -0.216619 0
M  V30 3758 C 346.785 2.23694 0.706982 0
M  V30 3759 C 347.801 1.24295 1.21765 0
M  V30 3760 O 348.977 1.57094 1.2603 0
M  V30 3761 C 346.042 2.8998 1.90033 0
M  V30 3762 C 345.103 4.04708 1.43213 0
M  V30 3763 C 344.336 4.67824 2.56859 0
M  V30 3764 O 344.559 4.29913 3.74874 0
M  V30 3765 O 343.493 5.56905 2.28343 0
M  V30 3766 H 347.319 3.03272 0.161235 0
M  V30 3767 H 344.904 1.49394 0.0136177 0
M  V30 3768 H 346.786 3.31837 2.59735 0
M  V30 3769 H 345.461 2.13365 2.43428 0
M  V30 3770 H 344.368 3.6743 0.70327 0
M  V30 3771 H 345.701 4.83051 0.944615 0
M  V30 3772 N 347.353 -0.0568162 1.57498 0
M  V30 3773 C 348.285 -1.09292 2.01464 0
M  V30 3774 C 349.298 -1.34112 0.922913 0
M  V30 3775 O 350.487 -1.32089 1.20062 0
M  V30 3776 C 347.587 -2.44068 2.35125 0
M  V30 3777 C 346.76 -2.38995 3.66333 0
M  V30 3778 C 345.819 -3.55997 3.87495 0
M  V30 3779 O 344.845 -3.36746 4.58901 0
M  V30 3780 N 346.047 -4.76888 3.30996 0
M  V30 3781 H 348.812 -0.718386 2.90963 0
M  V30 3782 H 346.373 -0.245235 1.60032 0
M  V30 3783 H 348.365 -3.21011 2.46443 0
M  V30 3784 H 346.935 -2.73468 1.5144 0
M  V30 3785 H 346.155 -1.47336 3.65631 0
M  V30 3786 H 347.443 -2.3272 4.52458 0
M  V30 3787 H 346.841 -4.95431 2.73065 0
M  V30 3788 H 345.398 -5.51291 3.47738 0
M  V30 3789 N 348.832 -1.54138 -0.328536 0
M  V30 3790 C 350.078 -1.7236 -1.06865 0
M  V30 3791 C 350.411 -0.493231 -1.87832 0
M  V30 3792 O 349.686 0.5098 -1.877 0
M  V30 3793 C 349.969 -2.99621 -1.99747 0
M  V30 3794 C 349.822 -4.32899 -1.22143 0
M  V30 3795 C 351.141 -3.22615 -2.99345 0
M  V30 3796 H 348.26 -0.627151 -0.387105 0
M  V30 3797 H 350.902 -1.86827 -0.345767 0
M  V30 3798 H 349.052 -2.87418 -2.61387 0
M  V30 3799 H 350.724 -4.56978 -0.630017 0
M  V30 3800 H 348.967 -4.30628 -0.523628 0
M  V30 3801 H 349.638 -5.18154 -1.90318 0
M  V30 3802 H 352.114 -3.34248 -2.47826 0
M  V30 3803 H 350.99 -4.13027 -3.61524 0
M  V30 3804 H 351.251 -2.3961 -3.71536 0
M  V30 3805 N 350.31 0.590341 -1.46126 0
M  V30 3806 C 351.257 1.69994 -1.56111 0
M  V30 3807 C 352.227 1.61065 -0.405867 0
M  V30 3808 O 353.412 1.8039 -0.621613 0
M  V30 3809 C 350.552 3.08326 -1.55013 0
M  V30 3810 C 349.665 3.27936 -2.81215 0
M  V30 3811 C 348.8 4.56473 -2.71673 0
M  V30 3812 C 347.839 4.694 -3.92849 0
M  V30 3813 N 346.976 5.89254 -3.81738 0
M  V30 3814 H 351.816 1.60797 -2.50895 0
M  V30 3815 H 349.353 0.783799 -1.24479 0
M  V30 3816 H 351.311 3.88383 -1.52362 0
M  V30 3817 H 349.941 3.16439 -0.637667 0
M  V30 3818 H 348.993 2.41536 -2.93879 0
M  V30 3819 H 350.305 3.33357 -3.71045 0
M  V30 3820 H 349.459 5.44748 -2.67085 0
M  V30 3821 H 348.198 4.53477 -1.7947 0
M  V30 3822 H 347.203 3.79544 -3.97777 0
M  V30 3823 H 348.428 4.7418 -4.86138 0
M  V30 3824 H 346.374 5.87271 -2.92317 0
M  V30 3825 H 346.291 5.95911 -4.65217 0
M  V30 3826 H 347.559 6.79981 -3.81112 0
M  V30 3827 N 351.788 1.33704 0.83433 0
M  V30 3828 C 352.698 1.26382 1.97648 0
M  V30 3829 C 353.714 0.173548 1.73132 0
M  V30 3830 O 354.89 0.397962 1.97429 0
M  V30 3831 C 351.955 1.00769 3.31733 0
M  V30 3832 C 351.016 2.1884 3.69334 0
M  V30 3833 C 350.249 1.9444 4.9702 0
M  V30 3834 O 350.472 0.896961 5.63303 0
M  V30 3835 O 349.406 2.81093 5.32231 0
M  V30 3836 H 353.232 2.22444 2.06767 0
M  V30 3837 H 350.817 1.13795 0.968037 0
M  V30 3838 H 352.699 0.882186 4.12062 0
M  V30 3839 H 351.374 0.0773783 3.23608 0
M  V30 3840 H 350.281 2.36946 2.89495 0
M  V30 3841 H 351.614 3.10221 3.82131 0
M  V30 3842 N 353.266 -1.05314 1.17247 0
M  V30 3843 C 354.491 -1.82509 0.985148 0
M  V30 3844 C 354.916 -1.82343 -0.461788 0
M  V30 3845 O 354.274 -1.23151 -1.33055 0
M  V30 3846 C 354.322 -3.26566 1.52929 0
M  V30 3847 O 353.426 -4.05666 0.742225 0
M  V30 3848 H 352.767 -0.564347 0.349869 0
M  V30 3849 H 355.297 -1.32718 1.55715 0
M  V30 3850 H 355.307 -3.77369 1.55103 0
M  V30 3851 H 353.982 -3.26001 2.58256 0
M  V30 3852 H 352.559 -3.64397 0.791794 0
M  V30 3853 N 354.744 -0.972509 -1.24016 0
M  V30 3854 C 356.16 -0.679827 -1.44397 0
M  V30 3855 C 356.36 0.756716 -1.86751 0
M  V30 3856 O 355.416 1.53007 -2.00861 0
M  V30 3857 C 356.729 -1.66803 -2.50195 0
M  V30 3858 C 358.277 -1.68119 -2.64017 0
M  V30 3859 C 358.752 -2.65748 -3.73017 0
M  V30 3860 N 360.243 -2.64219 -3.8045 0
M  V30 3861 C 360.978 -3.36433 -4.64328 0
M  V30 3862 N 360.474 -4.1818 -5.52356 0
M  V30 3863 N 362.267 -3.25235 -4.58453 0
M  V30 3864 H 354.418 -1.90059 -0.948228 0
M  V30 3865 H 356.681 -0.818527 -0.478245 0
M  V30 3866 H 356.387 -2.69498 -2.25973 0
M  V30 3867 H 356.261 -1.4446 -3.48441 0
M  V30 3868 H 358.648 -0.661319 -2.87594 0
M  V30 3869 H 358.729 -1.94525 -1.66113 0
M  V30 3870 H 358.373 -3.67872 -3.50189 0
M  V30 3871 H 358.303 -2.36619 -4.70446 0
M  V30 3872 H 360.794 -2.04887 -3.17537 0
M  V30 3873 H 361.107 -4.70157 -6.13329 0
M  V30 3874 H 359.452 -4.22273 -5.52006 0
M  V30 3875 H 362.643 -2.60829 -3.88698 0
M  V30 3876 H 362.816 -3.81776 -5.23594 0
M  V30 3877 N 356.222 1.38976 -0.743202 0
M  V30 3878 C 357.132 2.3434 -0.110399 0
M  V30 3879 C 358.148 1.58741 0.712559 0
M  V30 3880 O 359.324 1.9099 0.639125 0
M  V30 3881 C 356.389 3.37812 0.780012 0
M  V30 3882 C 355.45 4.29263 -0.0561319 0
M  V30 3883 C 354.683 5.27793 0.791875 0
M  V30 3884 O 354.906 5.33043 2.03031 0
M  V30 3885 O 353.84 6.01512 0.216183 0
M  V30 3886 H 357.666 2.90129 -0.897714 0
M  V30 3887 H 355.251 1.40643 -0.503966 0
M  V30 3888 H 357.133 4.01194 1.28923 0
M  V30 3889 H 355.808 2.84395 1.546 0
M  V30 3890 H 354.715 3.69076 -0.611056 0
M  V30 3891 H 356.048 4.85907 -0.784531 0
M  V30 3892 N 357.7 0.491464 1.49741 0
M  V30 3893 C 358.61 -0.296835 2.32715 0
M  V30 3894 C 359.626 -0.976536 1.44013 0
M  V30 3895 O 360.802 -0.960023 1.77047 0
M  V30 3896 C 357.867 -1.35288 3.19215 0
M  V30 3897 C 356.928 -0.687632 4.23757 0
M  V30 3898 C 356.161 -1.69336 5.06123 0
M  V30 3899 O 356.384 -2.92219 4.89861 0
M  V30 3900 O 355.318 -1.25394 5.88693 0
M  V30 3901 H 359.144 0.382048 3.01287 0
M  V30 3902 H 356.729 0.252953 1.47243 0
M  V30 3903 H 358.611 -1.96411 3.72828 0
M  V30 3904 H 357.286 -2.01487 2.53347 0
M  V30 3905 H 356.193 -0.0369159 3.74082 0
M  V30 3906 H 357.526 -0.0682566 4.92153 0
M  V30 3907 N 359.178 -1.55987 0.224894 0
M  V30 3908 C 360.589 -1.84553 -0.282345 0
M  V30 3909 C 360.94 -1.14634 -1.59227 0
M  V30 3910 O 360.065 -0.417155 -2.12341 0
M  V30 3911 C 360.66 -3.348 -0.519062 0
M  V30 3912 C 359.219 -3.63671 -0.970604 0
M  V30 3913 C 358.366 -2.77277 -0.0355261 0
M  V30 3914 H 361.317 -1.52245 0.448006 0
M  V30 3915 H 361.338 -3.55187 -1.36463 0
M  V30 3916 H 360.85 -3.8566 0.43449 0
M  V30 3917 H 358.951 -3.1827 -1.9374 0
M  V30 3918 H 359.064 -4.71631 -0.842698 0
M  V30 3919 H 357.428 -2.48846 -0.542927 0
M  V30 3920 H 358.211 -3.30937 0.913003 0
M  V30 3921 N 360.656 0.0484629 -1.57525 0
M  V30 3922 C 361.905 0.742065 -1.87553 0
M  V30 3923 C 362.218 1.77545 -0.820802 0
M  V30 3924 O 363.424 2.52027 -1.00967 0
M  V30 3925 C 361.88 1.37081 -3.32771 0
M  V30 3926 C 361.488 0.374786 -4.4643 0
M  V30 3927 C 363.232 2.04542 -3.71972 0
M  V30 3928 C 361.139 1.01077 -5.82698 0
M  V30 3929 H 360.069 0.280903 -0.699721 0
M  V30 3930 H 362.72 -0.00411877 -1.835 0
M  V30 3931 H 361.102 2.16605 -3.31509 0
M  V30 3932 H 362.276 -0.392331 -4.59127 0
M  V30 3933 H 360.591 -0.196653 -4.15935 0
M  V30 3934 H 363.188 2.52943 -4.71088 0
M  V30 3935 H 363.531 2.85515 -3.02964 0
M  V30 3936 H 364.064 1.31819 -3.75325 0
M  V30 3937 H 360.803 0.240878 -6.55057 0
M  V30 3938 H 360.323 1.74819 -5.73758 0
M  V30 3939 H 362.002 1.52383 -6.28799 0
M  V30 3940 N 362.134 1.5431 0.320358 0
M  V30 3941 C 363.38 1.73859 1.05568 0
M  V30 3942 C 363.735 0.507807 1.85578 0
M  V30 3943 O 363.028 -0.499789 1.84967 0
M  V30 3944 C 363.222 2.95639 2.00828 0
M  V30 3945 C 363.051 4.30444 1.30186 0
M  V30 3946 C 361.821 4.94544 1.03703 0
M  V30 3947 C 364.019 5.0929 0.716138 0
M  V30 3948 N 362.001 6.13172 0.298846 0
M  V30 3949 C 363.372 6.19903 0.109729 0
M  V30 3950 C 365.427 4.94034 0.619269 0
M  V30 3951 C 364.13 7.16924 -0.584153 0
M  V30 3952 C 366.156 5.91369 -0.0609184 0
M  V30 3953 C 365.518 7.01336 -0.656258 0
M  V30 3954 H 361.617 0.688988 0.36989 0
M  V30 3955 H 364.201 1.9177 0.336494 0
M  V30 3956 H 362.372 2.79188 2.70016 0
M  V30 3957 H 364.104 3.03802 2.6737 0
M  V30 3958 H 360.859 4.54536 1.33019 0
M  V30 3959 H 361.283 6.76977 -0.0561964 0
M  V30 3960 H 365.925 4.0916 1.06526 0
M  V30 3961 H 363.643 8.01354 -1.04197 0
M  V30 3962 H 367.229 5.81642 -0.135552 0
M  V30 3963 H 366.109 7.75359 -1.17423 0
M  V30 3964 N 363.613 -0.582584 1.46437 0
M  V30 3965 C 364.543 -1.70187 1.59871 0
M  V30 3966 C 365.524 -1.64066 0.449042 0
M  V30 3967 O 366.709 -1.82081 0.6753 0
M  V30 3968 C 363.839 -3.08827 1.58881 0
M  V30 3969 C 362.793 -3.29779 2.72819 0
M  V30 3970 C 362.119 -4.68947 2.5689 0
M  V30 3971 C 363.419 -3.17601 4.1464 0
M  V30 3972 H 365.113 -1.592 2.53566 0
M  V30 3973 H 362.659 -0.764472 1.22032 0
M  V30 3974 H 364.612 -3.86951 1.66873 0
M  V30 3975 H 363.336 -3.20713 0.617306 0
M  V30 3976 H 361.995 -2.54054 2.64296 0
M  V30 3977 H 361.643 -4.77599 1.57823 0
M  V30 3978 H 361.343 -4.83919 3.33312 0
M  V30 3979 H 362.867 -5.4924 2.66773 0
M  V30 3980 H 364.281 -3.8557 4.24274 0
M  V30 3981 H 362.678 -3.44094 4.9165 0
M  V30 3982 H 363.748 -2.14681 4.34788 0
M  V30 3983 N 365.091 -1.34144 -0.827227 0
M  V30 3984 C 366.054 -1.25264 -1.91942 0
M  V30 3985 C 367.054 -0.168866 -1.59911 0
M  V30 3986 O 368.244 -0.421198 -1.69031 0
M  V30 3987 C 365.376 -0.932952 -3.27885 0
M  V30 3988 H 366.569 -2.22357 -2.0124 0
M  V30 3989 H 364.122 -1.1837 -1.0207 0
M  V30 3990 H 364.857 0.0349917 -3.24281 0
M  V30 3991 H 364.642 -1.71682 -3.52516 0
M  V30 3992 H 366.132 -0.895874 -4.07877 0
M  V30 3993 N 366.569 1.04691 -1.17803 0
M  V30 3994 C 367.98 1.59238 -0.974689 0
M  V30 3995 C 368.331 1.90306 0.477292 0
M  V30 3996 O 367.456 1.68846 1.35352 0
M  V30 3997 C 368.051 2.89318 -1.76296 0
M  V30 3998 C 366.61 3.40506 -1.60414 0
M  V30 3999 C 365.757 2.14172 -1.76141 0
M  V30 4000 H 368.708 0.874395 -1.32439 0
M  V30 4001 H 368.729 3.5944 -1.24833 0
M  V30 4002 H 368.241 2.66675 -2.81968 0
M  V30 4003 H 366.342 3.68175 -0.572519 0
M  V30 4004 H 366.455 4.14753 -2.39827 0
M  V30 4005 H 364.819 2.25176 -1.19028 0
M  V30 4006 H 365.602 1.93992 -2.83235 0
M  V30 4007 N 368.047 0.979072 1.23499 0
M  V30 4008 C 369.463 0.687475 1.44034 0
M  V30 4009 C 369.663 -0.746801 1.8715 0
M  V30 4010 O 368.719 -1.51939 2.0167 0
M  V30 4011 C 370.032 1.68127 2.49307 0
M  V30 4012 C 371.58 1.69516 2.63122 0
M  V30 4013 C 372.055 2.67723 3.71603 0
M  V30 4014 N 373.546 2.66233 3.79044 0
M  V30 4015 C 374.281 3.38891 4.62537 0
M  V30 4016 N 373.777 4.21103 5.50131 0
M  V30 4017 N 375.57 3.27661 4.56721 0
M  V30 4018 H 367.721 1.90559 0.938135 0
M  V30 4019 H 369.984 0.821051 0.473897 0
M  V30 4020 H 369.69 2.70693 2.2454 0
M  V30 4021 H 369.564 1.46306 3.4767 0
M  V30 4022 H 371.951 0.676561 2.8724 0
M  V30 4023 H 372.032 1.95404 1.65079 0
M  V30 4024 H 371.676 3.69724 3.48233 0
M  V30 4025 H 371.606 2.39111 4.69184 0
M  V30 4026 H 374.097 2.06568 3.16446 0
M  V30 4027 H 374.41 4.73403 6.10827 0
M  V30 4028 H 372.755 4.25195 5.49759 0
M  V30 4029 H 375.946 2.62887 3.87309 0
M  V30 4030 H 376.119 3.84547 5.21562 0
M  V30 4031 N 369.525 -1.3858 0.750561 0
M  V30 4032 C 370.457 -2.29057 0.0810714 0
M  V30 4033 C 371.47 -1.47596 -0.686973 0
M  V30 4034 O 372.659 -1.70495 -0.528563 0
M  V30 4035 C 369.759 -3.26475 -0.909247 0
M  V30 4036 C 368.932 -4.36945 -0.199478 0
M  V30 4037 C 367.991 -5.14572 -1.10011 0
M  V30 4038 O 367.017 -5.66321 -0.57177 0
M  V30 4039 N 368.219 -5.27262 -2.42849 0
M  V30 4040 H 370.984 -2.87153 0.858087 0
M  V30 4041 H 368.545 -1.50328 0.60109 0
M  V30 4042 H 370.537 -3.75285 -1.51471 0
M  V30 4043 H 369.107 -2.69298 -1.58736 0
M  V30 4044 H 368.327 -3.8981 0.586664 0
M  V30 4045 H 369.615 -5.07963 0.291783 0
M  V30 4046 H 369.013 -4.86763 -2.88233 0
M  V30 4047 H 367.57 -5.79456 -2.98453 0
M  V30 4048 N 371.003 -0.499398 -1.49478 0
M  V30 4049 C 371.936 0.326491 -2.25852 0
M  V30 4050 C 372.914 0.971776 -1.30366 0
M  V30 4051 O 374.098 1.00219 -1.59651 0
M  V30 4052 C 371.225 1.45969 -3.05632 0
M  V30 4053 C 370.271 0.928938 -4.16261 0
M  V30 4054 S 371.104 -0.179012 -5.35201 0
M  V30 4055 C 372.26 0.957389 -6.18534 0
M  V30 4056 H 372.493 -0.321746 -2.95554 0
M  V30 4057 H 370.026 -0.284674 -1.51753 0
M  V30 4058 H 371.984 2.109 -3.52181 0
M  V30 4059 H 370.645 2.07953 -2.35402 0
M  V30 4060 H 369.838 1.77813 -4.71592 0
M  V30 4061 H 369.44 0.356869 -3.72293 0
M  V30 4062 H 371.732 1.86296 -6.51383 0
M  V30 4063 H 372.675 0.442733 -7.06715 0
M  V30 4064 H 373.083 1.224 -5.5107 0
M  V30 4065 N 372.481 1.55866 -0.233164 0
M  V30 4066 C 373.892 1.847 0.272554 0
M  V30 4067 C 374.243 1.15477 1.58617 0
M  V30 4068 O 373.368 0.42841 2.12117 0
M  V30 4069 C 373.963 3.35071 0.501299 0
M  V30 4070 C 372.522 3.6418 0.951304 0
M  V30 4071 C 371.669 2.77292 0.0208209 0
M  V30 4072 H 374.62 1.52005 -0.456074 0
M  V30 4073 H 374.641 3.55906 1.34577 0
M  V30 4074 H 374.153 3.85424 -0.454936 0
M  V30 4075 H 372.254 3.19293 1.92049 0
M  V30 4076 H 372.367 4.72071 0.817675 0
M  V30 4077 H 370.731 2.49131 0.529723 0
M  V30 4078 H 371.514 3.30448 -0.93054 0
M  V30 4079 N 373.959 -0.0401083 1.57549 0
M  V30 4080 C 374.891 -1.07149 2.02612 0
M  V30 4081 C 375.904 -1.33126 0.937085 0
M  V30 4082 O 377.093 -1.30808 1.21456 0
M  V30 4083 C 374.193 -2.41561 2.37701 0
M  V30 4084 C 373.366 -2.35096 3.68848 0
M  V30 4085 C 372.425 -3.51867 3.91249 0
M  V30 4086 O 371.451 -3.3186 4.62447 0
M  V30 4087 N 372.653 -4.73351 3.36035 0
M  V30 4088 H 375.418 -0.687485 2.91708 0
M  V30 4089 H 372.979 -0.228248 1.60283 0
M  V30 4090 H 374.971 -3.18379 2.49833 0
M  V30 4091 H 373.541 -2.71846 1.54332 0
M  V30 4092 H 372.761 -1.4345 3.67173 0
M  V30 4093 H 374.049 -2.27908 4.54901 0
M  V30 4094 H 373.447 -4.92507 2.78304 0
M  V30 4095 H 372.004 -5.47572 3.53565 0
M  V30 4096 N 375.437 -1.54477 -0.31217 0
M  V30 4097 C 376.367 -1.87652 -1.38957 0
M  V30 4098 C 377.348 -0.734358 -1.53431 0
M  V30 4099 O 378.533 -0.98911 -1.67123 0
M  V30 4100 C 375.663 -2.11396 -2.75552 0
M  V30 4101 C 374.617 -3.27243 -2.75855 0
M  V30 4102 C 373.943 -3.36382 -4.15633 0
M  V30 4103 C 375.243 -4.64622 -2.38587 0
M  V30 4104 H 376.937 -2.77887 -1.11442 0
M  V30 4105 H 374.483 -1.33707 -0.534655 0
M  V30 4106 H 376.436 -2.33189 -3.51 0
M  V30 4107 H 375.16 -1.17921 -3.04569 0
M  V30 4108 H 373.819 -3.05356 -2.02863 0
M  V30 4109 H 373.467 -2.40445 -4.41809 0
M  V30 4110 H 373.167 -4.14249 -4.1674 0
M  V30 4111 H 374.691 -3.60422 -4.92877 0
M  V30 4112 H 376.105 -4.86219 -3.03749 0
M  V30 4113 H 374.502 -5.45121 -2.50925 0
M  V30 4114 H 375.572 -4.66097 -1.33723 0
M  V30 4115 N 376.915 0.57481 -1.46744 0
M  V30 4116 C 377.878 1.66533 -1.57478 0
M  V30 4117 C 378.878 1.54338 -0.451263 0
M  V30 4118 O 380.068 1.58814 -0.715813 0
M  V30 4119 C 377.2 3.05999 -1.50259 0
M  V30 4120 H 378.393 1.58372 -2.54673 0
M  V30 4121 H 375.946 0.793301 -1.34672 0
M  V30 4122 H 376.681 3.19709 -0.543725 0
M  V30 4123 H 376.466 3.16259 -2.31781 0
M  V30 4124 H 377.956 3.8537 -1.60872 0
M  V30 4125 N 378.394 1.34581 0.820102 0
M  V30 4126 C 379.805 1.24298 1.39309 0
M  V30 4127 C 380.156 -0.130351 1.95767 0
M  V30 4128 O 379.281 -1.0308 1.90272 0
M  V30 4129 C 379.876 2.25054 2.53251 0
M  V30 4130 C 378.435 2.18552 3.0645 0
M  V30 4131 C 377.582 2.11503 1.79337 0
M  V30 4132 H 380.533 1.45906 0.624262 0
M  V30 4133 H 380.554 1.86917 3.31425 0
M  V30 4134 H 380.066 3.24996 2.1213 0
M  V30 4135 H 378.167 1.21976 3.52069 0
M  V30 4136 H 378.28 3.0993 3.65349 0
M  V30 4137 H 376.644 1.57268 2.00347 0
M  V30 4138 H 377.427 3.13284 1.40386 0
M  V30 4139 N 379.872 -1.04064 1.18357 0
M  V30 4140 C 380.802 -2.14001 0.934113 0
M  V30 4141 C 381.783 -1.69616 -0.128186 0
M  V30 4142 O 382.968 -1.94185 0.0244093 0
M  V30 4143 C 380.098 -3.44253 0.459066 0
M  V30 4144 C 379.052 -4.02261 1.46185 0
M  V30 4145 C 378.378 -5.27992 0.844322 0
M  V30 4146 C 379.678 -4.38432 2.83856 0
M  V30 4147 H 381.372 -2.35127 1.85352 0
M  V30 4148 H 378.918 -1.12998 0.892604 0
M  V30 4149 H 380.871 -4.20522 0.271907 0
M  V30 4150 H 379.595 -3.22813 -0.495912 0
M  V30 4151 H 378.254 -3.28074 1.63595 0
M  V30 4152 H 377.902 -5.02862 -0.117845 0
M  V30 4153 H 377.602 -5.67765 1.51384 0
M  V30 4154 H 379.126 -6.06938 0.667693 0
M  V30 4155 H 380.54 -5.05688 2.70098 0
M  V30 4156 H 378.937 -4.89254 3.47491 0
M  V30 4157 H 380.007 -3.4826 3.37406 0
M  V30 4158 N 381.35 -0.985608 -1.22978 0
M  V30 4159 C 382.597 -0.657386 -1.91532 0
M  V30 4160 C 382.925 0.809707 -1.76845 0
M  V30 4161 O 382.18 1.60021 -1.12658 0
M  V30 4162 C 382.479 -1.00014 -3.43121 0
M  V30 4163 C 382.145 -2.4583 -3.77993 0
M  V30 4164 C 380.807 -2.85679 -3.87222 0
M  V30 4165 C 383.159 -3.40378 -3.94705 0
M  V30 4166 C 380.487 -4.19081 -4.10595 0
M  V30 4167 C 382.839 -4.73429 -4.1958 0
M  V30 4168 C 381.503 -5.1303 -4.27032 0
M  V30 4169 H 380.773 -0.240555 -0.700867 0
M  V30 4170 H 383.42 -1.24044 -1.45895 0
M  V30 4171 H 381.725 -0.335072 -3.90365 0
M  V30 4172 H 383.422 -0.724322 -3.94404 0
M  V30 4173 H 380.012 -2.13939 -3.71387 0
M  V30 4174 H 384.196 -3.10766 -3.8696 0
M  V30 4175 H 379.452 -4.49362 -4.14589 0
M  V30 4176 H 383.626 -5.46644 -4.31455 0
M  V30 4177 H 381.253 -6.16418 -4.44896 0
M  V30 4178 N 382.828 1.3818 -0.7579 0
M  V30 4179 C 384.053 2.04827 -0.325679 0
M  V30 4180 C 384.478 1.56788 1.03919 0
M  V30 4181 O 383.836 0.721811 1.66312 0
M  V30 4182 C 383.884 3.58774 -0.362447 0
M  V30 4183 O 382.988 4.07372 0.642033 0
M  V30 4184 H 382.329 0.64833 -0.143402 0
M  V30 4185 H 384.859 1.7677 -1.03023 0
M  V30 4186 H 384.869 4.07434 -0.214844 0
M  V30 4187 H 383.544 3.93096 -1.35824 0
M  V30 4188 H 382.121 3.70068 0.458688 0
M  V30 4189 N 384.306 0.507319 1.49211 0
M  V30 4190 C 385.722 0.163682 1.58758 0
M  V30 4191 C 385.922 -1.33208 1.51188 0
M  V30 4192 O 384.978 -2.10855 1.38911 0
M  V30 4193 C 386.291 0.746095 2.91297 0
M  V30 4194 C 387.839 0.712773 3.04776 0
M  V30 4195 C 388.314 1.27336 4.39943 0
M  V30 4196 N 389.805 1.23433 4.46451 0
M  V30 4197 C 390.54 1.63821 5.495 0
M  V30 4198 N 390.036 2.11832 6.5962 0
M  V30 4199 N 391.829 1.55198 5.4025 0
M  V30 4200 H 383.98 1.47972 1.52375 0
M  V30 4201 H 386.243 0.614147 0.722168 0
M  V30 4202 H 385.949 1.79534 3.02424 0
M  V30 4203 H 385.823 0.210137 3.76614 0
M  V30 4204 H 388.21 -0.327656 2.93275 0
M  V30 4205 H 388.291 1.28595 2.21127 0
M  V30 4206 H 387.935 2.3126 4.52196 0
M  V30 4207 H 387.865 0.676066 5.22242 0
M  V30 4208 H 390.356 0.882627 3.67448 0
M  V30 4209 H 390.669 2.40703 7.34358 0
M  V30 4210 H 389.014 2.1581 6.60644 0
M  V30 4211 H 392.205 1.17505 4.53112 0
M  V30 4212 H 392.378 1.86997 6.20432 0
M  V30 4213 N 385.784 -1.5574 0.241426 0
M  V30 4214 C 386.717 -2.17168 -0.700935 0
M  V30 4215 C 387.695 -1.12206 -1.1768 0
M  V30 4216 O 388.879 -1.40565 -1.25593 0
M  V30 4217 C 386.006 -2.76796 -1.95196 0
M  V30 4218 C 385.052 -3.94764 -1.61442 0
M  V30 4219 S 385.885 -5.30613 -0.72182 0
M  V30 4220 C 387.041 -5.93691 -1.98197 0
M  V30 4221 H 387.274 -2.96761 -0.178882 0
M  V30 4222 H 384.807 -1.54378 0.0259299 0
M  V30 4223 H 386.765 -3.11787 -2.67019 0
M  V30 4224 H 385.426 -1.9716 -2.44514 0
M  V30 4225 H 384.619 -4.35057 -2.54443 0
M  V30 4226 H 384.221 -3.61022 -0.976672 0
M  V30 4227 H 386.513 -6.10874 -2.92983 0
M  V30 4228 H 387.456 -6.89258 -1.62262 0
M  V30 4229 H 387.864 -5.22709 -2.13156 0
M  V30 4230 N 387.262 0.0317525 -1.57568 0
M  V30 4231 C 388.195 1.06621 -2.0176 0
M  V30 4232 C 389.173 1.35323 -0.901462 0
M  V30 4233 O 390.357 1.48025 -1.16708 0
M  V30 4234 C 387.484 2.40155 -2.38837 0
M  V30 4235 C 386.53 2.27327 -3.60867 0
M  V30 4236 S 387.363 1.62925 -5.10113 0
M  V30 4237 C 388.519 2.97955 -5.5043 0
M  V30 4238 H 388.752 0.689781 -2.89187 0
M  V30 4239 H 386.285 0.24164 -1.52497 0
M  V30 4240 H 388.243 3.1695 -2.6087 0
M  V30 4241 H 386.904 2.74946 -1.51867 0
M  V30 4242 H 386.097 3.25898 -3.84456 0
M  V30 4243 H 385.699 1.58675 -3.38671 0
M  V30 4244 H 387.991 3.94285 -5.5095 0
M  V30 4245 H 388.934 2.79102 -6.50775 0
M  V30 4246 H 389.342 3.00404 -4.77931 0
M  V30 4247 N 388.74 1.54641 0.303973 0
M  V30 4248 C 389.67 1.88386 1.3796 0
M  V30 4249 C 390.651 0.742485 1.5304 0
M  V30 4250 O 391.836 0.997959 1.66597 0
M  V30 4251 C 388.966 2.12854 2.74427 0
M  V30 4252 C 387.92 3.28702 2.74115 0
M  V30 4253 C 387.246 3.38582 4.13844 0
M  V30 4254 C 388.546 4.65881 2.3612 0
M  V30 4255 H 390.24 2.78474 1.09966 0
M  V30 4256 H 387.786 1.33988 0.527556 0
M  V30 4257 H 389.739 2.35047 3.49758 0
M  V30 4258 H 388.463 1.19535 3.03939 0
M  V30 4259 H 387.122 3.06428 2.0124 0
M  V30 4260 H 386.77 2.42784 4.40528 0
M  V30 4261 H 386.47 4.16453 4.14537 0
M  V30 4262 H 387.994 3.63031 4.90959 0
M  V30 4263 H 389.408 4.87823 3.01167 0
M  V30 4264 H 387.805 5.46444 2.48031 0
M  V30 4265 H 388.875 4.66799 1.3125 0
M  V30 4266 N 390.218 -0.567019 1.47046 0
M  V30 4267 C 391.466 -1.322 1.52864 0
M  V30 4268 C 391.787 -1.94088 0.188388 0
M  V30 4269 O 391.057 -1.7941 -0.786693 0
M  V30 4270 H 389.637 -0.490894 0.563056 0
M  V30 4271 H 392.299 -0.662879 1.83281 0
M  V30 4272 H 391.395 -2.12062 2.2899 0
M  V30 4273 N 391.696 -1.35014 -0.812953 0
M  V30 4274 C 392.643 -1.27412 -1.92444 0
M  V30 4275 C 393.613 -0.14733 -1.65445 0
M  V30 4276 O 394.798 -0.329974 -1.87925 0
M  V30 4277 C 391.938 -1.04558 -3.28879 0
M  V30 4278 C 391.051 -2.26101 -3.68106 0
M  V30 4279 C 390.186 -1.96449 -4.9354 0
M  V30 4280 C 389.225 -3.14081 -5.25376 0
M  V30 4281 N 388.362 -2.84246 -6.41988 0
M  V30 4282 H 393.202 -2.22463 -1.98278 0
M  V30 4283 H 390.739 -1.10593 -0.969933 0
M  V30 4284 H 392.697 -0.893413 -4.07522 0
M  V30 4285 H 391.327 -0.131719 -3.22531 0
M  V30 4286 H 390.379 -2.52204 -2.84775 0
M  V30 4287 H 391.691 -3.13959 -3.87597 0
M  V30 4288 H 390.845 -1.78026 -5.79993 0
M  V30 4289 H 389.584 -1.05867 -4.76071 0
M  V30 4290 H 388.589 -3.33089 -4.37415 0
M  V30 4291 H 389.814 -4.05455 -5.44778 0
M  V30 4292 H 387.76 -1.96252 -6.25956 0
M  V30 4293 H 387.677 -3.65637 -6.61699 0
M  V30 4294 H 388.945 -2.6935 -7.31485 0
M  V30 4295 N 393.175 1.03435 -1.18907 0
M  V30 4296 C 394.4 1.80919 -1.01406 0
M  V30 4297 C 394.825 1.83055 0.432721 0
M  V30 4298 O 394.183 1.25252 1.31079 0
M  V30 4299 C 394.231 3.24091 -1.58105 0
M  V30 4300 O 393.335 4.04434 -0.806669 0
M  V30 4301 H 392.676 0.558709 -0.358803 0
M  V30 4302 H 395.206 1.30223 -1.57807 0
M  V30 4303 H 395.216 3.74853 -1.61087 0
M  V30 4304 H 393.891 3.21851 -2.6341 0
M  V30 4305 H 392.468 3.63091 -0.849666 0
M  V30 4306 N 394.653 0.992116 1.22453 0
M  V30 4307 C 395.6 0.541731 2.24352 0
M  V30 4308 C 396.57 -0.425519 1.60557 0
M  V30 4309 O 397.755 -0.330453 1.87917 0
M  V30 4310 C 394.895 -0.138248 3.44823 0
M  V30 4311 C 394.008 0.870649 4.23136 0
M  V30 4312 C 393.143 0.164269 5.30946 0
M  V30 4313 C 392.182 1.16159 6.00977 0
M  V30 4314 N 391.319 0.483568 7.00433 0
M  V30 4315 H 396.159 1.41541 2.62241 0
M  V30 4316 H 393.696 0.709013 1.28885 0
M  V30 4317 H 395.654 -0.5494 4.13567 0
M  V30 4318 H 394.284 -0.975721 3.077 0
M  V30 4319 H 393.336 1.40013 3.53696 0
M  V30 4320 H 394.648 1.63014 4.7141 0
M  V30 4321 H 393.802 -0.303653 6.0594 0
M  V30 4322 H 392.541 -0.627733 4.83643 0
M  V30 4323 H 391.546 1.64015 5.24766 0
M  V30 4324 H 392.771 1.95445 6.50368 0
M  V30 4325 H 390.717 -0.289012 6.55363 0
M  V30 4326 H 390.634 1.18152 7.4671 0
M  V30 4327 H 391.902 0.0384219 7.79491 0
M  V30 4328 N 396.131 -1.37776 0.765217 0
M  V30 4329 C 397.356 -2.04651 0.336537 0
M  V30 4330 C 397.781 -1.57337 -1.03086 0
M  V30 4331 O 397.139 -0.730621 -1.65927 0
M  V30 4332 C 397.187 -3.58577 0.381468 0
M  V30 4333 O 396.291 -4.07706 -0.62042 0
M  V30 4334 H 395.632 -0.64756 0.146838 0
M  V30 4335 H 398.162 -1.76221 1.03959 0
M  V30 4336 H 398.172 -4.07314 0.236448 0
M  V30 4337 H 396.847 -3.9237 1.37907 0
M  V30 4338 H 395.424 -3.70306 -0.439056 0
M  V30 4339 N 397.609 -0.515225 -1.4894 0
M  V30 4340 C 398.886 0.0879088 -1.95402 0
M  V30 4341 C 399.266 1.52745 -1.45712 0
M  V30 4342 O 398.614 2.18238 -0.677093 0
M  V30 4343 C 398.824 -0.0141055 -3.48997 0
M  V30 4344 C 400.172 0.152646 -4.24326 0
M  V30 4345 O 401.196 0.0604025 -3.56149 0
M  V30 4346 O 400.055 0.34384 -5.45417 0
M  V30 4347 H 397.149 0.0874636 -0.822362 0
M  V30 4348 H 399.695 -0.578775 -1.59525 0
M  V30 4349 H 398.467 -1.01745 -3.77841 0
M  V30 4350 H 398.09 0.692091 -3.9153 0
M  V30 4351 N 399.087 1.5561 -0.249682 0
M  V30 4352 C 400.034 2.21496 0.648694 0
M  V30 4353 C 401.004 1.17977 1.16921 0
M  V30 4354 O 402.189 1.46434 1.22318 0
M  V30 4355 C 399.329 2.92039 1.83868 0
M  V30 4356 C 398.442 4.10219 1.35442 0
M  V30 4357 C 397.577 4.6847 2.50419 0
M  V30 4358 C 396.616 5.78893 1.98869 0
M  V30 4359 N 395.753 6.31315 3.07223 0
M  V30 4360 H 400.593 2.97892 0.0801582 0
M  V30 4361 H 398.13 1.47074 0.0278031 0
M  V30 4362 H 400.088 3.31138 2.53778 0
M  V30 4363 H 398.718 2.18111 2.37965 0
M  V30 4364 H 397.77 3.76413 0.54928 0
M  V30 4365 H 399.082 4.89927 0.936649 0
M  V30 4366 H 398.236 5.10158 3.28366 0
M  V30 4367 H 396.975 3.87984 2.95499 0
M  V30 4368 H 395.98 5.3668 1.19393 0
M  V30 4369 H 397.205 6.61232 1.54755 0
M  V30 4370 H 395.151 5.53733 3.51732 0
M  V30 4371 H 395.068 7.06224 2.69784 0
M  V30 4372 H 396.336 6.77662 3.8522 0
M  V30 4373 N 400.565 -0.0233959 1.57583 0
M  V30 4374 C 401.814 -0.712133 1.8871 0
M  V30 4375 C 402.127 -1.76217 0.848944 0
M  V30 4376 O 403.333 -2.50389 1.04964 0
M  V30 4377 C 401.789 -1.3177 3.3491 0
M  V30 4378 C 401.397 -0.303715 4.46969 0
M  V30 4379 C 403.141 -1.98598 3.75179 0
M  V30 4380 C 401.048 -0.917945 5.84233 0
M  V30 4381 H 399.978 -0.269735 0.704101 0
M  V30 4382 H 402.629 0.0333114 1.8347 0
M  V30 4383 H 401.011 -2.11304 3.34913 0
M  V30 4384 H 402.185 0.465325 4.58445 0
M  V30 4385 H 400.5 0.2628 4.1557 0
M  V30 4386 H 403.097 -2.45416 4.75053 0
M  V30 4387 H 403.44 -2.80659 3.07468 0
M  V30 4388 H 403.973 -1.25831 3.77374 0
M  V30 4389 H 400.712 -0.136633 6.55358 0
M  V30 4390 H 400.232 -1.65669 5.76467 0
M  V30 4391 H 401.911 -1.4236 6.31144 0
M  V30 4392 N 402.043 -1.548 -0.295768 0
M  V30 4393 C 403.271 -1.78327 -1.04914 0
M  V30 4394 C 403.686 -0.545316 -1.80753 0
M  V30 4395 O 403.043 0.485013 -1.75937 0
M  V30 4396 C 403.094 -2.99418 -2.02561 0
M  V30 4397 O 402.815 -4.18431 -1.29798 0
M  V30 4398 C 404.316 -3.35375 -2.89895 0
M  V30 4399 H 401.536 -0.594618 -0.310918 0
M  V30 4400 H 404.08 -2.01763 -0.333454 0
M  V30 4401 H 402.235 -2.78175 -2.69624 0
M  V30 4402 H 402.649 -4.86736 -1.95419 0
M  V30 4403 H 404.123 -4.23332 -3.54251 0
M  V30 4404 H 404.6 -2.53761 -3.58472 0
M  V30 4405 H 405.206 -3.58796 -2.28355 0
M  V30 4406 N 403.521 0.559213 -1.47345 0
M  V30 4407 C 404.749 1.34194 -1.57479 0
M  V30 4408 C 405.164 1.87463 -0.224261 0
M  V30 4409 O 404.521 1.64888 0.782185 0
M  V30 4410 C 404.572 2.51324 -2.59843 0
M  V30 4411 O 404.293 2.00256 -3.89653 0
M  V30 4412 C 405.794 3.43563 -2.80142 0
M  V30 4413 H 403.014 0.409136 -0.531835 0
M  V30 4414 H 405.558 0.677609 -1.92947 0
M  V30 4415 H 403.713 3.13699 -2.27314 0
M  V30 4416 H 404.127 2.76708 -4.4557 0
M  V30 4417 H 405.601 4.2217 -3.55635 0
M  V30 4418 H 406.078 3.9698 -1.87892 0
M  V30 4419 H 406.684 2.87005 -3.1386 0
M  V30 4420 N 404.999 1.35443 0.805782 0
M  V30 4421 C 406.227 1.31878 1.59423 0
M  V30 4422 C 406.642 -0.103562 1.88516 0
M  V30 4423 O 405.999 -1.05575 1.48863 0
M  V30 4424 C 406.05 2.12426 2.92502 0
M  V30 4425 O 405.771 3.49115 2.6467 0
M  V30 4426 C 407.272 2.16455 3.86862 0
M  V30 4427 H 404.492 0.453002 0.495005 0
M  V30 4428 H 407.036 1.78309 1.00131 0
M  V30 4429 H 405.191 1.69593 3.48306 0
M  V30 4430 H 405.605 3.90957 3.49647 0
M  V30 4431 H 407.079 2.77204 4.77349 0
M  V30 4432 H 407.556 1.16352 4.23508 0
M  V30 4433 H 408.162 2.59453 3.36993 0
M  V30 4434 N 406.477 -1.02803 1.19454 0
M  V30 4435 C 407.407 -2.12999 0.956758 0
M  V30 4436 C 408.388 -1.69743 -0.110188 0
M  V30 4437 O 409.573 -1.94148 0.0450038 0
M  V30 4438 C 406.703 -3.43746 0.495553 0
M  V30 4439 C 405.657 -4.00688 1.50443 0
M  V30 4440 C 404.983 -5.27067 0.900275 0
M  V30 4441 C 406.283 -4.35397 2.8849 0
M  V30 4442 H 407.977 -2.33148 1.87836 0
M  V30 4443 H 405.523 -1.12045 0.904539 0
M  V30 4444 H 407.476 -4.2021 0.316493 0
M  V30 4445 H 406.2 -3.23321 -0.461646 0
M  V30 4446 H 404.859 -3.2632 1.67065 0
M  V30 4447 H 404.507 -5.02959 -0.064503 0
M  V30 4448 H 404.207 -5.66127 1.57397 0
M  V30 4449 H 405.731 -6.06196 0.73203 0
M  V30 4450 H 407.145 -5.02795 2.75446 0
M  V30 4451 H 405.542 -4.85541 3.52661 0
M  V30 4452 H 406.612 -3.44662 3.41081 0
M  V30 4453 N 407.956 -0.998596 -1.21925 0
M  V30 4454 C 409.233 -0.593401 -1.86382 0
M  V30 4455 C 409.613 0.92916 -1.89552 0
M  V30 4456 O 408.961 1.81347 -1.39017 0
M  V30 4457 C 409.171 -1.22039 -3.26967 0
M  V30 4458 C 410.519 -1.32449 -4.03413 0
M  V30 4459 O 411.543 -1.17522 -3.36254 0
M  V30 4460 O 410.402 -1.56395 -5.23644 0
M  V30 4461 H 407.496 -0.202385 -0.801854 0
M  V30 4462 H 410.042 -1.09484 -1.29659 0
M  V30 4463 H 408.814 -2.26158 -3.19325 0
M  V30 4464 H 408.437 -0.704906 -3.91301 0
M  V30 4465 N 409.434 1.37368 -0.772513 0
M  V30 4466 C 410.397 2.28601 -0.165541 0
M  V30 4467 C 411.397 1.48062 0.627238 0
M  V30 4468 O 412.587 1.68268 0.450715 0
M  V30 4469 C 409.719 3.32023 0.772897 0
M  V30 4470 H 410.912 2.83787 -0.969787 0
M  V30 4471 H 408.465 1.46647 -0.540775 0
M  V30 4472 H 409.2 2.81962 1.60212 0
M  V30 4473 H 408.985 3.91555 0.206585 0
M  V30 4474 H 410.475 4.00197 1.19298 0
M  V30 4475 N 410.912 0.523116 1.48665 0
M  V30 4476 C 412.16 -0.0134497 2.02096 0
M  V30 4477 C 412.481 -1.35418 1.40311 0
M  V30 4478 O 411.751 -1.87543 0.566074 0
M  V30 4479 H 410.331 -0.00795915 0.746958 0
M  V30 4480 H 412.993 0.685388 1.82451 0
M  V30 4481 H 412.089 -0.126849 3.11842 0
M  V30 4482 N 412.39 -1.55475 0.257931 0
M  V30 4483 C 413.32 -2.24815 -0.630912 0
M  V30 4484 C 414.301 -1.23224 -1.17259 0
M  V30 4485 O 415.486 -1.51904 -1.20991 0
M  V30 4486 C 412.616 -2.95609 -1.82298 0
M  V30 4487 C 411.57 -4.03982 -1.41359 0
M  V30 4488 C 410.896 -4.6226 -2.68738 0
M  V30 4489 C 412.196 -5.19109 -0.57648 0
M  V30 4490 H 413.89 -2.99354 -0.0526878 0
M  V30 4491 H 411.436 -1.4398 -0.023901 0
M  V30 4492 H 413.389 -3.42822 -2.45054 0
M  V30 4493 H 412.113 -2.18577 -2.42676 0
M  V30 4494 H 410.772 -3.57555 -0.809324 0
M  V30 4495 H 410.42 -3.81915 -3.27338 0
M  V30 4496 H 410.12 -5.35424 -2.42065 0
M  V30 4497 H 411.644 -5.12212 -3.32372 0
M  V30 4498 H 413.058 -5.62479 -1.10861 0
M  V30 4499 H 411.455 -5.98729 -0.405351 0
M  V30 4500 H 412.525 -4.83174 0.408776 0
M  V30 4501 N 413.868 0.0150385 -1.57593 0
M  V30 4502 C 414.8 1.03912 -2.04291 0
M  V30 4503 C 415.813 1.31618 -0.958146 0
M  V30 4504 O 417.002 1.28859 -1.23522 0
M  V30 4505 C 414.102 2.37749 -2.41514 0
M  V30 4506 C 413.275 2.29198 -3.72541 0
M  V30 4507 C 412.334 3.45598 -3.96797 0
M  V30 4508 O 411.36 3.24461 -4.67668 0
M  V30 4509 N 412.562 4.67945 -3.43523 0
M  V30 4510 H 415.327 0.64099 -2.92765 0
M  V30 4511 H 412.888 0.20272 -1.60626 0
M  V30 4512 H 414.88 3.14364 -2.54867 0
M  V30 4513 H 413.45 2.69357 -1.58637 0
M  V30 4514 H 412.67 1.3759 -3.69408 0
M  V30 4515 H 413.958 2.20642 -4.5847 0
M  V30 4516 H 413.356 4.88017 -2.86104 0
M  V30 4517 H 411.913 5.41878 -3.62232 0
M  V30 4518 N 415.346 1.54954 0.287554 0
M  V30 4519 C 416.762 1.46469 0.633964 0
M  V30 4520 C 416.962 0.666865 1.90145 0
M  V30 4521 O 416.018 0.179906 2.51858 0
M  V30 4522 C 417.331 2.90556 0.774454 0
M  V30 4523 C 418.879 3.00681 0.869462 0
M  V30 4524 C 419.354 4.45993 1.04184 0
M  V30 4525 N 420.845 4.4976 1.10772 0
M  V30 4526 C 421.58 5.59393 1.25964 0
M  V30 4527 N 421.076 6.78923 1.37968 0
M  V30 4528 N 422.869 5.47107 1.28959 0
M  V30 4529 H 415.02 2.05288 -0.545041 0
M  V30 4530 H 417.283 0.930305 -0.182308 0
M  V30 4531 H 416.989 3.51594 -0.086207 0
M  V30 4532 H 416.863 3.38743 1.6593 0
M  V30 4533 H 419.25 2.39749 1.7206 0
M  V30 4534 H 419.331 2.55769 -0.0396831 0
M  V30 4535 H 418.975 5.07524 0.195422 0
M  V30 4536 H 418.905 4.88548 1.96542 0
M  V30 4537 H 421.396 3.63651 1.02794 0
M  V30 4538 H 421.709 7.58231 1.49353 0
M  V30 4539 H 420.054 6.81763 1.34999 0
M  V30 4540 H 423.245 4.52668 1.19202 0
M  V30 4541 H 423.418 6.32595 1.40455 0
M  V30 4542 N 416.824 -0.551391 1.4764 0
M  V30 4543 C 418.24 -0.877887 1.33287 0
M  V30 4544 C 418.44 -1.98817 0.327721 0
M  V30 4545 O 417.496 -2.51171 -0.258695 0
M  V30 4546 C 418.809 -1.26563 2.72768 0
M  V30 4547 C 420.357 -1.37673 2.81097 0
M  V30 4548 C 420.832 -1.79799 4.21232 0
M  V30 4549 N 422.323 -1.8694 4.23802 0
M  V30 4550 C 423.058 -2.20876 5.29151 0
M  V30 4551 N 422.554 -2.53386 6.448 0
M  V30 4552 N 424.347 -2.217 5.16532 0
M  V30 4553 H 416.498 0.18153 2.11623 0
M  V30 4554 H 418.761 0.0185514 0.947818 0
M  V30 4555 H 418.467 -0.523591 3.47781 0
M  V30 4556 H 418.341 -2.22052 3.04915 0
M  V30 4557 H 420.728 -2.10956 2.06353 0
M  V30 4558 H 420.809 -0.40357 2.52596 0
M  V30 4559 H 420.453 -1.07083 4.96483 0
M  V30 4560 H 420.383 -2.78128 4.4716 0
M  V30 4561 H 422.874 -1.64179 3.40373 0
M  V30 4562 H 423.187 -2.78325 7.20941 0
M  V30 4563 H 421.532 -2.50953 6.48111 0
M  V30 4564 H 424.723 -1.95745 4.25207 0
M  V30 4565 H 424.896 -2.47818 5.98741 0
M  V30 4566 N 418.302 -1.35869 -0.798587 0
M  V30 4567 C 419.232 -1.32118 -1.92528 0
M  V30 4568 C 420.213 -0.194209 -1.68988 0
M  V30 4569 O 421.398 -0.390426 -1.90235 0
M  V30 4570 C 418.528 -1.10047 -3.29404 0
M  V30 4571 C 417.482 -2.19471 -3.67446 0
M  V30 4572 C 416.808 -1.82555 -5.02571 0
M  V30 4573 C 418.108 -3.61495 -3.76987 0
M  V30 4574 H 419.802 -2.26394 -1.95924 0
M  V30 4575 H 417.348 -1.08981 -0.94123 0
M  V30 4576 H 419.301 -1.06061 -4.07835 0
M  V30 4577 H 418.025 -0.122195 -3.26371 0
M  V30 4578 H 416.684 -2.22568 -2.91306 0
M  V30 4579 H 416.332 -0.833249 -4.9605 0
M  V30 4580 H 416.032 -2.5581 -5.28995 0
M  V30 4581 H 417.556 -1.80108 -5.83432 0
M  V30 4582 H 418.97 -3.60676 -4.4563 0
M  V30 4583 H 417.367 -4.33577 -4.14887 0
M  V30 4584 H 418.437 -3.97065 -2.78329 0
M  V30 4585 N 419.78 1.02168 -1.19998 0
M  V30 4586 C 420.69 2.14069 -0.959774 0
M  V30 4587 C 421.706 1.73804 0.082655 0
M  V30 4588 O 422.882 2.01133 -0.103633 0
M  V30 4589 C 419.947 3.42936 -0.509459 0
M  V30 4590 C 419.008 3.97474 -1.62213 0
M  V30 4591 C 418.241 5.2019 -1.19321 0
M  V30 4592 O 418.464 5.70369 -0.0597726 0
M  V30 4593 O 417.398 5.67749 -1.99863 0
M  V30 4594 H 421.224 2.37199 -1.89658 0
M  V30 4595 H 418.809 1.12469 -0.983411 0
M  V30 4596 H 420.691 4.20551 -0.267322 0
M  V30 4597 H 419.366 3.21234 0.398821 0
M  V30 4598 H 418.273 3.21161 -1.9185 0
M  V30 4599 H 419.606 4.23555 -2.50723 0
M  V30 4600 N 421.258 1.00505 1.21394 0
M  V30 4601 C 422.168 0.574806 2.27449 0
M  V30 4602 C 423.184 -0.382206 1.6975 0
M  V30 4603 O 424.36 -0.246027 1.99892 0
M  V30 4604 C 421.425 -0.0917414 3.46579 0
M  V30 4605 C 420.486 0.909758 4.1955 0
M  V30 4606 C 419.719 0.274924 5.32991 0
M  V30 4607 O 419.942 -0.928254 5.62796 0
M  V30 4608 O 418.876 0.985877 5.93771 0
M  V30 4609 H 422.702 1.45744 2.66444 0
M  V30 4610 H 420.287 0.773923 1.27792 0
M  V30 4611 H 422.169 -0.464551 4.18832 0
M  V30 4612 H 420.844 -0.948755 3.09484 0
M  V30 4613 H 419.751 1.33372 3.49518 0
M  V30 4614 H 421.084 1.73636 4.60555 0
M  V30 4615 N 422.737 -1.36956 0.779787 0
M  V30 4616 C 423.667 -2.32761 0.185651 0
M  V30 4617 C 424.648 -1.56177 -0.673989 0
M  V30 4618 O 425.833 -1.84378 -0.609797 0
M  V30 4619 C 422.963 -3.40418 -0.687964 0
M  V30 4620 C 421.917 -4.27941 0.0710102 0
M  V30 4621 C 421.243 -5.26681 -0.922573 0
M  V30 4622 C 422.543 -5.07006 1.25467 0
M  V30 4623 H 424.237 -2.82698 0.986008 0
M  V30 4624 H 421.783 -1.3592 0.475592 0
M  V30 4625 H 423.736 -4.06423 -1.11348 0
M  V30 4626 H 422.46 -2.89025 -1.52093 0
M  V30 4627 H 421.119 -3.63478 0.47739 0
M  V30 4628 H 420.767 -4.71565 -1.7503 0
M  V30 4629 H 420.467 -5.86103 -0.419237 0
M  V30 4630 H 421.991 -5.9556 -1.34686 0
M  V30 4631 H 423.405 -5.66105 0.905401 0
M  V30 4632 H 421.802 -5.75793 1.69063 0
M  V30 4633 H 422.872 -4.3921 2.05481 0
M  V30 4634 N 424.215 -0.530993 -1.48385 0
M  V30 4635 C 425.178 0.220497 -2.28137 0
M  V30 4636 C 426.178 0.866851 -1.35434 0
M  V30 4637 O 427.368 0.726746 -1.58316 0
M  V30 4638 C 424.5 1.31921 -3.1434 0
M  V30 4639 H 425.693 -0.479714 -2.96038 0
M  V30 4640 H 423.246 -0.286968 -1.53643 0
M  V30 4641 H 423.981 2.05264 -2.51072 0
M  V30 4642 H 423.766 0.86085 -3.82533 0
M  V30 4643 H 425.256 1.84776 -3.74497 0
M  V30 4644 N 425.693 1.55336 -0.266172 0
M  V30 4645 C 426.625 2.19544 0.658247 0
M  V30 4646 C 427.638 1.17746 1.12427 0
M  V30 4647 O 428.827 1.44517 1.04772 0
M  V30 4648 C 425.927 2.80032 1.9088 0
M  V30 4649 C 425.1 4.07436 1.59106 0
M  V30 4650 C 424.159 4.52056 2.69317 0
M  V30 4651 O 423.185 5.18023 2.35883 0
M  V30 4652 N 424.387 4.21448 3.99201 0
M  V30 4653 H 427.152 2.99503 0.108754 0
M  V30 4654 H 424.713 1.61667 -0.0869059 0
M  V30 4655 H 426.705 3.06831 2.63888 0
M  V30 4656 H 425.275 2.04119 2.36758 0
M  V30 4657 H 424.495 3.88021 0.695243 0
M  V30 4658 H 425.783 4.90462 1.35367 0
M  V30 4659 H 425.181 3.68528 4.29189 0
M  V30 4660 H 423.738 4.53039 4.68614 0
M  V30 4661 N 427.171 -0.0066808 1.57599 0
M  V30 4662 C 428.119 -1.01851 2.09115 0
M  V30 4663 C 429.113 -1.36021 1.00969 0
M  V30 4664 O 430.319 -1.34663 1.19439 0
M  V30 4665 H 426.694 -0.346083 0.667631 0
M  V30 4666 H 428.665 -0.558394 2.93129 0
M  V30 4667 C 427.414 -2.30374 2.60429 0
M  V30 4668 H 426.737 -2.04947 3.43273 0
M  V30 4669 H 428.177 -2.99466 3.00161 0
M  V30 4670 C 426.636 -3.00893 1.51542 0
M  V30 4671 O 427.166 -3.91614 0.894484 0
M  V30 4672 N 425.372 -2.62603 1.2445 0
M  V30 4673 H 424.919 -1.88911 1.75129 0
M  V30 4674 H 424.877 -3.10101 0.518137 0
M  V30 4675 N 428.649 -1.55105 -0.279332 0
M  V30 4676 C 429.895 -1.76597 -1.00921 0
M  V30 4677 C 430.25 -0.556831 -1.84166 0
M  V30 4678 O 429.543 0.450573 -1.86227 0
M  V30 4679 C 429.737 -3.0086 -1.92919 0
M  V30 4680 C 429.566 -4.33744 -1.18728 0
M  V30 4681 C 428.336 -4.9712 -0.905545 0
M  V30 4682 C 430.534 -5.11009 -0.580857 0
M  V30 4683 N 428.516 -6.13749 -0.136169 0
M  V30 4684 C 429.887 -6.19976 0.0546661 0
M  V30 4685 C 431.942 -4.95502 -0.488067 0
M  V30 4686 C 430.645 -7.15123 0.774028 0
M  V30 4687 C 432.671 -5.90999 0.217688 0
M  V30 4688 C 432.033 -6.9935 0.841975 0
M  V30 4689 H 428.132 -0.698553 -0.351493 0
M  V30 4690 H 430.716 -1.92595 -0.285531 0
M  V30 4691 H 428.887 -2.86249 -2.62519 0
M  V30 4692 H 430.619 -3.10784 -2.59221 0
M  V30 4693 H 427.374 -4.57903 -1.20921 0
M  V30 4694 H 427.798 -6.7659 0.235665 0
M  V30 4695 H 432.44 -4.11841 -0.956406 0
M  V30 4696 H 430.158 -7.9831 1.25407 0
M  V30 4697 H 433.744 -5.81078 0.289717 0
M  V30 4698 H 432.624 -7.71973 1.37939 0
M  V30 4699 N 430.127 0.543554 -1.4793 0
M  V30 4700 C 431.074 1.64942 -1.6144 0
M  V30 4701 C 432.044 1.59692 -0.456903 0
M  V30 4702 O 433.229 1.78321 -0.678688 0
M  V30 4703 C 430.369 3.03238 -1.64744 0
M  V30 4704 C 429.482 3.18823 -2.91506 0
M  V30 4705 C 428.617 4.47599 -2.86057 0
M  V30 4706 C 427.656 4.56664 -4.07584 0
M  V30 4707 N 426.793 5.76811 -4.00292 0
M  V30 4708 H 431.633 1.52733 -2.55884 0
M  V30 4709 H 429.17 0.7438 -1.2691 0
M  V30 4710 H 431.128 3.83339 -1.64641 0
M  V30 4711 H 429.758 3.1425 -0.738017 0
M  V30 4712 H 428.81 2.32064 -3.01414 0
M  V30 4713 H 430.122 3.21384 -3.81463 0
M  V30 4714 H 429.276 5.35975 -2.84281 0
M  V30 4715 H 428.015 4.47538 -1.93807 0
M  V30 4716 H 427.02 3.66697 -4.09651 0
M  V30 4717 H 428.245 4.58474 -5.00978 0
M  V30 4718 H 426.191 5.77673 -3.10853 0
M  V30 4719 H 426.108 5.80808 -4.8394 0
M  V30 4720 H 427.376 6.67512 -4.02553 0
M  V30 4721 N 431.605 1.3629 0.791371 0
M  V30 4722 C 432.853 1.30154 1.5461 0
M  V30 4723 C 433.174 -0.119409 1.94634 0
M  V30 4724 O 432.444 -1.05924 1.64794 0
M  V30 4725 H 431.024 0.478784 0.573389 0
M  V30 4726 H 433.686 1.70565 0.94306 0
M  V30 4727 H 432.782 1.92762 2.45457 0
M  V30 4728 N 433.083 -1.0153 1.20538 0
M  V30 4729 C 434.499 -1.27461 0.96051 0
M  V30 4730 C 434.699 -1.98273 -0.359193 0
M  V30 4731 O 433.755 -2.27886 -1.0874 0
M  V30 4732 C 435.068 -2.10837 2.14402 0
M  V30 4733 C 436.616 -2.24099 2.18515 0
M  V30 4734 C 437.091 -3.10852 3.36355 0
M  V30 4735 N 438.582 -3.18441 3.36377 0
M  V30 4736 C 439.317 -3.85795 4.24205 0
M  V30 4737 N 438.813 -4.55264 5.22213 0
M  V30 4738 N 440.606 -3.82331 4.12043 0
M  V30 4739 H 432.757 -0.539907 2.05423 0
M  V30 4740 H 435.02 -0.30092 0.898972 0
M  V30 4741 H 434.726 -1.66144 3.09983 0
M  V30 4742 H 434.6 -3.11576 2.12604 0
M  V30 4743 H 436.987 -2.68016 1.23497 0
M  V30 4744 H 437.068 -1.22865 2.24361 0
M  V30 4745 H 436.712 -2.6764 4.31661 0
M  V30 4746 H 436.642 -4.12177 3.27746 0
M  V30 4747 H 439.133 -2.68978 2.65442 0
M  V30 4748 H 439.446 -5.04331 5.85551 0
M  V30 4749 H 437.791 -4.54085 5.26148 0
M  V30 4750 H 440.982 -3.27207 3.34743 0
M  V30 4751 H 441.155 -4.34547 4.807 0
M  V30 4752 N 434.561 -1.01147 -1.20859 0
M  V30 4753 C 435.491 -0.597663 -2.25722 0
M  V30 4754 C 436.472 0.384744 -1.65692 0
M  V30 4755 O 437.657 0.271303 -1.92296 0
M  V30 4756 C 434.787 0.0700149 -3.47229 0
M  V30 4757 C 433.741 -0.832843 -4.19819 0
M  V30 4758 C 433.067 -0.0312202 -5.34691 0
M  V30 4759 C 434.367 -2.1385 -4.76514 0
M  V30 4760 H 436.061 -1.47423 -2.60589 0
M  V30 4761 H 433.607 -0.710301 -1.25263 0
M  V30 4762 H 435.56 0.37103 -4.19763 0
M  V30 4763 H 434.284 0.981259 -3.11511 0
M  V30 4764 H 432.943 -1.11778 -3.49144 0
M  V30 4765 H 432.591 0.881515 -4.95215 0
M  V30 4766 H 432.291 -0.632434 -5.84187 0
M  V30 4767 H 433.815 0.26346 -6.10031 0
M  V30 4768 H 435.229 -1.9002 -5.40893 0
M  V30 4769 H 433.626 -2.69012 -5.36426 0
M  V30 4770 H 434.696 -2.80495 -3.95538 0
M  V30 4771 N 436.039 1.36541 -0.78704 0
M  V30 4772 C 437.45 1.81873 -0.421807 0
M  V30 4773 C 437.801 1.65487 1.05397 0
M  V30 4774 O 436.926 1.17448 1.81755 0
M  V30 4775 C 437.521 3.30192 -0.758841 0
M  V30 4776 C 436.08 3.73743 -0.446468 0
M  V30 4777 C 435.227 2.58844 -0.994728 0
M  V30 4778 H 438.178 1.24796 -0.98039 0
M  V30 4779 H 438.199 3.80468 -0.0490648 0
M  V30 4780 H 437.711 3.42087 -1.83299 0
M  V30 4781 H 435.812 3.6741 0.619739 0
M  V30 4782 H 435.925 4.69272 -0.965415 0
M  V30 4783 H 434.289 2.51245 -0.418087 0
M  V30 4784 H 435.072 2.73525 -2.07458 0
M  V30 4785 N 437.518 0.538854 1.48102 0
M  V30 4786 C 438.929 0.100679 1.86428 0
M  V30 4787 C 439.28 -1.32447 1.44749 0
M  V30 4788 O 438.405 -1.99339 0.842199 0
M  V30 4789 C 439 0.175933 3.38343 0
M  V30 4790 C 437.559 -0.207098 3.7583 0
M  V30 4791 C 436.706 0.531741 2.72154 0
M  V30 4792 H 439.657 0.749614 1.3988 0
M  V30 4793 H 439.678 -0.610144 3.75576 0
M  V30 4794 H 439.19 1.21328 3.68648 0
M  V30 4795 H 437.291 -1.24626 3.5114 0
M  V30 4796 H 437.404 0.138687 4.78899 0
M  V30 4797 H 435.768 -0.0230462 2.5469 0
M  V30 4798 H 436.551 1.56989 3.05302 0
M  V30 4799 N 438.996 -1.55193 0.274407 0
M  V30 4800 C 440.412 -1.59401 -0.0797543 0
M  V30 4801 C 440.612 -1.29162 -1.54659 0
M  V30 4802 O 439.668 -1.05215 -2.29534 0
M  V30 4803 C 440.981 -2.99257 0.294238 0
M  V30 4804 C 442.529 -3.12072 0.240796 0
M  V30 4805 C 443.004 -4.54194 0.589218 0
M  V30 4806 N 444.495 -4.60033 0.540744 0
M  V30 4807 C 445.23 -5.68027 0.783147 0
M  V30 4808 N 444.726 -6.8417 1.09013 0
M  V30 4809 N 446.519 -5.57572 0.711993 0
M  V30 4810 H 438.67 -1.73113 1.23067 0
M  V30 4811 H 440.933 -0.807197 0.497129 0
M  V30 4812 H 440.639 -3.26217 1.31435 0
M  V30 4813 H 440.513 -3.75427 -0.365281 0
M  V30 4814 H 442.9 -2.84877 -0.770024 0
M  V30 4815 H 442.981 -2.38117 0.934563 0
M  V30 4816 H 442.625 -4.82115 1.59772 0
M  V30 4817 H 442.555 -5.26448 -0.126331 0
M  V30 4818 H 445.046 -3.76599 0.313327 0
M  V30 4819 H 445.359 -7.6243 1.26178 0
M  V30 4820 H 443.704 -6.85787 1.12789 0
M  V30 4821 H 446.895 -4.65714 0.472014 0
M  V30 4822 H 447.068 -6.41659 0.90429 0
M  V30 4823 N 440.474 -0.00167713 -1.576 0
M  V30 4824 C 441.699 0.69739 -1.95323 0
M  V30 4825 C 442.124 1.6642 -0.876706 0
M  V30 4826 O 441.482 1.80548 0.165007 0
M  V30 4827 C 441.53 1.40403 -3.32144 0
M  V30 4828 O 440.634 2.5185 -3.26566 0
M  V30 4829 H 439.975 0.185373 -0.637599 0
M  V30 4830 H 442.505 -0.0553665 -2.04525 0
M  V30 4831 H 442.515 1.76707 -3.67748 0
M  V30 4832 H 441.19 0.695167 -4.10049 0
M  V30 4833 H 439.767 2.17861 -3.0264 0
M  V30 4834 N 441.952 1.55251 0.271103 0
M  V30 4835 C 443.177 1.80306 1.02491 0
M  V30 4836 C 443.602 0.575457 1.79081 0
M  V30 4837 O 442.96 -0.474987 1.74967 0
M  V30 4838 C 443.008 3.02832 1.95768 0
M  V30 4839 O 442.112 2.78051 3.04568 0
M  V30 4840 H 441.453 0.595896 0.292923 0
M  V30 4841 H 443.983 2.02397 0.299436 0
M  V30 4842 H 443.993 3.31616 2.37686 0
M  V30 4843 H 442.668 3.9183 1.39434 0
M  V30 4844 H 441.245 2.60369 2.66951 0
M  V30 4845 N 443.43 -0.535701 1.48216 0
M  V30 4846 C 444.36 -1.65014 1.65204 0
M  V30 4847 C 445.341 -1.62554 0.501011 0
M  V30 4848 O 446.526 -1.7984 0.732886 0
M  V30 4849 C 443.656 -3.03616 1.68626 0
M  V30 4850 C 442.61 -3.20932 2.83172 0
M  V30 4851 C 441.936 -4.60537 2.71679 0
M  V30 4852 C 443.236 -3.04249 4.24535 0
M  V30 4853 H 444.93 -1.51053 2.58502 0
M  V30 4854 H 442.476 -0.725262 1.24402 0
M  V30 4855 H 444.429 -3.81446 1.79099 0
M  V30 4856 H 443.153 -3.18587 0.719026 0
M  V30 4857 H 441.812 -2.45517 2.72244 0
M  V30 4858 H 441.46 -4.72336 1.72937 0
M  V30 4859 H 441.16 -4.73069 3.48538 0
M  V30 4860 H 442.684 -5.40475 2.84112 0
M  V30 4861 H 444.098 -3.71877 4.36326 0
M  V30 4862 H 442.495 -3.28278 5.02348 0
M  V30 4863 H 443.565 -2.00739 4.41397 0
M  V30 4864 N 444.908 -1.36708 -0.784132 0
M  V30 4865 C 445.871 -1.31307 -1.87859 0
M  V30 4866 C 446.871 -0.219654 -1.59293 0
M  V30 4867 O 448.061 -0.47476 -1.67606 0
M  V30 4868 C 445.193 -1.03679 -3.24751 0
M  V30 4869 H 446.386 -2.28647 -1.94064 0
M  V30 4870 H 443.939 -1.21558 -0.98252 0
M  V30 4871 H 444.674 -0.0681936 -3.24228 0
M  V30 4872 H 444.459 -1.82811 -3.46876 0
M  V30 4873 H 445.949 -1.02518 -4.04821 0
M  V30 4874 N 446.386 1.0089 -1.21074 0
M  V30 4875 C 447.319 2.09279 -0.909806 0
M  V30 4876 C 448.297 1.61986 0.141145 0
M  V30 4877 O 449.481 1.88495 0.0130332 0
M  V30 4878 C 446.608 3.36723 -0.365374 0
M  V30 4879 C 445.654 4.02919 -1.39852 0
M  V30 4880 S 446.487 4.45835 -2.96633 0
M  V30 4881 C 447.643 5.76471 -2.43786 0
M  V30 4882 H 447.876 2.34484 -1.82769 0
M  V30 4883 H 445.409 1.14115 -1.04006 0
M  V30 4884 H 447.367 4.10459 -0.0578203 0
M  V30 4885 H 446.028 3.09577 0.531136 0
M  V30 4886 H 445.221 4.94634 -0.967117 0
M  V30 4887 H 444.823 3.35441 -1.65395 0
M  V30 4888 H 447.115 6.52027 -1.84029 0
M  V30 4889 H 448.058 6.24418 -3.33928 0
M  V30 4890 H 448.466 5.33104 -1.85636 0
M  V30 4891 N 447.864 1.01787 1.20321 0
M  V30 4892 C 449.113 0.703249 1.89043 0
M  V30 4893 C 449.426 -0.770445 1.79787 0
M  V30 4894 O 450.632 -1.19767 2.43656 0
M  V30 4895 C 449.088 1.20749 3.3904 0
M  V30 4896 C 448.696 2.70817 3.56878 0
M  V30 4897 C 450.44 0.968352 4.13308 0
M  V30 4898 C 448.347 3.14716 5.00708 0
M  V30 4899 H 447.277 0.259354 0.707991 0
M  V30 4900 H 449.928 1.23072 1.36108 0
M  V30 4901 H 448.31 0.607989 3.91305 0
M  V30 4902 H 449.484 3.36327 3.14993 0
M  V30 4903 H 447.799 2.92888 2.95983 0
M  V30 4904 H 450.396 1.27173 5.19356 0
M  V30 4905 H 450.739 -0.095149 4.16191 0
M  V30 4906 H 451.272 1.53129 3.67146 0
M  V30 4907 H 448.011 4.20347 5.02979 0
M  V30 4908 H 447.531 2.53927 5.43398 0
M  V30 4909 H 449.21 3.07426 5.69296 0
M  V30 4910 N 449.342 -1.36122 0.79427 0
M  V30 4911 C 450.588 -1.99406 0.369452 0
M  V30 4912 C 450.921 -1.62886 -1.05743 0
M  V30 4913 O 450.196 -0.886053 -1.73145 0
M  V30 4914 C 450.479 -3.56046 0.538833 0
M  V30 4915 C 450.332 -4.02404 2.00976 0
M  V30 4916 C 451.651 -4.40079 -0.0431359 0
M  V30 4917 H 448.77 -0.724397 0.135712 0
M  V30 4918 H 451.412 -1.61461 1.00151 0
M  V30 4919 H 449.562 -3.885 0.000771004 0
M  V30 4920 H 451.234 -3.80415 2.60926 0
M  V30 4921 H 449.477 -3.53765 2.51063 0
M  V30 4922 H 450.148 -5.11344 2.07922 0
M  V30 4923 H 452.624 -4.14013 0.416228 0
M  V30 4924 H 451.5 -5.48799 0.105374 0
M  V30 4925 H 451.761 -4.27264 -1.13571 0
M  V30 4926 N 450.82 -0.546701 -1.47814 0
M  V30 4927 C 452.066 -0.0187684 -2.02791 0
M  V30 4928 C 452.399 1.32338 -1.42128 0
M  V30 4929 O 451.674 1.85867 -0.573023 0
M  V30 4930 C 451.957 0.0854985 -3.59998 0
M  V30 4931 C 451.81 -1.283 -4.31114 0
M  V30 4932 C 453.129 0.80412 -4.32691 0
M  V30 4933 H 450.248 -0.0082946 -0.736953 0
M  V30 4934 H 452.89 -0.706962 -1.76358 0
M  V30 4935 H 451.04 0.671609 -3.82651 0
M  V30 4936 H 452.712 -1.91151 -4.19832 0
M  V30 4937 H 450.955 -1.86049 -3.91878 0
M  V30 4938 H 451.626 -1.16287 -5.39612 0
M  V30 4939 H 454.102 0.306576 -4.14969 0
M  V30 4940 H 452.978 0.846011 -5.42341 0
M  V30 4941 H 453.239 1.85802 -4.01161 0
M  V30 4942 N 452.299 1.55045 -0.282633 0
M  V30 4943 C 453.576 1.9179 0.384166 0
M  V30 4944 C 453.956 1.20778 1.73136 0
M  V30 4945 O 453.304 0.33719 2.25998 0
M  V30 4946 C 453.514 3.45149 0.517014 0
M  V30 4947 C 454.862 4.17064 0.796427 0
M  V30 4948 O 455.886 3.51084 0.601535 0
M  V30 4949 O 454.745 5.33837 1.16962 0
M  V30 4950 H 451.839 0.799483 0.211558 0
M  V30 4951 H 454.385 1.66474 -0.32934 0
M  V30 4952 H 453.157 3.88922 -0.430772 0
M  V30 4953 H 452.78 3.76443 1.2797 0
M  V30 4954 N 453.777 0.010035 1.57597 0
M  V30 4955 C 454.727 -0.986858 2.05536 0
M  V30 4956 C 455.711 -1.29711 0.952042 0
M  V30 4957 O 456.903 -1.28641 1.21575 0
M  V30 4958 C 454.032 -2.2756 2.57043 0
M  V30 4959 C 453.118 -1.99455 3.74271 0
M  V30 4960 N 453.509 -1.41546 4.85591 0
M  V30 4961 C 451.807 -2.29547 3.82393 0
M  V30 4962 C 452.508 -1.3014 5.66956 0
M  V30 4963 N 451.484 -1.79044 5.13268 0
M  V30 4964 H 455.286 -0.533778 2.89012 0
M  V30 4965 H 452.8 -0.195432 1.6122 0
M  V30 4966 H 454.797 -2.99829 2.89669 0
M  V30 4967 H 453.457 -2.73512 1.7499 0
M  V30 4968 H 454.468 -1.09294 5.06236 0
M  V30 4969 H 451.145 -2.78304 3.11213 0
M  V30 4970 H 452.535 -0.855237 6.66435 0
M  V30 4971 N 455.255 -1.55392 -0.262866 0
M  V30 4972 C 456.483 -1.80513 -1.01108 0
M  V30 4973 C 456.898 -0.583533 -1.79556 0
M  V30 4974 O 456.255 0.447585 -1.76926 0
M  V30 4975 C 456.306 -3.03648 -1.96164 0
M  V30 4976 O 456.027 -4.2109 -1.20893 0
M  V30 4977 C 457.528 -3.41448 -2.82715 0
M  V30 4978 H 454.748 -0.601079 -0.298236 0
M  V30 4979 H 457.292 -2.02425 -0.290582 0
M  V30 4980 H 455.447 -2.83832 -2.63663 0
M  V30 4981 H 455.861 -4.90771 -1.85051 0
M  V30 4982 H 457.335 -4.30751 -3.45192 0
M  V30 4983 H 457.812 -2.61308 -3.53008 0
M  V30 4984 H 458.418 -3.63559 -2.20693 0
M  V30 4985 N 456.733 0.527833 -1.48498 0
M  V30 4986 C 458.01 1.28905 -1.47115 0
M  V30 4987 C 458.39 2.10297 -0.184007 0
M  V30 4988 O 457.738 2.12728 0.834218 0
M  V30 4989 C 457.948 2.16866 -2.73441 0
M  V30 4990 C 459.296 2.76936 -3.21857 0
M  V30 4991 O 460.32 2.27152 -2.74373 0
M  V30 4992 O 459.179 3.67496 -4.04486 0
M  V30 4993 H 456.273 0.581918 -0.587623 0
M  V30 4994 H 458.819 0.544311 -1.60734 0
M  V30 4995 H 457.591 1.56521 -3.58632 0
M  V30 4996 H 457.214 2.98583 -2.62553 0
M  V30 4997 N 458.211 1.37122 0.776871 0
M  V30 4998 C 459.144 1.26835 1.89705 0
M  V30 4999 C 460.122 0.14992 1.61907 0
M  V30 5000 O 461.306 0.323242 1.85708 0
M  V30 5001 C 458.433 0.95986 3.24814 0
M  V30 5002 C 457.479 2.09447 3.7153 0
M  V30 5003 S 458.312 3.71368 3.85806 0
M  V30 5004 C 459.468 3.42659 5.23771 0
M  V30 5005 H 459.701 2.21647 1.98141 0
M  V30 5006 H 457.234 1.22685 0.937433 0
M  V30 5007 H 459.192 0.788696 4.02852 0
M  V30 5008 H 457.853 0.0293137 3.14086 0
M  V30 5009 H 457.046 1.8335 4.69467 0
M  V30 5010 H 456.648 2.2255 3.00578 0
M  V30 5011 H 458.94 2.9733 6.0877 0
M  V30 5012 H 459.883 4.39905 5.54878 0
M  V30 5013 H 460.291 2.77708 4.91466 0
M  V30 5014 N 459.689 -1.00246 1.21608 0
M  V30 5015 C 461.105 -1.26435 0.973975 0
M  V30 5016 C 461.305 -1.98642 -0.338143 0
M  V30 5017 O 460.361 -2.29026 -1.06317 0
M  V30 5018 C 461.674 -2.08551 2.16626 0
M  V30 5019 C 463.222 -2.21769 2.20879 0
M  V30 5020 C 463.697 -3.07267 3.39633 0
M  V30 5021 N 465.188 -3.14855 3.39736 0
M  V30 5022 C 465.923 -3.81274 4.28273 0
M  V30 5023 N 465.419 -4.497 5.27012 0
M  V30 5024 N 467.212 -3.7794 4.16074 0
M  V30 5025 H 459.363 -0.518089 2.05984 0
M  V30 5026 H 461.626 -0.291368 0.902113 0
M  V30 5027 H 461.332 -1.62847 3.11727 0
M  V30 5028 H 461.206 -3.09303 2.15897 0
M  V30 5029 H 463.593 -2.66691 1.26332 0
M  V30 5030 H 463.674 -1.20478 2.25652 0
M  V30 5031 H 463.318 -2.63047 4.34475 0
M  V30 5032 H 463.248 -4.08678 3.321 0
M  V30 5033 H 465.739 -2.66147 2.6828 0
M  V30 5034 H 466.052 -4.98092 5.90867 0
M  V30 5035 H 464.397 -4.48479 5.30935 0
M  V30 5036 H 467.588 -3.23638 3.38195 0
M  V30 5037 H 467.761 -4.29424 4.85282 0
M  V30 5038 N 461.167 -1.02423 -1.1978 0
M  V30 5039 C 462.413 -0.719051 -1.89625 0
M  V30 5040 C 462.746 0.750083 -1.7913 0
M  V30 5041 O 462.021 1.54574 -1.18056 0
M  V30 5042 C 462.304 -1.16499 -3.40735 0
M  V30 5043 C 462.157 -2.695 -3.60125 0
M  V30 5044 C 463.476 -0.742166 -4.33797 0
M  V30 5045 H 460.595 -0.26269 -0.688595 0
M  V30 5046 H 463.237 -1.27333 -1.41018 0
M  V30 5047 H 461.387 -0.69341 -3.82262 0
M  V30 5048 H 463.059 -3.24569 -3.278 0
M  V30 5049 H 461.302 -3.10113 -3.03336 0
M  V30 5050 H 461.973 -2.95757 -4.66081 0
M  V30 5051 H 464.449 -1.1477 -3.99959 0
M  V30 5052 H 463.325 -1.08213 -5.38127 0
M  V30 5053 H 463.586 0.355747 -4.40666 0
M  V30 5054 N 462.645 1.35699 -0.801477 0
M  V30 5055 C 464.061 1.52065 -0.484596 0
M  V30 5056 C 464.261 1.75215 0.995084 0
M  V30 5057 O 463.317 1.79061 1.78026 0
M  V30 5058 C 464.63 2.69908 -1.32552 0
M  V30 5059 C 466.178 2.83784 -1.32044 0
M  V30 5060 C 466.653 4.04646 -2.14536 0
M  V30 5061 N 468.144 4.11814 -2.12046 0
M  V30 5062 C 468.879 5.04437 -2.72636 0
M  V30 5063 N 468.375 6.02426 -3.42133 0
M  V30 5064 N 470.168 4.97144 -2.62305 0
M  V30 5065 H 462.319 1.18928 -1.75983 0
M  V30 5066 H 464.582 0.581455 -0.748741 0
M  V30 5067 H 464.288 2.59363 -2.37537 0
M  V30 5068 H 464.162 3.64376 -0.975181 0
M  V30 5069 H 466.549 2.93783 -0.27846 0
M  V30 5070 H 466.63 1.90188 -1.71062 0
M  V30 5071 H 466.274 3.95407 -3.18772 0
M  V30 5072 H 466.204 4.97413 -1.72882 0
M  V30 5073 H 468.695 3.41664 -1.61476 0
M  V30 5074 H 469.008 6.69688 -3.85666 0
M  V30 5075 H 467.353 6.02615 -3.46237 0
M  V30 5076 H 470.544 4.19546 -2.07603 0
M  V30 5077 H 470.717 5.69138 -3.09815 0
M  V30 5078 N 464.123 0.554532 1.47522 0
M  V30 5079 C 465.371 0.0294208 2.02079 0
M  V30 5080 C 465.692 -1.32411 1.43151 0
M  V30 5081 O 464.962 -1.863 0.605728 0
M  V30 5082 H 463.542 0.00788672 0.746958 0
M  V30 5083 H 466.204 0.723934 1.80956 0
M  V30 5084 H 465.3 -0.0606745 3.12041 0
M  V30 5085 N 465.601 -1.54893 0.290851 0
M  V30 5086 C 466.847 -2.00949 -0.314784 0
M  V30 5087 C 467.202 -1.1757 -1.52299 0
M  V30 5088 O 466.495 -0.241558 -1.90071 0
M  V30 5089 C 466.689 -3.49815 -0.732397 0
M  V30 5090 C 466.518 -4.47603 0.433799 0
M  V30 5091 C 465.288 -4.96806 0.922599 0
M  V30 5092 C 467.486 -4.98233 1.27546 0
M  V30 5093 N 465.468 -5.78426 2.05662 0
M  V30 5094 C 466.839 -5.77455 2.25712 0
M  V30 5095 C 468.894 -4.80439 1.307 0
M  V30 5096 C 467.597 -6.40778 3.26796 0
M  V30 5097 C 469.623 -5.44574 2.30637 0
M  V30 5098 C 468.985 -6.23619 3.27533 0
M  V30 5099 H 465.084 -0.777905 -0.0799257 0
M  V30 5100 H 467.668 -1.9015 0.418458 0
M  V30 5101 H 465.839 -3.60925 -1.43483 0
M  V30 5102 H 467.571 -3.82681 -1.31671 0
M  V30 5103 H 464.326 -4.70961 0.49926 0
M  V30 5104 H 464.75 -6.23923 2.62772 0
M  V30 5105 H 469.392 -4.18918 0.571622 0
M  V30 5106 H 467.11 -7.01439 4.01258 0
M  V30 5107 H 470.696 -5.32739 2.33838 0
M  V30 5108 H 469.576 -6.72367 4.03599 0
M  V30 5109 N 467.08 -0.0183926 -1.57589 0
M  V30 5110 C 468.326 0.663543 -1.91638 0
M  V30 5111 C 468.659 1.72392 -0.894134 0
M  V30 5112 O 467.934 1.94316 0.0846449 0
M  V30 5113 C 468.217 1.28984 -3.36207 0
M  V30 5114 C 468.07 0.239761 -4.49161 0
M  V30 5115 C 469.389 2.2109 -3.80536 0
M  V30 5116 H 466.508 0.239746 -0.696915 0
M  V30 5117 H 469.15 -0.073456 -1.89858 0
M  V30 5118 H 467.3 1.91799 -3.37854 0
M  V30 5119 H 468.972 -0.390119 -4.59647 0
M  V30 5120 H 467.215 -0.435972 -4.31604 0
M  V30 5121 H 467.886 0.717383 -5.47319 0
M  V30 5122 H 470.362 1.68273 -3.80557 0
M  V30 5123 H 469.238 2.61869 -4.82406 0
M  V30 5124 H 469.499 3.09764 -3.15434 0
M  V30 5125 N 468.558 1.5553 0.254621 0
M  V30 5126 C 469.806 1.7665 0.981793 0
M  V30 5127 C 470.127 0.580963 1.86145 0
M  V30 5128 O 469.397 -0.403537 1.91699 0
M  V30 5129 H 467.977 0.651475 0.365498 0
M  V30 5130 H 470.639 1.92958 0.274426 0
M  V30 5131 H 469.735 2.67486 1.60802 0
M  V30 5132 N 470.036 -0.519951 1.48776 0
M  V30 5133 C 471.261 -1.30447 1.6124 0
M  V30 5134 C 471.686 -1.86055 0.276591 0
M  V30 5135 O 471.044 -1.64915 -0.753183 0
M  V30 5136 C 471.092 -2.42406 2.66967 0
M  V30 5137 O 470.196 -3.45728 2.24824 0
M  V30 5138 H 469.537 -0.385924 0.540332 0
M  V30 5139 H 472.067 -0.624572 1.94834 0
M  V30 5140 H 472.077 -2.88447 2.88552 0
M  V30 5141 H 470.752 -2.01294 3.63941 0
M  V30 5142 H 469.329 -3.05737 2.13494 0
M  V30 5143 N 471.514 -1.37532 -0.769588 0
M  V30 5144 C 472.76 -1.33057 -1.53048 0
M  V30 5145 C 473.093 0.0841865 -1.94017 0
M  V30 5146 O 472.368 1.04198 -1.64235 0
M  V30 5147 C 472.651 -2.27166 -2.79406 0
M  V30 5148 C 472.504 -3.77429 -2.44677 0
M  V30 5149 C 473.823 -2.19683 -3.81349 0
M  V30 5150 H 470.942 -0.484655 -0.555228 0
M  V30 5151 H 473.584 -1.68251 -0.882702 0
M  V30 5152 H 471.734 -1.97283 -3.34682 0
M  V30 5153 H 473.406 -4.17918 -1.953 0
M  V30 5154 H 471.649 -3.95892 -1.77346 0
M  V30 5155 H 472.32 -4.38716 -3.35011 0
M  V30 5156 H 474.796 -2.46029 -3.35573 0
M  V30 5157 H 473.672 -2.87668 -4.67481 0
M  V30 5158 H 473.933 -1.19045 -4.25771 0
M  V30 5159 N 472.992 0.995999 -1.22138 0
M  V30 5160 C 474.269 1.70834 -0.952642 0
M  V30 5161 C 474.649 2.04257 0.533119 0
M  V30 5162 O 473.997 1.72343 1.50034 0
M  V30 5163 C 474.207 2.96119 -1.84701 0
M  V30 5164 C 475.555 3.68962 -2.10124 0
M  V30 5165 O 476.579 3.0612 -1.82124 0
M  V30 5166 O 475.438 4.82017 -2.57531 0
M  V30 5167 H 472.532 0.745498 -0.357997 0
M  V30 5168 H 475.078 1.05262 -1.33109 0
M  V30 5169 H 473.85 2.67898 -2.85213 0
M  V30 5170 H 473.473 3.6943 -1.46995 0
M  V30 5171 N 474.47 1.03057 1.19235 0
M  V30 5172 C 475.4 0.633497 2.24742 0
M  V30 5173 C 476.381 -0.358335 1.66283 0
M  V30 5174 O 477.566 -0.240676 1.92703 0
M  V30 5175 C 474.696 -0.0147648 3.47297 0
M  V30 5176 C 473.65 0.899527 4.18441 0
M  V30 5177 C 472.976 0.116281 5.34574 0
M  V30 5178 C 474.276 2.21404 4.73051 0
M  V30 5179 H 475.97 1.5155 2.58211 0
M  V30 5180 H 473.516 0.73014 1.24117 0
M  V30 5181 H 475.469 -0.304202 4.20301 0
M  V30 5182 H 474.193 -0.931577 3.13032 0
M  V30 5183 H 472.852 1.17319 3.47321 0
M  V30 5184 H 472.5 -0.802619 4.96555 0
M  V30 5185 H 472.2 0.725293 5.83107 0
M  V30 5186 H 473.724 -0.166376 6.10373 0
M  V30 5187 H 475.138 1.98601 5.37802 0
M  V30 5188 H 473.535 2.77512 5.32078 0
M  V30 5189 H 474.605 2.86752 3.91026 0
M  V30 5190 N 475.948 -1.35272 0.808662 0
M  V30 5191 C 476.896 -2.31663 0.208606 0
M  V30 5192 C 477.89 -1.56731 -0.642778 0
M  V30 5193 O 479.096 -1.71843 -0.53571 0
M  V30 5194 H 475.471 -0.750421 0.0486993 0
M  V30 5195 H 477.442 -2.79814 1.03666 0
M  V30 5196 C 476.191 -3.42008 -0.626573 0
M  V30 5197 H 475.514 -3.99795 0.0192103 0
M  V30 5198 H 476.954 -4.11727 -1.01278 0
M  V30 5199 C 475.413 -2.85226 -1.79298 0
M  V30 5200 O 475.943 -2.78945 -2.89055 0
M  V30 5201 N 474.149 -2.42245 -1.60516 0
M  V30 5202 H 473.696 -2.47554 -0.712375 0
M  V30 5203 H 473.654 -2.04603 -2.38715 0
M  V30 5204 N 477.426 -0.562348 -1.47226 0
M  V30 5205 C 478.703 0.0256985 -1.95583 0
M  V30 5206 C 479.083 1.48032 -1.50498 0
M  V30 5207 O 478.431 2.15973 -0.746181 0
M  V30 5208 C 478.641 -0.125129 -3.48776 0
M  V30 5209 C 479.989 0.0175728 -4.24596 0
M  V30 5210 O 481.013 -0.0529341 -3.56161 0
M  V30 5211 O 479.872 0.170145 -5.46235 0
M  V30 5212 H 476.966 0.0612565 -0.824728 0
M  V30 5213 H 479.512 -0.629233 -1.57603 0
M  V30 5214 H 478.284 -1.13715 -3.74412 0
M  V30 5215 H 477.907 0.567178 -3.93534 0
M  V30 5216 N 478.904 1.54736 -0.299062 0
M  V30 5217 C 480.181 1.92187 0.363802 0
M  V30 5218 C 480.561 1.22607 1.71845 0
M  V30 5219 O 479.909 0.361141 2.25628 0
M  V30 5220 C 480.119 3.45678 0.480377 0
M  V30 5221 C 481.467 4.17885 0.752147 0
M  V30 5222 O 482.491 3.51702 0.564264 0
M  V30 5223 O 481.35 5.35048 1.11294 0
M  V30 5224 H 478.444 0.801681 0.203066 0
M  V30 5225 H 480.99 1.66115 -0.346978 0
M  V30 5226 H 479.762 3.88443 -0.471999 0
M  V30 5227 H 479.385 3.77779 1.2397 0
M  V30 5228 N 480.382 0.0267497 1.57577 0
M  V30 5229 C 481.607 -0.666227 1.96408 0
M  V30 5230 C 482.032 -1.65004 0.903071 0
M  V30 5231 O 481.39 -1.80787 -0.136263 0
M  V30 5232 C 481.438 -1.35101 3.34335 0
M  V30 5233 O 480.542 -2.46623 3.30531 0
M  V30 5234 H 479.883 -0.175206 0.640468 0
M  V30 5235 H 482.413 0.0878977 2.04411 0
M  V30 5236 H 482.423 -1.70834 3.70513 0
M  V30 5237 H 481.098 -0.629844 4.11103 0
M  V30 5238 H 479.675 -2.13019 3.06068 0
M  V30 5239 N 481.861 -1.55662 -0.24637 0
M  V30 5240 C 483.277 -1.48098 -0.594907 0
M  V30 5241 C 483.477 -0.717044 -1.8831 0
M  V30 5242 O 482.533 -0.246618 -2.51293 0
M  V30 5243 C 483.846 -2.92507 -0.697146 0
M  V30 5244 C 485.394 -3.02881 -0.789436 0
M  V30 5245 C 485.869 -4.48598 -0.923232 0
M  V30 5246 N 487.36 -4.52538 -0.988088 0
M  V30 5247 C 488.095 -5.62536 -1.11089 0
M  V30 5248 N 487.591 -6.82342 -1.19919 0
M  V30 5249 N 489.384 -5.50334 -1.14408 0
M  V30 5250 H 481.535 -2.0377 0.599278 0
M  V30 5251 H 483.798 -0.925145 0.20691 0
M  V30 5252 H 483.504 -3.51242 0.179396 0
M  V30 5253 H 483.378 -3.43024 -1.5689 0
M  V30 5254 H 485.765 -2.44226 -1.65643 0
M  V30 5255 H 485.846 -2.55574 0.107482 0
M  V30 5256 H 485.49 -5.07864 -0.0607927 0
M  V30 5257 H 485.42 -4.93587 -1.8352 0
M  V30 5258 H 487.911 -3.66248 -0.931167 0
M  V30 5259 H 488.224 -7.61924 -1.29197 0
M  V30 5260 H 486.569 -6.85102 -1.16876 0
M  V30 5261 H 489.76 -4.5567 -1.07158 0
M  V30 5262 H 489.933 -6.36096 -1.23634 0
M  V30 5263 N 483.339 0.512053 -1.4905 0
M  V30 5264 C 484.586 1.26686 -1.57978 0
M  V30 5265 C 484.914 1.92733 -0.261553 0
M  V30 5266 O 484.169 1.80772 0.749667 0
M  V30 5267 C 484.468 2.36446 -2.68008 0
M  V30 5268 C 484.134 1.87932 -4.09869 0
M  V30 5269 C 482.796 1.74419 -4.48477 0
M  V30 5270 C 485.148 1.5149 -4.98698 0
M  V30 5271 C 482.476 1.22827 -5.73699 0
M  V30 5272 C 484.828 1.01355 -6.24428 0
M  V30 5273 C 483.492 0.864735 -6.61875 0
M  V30 5274 H 482.762 0.463577 -0.578081 0
M  V30 5275 H 485.409 0.569421 -1.82838 0
M  V30 5276 H 483.714 3.11933 -2.37076 0
M  V30 5277 H 485.411 2.9453 -2.72127 0
M  V30 5278 H 482.001 1.99405 -3.79389 0
M  V30 5279 H 486.185 1.60782 -4.69535 0
M  V30 5280 H 481.441 1.10008 -6.01422 0
M  V30 5281 H 485.615 0.722351 -6.92644 0
M  V30 5282 H 483.242 0.462777 -7.5879 0
M  V30 5283 N 484.817 1.37938 0.762283 0
M  V30 5284 C 486.065 1.33404 1.51815 0
M  V30 5285 C 486.386 -0.0780975 1.94844 0
M  V30 5286 O 485.656 -1.02405 1.67003 0
M  V30 5287 H 484.236 0.490839 0.563104 0
M  V30 5288 H 486.898 1.72527 0.906669 0
M  V30 5289 H 485.994 1.97926 2.41313 0
M  V30 5290 N 486.295 -0.989507 1.22664 0
M  V30 5291 C 487.245 -2.06478 0.967005 0
M  V30 5292 C 488.229 -1.60682 -0.0836374 0
M  V30 5293 O 489.421 -1.76541 0.127322 0
M  V30 5294 C 486.55 -3.38861 0.550313 0
M  V30 5295 C 485.636 -3.9128 1.63587 0
M  V30 5296 N 486.027 -4.16884 2.86429 0
M  V30 5297 C 484.325 -4.1972 1.50834 0
M  V30 5298 C 485.026 -4.5954 3.56648 0
M  V30 5299 N 484.002 -4.63434 2.84131 0
M  V30 5300 H 487.804 -2.24219 1.90008 0
M  V30 5301 H 485.318 -1.17153 1.12467 0
M  V30 5302 H 487.315 -4.15465 0.345612 0
M  V30 5303 H 485.975 -3.22518 -0.375822 0
M  V30 5304 H 486.986 -4.04976 3.22823 0
M  V30 5305 H 483.663 -4.1243 0.648643 0
M  V30 5306 H 485.053 -4.87944 4.61909 0
M  V30 5307 N 487.773 -1.03688 -1.18687 0
M  V30 5308 C 489.019 -0.739123 -1.88851 0
M  V30 5309 C 489.352 0.731042 -1.79915 0
M  V30 5310 O 488.627 1.53313 -1.19688 0
M  V30 5311 C 488.91 -1.20106 -3.3948 0
M  V30 5312 C 488.763 -2.73304 -3.57246 0
M  V30 5313 C 490.082 -0.788134 -4.32986 0
M  V30 5314 H 487.201 -0.269978 -0.68577 0
M  V30 5315 H 489.843 -1.28822 -1.3966 0
M  V30 5316 H 487.993 -0.733915 -3.81505 0
M  V30 5317 H 489.665 -3.28027 -3.24339 0
M  V30 5318 H 487.908 -3.13313 -3.00029 0
M  V30 5319 H 488.579 -3.00684 -4.62918 0
M  V30 5320 H 491.055 -1.19005 -3.98719 0
M  V30 5321 H 489.931 -1.13915 -5.36949 0
M  V30 5322 H 490.192 0.308988 -4.41019 0
M  V30 5323 N 489.251 1.34841 -0.815825 0
M  V30 5324 C 490.528 1.92908 -0.323416 0
M  V30 5325 C 490.908 1.74479 1.18828 0
M  V30 5326 O 490.256 1.11928 1.99209 0
M  V30 5327 C 490.466 3.40957 -0.744952 0
M  V30 5328 C 491.814 4.18107 -0.739716 0
M  V30 5329 O 492.838 3.49511 -0.68708 0
M  V30 5330 O 491.697 5.40517 -0.806456 0
M  V30 5331 H 488.791 0.822436 -0.0867646 0
M  V30 5332 H 491.337 1.4386 -0.90014 0
M  V30 5333 H 490.109 3.4814 -1.78646 0
M  V30 5334 H 489.732 3.97341 -0.143535 0
M  V30 5335 N 490.729 0.570148 1.46925 0
M  V30 5336 C 491.662 -0.218362 2.27153 0
M  V30 5337 C 492.64 -0.90847 1.34854 0
M  V30 5338 O 493.824 -0.924875 1.64251 0
M  V30 5339 C 490.951 -1.3122 3.12248 0
M  V30 5340 C 489.997 -0.729277 4.20219 0
M  V30 5341 S 490.83 0.434159 5.33737 0
M  V30 5342 C 491.986 -0.661188 6.22398 0
M  V30 5343 H 492.219 0.462393 2.93682 0
M  V30 5344 H 489.752 0.356753 1.50222 0
M  V30 5345 H 491.71 -1.93856 3.61842 0
M  V30 5346 H 490.371 -1.96485 2.45056 0
M  V30 5347 H 489.564 -1.5511 4.79538 0
M  V30 5348 H 489.166 -0.178836 3.73572 0
M  V30 5349 H 491.458 -1.55006 6.5953 0
M  V30 5350 H 492.401 -0.105046 7.08022 0
M  V30 5351 H 492.809 -0.959682 5.56283 0
M  V30 5352 N 492.207 -1.54576 0.307264 0
M  V30 5353 C 493.453 -2.0056 -0.300612 0
M  V30 5354 C 493.786 -1.1953 -1.53057 0
M  V30 5355 O 493.061 -0.27337 -1.92569 0
M  V30 5356 C 493.344 -3.54167 -0.650987 0
M  V30 5357 C 493.197 -4.45933 0.588539 0
M  V30 5358 C 494.516 -4.14645 -1.47506 0
M  V30 5359 H 491.635 -0.729075 -0.107788 0
M  V30 5360 H 494.277 -1.85286 0.420606 0
M  V30 5361 H 492.427 -3.67313 -1.26544 0
M  V30 5362 H 494.099 -4.44683 1.22697 0
M  V30 5363 H 492.342 -4.16274 1.22058 0
M  V30 5364 H 493.013 -5.51189 0.299153 0
M  V30 5365 H 495.489 -4.04973 -0.955821 0
M  V30 5366 H 494.365 -5.22269 -1.68899 0
M  V30 5367 H 494.626 -3.66921 -2.4662 0
M  V30 5368 N 493.685 -0.035106 -1.57561 0
M  V30 5369 C 494.633 0.962707 -2.11742 0
M  V30 5370 C 495.627 1.33296 -1.0454 0
M  V30 5371 O 496.833 1.31449 -1.22968 0
M  V30 5372 H 493.208 0.32826 -0.676572 0
M  V30 5373 H 495.179 0.48048 -2.94506 0
M  V30 5374 C 493.928 2.23388 -2.66445 0
M  V30 5375 H 493.251 1.95774 -3.48587 0
M  V30 5376 H 494.691 2.91402 -3.07995 0
M  V30 5377 C 493.15 2.96769 -1.59467 0
M  V30 5378 O 493.68 3.89105 -0.998 0
M  V30 5379 N 491.886 2.59212 -1.31369 0
M  V30 5380 H 491.433 1.84202 -1.80076 0
M  V30 5381 H 491.391 3.08618 -0.600173 0
M  V30 5382 N 495.163 1.55791 0.238111 0
M  V30 5383 C 496.388 1.8244 0.986432 0
M  V30 5384 C 496.813 0.613314 1.7782 0
M  V30 5385 O 496.171 -0.437767 1.75935 0
M  V30 5386 C 496.219 3.06917 1.893 0
M  V30 5387 O 495.323 2.84449 2.98601 0
M  V30 5388 H 494.664 0.601975 0.280218 0
M  V30 5389 H 497.194 2.02987 0.256437 0
M  V30 5390 H 497.204 3.36583 2.30598 0
M  V30 5391 H 495.879 3.947 1.31091 0
M  V30 5392 H 494.456 2.65972 2.61368 0
M  V30 5393 N 496.642 -0.504142 1.49319 0
M  V30 5394 C 497.891 -1.25507 1.57895 0
M  V30 5395 C 498.204 -1.93735 0.269433 0
M  V30 5396 O 499.41 -2.70492 0.233706 0
M  V30 5397 C 497.866 -2.27869 2.78574 0
M  V30 5398 C 497.474 -1.65594 4.16272 0
M  V30 5399 C 499.218 -3.0381 2.96479 0
M  V30 5400 C 497.125 -2.66048 5.28178 0
M  V30 5401 H 496.055 -0.47212 0.587894 0
M  V30 5402 H 498.706 -0.52931 1.757 0
M  V30 5403 H 497.088 -3.03594 2.54257 0
M  V30 5404 H 498.262 -0.958826 4.50714 0
M  V30 5405 H 496.577 -1.02055 4.037 0
M  V30 5406 H 499.174 -3.78925 3.77253 0
M  V30 5407 H 499.517 -3.61235 2.06918 0
M  V30 5408 H 500.05 -2.352 3.20821 0
M  V30 5409 H 496.789 -2.13408 6.19788 0
M  V30 5410 H 496.309 -3.34009 4.98195 0
M  V30 5411 H 497.988 -3.28536 5.57381 0
M  V30 5412 N 498.12 -1.38341 -0.754957 0
M  V30 5413 C 499.536 -1.19508 -1.05783 0
M  V30 5414 C 499.736 -0.0428005 -2.01455 0
M  V30 5415 O 498.792 0.611861 -2.44975 0
M  V30 5416 C 500.105 -2.52091 -1.63923 0
M  V30 5417 C 501.653 -2.58762 -1.76101 0
M  V30 5418 C 502.128 -3.91517 -2.37652 0
M  V30 5419 N 503.619 -3.93049 -2.45085 0
M  V30 5420 C 504.354 -4.9253 -2.93602 0
M  V30 5421 N 503.85 -6.02408 -3.42165 0
M  V30 5422 N 505.643 -4.79921 -2.92629 0
M  V30 5423 H 497.794 -2.1206 -0.120056 0
M  V30 5424 H 500.057 -0.94089 -0.11589 0
M  V30 5425 H 499.763 -3.36858 -1.01093 0
M  V30 5426 H 499.637 -2.70388 -2.63003 0
M  V30 5427 H 502.024 -1.74391 -2.38058 0
M  V30 5428 H 502.105 -2.44333 -0.757294 0
M  V30 5429 H 501.749 -4.76309 -1.76329 0
M  V30 5430 H 501.679 -4.03256 -3.38662 0
M  V30 5431 H 504.17 -3.13685 -2.10736 0
M  V30 5432 H 504.483 -6.74248 -3.77637 0
M  V30 5433 H 502.828 -6.0603 -3.40225 0
M  V30 5434 H 506.019 -3.93194 -2.54001 0
M  V30 5435 H 506.192 -5.57601 -3.30128 0
M  V30 5436 N 499.598 0.982988 -1.23187 0
M  V30 5437 C 500.823 1.76455 -1.08988 0
M  V30 5438 C 501.248 1.84726 0.354691 0
M  V30 5439 O 500.606 1.30699 1.25649 0
M  V30 5440 C 500.654 3.17094 -1.71708 0
M  V30 5441 O 499.758 4.00648 -0.977477 0
M  V30 5442 H 499.099 0.542988 -0.382177 0
M  V30 5443 H 501.629 1.23413 -1.63188 0
M  V30 5444 H 501.639 3.67684 -1.76841 0
M  V30 5445 H 500.314 3.10389 -2.76823 0
M  V30 5446 H 498.891 3.59161 -1.0029 0
M  V30 5447 N 501.076 1.04316 1.18135 0
M  V30 5448 C 502.487 0.775505 1.69832 0
M  V30 5449 C 502.838 -0.703348 1.8316 0
M  V30 5450 O 501.963 -1.54729 1.51287 0
M  V30 5451 C 502.558 1.40112 3.0847 0
M  V30 5452 C 501.117 1.18172 3.57368 0
M  V30 5453 C 500.264 1.49022 2.33854 0
M  V30 5454 H 503.215 1.20925 1.02775 0
M  V30 5455 H 503.236 0.805672 3.71873 0
M  V30 5456 H 502.748 2.47744 2.98738 0
M  V30 5457 H 500.849 0.124258 3.72393 0
M  V30 5458 H 500.962 1.8805 4.40652 0
M  V30 5459 H 499.326 0.909995 2.37889 0
M  V30 5460 H 500.109 2.57768 2.26738 0
M  V30 5461 N 502.554 -1.34406 0.822964 0
M  V30 5462 C 503.802 -1.97892 0.410245 0
M  V30 5463 C 504.123 -1.65567 -1.03017 0
M  V30 5464 O 503.393 -0.94642 -1.71522 0
M  V30 5465 H 501.973 -0.732049 0.148707 0
M  V30 5466 H 504.635 -1.64043 1.05242 0
M  V30 5467 H 503.731 -3.07579 0.529284 0
M  V30 5468 N 504.032 -0.577932 -1.46621 0
M  V30 5469 C 505.257 -0.0652536 -2.07297 0
M  V30 5470 C 505.682 1.22828 -1.4246 0
M  V30 5471 O 505.04 1.74075 -0.506718 0
M  V30 5472 C 505.088 0.0920589 -3.60482 0
M  V30 5473 O 504.192 1.14972 -3.96049 0
M  V30 5474 H 503.533 -0.06065 -0.661224 0
M  V30 5475 H 506.063 -0.799515 -1.88332 0
M  V30 5476 H 506.073 0.299741 -4.06897 0
M  V30 5477 H 504.748 -0.852612 -4.07067 0
M  V30 5478 H 503.325 0.920879 -3.61351 0
M  V30 5479 N 505.51 1.54411 -0.315457 0
M  V30 5480 C 506.756 2.00716 0.289972 0
M  V30 5481 C 507.089 1.2034 1.5242 0
M  V30 5482 O 506.364 0.283579 1.92422 0
M  V30 5483 C 506.647 3.54507 0.632196 0
M  V30 5484 C 506.5 4.45615 -0.61218 0
M  V30 5485 C 507.819 4.15421 1.45305 0
M  V30 5486 H 504.938 0.729637 0.10392 0
M  V30 5487 H 507.58 1.8506 -0.430427 0
M  V30 5488 H 505.73 3.67979 1.24595 0
M  V30 5489 H 507.402 4.44026 -1.25053 0
M  V30 5490 H 505.645 4.15621 -1.24264 0
M  V30 5491 H 506.316 5.51022 -0.328379 0
M  V30 5492 H 508.792 4.05474 0.934331 0
M  V30 5493 H 507.668 5.23157 1.66127 0
M  V30 5494 H 507.929 3.68223 2.44671 0
M  V30 5495 N 506.988 0.0434614 1.5754 0
M  V30 5496 C 507.918 -0.931651 2.14109 0
M  V30 5497 C 508.899 -1.32971 1.06079 0
M  V30 5498 O 510.084 -1.40579 1.33982 0
M  V30 5499 C 507.214 -2.20914 2.67982 0
M  V30 5500 C 506.168 -1.95139 3.80926 0
M  V30 5501 C 505.494 -3.29276 4.21285 0
M  V30 5502 C 506.794 -1.27913 5.06395 0
M  V30 5503 H 508.488 -0.460497 2.95837 0
M  V30 5504 H 506.034 -0.220058 1.42309 0
M  V30 5505 H 507.987 -2.89522 3.06194 0
M  V30 5506 H 506.711 -2.70221 1.83434 0
M  V30 5507 H 505.37 -1.28945 3.43175 0
M  V30 5508 H 505.018 -3.76369 3.33699 0
M  V30 5509 H 504.718 -3.12831 4.97404 0
M  V30 5510 H 506.242 -3.99129 4.62091 0
M  V30 5511 H 507.656 -1.86544 5.42102 0
M  V30 5512 H 506.053 -1.2182 5.87605 0
M  V30 5513 H 507.123 -0.254066 4.84234 0
M  V30 5514 N 508.466 -1.55915 -0.229846 0
M  V30 5515 C 509.413 -1.91734 -1.28478 0
M  V30 5516 C 510.383 -0.773539 -1.46988 0
M  V30 5517 O 511.568 -1.02871 -1.60693 0
M  V30 5518 C 508.708 -2.23224 -2.63182 0
M  V30 5519 C 507.821 -3.50497 -2.52539 0
M  V30 5520 C 506.956 -3.71474 -3.79711 0
M  V30 5521 C 505.995 -4.92289 -3.63755 0
M  V30 5522 N 505.132 -5.09698 -4.82858 0
M  V30 5523 H 509.972 -2.81692 -0.972308 0
M  V30 5524 H 507.509 -1.39429 -0.468815 0
M  V30 5525 H 509.467 -2.3949 -3.41614 0
M  V30 5526 H 508.097 -1.36451 -2.92542 0
M  V30 5527 H 507.149 -3.4247 -1.65585 0
M  V30 5528 H 508.461 -4.39079 -2.36666 0
M  V30 5529 H 507.615 -3.87791 -4.66586 0
M  V30 5530 H 506.354 -2.81157 -3.985 0
M  V30 5531 H 505.359 -4.7593 -2.75264 0
M  V30 5532 H 506.584 -5.84083 -3.46445 0
M  V30 5533 H 504.53 -4.22322 -5.01976 0
M  V30 5534 H 504.447 -5.92399 -4.69681 0
M  V30 5535 H 505.715 -5.30443 -5.71183 0
M  V30 5536 N 509.944 0.496216 -1.49584 0
M  V30 5537 C 511.355 1.07765 -1.52459 0
M  V30 5538 C 511.706 1.93679 -0.31353 0
M  V30 5539 O 510.831 2.08588 0.576186 0
M  V30 5540 C 511.426 1.96111 -2.76271 0
M  V30 5541 C 509.985 2.49409 -2.81908 0
M  V30 5542 C 509.132 1.27142 -2.46435 0
M  V30 5543 H 512.083 0.279914 -1.56212 0
M  V30 5544 H 512.104 2.80862 -2.56704 0
M  V30 5545 H 511.616 1.33555 -3.64396 0
M  V30 5546 H 509.717 3.1559 -1.98074 0
M  V30 5547 H 509.83 2.86234 -3.84196 0
M  V30 5548 H 508.194 1.59818 -1.98319 0
M  V30 5549 H 508.977 0.662866 -3.3684 0
M  V30 5550 N 511.423 1.38739 0.74761 0
M  V30 5551 C 512.67 1.35274 1.50689 0
M  V30 5552 C 512.998 -0.0553359 1.94421 0
M  V30 5553 O 512.253 -1.03365 1.66175 0
M  V30 5554 C 512.552 2.25992 2.7688 0
M  V30 5555 C 512.218 3.73854 2.5208 0
M  V30 5556 C 510.88 4.14145 2.45025 0
M  V30 5557 C 513.232 4.67427 2.30568 0
M  V30 5558 C 510.56 5.4609 2.14483 0
M  V30 5559 C 512.912 5.99635 2.01545 0
M  V30 5560 C 511.576 6.39004 1.92951 0
M  V30 5561 H 510.846 0.495003 0.55141 0
M  V30 5562 H 513.493 1.71145 0.859158 0
M  V30 5563 H 511.798 1.83196 3.46333 0
M  V30 5564 H 513.495 2.20611 3.34861 0
M  V30 5565 H 510.085 3.41913 2.58444 0
M  V30 5566 H 514.269 4.3714 2.34994 0
M  V30 5567 H 509.525 5.75528 2.06342 0
M  V30 5568 H 513.699 6.71678 1.83906 0
M  V30 5569 H 511.326 7.41165 1.6905 0
M  V30 5570 N 512.901 -0.976442 1.23707 0
M  V30 5571 C 514.147 -1.72081 1.07312 0
M  V30 5572 C 514.48 -1.90275 -0.388476 0
M  V30 5573 O 513.755 -1.4579 -1.28746 0
M  V30 5574 C 514.038 -3.11675 1.80363 0
M  V30 5575 C 513.891 -3.01027 3.3422 0
M  V30 5576 C 515.21 -4.1117 1.5693 0
M  V30 5577 H 512.329 -0.624583 0.391236 0
M  V30 5578 H 514.971 -1.13649 1.52263 0
M  V30 5579 H 513.121 -3.61559 1.42153 0
M  V30 5580 H 514.793 -2.58637 3.81975 0
M  V30 5581 H 513.036 -2.3744 3.63049 0
M  V30 5582 H 513.707 -3.9988 3.80525 0
M  V30 5583 H 516.183 -3.7011 1.90151 0
M  V30 5584 H 515.059 -5.06928 2.10513 0
M  V30 5585 H 515.32 -4.392 0.505548 0
M  V30 5586 N 514.379 -1.04941 -1.1758 0
M  V30 5587 C 515.609 -0.777166 -1.91425 0
M  V30 5588 C 516.017 0.670647 -1.76915 0
M  V30 5589 O 515.36 1.46965 -1.10213 0
M  V30 5590 C 515.422 -1.07495 -3.43052 0
M  V30 5591 C 515.086 -2.51844 -3.81345 0
M  V30 5592 C 516.083 -3.50047 -3.844 0
M  V30 5593 C 513.768 -2.86787 -4.12382 0
M  V30 5594 C 515.762 -4.81239 -4.17957 0
M  V30 5595 C 513.449 -4.18182 -4.45608 0
M  V30 5596 C 514.447 -5.15219 -4.48373 0
M  V30 5597 O 514.135 -6.44258 -4.80819 0
M  V30 5598 H 513.867 -0.282209 -0.614275 0
M  V30 5599 H 516.421 -1.40258 -1.50056 0
M  V30 5600 H 514.651 -0.392437 -3.84704 0
M  V30 5601 H 516.34 -0.78912 -3.98155 0
M  V30 5602 H 517.106 -3.24391 -3.60548 0
M  V30 5603 H 512.985 -2.11922 -4.09402 0
M  V30 5604 H 516.529 -5.56974 -4.2003 0
M  V30 5605 H 512.426 -4.43602 -4.68922 0
M  V30 5606 H 513.194 -6.49041 -4.98686 0
M  V30 5607 N 515.857 1.33968 -0.830081 0
M  V30 5608 C 517.105 1.97672 -0.420734 0
M  V30 5609 C 517.426 1.66111 1.02138 0
M  V30 5610 O 516.696 0.955503 1.71017 0
M  V30 5611 H 515.276 0.73125 -0.152587 0
M  V30 5612 H 517.938 1.63483 -1.0611 0
M  V30 5613 H 517.034 3.07294 -0.545588 0
M  V30 5614 N 517.335 0.585699 1.46312 0
M  V30 5615 C 518.265 -0.133556 2.33118 0
M  V30 5616 C 519.246 -0.880707 1.45525 0
M  V30 5617 O 520.431 -0.855579 1.74337 0
M  V30 5618 C 517.561 -1.14585 3.27853 0
M  V30 5619 C 516.515 -0.513341 4.2491 0
M  V30 5620 C 515.841 -1.63231 5.09175 0
M  V30 5621 C 517.141 0.551413 5.19381 0
M  V30 5622 H 518.835 0.59121 2.93505 0
M  V30 5623 H 516.381 0.285761 1.41136 0
M  V30 5624 H 518.334 -1.65741 3.87438 0
M  V30 5625 H 517.058 -1.90093 2.65579 0
M  V30 5626 H 515.717 -0.0228349 3.66593 0
M  V30 5627 H 515.365 -2.37713 4.43285 0
M  V30 5628 H 515.065 -1.21473 5.74907 0
M  V30 5629 H 516.589 -2.14658 5.71624 0
M  V30 5630 H 518.003 0.124804 5.73164 0
M  V30 5631 H 516.4 0.889486 5.93471 0
M  V30 5632 H 517.47 1.43655 4.63132 0
M  V30 5633 N 518.813 -1.54241 0.323641 0
M  V30 5634 C 519.776 -2.22997 -0.529602 0
M  V30 5635 C 520.776 -1.22345 -1.04347 0
M  V30 5636 O 521.966 -1.46924 -0.935889 0
M  V30 5637 C 519.098 -2.93409 -1.73562 0
M  V30 5638 H 520.291 -2.99815 0.0714518 0
M  V30 5639 H 517.844 -1.56121 0.0747258 0
M  V30 5640 H 518.579 -2.20729 -2.37591 0
M  V30 5641 H 518.364 -3.67217 -1.37456 0
M  V30 5642 H 519.854 -3.45794 -2.34128 0
M  V30 5643 N 520.291 -0.0518155 -1.57515 0
M  V30 5644 C 521.221 0.920283 -2.146 0
M  V30 5645 C 522.202 1.32406 -1.06783 0
M  V30 5646 O 523.387 1.39866 -1.34726 0
M  V30 5647 C 520.517 2.1949 -2.6915 0
M  V30 5648 C 519.471 1.93116 -3.81956 0
M  V30 5649 C 518.797 3.27037 -4.23026 0
M  V30 5650 C 520.097 1.25225 -5.07066 0
M  V30 5651 H 521.791 0.444801 -2.96077 0
M  V30 5652 H 519.337 0.212508 -1.42423 0
M  V30 5653 H 521.29 2.87894 -3.07725 0
M  V30 5654 H 520.014 2.69244 -1.84865 0
M  V30 5655 H 518.673 1.27123 -3.43854 0
M  V30 5656 H 518.321 3.74595 -3.3569 0
M  V30 5657 H 518.021 3.10189 -4.99056 0
M  V30 5658 H 519.545 3.96673 -4.64202 0
M  V30 5659 H 520.959 1.83666 -5.43083 0
M  V30 5660 H 519.356 1.18702 -5.88243 0
M  V30 5661 H 520.426 0.228382 -4.84362 0
M  V30 5662 N 521.769 1.56035 0.221574 0
M  V30 5663 C 523.046 1.69837 0.970301 0
M  V30 5664 C 523.426 0.599065 2.02421 0
M  V30 5665 O 522.774 -0.393929 2.25079 0
M  V30 5666 C 522.984 3.11148 1.58076 0
M  V30 5667 C 524.332 3.70555 2.07302 0
M  V30 5668 O 525.356 3.14109 1.6797 0
M  V30 5669 O 524.215 4.69562 2.79596 0
M  V30 5670 H 521.309 0.691727 0.453257 0
M  V30 5671 H 523.855 1.68353 0.213358 0
M  V30 5672 H 522.627 3.82617 0.819759 0
M  V30 5673 H 522.25 3.16749 2.40324 0
M  V30 5674 N 523.247 -0.488276 1.49845 0
M  V30 5675 C 524.157 -1.61451 1.70207 0
M  V30 5676 C 525.173 -1.63877 0.584846 0
M  V30 5677 O 526.349 -1.82063 0.861107 0
M  V30 5678 C 523.414 -2.9776 1.77594 0
M  V30 5679 C 522.475 -3.05861 3.01243 0
M  V30 5680 C 521.708 -4.35668 3.08268 0
M  V30 5681 O 521.931 -5.25197 2.22541 0
M  V30 5682 O 520.865 -4.49005 4.00847 0
M  V30 5683 H 524.691 -1.47199 2.65643 0
M  V30 5684 H 522.276 -0.665939 1.33737 0
M  V30 5685 H 524.158 -3.7875 1.84732 0
M  V30 5686 H 522.833 -3.12248 0.8534 0
M  V30 5687 H 521.74 -2.24012 2.99616 0
M  V30 5688 H 523.073 -2.96304 3.9302 0
M  V30 5689 N 524.725 -1.39134 -0.740242 0
M  V30 5690 C 525.973 -1.35803 -1.49673 0
M  V30 5691 C 526.294 0.0470897 -1.94943 0
M  V30 5692 O 525.564 0.997347 -1.68611 0
M  V30 5693 H 524.144 -0.499736 -0.555224 0
M  V30 5694 H 526.806 -1.73947 -0.879107 0
M  V30 5695 H 525.902 -2.0174 -2.38133 0
M  V30 5696 N 526.204 0.969867 -1.24223 0
M  V30 5697 C 527.134 2.08191 -1.05729 0
M  V30 5698 C 528.115 1.70075 0.0290765 0
M  V30 5699 O 529.3 1.93712 -0.137583 0
M  V30 5700 C 526.43 3.40991 -0.658995 0
M  V30 5701 C 525.384 3.93054 -1.69389 0
M  V30 5702 C 524.71 5.22171 -1.15072 0
M  V30 5703 C 526.01 4.21137 -3.08935 0
M  V30 5704 H 527.704 2.23921 -1.98746 0
M  V30 5705 H 525.25 1.07602 -0.956967 0
M  V30 5706 H 527.203 4.18221 -0.51662 0
M  V30 5707 H 525.927 3.25155 0.30686 0
M  V30 5708 H 524.586 3.17977 -1.82444 0
M  V30 5709 H 524.234 5.02694 -0.175539 0
M  V30 5710 H 523.934 5.57973 -1.84229 0
M  V30 5711 H 525.458 6.02013 -1.02042 0
M  V30 5712 H 526.872 4.8908 -2.99121 0
M  V30 5713 H 525.269 4.68163 -3.75425 0
M  V30 5714 H 526.339 3.27996 -3.57137 0
M  V30 5715 N 527.682 1.05563 1.17022 0
M  V30 5716 C 528.931 0.763036 1.8671 0
M  V30 5717 C 529.244 -0.712857 1.82147 0
M  V30 5718 O 530.45 -1.11955 2.47343 0
M  V30 5719 C 528.906 1.31474 3.35026 0
M  V30 5720 C 528.514 2.82034 3.48081 0
M  V30 5721 C 530.258 1.09935 4.10018 0
M  V30 5722 C 528.165 3.30486 4.90442 0
M  V30 5723 H 527.095 0.281747 0.699382 0
M  V30 5724 H 529.746 1.2734 1.32124 0
M  V30 5725 H 528.128 0.732171 3.89173 0
M  V30 5726 H 529.302 3.46178 3.04133 0
M  V30 5727 H 527.617 3.02156 2.86515 0
M  V30 5728 H 530.214 1.43632 5.15048 0
M  V30 5729 H 530.557 0.0373072 4.16283 0
M  V30 5730 H 531.09 1.64732 3.62089 0
M  V30 5731 H 527.829 4.36137 4.89352 0
M  V30 5732 H 527.349 2.71086 5.35044 0
M  V30 5733 H 529.028 3.25382 5.59227 0
M  V30 5734 N 529.16 -1.33526 0.837174 0
M  V30 5735 C 530.11 -2.2672 0.241269 0
M  V30 5736 C 531.094 -1.49183 -0.602756 0
M  V30 5737 O 532.286 -1.71052 -0.455002 0
M  V30 5738 C 529.415 -3.38294 -0.584125 0
M  V30 5739 C 528.501 -4.23231 0.271315 0
M  V30 5740 N 528.892 -4.87473 1.34922 0
M  V30 5741 C 527.19 -4.45962 0.0580589 0
M  V30 5742 C 527.891 -5.50685 1.87405 0
M  V30 5743 N 526.867 -5.30732 1.17578 0
M  V30 5744 H 530.669 -2.73903 1.06558 0
M  V30 5745 H 528.183 -1.47411 0.68145 0
M  V30 5746 H 530.18 -4.04044 -1.02731 0
M  V30 5747 H 528.84 -2.9266 -1.40643 0
M  V30 5748 H 529.851 -4.88077 1.7321 0
M  V30 5749 H 526.528 -4.11052 -0.730938 0
M  V30 5750 H 527.918 -6.11845 2.77661 0
M  V30 5751 N 530.638 -0.59345 -1.46 0
M  V30 5752 C 532.049 -0.169801 -1.85926 0
M  V30 5753 C 532.4 1.26984 -1.49565 0
M  V30 5754 O 531.525 1.96076 -0.915602 0
M  V30 5755 C 532.12 -0.301385 -3.37457 0
M  V30 5756 C 530.679 0.0674684 -3.7634 0
M  V30 5757 C 529.826 -0.632383 -2.69993 0
M  V30 5758 H 532.777 -0.801014 -1.37002 0
M  V30 5759 H 532.798 0.470331 -3.77582 0
M  V30 5760 H 532.31 -1.34927 -3.63891 0
M  V30 5761 H 530.411 1.11507 -3.55523 0
M  V30 5762 H 530.524 -0.316332 -4.78055 0
M  V30 5763 H 528.888 -0.0714961 -2.546 0
M  V30 5764 H 529.671 -1.68212 -2.99265 0
M  V30 5765 N 532.116 1.54067 -0.331816 0
M  V30 5766 C 533.079 2.23275 0.517768 0
M  V30 5767 C 534.079 1.22897 1.03697 0
M  V30 5768 O 535.269 1.47419 0.928084 0
M  V30 5769 C 532.401 2.94326 1.72004 0
M  V30 5770 H 533.594 2.99773 -0.0873507 0
M  V30 5771 H 531.147 1.56079 -0.0830042 0
M  V30 5772 H 531.882 2.21986 2.36417 0
M  V30 5773 H 531.667 3.67941 1.35507 0
M  V30 5774 H 533.157 3.47031 2.32291 0
M  V30 5775 N 533.594 0.0601682 1.57485 0
M  V30 5776 C 534.819 -0.624416 1.97777 0
M  V30 5777 C 535.244 -1.63051 0.937867 0
M  V30 5778 O 534.602 -1.81036 -0.0978845 0
M  V30 5779 C 534.65 -1.27979 3.37126 0
M  V30 5780 O 533.754 -2.39556 3.35688 0
M  V30 5781 H 533.095 -0.161581 0.64404 0
M  V30 5782 H 535.625 0.131237 2.04179 0
M  V30 5783 H 535.635 -1.62937 3.74053 0
M  V30 5784 H 534.31 -0.542501 4.12347 0
M  V30 5785 H 532.887 -2.06478 3.10517 0
M  V30 5786 N 535.072 -1.5615 -0.213296 0
M  V30 5787 C 536.002 -1.96109 -1.26742 0
M  V30 5788 C 536.983 -0.830448 -1.48451 0
M  V30 5789 O 538.168 -1.09339 -1.60495 0
M  V30 5790 C 535.298 -2.28492 -2.61551 0
M  V30 5791 C 534.252 -3.44124 -2.54485 0
M  V30 5792 C 533.578 -3.62134 -3.93399 0
M  V30 5793 C 534.878 -4.78855 -2.08556 0
M  V30 5794 H 536.572 -2.84412 -0.935434 0
M  V30 5795 H 534.118 -1.36836 -0.44854 0
M  V30 5796 H 536.071 -2.55039 -3.3546 0
M  V30 5797 H 534.795 -1.37052 -2.96453 0
M  V30 5798 H 533.454 -3.17639 -1.83033 0
M  V30 5799 H 533.102 -2.68055 -4.25623 0
M  V30 5800 H 532.802 -4.39913 -3.89551 0
M  V30 5801 H 534.326 -3.91038 -4.68958 0
M  V30 5802 H 535.74 -5.04552 -2.72213 0
M  V30 5803 H 534.137 -5.59975 -2.1575 0
M  V30 5804 H 535.207 -4.73657 -1.03811 0
M  V30 5805 N 536.55 0.480323 -1.50102 0
M  V30 5806 C 537.48 1.58769 -1.71215 0
M  V30 5807 C 538.461 1.60583 -0.560997 0
M  V30 5808 O 539.646 1.76996 -0.799127 0
M  V30 5809 C 536.776 2.97148 -1.79778 0
M  V30 5810 C 535.73 3.10201 -2.94888 0
M  V30 5811 C 535.056 4.50137 -2.88584 0
M  V30 5812 C 536.356 2.88283 -4.35534 0
M  V30 5813 H 538.05 1.41354 -2.6393 0
M  V30 5814 H 535.596 0.678591 -1.27008 0
M  V30 5815 H 537.549 3.74536 -1.93133 0
M  V30 5816 H 536.273 3.15699 -0.836772 0
M  V30 5817 H 534.932 2.35244 -2.81169 0
M  V30 5818 H 534.58 4.65593 -1.90349 0
M  V30 5819 H 534.28 4.59808 -3.65856 0
M  V30 5820 H 535.804 5.29558 -3.03976 0
M  V30 5821 H 537.218 3.55427 -4.49827 0
M  V30 5822 H 535.615 3.09408 -5.14186 0
M  V30 5823 H 536.685 1.84219 -4.48544 0
M  V30 5824 N 538.028 1.39524 0.732853 0
M  V30 5825 C 538.96 1.34318 1.85718 0
M  V30 5826 C 539.973 0.251576 1.60844 0
M  V30 5827 O 541.162 0.510685 1.71039 0
M  V30 5828 C 538.262 1.06334 3.21786 0
M  V30 5829 C 537.435 2.26813 3.73998 0
M  V30 5830 C 536.494 1.95253 4.88634 0
M  V30 5831 O 535.52 2.67957 5.02183 0
M  V30 5832 N 536.722 0.919984 5.73164 0
M  V30 5833 H 539.487 2.3121 1.90688 0
M  V30 5834 H 537.048 1.33654 0.91368 0
M  V30 5835 H 539.04 0.832363 3.96048 0
M  V30 5836 H 537.61 0.181682 3.12072 0
M  V30 5837 H 536.83 2.65849 2.91064 0
M  V30 5838 H 538.118 3.0717 4.05616 0
M  V30 5839 H 537.516 0.317487 5.64808 0
M  V30 5840 H 536.073 0.748905 6.47483 0
M  V30 5841 N 539.506 -0.963266 1.24736 0
M  V30 5842 C 540.783 -1.68248 0.9976 0
M  V30 5843 C 541.163 -2.05599 -0.478776 0
M  V30 5844 O 540.511 -1.7626 -1.45412 0
M  V30 5845 C 540.721 -2.91118 1.92487 0
M  V30 5846 C 542.069 -3.63261 2.19833 0
M  V30 5847 O 543.093 -3.01184 1.90176 0
M  V30 5848 O 541.952 -4.75019 2.7022 0
M  V30 5849 H 539.046 -0.735744 0.377637 0
M  V30 5850 H 541.592 -1.01696 1.35853 0
M  V30 5851 H 540.364 -2.60242 2.92215 0
M  V30 5852 H 539.987 -3.65402 1.56738 0
M  V30 5853 N 540.985 -1.06182 -1.16461 0
M  V30 5854 C 542.231 -0.779015 -1.87241 0
M  V30 5855 C 542.564 0.692715 -1.81425 0
M  V30 5856 O 541.839 1.5074 -1.22913 0
M  V30 5857 C 542.122 -1.2728 -3.36856 0
M  V30 5858 C 541.975 -2.80821 -3.51368 0
M  V30 5859 C 543.294 -0.879799 -4.31216 0
M  V30 5860 H 540.413 -0.284464 -0.679889 0
M  V30 5861 H 543.055 -1.31755 -1.36896 0
M  V30 5862 H 541.205 -0.814673 -3.79862 0
M  V30 5863 H 542.877 -3.34833 -3.17308 0
M  V30 5864 H 541.12 -3.19606 -2.93316 0
M  V30 5865 H 541.791 -3.10435 -4.56436 0
M  V30 5866 H 544.267 -1.27436 -3.96105 0
M  V30 5867 H 543.143 -1.25278 -5.34412 0
M  V30 5868 H 543.404 0.215372 -4.41575 0
M  V30 5869 N 542.463 1.3308 -0.844243 0
M  V30 5870 C 543.874 1.7992 -0.498566 0
M  V30 5871 C 544.225 1.69808 0.982834 0
M  V30 5872 O 543.35 1.25051 1.7661 0
M  V30 5873 C 543.945 3.26677 -0.898204 0
M  V30 5874 C 542.504 3.71513 -0.604583 0
M  V30 5875 C 541.651 2.54393 -1.10362 0
M  V30 5876 H 544.602 1.20526 -1.03244 0
M  V30 5877 H 544.623 3.79918 -0.21039 0
M  V30 5878 H 544.135 3.34004 -1.97643 0
M  V30 5879 H 542.236 3.69708 0.46335 0
M  V30 5880 H 542.349 4.64755 -1.16358 0
M  V30 5881 H 540.713 2.49246 -0.524273 0
M  V30 5882 H 541.496 2.6448 -2.18873 0
M  V30 5883 N 543.941 0.601185 1.45683 0
M  V30 5884 C 545.357 0.264315 1.57396 0
M  V30 5885 C 545.557 -1.23324 1.59353 0
M  V30 5886 O 544.613 -2.01594 1.52039 0
M  V30 5887 C 545.926 0.929839 2.85962 0
M  V30 5888 C 547.474 0.905156 2.99626 0
M  V30 5889 C 547.949 1.55057 4.30954 0
M  V30 5890 N 549.44 1.51576 4.37697 0
M  V30 5891 C 550.175 1.98436 5.37969 0
M  V30 5892 N 549.671 2.53352 6.44813 0
M  V30 5893 N 551.464 1.89242 5.29286 0
M  V30 5894 H 543.615 1.57363 1.42656 0
M  V30 5895 H 545.878 0.658831 0.681649 0
M  V30 5896 H 545.584 1.98404 2.90394 0
M  V30 5897 H 545.458 0.449224 3.74515 0
M  V30 5898 H 547.845 -0.14048 2.94765 0
M  V30 5899 H 547.926 1.42397 2.12501 0
M  V30 5900 H 547.57 2.5955 4.36573 0
M  V30 5901 H 547.5 1.00682 5.16886 0
M  V30 5902 H 549.991 1.11452 3.61091 0
M  V30 5903 H 550.304 2.86918 7.17564 0
M  V30 5904 H 548.649 2.57388 6.45582 0
M  V30 5905 H 551.84 1.46083 4.44722 0
M  V30 5906 H 552.013 2.26075 6.07284 0
M  V30 5907 N 545.419 -1.53889 0.339982 0
M  V30 5908 C 546.835 -1.59595 -0.0120752 0
M  V30 5909 C 547.035 -1.35605 -1.49042 0
M  V30 5910 O 546.091 -1.14856 -2.24865 0
M  V30 5911 C 547.404 -2.9774 0.420898 0
M  V30 5912 C 548.952 -3.1077 0.37294 0
M  V30 5913 C 549.427 -4.51286 0.781327 0
M  V30 5914 N 550.918 -4.57325 0.735374 0
M  V30 5915 C 551.653 -5.64194 1.02336 0
M  V30 5916 N 551.149 -6.7893 1.37933 0
M  V30 5917 N 552.942 -5.54051 0.947838 0
M  V30 5918 H 545.093 -1.67738 1.30299 0
M  V30 5919 H 547.356 -0.785385 0.530918 0
M  V30 5920 H 547.062 -3.20349 1.45152 0
M  V30 5921 H 546.936 -3.76639 -0.205721 0
M  V30 5922 H 549.323 -2.87886 -0.648505 0
M  V30 5923 H 549.404 -2.33939 1.03472 0
M  V30 5924 H 549.048 -4.74905 1.80077 0
M  V30 5925 H 548.978 -5.26511 0.0970679 0
M  V30 5926 H 551.469 -3.74931 0.472773 0
M  V30 5927 H 551.782 -7.56392 1.58402 0
M  V30 5928 H 550.127 -6.80386 1.41774 0
M  V30 5929 H 553.318 -4.63293 0.669115 0
M  V30 5930 H 553.491 -6.37246 1.17563 0
M  V30 5931 N 546.897 -0.0685191 -1.57451 0
M  V30 5932 C 548.125 0.610462 -1.97689 0
M  V30 5933 C 548.54 1.63346 -0.946758 0
M  V30 5934 O 547.897 1.82377 0.0669868 0
M  V30 5935 C 547.948 1.28196 -3.38006 0
M  V30 5936 O 547.669 0.299906 -4.37072 0
M  V30 5937 C 549.17 2.04907 -3.931 0
M  V30 5938 H 546.39 0.165689 -0.650222 0
M  V30 5939 H 548.934 -0.139953 -2.04021 0
M  V30 5940 H 547.089 1.98348 -3.32771 0
M  V30 5941 H 547.503 0.78126 -5.18649 0
M  V30 5942 H 548.977 2.47287 -4.93511 0
M  V30 5943 H 549.454 2.9043 -3.29465 0
M  V30 5944 H 550.06 1.39629 -4.01726 0
M  V30 5945 N 548.375 1.56261 0.205012 0
M  V30 5946 C 549.623 1.79684 0.925096 0
M  V30 5947 C 549.944 0.63989 1.84202 0
M  V30 5948 O 549.214 -0.342345 1.92885 0
M  V30 5949 H 547.794 0.662774 0.344587 0
M  V30 5950 H 550.456 1.93734 0.212899 0
M  V30 5951 H 549.552 2.72467 1.52211 0
M  V30 5952 N 549.853 -0.472356 1.50355 0
M  V30 5953 C 551.13 -1.23356 1.51798 0
M  V30 5954 C 551.51 -2.09469 0.26193 0
M  V30 5955 O 550.858 -2.15677 -0.754691 0
M  V30 5956 C 551.068 -2.06568 2.81302 0
M  V30 5957 C 552.416 -2.648 3.31913 0
M  V30 5958 O 553.44 -2.16812 2.82614 0
M  V30 5959 O 552.299 -3.52231 4.17846 0
M  V30 5960 H 549.393 -0.559707 0.608816 0
M  V30 5961 H 551.939 -0.48428 1.62643 0
M  V30 5962 H 550.711 -1.43103 3.64194 0
M  V30 5963 H 550.334 -2.88633 2.73454 0
M  V30 5964 N 551.331 -1.39911 -0.725443 0
M  V30 5965 C 552.561 -1.40744 -1.51244 0
M  V30 5966 C 552.969 -0.00275403 -1.892 0
M  V30 5967 O 552.312 0.981299 -1.55294 0
M  V30 5968 C 552.374 -2.22527 -2.82351 0
M  V30 5969 C 552.038 -3.71053 -2.66774 0
M  V30 5970 C 553.035 -4.63916 -2.34686 0
M  V30 5971 C 550.72 -4.14753 -2.83347 0
M  V30 5972 C 552.714 -5.98463 -2.19366 0
M  V30 5973 C 550.401 -5.49372 -2.67644 0
M  V30 5974 C 551.399 -6.41042 -2.357 0
M  V30 5975 O 551.087 -7.73181 -2.20107 0
M  V30 5976 H 550.819 -0.482314 -0.473655 0
M  V30 5977 H 553.373 -1.84472 -0.903284 0
M  V30 5978 H 551.603 -1.73563 -3.45562 0
M  V30 5979 H 553.292 -2.15421 -3.44018 0
M  V30 5980 H 554.058 -4.31453 -2.21525 0
M  V30 5981 H 549.937 -3.43728 -3.072 0
M  V30 5982 H 553.481 -6.69979 -1.94354 0
M  V30 5983 H 549.378 -5.81424 -2.80387 0
M  V30 5984 H 550.146 -7.84008 -2.35103 0
M  V30 5985 N 552.809 0.956637 -1.25245 0
M  V30 5986 C 554.225 1.22733 -1.02023 0
M  V30 5987 C 554.425 1.99761 0.264186 0
M  V30 5988 O 553.481 2.32814 0.977436 0
M  V30 5989 C 554.794 2.00367 -2.24217 0
M  V30 5990 C 556.342 2.13418 -2.28958 0
M  V30 5991 C 556.817 2.9445 -3.50803 0
M  V30 5992 N 558.308 3.02029 -3.51187 0
M  V30 5993 C 559.043 3.65116 -4.42129 0
M  V30 5994 N 558.539 4.2983 -5.43339 0
M  V30 5995 N 560.332 3.62237 -4.29815 0
M  V30 5996 H 552.483 0.441282 -2.07765 0
M  V30 5997 H 554.746 0.257686 -0.912306 0
M  V30 5998 H 554.452 1.51165 -3.17556 0
M  V30 5999 H 554.326 3.01077 -2.27228 0
M  V30 6000 H 556.713 2.61819 -1.36143 0
M  V30 6001 H 556.794 1.1202 -2.29968 0
M  V30 6002 H 556.438 2.46741 -4.43939 0
M  V30 6003 H 556.368 3.9607 -3.47039 0
M  V30 6004 H 558.859 2.56007 -2.77973 0
M  V30 6005 H 559.172 4.75819 -6.08947 0
M  V30 6006 H 557.517 4.28465 -5.47214 0
M  V30 6007 H 560.708 3.10863 -3.49974 0
M  V30 6008 H 560.881 4.11117 -5.00886 0
M  V30 6009 N 554.287 1.06798 1.15896 0
M  V30 6010 C 555.698 0.811355 1.68149 0
M  V30 6011 C 556.049 -0.664339 1.8461 0
M  V30 6012 O 555.174 -1.51485 1.54535 0
M  V30 6013 C 555.769 1.46624 3.05429 0
M  V30 6014 C 554.328 1.25726 3.54781 0
M  V30 6015 C 553.475 1.53949 2.3064 0
M  V30 6016 H 556.426 1.23078 1.00187 0
M  V30 6017 H 556.447 0.88437 3.7008 0
M  V30 6018 H 555.959 2.54025 2.93416 0
M  V30 6019 H 554.06 0.20322 3.72045 0
M  V30 6020 H 554.173 1.97354 4.36564 0
M  V30 6021 H 552.537 0.96025 2.35905 0
M  V30 6022 H 553.32 2.6252 2.2122 0
M  V30 6023 N 555.766 -1.3263 0.851289 0
M  V30 6024 C 557.014 -1.96978 0.452128 0
M  V30 6025 C 557.335 -1.67715 -0.99482 0
M  V30 6026 O 556.605 -0.98259 -1.69476 0
M  V30 6027 H 555.185 -0.72873 0.164202 0
M  V30 6028 H 557.847 -1.61774 1.08698 0
M  V30 6029 H 556.943 -3.06387 0.594407 0
M  V30 6030 N 557.244 -0.608902 -1.45362 0
M  V30 6031 C 558.192 0.121639 -2.32282 0
M  V30 6032 C 559.186 0.858301 -1.46046 0
M  V30 6033 O 560.392 0.773718 -1.62523 0
M  V30 6034 H 556.767 0.058086 -0.749753 0
M  V30 6035 H 558.738 -0.629866 -2.91677 0
M  V30 6036 C 557.487 1.1047 -3.29684 0
M  V30 6037 H 556.81 0.547278 -3.96036 0
M  V30 6038 H 558.25 1.58576 -3.9323 0
M  V30 6039 C 556.709 2.17891 -2.56954 0
M  V30 6040 O 557.239 3.25652 -2.35189 0
M  V30 6041 N 555.445 1.93211 -2.17066 0
M  V30 6042 H 554.992 1.05584 -2.34967 0
M  V30 6043 H 554.95 2.6529 -1.68727 0
M  V30 6044 N 558.722 1.53707 -0.348139 0
M  V30 6045 C 559.969 2.00988 0.246966 0
M  V30 6046 C 560.297 1.23586 1.50189 0
M  V30 6047 O 559.552 0.312817 1.93184 0
M  V30 6048 C 559.851 3.52292 0.602061 0
M  V30 6049 C 559.517 4.47453 -0.556509 0
M  V30 6050 C 558.179 4.73188 -0.874446 0
M  V30 6051 C 560.531 5.03851 -1.33354 0
M  V30 6052 C 557.859 5.52577 -1.9717 0
M  V30 6053 C 560.211 5.84437 -2.42108 0
M  V30 6054 C 558.875 6.08465 -2.74456 0
M  V30 6055 H 558.145 0.735469 0.0903712 0
M  V30 6056 H 560.792 1.85464 -0.477001 0
M  V30 6057 H 559.097 3.65672 1.40681 0
M  V30 6058 H 560.794 3.86337 1.07447 0
M  V30 6059 H 557.384 4.27558 -0.298652 0
M  V30 6060 H 561.568 4.8393 -1.10117 0
M  V30 6061 H 556.824 5.69418 -2.22651 0
M  V30 6062 H 560.998 6.27151 -3.02745 0
M  V30 6063 H 558.625 6.69768 -3.59604 0
M  V30 6064 N 560.2 0.0768682 1.57412 0
M  V30 6065 C 561.477 -0.632359 1.85096 0
M  V30 6066 C 561.857 -1.87479 0.9703 0
M  V30 6067 O 561.205 -2.28469 0.0379062 0
M  V30 6068 C 561.415 -0.965174 3.35388 0
M  V30 6069 C 562.763 -1.33648 4.03018 0
M  V30 6070 O 563.787 -1.05675 3.40164 0
M  V30 6071 O 562.646 -1.85959 5.13889 0
M  V30 6072 H 559.74 -0.314574 0.764835 0
M  V30 6073 H 562.286 0.108184 1.69355 0
M  V30 6074 H 561.058 -0.0829745 3.91212 0
M  V30 6075 H 560.681 -1.76231 3.5641 0
M  V30 6076 N 561.678 -1.56367 -0.196722 0
M  V30 6077 C 562.903 -1.84991 -0.937714 0
M  V30 6078 C 563.328 -0.660244 -1.76132 0
M  V30 6079 O 562.686 0.390967 -1.77034 0
M  V30 6080 C 562.734 -3.11828 -1.81096 0
M  V30 6081 O 561.838 -2.92266 -2.90955 0
M  V30 6082 H 561.179 -0.609193 -0.264159 0
M  V30 6083 H 563.709 -2.03595 -0.202529 0
M  V30 6084 H 563.719 -3.42579 -2.21594 0
M  V30 6085 H 562.394 -3.98037 -1.2058 0
M  V30 6086 H 560.971 -2.72809 -2.54224 0
M  V30 6087 N 563.156 0.464375 -1.50603 0
M  V30 6088 C 564.404 1.21356 -1.61608 0
M  V30 6089 C 564.725 1.92329 -0.321643 0
M  V30 6090 O 563.995 1.84403 0.661232 0
M  V30 6091 H 562.575 0.45094 -0.595535 0
M  V30 6092 H 565.237 0.535046 -1.87412 0
M  V30 6093 H 564.333 1.95783 -2.43054 0
M  V30 6094 N 564.634 1.40294 0.718013 0
M  V30 6095 C 565.881 1.3844 1.47786 0
M  V30 6096 C 566.209 -0.0140838 1.94495 0
M  V30 6097 O 565.464 -0.998165 1.68331 0
M  V30 6098 C 565.763 2.31814 2.72024 0
M  V30 6099 C 565.429 3.79117 2.44093 0
M  V30 6100 C 564.091 4.19249 2.36185 0
M  V30 6101 C 566.443 4.72212 2.20602 0
M  V30 6102 C 563.771 5.50516 2.02851 0
M  V30 6103 C 566.123 6.03775 1.88781 0
M  V30 6104 C 564.787 6.42953 1.79354 0
M  V30 6105 H 564.057 0.506588 0.540786 0
M  V30 6106 H 566.704 1.72929 0.822663 0
M  V30 6107 H 565.009 1.90501 3.42369 0
M  V30 6108 H 566.706 2.27664 3.30106 0
M  V30 6109 H 563.296 3.47318 2.51133 0
M  V30 6110 H 567.48 4.42026 2.25669 0
M  V30 6111 H 562.736 5.79776 1.94088 0
M  V30 6112 H 566.91 6.75428 1.69617 0
M  V30 6113 H 564.537 7.44584 1.53291 0
M  V30 6114 N 566.112 -0.949982 1.2575 0
M  V30 6115 C 567.062 -2.03297 1.03221 0
M  V30 6116 C 568.046 -1.60867 -0.0324751 0
M  V30 6117 O 569.238 -1.76047 0.183423 0
M  V30 6118 C 566.367 -3.36938 0.657841 0
M  V30 6119 C 565.453 -3.85878 1.75952 0
M  V30 6120 N 565.844 -4.0756 2.99547 0
M  V30 6121 C 564.142 -4.14709 1.64111 0
M  V30 6122 C 564.843 -4.47961 3.71087 0
M  V30 6123 N 563.819 -4.5416 2.98731 0
M  V30 6124 H 567.621 -2.1806 1.97045 0
M  V30 6125 H 565.135 -1.13516 1.16138 0
M  V30 6126 H 567.132 -4.14155 0.477614 0
M  V30 6127 H 565.792 -3.2355 -0.273025 0
M  V30 6128 H 566.803 -3.94501 3.35544 0
M  V30 6129 H 563.48 -4.10158 0.779527 0
M  V30 6130 H 564.87 -4.73002 4.77199 0
M  V30 6131 N 567.59 -1.07411 -1.15328 0
M  V30 6132 C 568.838 -0.796073 -1.85761 0
M  V30 6133 C 569.159 0.679864 -1.82764 0
M  V30 6134 O 568.429 1.49242 -1.269 0
M  V30 6135 H 567.009 -0.291495 -0.687779 0
M  V30 6136 H 569.671 -1.35799 -1.39802 0
M  V30 6137 H 568.767 -1.13114 -2.90881 0
M  V30 6138 N 569.068 1.32177 -0.85831 0
M  V30 6139 C 570.479 1.79381 -0.517621 0
M  V30 6140 C 570.83 1.70841 0.964769 0
M  V30 6141 O 569.955 1.26917 1.75274 0
M  V30 6142 C 570.55 3.25706 -0.932801 0
M  V30 6143 C 569.109 3.70851 -0.643953 0
M  V30 6144 C 568.256 2.53208 -1.13054 0
M  V30 6145 H 571.207 1.19424 -1.04516 0
M  V30 6146 H 571.228 3.79673 -0.250674 0
M  V30 6147 H 570.74 3.31889 -2.01174 0
M  V30 6148 H 568.841 3.70178 0.424112 0
M  V30 6149 H 568.954 4.63495 -1.21281 0
M  V30 6150 H 567.318 2.48676 -0.550679 0
M  V30 6151 H 568.101 2.62143 -2.21666 0
M  V30 6152 N 570.547 0.616602 1.45037 0
M  V30 6153 C 571.796 0.112861 2.01384 0
M  V30 6154 C 572.109 -1.26758 1.48969 0
M  V30 6155 O 573.315 -1.86454 1.9735 0
M  V30 6156 C 571.771 0.151057 3.59583 0
M  V30 6157 C 571.379 1.53191 4.20995 0
M  V30 6158 C 573.123 -0.296974 4.2346 0
M  V30 6159 C 571.03 1.526 5.71373 0
M  V30 6160 H 569.96 0.0384254 0.75302 0
M  V30 6161 H 572.611 0.773262 1.66412 0
M  V30 6162 H 570.993 -0.57617 3.91786 0
M  V30 6163 H 572.167 2.28156 4.00352 0
M  V30 6164 H 570.482 1.92279 3.69348 0
M  V30 6165 H 573.079 -0.320712 5.33737 0
M  V30 6166 H 573.422 -1.32145 3.9477 0
M  V30 6167 H 573.955 0.377279 3.96007 0
M  V30 6168 H 570.694 2.52837 6.04776 0
M  V30 6169 H 570.214 0.819064 5.94181 0
M  V30 6170 H 571.893 1.25357 6.3474 0
M  V30 6171 N 572.025 -1.5352 0.356285 0
M  V30 6172 C 573.25 -2.06007 -0.239961 0
M  V30 6173 C 573.675 -1.22872 -1.42422 0
M  V30 6174 O 573.033 -0.245516 -1.7963 0
M  V30 6175 C 573.081 -3.5522 -0.620587 0
M  V30 6176 O 572.185 -3.74864 -1.71902 0
M  V30 6177 H 571.526 -0.662961 -0.0371377 0
M  V30 6178 H 574.056 -1.98033 0.514194 0
M  V30 6179 H 574.066 -3.98081 -0.894197 0
M  V30 6180 H 572.741 -4.15175 0.245407 0
M  V30 6181 H 571.318 -3.43904 -1.44169 0
M  V30 6182 N 573.503 -0.0852151 -1.57369 0
M  V30 6183 C 574.436 0.913608 -2.09113 0
M  V30 6184 C 575.414 1.28264 -0.999358 0
M  V30 6185 O 576.598 1.3896 -1.27367 0
M  V30 6186 C 573.725 2.21777 -2.55993 0
M  V30 6187 C 572.771 1.99932 -3.76735 0
M  V30 6188 S 573.604 1.24637 -5.20794 0
M  V30 6189 C 574.76 2.56304 -5.71016 0
M  V30 6190 H 574.993 0.473369 -2.93507 0
M  V30 6191 H 572.526 0.127856 -1.5387 0
M  V30 6192 H 574.484 2.96726 -2.83662 0
M  V30 6193 H 573.145 2.62923 -1.71843 0
M  V30 6194 H 572.338 2.96482 -4.07571 0
M  V30 6195 H 571.94 1.33116 -3.49509 0
M  V30 6196 H 574.232 3.5233 -5.78679 0
M  V30 6197 H 575.175 2.3006 -6.69685 0
M  V30 6198 H 575.583 2.64125 -4.98897 0
M  V30 6199 N 574.981 1.5647 0.188427 0
M  V30 6200 C 576.206 1.85486 0.927891 0
M  V30 6201 C 576.631 0.669575 1.75779 0
M  V30 6202 O 575.989 -0.381573 1.77239 0
M  V30 6203 C 576.037 3.12784 1.7944 0
M  V30 6204 O 575.141 2.93805 2.894 0
M  V30 6205 H 574.482 0.610585 0.260925 0
M  V30 6206 H 577.012 2.037 0.191729 0
M  V30 6207 H 577.022 3.43749 2.19774 0
M  V30 6208 H 575.697 3.98671 1.18468 0
M  V30 6209 H 574.274 2.74153 2.52774 0
M  V30 6210 N 576.459 -0.456382 1.50847 0
M  V30 6211 C 577.369 -1.57805 1.73594 0
M  V30 6212 C 578.385 -1.62599 0.619476 0
M  V30 6213 O 579.561 -1.80195 0.899532 0
M  V30 6214 C 576.626 -2.93926 1.8387 0
M  V30 6215 C 575.687 -2.99402 3.07663 0
M  V30 6216 C 574.92 -4.29031 3.1744 0
M  V30 6217 O 575.143 -5.20358 2.33631 0
M  V30 6218 O 574.077 -4.40401 4.10281 0
M  V30 6219 H 577.903 -1.41531 2.68705 0
M  V30 6220 H 575.488 -0.637422 1.3512 0
M  V30 6221 H 577.37 -3.74747 1.92725 0
M  V30 6222 H 576.045 -3.10368 0.91944 0
M  V30 6223 H 574.952 -2.17606 3.043 0
M  V30 6224 H 576.285 -2.87901 3.99216 0
M  V30 6225 N 577.937 -1.40673 -0.710563 0
M  V30 6226 C 578.9 -1.4108 -1.80635 0
M  V30 6227 C 579.9 -0.303783 -1.57904 0
M  V30 6228 O 581.09 -0.562937 -1.64853 0
M  V30 6229 C 578.222 -1.20748 -3.18799 0
M  V30 6230 H 579.415 -2.38612 -1.81671 0
M  V30 6231 H 576.968 -1.26595 -0.916704 0
M  V30 6232 H 577.703 -0.239964 -3.23411 0
M  V30 6233 H 577.488 -2.00941 -3.36698 0
M  V30 6234 H 578.978 -1.23833 -3.98817 0
M  V30 6235 N 579.415 0.9433 -1.26252 0
M  V30 6236 C 580.345 2.05902 -1.10122 0
M  V30 6237 C 581.326 1.70099 -0.00700552 0
M  V30 6238 O 582.511 1.93377 -0.178641 0
M  V30 6239 C 579.641 3.39516 -0.731175 0
M  V30 6240 C 578.595 3.89372 -1.77688 0
M  V30 6241 C 577.921 5.19613 -1.26122 0
M  V30 6242 C 579.221 4.14489 -3.17799 0
M  V30 6243 H 580.915 2.19655 -2.03451 0
M  V30 6244 H 578.461 1.05548 -0.979576 0
M  V30 6245 H 580.414 4.17031 -0.605215 0
M  V30 6246 H 579.138 3.25733 0.23782 0
M  V30 6247 H 577.797 3.14036 -1.89148 0
M  V30 6248 H 577.445 5.02208 -0.282128 0
M  V30 6249 H 577.145 5.53939 -1.96023 0
M  V30 6250 H 578.669 5.99713 -1.14789 0
M  V30 6251 H 580.083 4.82625 -3.09428 0
M  V30 6252 H 578.48 4.60094 -3.85271 0
M  V30 6253 H 579.55 3.20347 -3.64014 0
M  V30 6254 N 580.893 1.08022 1.14757 0
M  V30 6255 C 582.139 0.808705 1.85978 0
M  V30 6256 C 582.472 -0.663764 1.82504 0
M  V30 6257 O 581.747 -1.48765 1.25296 0
M  V30 6258 C 582.03 1.32623 3.34788 0
M  V30 6259 C 581.883 2.86375 3.46856 0
M  V30 6260 C 583.202 0.948291 4.29762 0
M  V30 6261 H 580.321 0.295244 0.675278 0
M  V30 6262 H 582.963 1.33917 1.34783 0
M  V30 6263 H 581.113 0.875002 3.78518 0
M  V30 6264 H 582.785 3.39839 3.11941 0
M  V30 6265 H 581.028 3.24232 2.88194 0
M  V30 6266 H 581.699 3.17658 4.51439 0
M  V30 6267 H 584.175 1.33722 3.94028 0
M  V30 6268 H 583.051 1.33765 5.32352 0
M  V30 6269 H 583.312 -0.145094 4.41862 0
M  V30 6270 N 582.371 -1.3172 0.865308 0
M  V30 6271 C 583.787 -1.4958 0.556596 0
M  V30 6272 C 583.987 -1.79763 -0.910353 0
M  V30 6273 O 583.043 -1.87351 -1.6928 0
M  V30 6274 C 584.356 -2.63277 1.45279 0
M  V30 6275 C 585.904 -2.77161 1.45433 0
M  V30 6276 C 586.379 -3.93949 2.33598 0
M  V30 6277 N 587.87 -4.01228 2.31453 0
M  V30 6278 C 588.605 -4.90855 2.96393 0
M  V30 6279 N 588.101 -5.85416 3.70486 0
M  V30 6280 N 589.894 -4.84063 2.85726 0
M  V30 6281 H 582.045 -1.10396 1.81456 0
M  V30 6282 H 584.308 -0.54507 0.775631 0
M  V30 6283 H 584.014 -2.47734 2.49641 0
M  V30 6284 H 583.888 -3.59309 1.14792 0
M  V30 6285 H 586.275 -2.9212 0.41831 0
M  V30 6286 H 586.356 -1.8181 1.79941 0
M  V30 6287 H 586 -3.79748 3.37274 0
M  V30 6288 H 585.93 -4.88598 1.96417 0
M  V30 6289 H 588.421 -3.3357 1.77593 0
M  V30 6290 H 588.734 -6.50525 4.17178 0
M  V30 6291 H 587.079 -5.85409 3.74594 0
M  V30 6292 H 590.27 -4.09163 2.27384 0
M  V30 6293 H 590.443 -5.53708 3.36617 0
M  V30 6294 N 583.85 -0.624285 -1.44708 0
M  V30 6295 C 585.075 -0.131171 -2.06985 0
M  V30 6296 C 585.5 1.18234 -1.46295 0
M  V30 6297 O 584.858 1.72375 -0.561842 0
M  V30 6298 C 584.906 -0.0226724 -3.60593 0
M  V30 6299 O 584.01 1.02314 -3.99507 0
M  V30 6300 H 583.351 -0.0816556 -0.65896 0
M  V30 6301 H 585.88 -0.859027 -1.85693 0
M  V30 6302 H 585.891 0.170138 -4.07645 0
M  V30 6303 H 584.566 -0.981685 -4.04148 0
M  V30 6304 H 583.143 0.805452 -3.64097 0
M  V30 6305 N 585.328 1.53329 -0.364422 0
M  V30 6306 C 586.258 2.28627 0.474543 0
M  V30 6307 C 587.239 1.31009 1.08492 0
M  V30 6308 O 588.424 1.59878 1.10239 0
M  V30 6309 C 585.554 3.07465 1.61501 0
M  V30 6310 C 584.508 4.1276 1.13194 0
M  V30 6311 C 583.834 4.79674 2.36255 0
M  V30 6312 C 585.134 5.21847 0.217507 0
M  V30 6313 H 586.828 2.99005 -0.153656 0
M  V30 6314 H 584.374 1.43803 -0.0753406 0
M  V30 6315 H 586.327 3.58889 2.20855 0
M  V30 6316 H 585.051 2.34775 2.27042 0
M  V30 6317 H 583.71 3.62281 0.56109 0
M  V30 6318 H 583.358 4.03557 3.00251 0
M  V30 6319 H 583.058 5.50827 2.04606 0
M  V30 6320 H 584.582 5.33892 2.96297 0
M  V30 6321 H 585.996 5.6878 0.718493 0
M  V30 6322 H 584.393 6.00099 -0.00806408 0
M  V30 6323 H 585.463 4.7921 -0.740653 0
M  V30 6324 N 586.806 0.0935595 1.57322 0
M  V30 6325 C 587.754 -0.883457 2.15169 0
M  V30 6326 C 588.748 -1.29324 1.09415 0
M  V30 6327 O 589.954 -1.26795 1.27762 0
M  V30 6328 H 586.329 -0.302923 0.688289 0
M  V30 6329 H 588.3 -0.370845 2.96087 0
M  V30 6330 C 587.049 -2.13345 2.74552 0
M  V30 6331 H 586.372 -1.82702 3.55612 0
M  V30 6332 H 587.812 -2.7977 3.18598 0
M  V30 6333 C 586.271 -2.90646 1.70371 0
M  V30 6334 O 586.801 -3.85133 1.14173 0
M  V30 6335 N 585.007 -2.54157 1.40899 0
M  V30 6336 H 584.554 -1.77391 1.86789 0
M  V30 6337 H 584.512 -3.06178 0.714301 0
M  V30 6338 N 588.284 -1.56567 -0.180126 0
M  V30 6339 C 589.214 -1.98753 -1.22553 0
M  V30 6340 C 590.195 -0.86175 -1.46656 0
M  V30 6341 O 591.38 -1.12719 -1.58139 0
M  V30 6342 C 588.51 -2.33988 -2.56645 0
M  V30 6343 C 587.464 -3.49445 -2.47128 0
M  V30 6344 C 586.79 -3.70397 -3.8563 0
M  V30 6345 C 588.09 -4.83171 -1.98352 0
M  V30 6346 H 589.784 -2.86332 -0.874896 0
M  V30 6347 H 587.33 -1.37757 -0.419414 0
M  V30 6348 H 589.283 -2.62097 -3.29974 0
M  V30 6349 H 588.007 -1.43309 -2.93479 0
M  V30 6350 H 586.666 -3.2145 -1.76254 0
M  V30 6351 H 586.314 -2.77023 -4.19842 0
M  V30 6352 H 586.014 -4.48077 -3.80132 0
M  V30 6353 H 587.538 -4.00897 -4.60558 0
M  V30 6354 H 588.952 -5.10213 -2.61449 0
M  V30 6355 H 587.349 -5.64425 -2.03823 0
M  V30 6356 H 588.419 -4.75753 -0.937402 0
M  V30 6357 N 589.762 0.448376 -1.51087 0
M  V30 6358 C 591.173 1.0286 -1.5581 0
M  V30 6359 C 591.524 1.92583 -0.374989 0
M  V30 6360 O 590.649 2.10316 0.509533 0
M  V30 6361 C 591.244 1.87223 -2.8237 0
M  V30 6362 C 589.803 2.40314 -2.897 0
M  V30 6363 C 588.95 1.19238 -2.50355 0
M  V30 6364 H 591.901 0.230075 -1.57023 0
M  V30 6365 H 591.922 2.72553 -2.6551 0
M  V30 6366 H 591.434 1.21894 -3.68461 0
M  V30 6367 H 589.535 3.09129 -2.08014 0
M  V30 6368 H 589.648 2.73866 -3.93108 0
M  V30 6369 H 588.012 1.53428 -2.03303 0
M  V30 6370 H 588.795 0.555367 -3.38778 0
M  V30 6371 N 591.24 1.41047 0.703093 0
M  V30 6372 C 592.203 1.42036 1.79884 0
M  V30 6373 C 593.203 0.312153 1.57741 0
M  V30 6374 O 594.393 0.571672 1.64553 0
M  V30 6375 C 591.525 1.22437 3.18154 0
M  V30 6376 H 592.718 2.39572 1.80403 0
M  V30 6377 H 590.271 1.27079 0.909977 0
M  V30 6378 H 591.006 0.257112 3.23279 0
M  V30 6379 H 590.791 2.02723 3.35627 0
M  V30 6380 H 592.281 1.25946 3.98155 0
M  V30 6381 N 592.718 -0.936591 1.26751 0
M  V30 6382 C 593.964 -1.6858 1.12733 0
M  V30 6383 C 594.297 -1.91414 -0.327745 0
M  V30 6384 O 593.572 -1.49812 -1.24043 0
M  V30 6385 C 593.855 -3.05779 1.90187 0
M  V30 6386 C 593.708 -2.90242 3.43627 0
M  V30 6387 C 595.027 -4.0597 1.69931 0
M  V30 6388 H 592.146 -0.61182 0.410908 0
M  V30 6389 H 594.788 -1.08747 1.55801 0
M  V30 6390 H 592.938 -3.56853 1.53584 0
M  V30 6391 H 594.61 -2.46354 3.9001 0
M  V30 6392 H 592.853 -2.2577 3.70419 0
M  V30 6393 H 593.524 -3.87572 3.93055 0
M  V30 6394 H 596 -3.63874 2.0183 0
M  V30 6395 H 594.876 -4.99974 2.26534 0
M  V30 6396 H 595.137 -4.37369 0.64502 0
M  V30 6397 N 594.196 -1.08629 -1.14182 0
M  V30 6398 C 595.128 -0.676189 -2.18998 0
M  V30 6399 C 596.141 0.277871 -1.60411 0
M  V30 6400 O 597.33 0.0651771 -1.78381 0
M  V30 6401 C 594.43 0.0254916 -3.3889 0
M  V30 6402 C 593.603 -0.948039 -4.27002 0
M  V30 6403 C 592.662 -0.281268 -5.25448 0
M  V30 6404 O 591.688 -0.926378 -5.61611 0
M  V30 6405 N 592.89 0.967923 -5.72374 0
M  V30 6406 H 595.655 -1.57792 -2.54798 0
M  V30 6407 H 593.216 -0.972665 -1.29425 0
M  V30 6408 H 595.208 0.482554 -4.01813 0
M  V30 6409 H 593.778 0.829348 -3.01398 0
M  V30 6410 H 592.998 -1.58388 -3.6098 0
M  V30 6411 H 594.286 -1.60765 -4.82734 0
M  V30 6412 H 593.684 1.51175 -5.45126 0
M  V30 6413 H 592.241 1.36844 -6.37273 0
M  V30 6414 N 595.674 1.31259 -0.872281 0
M  V30 6415 C 596.92 1.96913 -0.485083 0
M  V30 6416 C 597.253 1.68774 0.960667 0
M  V30 6417 O 596.528 0.985495 1.67685 0
M  V30 6418 C 596.811 3.52299 -0.745502 0
M  V30 6419 C 596.664 3.90002 -2.24095 0
M  V30 6420 C 597.983 4.39582 -0.213516 0
M  V30 6421 H 595.102 0.715252 -0.177716 0
M  V30 6422 H 597.744 1.55347 -1.09395 0
M  V30 6423 H 595.894 3.87835 -0.227276 0
M  V30 6424 H 597.566 3.64555 -2.82661 0
M  V30 6425 H 595.809 3.38526 -2.71261 0
M  V30 6426 H 596.48 4.98352 -2.37381 0
M  V30 6427 H 598.956 4.10882 -0.656902 0
M  V30 6428 H 597.832 5.47251 -0.42516 0
M  V30 6429 H 598.093 4.33158 0.884666 0
M  V30 6430 N 597.152 0.631951 1.44375 0
M  V30 6431 C 598.082 -0.0593243 2.33425 0
M  V30 6432 C 599.063 -0.833964 1.48253 0
M  V30 6433 O 600.248 -0.799682 1.76971 0
M  V30 6434 C 597.378 -1.04096 3.31333 0
M  V30 6435 C 596.332 -0.377899 4.26328 0
M  V30 6436 C 595.658 -1.4695 5.14111 0
M  V30 6437 C 596.958 0.716371 5.17364 0
M  V30 6438 H 598.652 0.684287 2.91475 0
M  V30 6439 H 596.198 0.330518 1.40156 0
M  V30 6440 H 598.151 -1.53331 3.92514 0
M  V30 6441 H 596.875 -1.81547 2.71493 0
M  V30 6442 H 595.534 0.0938054 3.6648 0
M  V30 6443 H 595.182 -2.2349 4.50623 0
M  V30 6444 H 594.882 -1.03121 5.78481 0
M  V30 6445 H 596.406 -1.96363 5.78164 0
M  V30 6446 H 597.82 0.307089 5.72477 0
M  V30 6447 H 596.217 1.07784 5.90341 0
M  V30 6448 H 597.287 1.58316 4.58327 0
M  V30 6449 N 598.631 -1.53133 0.372548 0
M  V30 6450 C 599.541 -2.29671 -0.478379 0
M  V30 6451 C 600.557 -1.35913 -1.08644 0
M  V30 6452 O 601.733 -1.68975 -1.09588 0
M  V30 6453 C 598.798 -3.07625 -1.599 0
M  V30 6454 C 597.859 -4.17061 -1.01776 0
M  V30 6455 C 597.092 -4.91289 -2.08497 0
M  V30 6456 O 597.315 -4.65442 -3.29727 0
M  V30 6457 O 596.249 -5.7705 -1.71164 0
M  V30 6458 H 600.075 -3.03355 0.144649 0
M  V30 6459 H 597.66 -1.48773 0.136729 0
M  V30 6460 H 599.542 -3.56281 -2.25038 0
M  V30 6461 H 598.217 -2.3677 -2.2073 0
M  V30 6462 H 597.124 -3.72641 -0.330098 0
M  V30 6463 H 598.457 -4.90102 -0.453915 0
M  V30 6464 N 600.109 -0.101901 -1.5727 0
M  V30 6465 C 601.072 0.840129 -2.13247 0
M  V30 6466 C 602.072 1.20625 -1.06331 0
M  V30 6467 O 603.262 1.13456 -1.32186 0
M  V30 6468 C 600.394 2.13372 -2.65867 0
M  V30 6469 H 601.587 0.353945 -2.97804 0
M  V30 6470 H 599.14 0.147167 -1.55606 0
M  V30 6471 H 599.875 2.66461 -1.84849 0
M  V30 6472 H 599.66 1.88085 -3.44044 0
M  V30 6473 H 601.15 2.80748 -3.09145 0
M  V30 6474 N 601.587 1.56661 0.17182 0
M  V30 6475 C 602.817 1.85831 0.902804 0
M  V30 6476 C 603.225 0.685157 1.76358 0
M  V30 6477 O 602.568 -0.354947 1.80238 0
M  V30 6478 C 602.63 3.09406 1.83053 0
M  V30 6479 C 602.294 4.4231 1.1494 0
M  V30 6480 C 603.291 5.17342 0.515104 0
M  V30 6481 C 600.976 4.89045 1.14631 0
M  V30 6482 C 602.97 6.37299 -0.113194 0
M  V30 6483 C 600.657 6.08933 0.514184 0
M  V30 6484 C 601.655 6.82904 -0.114463 0
M  V30 6485 O 601.343 8.00518 -0.736622 0
M  V30 6486 H 601.075 0.620715 0.267748 0
M  V30 6487 H 603.629 2.04637 0.176918 0
M  V30 6488 H 601.859 2.86544 2.59672 0
M  V30 6489 H 603.548 3.25027 2.4313 0
M  V30 6490 H 604.314 4.82317 0.509474 0
M  V30 6491 H 600.193 4.31409 1.62502 0
M  V30 6492 H 603.737 6.94976 -0.604477 0
M  V30 6493 H 599.634 6.43423 0.517395 0
M  V30 6494 H 600.402 8.16027 -0.635822 0
M  V30 6495 N 603.065 -0.440357 1.51323 0
M  V30 6496 C 604.313 -1.18769 1.63518 0
M  V30 6497 C 604.634 -1.91793 0.352201 0
M  V30 6498 O 603.904 -1.85432 -0.631811 0
M  V30 6499 H 602.484 -0.441408 0.602634 0
M  V30 6500 H 605.146 -0.505162 1.8824 0
M  V30 6501 H 604.242 -1.91892 2.46138 0
M  V30 6502 N 604.543 -1.41418 -0.695603 0
M  V30 6503 C 605.954 -1.36335 -1.27552 0
M  V30 6504 C 606.305 -0.0464336 -1.96145 0
M  V30 6505 O 605.43 0.855304 -1.9878 0
M  V30 6506 C 606.025 -2.46941 -2.3196 0
M  V30 6507 C 604.584 -2.45256 -2.85529 0
M  V30 6508 C 603.731 -2.2679 -1.59566 0
M  V30 6509 H 606.682 -1.50934 -0.490362 0
M  V30 6510 H 606.703 -2.15997 -3.1325 0
M  V30 6511 H 606.215 -3.42775 -1.82008 0
M  V30 6512 H 604.316 -1.53179 -3.39657 0
M  V30 6513 H 604.429 -3.41565 -3.35961 0
M  V30 6514 H 602.793 -1.74667 -1.85374 0
M  V30 6515 H 603.576 -3.24651 -1.1161 0
M  V30 6516 N 606.021 0.929856 -1.27246 0
M  V30 6517 C 606.968 2.03017 -1.09785 0
M  V30 6518 C 607.938 1.661 0.000456744 0
M  V30 6519 O 609.123 1.90116 -0.161462 0
M  V30 6520 C 606.263 3.36878 -0.748816 0
M  V30 6521 C 605.376 3.86763 -1.92453 0
M  V30 6522 C 604.511 5.09061 -1.51758 0
M  V30 6523 C 603.55 5.51237 -2.66091 0
M  V30 6524 N 602.687 6.64732 -2.25999 0
M  V30 6525 H 607.527 2.17285 -2.03939 0
M  V30 6526 H 605.064 1.06448 -1.01524 0
M  V30 6527 H 607.022 4.13855 -0.527283 0
M  V30 6528 H 605.652 3.22424 0.155771 0
M  V30 6529 H 604.704 3.06086 -2.25867 0
M  V30 6530 H 606.016 4.13994 -2.78227 0
M  V30 6531 H 605.17 5.93532 -1.25716 0
M  V30 6532 H 603.909 4.83602 -0.630896 0
M  V30 6533 H 602.914 4.65316 -2.92849 0
M  V30 6534 H 604.139 5.78692 -3.55377 0
M  V30 6535 H 602.085 6.40935 -1.3978 0
M  V30 6536 H 602.002 6.91607 -3.05313 0
M  V30 6537 H 603.27 7.52549 -2.03199 0
M  V30 6538 N 607.499 1.09233 1.13605 0
M  V30 6539 C 608.915 0.82163 1.36826 0
M  V30 6540 C 609.115 -0.565021 1.93416 0
M  V30 6541 O 608.171 -1.32026 2.15234 0
M  V30 6542 C 609.484 1.91124 2.32147 0
M  V30 6543 C 611.032 1.93824 2.45767 0
M  V30 6544 C 611.507 3.01923 3.44393 0
M  V30 6545 N 612.998 3.01149 3.51942 0
M  V30 6546 C 613.733 3.81434 4.2813 0
M  V30 6547 N 613.229 4.71621 5.07489 0
M  V30 6548 N 615.022 3.69702 4.23411 0
M  V30 6549 H 607.173 1.98633 0.752234 0
M  V30 6550 H 609.436 0.862482 0.393482 0
M  V30 6551 H 609.142 2.90862 1.97717 0
M  V30 6552 H 609.016 1.78777 3.32142 0
M  V30 6553 H 611.403 0.94726 2.79483 0
M  V30 6554 H 611.484 2.10248 1.45703 0
M  V30 6555 H 611.128 4.01232 3.11408 0
M  V30 6556 H 611.058 2.82742 4.44257 0
M  V30 6557 H 613.549 2.35789 2.95317 0
M  V30 6558 H 613.862 5.29468 5.62924 0
M  V30 6559 H 612.207 4.75658 5.06729 0
M  V30 6560 H 615.398 2.98606 3.60489 0
M  V30 6561 H 615.571 4.32509 4.82535 0
M  V30 6562 N 608.977 -1.30795 0.87923 0
M  V30 6563 C 610.224 -1.96362 0.494786 0
M  V30 6564 C 610.552 -1.69448 -0.954868 0
M  V30 6565 O 609.807 -0.988711 -1.68888 0
M  V30 6566 C 610.106 -3.50287 0.709476 0
M  V30 6567 C 609.772 -3.9724 2.13333 0
M  V30 6568 C 608.434 -4.09772 2.52271 0
M  V30 6569 C 610.786 -4.21807 3.06151 0
M  V30 6570 C 608.114 -4.44227 3.83248 0
M  V30 6571 C 610.466 -4.5773 4.36654 0
M  V30 6572 C 609.13 -4.68469 4.75492 0
M  V30 6573 H 608.4 -0.71854 0.181055 0
M  V30 6574 H 611.047 -1.55764 1.11399 0
M  V30 6575 H 609.352 -3.91799 0.0072 0
M  V30 6576 H 611.049 -3.99082 0.391703 0
M  V30 6577 H 607.639 -3.87988 1.82107 0
M  V30 6578 H 611.823 -4.11611 2.77291 0
M  V30 6579 H 607.079 -4.50741 4.13089 0
M  V30 6580 H 611.253 -4.7569 5.08617 0
M  V30 6581 H 608.88 -4.94923 5.77022 0
M  V30 6582 N 610.455 -0.639598 -1.44038 0
M  V30 6583 C 611.418 0.0506628 -2.29144 0
M  V30 6584 C 612.418 0.764001 -1.41491 0
M  V30 6585 O 613.608 0.607309 -1.63271 0
M  V30 6586 C 610.74 1.0824 -3.2326 0
M  V30 6587 H 611.933 -0.697987 -2.91664 0
M  V30 6588 H 609.486 -0.400146 -1.51091 0
M  V30 6589 H 610.221 1.86075 -2.65606 0
M  V30 6590 H 610.006 0.574725 -3.87865 0
M  V30 6591 H 611.496 1.56487 -3.87171 0
M  V30 6592 N 611.933 1.52934 -0.380664 0
M  V30 6593 C 612.896 2.24809 0.446473 0
M  V30 6594 C 613.896 1.26133 0.997347 0
M  V30 6595 O 615.086 1.50297 0.880714 0
M  V30 6596 C 612.218 2.99649 1.62553 0
M  V30 6597 H 613.411 2.99343 -0.182677 0
M  V30 6598 H 610.964 1.55736 -0.132618 0
M  V30 6599 H 611.699 2.29395 2.29235 0
M  V30 6600 H 611.484 3.72066 1.23732 0
M  V30 6601 H 612.974 3.54246 2.21133 0
M  V30 6602 N 613.412 0.11024 1.57214 0
M  V30 6603 C 614.359 -0.843195 2.14846 0
M  V30 6604 C 615.329 -1.26954 1.07107 0
M  V30 6605 O 616.514 -1.34861 1.34971 0
M  V30 6606 C 613.654 -2.09123 2.74521 0
M  V30 6607 C 612.767 -1.71404 3.96541 0
M  V30 6608 C 611.902 -2.91107 4.44331 0
M  V30 6609 C 610.941 -2.49586 5.58903 0
M  V30 6610 N 610.078 -3.62175 6.01477 0
M  V30 6611 H 614.918 -0.344886 2.95998 0
M  V30 6612 H 612.455 -0.15855 1.46243 0
M  V30 6613 H 614.413 -2.82234 3.07246 0
M  V30 6614 H 613.043 -2.56427 1.96074 0
M  V30 6615 H 612.095 -0.88201 3.70033 0
M  V30 6616 H 613.407 -1.36884 4.7965 0
M  V30 6617 H 612.561 -3.72454 4.78919 0
M  V30 6618 H 611.3 -3.28848 3.60153 0
M  V30 6619 H 610.305 -1.6667 5.23929 0
M  V30 6620 H 611.53 -2.12973 6.4484 0
M  V30 6621 H 609.476 -3.99605 5.20242 0
M  V30 6622 H 609.393 -3.3155 6.79419 0
M  V30 6623 H 610.661 -4.43987 6.407 0
M  V30 6624 N 614.89 -1.56749 -0.16351 0
M  V30 6625 C 615.82 -2.00042 -1.20438 0
M  V30 6626 C 616.801 -0.877256 -1.45733 0
M  V30 6627 O 617.986 -1.1439 -1.56935 0
M  V30 6628 C 615.116 -2.36697 -2.54149 0
M  V30 6629 C 614.07 -3.52046 -2.43408 0
M  V30 6630 C 613.396 -3.74466 -3.81679 0
M  V30 6631 C 614.696 -4.85247 -1.93216 0
M  V30 6632 H 616.39 -2.87244 -0.844477 0
M  V30 6633 H 613.936 -1.38194 -0.40478 0
M  V30 6634 H 615.889 -2.65582 -3.27176 0
M  V30 6635 H 614.613 -1.46414 -2.91943 0
M  V30 6636 H 613.272 -3.23301 -1.72834 0
M  V30 6637 H 612.92 -2.81461 -4.1688 0
M  V30 6638 H 612.62 -4.52084 -3.75359 0
M  V30 6639 H 614.144 -4.0576 -4.5628 0
M  V30 6640 H 615.558 -5.12957 -2.56023 0
M  V30 6641 H 613.955 -5.66556 -1.97825 0
M  V30 6642 H 615.025 -4.7672 -0.88689 0
M  V30 6643 N 616.368 0.432326 -1.51554 0
M  V30 6644 C 617.784 0.769195 -1.39841 0
M  V30 6645 C 617.984 1.95584 -0.484675 0
M  V30 6646 O 617.04 2.52433 0.0582829 0
M  V30 6647 C 618.353 1.04487 -2.81963 0
M  V30 6648 C 619.901 1.149 -2.91148 0
M  V30 6649 C 620.376 1.45758 -4.34187 0
M  V30 6650 N 621.867 1.52671 -4.37317 0
M  V30 6651 C 622.602 1.78129 -5.4503 0
M  V30 6652 N 622.098 2.01345 -6.62897 0
M  V30 6653 N 623.891 1.79953 -5.32516 0
M  V30 6654 H 616.042 -0.349122 -2.09511 0
M  V30 6655 H 618.305 -0.0938113 -0.943347 0
M  V30 6656 H 618.011 0.24557 -3.50842 0
M  V30 6657 H 617.885 1.97119 -3.21596 0
M  V30 6658 H 620.272 1.93891 -2.22464 0
M  V30 6659 H 620.353 0.201568 -2.55005 0
M  V30 6660 H 619.997 0.672917 -5.03423 0
M  V30 6661 H 619.927 2.41715 -4.67848 0
M  V30 6662 H 622.418 1.36612 -3.52343 0
M  V30 6663 H 622.731 2.20155 -7.40778 0
M  V30 6664 H 621.076 1.98657 -6.66003 0
M  V30 6665 H 624.267 1.61337 -4.39418 0
M  V30 6666 H 624.44 1.99455 -6.1654 0
M  V30 6667 N 617.846 1.41785 0.688094 0
M  V30 6668 C 618.794 1.44436 1.82321 0
M  V30 6669 C 619.788 0.321544 1.6632 0
M  V30 6670 O 620.994 0.493931 1.73091 0
M  V30 6671 H 617.369 0.452084 0.600936 0
M  V30 6672 H 619.34 2.40087 1.77202 0
M  V30 6673 C 618.089 1.35071 3.20392 0
M  V30 6674 H 617.412 2.2076 3.33324 0
M  V30 6675 H 618.852 1.40988 3.99873 0
M  V30 6676 C 617.311 0.0639127 3.36839 0
M  V30 6677 O 617.841 -0.888495 3.91751 0
M  V30 6678 N 616.047 -0.0146114 2.90596 0
M  V30 6679 H 615.594 0.761191 2.46097 0
M  V30 6680 H 615.552 -0.874988 3.01979 0
M  V30 6681 N 619.324 -0.923095 1.27737 0
M  V30 6682 C 620.57 -1.67375 1.14514 0
M  V30 6683 C 620.903 -1.91751 -0.307424 0
M  V30 6684 O 620.178 -1.51119 -1.22447 0
M  V30 6685 C 620.461 -3.03745 1.9342 0
M  V30 6686 C 620.314 -2.86581 3.46686 0
M  V30 6687 C 621.633 -4.04144 1.74228 0
M  V30 6688 H 618.752 -0.607427 0.417374 0
M  V30 6689 H 621.394 -1.07089 1.56946 0
M  V30 6690 H 619.544 -3.55204 1.5736 0
M  V30 6691 H 621.216 -2.42203 3.92601 0
M  V30 6692 H 619.459 -2.21829 3.72793 0
M  V30 6693 H 620.13 -3.83381 3.97143 0
M  V30 6694 H 622.606 -3.61712 2.05678 0
M  V30 6695 H 621.482 -4.97543 2.31824 0
M  V30 6696 H 621.743 -4.36661 0.691373 0
M  V30 6697 N 620.802 -1.09834 -1.13024 0
M  V30 6698 C 622.05 -0.835297 -1.8403 0
M  V30 6699 C 622.371 0.640944 -1.84165 0
M  V30 6700 O 621.641 1.46517 -1.30037 0
M  V30 6701 H 620.221 -0.306018 -0.681441 0
M  V30 6702 H 622.883 -1.38734 -1.36891 0
M  V30 6703 H 621.979 -1.19258 -2.88416 0
M  V30 6704 N 622.28 1.30327 -0.886154 0
M  V30 6705 C 623.21 2.30549 -0.370028 0
M  V30 6706 C 624.191 1.61039 0.547751 0
M  V30 6707 O 625.376 1.8864 0.461353 0
M  V30 6708 C 622.506 3.44808 0.415275 0
M  V30 6709 C 621.46 4.26024 -0.41085 0
M  V30 6710 C 620.786 5.32347 0.501128 0
M  V30 6711 C 622.086 4.95433 -1.65359 0
M  V30 6712 H 623.78 2.73969 -1.20754 0
M  V30 6713 H 621.326 1.3171 -0.582097 0
M  V30 6714 H 623.279 4.13986 0.78699 0
M  V30 6715 H 622.003 3.00197 1.28644 0
M  V30 6716 H 620.662 3.58535 -0.764719 0
M  V30 6717 H 620.31 4.83982 1.37004 0
M  V30 6718 H 620.01 5.87581 -0.0478356 0
M  V30 6719 H 621.534 6.0438 0.869333 0
M  V30 6720 H 622.948 5.5712 -1.35239 0
M  V30 6721 H 621.345 5.60537 -2.14284 0
M  V30 6722 H 622.415 4.21493 -2.39733 0
M  V30 6723 N 623.758 0.647228 1.43697 0
M  V30 6724 C 625.169 0.238689 1.85168 0
M  V30 6725 C 625.52 -1.21345 1.54175 0
M  V30 6726 O 624.645 -1.92542 0.987743 0
M  V30 6727 C 625.24 0.426422 3.36106 0
M  V30 6728 C 623.799 0.0722541 3.76331 0
M  V30 6729 C 622.946 0.732153 2.6746 0
M  V30 6730 H 625.897 0.851309 1.33934 0
M  V30 6731 H 625.918 -0.32987 3.79067 0
M  V30 6732 H 625.43 1.48339 3.58632 0
M  V30 6733 H 623.531 -0.982355 3.59417 0
M  V30 6734 H 623.644 0.493541 4.76551 0
M  V30 6735 H 622.008 0.16594 2.54159 0
M  V30 6736 H 622.791 1.79204 2.92816 0
M  V30 6737 N 625.236 -1.5273 0.388769 0
M  V30 6738 C 626.166 -2.29353 -0.438111 0
M  V30 6739 C 627.147 -1.32719 -1.06394 0
M  V30 6740 O 628.332 -1.61612 -1.07681 0
M  V30 6741 C 625.462 -3.09995 -1.56589 0
M  V30 6742 C 624.416 -4.14509 -1.06613 0
M  V30 6743 C 623.742 -4.83372 -2.28594 0
M  V30 6744 C 625.042 -5.22127 -0.134459 0
M  V30 6745 H 626.736 -2.98723 0.201206 0
M  V30 6746 H 624.282 -1.43665 0.0982089 0
M  V30 6747 H 626.235 -3.62357 -2.15118 0
M  V30 6748 H 624.959 -2.38357 -2.23279 0
M  V30 6749 H 623.618 -3.63128 -0.503383 0
M  V30 6750 H 623.266 -4.08283 -2.93792 0
M  V30 6751 H 622.966 -5.54012 -1.95817 0
M  V30 6752 H 624.49 -5.38538 -2.87766 0
M  V30 6753 H 625.904 -5.69851 -0.627914 0
M  V30 6754 H 624.301 -6.00011 0.103534 0
M  V30 6755 H 625.371 -4.77971 0.816798 0
M  V30 6756 N 626.714 -0.118576 -1.57153 0
M  V30 6757 C 627.944 0.546466 -1.99242 0
M  V30 6758 C 628.352 1.60791 -0.997148 0
M  V30 6759 O 627.695 1.83691 0.0181745 0
M  V30 6760 C 627.757 1.23167 -3.37743 0
M  V30 6761 C 627.421 0.318226 -4.55891 0
M  V30 6762 C 628.418 -0.442988 -5.18009 0
M  V30 6763 C 626.103 0.229421 -5.01776 0
M  V30 6764 C 628.097 -1.28074 -6.244 0
M  V30 6765 C 625.784 -0.611966 -6.08028 0
M  V30 6766 C 626.782 -1.36568 -6.69207 0
M  V30 6767 O 626.47 -2.1931 -7.73407 0
M  V30 6768 H 626.202 0.149297 -0.659307 0
M  V30 6769 H 628.756 -0.201603 -2.04408 0
M  V30 6770 H 626.986 2.0268 -3.29329 0
M  V30 6771 H 628.675 1.79358 -3.64123 0
M  V30 6772 H 629.441 -0.38425 -4.83475 0
M  V30 6773 H 625.32 0.805771 -4.53903 0
M  V30 6774 H 628.864 -1.86952 -6.72082 0
M  V30 6775 H 624.761 -0.6721 -6.41991 0
M  V30 6776 H 625.529 -2.12247 -7.90502 0
M  V30 6777 N 628.193 1.56834 0.155195 0
M  V30 6778 C 629.123 2.00678 1.19376 0
M  V30 6779 C 630.104 0.884973 1.45266 0
M  V30 6780 O 631.289 1.1522 1.56326 0
M  V30 6781 C 628.419 2.38042 2.5289 0
M  V30 6782 C 627.373 3.53332 2.41538 0
M  V30 6783 C 626.699 3.76485 3.79688 0
M  V30 6784 C 627.999 4.86265 1.9064 0
M  V30 6785 H 629.693 2.87688 0.829232 0
M  V30 6786 H 627.239 1.38407 0.397445 0
M  V30 6787 H 629.192 2.67314 3.25763 0
M  V30 6788 H 627.916 1.4796 2.91162 0
M  V30 6789 H 626.575 3.24213 1.71117 0
M  V30 6790 H 626.223 2.83667 4.15382 0
M  V30 6791 H 625.923 4.54068 3.72956 0
M  V30 6792 H 627.447 4.08174 4.54122 0
M  V30 6793 H 628.861 5.14308 2.53299 0
M  V30 6794 H 627.258 5.67597 1.94818 0
M  V30 6795 H 628.328 4.77184 0.861596 0
M  V30 6796 N 629.671 -0.424282 1.51781 0
M  V30 6797 C 631.082 -1.00368 1.57427 0
M  V30 6798 C 631.433 -1.91962 0.40558 0
M  V30 6799 O 630.558 -2.111 -0.47601 0
M  V30 6800 C 631.153 -1.82707 2.85313 0
M  V30 6801 C 629.712 -2.35675 2.93487 0
M  V30 6802 C 628.859 -1.1524 2.5222 0
M  V30 6803 H 631.81 -0.205064 1.5737 0
M  V30 6804 H 631.831 -2.68294 2.69812 0
M  V30 6805 H 631.343 -1.16017 3.70353 0
M  V30 6806 H 629.444 -3.05781 2.12906 0
M  V30 6807 H 629.557 -2.67578 3.97415 0
M  V30 6808 H 627.921 -1.50174 2.05718 0
M  V30 6809 H 628.704 -0.5014 3.39619 0
M  V30 6810 N 631.149 -1.42148 -0.680565 0
M  V30 6811 C 632.097 -1.45401 -1.81552 0
M  V30 6812 C 633.091 -0.33036 -1.66147 0
M  V30 6813 O 634.297 -0.503103 -1.72826 0
M  V30 6814 H 630.672 -0.455265 -0.59853 0
M  V30 6815 H 632.643 -2.41024 -1.75926 0
M  V30 6816 C 631.392 -1.36769 -3.19671 0
M  V30 6817 H 630.715 -2.22525 -3.32149 0
M  V30 6818 H 632.155 -1.43106 -3.9912 0
M  V30 6819 C 630.614 -0.0817752 -3.36801 0
M  V30 6820 O 631.144 0.867707 -3.92216 0
M  V30 6821 N 629.35 -0.000799811 -2.906 0
M  V30 6822 H 628.897 -0.774231 -2.4569 0
M  V30 6823 H 628.855 0.858961 -3.02439 0
M  V30 6824 N 632.627 0.916307 -1.28225 0
M  V30 6825 C 633.875 1.6619 -1.15002 0
M  V30 6826 C 634.196 1.92642 0.302329 0
M  V30 6827 O 633.466 1.54076 1.20985 0
M  V30 6828 H 632.046 0.615964 -0.422608 0
M  V30 6829 H 634.708 1.09963 -1.60917 0
M  V30 6830 H 633.804 2.62533 -1.68769 0
M  V30 6831 N 634.105 1.10431 1.1244 0
M  V30 6832 C 635.068 0.756542 2.16354 0
M  V30 6833 C 636.068 -0.21899 1.59302 0
M  V30 6834 O 637.258 0.00415969 1.742 0
M  V30 6835 C 634.39 0.120612 3.40687 0
M  V30 6836 H 635.583 1.67696 2.48632 0
M  V30 6837 H 633.136 0.904832 1.27446 0
M  V30 6838 H 633.871 -0.810536 3.14008 0
M  V30 6839 H 633.656 0.822693 3.83372 0
M  V30 6840 H 635.146 -0.106945 4.17463 0
M  V30 6841 N 635.583 -1.29855 0.893053 0
M  V30 6842 C 636.546 -2.26183 0.370687 0
M  V30 6843 C 637.546 -1.53108 -0.491385 0
M  V30 6844 O 638.736 -1.71643 -0.297386 0
M  V30 6845 C 635.868 -3.37633 -0.470827 0
M  V30 6846 H 637.061 -2.73903 1.22135 0
M  V30 6847 H 634.614 -1.41183 0.67061 0
M  V30 6848 H 635.349 -2.95241 -1.34175 0
M  V30 6849 H 635.134 -3.91825 0.146784 0
M  V30 6850 H 636.624 -4.09313 -0.827825 0
M  V30 6851 N 637.061 -0.65484 -1.43351 0
M  V30 6852 C 638.472 -0.248506 -1.85039 0
M  V30 6853 C 638.823 1.20526 -1.54816 0
M  V30 6854 O 637.948 1.92016 -0.99794 0
M  V30 6855 C 638.543 -0.444241 -3.35875 0
M  V30 6856 C 637.102 -0.0922108 -3.76287 0
M  V30 6857 C 636.249 -0.746327 -2.67068 0
M  V30 6858 H 639.2 -0.8584 -1.33481 0
M  V30 6859 H 639.221 0.309762 -3.79237 0
M  V30 6860 H 638.733 -1.50239 -3.5784 0
M  V30 6861 H 636.834 0.96328 -3.59933 0
M  V30 6862 H 636.947 -0.518807 -4.76283 0
M  V30 6863 H 635.311 -0.179416 -2.54067 0
M  V30 6864 H 636.094 -1.80754 -2.91861 0
M  V30 6865 N 638.539 1.52521 -0.396863 0
M  V30 6866 C 639.487 2.28217 0.44943 0
M  V30 6867 C 640.481 1.32416 1.05652 0
M  V30 6868 O 641.687 1.49925 0.996124 0
M  V30 6869 H 638.062 0.733966 0.1637 0
M  V30 6870 H 640.033 2.97658 -0.210367 0
M  V30 6871 C 638.782 3.10713 1.56054 0
M  V30 6872 H 638.105 3.84291 1.10273 0
M  V30 6873 H 639.545 3.66803 2.12677 0
M  V30 6874 C 638.004 2.23499 2.52091 0
M  V30 6875 O 638.534 1.8669 3.55682 0
M  V30 6876 N 636.74 1.8751 2.2201 0
M  V30 6877 H 636.287 2.17643 1.37802 0
M  V30 6878 H 636.245 1.29448 2.86514 0
M  V30 6879 N 640.017 0.126909 1.57088 0
M  V30 6880 C 640.947 -0.816847 2.18746 0
M  V30 6881 C 641.928 -1.27161 1.12979 0
M  V30 6882 O 643.113 -1.33279 1.41246 0
M  V30 6883 C 640.243 -2.06398 2.79315 0
M  V30 6884 C 639.197 -1.74673 3.90735 0
M  V30 6885 C 638.523 -3.06482 4.38147 0
M  V30 6886 C 639.823 -1.0089 5.12463 0
M  V30 6887 H 641.517 -0.303032 2.97863 0
M  V30 6888 H 639.063 -0.144314 1.43275 0
M  V30 6889 H 641.016 -2.72885 3.2111 0
M  V30 6890 H 639.74 -2.60118 1.975 0
M  V30 6891 H 638.399 -1.10572 3.49527 0
M  V30 6892 H 638.047 -3.58152 3.5318 0
M  V30 6893 H 637.747 -2.86025 5.13287 0
M  V30 6894 H 639.271 -3.74073 4.82599 0
M  V30 6895 H 640.685 -1.57546 5.51228 0
M  V30 6896 H 639.082 -0.905006 5.93237 0
M  V30 6897 H 640.152 0.00297335 4.849 0
M  V30 6898 N 641.495 -1.56914 -0.146875 0
M  V30 6899 C 642.72 -1.87881 -0.878386 0
M  V30 6900 C 643.145 -0.715945 -1.73942 0
M  V30 6901 O 642.503 0.334447 -1.78189 0
M  V30 6902 C 642.551 -3.17431 -1.71084 0
M  V30 6903 O 641.655 -3.01374 -2.81509 0
M  V30 6904 H 640.996 -0.617289 -0.244644 0
M  V30 6905 H 643.526 -2.04136 -0.137654 0
M  V30 6906 H 643.536 -3.49455 -2.10582 0
M  V30 6907 H 642.211 -4.01671 -1.07856 0
M  V30 6908 H 640.788 -2.80758 -2.45416 0
M  V30 6909 N 642.974 0.416227 -1.52004 0
M  V30 6910 C 643.904 1.51365 -1.77795 0
M  V30 6911 C 644.885 1.58059 -0.628601 0
M  V30 6912 O 646.07 1.73447 -0.873478 0
M  V30 6913 C 643.2 2.89256 -1.92219 0
M  V30 6914 C 642.154 2.97415 -3.0778 0
M  V30 6915 C 641.48 4.37492 -3.07417 0
M  V30 6916 C 642.78 2.69551 -4.47369 0
M  V30 6917 H 644.474 1.30033 -2.69688 0
M  V30 6918 H 642.02 0.624112 -1.29772 0
M  V30 6919 H 643.973 3.66008 -2.08845 0
M  V30 6920 H 642.697 3.11866 -0.969917 0
M  V30 6921 H 641.356 2.23107 -2.90893 0
M  V30 6922 H 641.004 4.571 -2.09925 0
M  V30 6923 H 640.704 4.43877 -3.85029 0
M  V30 6924 H 642.228 5.16188 -3.26162 0
M  V30 6925 H 643.642 3.36028 -4.64497 0
M  V30 6926 H 642.039 2.87321 -5.26846 0
M  V30 6927 H 643.109 1.65029 -4.55953 0
M  V30 6928 N 644.452 1.42507 0.673017 0
M  V30 6929 C 645.701 1.42364 1.42883 0
M  V30 6930 C 646.014 0.0441598 1.9555 0
M  V30 6931 O 647.22 -0.0798679 2.71382 0
M  V30 6932 C 645.676 2.5043 2.58482 0
M  V30 6933 C 645.284 3.94392 2.12506 0
M  V30 6934 C 647.028 2.59455 3.35981 0
M  V30 6935 C 644.935 4.93964 3.25198 0
M  V30 6936 H 643.865 0.52951 0.536782 0
M  V30 6937 H 646.516 1.68422 0.728448 0
M  V30 6938 H 644.898 2.1754 3.30896 0
M  V30 6939 H 646.072 4.36645 1.47233 0
M  V30 6940 H 644.387 3.89233 1.4794 0
M  V30 6941 H 646.984 3.31025 4.19912 0
M  V30 6942 H 647.327 1.63869 3.82691 0
M  V30 6943 H 647.86 2.91549 2.70637 0
M  V30 6944 H 644.599 5.91034 2.83477 0
M  V30 6945 H 644.119 4.56341 3.89247 0
M  V30 6946 H 645.798 5.15763 3.90637 0
M  V30 6947 N 645.93 -0.909495 1.28709 0
M  V30 6948 C 646.86 -2.0291 1.15542 0
M  V30 6949 C 647.841 -1.7002 0.0521017 0
M  V30 6950 O 649.026 -1.92835 0.229849 0
M  V30 6951 C 646.156 -3.37458 0.820935 0
M  V30 6952 C 645.11 -3.84524 1.87949 0
M  V30 6953 C 644.436 -5.16086 1.39854 0
M  V30 6954 C 645.736 -4.05918 3.28676 0
M  V30 6955 H 647.43 -2.14183 2.09203 0
M  V30 6956 H 644.976 -1.02913 1.00722 0
M  V30 6957 H 646.929 -4.1528 0.715571 0
M  V30 6958 H 645.653 -3.26249 -0.151374 0
M  V30 6959 H 644.312 -3.08911 1.97408 0
M  V30 6960 H 643.96 -5.01284 0.41518 0
M  V30 6961 H 643.66 -5.48547 2.1064 0
M  V30 6962 H 645.184 -5.96459 1.30649 0
M  V30 6963 H 646.598 -4.74252 3.22115 0
M  V30 6964 H 644.995 -4.49717 3.97334 0
M  V30 6965 H 646.065 -3.10583 3.72379 0
M  V30 6966 N 647.408 -1.11026 -1.11852 0
M  V30 6967 C 648.656 -0.854769 -1.83134 0
M  V30 6968 C 648.977 0.621375 -1.84835 0
M  V30 6969 O 648.247 1.45129 -1.31584 0
M  V30 6970 H 646.827 -0.313229 -0.678157 0
M  V30 6971 H 649.489 -1.40178 -1.35411 0
M  V30 6972 H 648.585 -1.22311 -2.87135 0
M  V30 6973 N 648.886 1.2938 -0.899927 0
M  V30 6974 C 650.134 1.95164 -0.524924 0
M  V30 6975 C 650.455 1.71292 0.931888 0
M  V30 6976 O 649.725 1.04481 1.65712 0
M  V30 6977 H 648.305 0.722133 -0.191135 0
M  V30 6978 H 650.967 1.57628 -1.14627 0
M  V30 6979 H 650.063 3.0397 -0.707711 0
M  V30 6980 N 650.364 0.662433 1.43002 0
M  V30 6981 C 651.327 -0.0142016 2.29196 0
M  V30 6982 C 652.327 -0.741394 1.42688 0
M  V30 6983 O 653.517 -0.581257 1.64216 0
M  V30 6984 C 650.649 -1.03084 3.24941 0
M  V30 6985 H 651.842 0.7443 2.90517 0
M  V30 6986 H 649.395 0.424133 1.50435 0
M  V30 6987 H 650.13 -1.81826 2.68533 0
M  V30 6988 H 649.915 -0.512946 3.8873 0
M  V30 6989 H 651.405 -1.50308 3.89612 0
M  V30 6990 N 651.842 -1.52309 0.404946 0
M  V30 6991 C 653.09 -2.01368 -0.17186 0
M  V30 6992 C 653.411 -1.29261 -1.46002 0
M  V30 6993 O 652.681 -0.41729 -1.91404 0
M  V30 6994 H 651.261 -0.744034 -0.0664993 0
M  V30 6995 H 653.923 -1.87263 0.540228 0
M  V30 6996 H 653.019 -3.09888 -0.370957 0
M  V30 6997 N 653.32 -0.135238 -1.57019 0
M  V30 6998 C 654.283 0.794707 -2.14981 0
M  V30 6999 C 655.283 1.18342 -1.08866 0
M  V30 7000 O 656.473 1.10627 -1.34563 0
M  V30 7001 C 653.605 2.07685 -2.70333 0
M  V30 7002 H 654.798 0.290696 -2.98488 0
M  V30 7003 H 652.351 0.114128 -1.55883 0
M  V30 7004 H 653.086 2.6248 -1.9046 0
M  V30 7005 H 652.871 1.80745 -3.47957 0
M  V30 7006 H 654.361 2.74127 -3.1503 0
M  V30 7007 N 654.798 1.5699 0.138552 0
M  V30 7008 C 655.745 1.98899 1.17081 0
M  V30 7009 C 656.715 0.857922 1.42228 0
M  V30 7010 O 657.9 1.12065 1.54422 0
M  V30 7011 C 655.04 2.38189 2.4972 0
M  V30 7012 C 654.153 3.64624 2.31674 0
M  V30 7013 C 653.288 3.9298 3.57407 0
M  V30 7014 C 652.327 5.1266 3.34435 0
M  V30 7015 N 651.464 5.36983 4.5232 0
M  V30 7016 H 656.304 2.86881 0.80642 0
M  V30 7017 H 653.841 1.41925 0.386727 0
M  V30 7018 H 655.799 2.59 3.2707 0
M  V30 7019 H 654.429 1.53275 2.84089 0
M  V30 7020 H 653.481 3.51542 1.45337 0
M  V30 7021 H 654.793 4.52131 2.10664 0
M  V30 7022 H 653.947 4.14335 4.43183 0
M  V30 7023 H 652.686 3.03912 3.8143 0
M  V30 7024 H 651.691 4.9117 2.47048 0
M  V30 7025 H 652.916 6.03288 3.11802 0
M  V30 7026 H 650.862 4.50871 4.76499 0
M  V30 7027 H 650.779 6.18775 4.34343 0
M  V30 7028 H 652.047 5.62842 5.39285 0
M  V30 7029 N 656.276 -0.40816 1.52223 0
M  V30 7030 C 657.206 -1.5042 1.78595 0
M  V30 7031 C 658.187 -1.57723 0.636974 0
M  V30 7032 O 659.372 -1.72982 0.882664 0
M  V30 7033 C 656.502 -2.88232 1.93751 0
M  V30 7034 C 655.456 -2.95779 3.09352 0
M  V30 7035 C 654.782 -4.35855 3.09732 0
M  V30 7036 C 656.082 -2.67175 4.48793 0
M  V30 7037 H 657.776 -1.28601 2.70374 0
M  V30 7038 H 655.322 -0.617221 1.30101 0
M  V30 7039 H 657.275 -3.64895 2.10783 0
M  V30 7040 H 655.999 -3.11347 0.986443 0
M  V30 7041 H 654.658 -2.21561 2.92072 0
M  V30 7042 H 654.306 -4.55981 2.12346 0
M  V30 7043 H 654.006 -4.41829 3.87377 0
M  V30 7044 H 655.53 -5.14451 3.28895 0
M  V30 7045 H 656.944 -3.3356 4.66273 0
M  V30 7046 H 655.341 -2.84523 5.28362 0
M  V30 7047 H 656.411 -1.62609 4.56822 0
M  V30 7048 N 657.755 -1.42862 -0.66545 0
M  V30 7049 C 658.665 -1.49491 -1.80803 0
M  V30 7050 C 659.681 -0.382914 -1.69734 0
M  V30 7051 O 660.857 -0.635223 -1.9112 0
M  V30 7052 C 657.922 -1.40383 -3.17007 0
M  V30 7053 C 656.983 -2.62152 -3.39963 0
M  V30 7054 C 656.216 -2.53469 -4.69669 0
M  V30 7055 O 656.439 -1.57568 -5.48205 0
M  V30 7056 O 655.373 -3.43763 -4.94075 0
M  V30 7057 H 659.199 -2.45949 -1.78165 0
M  V30 7058 H 656.784 -1.24728 -0.822387 0
M  V30 7059 H 658.666 -1.377 -3.98267 0
M  V30 7060 H 657.341 -0.470546 -3.20262 0
M  V30 7061 H 656.248 -2.70409 -2.58515 0
M  V30 7062 H 657.581 -3.54411 -3.41546 0
M  V30 7063 N 659.233 0.902656 -1.29189 0
M  V30 7064 C 660.51 1.63296 -1.07674 0
M  V30 7065 C 660.89 2.07649 0.380137 0
M  V30 7066 O 660.238 1.82997 1.36837 0
M  V30 7067 C 660.448 2.81603 -2.06158 0
M  V30 7068 C 661.796 3.52359 -2.36914 0
M  V30 7069 O 662.82 2.91767 -2.04329 0
M  V30 7070 O 661.679 4.61586 -2.92576 0
M  V30 7071 H 658.773 0.716889 -0.41231 0
M  V30 7072 H 661.319 0.950984 -1.4055 0
M  V30 7073 H 660.091 2.46004 -3.04299 0
M  V30 7074 H 659.714 3.57508 -1.73993 0
M  V30 7075 N 660.711 1.11618 1.11262 0
M  V30 7076 C 661.644 0.719995 2.16544 0
M  V30 7077 C 662.622 -0.28471 1.60088 0
M  V30 7078 O 663.806 -0.180693 1.87632 0
M  V30 7079 C 660.933 0.0643302 3.38639 0
M  V30 7080 C 659.979 1.03448 4.13764 0
M  V30 7081 S 660.812 2.55789 4.70459 0
M  V30 7082 C 661.968 1.91529 5.95875 0
M  V30 7083 H 662.201 1.61181 2.49816 0
M  V30 7084 H 659.734 0.934401 1.22916 0
M  V30 7085 H 661.692 -0.307609 4.09346 0
M  V30 7086 H 660.353 -0.804471 3.03623 0
M  V30 7087 H 659.546 0.523188 5.01277 0
M  V30 7088 H 659.148 1.34893 3.48826 0
M  V30 7089 H 661.44 1.25286 6.65815 0
M  V30 7090 H 662.383 2.77047 6.51652 0
M  V30 7091 H 662.791 1.37468 5.47506 0
M  V30 7092 N 662.189 -1.289 0.906776 0
M  V30 7093 C 663.152 -2.25777 0.394656 0
M  V30 7094 C 664.152 -1.53621 -0.475119 0
M  V30 7095 O 665.342 -1.71949 -0.279165 0
M  V30 7096 C 662.474 -3.38113 -0.43499 0
M  V30 7097 H 663.667 -2.72592 1.25033 0
M  V30 7098 H 661.22 -1.40463 0.685547 0
M  V30 7099 H 661.955 -2.96648 -1.31036 0
M  V30 7100 H 661.74 -3.91647 0.188334 0
M  V30 7101 H 663.23 -4.10168 -0.784365 0
M  V30 7102 N 663.667 -0.670007 -1.42649 0
M  V30 7103 C 664.63 0.00204659 -2.292 0
M  V30 7104 C 665.63 0.733817 -1.4308 0
M  V30 7105 O 666.82 0.57254 -1.64522 0
M  V30 7106 C 663.952 1.01359 -3.25483 0
M  V30 7107 H 665.145 -0.759696 -2.90118 0
M  V30 7108 H 662.698 -0.432105 -1.50208 0
M  V30 7109 H 663.433 1.80399 -2.69493 0
M  V30 7110 H 663.218 0.492323 -3.88997 0
M  V30 7111 H 664.708 1.4824 -3.90403 0
M  V30 7112 N 665.145 1.52092 -0.413018 0
M  V30 7113 C 666.108 2.25706 0.398687 0
M  V30 7114 C 667.108 1.28221 0.970368 0
M  V30 7115 O 668.298 1.52131 0.848635 0
M  V30 7116 C 665.43 3.03029 1.5616 0
M  V30 7117 H 666.623 2.98888 -0.246131 0
M  V30 7118 H 664.176 1.5542 -0.165622 0
M  V30 7119 H 664.911 2.34205 2.24317 0
M  V30 7120 H 664.696 3.74606 1.15812 0
M  V30 7121 H 666.186 3.58857 2.13569 0
M  V30 7122 N 666.623 0.143563 1.56945 0
M  V30 7123 C 667.853 -0.514699 2.00086 0
M  V30 7124 C 668.261 -1.59184 1.0226 0
M  V30 7125 O 667.604 -1.83697 0.0110514 0
M  V30 7126 C 667.666 -1.17778 3.39659 0
M  V30 7127 C 667.33 -0.245657 4.56339 0
M  V30 7128 C 668.327 0.525343 5.17239 0
M  V30 7129 C 666.012 -0.149564 5.02077 0
M  V30 7130 C 668.006 1.37992 6.22284 0
M  V30 7131 C 665.693 0.708621 6.06978 0
M  V30 7132 C 666.691 1.47197 6.6695 0
M  V30 7133 O 666.379 2.31586 7.6982 0
M  V30 7134 H 666.111 -0.138789 0.661599 0
M  V30 7135 H 668.665 0.234098 2.04062 0
M  V30 7136 H 666.895 -1.97415 3.32512 0
M  V30 7137 H 668.584 -1.73542 3.6693 0
M  V30 7138 H 669.35 0.461118 4.82803 0
M  V30 7139 H 665.229 -0.733457 4.55128 0
M  V30 7140 H 668.773 1.97621 6.69023 0
M  V30 7141 H 664.67 0.77415 6.40841 0
M  V30 7142 H 665.438 2.24796 7.87025 0
M  V30 7143 N 668.101 -1.57061 -0.130224 0
M  V30 7144 C 669.329 -1.88432 -0.854456 0
M  V30 7145 C 669.744 -0.733608 -1.73964 0
M  V30 7146 O 669.101 0.296029 -1.80083 0
M  V30 7147 C 669.152 -3.1918 -1.69724 0
M  V30 7148 O 668.873 -4.2982 -0.847705 0
M  V30 7149 C 670.374 -3.6418 -2.5276 0
M  V30 7150 H 667.594 -0.624193 -0.246221 0
M  V30 7151 H 670.138 -2.04159 -0.11798 0
M  V30 7152 H 668.293 -3.05156 -2.3866 0
M  V30 7153 H 668.707 -5.04689 -1.42792 0
M  V30 7154 H 670.181 -4.58457 -3.07443 0
M  V30 7155 H 670.658 -2.90285 -3.29592 0
M  V30 7156 H 671.264 -3.80954 -1.89087 0
M  V30 7157 N 669.579 0.400081 -1.52437 0
M  V30 7158 C 670.542 1.4707 -1.75793 0
M  V30 7159 C 671.542 1.48036 -0.627856 0
M  V30 7160 O 672.732 1.49401 -0.895817 0
M  V30 7161 C 669.864 2.86427 -1.84858 0
M  V30 7162 H 671.057 1.27649 -2.71377 0
M  V30 7163 H 668.61 0.631141 -1.42991 0
M  V30 7164 H 669.345 3.11207 -0.912194 0
M  V30 7165 H 669.13 2.87128 -2.6702 0
M  V30 7166 H 670.62 3.64023 -2.04638 0
M  V30 7167 N 671.057 1.43213 0.657864 0
M  V30 7168 C 672.304 1.44584 1.41781 0
M  V30 7169 C 672.632 0.0684208 1.9438 0
M  V30 7170 O 671.887 -0.925872 1.72413 0
M  V30 7171 C 672.186 2.43143 2.61947 0
M  V30 7172 C 671.852 3.89128 2.27794 0
M  V30 7173 C 670.514 4.28889 2.18191 0
M  V30 7174 C 672.866 4.81144 2.00375 0
M  V30 7175 C 670.194 5.58625 1.79319 0
M  V30 7176 C 672.546 6.11239 1.63003 0
M  V30 7177 C 671.21 6.49981 1.51922 0
M  V30 7178 H 670.48 0.529069 0.518813 0
M  V30 7179 H 673.127 1.76263 0.748577 0
M  V30 7180 H 671.432 2.04851 3.33981 0
M  V30 7181 H 673.129 2.4146 3.20153 0
M  V30 7182 H 669.719 3.57657 2.36176 0
M  V30 7183 H 673.903 4.512 2.06718 0
M  V30 7184 H 669.159 5.87486 1.69323 0
M  V30 7185 H 673.333 6.82014 1.40817 0
M  V30 7186 H 670.96 7.50416 1.21572 0
M  V30 7187 N 672.536 -0.895792 1.29666 0
M  V30 7188 C 673.499 -1.98189 1.15124 0
M  V30 7189 C 674.499 -1.60572 0.0855717 0
M  V30 7190 O 675.689 -1.70991 0.332826 0
M  V30 7191 C 672.821 -3.32289 0.761372 0
M  V30 7192 H 674.014 -2.12518 2.11603 0
M  V30 7193 H 671.567 -1.0808 1.12908 0
M  V30 7194 H 672.302 -3.23662 -0.203393 0
M  V30 7195 H 672.087 -3.60958 1.53139 0
M  V30 7196 H 673.577 -4.1198 0.682792 0
M  V30 7197 N 674.014 -1.12206 -1.10668 0
M  V30 7198 C 675.43 -0.857619 -1.346 0
M  V30 7199 C 675.63 0.513542 -1.94846 0
M  V30 7200 O 674.686 1.26273 -2.18658 0
M  V30 7201 C 675.999 -1.97212 -2.26998 0
M  V30 7202 C 677.547 -2.00272 -2.40542 0
M  V30 7203 C 678.022 -3.10948 -3.36267 0
M  V30 7204 N 679.513 -3.10375 -3.43834 0
M  V30 7205 C 680.248 -3.92651 -4.17867 0
M  V30 7206 N 679.744 -4.84911 -4.94807 0
M  V30 7207 N 681.537 -3.80798 -4.1346 0
M  V30 7208 H 673.688 -2.00558 -0.699306 0
M  V30 7209 H 675.951 -0.872612 -0.370477 0
M  V30 7210 H 675.657 -2.96002 -1.89936 0
M  V30 7211 H 675.531 -1.87521 -3.27286 0
M  V30 7212 H 677.918 -1.02103 -2.76874 0
M  V30 7213 H 677.999 -2.14037 -1.40077 0
M  V30 7214 H 677.643 -4.09348 -3.00661 0
M  V30 7215 H 677.573 -2.94421 -4.36605 0
M  V30 7216 H 680.064 -2.43536 -2.88961 0
M  V30 7217 H 680.377 -5.44207 -5.48688 0
M  V30 7218 H 678.722 -4.88926 -4.93939 0
M  V30 7219 H 681.913 -3.08058 -3.52445 0
M  V30 7220 H 682.086 -4.4515 -4.70898 0
M  V30 7221 N 675.492 1.28418 -0.913599 0
M  V30 7222 C 676.442 2.24928 -0.373042 0
M  V30 7223 C 677.426 1.52444 0.514753 0
M  V30 7224 O 678.618 1.73414 0.3545 0
M  V30 7225 C 675.747 3.41124 0.385896 0
M  V30 7226 C 674.833 4.20929 -0.51761 0
M  V30 7227 N 675.224 4.78777 -1.63113 0
M  V30 7228 C 673.522 4.44865 -0.317969 0
M  V30 7229 C 674.223 5.38822 -2.19193 0
M  V30 7230 N 673.199 5.22974 -1.48321 0
M  V30 7231 H 677.001 2.67224 -1.22346 0
M  V30 7232 H 674.515 1.43187 -0.766236 0
M  V30 7233 H 676.512 4.09347 0.789997 0
M  V30 7234 H 675.172 3.00362 1.23341 0
M  V30 7235 H 676.183 4.77148 -2.01372 0
M  V30 7236 H 672.86 4.14614 0.49004 0
M  V30 7237 H 674.25 5.94615 -3.12861 0
M  V30 7238 N 676.97 0.677563 1.42291 0
M  V30 7239 C 678.218 0.200578 2.01102 0
M  V30 7240 C 678.539 -1.19803 1.53858 0
M  V30 7241 O 677.809 -1.80496 0.761439 0
M  V30 7242 H 676.389 0.0711634 0.743603 0
M  V30 7243 H 679.051 0.874691 1.7417 0
M  V30 7244 H 678.147 0.204 3.11433 0
M  V30 7245 N 678.448 -1.51871 0.421078 0
M  V30 7246 C 679.395 -2.27334 -0.398508 0
M  V30 7247 C 680.365 -1.30241 -1.03085 0
M  V30 7248 O 681.55 -1.59121 -1.05285 0
M  V30 7249 C 678.69 -3.10664 -1.50272 0
M  V30 7250 C 677.803 -4.2273 -0.890122 0
M  V30 7251 C 676.938 -4.93399 -1.96803 0
M  V30 7252 C 675.977 -5.97409 -1.333 0
M  V30 7253 N 675.114 -6.61548 -2.35156 0
M  V30 7254 H 679.954 -2.96938 0.251411 0
M  V30 7255 H 677.491 -1.46472 0.135825 0
M  V30 7256 H 679.449 -3.57292 -2.15403 0
M  V30 7257 H 678.079 -2.43207 -2.1225 0
M  V30 7258 H 677.131 -3.80186 -0.127537 0
M  V30 7259 H 678.443 -4.97302 -0.386349 0
M  V30 7260 H 677.597 -5.43491 -2.69633 0
M  V30 7261 H 676.336 -4.18421 -2.50549 0
M  V30 7262 H 675.341 -5.46624 -0.59008 0
M  V30 7263 H 676.566 -6.74335 -0.803076 0
M  V30 7264 H 674.512 -5.89394 -2.88012 0
M  V30 7265 H 674.429 -7.31832 -1.89624 0
M  V30 7266 H 675.697 -7.16276 -3.0752 0
M  V30 7267 N 679.926 -0.151884 -1.56866 0
M  V30 7268 C 680.889 0.771861 -2.15812 0
M  V30 7269 C 681.889 1.17181 -1.10115 0
M  V30 7270 O 683.079 1.09194 -1.35729 0
M  V30 7271 C 680.211 2.04806 -2.7252 0
M  V30 7272 H 681.404 0.259021 -2.98779 0
M  V30 7273 H 678.957 0.097588 -1.55995 0
M  V30 7274 H 679.692 2.60445 -1.93233 0
M  V30 7275 H 679.477 1.77044 -3.49854 0
M  V30 7276 H 680.967 2.70771 -3.1792 0
M  V30 7277 N 681.404 1.57128 0.121893 0
M  V30 7278 C 682.652 1.84335 0.828548 0
M  V30 7279 C 682.973 0.736632 1.80551 0
M  V30 7280 O 682.243 -0.23962 1.94429 0
M  V30 7281 H 680.823 0.680108 0.30897 0
M  V30 7282 H 683.485 1.9459 0.109906 0
M  V30 7283 H 682.581 2.80152 1.37554 0
M  V30 7284 N 682.882 -0.391992 1.52647 0
M  V30 7285 C 683.829 -1.47866 1.77213 0
M  V30 7286 C 684.799 -1.54286 0.615223 0
M  V30 7287 O 685.984 -1.7059 0.854622 0
M  V30 7288 C 683.124 -2.85129 1.94411 0
M  V30 7289 C 682.237 -2.87883 3.22098 0
M  V30 7290 C 681.372 -4.16553 3.29631 0
M  V30 7291 C 680.411 -4.13348 4.51453 0
M  V30 7292 N 679.548 -5.33619 4.56284 0
M  V30 7293 H 684.388 -1.26219 2.6995 0
M  V30 7294 H 681.925 -0.612367 1.33748 0
M  V30 7295 H 683.883 -3.64833 2.02367 0
M  V30 7296 H 682.513 -3.05232 1.05038 0
M  V30 7297 H 681.565 -2.00567 3.23229 0
M  V30 7298 H 682.877 -2.81382 4.11856 0
M  V30 7299 H 682.031 -5.0466 3.36753 0
M  V30 7300 H 680.77 -4.25773 2.37842 0
M  V30 7301 H 679.775 -3.23629 4.44459 0
M  V30 7302 H 681 -4.05754 5.44555 0
M  V30 7303 H 678.946 -5.43474 3.67385 0
M  V30 7304 H 678.863 -5.29182 5.3991 0
M  V30 7305 H 680.131 -6.23632 4.67657 0
M  V30 7306 N 684.36 -1.4356 -0.65026 0
M  V30 7307 C 685.29 -1.51758 -1.77459 0
M  V30 7308 C 686.271 -0.372019 -1.65982 0
M  V30 7309 O 687.456 -0.589627 -1.85033 0
M  V30 7310 C 684.586 -1.44302 -3.15902 0
M  V30 7311 C 683.54 -2.57138 -3.42146 0
M  V30 7312 C 682.866 -2.34735 -4.8042 0
M  V30 7313 C 684.166 -3.99373 -3.36598 0
M  V30 7314 H 685.86 -2.45863 -1.70855 0
M  V30 7315 H 683.406 -1.18333 -0.820566 0
M  V30 7316 H 685.359 -1.48641 -3.94314 0
M  V30 7317 H 684.083 -0.467026 -3.23244 0
M  V30 7318 H 682.742 -2.52157 -2.66106 0
M  V30 7319 H 682.39 -1.35372 -4.84441 0
M  V30 7320 H 682.09 -3.10375 -4.9894 0
M  V30 7321 H 683.614 -2.40862 -5.61086 0
M  V30 7322 H 685.028 -4.05826 -4.04942 0
M  V30 7323 H 683.425 -4.75063 -3.66654 0
M  V30 7324 H 684.495 -4.243 -2.34729 0
M  V30 7325 N 685.838 0.888903 -1.30139 0
M  V30 7326 C 687.254 1.17153 -1.08385 0
M  V30 7327 C 687.454 2.0088 0.157925 0
M  V30 7328 O 686.51 2.37668 0.852652 0
M  V30 7329 C 687.823 1.882 -2.34523 0
M  V30 7330 C 689.371 2.00981 -2.39949 0
M  V30 7331 C 689.846 2.75441 -3.65918 0
M  V30 7332 N 691.337 2.82989 -3.66704 0
M  V30 7333 C 692.072 3.41167 -4.60861 0
M  V30 7334 N 691.568 4.00425 -5.6536 0
M  V30 7335 N 693.361 3.38944 -4.48412 0
M  V30 7336 H 685.512 0.33053 -2.09812 0
M  V30 7337 H 687.775 0.208964 -0.924683 0
M  V30 7338 H 687.481 1.34119 -3.25123 0
M  V30 7339 H 687.355 2.88609 -2.42868 0
M  V30 7340 H 689.742 2.54234 -1.4983 0
M  V30 7341 H 689.823 0.996725 -2.35582 0
M  V30 7342 H 689.467 2.22861 -4.56394 0
M  V30 7343 H 689.397 3.77118 -3.67546 0
M  V30 7344 H 691.888 2.40912 -2.91153 0
M  V30 7345 H 692.201 4.42871 -6.33313 0
M  V30 7346 H 690.546 3.98856 -5.69157 0
M  V30 7347 H 693.737 2.91875 -3.6596 0
M  V30 7348 H 693.91 3.83989 -5.21974 0
M  V30 7349 N 687.317 1.12792 1.10072 0
M  V30 7350 C 688.247 0.821688 2.18565 0
M  V30 7351 C 689.228 -0.21612 1.68721 0
M  V30 7352 O 690.413 -0.0764932 1.94049 0
M  V30 7353 C 687.543 0.279624 3.46172 0
M  V30 7354 C 686.497 1.25092 4.09312 0
M  V30 7355 C 685.823 0.568916 5.31665 0
M  V30 7356 C 687.123 2.60699 4.52585 0
M  V30 7357 H 688.817 1.72888 2.44438 0
M  V30 7358 H 686.363 0.832702 1.17482 0
M  V30 7359 H 688.316 0.053099 4.21367 0
M  V30 7360 H 687.04 -0.662929 3.19801 0
M  V30 7361 H 685.699 1.46332 3.36129 0
M  V30 7362 H 685.347 -0.378898 5.01571 0
M  V30 7363 H 685.047 1.21687 5.74862 0
M  V30 7364 H 686.571 0.351517 6.09587 0
M  V30 7365 H 687.985 2.43465 5.19035 0
M  V30 7366 H 686.382 3.21608 5.06644 0
M  V30 7367 H 687.452 3.1886 3.65317 0
M  V30 7368 N 688.795 -1.27931 0.920396 0
M  V30 7369 C 689.727 -2.26175 0.371169 0
M  V30 7370 C 690.74 -1.55122 -0.494065 0
M  V30 7371 O 691.929 -1.75825 -0.30787 0
M  V30 7372 C 689.029 -3.35376 -0.487481 0
M  V30 7373 C 688.202 -4.35943 0.356772 0
M  V30 7374 C 687.261 -5.24374 -0.438042 0
M  V30 7375 O 686.287 -5.68998 0.151715 0
M  V30 7376 N 687.489 -5.53823 -1.73956 0
M  V30 7377 H 690.254 -2.73938 1.21564 0
M  V30 7378 H 687.815 -1.41482 0.787047 0
M  V30 7379 H 689.807 -3.91476 -1.02609 0
M  V30 7380 H 688.377 -2.87269 -1.23269 0
M  V30 7381 H 687.597 -3.7921 1.07672 0
M  V30 7382 H 688.885 -5.0015 0.934206 0
M  V30 7383 H 688.283 -5.19413 -2.24114 0
M  V30 7384 H 686.84 -6.12653 -2.22486 0
M  V30 7385 N 690.273 -0.685099 -1.4193 0
M  V30 7386 C 691.684 -0.287699 -1.8447 0
M  V30 7387 C 692.035 1.17215 -1.57338 0
M  V30 7388 O 691.16 1.89856 -1.03845 0
M  V30 7389 C 691.755 -0.515385 -3.34857 0
M  V30 7390 C 690.314 -0.172006 -3.76007 0
M  V30 7391 C 689.461 -0.802808 -2.65425 0
M  V30 7392 H 692.412 -0.88652 -1.3163 0
M  V30 7393 H 692.433 0.229251 -3.79809 0
M  V30 7394 H 691.945 -1.57796 -3.54573 0
M  V30 7395 H 690.046 0.886716 -3.61895 0
M  V30 7396 H 690.159 -0.619717 -4.75075 0
M  V30 7397 H 688.523 -0.233267 -2.5363 0
M  V30 7398 H 689.306 -1.86904 -2.87961 0
M  V30 7399 N 691.751 1.51645 -0.429126 0
M  V30 7400 C 693.028 1.94579 0.199614 0
M  V30 7401 C 693.408 1.3673 1.60836 0
M  V30 7402 O 692.756 0.551062 2.21756 0
M  V30 7403 C 692.966 3.48506 0.185685 0
M  V30 7404 C 694.314 4.22756 0.395282 0
M  V30 7405 O 695.338 3.55219 0.264165 0
M  V30 7406 O 694.197 5.42555 0.655475 0
M  V30 7407 H 691.291 0.816007 0.134393 0
M  V30 7408 H 693.837 1.62577 -0.486513 0
M  V30 7409 H 692.609 3.83045 -0.799508 0
M  V30 7410 H 692.232 3.86927 0.91507 0
M  V30 7411 N 693.229 0.160201 1.56784 0
M  V30 7412 C 694.506 -0.533355 1.88188 0
M  V30 7413 C 694.886 -1.82072 1.06831 0
M  V30 7414 O 694.234 -2.27946 0.158959 0
M  V30 7415 C 694.444 -0.786034 3.40033 0
M  V30 7416 C 695.792 -1.12097 4.09536 0
M  V30 7417 O 696.816 -0.874949 3.45287 0
M  V30 7418 O 695.675 -1.58457 5.23023 0
M  V30 7419 H 692.769 -0.273589 0.780434 0
M  V30 7420 H 695.315 0.197803 1.68543 0
M  V30 7421 H 694.087 0.124515 3.91102 0
M  V30 7422 H 693.71 -1.57091 3.65251 0
M  V30 7423 N 694.707 -1.5719 -0.113559 0
M  V30 7424 C 696.118 -1.74259 -0.670116 0
M  V30 7425 C 696.469 -0.779694 -1.80042 0
M  V30 7426 O 695.594 0.0461353 -2.16351 0
M  V30 7427 C 696.189 -3.15981 -1.22236 0
M  V30 7428 C 694.748 -3.34537 -1.72516 0
M  V30 7429 C 693.895 -2.70116 -0.627098 0
M  V30 7430 H 696.846 -1.58301 0.112396 0
M  V30 7431 H 696.867 -3.17832 -2.09197 0
M  V30 7432 H 696.379 -3.86038 -0.39949 0
M  V30 7433 H 694.48 -2.6953 -2.57263 0
M  V30 7434 H 694.593 -4.42737 -1.83086 0
M  V30 7435 H 692.957 -2.31501 -1.06204 0
M  V30 7436 H 693.74 -3.42802 0.184889 0
M  V30 7437 N 696.185 0.383891 -1.52853 0
M  V30 7438 C 697.115 1.47559 -1.80965 0
M  V30 7439 C 698.096 1.5669 -0.661986 0
M  V30 7440 O 699.281 1.71556 -0.910072 0
M  V30 7441 C 696.411 2.85114 -1.98312 0
M  V30 7442 C 695.365 2.9082 -3.14019 0
M  V30 7443 C 694.691 4.30873 -3.16627 0
M  V30 7444 C 695.991 2.60001 -4.52986 0
M  V30 7445 H 697.685 1.24283 -2.72386 0
M  V30 7446 H 695.231 0.596445 -1.31067 0
M  V30 7447 H 697.184 3.61496 -2.16561 0
M  V30 7448 H 695.908 3.09738 -1.03585 0
M  V30 7449 H 694.567 2.16886 -2.9556 0
M  V30 7450 H 694.215 4.52545 -2.19573 0
M  V30 7451 H 693.915 4.3561 -3.94357 0
M  V30 7452 H 695.439 5.09154 -3.37038 0
M  V30 7453 H 696.853 3.261 -4.71521 0
M  V30 7454 H 695.25 2.76081 -5.32822 0
M  V30 7455 H 696.32 1.5532 -4.59351 0
M  V30 7456 N 697.663 1.43903 0.642637 0
M  V30 7457 C 698.593 1.52697 1.76652 0
M  V30 7458 C 699.574 0.380816 1.65782 0
M  V30 7459 O 700.759 0.599432 1.84717 0
M  V30 7460 C 697.889 1.45975 3.15133 0
M  V30 7461 C 696.843 2.58949 3.40778 0
M  V30 7462 C 696.169 2.37279 4.79169 0
M  V30 7463 C 697.469 4.01153 3.34475 0
M  V30 7464 H 699.163 2.46766 1.69549 0
M  V30 7465 H 696.709 1.18767 0.814279 0
M  V30 7466 H 698.662 1.5073 3.93521 0
M  V30 7467 H 697.386 0.484162 3.22991 0
M  V30 7468 H 696.045 2.53564 2.64765 0
M  V30 7469 H 695.693 1.37939 4.83717 0
M  V30 7470 H 695.393 3.13016 4.97287 0
M  V30 7471 H 696.917 2.43834 5.59801 0
M  V30 7472 H 698.331 4.07968 4.02784 0
M  V30 7473 H 696.728 4.77001 3.64129 0
M  V30 7474 H 697.798 4.25539 2.32475 0
M  V30 7475 N 699.141 -0.881989 1.30609 0
M  V30 7476 C 700.051 -2.02076 1.19174 0
M  V30 7477 C 701.067 -1.73645 0.11102 0
M  V30 7478 O 702.243 -1.98735 0.326528 0
M  V30 7479 C 699.308 -3.3515 0.887438 0
M  V30 7480 C 698.369 -3.76983 2.05383 0
M  V30 7481 C 697.602 -5.03707 1.76395 0
M  V30 7482 O 697.825 -5.66171 0.693302 0
M  V30 7483 O 696.759 -5.42019 2.61723 0
M  V30 7484 H 700.585 -2.14652 2.14845 0
M  V30 7485 H 698.17 -1.00843 1.10232 0
M  V30 7486 H 700.052 -4.14975 0.73306 0
M  V30 7487 H 698.727 -3.23676 -0.0393354 0
M  V30 7488 H 697.634 -2.97849 2.26355 0
M  V30 7489 H 698.967 -3.93066 2.96243 0
M  V30 7490 N 700.619 -1.13374 -1.09472 0
M  V30 7491 C 702.035 -0.871846 -1.33682 0
M  V30 7492 C 702.235 0.492847 -1.9538 0
M  V30 7493 O 701.291 1.23946 -2.19985 0
M  V30 7494 C 702.604 -1.99608 -2.24893 0
M  V30 7495 C 704.152 -2.02812 -2.38404 0
M  V30 7496 C 704.627 -3.14497 -3.3295 0
M  V30 7497 N 706.118 -3.14004 -3.40523 0
M  V30 7498 C 706.853 -3.97061 -4.13679 0
M  V30 7499 N 706.349 -4.90131 -4.89636 0
M  V30 7500 N 708.142 -3.85162 -4.09398 0
M  V30 7501 H 700.293 -2.01288 -0.677995 0
M  V30 7502 H 702.556 -0.876492 -0.361201 0
M  V30 7503 H 702.262 -2.98 -1.86786 0
M  V30 7504 H 702.136 -1.90981 -3.25278 0
M  V30 7505 H 704.523 -1.05034 -2.75775 0
M  V30 7506 H 704.604 -2.15511 -1.37799 0
M  V30 7507 H 704.248 -4.12514 -2.96302 0
M  V30 7508 H 704.178 -2.99035 -4.33458 0
M  V30 7509 H 706.669 -2.46587 -2.86362 0
M  V30 7510 H 706.982 -5.49996 -5.42885 0
M  V30 7511 H 705.327 -4.94138 -4.88726 0
M  V30 7512 H 708.518 -3.11779 -3.49158 0
M  V30 7513 H 708.691 -4.5012 -4.6615 0
M  V30 7514 N 702.098 1.27442 -0.927168 0
M  V30 7515 C 703.509 1.76385 -0.611979 0
M  V30 7516 C 703.86 1.75715 0.872853 0
M  V30 7517 O 702.985 1.3603 1.683 0
M  V30 7518 C 703.58 3.20303 -1.10414 0
M  V30 7519 C 702.139 3.66916 -0.839628 0
M  V30 7520 C 701.286 2.46859 -1.26317 0
M  V30 7521 H 704.237 1.13716 -1.107 0
M  V30 7522 H 704.258 3.77811 -0.451578 0
M  V30 7523 H 703.77 3.20759 -2.18484 0
M  V30 7524 H 701.871 3.71906 0.227292 0
M  V30 7525 H 701.984 4.56415 -1.45679 0
M  V30 7526 H 700.348 2.45407 -0.681723 0
M  V30 7527 H 701.131 2.50025 -2.3525 0
M  V30 7528 N 703.576 0.692616 1.41565 0
M  V30 7529 C 704.506 0.0397325 2.33466 0
M  V30 7530 C 705.487 -0.770334 1.51657 0
M  V30 7531 O 706.672 -0.723903 1.80203 0
M  V30 7532 C 703.802 -0.899495 3.3545 0
M  V30 7533 C 702.756 -0.196738 4.27548 0
M  V30 7534 C 702.082 -1.25012 5.19881 0
M  V30 7535 C 703.382 0.935158 5.1386 0
M  V30 7536 H 705.076 0.807296 2.88311 0
M  V30 7537 H 702.622 0.389665 1.38628 0
M  V30 7538 H 704.575 -1.36545 3.98665 0
M  V30 7539 H 703.299 -1.69869 2.78948 0
M  V30 7540 H 701.958 0.249158 3.65752 0
M  V30 7541 H 701.606 -2.04177 4.59696 0
M  V30 7542 H 701.306 -0.784931 5.82334 0
M  V30 7543 H 702.83 -1.71665 5.85972 0
M  V30 7544 H 704.244 0.549619 5.70659 0
M  V30 7545 H 702.641 1.32726 5.85238 0
M  V30 7546 H 703.711 1.77613 4.512 0
M  V30 7547 N 705.054 -1.51416 0.437162 0
M  V30 7548 C 705.987 -2.24309 -0.419602 0
M  V30 7549 C 706.965 -1.26236 -1.02485 0
M  V30 7550 O 708.149 -1.5537 -1.06735 0
M  V30 7551 C 705.276 -2.99335 -1.58482 0
M  V30 7552 C 704.322 -4.12064 -1.10027 0
M  V30 7553 S 705.155 -5.35483 -0.0424476 0
M  V30 7554 C 706.311 -6.14047 -1.21234 0
M  V30 7555 H 706.544 -2.96632 0.199259 0
M  V30 7556 H 704.077 -1.528 0.22168 0
M  V30 7557 H 706.035 -3.43159 -2.25282 0
M  V30 7558 H 704.696 -2.26602 -2.17509 0
M  V30 7559 H 703.889 -4.63836 -1.97161 0
M  V30 7560 H 703.491 -3.70499 -0.510507 0
M  V30 7561 H 705.783 -6.43123 -2.13072 0
M  V30 7562 H 706.726 -7.04279 -0.734582 0
M  V30 7563 H 707.134 -5.45538 -1.45082 0
M  V30 7564 N 706.532 -0.168513 -1.56696 0
M  V30 7565 C 707.757 0.486688 -2.01609 0
M  V30 7566 C 708.182 1.56203 -1.04796 0
M  V30 7567 O 707.54 1.8128 -0.0270596 0
M  V30 7568 C 707.588 1.04451 -3.45141 0
M  V30 7569 O 706.692 2.15862 -3.51393 0
M  V30 7570 H 706.033 0.116831 -0.653641 0
M  V30 7571 H 708.563 -0.271579 -2.0279 0
M  V30 7572 H 708.573 1.36782 -3.84389 0
M  V30 7573 H 707.248 0.257155 -4.15104 0
M  V30 7574 H 705.825 1.84597 -3.24004 0
M  V30 7575 N 708.01 1.57248 0.105221 0
M  V30 7576 C 709.235 1.90143 0.828264 0
M  V30 7577 C 709.66 0.761811 1.71983 0
M  V30 7578 O 709.018 -0.287086 1.79013 0
M  V30 7579 C 709.066 3.21856 1.62608 0
M  V30 7580 O 708.17 3.08732 2.7342 0
M  V30 7581 H 707.511 0.623558 0.228192 0
M  V30 7582 H 710.041 2.0443 0.0834826 0
M  V30 7583 H 710.051 3.54916 2.01243 0
M  V30 7584 H 708.726 4.0439 0.971687 0
M  V30 7585 H 707.303 2.87167 2.37886 0
M  V30 7586 N 709.488 -0.375779 1.53054 0
M  V30 7587 C 710.736 -1.11727 1.68409 0
M  V30 7588 C 711.057 -1.90127 0.43323 0
M  V30 7589 O 710.327 -1.87945 -0.552595 0
M  V30 7590 H 708.907 -0.415451 0.620813 0
M  V30 7591 H 711.569 -0.424869 1.90213 0
M  V30 7592 H 710.665 -1.8128 2.54055 0
M  V30 7593 N 710.966 -1.44241 -0.634997 0
M  V30 7594 C 711.929 -1.50457 -1.72903 0
M  V30 7595 C 712.929 -0.387058 -1.56072 0
M  V30 7596 O 714.119 -0.649531 -1.61638 0
M  V30 7597 C 711.251 -1.37477 -3.1195 0
M  V30 7598 H 712.444 -2.47907 -1.68767 0
M  V30 7599 H 709.997 -1.31276 -0.84831 0
M  V30 7600 H 710.732 -0.41106 -3.21684 0
M  V30 7601 H 710.517 -2.18506 -3.25573 0
M  V30 7602 H 712.007 -1.44799 -3.91692 0
M  V30 7603 N 712.444 0.87505 -1.31075 0
M  V30 7604 C 713.407 1.96333 -1.18263 0
M  V30 7605 C 714.407 1.60416 -0.111106 0
M  V30 7606 O 715.597 1.7044 -0.359987 0
M  V30 7607 C 712.729 3.31036 -0.81414 0
M  V30 7608 H 713.922 2.09125 -2.14958 0
M  V30 7609 H 711.475 1.06271 -1.14614 0
M  V30 7610 H 712.21 3.23944 0.151875 0
M  V30 7611 H 711.995 3.58476 -1.58862 0
M  V30 7612 H 713.485 4.10842 -0.748249 0
M  V30 7613 N 713.922 1.13953 1.08869 0
M  V30 7614 C 715.168 0.916103 1.81602 0
M  V30 7615 C 715.523 -0.551633 1.84322 0
M  V30 7616 O 714.816 -1.40322 1.30462 0
M  V30 7617 C 715.01 1.44495 3.26888 0
M  V30 7618 C 714.839 2.96257 3.38322 0
M  V30 7619 C 713.609 3.64658 3.49789 0
M  V30 7620 C 715.807 3.94156 3.30372 0
M  V30 7621 N 713.789 5.04379 3.49965 0
M  V30 7622 C 715.16 5.20101 3.37484 0
M  V30 7623 C 717.215 3.86342 3.14077 0
M  V30 7624 C 715.918 6.39145 3.29979 0
M  V30 7625 C 717.944 5.04927 3.07901 0
M  V30 7626 C 717.306 6.29738 3.1561 0
M  V30 7627 H 713.405 0.388701 0.678554 0
M  V30 7628 H 715.989 1.44879 1.3007 0
M  V30 7629 H 714.16 0.939102 3.76876 0
M  V30 7630 H 715.892 1.16193 3.87661 0
M  V30 7631 H 712.647 3.15196 3.5348 0
M  V30 7632 H 713.071 5.77305 3.53622 0
M  V30 7633 H 717.713 2.90726 3.06982 0
M  V30 7634 H 715.431 7.3501 3.35836 0
M  V30 7635 H 719.017 5.00626 2.9642 0
M  V30 7636 H 717.897 7.19958 3.10854 0
M  V30 7637 N 715.4 -1.26948 0.933913 0
M  V30 7638 C 716.649 -1.93378 0.573409 0
M  V30 7639 C 716.962 -1.74148 -0.890614 0
M  V30 7640 O 718.168 -2.34971 -1.36017 0
M  V30 7641 C 716.624 -3.46449 0.974747 0
M  V30 7642 C 716.232 -3.74425 2.45988 0
M  V30 7643 C 717.976 -4.18924 0.685791 0
M  V30 7644 C 715.883 -5.209 2.8003 0
M  V30 7645 H 714.813 -0.723952 0.210736 0
M  V30 7646 H 717.464 -1.44143 1.13557 0
M  V30 7647 H 715.846 -3.94528 0.341181 0
M  V30 7648 H 717.02 -3.37079 3.14188 0
M  V30 7649 H 715.335 -3.15167 2.72138 0
M  V30 7650 H 717.932 -5.26786 0.916546 0
M  V30 7651 H 718.275 -4.14587 -0.377217 0
M  V30 7652 H 718.808 -3.76687 1.27874 0
M  V30 7653 H 715.547 -5.30332 3.85264 0
M  V30 7654 H 715.067 -5.59369 2.16485 0
M  V30 7655 H 716.746 -5.88837 2.68105 0
M  V30 7656 N 716.879 -0.700114 -1.41195 0
M  V30 7657 C 718.128 -0.230082 -2.00383 0
M  V30 7658 C 718.441 1.17857 -1.56106 0
M  V30 7659 O 719.647 1.74631 -2.07885 0
M  V30 7660 C 718.103 -0.360447 -3.5809 0
M  V30 7661 C 717.711 -1.77475 -4.11347 0
M  V30 7662 C 719.455 0.0495799 -4.24471 0
M  V30 7663 C 717.362 -1.85653 -5.61504 0
M  V30 7664 H 716.292 -0.0822633 -0.749499 0
M  V30 7665 H 718.943 -0.868969 -1.6162 0
M  V30 7666 H 717.325 0.346768 -3.94479 0
M  V30 7667 H 718.499 -2.51109 -3.86369 0
M  V30 7668 H 716.814 -2.13486 -3.57509 0
M  V30 7669 H 719.411 0.00898219 -5.34699 0
M  V30 7670 H 719.754 1.08904 -4.01803 0
M  V30 7671 H 720.287 -0.607521 -3.93134 0
M  V30 7672 H 717.026 -2.87667 -5.89006 0
M  V30 7673 H 716.546 -1.1641 -5.88395 0
M  V30 7674 H 718.225 -1.62151 -6.26351 0
M  V30 7675 N 718.357 1.51182 -0.445186 0
M  V30 7676 C 719.773 1.59299 -0.0978954 0
M  V30 7677 C 719.973 1.4555 1.39346 0
M  V30 7678 O 719.029 1.30073 2.16419 0
M  V30 7679 C 720.342 2.94133 -0.625005 0
M  V30 7680 C 721.89 3.07463 -0.586137 0
M  V30 7681 C 722.365 4.44832 -1.09035 0
M  V30 7682 N 723.856 4.51173 -1.04867 0
M  V30 7683 C 724.591 5.55804 -1.40959 0
M  V30 7684 N 724.087 6.67816 -1.84375 0
M  V30 7685 N 725.88 5.46205 -1.32726 0
M  V30 7686 H 718.031 1.58363 -1.41544 0
M  V30 7687 H 720.294 0.746946 -0.58376 0
M  V30 7688 H 720 3.09589 -1.66876 0
M  V30 7689 H 719.874 3.77161 -0.0542262 0
M  V30 7690 H 722.261 2.9167 0.448646 0
M  V30 7691 H 722.342 2.26255 -1.19341 0
M  V30 7692 H 721.986 4.61372 -2.12364 0
M  V30 7693 H 721.916 5.24591 -0.459539 0
M  V30 7694 H 724.407 3.70783 -0.729932 0
M  V30 7695 H 724.72 7.43683 -2.10131 0
M  V30 7696 H 723.065 6.69003 -1.88308 0
M  V30 7697 H 726.256 4.57583 -0.986678 0
M  V30 7698 H 726.429 6.27634 -1.61182 0
M  V30 7699 N 719.835 0.176821 1.56605 0
M  V30 7700 C 721.251 -0.179278 1.5859 0
M  V30 7701 C 721.451 -1.62433 1.19238 0
M  V30 7702 O 720.507 -2.35665 0.906552 0
M  V30 7703 C 721.82 0.106524 3.00511 0
M  V30 7704 C 723.368 0.0451731 3.12967 0
M  V30 7705 C 723.843 0.304038 4.5699 0
M  V30 7706 N 725.334 0.252008 4.62514 0
M  V30 7707 C 726.069 0.426404 5.71812 0
M  V30 7708 N 725.565 0.660155 6.89648 0
M  V30 7709 N 727.358 0.361926 5.60934 0
M  V30 7710 H 719.509 1.12001 1.8047 0
M  V30 7711 H 721.772 0.445679 0.836704 0
M  V30 7712 H 721.478 1.10778 3.33798 0
M  V30 7713 H 721.352 -0.599337 3.72408 0
M  V30 7714 H 723.739 -0.946662 2.79504 0
M  V30 7715 H 723.82 0.78383 2.43495 0
M  V30 7716 H 723.464 1.29311 4.91163 0
M  V30 7717 H 723.394 -0.455294 5.24628 0
M  V30 7718 H 725.885 0.0772102 3.77821 0
M  V30 7719 H 726.198 0.782529 7.68828 0
M  V30 7720 H 724.543 0.696835 6.91498 0
M  V30 7721 H 727.734 0.17986 4.67754 0
M  V30 7722 H 727.907 0.501263 6.46058 0
M  V30 7723 N 721.313 -1.57302 -0.09688 0
M  V30 7724 C 722.562 -1.85183 -0.799388 0
M  V30 7725 C 722.875 -0.765818 -1.79985 0
M  V30 7726 O 724.081 -0.931696 -2.55013 0
M  V30 7727 C 722.537 -3.28399 -1.47249 0
M  V30 7728 C 722.145 -4.45066 -0.511888 0
M  V30 7729 C 723.889 -3.65506 -2.15883 0
M  V30 7730 C 721.796 -5.79315 -1.18948 0
M  V30 7731 H 720.726 -0.690752 -0.302287 0
M  V30 7732 H 723.377 -1.83425 -0.0523104 0
M  V30 7733 H 721.759 -3.24692 -2.26697 0
M  V30 7734 H 722.933 -4.60116 0.250962 0
M  V30 7735 H 721.248 -4.16343 0.0686576 0
M  V30 7736 H 723.845 -4.63087 -2.67309 0
M  V30 7737 H 724.188 -2.94041 -2.94696 0
M  V30 7738 H 724.721 -3.71094 -1.43298 0
M  V30 7739 H 721.46 -6.54007 -0.442198 0
M  V30 7740 H 720.98 -5.68111 -1.9238 0
M  V30 7741 H 722.659 -6.23816 -1.71646 0
M  V30 7742 N 722.791 0.367657 -1.53252 0
M  V30 7743 C 723.724 1.47264 -1.74323 0
M  V30 7744 C 724.702 1.51458 -0.591535 0
M  V30 7745 O 725.886 1.69542 -0.823883 0
M  V30 7746 C 723.013 2.85637 -1.82015 0
M  V30 7747 C 722.059 2.99176 -3.03967 0
M  V30 7748 S 722.892 2.68147 -4.63527 0
M  V30 7749 C 724.048 4.08673 -4.74065 0
M  V30 7750 H 724.281 1.29169 -2.67773 0
M  V30 7751 H 721.814 0.561866 -1.43814 0
M  V30 7752 H 723.772 3.65365 -1.87132 0
M  V30 7753 H 722.433 3.01043 -0.896195 0
M  V30 7754 H 721.626 4.00511 -3.05953 0
M  V30 7755 H 721.228 2.27367 -2.96952 0
M  V30 7756 H 723.52 5.02889 -4.53992 0
M  V30 7757 H 724.463 4.11693 -5.7612 0
M  V30 7758 H 724.871 3.95576 -4.02716 0
M  V30 7759 N 724.269 1.44576 0.627338 0
M  V30 7760 C 725.232 1.51372 1.72102 0
M  V30 7761 C 726.232 0.395329 1.55865 0
M  V30 7762 O 727.422 0.658094 1.61291 0
M  V30 7763 C 724.554 1.39129 3.11217 0
M  V30 7764 H 725.747 2.48798 1.6745 0
M  V30 7765 H 723.3 1.31724 0.841336 0
M  V30 7766 H 724.035 0.428114 3.21462 0
M  V30 7767 H 723.82 2.20229 3.24409 0
M  V30 7768 H 725.31 1.46874 3.90919 0
M  V30 7769 N 725.747 -0.868086 1.31537 0
M  V30 7770 C 727.024 -1.60384 1.11965 0
M  V30 7771 C 727.404 -2.08584 -0.324949 0
M  V30 7772 O 726.752 -1.86561 -1.31937 0
M  V30 7773 C 726.962 -2.76038 2.13551 0
M  V30 7774 C 728.31 -3.45954 2.46173 0
M  V30 7775 O 729.334 -2.86247 2.11993 0
M  V30 7776 O 728.193 -4.53666 3.04711 0
M  V30 7777 H 725.287 -0.705705 0.431172 0
M  V30 7778 H 727.833 -0.913385 1.43022 0
M  V30 7779 H 726.605 -2.37849 3.10714 0
M  V30 7780 H 726.228 -3.52769 1.83411 0
M  V30 7781 N 727.225 -1.14528 -1.08264 0
M  V30 7782 C 728.135 -0.84728 -2.18765 0
M  V30 7783 C 729.151 0.172826 -1.7314 0
M  V30 7784 O 730.327 0.000985336 -2.014 0
M  V30 7785 C 727.392 -0.330633 -3.4512 0
M  V30 7786 C 726.453 -1.41348 -4.05363 0
M  V30 7787 C 725.686 -0.921387 -5.25686 0
M  V30 7788 O 725.909 0.236587 -5.69909 0
M  V30 7789 O 724.843 -1.70101 -5.77364 0
M  V30 7790 H 728.669 -1.7708 -2.46731 0
M  V30 7791 H 726.254 -0.923661 -1.17426 0
M  V30 7792 H 728.136 -0.0485053 -4.21372 0
M  V30 7793 H 726.811 0.565147 -3.18728 0
M  V30 7794 H 725.718 -1.74908 -3.30693 0
M  V30 7795 H 727.051 -2.28383 -4.36007 0
M  V30 7796 N 728.703 1.26451 -0.940633 0
M  V30 7797 C 729.666 2.24651 -0.454378 0
M  V30 7798 C 730.666 1.54826 0.434222 0
M  V30 7799 O 731.856 1.72628 0.233477 0
M  V30 7800 C 728.988 3.39148 0.345192 0
M  V30 7801 H 730.181 2.69182 -1.32217 0
M  V30 7802 H 727.734 1.38596 -0.722547 0
M  V30 7803 H 728.469 3.00018 1.23125 0
M  V30 7804 H 728.254 3.9101 -0.292107 0
M  V30 7805 H 729.744 4.12103 0.675341 0
M  V30 7806 N 730.181 0.707592 1.40822 0
M  V30 7807 C 731.113 0.0105968 2.29198 0
M  V30 7808 C 732.126 -0.732035 1.45414 0
M  V30 7809 O 733.315 -0.580741 1.68789 0
M  V30 7810 C 730.415 -1.00921 3.23525 0
M  V30 7811 C 729.588 -0.333747 4.36125 0
M  V30 7812 C 728.647 -1.25783 5.10945 0
M  V30 7813 O 727.673 -0.745646 5.64295 0
M  V30 7814 N 728.875 -2.58947 5.19545 0
M  V30 7815 H 731.64 0.76938 2.89656 0
M  V30 7816 H 729.201 0.554579 1.52105 0
M  V30 7817 H 731.193 -1.6294 3.70449 0
M  V30 7818 H 729.763 -1.66942 2.6429 0
M  V30 7819 H 728.983 0.466518 3.9143 0
M  V30 7820 H 730.271 0.135444 5.0862 0
M  V30 7821 H 729.669 -3.03065 4.7767 0
M  V30 7822 H 728.226 -3.16131 5.70004 0
M  V30 7823 N 731.66 -1.50943 0.453197 0
M  V30 7824 C 733.071 -1.86699 -0.00619892 0
M  V30 7825 C 733.422 -1.3693 -1.40515 0
M  V30 7826 O 732.547 -0.726715 -2.03833 0
M  V30 7827 C 733.142 -3.38795 -0.018025 0
M  V30 7828 C 731.701 -3.74028 -0.421885 0
M  V30 7829 C 730.848 -2.74752 0.375087 0
M  V30 7830 H 733.799 -1.43942 0.668317 0
M  V30 7831 H 733.82 -3.71468 -0.824125 0
M  V30 7832 H 733.332 -3.74988 1.00028 0
M  V30 7833 H 731.433 -3.43431 -1.44521 0
M  V30 7834 H 731.546 -4.78908 -0.135664 0
M  V30 7835 H 729.91 -2.5414 -0.168794 0
M  V30 7836 H 730.693 -3.13787 1.39256 0
M  V30 7837 N 733.138 -0.185124 -1.56509 0
M  V30 7838 C 734.068 0.735098 -2.21627 0
M  V30 7839 C 735.049 1.2288 -1.1762 0
M  V30 7840 O 736.234 1.27945 -1.46095 0
M  V30 7841 C 733.364 1.95889 -2.86783 0
M  V30 7842 C 732.318 1.6005 -3.96948 0
M  V30 7843 C 731.644 2.90009 -4.4922 0
M  V30 7844 C 732.944 0.818008 -5.15855 0
M  V30 7845 H 734.638 0.192274 -2.98782 0
M  V30 7846 H 732.184 0.0910393 -1.43712 0
M  V30 7847 H 734.137 2.60779 -3.31017 0
M  V30 7848 H 732.861 2.52608 -2.07018 0
M  V30 7849 H 731.52 0.975237 -3.5339 0
M  V30 7850 H 731.168 3.44797 -3.6623 0
M  V30 7851 H 730.868 2.66778 -5.23549 0
M  V30 7852 H 732.392 3.55904 -4.9615 0
M  V30 7853 H 733.806 1.36979 -5.56695 0
M  V30 7854 H 732.203 0.684207 -5.96187 0
M  V30 7855 H 733.273 -0.182939 -4.84555 0
M  V30 7856 N 734.616 1.57351 0.0885366 0
M  V30 7857 C 736.027 1.75303 0.642308 0
M  V30 7858 C 736.378 0.808238 1.78779 0
M  V30 7859 O 735.503 -0.01171 2.16397 0
M  V30 7860 C 736.098 3.17885 1.17194 0
M  V30 7861 C 734.657 3.37239 1.67172 0
M  V30 7862 C 733.804 2.7108 0.584045 0
M  V30 7863 H 736.755 1.58103 -0.137567 0
M  V30 7864 H 736.776 3.2112 2.04114 0
M  V30 7865 H 736.288 3.86625 0.338024 0
M  V30 7866 H 734.389 2.73588 2.52943 0
M  V30 7867 H 734.502 4.45594 1.76019 0
M  V30 7868 H 732.866 2.33161 1.02508 0
M  V30 7869 H 733.649 3.42464 -0.239403 0
M  V30 7870 N 736.094 -0.359525 1.53444 0
M  V30 7871 C 737.371 -1.11756 1.6053 0
M  V30 7872 C 737.751 -2.06949 0.416587 0
M  V30 7873 O 737.099 -2.20681 -0.592628 0
M  V30 7874 C 737.309 -1.85133 2.95849 0
M  V30 7875 C 738.657 -2.3945 3.50641 0
M  V30 7876 O 739.681 -1.95251 2.97918 0
M  V30 7877 O 738.54 -3.20266 4.42823 0
M  V30 7878 H 735.634 -0.513005 0.648656 0
M  V30 7879 H 738.18 -0.362301 1.65787 0
M  V30 7880 H 736.952 -1.15694 3.73806 0
M  V30 7881 H 736.575 -2.67554 2.9411 0
M  V30 7882 N 737.572 -1.44907 -0.619662 0
M  V30 7883 C 738.797 -1.52021 -1.41083 0
M  V30 7884 C 739.222 -0.14976 -1.87503 0
M  V30 7885 O 738.58 0.863303 -1.59426 0
M  V30 7886 C 738.628 -2.49911 -2.59955 0
M  V30 7887 O 737.732 -2.00857 -3.60181 0
M  V30 7888 H 737.073 -0.512912 -0.421684 0
M  V30 7889 H 739.603 -1.90149 -0.755282 0
M  V30 7890 H 739.613 -2.68323 -3.07354 0
M  V30 7891 H 738.288 -3.4945 -2.25516 0
M  V30 7892 H 736.865 -1.92265 -3.19513 0
M  V30 7893 N 739.05 0.861098 -1.31996 0
M  V30 7894 C 740.013 1.95068 -1.20338 0
M  V30 7895 C 741.013 1.60289 -0.128114 0
M  V30 7896 O 742.203 1.70048 -0.378044 0
M  V30 7897 C 739.335 3.30153 -0.849205 0
M  V30 7898 H 740.528 2.06833 -2.17164 0
M  V30 7899 H 738.081 1.05049 -1.15734 0
M  V30 7900 H 738.816 3.24087 0.117508 0
M  V30 7901 H 738.601 3.56771 -1.62655 0
M  V30 7902 H 740.091 4.10025 -0.791782 0
M  V30 7903 N 740.528 1.15101 1.07655 0
M  V30 7904 C 741.458 0.867864 2.16773 0
M  V30 7905 C 742.439 -0.180283 1.69142 0
M  V30 7906 O 743.624 -0.0353152 1.94168 0
M  V30 7907 C 740.754 0.35299 3.45501 0
M  V30 7908 C 739.708 1.33746 4.06566 0
M  V30 7909 C 739.034 0.681562 5.30338 0
M  V30 7910 C 740.334 2.7024 4.46954 0
M  V30 7911 H 742.028 1.78034 2.40716 0
M  V30 7912 H 739.574 0.857435 1.15689 0
M  V30 7913 H 741.527 0.142465 4.21159 0
M  V30 7914 H 740.251 -0.594945 3.21135 0
M  V30 7915 H 738.91 1.53429 3.32949 0
M  V30 7916 H 738.558 -0.272422 5.02262 0
M  V30 7917 H 738.258 1.33853 5.72151 0
M  V30 7918 H 739.782 0.48074 6.08705 0
M  V30 7919 H 741.196 2.5442 5.13754 0
M  V30 7920 H 739.593 3.32282 4.99709 0
M  V30 7921 H 740.663 3.26537 3.58471 0
M  V30 7922 N 742.006 -1.2595 0.947325 0
M  V30 7923 C 743.417 -1.75389 0.639963 0
M  V30 7924 C 743.768 -1.77081 -0.844788 0
M  V30 7925 O 742.893 -1.3869 -1.66114 0
M  V30 7926 C 743.488 -3.18506 1.15496 0
M  V30 7927 C 742.047 -3.65534 0.897894 0
M  V30 7928 C 741.194 -2.44818 1.30228 0
M  V30 7929 H 744.145 -1.1194 1.12495 0
M  V30 7930 H 744.166 -3.77045 0.511627 0
M  V30 7931 H 743.678 -3.17243 2.23559 0
M  V30 7932 H 741.779 -3.72221 -0.168096 0
M  V30 7933 H 741.892 -4.54039 1.52922 0
M  V30 7934 H 740.256 -2.44291 0.720678 0
M  V30 7935 H 741.039 -2.46251 2.39198 0
M  V30 7936 N 743.484 -0.715051 -1.40445 0
M  V30 7937 C 744.9 -0.388555 -1.54798 0
M  V30 7938 C 745.1 1.10271 -1.68649 0
M  V30 7939 O 744.156 1.88875 -1.67578 0
M  V30 7940 C 745.469 -1.15414 -2.77669 0
M  V30 7941 C 747.017 -1.14039 -2.91486 0
M  V30 7942 C 747.492 -1.88812 -4.1727 0
M  V30 7943 N 748.983 -1.85878 -4.24268 0
M  V30 7944 C 749.718 -2.40558 -5.20499 0
M  V30 7945 N 749.214 -3.03791 -6.22642 0
M  V30 7946 N 751.007 -2.30703 -5.12574 0
M  V30 7947 H 743.158 -1.68201 -1.297 0
M  V30 7948 H 745.421 -0.710915 -0.627139 0
M  V30 7949 H 745.127 -2.20853 -2.7371 0
M  V30 7950 H 745.001 -0.745412 -3.69761 0
M  V30 7951 H 747.388 -0.0941996 -2.9495 0
M  V30 7952 H 747.469 -1.58834 -2.00513 0
M  V30 7953 H 747.113 -2.93422 -4.14568 0
M  V30 7954 H 747.043 -1.41438 -5.0725 0
M  V30 7955 H 749.534 -1.39794 -3.51093 0
M  V30 7956 H 749.847 -3.43032 -6.92495 0
M  V30 7957 H 748.192 -3.07875 -6.23087 0
M  V30 7958 H 751.383 -1.80961 -4.31707 0
M  V30 7959 H 751.556 -2.73618 -5.87398 0
M  V30 7960 N 744.962 1.50701 -0.461195 0
M  V30 7961 C 746.208 2.02566 0.0973411 0
M  V30 7962 C 746.541 1.3432 1.40257 0
M  V30 7963 O 745.816 0.465692 1.88843 0
M  V30 7964 C 746.099 3.58919 0.291423 0
M  V30 7965 C 745.952 4.37751 -1.03413 0
M  V30 7966 C 747.271 4.27379 1.05048 0
M  V30 7967 H 744.39 0.73622 0.0339026 0
M  V30 7968 H 747.032 1.80115 -0.604855 0
M  V30 7969 H 745.182 3.78179 0.889539 0
M  V30 7970 H 746.854 4.30085 -1.66806 0
M  V30 7971 H 745.097 4.01885 -1.63313 0
M  V30 7972 H 745.768 5.45384 -0.852085 0
M  V30 7973 H 748.244 4.12534 0.543603 0
M  V30 7974 H 747.12 5.36609 1.15506 0
M  V30 7975 H 747.381 3.89868 2.0846 0
M  V30 7976 N 746.441 0.193421 1.56409 0
M  V30 7977 C 747.404 -0.714371 2.17783 0
M  V30 7978 C 748.404 -1.1422 1.13183 0
M  V30 7979 O 749.594 -1.05557 1.38576 0
M  V30 7980 C 746.726 -1.97509 2.77855 0
M  V30 7981 H 747.919 -0.179714 2.99361 0
M  V30 7982 H 745.472 -0.0561944 1.56199 0
M  V30 7983 H 746.207 -2.5523 2.0007 0
M  V30 7984 H 745.992 -1.67706 3.54425 0
M  V30 7985 H 747.482 -2.62246 3.24987 0
M  V30 7986 N 747.919 -1.57396 -0.0801906 0
M  V30 7987 C 749.33 -1.75642 -0.633002 0
M  V30 7988 C 749.681 -0.817708 -1.78348 0
M  V30 7989 O 748.806 0.000233743 -2.164 0
M  V30 7990 C 749.401 -3.18502 -1.15507 0
M  V30 7991 C 747.96 -3.38121 -1.65381 0
M  V30 7992 C 747.107 -2.71386 -0.569661 0
M  V30 7993 H 750.058 -1.58027 0.145949 0
M  V30 7994 H 750.079 -3.22198 -2.02408 0
M  V30 7995 H 749.591 -3.86799 -0.317515 0
M  V30 7996 H 747.692 -2.74926 -2.51488 0
M  V30 7997 H 747.805 -4.46521 -1.73654 0
M  V30 7998 H 746.169 -2.33702 -1.0127 0
M  V30 7999 H 746.952 -3.42332 0.257561 0
M  V30 8000 N 749.397 0.351382 -1.53633 0
M  V30 8001 C 750.327 1.43688 -1.84055 0
M  V30 8002 C 751.308 1.55251 -0.695073 0
M  V30 8003 O 752.493 1.69587 -0.946257 0
M  V30 8004 C 749.623 2.80843 -2.04315 0
M  V30 8005 C 748.577 2.84094 -3.20117 0
M  V30 8006 C 747.903 4.2406 -3.25696 0
M  V30 8007 C 749.203 2.50334 -4.58399 0
M  V30 8008 H 750.897 1.18478 -2.74961 0
M  V30 8009 H 748.443 0.568509 -1.32303 0
M  V30 8010 H 750.396 3.56821 -2.2418 0
M  V30 8011 H 749.12 3.07471 -1.10132 0
M  V30 8012 H 747.779 2.10568 -3.00094 0
M  V30 8013 H 747.427 4.47785 -2.29123 0
M  V30 8014 H 747.127 4.27147 -4.03509 0
M  V30 8015 H 748.651 5.0189 -3.47762 0
M  V30 8016 H 750.065 3.16025 -4.78332 0
M  V30 8017 H 748.462 2.64717 -5.38558 0
M  V30 8018 H 749.532 1.45542 -4.62543 0
M  V30 8019 N 750.875 1.45233 0.611969 0
M  V30 8020 C 751.838 1.53189 1.70487 0
M  V30 8021 C 752.838 0.411839 1.55437 0
M  V30 8022 O 754.028 0.675164 1.60584 0
M  V30 8023 C 751.16 1.42422 3.09723 0
M  V30 8024 H 752.353 2.5056 1.64802 0
M  V30 8025 H 749.906 1.32609 0.827318 0
M  V30 8026 H 750.641 0.462185 3.2099 0
M  V30 8027 H 750.426 2.23658 3.22055 0
M  V30 8028 H 751.916 1.51012 3.89339 0
M  V30 8029 N 752.353 -0.854086 1.3245 0
M  V30 8030 C 753.599 -1.6105 1.24235 0
M  V30 8031 C 753.954 -1.91421 -0.193877 0
M  V30 8032 O 753.247 -1.54599 -1.1318 0
M  V30 8033 C 753.441 -2.93746 2.03587 0
M  V30 8034 C 753.27 -2.76335 3.54781 0
M  V30 8035 C 752.04 -2.74687 4.24117 0
M  V30 8036 C 754.238 -2.50052 4.4942 0
M  V30 8037 N 752.22 -2.48493 5.6136 0
M  V30 8038 C 753.591 -2.33269 5.74444 0
M  V30 8039 C 755.646 -2.35525 4.38671 0
M  V30 8040 C 754.349 -2.03434 6.89933 0
M  V30 8041 C 756.375 -2.07081 5.5396 0
M  V30 8042 C 755.737 -1.91098 6.77983 0
M  V30 8043 H 751.836 -0.593008 0.50977 0
M  V30 8044 H 754.42 -1.00392 1.66822 0
M  V30 8045 H 752.591 -3.52382 1.63345 0
M  V30 8046 H 754.323 -3.58768 1.87263 0
M  V30 8047 H 751.078 -2.87647 3.7624 0
M  V30 8048 H 751.502 -2.38322 6.33665 0
M  V30 8049 H 756.144 -2.46602 3.43435 0
M  V30 8050 H 753.862 -1.91095 7.85181 0
M  V30 8051 H 757.448 -1.96618 5.4757 0
M  V30 8052 H 756.328 -1.69402 7.65684 0
M  V30 8053 N 753.831 -1.1567 -1.07043 0
M  V30 8054 C 754.778 -0.856336 -2.14326 0
M  V30 8055 C 755.748 0.192051 -1.64986 0
M  V30 8056 O 756.933 0.0589148 -1.90709 0
M  V30 8057 C 754.073 -0.355227 -3.43267 0
M  V30 8058 C 753.186 -1.46555 -4.06381 0
M  V30 8059 C 752.321 -0.920245 -5.23168 0
M  V30 8060 C 751.36 -2.00729 -5.78251 0
M  V30 8061 N 750.497 -1.47813 -6.86364 0
M  V30 8062 H 755.337 -1.77514 -2.39359 0
M  V30 8063 H 752.874 -0.885676 -1.17449 0
M  V30 8064 H 754.832 -0.0463804 -4.17174 0
M  V30 8065 H 753.462 0.526649 -3.18475 0
M  V30 8066 H 752.514 -1.89052 -3.30096 0
M  V30 8067 H 753.826 -2.28616 -4.43324 0
M  V30 8068 H 752.98 -0.564127 -6.04072 0
M  V30 8069 H 751.719 -0.0688477 -4.87651 0
M  V30 8070 H 750.724 -2.3722 -4.95991 0
M  V30 8071 H 751.949 -2.86252 -6.15822 0
M  V30 8072 H 749.895 -0.649145 -6.5278 0
M  V30 8073 H 749.812 -2.23498 -7.22208 0
M  V30 8074 H 751.08 -1.15036 -7.70965 0
M  V30 8075 N 755.309 1.25446 -0.953992 0
M  V30 8076 C 756.537 1.97215 -0.625595 0
M  V30 8077 C 756.952 1.70911 0.802168 0
M  V30 8078 O 756.309 0.984782 1.5365 0
M  V30 8079 C 756.36 3.50777 -0.873943 0
M  V30 8080 O 756.081 3.76173 -2.24556 0
M  V30 8081 C 757.582 4.39776 -0.557845 0
M  V30 8082 H 754.802 0.628652 -0.2346 0
M  V30 8083 H 757.346 1.59632 -1.27819 0
M  V30 8084 H 755.501 3.86474 -0.267765 0
M  V30 8085 H 755.915 4.70636 -2.31522 0
M  V30 8086 H 757.389 5.46431 -0.782157 0
M  V30 8087 H 757.866 4.36257 0.507573 0
M  V30 8088 H 758.472 4.09644 -1.14332 0
M  V30 8089 N 756.787 0.722489 1.40064 0
M  V30 8090 C 758.035 0.264455 2.00362 0
M  V30 8091 C 758.356 -1.14847 1.57592 0
M  V30 8092 O 757.626 -1.77982 0.818477 0
M  V30 8093 H 756.206 0.0947846 0.740962 0
M  V30 8094 H 758.868 0.929659 1.71299 0
M  V30 8095 H 757.964 0.302977 3.10626 0
M  V30 8096 N 758.265 -1.50454 0.469181 0
M  V30 8097 C 759.493 -2.06729 -0.0842134 0
M  V30 8098 C 759.908 -1.33326 -1.33677 0
M  V30 8099 O 759.265 -0.401977 -1.78018 0
M  V30 8100 C 759.316 -3.59557 -0.374253 0
M  V30 8101 O 759.037 -4.30192 0.828622 0
M  V30 8102 C 760.538 -4.32449 -0.974824 0
M  V30 8103 H 757.758 -0.670971 0.006231 0
M  V30 8104 H 760.302 -1.93645 0.657415 0
M  V30 8105 H 758.457 -3.7245 -1.06581 0
M  V30 8106 H 758.871 -5.21371 0.572066 0
M  V30 8107 H 760.345 -5.40361 -1.12755 0
M  V30 8108 H 760.822 -3.92819 -1.96442 0
M  V30 8109 H 761.428 -4.24082 -0.321703 0
M  V30 8110 N 759.743 -0.201713 -1.56304 0
M  V30 8111 C 760.968 0.443815 -2.02596 0
M  V30 8112 C 761.393 1.53945 -1.08086 0
M  V30 8113 O 760.751 1.81182 -0.0655056 0
M  V30 8114 C 760.799 0.971066 -3.47279 0
M  V30 8115 O 759.903 2.0836 -3.55893 0
M  V30 8116 H 759.244 0.10294 -0.655972 0
M  V30 8117 H 761.774 -0.314533 -2.02168 0
M  V30 8118 H 761.784 1.28598 -3.87204 0
M  V30 8119 H 760.459 0.169048 -4.15556 0
M  V30 8120 H 759.036 1.77683 -3.27846 0
M  V30 8121 N 761.222 1.57436 0.0718424 0
M  V30 8122 C 762.452 1.91196 0.782795 0
M  V30 8123 C 762.86 0.795927 1.71644 0
M  V30 8124 O 762.203 -0.239604 1.82131 0
M  V30 8125 C 762.265 3.20421 1.63005 0
M  V30 8126 C 761.929 4.48724 0.865782 0
M  V30 8127 C 762.926 5.19571 0.185051 0
M  V30 8128 C 760.611 4.95345 0.832971 0
M  V30 8129 C 762.605 6.3529 -0.518264 0
M  V30 8130 C 760.292 6.1097 0.125884 0
M  V30 8131 C 761.29 6.80794 -0.548533 0
M  V30 8132 O 760.978 7.94213 -1.24423 0
M  V30 8133 H 760.71 0.636486 0.227731 0
M  V30 8134 H 763.264 2.05348 0.0464187 0
M  V30 8135 H 761.494 3.02478 2.40923 0
M  V30 8136 H 763.183 3.39831 2.21968 0
M  V30 8137 H 763.949 4.8458 0.201707 0
M  V30 8138 H 759.828 4.40871 1.34737 0
M  V30 8139 H 763.372 6.89725 -1.04523 0
M  V30 8140 H 759.269 6.45411 0.107155 0
M  V30 8141 H 760.037 8.10331 -1.1535 0
M  V30 8142 N 762.7 -0.34323 1.53817 0
M  V30 8143 C 763.948 -1.0813 1.70741 0
M  V30 8144 C 764.269 -1.89165 0.473461 0
M  V30 8145 O 763.539 -1.89075 -0.512605 0
M  V30 8146 H 762.119 -0.40219 0.629486 0
M  V30 8147 H 764.781 -0.384426 1.91071 0
M  V30 8148 H 763.877 -1.7585 2.57843 0
M  V30 8149 N 764.178 -1.45556 -0.604258 0
M  V30 8150 C 765.408 -1.53056 -1.38771 0
M  V30 8151 C 765.816 -0.163092 -1.88496 0
M  V30 8152 O 765.159 0.846157 -1.63052 0
M  V30 8153 C 765.221 -2.45656 -2.62476 0
M  V30 8154 C 764.885 -3.92328 -2.34367 0
M  V30 8155 C 765.882 -4.82137 -1.94525 0
M  V30 8156 C 763.567 -4.37275 -2.47177 0
M  V30 8157 C 765.561 -6.14901 -1.67856 0
M  V30 8158 C 763.248 -5.70079 -2.20122 0
M  V30 8159 C 764.246 -6.58711 -1.80524 0
M  V30 8160 O 763.934 -7.89053 -1.53788 0
M  V30 8161 H 763.666 -0.520721 -0.431075 0
M  V30 8162 H 766.22 -1.91464 -0.743693 0
M  V30 8163 H 764.45 -2.02225 -3.29609 0
M  V30 8164 H 766.139 -2.43802 -3.24523 0
M  V30 8165 H 766.905 -4.48675 -1.84162 0
M  V30 8166 H 762.784 -3.68527 -2.76964 0
M  V30 8167 H 766.328 -6.8404 -1.36874 0
M  V30 8168 H 762.225 -6.03095 -2.30102 0
M  V30 8169 H 762.993 -8.01113 -1.67812 0
M  V30 8170 N 765.656 0.84705 -1.32902 0
M  V30 8171 C 767.072 1.13645 -1.12058 0
M  V30 8172 C 767.272 2.01281 0.093937 0
M  V30 8173 O 766.328 2.4026 0.776608 0
M  V30 8174 C 767.641 1.80644 -2.40392 0
M  V30 8175 C 769.189 1.93246 -2.46221 0
M  V30 8176 C 769.664 2.6366 -3.74496 0
M  V30 8177 N 771.155 2.71179 -3.75521 0
M  V30 8178 C 771.89 3.26332 -4.71482 0
M  V30 8179 N 771.386 3.82236 -5.77813 0
M  V30 8180 N 773.179 3.24507 -4.58968 0
M  V30 8181 H 765.33 0.263612 -2.10758 0
M  V30 8182 H 767.593 0.17944 -0.930863 0
M  V30 8183 H 767.299 1.23708 -3.29225 0
M  V30 8184 H 767.173 2.80736 -2.51926 0
M  V30 8185 H 769.56 2.49338 -1.57843 0
M  V30 8186 H 769.641 0.921272 -2.38634 0
M  V30 8187 H 769.285 2.08229 -4.63253 0
M  V30 8188 H 769.215 3.65234 -3.79357 0
M  V30 8189 H 771.706 2.31527 -2.9867 0
M  V30 8190 H 772.019 4.22499 -6.47082 0
M  V30 8191 H 770.364 3.80546 -5.81558 0
M  V30 8192 H 773.555 2.80085 -3.7506 0
M  V30 8193 H 773.728 3.67188 -5.33926 0
M  V30 8194 N 767.134 1.16236 1.06428 0
M  V30 8195 C 768.411 0.853294 1.76006 0
M  V30 8196 C 768.791 -0.649162 2.00871 0
M  V30 8197 O 768.139 -1.59653 1.63472 0
M  V30 8198 C 768.349 1.67448 3.06206 0
M  V30 8199 C 769.697 1.8866 3.80385 0
M  V30 8200 O 770.721 1.64303 3.16043 0
M  V30 8201 O 769.58 2.29518 4.95968 0
M  V30 8202 H 766.674 0.314737 0.764767 0
M  V30 8203 H 769.22 1.26865 1.12709 0
M  V30 8204 H 767.992 2.69411 2.83784 0
M  V30 8205 H 767.615 1.25608 3.77238 0
M  V30 8206 N 768.612 -1.24939 0.960631 0
M  V30 8207 C 769.575 -2.239 0.49006 0
M  V30 8208 C 770.575 -1.55497 -0.409535 0
M  V30 8209 O 771.765 -1.72978 -0.205984 0
M  V30 8210 C 768.897 -3.39654 -0.291193 0
M  V30 8211 H 770.09 -2.67044 1.36482 0
M  V30 8212 H 767.643 -1.37429 0.744505 0
M  V30 8213 H 768.378 -3.01939 -1.18336 0
M  V30 8214 H 768.163 -3.90496 0.354276 0
M  V30 8215 H 769.653 -4.13125 -0.609693 0
M  V30 8216 N 770.09 -0.729906 -1.39679 0
M  V30 8217 C 771.336 -0.284905 -2.01395 0
M  V30 8218 C 771.691 1.11394 -1.56873 0
M  V30 8219 O 770.984 1.74765 -0.785342 0
M  V30 8220 C 771.178 -0.319564 -3.55968 0
M  V30 8221 C 771.007 -1.72024 -4.15497 0
M  V30 8222 C 769.777 -2.33128 -4.48307 0
M  V30 8223 C 771.975 -2.67296 -4.39383 0
M  V30 8224 N 769.957 -3.65403 -4.93309 0
M  V30 8225 C 771.328 -3.84298 -4.86534 0
M  V30 8226 C 773.383 -2.65124 -4.21442 0
M  V30 8227 C 772.086 -4.99455 -5.17627 0
M  V30 8228 C 774.112 -3.7942 -4.53646 0
M  V30 8229 C 773.474 -4.95156 -5.00999 0
M  V30 8230 H 769.573 -0.1504 -0.767401 0
M  V30 8231 H 772.157 -0.954783 -1.69682 0
M  V30 8232 H 770.328 0.319938 -3.8708 0
M  V30 8233 H 772.06 0.143504 -4.04445 0
M  V30 8234 H 768.815 -1.85097 -4.35931 0
M  V30 8235 H 769.239 -4.33298 -5.20175 0
M  V30 8236 H 773.881 -1.76842 -3.8404 0
M  V30 8237 H 771.599 -5.88371 -5.53937 0
M  V30 8238 H 775.185 -3.79031 -4.41392 0
M  V30 8239 H 774.065 -5.82131 -5.25446 0
M  V30 8240 N 771.568 1.50203 -0.477153 0
M  V30 8241 C 772.531 2.27194 0.302599 0
M  V30 8242 C 773.531 1.32221 0.915112 0
M  V30 8243 O 774.721 1.55593 0.783348 0
M  V30 8244 C 771.853 3.0938 1.43167 0
M  V30 8245 H 773.046 2.97575 -0.372678 0
M  V30 8246 H 770.599 1.54578 -0.231392 0
M  V30 8247 H 771.334 2.43509 2.14182 0
M  V30 8248 H 771.119 3.79181 0.998197 0
M  V30 8249 H 772.609 3.67592 1.98157 0
M  V30 8250 N 773.046 0.209999 1.56195 0
M  V30 8251 C 774.295 -0.425106 1.97169 0
M  V30 8252 C 774.608 -1.61718 1.10031 0
M  V30 8253 O 775.814 -2.32105 1.40853 0
M  V30 8254 C 774.27 -0.80771 3.50719 0
M  V30 8255 C 773.878 0.360902 4.46544 0
M  V30 8256 C 775.622 -1.40906 4.00432 0
M  V30 8257 C 773.529 -0.0434919 5.91384 0
M  V30 8258 H 772.459 -0.162598 0.736259 0
M  V30 8259 H 775.11 0.304382 1.80958 0
M  V30 8260 H 773.492 -1.59429 3.62489 0
M  V30 8261 H 774.666 1.13846 4.46515 0
M  V30 8262 H 772.981 0.874729 4.07109 0
M  V30 8263 H 775.578 -1.72433 5.06133 0
M  V30 8264 H 775.921 -2.32081 3.45607 0
M  V30 8265 H 776.454 -0.686154 3.91838 0
M  V30 8266 H 773.193 0.834448 6.50167 0
M  V30 8267 H 772.713 -0.785598 5.94633 0
M  V30 8268 H 774.392 -0.474176 6.4526 0
M  V30 8269 N 774.524 -1.57472 -0.0634922 0
M  V30 8270 C 775.772 -1.87283 -0.759563 0
M  V30 8271 C 776.093 -0.803135 -1.77693 0
M  V30 8272 O 775.363 0.167293 -1.95184 0
M  V30 8273 H 773.943 -0.691106 -0.283516 0
M  V30 8274 H 776.605 -1.94864 -0.0376091 0
M  V30 8275 H 775.701 -2.85064 -1.27062 0
M  V30 8276 N 776.003 0.335068 -1.53997 0
M  V30 8277 C 777.249 1.07594 -1.71905 0
M  V30 8278 C 777.582 1.88039 -0.485264 0
M  V30 8279 O 776.857 1.87482 0.517752 0
M  V30 8280 C 777.14 2.01016 -2.98772 0
M  V30 8281 C 776.993 1.23977 -4.32377 0
M  V30 8282 C 778.312 3.0071 -3.21343 0
M  V30 8283 H 775.431 0.38976 -0.625505 0
M  V30 8284 H 778.073 0.353684 -1.86679 0
M  V30 8285 H 776.223 2.62603 -2.86307 0
M  V30 8286 H 777.895 0.649383 -4.56706 0
M  V30 8287 H 776.138 0.541878 -4.30402 0
M  V30 8288 H 776.809 1.92512 -5.17342 0
M  V30 8289 H 779.285 2.4924 -3.33194 0
M  V30 8290 H 778.161 3.63272 -4.11491 0
M  V30 8291 H 778.422 3.72549 -2.38033 0
M  V30 8292 N 777.481 1.45874 0.596531 0
M  V30 8293 C 778.429 1.55739 1.72766 0
M  V30 8294 C 779.423 0.426666 1.63939 0
M  V30 8295 O 780.629 0.60301 1.69599 0
M  V30 8296 H 777.004 0.489386 0.570968 0
M  V30 8297 H 778.975 2.50871 1.61575 0
M  V30 8298 C 777.724 1.55174 3.11153 0
M  V30 8299 H 777.047 2.41511 3.1861 0
M  V30 8300 H 778.487 1.66133 3.90097 0
M  V30 8301 C 776.946 0.278001 3.35751 0
M  V30 8302 O 777.476 -0.637557 3.96608 0
M  V30 8303 N 775.682 0.170227 2.90101 0
M  V30 8304 H 775.229 0.916159 2.40758 0
M  V30 8305 H 775.187 -0.68117 3.06932 0
M  V30 8306 N 778.959 -0.83999 1.33349 0
M  V30 8307 C 779.922 -1.93128 1.23426 0
M  V30 8308 C 780.922 -1.60065 0.153599 0
M  V30 8309 O 782.112 -1.69425 0.405049 0
M  V30 8310 C 779.244 -3.28761 0.901622 0
M  V30 8311 H 780.437 -2.03352 2.20427 0
M  V30 8312 H 777.99 -1.03194 1.17391 0
M  V30 8313 H 778.725 -3.24233 -0.0659337 0
M  V30 8314 H 778.51 -3.54138 1.68311 0
M  V30 8315 H 780 -4.08714 0.856913 0
M  V30 8316 N 780.437 -1.16799 -1.0581 0
M  V30 8317 C 781.853 -0.913935 -1.30841 0
M  V30 8318 C 782.053 0.430439 -1.96849 0
M  V30 8319 O 781.109 1.16885 -2.23817 0
M  V30 8320 C 782.422 -2.06662 -2.18429 0
M  V30 8321 C 783.97 -2.10294 -2.31831 0
M  V30 8322 C 784.445 -3.2493 -3.22776 0
M  V30 8323 N 785.936 -3.24678 -3.30361 0
M  V30 8324 C 786.671 -4.10021 -4.00837 0
M  V30 8325 N 786.167 -5.05461 -4.73795 0
M  V30 8326 N 787.96 -3.97991 -3.96937 0
M  V30 8327 H 780.111 -2.03343 -0.613613 0
M  V30 8328 H 782.374 -0.88754 -0.333133 0
M  V30 8329 H 782.08 -3.03791 -1.77211 0
M  V30 8330 H 781.954 -2.01233 -3.19038 0
M  V30 8331 H 784.341 -1.13754 -2.72294 0
M  V30 8332 H 784.422 -2.19786 -1.30873 0
M  V30 8333 H 784.066 -4.21731 -2.83028 0
M  V30 8334 H 783.996 -3.12674 -4.23725 0
M  V30 8335 H 786.487 -2.55573 -2.78372 0
M  V30 8336 H 786.8 -5.66989 -5.25113 0
M  V30 8337 H 785.145 -5.09436 -4.72758 0
M  V30 8338 H 788.336 -3.2273 -3.39062 0
M  V30 8339 H 788.509 -4.64722 -4.51594 0
M  V30 8340 N 781.915 1.24427 -0.967243 0
M  V30 8341 C 783.145 1.96256 -0.64554 0
M  V30 8342 C 783.553 1.71959 0.789098 0
M  V30 8343 O 782.896 0.999913 1.54102 0
M  V30 8344 C 782.958 3.49553 -0.839798 0
M  V30 8345 C 782.622 3.97548 -2.25399 0
M  V30 8346 C 783.619 4.07257 -3.23168 0
M  V30 8347 C 781.304 4.30884 -2.58156 0
M  V30 8348 C 783.298 4.49635 -4.51782 0
M  V30 8349 C 780.985 4.72946 -3.86996 0
M  V30 8350 C 781.983 4.82286 -4.83621 0
M  V30 8351 O 781.671 5.23409 -6.10162 0
M  V30 8352 H 781.403 0.632002 -0.239895 0
M  V30 8353 H 783.957 1.59224 -1.29757 0
M  V30 8354 H 782.187 3.86479 -0.130603 0
M  V30 8355 H 783.876 4.02591 -0.517249 0
M  V30 8356 H 784.642 3.8172 -2.9919 0
M  V30 8357 H 780.521 4.22833 -1.83666 0
M  V30 8358 H 784.065 4.5684 -5.27203 0
M  V30 8359 H 779.962 4.9793 -4.10775 0
M  V30 8360 H 780.73 5.4156 -6.13722 0
M  V30 8361 N 783.393 0.737304 1.3929 0
M  V30 8362 C 784.639 0.286681 2.00763 0
M  V30 8363 C 784.972 -1.12388 1.58375 0
M  V30 8364 O 784.247 -1.76661 0.813699 0
M  V30 8365 C 784.53 0.391147 3.57969 0
M  V30 8366 C 784.383 1.84165 4.1037 0
M  V30 8367 C 785.702 -0.225072 4.39524 0
M  V30 8368 H 782.821 0.105642 0.729389 0
M  V30 8369 H 785.463 0.933892 1.65464 0
M  V30 8370 H 783.613 -0.159875 3.88171 0
M  V30 8371 H 785.285 2.44972 3.90879 0
M  V30 8372 H 783.528 2.3622 3.63844 0
M  V30 8373 H 784.199 1.866 5.19504 0
M  V30 8374 H 786.675 0.244677 4.1538 0
M  V30 8375 H 785.551 -0.121646 5.48765 0
M  V30 8376 H 785.812 -1.31141 4.22202 0
M  V30 8377 N 784.871 -1.49948 0.485112 0
M  V30 8378 C 786.12 -2.01589 -0.066765 0
M  V30 8379 C 786.433 -1.371 -1.39509 0
M  V30 8380 O 787.639 -1.79978 -2.03274 0
M  V30 8381 C 786.095 -3.59501 -0.169476 0
M  V30 8382 C 785.703 -4.32955 1.15126 0
M  V30 8383 C 787.447 -4.19138 -0.672564 0
M  V30 8384 C 785.354 -5.82684 1.01158 0
M  V30 8385 H 784.284 -0.753453 -0.0287259 0
M  V30 8386 H 786.935 -1.72632 0.622132 0
M  V30 8387 H 785.317 -3.85106 -0.922471 0
M  V30 8388 H 786.491 -4.19064 1.9163 0
M  V30 8389 H 784.806 -3.84991 1.58654 0
M  V30 8390 H 787.403 -5.28767 -0.794325 0
M  V30 8391 H 787.746 -3.81447 -1.66745 0
M  V30 8392 H 788.279 -3.97793 0.0234415 0
M  V30 8393 H 785.018 -6.24873 1.98025 0
M  V30 8394 H 784.538 -5.99112 0.287151 0
M  V30 8395 H 786.217 -6.43376 0.683847 0
M  V30 8396 N 786.349 -0.21828 -1.56081 0
M  V30 8397 C 787.597 0.413488 -1.97825 0
M  V30 8398 C 787.918 1.60527 -1.10707 0
M  V30 8399 O 787.188 1.9504 -0.183378 0
M  V30 8400 H 785.768 0.155757 -0.730581 0
M  V30 8401 H 788.43 -0.310413 -1.92412 0
M  V30 8402 H 787.526 0.742024 -3.03151 0
M  V30 8403 N 787.827 1.57504 0.0551401 0
M  V30 8404 C 789.076 1.87237 0.750009 0
M  V30 8405 C 789.389 0.813268 1.77891 0
M  V30 8406 O 790.595 0.99898 2.52453 0
M  V30 8407 C 789.051 3.32187 1.38491 0
M  V30 8408 C 788.659 4.46267 0.393707 0
M  V30 8409 C 790.403 3.71101 2.06117 0
M  V30 8410 C 788.31 5.82265 1.03547 0
M  V30 8411 H 787.24 0.698524 0.283866 0
M  V30 8412 H 789.891 1.835 0.00365997 0
M  V30 8413 H 788.273 3.30588 2.18008 0
M  V30 8414 H 789.447 4.59289 -0.372865 0
M  V30 8415 H 787.762 4.16015 -0.17902 0
M  V30 8416 H 790.359 4.70012 2.54937 0
M  V30 8417 H 790.702 3.01751 2.86796 0
M  V30 8418 H 791.235 3.74762 1.33409 0
M  V30 8419 H 787.974 6.54949 0.268644 0
M  V30 8420 H 787.494 5.73012 1.7725 0
M  V30 8421 H 789.173 6.28148 1.55047 0
M  V30 8422 N 789.305 -0.326896 1.54172 0
M  V30 8423 C 790.551 -1.06304 1.7341 0
M  V30 8424 C 790.906 -1.85791 0.499935 0
M  V30 8425 O 790.199 -1.84753 -0.507625 0
M  V30 8426 C 790.393 -2.0208 2.94785 0
M  V30 8427 C 790.222 -1.32009 4.29888 0
M  V30 8428 C 788.992 -1.05798 4.941 0
M  V30 8429 C 791.19 -0.737721 5.08982 0
M  V30 8430 N 789.172 -0.324836 6.1304 0
M  V30 8431 C 790.543 -0.136006 6.19851 0
M  V30 8432 C 792.598 -0.640206 4.93767 0
M  V30 8433 C 791.301 0.553757 7.17165 0
M  V30 8434 C 793.327 0.0358492 5.91389 0
M  V30 8435 C 792.689 0.626522 7.01608 0
M  V30 8436 H 788.788 -0.372808 0.687414 0
M  V30 8437 H 791.372 -0.34462 1.91626 0
M  V30 8438 H 789.543 -2.71197 2.78041 0
M  V30 8439 H 791.275 -2.68655 3.02666 0
M  V30 8440 H 788.03 -1.34945 4.53968 0
M  V30 8441 H 788.454 0.0274982 6.76994 0
M  V30 8442 H 793.096 -1.0826 4.08705 0
M  V30 8443 H 790.814 1.00799 8.01789 0
M  V30 8444 H 794.4 0.110895 5.81694 0
M  V30 8445 H 793.28 1.14135 7.7585 0
M  V30 8446 N 790.784 -1.46188 -0.588786 0
M  V30 8447 C 792.012 -1.54743 -1.37339 0
M  V30 8448 C 792.427 -0.186446 -1.87877 0
M  V30 8449 O 791.784 0.815247 -1.63279 0
M  V30 8450 C 791.835 -2.54727 -2.56508 0
M  V30 8451 O 791.556 -3.85539 -2.08066 0
M  V30 8452 C 793.057 -2.73163 -3.49137 0
M  V30 8453 H 790.277 -0.523484 -0.419768 0
M  V30 8454 H 792.821 -1.91543 -0.716345 0
M  V30 8455 H 790.976 -2.20948 -3.18215 0
M  V30 8456 H 791.39 -4.39905 -2.85629 0
M  V30 8457 H 792.864 -3.47057 -4.2925 0
M  V30 8458 H 793.341 -1.79856 -4.00685 0
M  V30 8459 H 793.947 -3.08014 -2.9327 0
M  V30 8460 N 792.262 0.832906 -1.33792 0
M  V30 8461 C 793.51 1.58539 -1.25338 0
M  V30 8462 C 793.831 1.94175 0.179204 0
M  V30 8463 O 793.101 1.61458 1.10941 0
M  V30 8464 H 791.681 0.58784 -0.460926 0
M  V30 8465 H 794.343 0.995064 -1.67584 0
M  V30 8466 H 793.439 2.51268 -1.85123 0
M  V30 8467 N 793.74 1.17359 1.05189 0
M  V30 8468 C 795.156 0.920861 1.30355 0
M  V30 8469 C 795.356 -0.419993 1.97074 0
M  V30 8470 O 794.412 -1.15696 2.24434 0
M  V30 8471 C 795.725 2.07818 2.1733 0
M  V30 8472 C 797.273 2.1152 2.30712 0
M  V30 8473 C 797.748 3.26637 3.21048 0
M  V30 8474 N 799.239 3.26426 3.28634 0
M  V30 8475 C 799.974 4.12141 3.98657 0
M  V30 8476 N 799.47 5.07966 4.71107 0
M  V30 8477 N 801.263 4.00091 3.94821 0
M  V30 8478 H 793.414 2.03666 0.602821 0
M  V30 8479 H 795.677 0.889294 0.328421 0
M  V30 8480 H 795.383 3.04727 1.75597 0
M  V30 8481 H 795.257 2.02922 3.17966 0
M  V30 8482 H 797.644 1.15196 2.71687 0
M  V30 8483 H 797.725 2.20477 1.29706 0
M  V30 8484 H 797.369 4.23227 2.80788 0
M  V30 8485 H 797.299 3.14917 4.2206 0
M  V30 8486 H 799.79 2.57045 2.77013 0
M  V30 8487 H 800.103 5.69766 5.22099 0
M  V30 8488 H 798.448 5.11936 4.7005 0
M  V30 8489 H 801.639 3.24523 3.37346 0
M  V30 8490 H 801.812 4.6711 4.49123 0
M  V30 8491 N 795.218 -1.23913 0.973828 0
M  V30 8492 C 796.629 -1.73992 0.677021 0
M  V30 8493 C 796.98 -1.78833 -0.807036 0
M  V30 8494 O 796.105 -1.42183 -1.63135 0
M  V30 8495 C 796.7 -3.15985 1.22226 0
M  V30 8496 C 795.259 -3.63547 0.975228 0
M  V30 8497 C 794.406 -2.42001 1.35392 0
M  V30 8498 H 797.357 -1.09529 1.14844 0
M  V30 8499 H 797.378 -3.75875 0.591489 0
M  V30 8500 H 796.89 -3.12429 2.30238 0
M  V30 8501 H 794.991 -3.72493 -0.0891047 0
M  V30 8502 H 795.104 -4.50693 1.62518 0
M  V30 8503 H 793.468 -2.42708 0.772334 0
M  V30 8504 H 794.251 -2.41122 2.44367 0
M  V30 8505 N 796.696 -0.74468 -1.38897 0
M  V30 8506 C 797.973 -0.222773 -1.94327 0
M  V30 8507 C 798.353 1.27731 -1.68071 0
M  V30 8508 O 797.701 2.04754 -1.01429 0
M  V30 8509 C 797.911 -0.566836 -3.44366 0
M  V30 8510 C 799.259 -0.521531 -4.21385 0
M  V30 8511 O 800.283 -0.504599 -3.52608 0
M  V30 8512 O 799.142 -0.524595 -5.43976 0
M  V30 8513 H 796.236 -0.0439259 -0.825833 0
M  V30 8514 H 798.782 -0.824197 -1.48341 0
M  V30 8515 H 797.554 -1.60321 -3.56949 0
M  V30 8516 H 797.177 0.0630577 -3.9755 0
M  V30 8517 N 798.174 1.49689 -0.493057 0
M  V30 8518 C 799.422 2.02027 0.0541642 0
M  V30 8519 C 799.743 1.37554 1.38217 0
M  V30 8520 O 799.013 0.528174 1.88646 0
M  V30 8521 H 797.593 0.746646 0.0230069 0
M  V30 8522 H 800.255 1.83795 -0.648489 0
M  V30 8523 H 799.351 3.11523 0.189652 0
M  V30 8524 N 799.652 0.226554 1.55963 0
M  V30 8525 C 800.88 -0.408507 2.02827 0
M  V30 8526 C 801.295 -1.52994 1.10627 0
M  V30 8527 O 800.652 -1.82126 0.116809 0
M  V30 8528 C 800.703 -0.93545 3.49187 0
M  V30 8529 O 800.424 0.141273 4.37872 0
M  V30 8530 C 801.925 -1.64325 4.11719 0
M  V30 8531 H 799.145 -0.099442 0.66359 0
M  V30 8532 H 801.689 0.344471 2.01578 0
M  V30 8533 H 799.844 -1.63868 3.51036 0
M  V30 8534 H 800.258 -0.25558 5.23877 0
M  V30 8535 H 801.732 -1.9639 5.15883 0
M  V30 8536 H 802.209 -2.55815 3.57009 0
M  V30 8537 H 802.815 -0.9851 4.13734 0
M  V30 8538 N 801.13 -1.57531 -0.0467866 0
M  V30 8539 C 802.541 -1.76945 -0.595603 0
M  V30 8540 C 802.892 -0.855354 -1.76573 0
M  V30 8541 O 802.017 -0.045668 -2.16352 0
M  V30 8542 C 802.612 -3.20881 -1.08725 0
M  V30 8543 C 801.171 -3.41553 -1.58172 0
M  V30 8544 C 800.318 -2.72533 -0.511968 0
M  V30 8545 H 803.269 -1.57682 0.179436 0
M  V30 8546 H 803.29 -3.26419 -1.95528 0
M  V30 8547 H 802.802 -3.87385 -0.235398 0
M  V30 8548 H 800.903 -2.80199 -2.456 0
M  V30 8549 H 801.016 -4.50104 -1.64143 0
M  V30 8550 H 799.38 -2.35797 -0.962899 0
M  V30 8551 H 800.163 -3.41709 0.330117 0
M  V30 8552 N 802.608 0.318715 -1.54344 0
M  V30 8553 C 803.854 1.05765 -1.73037 0
M  V30 8554 C 804.187 1.87514 -0.505181 0
M  V30 8555 O 803.462 1.88021 0.497838 0
M  V30 8556 C 803.745 1.97836 -3.00887 0
M  V30 8557 C 803.598 1.19384 -4.33668 0
M  V30 8558 C 804.917 2.97285 -3.24514 0
M  V30 8559 H 802.036 0.383104 -0.629603 0
M  V30 8560 H 804.678 0.333864 -1.87044 0
M  V30 8561 H 802.828 2.59552 -2.89076 0
M  V30 8562 H 804.5 0.600906 -4.57369 0
M  V30 8563 H 802.743 0.496198 -4.30953 0
M  V30 8564 H 803.414 1.87014 -5.19355 0
M  V30 8565 H 805.89 2.45693 -3.35819 0
M  V30 8566 H 804.766 3.58887 -4.15321 0
M  V30 8567 H 805.027 3.70003 -2.41971 0
M  V30 8568 N 804.086 1.46499 0.581025 0
M  V30 8569 C 805.332 1.52121 1.34116 0
M  V30 8570 C 805.665 0.173031 1.93428 0
M  V30 8571 O 804.94 -0.815729 1.76568 0
M  V30 8572 C 805.223 2.62108 2.46924 0
M  V30 8573 C 805.076 4.06462 1.92636 0
M  V30 8574 C 806.395 2.68167 3.48962 0
M  V30 8575 H 803.514 0.5538 0.486287 0
M  V30 8576 H 806.156 1.78443 0.652538 0
M  V30 8577 H 804.306 2.39794 3.05665 0
M  V30 8578 H 805.978 4.40068 1.3834 0
M  V30 8579 H 804.221 4.15862 1.23455 0
M  V30 8580 H 804.892 4.79152 2.74076 0
M  V30 8581 H 807.368 2.8823 3.00104 0
M  V30 8582 H 806.244 3.46942 4.2535 0
M  V30 8583 H 806.505 1.74284 4.06297 0
M  V30 8584 N 805.565 -0.825799 1.34232 0
M  V30 8585 C 806.813 -1.57873 1.26177 0
M  V30 8586 C 807.134 -1.94267 -0.168904 0
M  V30 8587 O 806.404 -1.62045 -1.10084 0
M  V30 8588 H 804.984 -0.585388 0.464037 0
M  V30 8589 H 807.646 -0.986163 1.6811 0
M  V30 8590 H 806.742 -2.50283 1.86453 0
M  V30 8591 N 807.043 -1.17915 -1.04565 0
M  V30 8592 C 807.975 -0.859359 -2.1248 0
M  V30 8593 C 808.988 0.140922 -1.62189 0
M  V30 8594 O 810.177 -0.0862361 -1.78292 0
M  V30 8595 C 807.277 -0.261811 -3.37887 0
M  V30 8596 C 806.45 -1.30651 -4.17431 0
M  V30 8597 C 805.509 -0.725575 -5.21174 0
M  V30 8598 O 804.535 -1.39901 -5.51739 0
M  V30 8599 N 805.737 0.479351 -5.78517 0
M  V30 8600 H 808.502 -1.78818 -2.40508 0
M  V30 8601 H 806.063 -1.07885 -1.20716 0
M  V30 8602 H 808.055 0.14028 -4.04457 0
M  V30 8603 H 806.625 0.570929 -3.07342 0
M  V30 8604 H 805.845 -1.88412 -3.46258 0
M  V30 8605 H 807.133 -2.01099 -4.67372 0
M  V30 8606 H 806.531 1.04431 -5.55977 0
M  V30 8607 H 805.088 0.823427 -6.46578 0
M  V30 8608 N 808.521 1.23394 -0.980386 0
M  V30 8609 C 809.768 1.91809 -0.649261 0
M  V30 8610 C 810.096 1.765 0.817197 0
M  V30 8611 O 809.351 1.11979 1.60497 0
M  V30 8612 C 809.65 3.43542 -0.985588 0
M  V30 8613 C 809.316 3.79031 -2.44225 0
M  V30 8614 C 807.978 3.88429 -2.84035 0
M  V30 8615 C 810.33 3.96145 -3.38702 0
M  V30 8616 C 807.658 4.12368 -4.17336 0
M  V30 8617 C 810.01 4.21583 -4.71646 0
M  V30 8618 C 808.674 4.29203 -5.11215 0
M  V30 8619 H 807.944 0.70188 -0.237581 0
M  V30 8620 H 810.591 1.4642 -1.23424 0
M  V30 8621 H 808.896 3.90503 -0.318521 0
M  V30 8622 H 810.593 3.94708 -0.707596 0
M  V30 8623 H 807.183 3.7229 -2.12362 0
M  V30 8624 H 811.367 3.88274 -3.09123 0
M  V30 8625 H 806.623 4.1649 -4.47601 0
M  V30 8626 H 810.797 4.33769 -5.4481 0
M  V30 8627 H 808.424 4.47505 -6.14527 0
M  V30 8628 N 809.999 0.752036 1.385 0
M  V30 8629 C 811.247 0.306895 1.99756 0
M  V30 8630 C 811.568 -1.11478 1.59992 0
M  V30 8631 O 810.838 -1.76206 0.856045 0
M  V30 8632 H 809.418 0.11048 0.738785 0
M  V30 8633 H 812.08 0.965785 1.69289 0
M  V30 8634 H 811.176 0.368797 3.09913 0
M  V30 8635 N 811.477 -1.49425 0.500989 0
M  V30 8636 C 812.724 -2.02453 -0.0435355 0
M  V30 8637 C 813.052 -1.38067 -1.36995 0
M  V30 8638 O 812.307 -0.505557 -1.89057 0
M  V30 8639 C 812.606 -3.56562 -0.24463 0
M  V30 8640 C 812.272 -4.39585 1.00379 0
M  V30 8641 C 810.934 -4.61992 1.346 0
M  V30 8642 C 813.286 -4.87881 1.83361 0
M  V30 8643 C 810.614 -5.2994 2.51755 0
M  V30 8644 C 812.966 -5.57119 2.99669 0
M  V30 8645 C 811.63 -5.77771 3.3427 0
M  V30 8646 H 810.9 -0.740829 -0.0159308 0
M  V30 8647 H 813.547 -1.79725 0.661143 0
M  V30 8648 H 811.852 -3.77969 -1.03183 0
M  V30 8649 H 813.549 -3.95185 -0.6804 0
M  V30 8650 H 810.139 -4.22385 0.727225 0
M  V30 8651 H 814.323 -4.70398 1.58237 0
M  V30 8652 H 809.579 -5.44133 2.788 0
M  V30 8653 H 813.753 -5.93516 3.64296 0
M  V30 8654 H 811.38 -6.30197 4.25154 0
M  V30 8655 N 812.955 -0.234822 -1.55841 0
M  V30 8656 C 813.918 0.656378 -2.196 0
M  V30 8657 C 814.918 1.11179 -1.16171 0
M  V30 8658 O 816.108 1.01845 -1.41326 0
M  V30 8659 C 813.24 1.90072 -2.82993 0
M  V30 8660 H 814.433 0.100281 -2.99732 0
M  V30 8661 H 811.986 0.0147613 -1.56293 0
M  V30 8662 H 812.721 2.49836 -2.06767 0
M  V30 8663 H 812.506 1.5825 -3.58747 0
M  V30 8664 H 813.996 2.53538 -3.31826 0
M  V30 8665 N 814.433 1.57553 0.0384317 0
M  V30 8666 C 815.658 1.93485 0.746872 0
M  V30 8667 C 816.083 0.834069 1.68597 0
M  V30 8668 O 815.441 -0.210902 1.80069 0
M  V30 8669 C 815.489 3.28463 1.4881 0
M  V30 8670 O 814.593 3.20051 2.60079 0
M  V30 8671 H 813.934 0.632675 0.201539 0
M  V30 8672 H 816.464 2.046 -0.00329815 0
M  V30 8673 H 816.474 3.63132 1.86009 0
M  V30 8674 H 815.149 4.08147 0.799297 0
M  V30 8675 H 813.726 2.96998 2.25492 0
M  V30 8676 N 815.911 -0.310526 1.54511 0
M  V30 8677 C 816.874 -1.3657 1.84068 0
M  V30 8678 C 817.874 -1.44123 0.713097 0
M  V30 8679 O 819.064 -1.43924 0.981399 0
M  V30 8680 C 816.196 -2.75162 2.01243 0
M  V30 8681 H 817.389 -1.1161 2.78358 0
M  V30 8682 H 814.942 -0.546699 1.46427 0
M  V30 8683 H 815.677 -3.05359 1.09208 0
M  V30 8684 H 815.462 -2.71071 2.83307 0
M  V30 8685 H 816.952 -3.51473 2.25514 0
M  V30 8686 N 817.389 -1.46805 -0.573248 0
M  V30 8687 C 818.635 -1.5283 -1.33307 0
M  V30 8688 C 818.968 -0.183287 -1.93333 0
M  V30 8689 O 818.243 0.806354 -1.76998 0
M  V30 8690 C 818.526 -2.63414 -2.45531 0
M  V30 8691 C 818.379 -4.07478 -1.90478 0
M  V30 8692 C 819.698 -2.70014 -3.47535 0
M  V30 8693 H 816.817 -0.556371 -0.483343 0
M  V30 8694 H 819.459 -1.78787 -0.643066 0
M  V30 8695 H 817.609 -2.41412 -3.04389 0
M  V30 8696 H 819.281 -4.40795 -1.36004 0
M  V30 8697 H 817.524 -4.16511 -1.21248 0
M  V30 8698 H 818.195 -4.80598 -2.71531 0
M  V30 8699 H 820.671 -2.89817 -2.98572 0
M  V30 8700 H 819.547 -3.49192 -4.23504 0
M  V30 8701 H 819.808 -1.76436 -4.05367 0
M  V30 8702 N 818.867 0.818669 -1.34668 0
M  V30 8703 C 820.278 1.39177 -1.24446 0
M  V30 8704 C 820.629 1.9578 0.128268 0
M  V30 8705 O 819.754 1.90382 1.02877 0
M  V30 8706 C 820.349 2.53012 -2.25323 0
M  V30 8707 C 818.908 3.06218 -2.18878 0
M  V30 8708 C 818.055 1.79112 -2.11694 0
M  V30 8709 H 821.006 0.622709 -1.45973 0
M  V30 8710 H 821.027 3.31226 -1.8727 0
M  V30 8711 H 820.539 2.11784 -3.25221 0
M  V30 8712 H 818.64 3.51939 -1.22351 0
M  V30 8713 H 818.753 3.65019 -3.10319 0
M  V30 8714 H 817.117 2.0018 -1.57481 0
M  V30 8715 H 817.9 1.40053 -3.13433 0
M  V30 8716 N 820.346 1.18468 1.03938 0
M  V30 8717 C 821.276 0.936389 2.13902 0
M  V30 8718 C 822.257 -0.126381 1.6963 0
M  V30 8719 O 823.442 0.0264757 1.94182 0
M  V30 8720 C 820.572 0.462729 3.44204 0
M  V30 8721 C 819.526 1.46613 4.02105 0
M  V30 8722 C 818.852 0.84994 5.27902 0
M  V30 8723 C 820.152 2.84323 4.3813 0
M  V30 8724 H 821.846 1.85602 2.3493 0
M  V30 8725 H 819.392 0.893806 1.12903 0
M  V30 8726 H 821.345 0.276382 4.20493 0
M  V30 8727 H 820.069 -0.492477 3.22866 0
M  V30 8728 H 818.728 1.63944 3.27899 0
M  V30 8729 H 818.376 -0.112493 5.02874 0
M  V30 8730 H 818.076 1.51988 5.67603 0
M  V30 8731 H 819.6 0.674152 6.06867 0
M  V30 8732 H 821.014 2.70636 5.054 0
M  V30 8733 H 819.411 3.48012 4.88884 0
M  V30 8734 H 820.481 3.37776 3.47901 0
M  V30 8735 N 821.824 -1.22873 0.986916 0
M  V30 8736 C 822.754 -2.2688 0.552064 0
M  V30 8737 C 823.735 -1.64883 -0.418048 0
M  V30 8738 O 824.92 -1.9171 -0.30999 0
M  V30 8739 C 822.05 -3.47018 -0.139959 0
M  V30 8740 C 821.004 -4.21411 0.748091 0
M  V30 8741 C 820.33 -5.34645 -0.0765132 0
M  V30 8742 C 821.63 -4.80726 2.04206 0
M  V30 8743 H 823.324 -2.63507 1.42143 0
M  V30 8744 H 820.87 -1.26668 0.68492 0
M  V30 8745 H 822.823 -4.18931 -0.455527 0
M  V30 8746 H 821.547 -3.0947 -1.04382 0
M  V30 8747 H 820.206 -3.51325 1.04721 0
M  V30 8748 H 819.854 -4.93339 -0.981109 0
M  V30 8749 H 819.554 -5.85342 0.514606 0
M  V30 8750 H 821.078 -6.09377 -0.386313 0
M  V30 8751 H 822.492 -5.44612 1.79083 0
M  V30 8752 H 820.889 -5.41737 2.5815 0
M  V30 8753 H 821.959 -4.01109 2.72469 0
M  V30 8754 N 823.302 -0.75937 -1.38099 0
M  V30 8755 C 824.25 -0.124954 -2.32264 0
M  V30 8756 C 825.244 0.698863 -1.54312 0
M  V30 8757 O 826.45 0.597312 -1.698 0
M  V30 8758 H 822.825 -0.0216142 -0.751689 0
M  V30 8759 H 824.796 -0.935115 -2.83369 0
M  V30 8760 C 823.545 0.749463 -3.39527 0
M  V30 8761 H 822.868 0.124932 -3.99605 0
M  V30 8762 H 824.308 1.16055 -4.07808 0
M  V30 8763 C 822.767 1.89464 -2.78577 0
M  V30 8764 O 823.297 2.98923 -2.68343 0
M  V30 8765 N 821.503 1.69145 -2.36301 0
M  V30 8766 H 821.05 0.801157 -2.44825 0
M  V30 8767 H 821.008 2.45936 -1.95864 0
M  V30 8768 N 824.78 1.49157 -0.508906 0
M  V30 8769 C 825.712 2.272 0.302115 0
M  V30 8770 C 826.725 1.3407 0.923529 0
M  V30 8771 O 827.914 1.5929 0.805532 0
M  V30 8772 C 825.014 3.06736 1.44105 0
M  V30 8773 C 824.187 4.27497 0.925477 0
M  V30 8774 C 823.246 4.89014 1.94297 0
M  V30 8775 O 822.272 5.48851 1.50834 0
M  V30 8776 N 823.474 4.7937 3.2739 0
M  V30 8777 H 826.239 2.97443 -0.367115 0
M  V30 8778 H 823.8 1.58248 -0.341933 0
M  V30 8779 H 825.792 3.44763 2.11944 0
M  V30 8780 H 824.362 2.3905 2.0143 0
M  V30 8781 H 823.582 3.94135 0.0717301 0
M  V30 8782 H 824.87 5.05714 0.55955 0
M  V30 8783 H 824.268 4.31869 3.65384 0
M  V30 8784 H 822.825 5.21559 3.90922 0
M  V30 8785 N 826.258 0.243083 1.55714 0
M  V30 8786 C 827.504 -0.383287 1.99145 0
M  V30 8787 C 827.837 -1.57868 1.13098 0
M  V30 8788 O 827.112 -1.93535 0.193509 0
M  V30 8789 C 827.395 -0.796879 3.51172 0
M  V30 8790 C 827.248 0.403642 4.47985 0
M  V30 8791 C 828.567 -1.64525 4.08191 0
M  V30 8792 H 825.686 -0.137843 0.723995 0
M  V30 8793 H 828.328 0.343631 1.86867 0
M  V30 8794 H 826.478 -1.41625 3.61766 0
M  V30 8795 H 828.15 1.04204 4.49376 0
M  V30 8796 H 826.393 1.04741 4.20965 0
M  V30 8797 H 827.064 0.0709794 5.51954 0
M  V30 8798 H 829.54 -1.12246 4.00674 0
M  V30 8799 H 828.416 -1.9035 5.14838 0
M  V30 8800 H 828.677 -2.61582 3.56409 0
M  V30 8801 N 827.736 -1.57571 -0.0300757 0
M  V30 8802 C 828.684 -2.0758 -1.04944 0
M  V30 8803 C 829.678 -0.989384 -1.37505 0
M  V30 8804 O 830.884 -1.17427 -1.36422 0
M  V30 8805 H 827.259 -0.662419 -0.355956 0
M  V30 8806 H 829.23 -2.92268 -0.601848 0
M  V30 8807 C 827.979 -2.5698 -2.34215 0
M  V30 8808 H 827.302 -3.40193 -2.10021 0
M  V30 8809 H 828.742 -2.95682 -3.03888 0
M  V30 8810 C 827.201 -1.47059 -3.03109 0
M  V30 8811 O 827.731 -0.83625 -3.92899 0
M  V30 8812 N 825.937 -1.20538 -2.64422 0
M  V30 8813 H 825.484 -1.72305 -1.9149 0
M  V30 8814 H 825.442 -0.472045 -3.10836 0
M  V30 8815 N 829.214 0.302327 -1.54673 0
M  V30 8816 C 830.162 1.39286 -1.86285 0
M  V30 8817 C 831.156 1.52553 -0.736478 0
M  V30 8818 O 832.362 1.54686 -0.92045 0
M  V30 8819 H 828.737 0.465228 -0.590819 0
M  V30 8820 H 830.708 1.09859 -2.77441 0
M  V30 8821 C 829.457 2.75155 -2.12567 0
M  V30 8822 H 828.78 2.65728 -2.98712 0
M  V30 8823 H 830.22 3.50476 -2.38627 0
M  V30 8824 C 828.679 3.23987 -0.923813 0
M  V30 8825 O 829.209 4.01443 -0.143649 0
M  V30 8826 N 827.415 2.81293 -0.72956 0
M  V30 8827 H 826.962 2.18421 -1.36565 0
M  V30 8828 H 826.92 3.14315 0.0730351 0
M  V30 8829 N 830.692 1.47107 0.565454 0
M  V30 8830 C 831.941 1.5257 1.31929 0
M  V30 8831 C 832.254 0.189092 1.94684 0
M  V30 8832 O 833.46 0.121657 2.71227 0
M  V30 8833 C 831.916 2.68914 2.39193 0
M  V30 8834 C 831.524 4.09069 1.82665 0
M  V30 8835 C 833.268 2.83663 3.1581 0
M  V30 8836 C 831.175 5.16726 2.87661 0
M  V30 8837 H 830.105 0.567869 0.496025 0
M  V30 8838 H 832.756 1.73361 0.60151 0
M  V30 8839 H 831.138 2.41486 3.13848 0
M  V30 8840 H 832.312 4.46364 1.14438 0
M  V30 8841 H 830.627 3.99135 1.1866 0
M  V30 8842 H 833.224 3.61261 3.94201 0
M  V30 8843 H 833.567 1.91804 3.69482 0
M  V30 8844 H 834.1 3.10821 2.48265 0
M  V30 8845 H 830.839 6.10433 2.38854 0
M  V30 8846 H 830.359 4.83957 3.54324 0
M  V30 8847 H 832.038 5.43319 3.51303 0
M  V30 8848 N 832.17 -0.811516 1.35101 0
M  V30 8849 C 833.1 -1.9378 1.30275 0
M  V30 8850 C 834.081 -1.69165 0.178075 0
M  V30 8851 O 835.266 -1.90599 0.372256 0
M  V30 8852 C 832.396 -3.30439 1.06899 0
M  V30 8853 C 831.35 -3.69523 2.15955 0
M  V30 8854 C 830.676 -5.0429 1.77751 0
M  V30 8855 C 831.976 -3.80419 3.57881 0
M  V30 8856 H 833.67 -1.98075 2.24514 0
M  V30 8857 H 831.216 -0.951586 1.08078 0
M  V30 8858 H 833.169 -4.08828 1.02164 0
M  V30 8859 H 831.893 -3.26473 0.0910462 0
M  V30 8860 H 830.552 -2.93416 2.19778 0
M  V30 8861 H 830.2 -4.96823 0.785876 0
M  V30 8862 H 829.9 -5.31411 2.5075 0
M  V30 8863 H 831.424 -5.85125 1.74533 0
M  V30 8864 H 832.838 -4.49051 3.56407 0
M  V30 8865 H 831.235 -4.19005 4.29598 0
M  V30 8866 H 832.305 -2.82105 3.94391 0
M  V30 8867 N 833.648 -1.19017 -1.03309 0
M  V30 8868 C 834.578 -0.94772 -2.13402 0
M  V30 8869 C 835.559 0.117383 -1.69694 0
M  V30 8870 O 836.744 -0.0367733 -1.94165 0
M  V30 8871 C 833.874 -0.480977 -3.43953 0
M  V30 8872 C 832.828 -1.48743 -4.01322 0
M  V30 8873 C 832.154 -0.877924 -5.27443 0
M  V30 8874 C 833.454 -2.86642 -4.36616 0
M  V30 8875 H 835.148 -1.86846 -2.33942 0
M  V30 8876 H 832.694 -0.899781 -1.12427 0
M  V30 8877 H 834.647 -0.298677 -4.2034 0
M  V30 8878 H 833.371 0.475348 -3.23122 0
M  V30 8879 H 832.03 -1.65681 -3.27025 0
M  V30 8880 H 831.678 0.0858232 -5.02927 0
M  V30 8881 H 831.378 -1.54996 -5.66789 0
M  V30 8882 H 832.902 -0.706326 -6.06501 0
M  V30 8883 H 834.316 -2.73312 -5.03958 0
M  V30 8884 H 832.713 -3.50599 -4.87032 0
M  V30 8885 H 833.783 -3.39617 -3.46105 0
M  V30 8886 N 835.127 1.22348 -0.993418 0
M  V30 8887 C 836.352 1.95666 -0.687727 0
M  V30 8888 C 836.777 1.72883 0.741161 0
M  V30 8889 O 836.135 1.00837 1.50671 0
M  V30 8890 C 836.183 3.46457 -0.99998 0
M  V30 8891 O 835.287 4.12281 -0.0989386 0
M  V30 8892 H 834.628 0.612102 -0.257346 0
M  V30 8893 H 837.158 1.55428 -1.33054 0
M  V30 8894 H 837.168 3.96976 -0.942035 0
M  V30 8895 H 835.843 3.62365 -2.04118 0
M  V30 8896 H 834.42 3.72295 -0.212413 0
M  V30 8897 N 836.605 0.766683 1.37694 0
M  V30 8898 C 838.021 0.445739 1.53249 0
M  V30 8899 C 838.221 -1.03935 1.72626 0
M  V30 8900 O 837.277 -1.82525 1.74473 0
M  V30 8901 C 838.59 1.2564 2.73194 0
M  V30 8902 C 840.138 1.24779 2.87053 0
M  V30 8903 C 840.613 2.04169 4.09974 0
M  V30 8904 N 842.104 2.01497 4.17077 0
M  V30 8905 C 842.839 2.5971 5.11212 0
M  V30 8906 N 842.335 3.26691 6.10938 0
M  V30 8907 N 844.128 2.49568 5.03659 0
M  V30 8908 H 836.279 1.72899 1.23368 0
M  V30 8909 H 838.542 0.733701 0.600322 0
M  V30 8910 H 838.248 2.30859 2.65324 0
M  V30 8911 H 838.122 0.882133 3.6674 0
M  V30 8912 H 840.509 0.203603 2.94397 0
M  V30 8913 H 840.59 1.66166 1.9448 0
M  V30 8914 H 840.234 3.08606 4.03392 0
M  V30 8915 H 840.164 1.60167 5.01651 0
M  V30 8916 H 842.655 1.52728 3.45662 0
M  V30 8917 H 842.968 3.68497 6.79286 0
M  V30 8918 H 841.313 3.30789 6.11231 0
M  V30 8919 H 844.504 1.96859 4.24693 0
M  V30 8920 H 844.677 2.95231 5.76839 0
M  V30 8921 N 838.083 -1.48885 0.516809 0
M  V30 8922 C 839.308 -2.0739 -0.0205201 0
M  V30 8923 C 839.733 -1.37259 -1.28614 0
M  V30 8924 O 839.091 -0.434304 -1.76021 0
M  V30 8925 C 839.139 -3.59793 -0.24104 0
M  V30 8926 O 838.243 -3.90957 -1.31251 0
M  V30 8927 H 837.584 -0.663167 0.0332564 0
M  V30 8928 H 840.114 -1.91477 0.720956 0
M  V30 8929 H 840.124 -4.0531 -0.467737 0
M  V30 8930 H 838.799 -4.10244 0.68356 0
M  V30 8931 H 837.376 -3.57234 -1.06951 0
M  V30 8932 N 839.561 -0.251338 -1.55583 0
M  V30 8933 C 840.524 0.63305 -2.20284 0
M  V30 8934 C 841.524 1.09941 -1.17344 0
M  V30 8935 O 842.714 1.00341 -1.42399 0
M  V30 8936 C 839.846 1.8706 -2.84993 0
M  V30 8937 H 841.039 0.0684846 -2.99822 0
M  V30 8938 H 838.592 -0.00181653 -1.563 0
M  V30 8939 H 839.327 2.47629 -2.09405 0
M  V30 8940 H 839.112 1.54436 -3.60405 0
M  V30 8941 H 840.602 2.50004 -3.34496 0
M  V30 8942 N 841.039 1.57585 0.0217189 0
M  V30 8943 C 841.987 2.08134 1.03842 0
M  V30 8944 C 842.981 0.996662 1.36978 0
M  V30 8945 O 844.187 1.18149 1.35797 0
M  V30 8946 H 840.562 0.664298 0.352438 0
M  V30 8947 H 842.533 2.92583 0.58634 0
M  V30 8948 C 841.282 2.58218 2.32849 0
M  V30 8949 H 840.605 3.41302 2.08214 0
M  V30 8950 H 842.045 2.97289 3.02316 0
M  V30 8951 C 840.504 1.48664 3.02325 0
M  V30 8952 O 841.034 0.857075 3.9245 0
M  V30 8953 N 839.24 1.21938 2.63779 0
M  V30 8954 H 838.787 1.73319 1.90574 0
M  V30 8955 H 838.745 0.488523 3.10581 0
M  V30 8956 N 842.517 -0.29412 1.54831 0
M  V30 8957 C 843.447 -1.36757 1.89261 0
M  V30 8958 C 844.428 -1.52564 0.752214 0
M  V30 8959 O 845.613 -1.65958 1.00855 0
M  V30 8960 C 842.743 -2.73066 2.14597 0
M  V30 8961 C 841.697 -2.72017 3.3044 0
M  V30 8962 C 841.023 -4.11679 3.4121 0
M  V30 8963 C 842.323 -2.33149 4.67375 0
M  V30 8964 H 844.017 -1.08191 2.79169 0
M  V30 8965 H 841.563 -0.519014 1.34321 0
M  V30 8966 H 843.516 -3.48255 2.37269 0
M  V30 8967 H 842.24 -3.03172 1.21467 0
M  V30 8968 H 840.899 -1.99285 3.07703 0
M  V30 8969 H 840.547 -4.38973 2.45584 0
M  V30 8970 H 840.247 -4.11877 4.19084 0
M  V30 8971 H 841.771 -4.88637 3.6615 0
M  V30 8972 H 843.185 -2.98054 4.89731 0
M  V30 8973 H 841.582 -2.44546 5.48012 0
M  V30 8974 H 842.652 -1.28275 4.67626 0
M  V30 8975 N 843.995 -1.47404 -0.557645 0
M  V30 8976 C 845.406 -1.47872 -1.13977 0
M  V30 8977 C 845.757 -0.233176 -1.94809 0
M  V30 8978 O 844.882 0.661945 -2.06027 0
M  V30 8979 C 845.477 -2.67926 -2.07368 0
M  V30 8980 C 844.036 -2.71354 -2.60852 0
M  V30 8981 C 843.183 -2.40967 -1.37223 0
M  V30 8982 H 846.134 -1.54921 -0.344268 0
M  V30 8983 H 846.155 -2.44871 -2.91236 0
M  V30 8984 H 845.667 -3.58562 -1.48509 0
M  V30 8985 H 843.768 -1.84855 -3.23511 0
M  V30 8986 H 843.881 -3.72032 -3.01876 0
M  V30 8987 H 842.245 -1.91541 -1.67882 0
M  V30 8988 H 843.028 -3.33811 -0.801583 0
M  V30 8989 N 845.473 0.80434 -1.35529 0
M  V30 8990 C 846.383 1.94784 -1.30753 0
M  V30 8991 C 847.399 1.72703 -0.212071 0
M  V30 8992 O 848.575 1.96494 -0.441841 0
M  V30 8993 C 845.64 3.29406 -1.08133 0
M  V30 8994 C 844.701 3.64367 -2.27013 0
M  V30 8995 C 843.934 4.92566 -2.05463 0
M  V30 8996 O 844.157 5.61166 -1.02222 0
M  V30 8997 O 843.091 5.25838 -2.92879 0
M  V30 8998 H 846.917 2.01761 -2.26994 0
M  V30 8999 H 844.502 0.942448 -1.15924 0
M  V30 9000 H 846.384 4.09995 -0.973756 0
M  V30 9001 H 845.059 3.23355 -0.149444 0
M  V30 9002 H 843.966 2.84146 -2.43335 0
M  V30 9003 H 845.299 3.75125 -3.18656 0
M  V30 9004 N 846.951 1.19563 1.02676 0
M  V30 9005 C 848.228 0.908857 1.73203 0
M  V30 9006 C 848.608 -0.584928 2.02834 0
M  V30 9007 O 847.956 -1.54372 1.68469 0
M  V30 9008 C 848.166 1.77105 3.00724 0
M  V30 9009 C 849.514 2.00667 3.7419 0
M  V30 9010 O 850.538 1.74274 3.10656 0
M  V30 9011 O 849.397 2.4518 4.88415 0
M  V30 9012 H 846.491 0.338909 0.754367 0
M  V30 9013 H 849.037 1.30387 1.08616 0
M  V30 9014 H 847.809 2.78303 2.7507 0
M  V30 9015 H 847.432 1.37546 3.73051 0
M  V30 9016 N 848.429 -1.21819 0.999893 0
M  V30 9017 C 849.84 -1.72517 0.713775 0
M  V30 9018 C 850.191 -1.80505 -0.768922 0
M  V30 9019 O 849.316 -1.45611 -1.60083 0
M  V30 9020 C 849.911 -3.13321 1.28901 0
M  V30 9021 C 848.47 -3.61396 1.05212 0
M  V30 9022 C 847.617 -2.39074 1.40494 0
M  V30 9023 H 850.568 -1.07068 1.17141 0
M  V30 9024 H 850.589 -3.74535 0.671084 0
M  V30 9025 H 850.101 -3.07475 2.36814 0
M  V30 9026 H 848.202 -3.72599 -0.0100732 0
M  V30 9027 H 848.315 -4.47145 1.72042 0
M  V30 9028 H 846.679 -2.41015 0.823642 0
M  V30 9029 H 847.462 -2.35884 2.49427 0
M  V30 9030 N 849.908 -0.773975 -1.37286 0
M  V30 9031 C 851.324 -0.45386 -1.53011 0
M  V30 9032 C 851.524 1.03018 -1.73175 0
M  V30 9033 O 850.58 1.81597 -1.75438 0
M  V30 9034 C 851.893 -1.27087 -2.72524 0
M  V30 9035 C 853.441 -1.26299 -2.86387 0
M  V30 9036 C 853.916 -2.0634 -4.08886 0
M  V30 9037 N 855.407 -2.03706 -4.16003 0
M  V30 9038 C 856.142 -2.62418 -5.09828 0
M  V30 9039 N 855.638 -3.29926 -6.09197 0
M  V30 9040 N 857.431 -2.52236 -5.02328 0
M  V30 9041 H 849.582 -1.73551 -1.22449 0
M  V30 9042 H 851.845 -0.736874 -0.596423 0
M  V30 9043 H 851.551 -2.32263 -2.64096 0
M  V30 9044 H 851.425 -0.90157 -3.66267 0
M  V30 9045 H 853.812 -0.219213 -2.94285 0
M  V30 9046 H 853.893 -1.67195 -1.93596 0
M  V30 9047 H 853.537 -3.10741 -4.01749 0
M  V30 9048 H 853.467 -1.62825 -5.00795 0
M  V30 9049 H 855.958 -1.54559 -3.44848 0
M  V30 9050 H 856.271 -3.72095 -6.77322 0
M  V30 9051 H 854.616 -3.34026 -6.09469 0
M  V30 9052 H 857.807 -1.99108 -4.23643 0
M  V30 9053 H 857.98 -2.98286 -5.75265 0
M  V30 9054 N 851.386 1.48609 -0.524698 0
M  V30 9055 C 852.797 1.86516 -0.0828846 0
M  V30 9056 C 853.148 1.43478 1.33822 0
M  V30 9057 O 852.273 0.823139 2.00133 0
M  V30 9058 C 852.868 3.38495 -0.143639 0
M  V30 9059 C 851.427 3.75615 0.242951 0
M  V30 9060 C 850.574 2.72649 -0.505747 0
M  V30 9061 H 853.525 1.40589 -0.736233 0
M  V30 9062 H 853.546 3.74977 0.645955 0
M  V30 9063 H 853.058 3.69789 -1.17805 0
M  V30 9064 H 851.159 3.49935 1.27971 0
M  V30 9065 H 851.272 4.7901 -0.0929834 0
M  V30 9066 H 849.636 2.54656 0.0473482 0
M  V30 9067 H 850.419 3.06786 -1.54069 0
M  V30 9068 N 852.864 0.259585 1.55447 0
M  V30 9069 C 853.812 -0.6507 2.23313 0
M  V30 9070 C 854.806 -1.17014 1.22491 0
M  V30 9071 O 856.012 -1.12557 1.40467 0
M  V30 9072 H 852.387 -0.228354 0.71649 0
M  V30 9073 H 854.358 -0.0553039 2.98349 0
M  V30 9074 C 853.107 -1.83081 2.95596 0
M  V30 9075 H 852.43 -1.44027 3.72956 0
M  V30 9076 H 853.87 -2.44469 3.46426 0
M  V30 9077 C 852.329 -2.70976 2.00184 0
M  V30 9078 O 852.859 -3.70882 1.54304 0
M  V30 9079 N 851.065 -2.37813 1.67014 0
M  V30 9080 H 850.612 -1.5662 2.04519 0
M  V30 9081 H 850.57 -2.96896 1.03443 0
M  V30 9082 N 854.342 -1.57594 -0.0133615 0
M  V30 9083 C 855.567 -1.94649 -0.715996 0
M  V30 9084 C 855.992 -0.860786 -1.67249 0
M  V30 9085 O 855.35 0.182228 -1.80382 0
M  V30 9086 C 855.398 -3.30789 -1.43566 0
M  V30 9087 O 854.502 -3.24148 -2.54955 0
M  V30 9088 H 853.843 -0.635801 -0.191449 0
M  V30 9089 H 856.373 -2.04569 0.0358478 0
M  V30 9090 H 856.383 -3.66045 -1.80208 0
M  V30 9091 H 855.058 -4.09367 -0.734263 0
M  V30 9092 H 853.635 -3.00548 -2.20739 0
M  V30 9093 N 855.82 0.285905 -1.54985 0
M  V30 9094 C 857.066 1.02071 -1.75241 0
M  V30 9095 C 857.399 1.864 -0.544842 0
M  V30 9096 O 856.674 1.89034 0.457844 0
M  V30 9097 C 856.957 1.91409 -3.05016 0
M  V30 9098 C 856.81 1.10158 -4.36102 0
M  V30 9099 C 858.129 2.90335 -3.30747 0
M  V30 9100 H 855.248 0.369663 -0.637588 0
M  V30 9101 H 857.89 0.294114 -1.8771 0
M  V30 9102 H 856.04 2.53362 -2.94517 0
M  V30 9103 H 857.712 0.503756 -4.58541 0
M  V30 9104 H 855.955 0.404675 -4.31908 0
M  V30 9105 H 856.626 1.75956 -5.23205 0
M  V30 9106 H 859.102 2.38514 -3.40955 0
M  V30 9107 H 857.978 3.49997 -4.2284 0
M  V30 9108 H 858.239 3.64787 -2.49765 0
M  V30 9109 N 857.298 1.47698 0.54982 0
M  V30 9110 C 858.526 1.5833 1.33188 0
M  V30 9111 C 858.941 0.236193 1.87317 0
M  V30 9112 O 858.298 -0.77167 1.65383 0
M  V30 9113 C 858.349 2.61438 2.49664 0
M  V30 9114 O 858.07 3.9092 1.97771 0
M  V30 9115 C 859.571 2.82324 3.41772 0
M  V30 9116 H 856.791 0.53443 0.405741 0
M  V30 9117 H 859.335 1.93375 0.665309 0
M  V30 9118 H 857.49 2.29307 3.12245 0
M  V30 9119 H 857.904 4.47323 2.73866 0
M  V30 9120 H 859.378 3.58316 4.19897 0
M  V30 9121 H 859.855 1.90416 3.95776 0
M  V30 9122 H 860.461 3.15682 2.85 0
M  V30 9123 N 858.776 -0.797141 1.35954 0
M  V30 9124 C 860.192 -1.09408 1.16198 0
M  V30 9125 C 860.392 -2.01491 -0.0191682 0
M  V30 9126 O 859.448 -2.42977 -0.686902 0
M  V30 9127 C 860.761 -1.71597 2.46931 0
M  V30 9128 C 862.309 -1.83974 2.53224 0
M  V30 9129 C 862.784 -2.49579 3.84024 0
M  V30 9130 N 864.275 -2.57055 3.85327 0
M  V30 9131 C 865.01 -3.08608 4.83268 0
M  V30 9132 N 864.506 -3.60527 5.91601 0
M  V30 9133 N 866.299 -3.07249 4.70696 0
M  V30 9134 H 858.45 -0.185209 2.11591 0
M  V30 9135 H 860.713 -0.144768 0.936881 0
M  V30 9136 H 860.419 -1.11404 3.3359 0
M  V30 9137 H 860.293 -2.71193 2.62172 0
M  V30 9138 H 862.68 -2.43308 1.66988 0
M  V30 9139 H 862.761 -0.83207 2.41889 0
M  V30 9140 H 862.405 -1.90892 4.70662 0
M  V30 9141 H 862.335 -3.50902 3.92651 0
M  V30 9142 H 864.826 -2.20283 3.07057 0
M  V30 9143 H 865.139 -3.98192 6.62317 0
M  V30 9144 H 863.484 -3.587 5.95281 0
M  V30 9145 H 866.675 -2.65972 3.85197 0
M  V30 9146 H 866.848 -3.47119 5.47186 0
M  V30 9147 N 860.254 -1.20106 -1.0204 0
M  V30 9148 C 861.502 -1.0069 -1.75231 0
M  V30 9149 C 861.823 0.462491 -1.89436 0
M  V30 9150 O 861.093 1.33455 -1.4341 0
M  V30 9151 H 859.673 -0.369576 -0.649171 0
M  V30 9152 H 862.335 -1.51149 -1.23044 0
M  V30 9153 H 861.431 -1.46205 -2.75736 0
M  V30 9154 N 861.732 1.21287 -1.00634 0
M  V30 9155 C 862.978 1.90671 -0.690822 0
M  V30 9156 C 863.311 1.77996 0.776592 0
M  V30 9157 O 862.586 1.15748 1.5631 0
M  V30 9158 C 862.869 3.42426 -1.11428 0
M  V30 9159 C 862.722 3.64086 -2.64124 0
M  V30 9160 C 864.041 4.34851 -0.677686 0
M  V30 9161 H 861.16 0.692419 -0.252439 0
M  V30 9162 H 863.802 1.42893 -1.25226 0
M  V30 9163 H 861.952 3.83249 -0.636586 0
M  V30 9164 H 863.624 3.32582 -3.19667 0
M  V30 9165 H 861.867 3.07906 -3.05576 0
M  V30 9166 H 862.538 4.7042 -2.88806 0
M  V30 9167 H 865.014 4.01619 -1.0882 0
M  V30 9168 H 863.89 5.39675 -1.00213 0
M  V30 9169 H 864.151 4.4009 0.421125 0
M  V30 9170 N 863.21 0.781244 1.36873 0
M  V30 9171 C 864.459 0.34652 1.98701 0
M  V30 9172 C 864.772 -1.08555 1.62712 0
M  V30 9173 O 865.978 -1.62213 2.17713 0
M  V30 9174 C 864.434 0.568611 3.5538 0
M  V30 9175 C 864.042 2.01156 4.003 0
M  V30 9176 C 865.786 0.197983 4.24038 0
M  V30 9177 C 863.693 2.18074 5.49725 0
M  V30 9178 H 862.623 0.125821 0.743428 0
M  V30 9179 H 865.274 0.961721 1.56279 0
M  V30 9180 H 863.656 -0.116185 3.9583 0
M  V30 9181 H 864.83 2.73209 3.71071 0
M  V30 9182 H 863.145 2.33967 3.44454 0
M  V30 9183 H 865.742 0.302778 5.33842 0
M  V30 9184 H 866.085 -0.852927 4.07469 0
M  V30 9185 H 866.618 0.835696 3.88923 0
M  V30 9186 H 863.357 3.21519 5.71232 0
M  V30 9187 H 862.877 1.50517 5.80607 0
M  V30 9188 H 864.556 1.98393 6.15832 0
M  V30 9189 N 864.689 -1.48329 0.532571 0
M  V30 9190 C 865.929 -2.044 0.00145618 0
M  V30 9191 C 866.293 -1.40053 -1.31336 0
M  V30 9192 O 867.494 -1.87026 -1.93066 0
M  V30 9193 C 865.765 -3.57214 -0.115376 0
M  V30 9194 S 867.324 -4.34731 -0.59618 0
M  V30 9195 H 864.142 -0.710876 0.0133038 0
M  V30 9196 H 866.744 -1.82006 0.71372 0
M  V30 9197 H 865.448 -4.01579 0.846335 0
M  V30 9198 H 864.979 -3.84065 -0.85194 0
M  V30 9199 H 866.994 -4.6001 -1.86025 0
M  V30 9200 N 866.167 -0.267825 -1.55308 0
M  V30 9201 C 867.413 0.34458 -2.0046 0
M  V30 9202 C 867.768 1.54028 -1.15296 0
M  V30 9203 O 867.061 1.90409 -0.213316 0
M  V30 9204 C 867.255 0.784247 -3.48689 0
M  V30 9205 C 867.084 -0.367304 -4.48197 0
M  V30 9206 C 865.854 -0.848746 -4.98121 0
M  V30 9207 C 868.052 -1.20136 -5.00072 0
M  V30 9208 N 866.034 -1.97052 -5.81415 0
M  V30 9209 C 867.405 -2.17115 -5.80742 0
M  V30 9210 C 869.46 -1.23553 -4.82327 0
M  V30 9211 C 868.163 -3.17248 -6.45559 0
M  V30 9212 C 870.189 -2.22527 -5.47938 0
M  V30 9213 C 869.551 -3.1824 -6.28413 0
M  V30 9214 H 865.65 0.091465 -0.776633 0
M  V30 9215 H 868.234 -0.390184 -1.9075 0
M  V30 9216 H 866.405 1.48825 -3.58756 0
M  V30 9217 H 868.137 1.37337 -3.80684 0
M  V30 9218 H 864.892 -0.429291 -4.7165 0
M  V30 9219 H 865.316 -2.53481 -6.27755 0
M  V30 9220 H 869.958 -0.50937 -4.1972 0
M  V30 9221 H 867.676 -3.90801 -7.07319 0
M  V30 9222 H 871.262 -2.25904 -5.36152 0
M  V30 9223 H 870.142 -3.93573 -6.78285 0
M  V30 9224 N 867.645 1.57599 0.00500368 0
M  V30 9225 C 869.056 1.78462 0.54848 0
M  V30 9226 C 869.407 0.901869 1.74243 0
M  V30 9227 O 868.532 0.103014 2.16155 0
M  V30 9228 C 869.127 3.2365 1.00179 0
M  V30 9229 C 867.686 3.45627 1.49061 0
M  V30 9230 C 866.833 2.73794 0.439531 0
M  V30 9231 H 869.784 1.57151 -0.22118 0
M  V30 9232 H 869.805 3.31488 1.86805 0
M  V30 9233 H 869.317 3.87873 0.132607 0
M  V30 9234 H 867.418 2.86612 2.38085 0
M  V30 9235 H 867.531 4.54298 1.52152 0
M  V30 9236 H 865.895 2.38267 0.900043 0
M  V30 9237 H 866.678 3.40714 -0.420599 0
M  V30 9238 N 869.123 -0.277682 1.55134 0
M  V30 9239 C 870.371 -1.00791 1.75173 0
M  V30 9240 C 870.692 -1.86987 0.553266 0
M  V30 9241 O 869.962 -1.91079 -0.43195 0
M  V30 9242 H 868.542 -0.375129 0.645978 0
M  V30 9243 H 871.204 -0.303041 1.9253 0
M  V30 9244 H 870.3 -1.64756 2.6507 0
M  V30 9245 N 870.601 -1.47988 -0.541979 0
M  V30 9246 C 871.849 -1.55086 -1.29587 0
M  V30 9247 C 872.17 -0.221304 -1.9374 0
M  V30 9248 O 871.44 0.756128 -1.80719 0
M  V30 9249 H 870.02 -0.571307 -0.481266 0
M  V30 9250 H 872.682 -1.8438 -0.631675 0
M  V30 9251 H 871.778 -2.32556 -2.08144 0
M  V30 9252 N 872.079 0.78992 -1.36375 0
M  V30 9253 C 873.011 1.91113 -1.26524 0
M  V30 9254 C 874.024 1.61747 -0.184851 0
M  V30 9255 O 875.213 1.73004 -0.439524 0
M  V30 9256 C 872.313 3.25908 -0.92937 0
M  V30 9257 C 871.486 3.83057 -2.11154 0
M  V30 9258 C 870.545 4.96289 -1.74881 0
M  V30 9259 O 869.571 5.12834 -2.46962 0
M  V30 9260 N 870.773 5.76478 -0.682193 0
M  V30 9261 H 873.538 2.00085 -2.23128 0
M  V30 9262 H 871.099 0.968165 -1.29762 0
M  V30 9263 H 873.091 3.99151 -0.667884 0
M  V30 9264 H 871.661 3.12556 -0.0524843 0
M  V30 9265 H 870.881 3.01808 -2.53586 0
M  V30 9266 H 872.169 4.1797 -2.90135 0
M  V30 9267 H 871.567 5.65638 -0.0836661 0
M  V30 9268 H 870.124 6.50026 -0.480529 0
M  V30 9269 N 873.557 1.20646 1.01402 0
M  V30 9270 C 874.782 1.04462 1.79172 0
M  V30 9271 C 875.207 -0.401588 1.83763 0
M  V30 9272 O 874.565 -1.28934 1.27459 0
M  V30 9273 C 874.613 1.63583 3.21361 0
M  V30 9274 O 873.717 0.875198 4.03006 0
M  V30 9275 H 873.058 0.368235 0.552539 0
M  V30 9276 H 875.588 1.59994 1.27526 0
M  V30 9277 H 875.598 1.67426 3.72065 0
M  V30 9278 H 874.273 2.68835 3.17334 0
M  V30 9279 H 872.85 0.911172 3.61597 0
M  V30 9280 N 875.035 -1.20752 1.01276 0
M  V30 9281 C 875.965 -2.25658 0.600064 0
M  V30 9282 C 876.946 -1.65733 -0.38298 0
M  V30 9283 O 878.131 -1.92324 -0.269256 0
M  V30 9284 C 875.261 -3.47237 -0.0663197 0
M  V30 9285 C 874.215 -4.1973 0.83731 0
M  V30 9286 C 873.541 -5.34687 0.0369102 0
M  V30 9287 C 874.841 -4.76286 2.14357 0
M  V30 9288 H 876.535 -2.60432 1.477 0
M  V30 9289 H 874.081 -1.25187 0.711634 0
M  V30 9290 H 876.034 -4.19803 -0.366563 0
M  V30 9291 H 874.758 -3.11615 -0.977944 0
M  V30 9292 H 873.417 -3.49024 1.1215 0
M  V30 9293 H 873.065 -4.95309 -0.876244 0
M  V30 9294 H 872.765 -5.84119 0.63865 0
M  V30 9295 H 874.289 -6.10059 -0.256968 0
M  V30 9296 H 875.703 -5.40691 1.90595 0
M  V30 9297 H 874.1 -5.36139 2.69583 0
M  V30 9298 H 875.17 -3.9524 2.80916 0
M  V30 9299 N 876.513 -0.788492 -1.36457 0
M  V30 9300 C 877.924 -0.423742 -1.81828 0
M  V30 9301 C 878.275 1.05221 -1.65599 0
M  V30 9302 O 877.4 1.8163 -1.17641 0
M  V30 9303 C 877.995 -0.762354 -3.30112 0
M  V30 9304 C 876.554 -0.450445 -3.73695 0
M  V30 9305 C 875.701 -0.997482 -2.58738 0
M  V30 9306 H 878.652 -0.981718 -1.24692 0
M  V30 9307 H 878.673 -0.0531136 -3.80463 0
M  V30 9308 H 878.185 -1.83662 -3.41891 0
M  V30 9309 H 876.286 0.615829 -3.67476 0
M  V30 9310 H 876.399 -0.970408 -4.69169 0
M  V30 9311 H 874.763 -0.420761 -2.51201 0
M  V30 9312 H 875.546 -2.07749 -2.73304 0
M  V30 9313 N 877.991 1.48044 -0.54043 0
M  V30 9314 C 878.901 2.33565 0.220163 0
M  V30 9315 C 879.917 1.47146 0.928659 0
M  V30 9316 O 881.093 1.80107 0.901295 0
M  V30 9317 C 878.158 3.2349 1.2472 0
M  V30 9318 C 877.219 4.25789 0.547938 0
M  V30 9319 C 876.452 5.11417 1.52605 0
M  V30 9320 O 876.675 4.99204 2.75956 0
M  V30 9321 O 875.609 5.92498 1.05972 0
M  V30 9322 H 879.435 2.99868 -0.480898 0
M  V30 9323 H 877.02 1.46332 -0.301226 0
M  V30 9324 H 878.902 3.79084 1.84047 0
M  V30 9325 H 877.577 2.59835 1.93048 0
M  V30 9326 H 876.484 3.74001 -0.0860941 0
M  V30 9327 H 877.817 4.92111 -0.0935896 0
M  V30 9328 N 879.47 0.276058 1.55163 0
M  V30 9329 C 880.718 -0.339782 1.99223 0
M  V30 9330 C 881.039 -1.56307 1.16589 0
M  V30 9331 O 880.309 -1.94225 0.25564 0
M  V30 9332 H 878.889 -0.128534 0.735859 0
M  V30 9333 H 881.551 0.381612 1.91128 0
M  V30 9334 H 880.647 -0.629 3.05696 0
M  V30 9335 N 880.948 -1.576 0.00335426 0
M  V30 9336 C 882.225 -1.81945 -0.718015 0
M  V30 9337 C 882.605 -0.881788 -1.91801 0
M  V30 9338 O 881.953 0.0687118 -2.28397 0
M  V30 9339 C 882.163 -3.30521 -1.12058 0
M  V30 9340 C 883.511 -3.96345 -1.52303 0
M  V30 9341 O 884.535 -3.34864 -1.21428 0
M  V30 9342 O 883.394 -5.04655 -2.09728 0
M  V30 9343 H 880.488 -0.749328 -0.34991 0
M  V30 9344 H 883.034 -1.69675 0.0290654 0
M  V30 9345 H 881.806 -3.90399 -0.265378 0
M  V30 9346 H 881.429 -3.47802 -1.92665 0
M  V30 9347 N 882.426 0.269451 -1.5528 0
M  V30 9348 C 883.674 0.998604 -1.75705 0
M  V30 9349 C 883.995 1.86691 -0.563175 0
M  V30 9350 O 883.265 1.91305 0.421811 0
M  V30 9351 H 881.845 0.371698 -0.647958 0
M  V30 9352 H 884.507 0.292826 -1.92688 0
M  V30 9353 H 883.603 1.63348 -2.6594 0
M  V30 9354 N 883.904 1.48273 0.534124 0
M  V30 9355 C 884.852 1.62926 1.66005 0
M  V30 9356 C 885.846 0.495814 1.61982 0
M  V30 9357 O 887.052 0.6744 1.66889 0
M  V30 9358 H 883.427 0.513163 0.549698 0
M  V30 9359 H 885.398 2.57498 1.50789 0
M  V30 9360 C 884.147 1.68231 3.04292 0
M  V30 9361 H 883.47 2.54807 3.0808 0
M  V30 9362 H 884.91 1.82528 3.827 0
M  V30 9363 C 883.369 0.420154 3.3427 0
M  V30 9364 O 883.899 -0.468769 3.98955 0
M  V30 9365 N 882.105 0.293115 2.89118 0
M  V30 9366 H 881.652 1.01745 2.36655 0
M  V30 9367 H 881.61 -0.550376 3.09545 0
M  V30 9368 N 885.382 -0.782676 1.36792 0
M  V30 9369 C 886.622 -1.55396 1.32784 0
M  V30 9370 C 886.986 -1.91789 -0.0900272 0
M  V30 9371 O 888.187 -2.6759 -0.254725 0
M  V30 9372 C 886.458 -2.79227 2.23085 0
M  V30 9373 S 888.017 -3.69404 2.36825 0
M  V30 9374 H 884.835 -0.532139 0.471539 0
M  V30 9375 H 887.437 -0.921285 1.72431 0
M  V30 9376 H 886.141 -2.50553 3.25041 0
M  V30 9377 H 885.672 -3.47462 1.84482 0
M  V30 9378 H 887.687 -4.70683 1.57074 0
M  V30 9379 N 886.86 -1.21182 -1.00761 0
M  V30 9380 C 888.276 -0.968607 -1.26847 0
M  V30 9381 C 888.476 0.346561 -1.98497 0
M  V30 9382 O 887.532 1.07287 -2.28573 0
M  V30 9383 C 888.845 -2.1574 -2.09467 0
M  V30 9384 C 890.393 -2.19937 -2.22703 0
M  V30 9385 C 890.868 -3.38328 -3.08704 0
M  V30 9386 N 892.359 -3.38398 -3.16293 0
M  V30 9387 C 893.094 -4.26653 -3.83086 0
M  V30 9388 N 892.59 -5.25101 -4.5193 0
M  V30 9389 N 894.383 -4.14469 -3.797 0
M  V30 9390 H 886.534 -2.05763 -0.526816 0
M  V30 9391 H 888.797 -0.90087 -0.29519 0
M  V30 9392 H 888.503 -3.11034 -1.64167 0
M  V30 9393 H 888.377 -2.14584 -3.10216 0
M  V30 9394 H 890.764 -1.25201 -2.67224 0
M  V30 9395 H 890.845 -2.25139 -1.21433 0
M  V30 9396 H 890.489 -4.33356 -2.64886 0
M  V30 9397 H 890.419 -3.30364 -4.10082 0
M  V30 9398 H 892.91 -2.67149 -2.67282 0
M  V30 9399 H 893.223 -5.8875 -5.00592 0
M  V30 9400 H 891.568 -5.29029 -4.50726 0
M  V30 9401 H 894.759 -3.3682 -3.25069 0
M  V30 9402 H 894.932 -4.83458 -4.31477 0
M  V30 9403 N 888.338 1.20213 -1.01915 0
M  V30 9404 C 889.754 1.41696 -0.734459 0
M  V30 9405 C 889.954 1.89504 0.684867 0
M  V30 9406 O 889.01 2.06556 1.45227 0
M  V30 9407 C 890.323 2.43644 -1.76233 0
M  V30 9408 C 891.871 2.57406 -1.78076 0
M  V30 9409 C 892.346 3.626 -2.79796 0
M  V30 9410 N 893.837 3.70086 -2.78551 0
M  V30 9411 C 894.572 4.51145 -3.53915 0
M  V30 9412 N 894.068 5.35988 -4.38963 0
M  V30 9413 N 895.861 4.45702 -3.425 0
M  V30 9414 H 888.012 0.874976 -1.93541 0
M  V30 9415 H 890.275 0.446647 -0.836188 0
M  V30 9416 H 889.981 2.15519 -2.77929 0
M  V30 9417 H 889.855 3.42672 -1.57657 0
M  V30 9418 H 892.242 2.8486 -0.770634 0
M  V30 9419 H 892.323 1.58565 -2.00725 0
M  V30 9420 H 891.967 3.35889 -3.80973 0
M  V30 9421 H 891.897 4.61069 -2.54407 0
M  V30 9422 H 894.388 3.09484 -2.1686 0
M  V30 9423 H 894.701 5.94932 -4.9323 0
M  V30 9424 H 893.046 5.35482 -4.4304 0
M  V30 9425 H 896.237 3.78456 -2.75478 0
M  V30 9426 H 896.41 5.08637 -4.01487 0
M  V30 9427 N 889.816 0.795718 1.36037 0
M  V30 9428 C 891.232 0.478145 1.52269 0
M  V30 9429 C 891.432 -1.0025 1.74792 0
M  V30 9430 O 890.488 -1.78783 1.78305 0
M  V30 9431 C 891.801 1.31406 2.70468 0
M  V30 9432 C 893.349 1.3084 2.84341 0
M  V30 9433 C 893.824 2.12819 4.05551 0
M  V30 9434 N 895.315 2.10298 4.12709 0
M  V30 9435 C 896.05 2.70495 5.05589 0
M  V30 9436 N 895.546 3.39576 6.03871 0
M  V30 9437 N 897.339 2.60195 4.98252 0
M  V30 9438 H 889.49 1.75477 1.19673 0
M  V30 9439 H 891.753 0.74627 0.584624 0
M  V30 9440 H 891.459 2.36435 2.60368 0
M  V30 9441 H 891.333 0.959726 3.64786 0
M  V30 9442 H 893.72 0.266003 2.93899 0
M  V30 9443 H 893.801 1.70254 1.90912 0
M  V30 9444 H 893.445 3.17093 3.96755 0
M  V30 9445 H 893.375 1.70772 4.98141 0
M  V30 9446 H 895.866 1.60026 3.42345 0
M  V30 9447 H 896.179 3.82823 6.71317 0
M  V30 9448 H 894.524 3.43679 6.04077 0
M  V30 9449 H 897.715 2.05823 4.20422 0
M  V30 9450 H 897.888 3.074 5.70447 0
M  V30 9451 N 891.294 -1.47756 0.548274 0
M  V30 9452 C 892.224 -2.32702 -0.19284 0
M  V30 9453 C 893.205 -1.43237 -0.917457 0
M  V30 9454 O 894.39 -1.72103 -0.89967 0
M  V30 9455 C 891.52 -3.24831 -1.22891 0
M  V30 9456 C 890.474 -4.23466 -0.621312 0
M  V30 9457 C 889.8 -5.04856 -1.76137 0
M  V30 9458 C 891.1 -5.20616 0.419055 0
M  V30 9459 H 892.794 -2.94914 0.516323 0
M  V30 9460 H 890.34 -1.41818 0.24975 0
M  V30 9461 H 892.293 -3.83094 -1.75547 0
M  V30 9462 H 891.017 -2.60656 -1.9679 0
M  V30 9463 H 889.676 -3.66416 -0.116123 0
M  V30 9464 H 889.324 -4.37091 -2.48918 0
M  V30 9465 H 889.024 -5.71629 -1.36065 0
M  V30 9466 H 890.548 -5.65976 -2.29136 0
M  V30 9467 H 891.962 -5.73296 -0.0211034 0
M  V30 9468 H 890.359 -5.95543 0.738163 0
M  V30 9469 H 891.429 -4.66638 1.31822 0
M  V30 9470 N 892.772 -0.284283 -1.55015 0
M  V30 9471 C 893.735 0.586182 -2.21577 0
M  V30 9472 C 894.735 1.07427 -1.1965 0
M  V30 9473 O 895.925 0.972977 -1.44495 0
M  V30 9474 C 893.057 1.80973 -2.88897 0
M  V30 9475 H 894.25 0.00487253 -2.999 0
M  V30 9476 H 891.803 -0.0349696 -1.56261 0
M  V30 9477 H 892.538 2.43131 -2.14611 0
M  V30 9478 H 892.323 1.46757 -3.636 0
M  V30 9479 H 893.813 2.42853 -3.39724 0
M  V30 9480 N 894.251 1.57596 -0.0117121 0
M  V30 9481 C 895.479 1.9536 0.681334 0
M  V30 9482 C 895.894 0.887255 1.66653 0
M  V30 9483 O 895.251 -0.132692 1.82017 0
M  V30 9484 C 895.302 3.33165 1.40298 0
M  V30 9485 O 895.023 4.35707 0.45728 0
M  V30 9486 C 896.524 3.85458 2.18946 0
M  V30 9487 H 893.744 0.643826 0.189023 0
M  V30 9488 H 896.288 2.04392 -0.066311 0
M  V30 9489 H 894.443 3.25404 2.10216 0
M  V30 9490 H 894.857 5.15495 0.96773 0
M  V30 9491 H 896.331 4.84275 2.64918 0
M  V30 9492 H 896.808 3.18781 3.02118 0
M  V30 9493 H 897.414 3.96431 1.5402 0
M  V30 9494 N 895.729 -0.261212 1.5542 0
M  V30 9495 C 896.975 -0.988533 1.77763 0
M  V30 9496 C 897.33 -1.83504 0.578286 0
M  V30 9497 O 896.623 -1.8674 -0.428808 0
M  V30 9498 C 896.817 -1.89395 3.03091 0
M  V30 9499 C 896.646 -1.13658 4.351 0
M  V30 9500 C 895.416 -0.847467 4.98143 0
M  V30 9501 C 897.614 -0.52118 5.11652 0
M  V30 9502 N 895.596 -0.0645324 6.13866 0
M  V30 9503 C 896.967 0.127016 6.1987 0
M  V30 9504 C 899.022 -0.430206 4.96038 0
M  V30 9505 C 897.725 0.857433 7.14171 0
M  V30 9506 C 899.751 0.286645 5.90705 0
M  V30 9507 C 899.113 0.923534 6.9832 0
M  V30 9508 H 895.212 -0.343317 0.702608 0
M  V30 9509 H 897.796 -0.263035 1.92915 0
M  V30 9510 H 895.967 -2.5916 2.89293 0
M  V30 9511 H 897.699 -2.55576 3.13788 0
M  V30 9512 H 894.454 -1.15569 4.59283 0
M  V30 9513 H 894.878 0.31461 6.76269 0
M  V30 9514 H 899.52 -0.908278 4.12929 0
M  V30 9515 H 897.238 1.34715 7.96792 0
M  V30 9516 H 900.824 0.357511 5.80701 0
M  V30 9517 H 899.704 1.46939 7.70311 0
M  V30 9518 N 897.207 -1.48554 -0.526253 0
M  V30 9519 C 898.137 -1.66252 -1.63959 0
M  V30 9520 C 899.118 -0.511351 -1.62232 0
M  V30 9521 O 900.303 -0.744322 -1.7937 0
M  V30 9522 C 897.433 -1.70556 -3.02536 0
M  V30 9523 C 896.387 -2.8521 -3.19123 0
M  V30 9524 C 895.713 -2.74606 -4.58798 0
M  V30 9525 C 897.013 -4.26463 -3.0154 0
M  V30 9526 H 898.707 -2.59459 -1.49404 0
M  V30 9527 H 896.253 -1.24862 -0.717326 0
M  V30 9528 H 898.206 -1.81524 -3.80298 0
M  V30 9529 H 896.93 -0.739297 -3.18123 0
M  V30 9530 H 895.589 -2.73802 -2.43779 0
M  V30 9531 H 895.237 -1.75941 -4.71226 0
M  V30 9532 H 894.937 -3.51544 -4.70841 0
M  V30 9533 H 896.461 -2.87548 -5.38655 0
M  V30 9534 H 897.875 -4.38685 -3.69091 0
M  V30 9535 H 896.272 -5.04428 -3.25073 0
M  V30 9536 H 897.342 -4.42667 -1.97925 0
M  V30 9537 N 898.685 0.775411 -1.37205 0
M  V30 9538 C 899.615 1.90258 -1.35367 0
M  V30 9539 C 900.596 1.68634 -0.222864 0
M  V30 9540 O 901.781 1.89545 -0.422659 0
M  V30 9541 C 898.911 3.27488 -1.15623 0
M  V30 9542 C 897.865 3.63668 -2.25676 0
M  V30 9543 C 897.191 4.994 -1.91059 0
M  V30 9544 C 898.491 3.70797 -3.67841 0
M  V30 9545 H 900.185 1.92053 -2.29687 0
M  V30 9546 H 897.731 0.922597 -1.10563 0
M  V30 9547 H 899.684 4.05976 -1.12968 0
M  V30 9548 H 898.408 3.26117 -0.177573 0
M  V30 9549 H 897.067 2.87486 -2.2748 0
M  V30 9550 H 896.715 4.94565 -0.917324 0
M  V30 9551 H 896.415 5.24576 -2.64751 0
M  V30 9552 H 897.939 5.80291 -1.89985 0
M  V30 9553 H 899.353 4.39444 -3.68187 0
M  V30 9554 H 897.75 4.07468 -4.40556 0
M  V30 9555 H 898.82 2.71549 -4.01732 0
M  V30 9556 N 900.163 1.21714 1.00117 0
M  V30 9557 C 901.44 0.945391 1.71236 0
M  V30 9558 C 901.82 -0.541772 2.0403 0
M  V30 9559 O 901.168 -1.50763 1.71705 0
M  V30 9560 C 901.378 1.83444 2.96899 0
M  V30 9561 C 902.726 2.08558 3.69849 0
M  V30 9562 O 903.75 1.80824 3.06889 0
M  V30 9563 O 902.609 2.55485 4.83104 0
M  V30 9564 H 899.703 0.354834 0.747009 0
M  V30 9565 H 902.249 1.32661 1.05825 0
M  V30 9566 H 901.021 2.84075 2.69105 0
M  V30 9567 H 900.644 1.45428 3.70049 0
M  V30 9568 N 901.641 -1.19671 1.02551 0
M  V30 9569 C 902.889 -1.88894 0.71858 0
M  V30 9570 C 903.21 -1.79797 -0.754856 0
M  V30 9571 O 902.48 -1.20621 -1.54362 0
M  V30 9572 H 901.06 -0.699244 0.262806 0
M  V30 9573 H 903.722 -1.45298 1.29902 0
M  V30 9574 H 902.818 -2.95309 1.00989 0
M  V30 9575 N 903.119 -0.802921 -1.35613 0
M  V30 9576 C 904.344 -0.392846 -2.03645 0
M  V30 9577 C 904.769 0.987075 -1.6012 0
M  V30 9578 O 904.127 1.63849 -0.776101 0
M  V30 9579 C 904.175 -0.480208 -3.57388 0
M  V30 9580 O 903.279 0.507751 -4.09262 0
M  V30 9581 H 902.62 -0.16464 -0.643265 0
M  V30 9582 H 905.15 -1.08779 -1.73287 0
M  V30 9583 H 905.16 -0.348683 -4.06507 0
M  V30 9584 H 903.835 -1.48675 -3.88418 0
M  V30 9585 H 902.412 0.336769 -3.71376 0
M  V30 9586 N 904.597 1.47463 -0.556102 0
M  V30 9587 C 905.529 2.28046 0.22968 0
M  V30 9588 C 906.542 1.3694 0.880409 0
M  V30 9589 O 907.731 1.61773 0.754447 0
M  V30 9590 C 904.831 3.11165 1.34273 0
M  V30 9591 C 904.004 4.30225 0.789004 0
M  V30 9592 C 903.063 4.94948 1.78641 0
M  V30 9593 O 902.089 5.53372 1.33297 0
M  V30 9594 N 903.291 4.89543 3.11974 0
M  V30 9595 H 906.056 2.96125 -0.461558 0
M  V30 9596 H 903.617 1.5708 -0.392105 0
M  V30 9597 H 905.609 3.51331 2.00869 0
M  V30 9598 H 904.179 2.45337 1.93722 0
M  V30 9599 H 903.399 3.94163 -0.0536971 0
M  V30 9600 H 904.687 5.07238 0.398378 0
M  V30 9601 H 904.085 4.43275 3.51459 0
M  V30 9602 H 902.642 5.33732 3.74131 0
M  V30 9603 N 906.075 0.2925 1.54862 0
M  V30 9604 C 907.486 -0.201841 1.85606 0
M  V30 9605 C 907.837 -1.54093 1.21449 0
M  V30 9606 O 906.962 -2.10327 0.509079 0
M  V30 9607 C 907.557 -0.373011 3.3674 0
M  V30 9608 C 906.116 -0.811574 3.67547 0
M  V30 9609 C 905.263 0.0850583 2.7717 0
M  V30 9610 H 908.214 0.513774 1.50153 0
M  V30 9611 H 908.235 -1.20892 3.60785 0
M  V30 9612 H 907.747 0.601751 3.83407 0
M  V30 9613 H 905.848 -1.79719 3.26392 0
M  V30 9614 H 905.961 -0.636853 4.74848 0
M  V30 9615 H 904.325 -0.434224 2.50971 0
M  V30 9616 H 905.108 1.05602 3.26654 0
M  V30 9617 N 907.553 -1.57587 0.0200696 0
M  V30 9618 C 908.964 -1.79312 -0.520019 0
M  V30 9619 C 909.315 -0.929475 -1.72787 0
M  V30 9620 O 908.44 -0.137389 -2.15963 0
M  V30 9621 C 909.035 -3.25203 -0.950172 0
M  V30 9622 C 907.594 -3.47954 -1.43543 0
M  V30 9623 C 906.741 -2.74459 -0.395917 0
M  V30 9624 H 909.692 -1.56779 0.246153 0
M  V30 9625 H 909.713 -3.34418 -1.81508 0
M  V30 9626 H 909.225 -3.88035 -0.070883 0
M  V30 9627 H 907.326 -2.90363 -2.33495 0
M  V30 9628 H 907.439 -4.56661 -1.44905 0
M  V30 9629 H 905.803 -2.39669 -0.862022 0
M  V30 9630 H 906.586 -3.40001 0.47475 0
M  V30 9631 N 909.032 0.252966 -1.55557 0
M  V30 9632 C 910.26 0.999565 -1.81153 0
M  V30 9633 C 910.675 1.79181 -0.594955 0
M  V30 9634 O 910.032 1.77208 0.436311 0
M  V30 9635 C 910.083 1.94227 -3.04891 0
M  V30 9636 O 909.804 1.18209 -4.21851 0
M  V30 9637 C 911.305 2.80536 -3.43241 0
M  V30 9638 H 908.525 0.294402 -0.602966 0
M  V30 9639 H 911.069 0.277686 -2.02606 0
M  V30 9640 H 909.224 2.6185 -2.85505 0
M  V30 9641 H 909.638 1.81922 -4.9194 0
M  V30 9642 H 911.112 3.42442 -4.32941 0
M  V30 9643 H 911.589 3.51337 -2.6355 0
M  V30 9644 H 912.195 2.18373 -3.64956 0
M  V30 9645 N 910.51 1.48831 0.518367 0
M  V30 9646 C 911.44 1.67119 1.63075 0
M  V30 9647 C 912.421 0.519948 1.61958 0
M  V30 9648 O 913.606 0.753824 1.78972 0
M  V30 9649 C 910.736 1.72158 3.01627 0
M  V30 9650 C 909.69 2.86898 3.17606 0
M  V30 9651 C 909.016 2.77035 4.57335 0
M  V30 9652 C 910.316 4.28057 2.99274 0
M  V30 9653 H 912.01 2.60248 1.48025 0
M  V30 9654 H 909.556 1.2524 0.710694 0
M  V30 9655 H 911.509 1.83539 3.7933 0
M  V30 9656 H 910.233 0.756157 3.17726 0
M  V30 9657 H 908.892 2.75091 2.42323 0
M  V30 9658 H 908.54 1.78438 4.70286 0
M  V30 9659 H 908.24 3.54036 4.6897 0
M  V30 9660 H 909.764 2.904 5.37122 0
M  V30 9661 H 911.178 4.40636 3.6676 0
M  V30 9662 H 909.575 5.06145 3.22393 0
M  V30 9663 H 910.645 4.4371 1.95574 0
M  V30 9664 N 911.988 -0.768124 1.37614 0
M  V30 9665 C 912.918 -1.89537 1.36374 0
M  V30 9666 C 913.899 -1.68513 0.231803 0
M  V30 9667 O 915.084 -1.89318 0.432705 0
M  V30 9668 C 912.214 -3.26871 1.17358 0
M  V30 9669 C 911.168 -3.62466 2.27602 0
M  V30 9670 C 910.494 -4.9838 1.93705 0
M  V30 9671 C 911.794 -3.68841 3.69802 0
M  V30 9672 H 913.488 -1.90832 2.30702 0
M  V30 9673 H 911.034 -0.91672 1.11051 0
M  V30 9674 H 912.987 -4.05371 1.15119 0
M  V30 9675 H 911.711 -3.26018 0.194865 0
M  V30 9676 H 910.37 -2.86276 2.29002 0
M  V30 9677 H 910.018 -4.94071 0.943539 0
M  V30 9678 H 909.718 -5.23165 2.6753 0
M  V30 9679 H 911.242 -5.79276 1.93059 0
M  V30 9680 H 912.656 -4.37485 3.70513 0
M  V30 9681 H 911.053 -4.05126 4.42711 0
M  V30 9682 H 912.123 -2.69415 4.03167 0
M  V30 9683 N 913.466 -1.22244 -0.994698 0
M  V30 9684 C 914.396 -1.01513 -2.10279 0
M  V30 9685 C 915.377 0.0633365 -1.69982 0
M  V30 9686 O 916.562 -0.0985268 -1.9395 0
M  V30 9687 C 913.692 -0.59016 -3.42249 0
M  V30 9688 C 912.646 -1.61436 -3.96387 0
M  V30 9689 C 911.972 -1.04528 -5.24383 0
M  V30 9690 C 913.272 -3.00388 -4.27276 0
M  V30 9691 H 914.966 -1.94194 -2.2788 0
M  V30 9692 H 912.512 -0.935094 -1.09508 0
M  V30 9693 H 914.465 -0.432254 -4.19177 0
M  V30 9694 H 913.189 0.372308 -3.24471 0
M  V30 9695 H 911.848 -1.76001 -3.21589 0
M  V30 9696 H 911.496 -0.0742225 -5.02945 0
M  V30 9697 H 911.196 -1.72949 -5.61571 0
M  V30 9698 H 912.72 -0.898922 -6.03947 0
M  V30 9699 H 914.134 -2.89207 -4.95007 0
M  V30 9700 H 912.531 -3.65916 -4.75631 0
M  V30 9701 H 913.601 -3.50456 -3.35125 0
M  V30 9702 N 914.944 1.19125 -1.03184 0
M  V30 9703 C 916.355 1.70564 -0.759264 0
M  V30 9704 C 916.706 1.8248 0.720794 0
M  V30 9705 O 915.831 1.49804 1.56166 0
M  V30 9706 C 916.426 3.09793 -1.37163 0
M  V30 9707 C 914.985 3.5848 -1.14757 0
M  V30 9708 C 914.132 2.35265 -1.46784 0
M  V30 9709 H 917.083 1.03925 -1.19939 0
M  V30 9710 H 917.104 3.72624 -0.77015 0
M  V30 9711 H 916.616 3.01088 -2.44882 0
M  V30 9712 H 914.717 3.72494 -0.0887182 0
M  V30 9713 H 914.83 4.42426 -1.83836 0
M  V30 9714 H 913.194 2.38747 -0.887254 0
M  V30 9715 H 913.977 2.29188 -2.55593 0
M  V30 9716 N 916.422 0.810101 1.35185 0
M  V30 9717 C 917.332 0.224565 2.33523 0
M  V30 9718 C 918.348 -0.634287 1.62027 0
M  V30 9719 O 919.524 -0.545211 1.9388 0
M  V30 9720 C 916.589 -0.614319 3.41214 0
M  V30 9721 C 915.65 0.265435 4.28479 0
M  V30 9722 C 914.883 -0.533506 5.31027 0
M  V30 9723 O 915.106 -1.7679 5.42311 0
M  V30 9724 O 914.04 0.0774573 6.0185 0
M  V30 9725 H 917.866 1.03815 2.85405 0
M  V30 9726 H 915.451 0.571964 1.38018 0
M  V30 9727 H 917.333 -1.09201 4.07005 0
M  V30 9728 H 916.008 -1.40545 2.91597 0
M  V30 9729 H 914.915 0.790343 3.65656 0
M  V30 9730 H 916.248 1.0206 4.81503 0
M  V30 9731 N 917.9 -1.47166 0.563914 0
M  V30 9732 C 918.832 -2.28165 -0.217583 0
M  V30 9733 C 919.845 -1.37405 -0.873134 0
M  V30 9734 O 921.034 -1.6217 -0.745857 0
M  V30 9735 C 918.134 -3.11873 -1.32621 0
M  V30 9736 C 917.307 -4.30637 -0.766177 0
M  V30 9737 C 916.366 -4.95889 -1.76014 0
M  V30 9738 O 915.392 -5.54071 -1.3036 0
M  V30 9739 N 916.594 -4.91191 -3.09373 0
M  V30 9740 H 919.359 -2.95876 0.477256 0
M  V30 9741 H 916.92 -1.5687 0.40043 0
M  V30 9742 H 918.912 -3.52392 -1.99003 0
M  V30 9743 H 917.482 -2.46361 -1.92419 0
M  V30 9744 H 916.702 -3.94129 0.0745998 0
M  V30 9745 H 917.99 -5.07442 -0.371472 0
M  V30 9746 H 917.388 -4.45133 -3.49104 0
M  V30 9747 H 915.945 -5.35708 -3.71295 0
M  V30 9748 N 919.378 -0.300708 -1.54705 0
M  V30 9749 C 920.288 0.584996 -2.27189 0
M  V30 9750 C 921.304 1.14866 -1.30697 0
M  V30 9751 O 922.48 1.17351 -1.63679 0
M  V30 9752 C 919.545 1.74076 -2.99831 0
M  V30 9753 C 918.606 1.2112 -4.1186 0
M  V30 9754 C 917.839 2.31188 -4.81028 0
M  V30 9755 O 918.062 3.5108 -4.49554 0
M  V30 9756 O 916.996 1.97897 -5.68437 0
M  V30 9757 H 920.822 -0.00298177 -3.037 0
M  V30 9758 H 918.407 -0.0671802 -1.49249 0
M  V30 9759 H 920.289 2.41413 -3.45395 0
M  V30 9760 H 918.964 2.31535 -2.26215 0
M  V30 9761 H 917.871 0.50357 -3.70695 0
M  V30 9762 H 919.204 0.682046 -4.87452 0
M  V30 9763 N 920.856 1.57574 -0.0284266 0
M  V30 9764 C 922.104 1.91393 0.649079 0
M  V30 9765 C 922.425 0.905368 1.72708 0
M  V30 9766 O 921.695 -0.0532107 1.95828 0
M  V30 9767 H 920.275 0.70646 0.24274 0
M  V30 9768 H 922.937 1.94752 -0.076066 0
M  V30 9769 H 922.033 2.91988 1.10226 0
M  V30 9770 N 922.334 -0.244713 1.55689 0
M  V30 9771 C 923.583 -0.970373 1.76824 0
M  V30 9772 C 923.896 -1.86402 0.592764 0
M  V30 9773 O 925.102 -2.62659 0.687186 0
M  V30 9774 C 923.558 -1.77547 3.13058 0
M  V30 9775 C 923.166 -0.929104 4.3826 0
M  V30 9776 C 924.91 -2.49373 3.43531 0
M  V30 9777 C 922.817 -1.73021 5.65524 0
M  V30 9778 H 921.747 -0.366048 0.659185 0
M  V30 9779 H 924.398 -0.224964 1.82116 0
M  V30 9780 H 922.78 -2.56291 3.01879 0
M  V30 9781 H 923.954 -0.183836 4.60433 0
M  V30 9782 H 922.269 -0.324071 4.15137 0
M  V30 9783 H 924.866 -3.09767 4.35831 0
M  V30 9784 H 925.209 -3.21099 2.64955 0
M  V30 9785 H 925.742 -1.77637 3.55935 0
M  V30 9786 H 922.481 -1.05666 6.46927 0
M  V30 9787 H 922.001 -2.45071 5.47449 0
M  V30 9788 H 923.68 -2.2968 6.0486 0
M  V30 9789 N 923.813 -1.49104 -0.510467 0
M  V30 9790 C 924.761 -1.65547 -1.63392 0
M  V30 9791 C 925.755 -0.521522 -1.61172 0
M  V30 9792 O 926.961 -0.700865 -1.65795 0
M  V30 9793 H 923.336 -0.521843 -0.541464 0
M  V30 9794 H 925.307 -2.59864 -1.46673 0
M  V30 9795 C 924.056 -1.73051 -3.01577 0
M  V30 9796 H 923.379 -2.59676 -3.03987 0
M  V30 9797 H 924.819 -1.88594 -3.79748 0
M  V30 9798 C 923.278 -0.47328 -3.33559 0
M  V30 9799 O 923.808 0.405239 -3.99651 0
M  V30 9800 N 922.014 -0.339074 -2.88615 0
M  V30 9801 H 921.561 -1.05497 -2.35007 0
M  V30 9802 H 921.519 0.501061 -3.10382 0
M  V30 9803 N 925.291 0.760815 -1.38019 0
M  V30 9804 C 926.539 1.51673 -1.33566 0
M  V30 9805 C 926.86 1.94852 0.076024 0
M  V30 9806 O 926.13 1.67112 1.02227 0
M  V30 9807 H 924.71 0.562581 -0.491438 0
M  V30 9808 H 927.372 0.904832 -1.72623 0
M  V30 9809 H 926.468 2.41102 -1.98182 0
M  V30 9810 N 926.769 1.22769 0.988202 0
M  V30 9811 C 928.018 1.0492 1.72263 0
M  V30 9812 C 928.331 -0.415282 1.91141 0
M  V30 9813 O 929.537 -0.713547 2.61956 0
M  V30 9814 C 927.993 1.82891 3.09966 0
M  V30 9815 C 927.601 3.33618 2.99003 0
M  V30 9816 C 929.345 1.73505 3.87423 0
M  V30 9817 C 927.252 4.04012 4.3189 0
M  V30 9818 H 926.182 0.38899 0.645912 0
M  V30 9819 H 928.833 1.46664 1.10281 0
M  V30 9820 H 927.215 1.33948 3.72658 0
M  V30 9821 H 928.389 3.8999 2.45448 0
M  V30 9822 H 926.704 3.43732 2.35027 0
M  V30 9823 H 929.301 2.23416 4.85787 0
M  V30 9824 H 929.644 0.696344 4.10435 0
M  V30 9825 H 930.177 2.20016 3.31418 0
M  V30 9826 H 926.916 5.08155 4.14075 0
M  V30 9827 H 926.436 3.52428 4.8534 0
M  V30 9828 H 928.115 4.0987 5.00615 0
M  V30 9829 N 928.247 -1.18576 1.03814 0
M  V30 9830 C 929.663 -1.4051 0.756909 0
M  V30 9831 C 929.863 -1.9057 -0.654631 0
M  V30 9832 O 928.919 -2.0884 -1.41922 0
M  V30 9833 C 930.232 -2.4081 1.80087 0
M  V30 9834 C 931.78 -2.54541 1.82148 0
M  V30 9835 C 932.255 -3.58102 2.85529 0
M  V30 9836 N 933.746 -3.65607 2.84404 0
M  V30 9837 C 934.481 -4.45458 3.61047 0
M  V30 9838 N 933.977 -5.28937 4.47434 0
M  V30 9839 N 935.77 -4.40196 3.49548 0
M  V30 9840 H 927.921 -0.844075 1.94908 0
M  V30 9841 H 930.184 -0.433287 0.843188 0
M  V30 9842 H 929.89 -2.1107 2.81322 0
M  V30 9843 H 929.764 -3.4012 1.63089 0
M  V30 9844 H 932.151 -2.83598 0.815855 0
M  V30 9845 H 932.232 -1.55352 2.03223 0
M  V30 9846 H 931.876 -3.29786 3.86269 0
M  V30 9847 H 931.806 -4.56963 2.6171 0
M  V30 9848 H 934.297 -3.05994 2.21756 0
M  V30 9849 H 934.61 -5.8701 5.02632 0
M  V30 9850 H 932.955 -5.28366 4.51503 0
M  V30 9851 H 936.146 -3.74026 2.81464 0
M  V30 9852 H 936.319 -5.02186 4.09528 0
M  V30 9853 N 929.725 -0.817259 -1.34754 0
M  V30 9854 C 930.972 -0.402648 -1.98457 0
M  V30 9855 C 931.3 1.03287 -1.64809 0
M  V30 9856 O 930.555 1.73316 -0.908851 0
M  V30 9857 C 930.854 -0.5453 -3.53216 0
M  V30 9858 C 930.52 -1.9457 -4.06759 0
M  V30 9859 C 929.182 -2.32881 -4.21094 0
M  V30 9860 C 931.534 -2.86141 -4.35629 0
M  V30 9861 C 928.862 -3.62108 -4.61622 0
M  V30 9862 C 931.214 -4.14826 -4.776 0
M  V30 9863 C 929.878 -4.53121 -4.9014 0
M  V30 9864 H 929.148 -0.147339 -0.726204 0
M  V30 9865 H 931.795 -1.04011 -1.60791 0
M  V30 9866 H 930.1 0.175576 -3.91406 0
M  V30 9867 H 931.797 -0.205112 -4.00475 0
M  V30 9868 H 928.387 -1.6381 -3.96061 0
M  V30 9869 H 932.571 -2.57788 -4.24098 0
M  V30 9870 H 927.827 -3.91613 -4.69521 0
M  V30 9871 H 932.001 -4.85874 -4.98899 0
M  V30 9872 H 929.628 -5.53307 -5.21302 0
M  V30 9873 N 931.203 1.46865 -0.571711 0
M  V30 9874 C 932.614 1.86158 -0.142181 0
M  V30 9875 C 932.965 1.47663 1.2919 0
M  V30 9876 O 932.09 0.886393 1.97413 0
M  V30 9877 C 932.685 3.37867 -0.251256 0
M  V30 9878 C 931.244 3.76198 0.123329 0
M  V30 9879 C 930.391 2.70902 -0.592232 0
M  V30 9880 H 933.342 1.38176 -0.780587 0
M  V30 9881 H 933.363 3.76842 0.526331 0
M  V30 9882 H 932.875 3.65853 -1.2951 0
M  V30 9883 H 930.976 3.53829 1.16773 0
M  V30 9884 H 931.089 4.78471 -0.24533 0
M  V30 9885 H 929.453 2.54678 -0.0336927 0
M  V30 9886 H 930.236 3.01729 -1.63751 0
M  V30 9887 N 932.681 0.308908 1.54543 0
M  V30 9888 C 933.93 -0.298854 1.99474 0
M  V30 9889 C 934.243 -1.54393 1.20093 0
M  V30 9890 O 935.449 -2.22677 1.55329 0
M  V30 9891 C 933.905 -0.58303 3.55146 0
M  V30 9892 C 933.513 0.644157 4.43345 0
M  V30 9893 C 935.257 -1.15155 4.08582 0
M  V30 9894 C 933.164 0.332694 5.90463 0
M  V30 9895 H 932.094 -0.115445 0.74511 0
M  V30 9896 H 934.745 0.418848 1.78656 0
M  V30 9897 H 933.127 -1.36053 3.71894 0
M  V30 9898 H 934.301 1.42012 4.38371 0
M  V30 9899 H 932.616 1.13186 4.00722 0
M  V30 9900 H 935.213 -1.39896 5.16075 0
M  V30 9901 H 935.556 -2.09632 3.59667 0
M  V30 9902 H 936.089 -0.435571 3.95408 0
M  V30 9903 H 932.828 1.24624 6.43544 0
M  V30 9904 H 932.348 -0.405844 5.98425 0
M  V30 9905 H 934.027 -0.0628545 6.46969 0
M  V30 9906 N 934.159 -1.57557 0.0367827 0
M  V30 9907 C 935.405 -1.93224 -0.635306 0
M  V30 9908 C 935.76 -0.914194 -1.69293 0
M  V30 9909 O 935.053 0.0686974 -1.91477 0
M  V30 9910 C 935.247 -3.33387 -1.28794 0
M  V30 9911 C 935.076 -4.48731 -0.295055 0
M  V30 9912 C 933.846 -5.05185 0.10783 0
M  V30 9913 C 936.044 -5.12294 0.453749 0
M  V30 9914 N 934.026 -6.04054 1.09508 0
M  V30 9915 C 935.397 -6.06335 1.29452 0
M  V30 9916 C 937.452 -4.95244 0.513622 0
M  V30 9917 C 936.155 -6.85158 2.18977 0
M  V30 9918 C 938.181 -5.74682 1.39624 0
M  V30 9919 C 937.543 -6.68344 2.22477 0
M  V30 9920 H 933.642 -0.754772 -0.204555 0
M  V30 9921 H 936.226 -1.94413 0.105751 0
M  V30 9922 H 934.397 -3.33002 -1.9991 0
M  V30 9923 H 936.129 -3.56381 -1.91767 0
M  V30 9924 H 932.884 -4.7284 -0.268192 0
M  V30 9925 H 933.308 -6.5818 1.58518 0
M  V30 9926 H 937.95 -4.2265 -0.112699 0
M  V30 9927 H 935.668 -7.57052 2.82661 0
M  V30 9928 H 939.254 -5.6352 1.44696 0
M  V30 9929 H 938.134 -7.2874 2.89668 0
M  V30 9930 N 935.637 0.236453 -1.55816 0
M  V30 9931 C 936.567 1.29639 -1.94206 0
M  V30 9932 C 937.548 1.49667 -0.808319 0
M  V30 9933 O 938.733 1.621 -1.06945 0
M  V30 9934 C 935.863 2.64914 -2.24584 0
M  V30 9935 C 934.817 2.59565 -3.40308 0
M  V30 9936 C 934.143 3.98732 -3.56254 0
M  V30 9937 C 935.443 2.15642 -4.75706 0
M  V30 9938 H 937.137 0.977552 -2.82992 0
M  V30 9939 H 934.683 0.468804 -1.36155 0
M  V30 9940 H 936.636 3.39209 -2.50031 0
M  V30 9941 H 935.36 2.98455 -1.32636 0
M  V30 9942 H 934.019 1.87728 -3.14887 0
M  V30 9943 H 933.667 4.29556 -2.61707 0
M  V30 9944 H 933.367 3.96039 -4.34082 0
M  V30 9945 H 934.891 4.74711 -3.84033 0
M  V30 9946 H 936.305 2.79673 -5.00456 0
M  V30 9947 H 934.702 2.24039 -5.56711 0
M  V30 9948 H 935.772 1.10831 -4.72064 0
M  V30 9949 N 937.115 1.49373 0.502552 0
M  V30 9950 C 938.392 1.49282 1.26389 0
M  V30 9951 C 938.772 0.219674 2.09954 0
M  V30 9952 O 938.12 -0.797991 2.14113 0
M  V30 9953 C 938.33 2.77083 2.12194 0
M  V30 9954 C 939.678 3.26511 2.71433 0
M  V30 9955 O 940.702 2.78189 2.22462 0
M  V30 9956 O 939.561 4.10665 3.60578 0
M  V30 9957 H 936.655 0.597415 0.57186 0
M  V30 9958 H 939.201 1.61634 0.516951 0
M  V30 9959 H 937.973 3.61237 1.50411 0
M  V30 9960 H 937.596 2.67583 2.94084 0
M  V30 9961 N 938.594 -0.753485 1.38421 0
M  V30 9962 C 939.504 -1.89797 1.37892 0
M  V30 9963 C 940.52 -1.71797 0.276023 0
M  V30 9964 O 941.696 -1.94718 0.514464 0
M  V30 9965 C 938.761 -3.25166 1.20284 0
M  V30 9966 C 937.822 -3.55691 2.4038 0
M  V30 9967 C 937.055 -4.84601 2.23602 0
M  V30 9968 O 937.278 -5.56985 1.22979 0
M  V30 9969 O 936.212 -5.14605 3.12194 0
M  V30 9970 H 940.038 -1.93197 2.34326 0
M  V30 9971 H 937.623 -0.898775 1.19342 0
M  V30 9972 H 939.505 -4.06099 1.12525 0
M  V30 9973 H 938.18 -3.22577 0.269352 0
M  V30 9974 H 937.087 -2.74919 2.53714 0
M  V30 9975 H 938.42 -3.6304 3.32359 0
M  V30 9976 N 940.072 -1.23292 -0.981677 0
M  V30 9977 C 941.02 -1.0104 -2.09508 0
M  V30 9978 C 942.014 0.0501977 -1.69326 0
M  V30 9979 O 943.22 -0.103197 -1.79704 0
M  V30 9980 H 939.595 -0.309629 -0.685298 0
M  V30 9981 H 941.566 -1.95493 -2.25444 0
M  V30 9982 C 940.315 -0.616885 -3.42184 0
M  V30 9983 H 939.638 -1.4247 -3.73554 0
M  V30 9984 H 941.078 -0.500688 -4.21033 0
M  V30 9985 C 939.537 0.674721 -3.30074 0
M  V30 9986 O 940.067 1.72421 -3.62814 0
M  V30 9987 N 938.273 0.650151 -2.83234 0
M  V30 9988 H 937.82 -0.204225 -2.56789 0
M  V30 9989 H 937.778 1.51458 -2.75514 0
M  V30 9990 N 941.55 1.18024 -1.04442 0
M  V30 9991 C 942.798 1.87727 -0.74854 0
M  V30 9992 C 943.119 1.80975 0.726156 0
M  V30 9993 O 942.389 1.23061 1.52423 0
M  V30 9994 H 940.969 0.694974 -0.273897 0
M  V30 9995 H 943.631 1.43213 -1.32197 0
M  V30 9996 H 942.727 2.93665 -1.05674 0
M  V30 9997 N 943.028 0.824394 1.34319 0
M  V30 9998 C 943.975 0.245282 2.29493 0
M  V30 9999 C 944.945 -0.630762 1.53657 0
M  V30 10000 O 946.13 -0.572094 1.82021 0
M  V30 10001 C 943.27 -0.585631 3.40095 0
M  V30 10002 C 942.383 0.312821 4.30866 0
M  V30 10003 C 941.518 -0.527801 5.28571 0
M  V30 10004 C 940.557 0.369946 6.10981 0
M  V30 10005 N 939.694 -0.43169 7.00772 0
M  V30 10006 H 944.534 1.06225 2.78425 0
M  V30 10007 H 942.071 0.53533 1.37013 0
M  V30 10008 H 944.029 -1.08271 4.02906 0
M  V30 10009 H 942.659 -1.3677 2.92393 0
M  V30 10010 H 941.711 0.928129 3.68904 0
M  V30 10011 H 943.023 1.00306 4.8861 0
M  V30 10012 H 942.177 -1.0893 5.96841 0
M  V30 10013 H 940.916 -1.25154 4.71368 0
M  V30 10014 H 939.921 0.943577 5.41643 0
M  V30 10015 H 941.146 1.09182 6.70266 0
M  V30 10016 H 939.092 -1.13908 6.46035 0
M  V30 10017 H 939.009 0.200133 7.55735 0
M  V30 10018 H 940.277 -0.975894 7.73367 0
M  V30 10019 N 944.506 -1.46559 0.579492 0
M  V30 10020 C 945.922 -1.57771 0.240921 0
M  V30 10021 C 946.122 -1.57505 -1.25676 0
M  V30 10022 O 945.178 -1.4903 -2.03829 0
M  V30 10023 C 946.491 -2.87311 0.887285 0
M  V30 10024 C 948.039 -3.00937 0.860576 0
M  V30 10025 C 948.514 -4.33208 1.48642 0
M  V30 10026 N 950.005 -4.39899 1.45062 0
M  V30 10027 C 950.74 -5.40856 1.90428 0
M  V30 10028 N 950.236 -6.48503 2.43752 0
M  V30 10029 N 952.029 -5.32037 1.81364 0
M  V30 10030 H 944.18 -1.44976 1.55228 0
M  V30 10031 H 946.443 -0.691354 0.648639 0
M  V30 10032 H 946.149 -2.93307 1.94071 0
M  V30 10033 H 946.023 -3.75141 0.393577 0
M  V30 10034 H 948.41 -2.94524 -0.184223 0
M  V30 10035 H 948.491 -2.14591 1.39227 0
M  V30 10036 H 948.135 -4.40378 2.5304 0
M  V30 10037 H 948.065 -5.18323 0.92998 0
M  V30 10038 H 950.556 -3.62706 1.0608 0
M  V30 10039 H 950.869 -7.21744 2.76234 0
M  V30 10040 H 949.214 -6.49332 2.47776 0
M  V30 10041 H 952.405 -4.46841 1.39465 0
M  V30 10042 H 952.578 -6.10573 2.17035 0
M  V30 10043 N 945.984 -0.3171 -1.54377 0
M  V30 10044 C 947.23 0.287836 -2.00747 0
M  V30 10045 C 947.563 1.52292 -1.20502 0
M  V30 10046 O 946.838 1.92391 -0.285626 0
M  V30 10047 C 947.121 0.628423 -3.54574 0
M  V30 10048 C 946.974 -0.616922 -4.45549 0
M  V30 10049 C 948.293 1.44862 -4.15575 0
M  V30 10050 H 945.412 0.103144 -0.729747 0
M  V30 10051 H 948.054 -0.432396 -1.85014 0
M  V30 10052 H 946.204 1.24203 -3.68111 0
M  V30 10053 H 947.876 -1.25526 -4.43893 0
M  V30 10054 H 946.119 -1.24706 -4.15489 0
M  V30 10055 H 946.79 -0.334243 -5.50987 0
M  V30 10056 H 949.266 0.930015 -4.05574 0
M  V30 10057 H 948.142 1.6557 -5.23333 0
M  V30 10058 H 948.403 2.44279 -3.68484 0
M  V30 10059 N 947.462 1.57535 -0.0451378 0
M  V30 10060 C 948.425 2.1008 0.916461 0
M  V30 10061 C 949.425 1.01913 1.2438 0
M  V30 10062 O 950.615 1.2801 1.18148 0
M  V30 10063 C 947.747 2.58001 2.22818 0
M  V30 10064 H 948.94 2.96334 0.461076 0
M  V30 10065 H 946.493 1.54974 0.203169 0
M  V30 10066 H 947.228 1.75123 2.72951 0
M  V30 10067 H 947.013 3.3704 2.00366 0
M  V30 10068 H 948.503 2.98822 2.9171 0
M  V30 10069 N 948.94 -0.228186 1.55939 0
M  V30 10070 C 949.903 -1.26621 1.91049 0
M  V30 10071 C 950.903 -1.40141 0.788491 0
M  V30 10072 O 952.093 -1.3852 1.05631 0
M  V30 10073 C 949.225 -2.64108 2.15545 0
M  V30 10074 H 950.418 -0.966978 2.83883 0
M  V30 10075 H 947.971 -0.468313 1.49119 0
M  V30 10076 H 948.706 -2.99141 1.25241 0
M  V30 10077 H 948.491 -2.55673 2.97277 0
M  V30 10078 H 949.981 -3.39025 2.43827 0
M  V30 10079 N 950.418 -1.49637 -0.494624 0
M  V30 10080 C 951.695 -1.4995 -1.25596 0
M  V30 10081 C 952.075 -0.230805 -2.09834 0
M  V30 10082 O 951.423 0.786625 -2.14533 0
M  V30 10083 C 951.633 -2.78204 -2.10721 0
M  V30 10084 C 952.981 -3.27946 -2.69698 0
M  V30 10085 O 954.005 -2.79365 -2.20984 0
M  V30 10086 O 952.864 -4.12571 -3.58395 0
M  V30 10087 H 949.958 -0.60044 -0.568684 0
M  V30 10088 H 952.504 -1.61906 -0.508371 0
M  V30 10089 H 951.276 -3.62029 -1.48494 0
M  V30 10090 H 950.899 -2.69139 -2.92661 0
M  V30 10091 N 951.896 0.746133 -1.38819 0
M  V30 10092 C 953.136 1.51821 -1.36857 0
M  V30 10093 C 953.5 1.9196 0.0391461 0
M  V30 10094 O 954.701 2.68172 0.183689 0
M  V30 10095 C 952.972 2.73214 -2.3041 0
M  V30 10096 S 954.531 3.62995 -2.46536 0
M  V30 10097 H 951.349 0.51945 -0.485482 0
M  V30 10098 H 953.951 0.875244 -1.74813 0
M  V30 10099 H 952.655 2.41847 -3.31569 0
M  V30 10100 H 952.186 3.42449 -1.9363 0
M  V30 10101 H 954.201 4.66353 -1.69498 0
M  V30 10102 N 953.375 1.23811 0.975125 0
M  V30 10103 C 954.786 1.0675 1.53171 0
M  V30 10104 C 955.137 -0.363475 1.92804 0
M  V30 10105 O 954.262 -1.25089 1.76583 0
M  V30 10106 C 954.857 1.93161 2.78342 0
M  V30 10107 C 953.416 1.80346 3.30382 0
M  V30 10108 C 952.563 1.88544 2.03338 0
M  V30 10109 H 955.514 1.37396 0.79423 0
M  V30 10110 H 955.535 1.45951 3.51395 0
M  V30 10111 H 955.047 2.97302 2.49465 0
M  V30 10112 H 953.148 0.790077 3.64127 0
M  V30 10113 H 953.261 2.64026 3.99784 0
M  V30 10114 H 951.625 1.32186 2.17713 0
M  V30 10115 H 952.408 2.94252 1.76836 0
M  V30 10116 N 954.853 -1.17469 1.05066 0
M  V30 10117 C 955.785 -2.20974 0.608526 0
M  V30 10118 C 956.798 -1.59481 -0.327066 0
M  V30 10119 O 957.987 -1.78096 -0.12 0
M  V30 10120 C 955.087 -3.38652 -0.12969 0
M  V30 10121 C 954.26 -4.29716 0.816285 0
M  V30 10122 C 953.319 -5.26064 0.119556 0
M  V30 10123 O 952.345 -5.64194 0.753241 0
M  V30 10124 N 953.547 -5.69126 -1.14347 0
M  V30 10125 H 956.312 -2.59529 1.49882 0
M  V30 10126 H 953.873 -1.32355 0.932406 0
M  V30 10127 H 955.865 -4.00139 -0.605886 0
M  V30 10128 H 954.435 -2.98705 -0.921638 0
M  V30 10129 H 953.655 -3.6568 1.47213 0
M  V30 10130 H 954.943 -4.87449 1.45845 0
M  V30 10131 H 954.341 -5.4022 -1.67866 0
M  V30 10132 H 952.898 -6.32764 -1.56376 0
M  V30 10133 N 956.331 -0.831506 -1.3388 0
M  V30 10134 C 957.294 -0.264773 -2.27666 0
M  V30 10135 C 958.294 0.562273 -1.50649 0
M  V30 10136 O 959.484 0.377131 -1.70069 0
M  V30 10137 C 956.616 0.627814 -3.35069 0
M  V30 10138 H 957.809 -1.09225 -2.79303 0
M  V30 10139 H 955.362 -0.604021 -1.44157 0
M  V30 10140 H 956.097 1.47802 -2.88661 0
M  V30 10141 H 955.882 0.0361552 -3.92083 0
M  V30 10142 H 957.372 1.01786 -4.05005 0
M  V30 10143 N 957.809 1.4625 -0.587256 0
M  V30 10144 C 959.225 1.57641 -0.249284 0
M  V30 10145 C 959.425 1.58169 1.24839 0
M  V30 10146 O 958.481 1.50109 2.03036 0
M  V30 10147 C 959.794 2.86837 -0.902509 0
M  V30 10148 C 961.342 3.00476 -0.876524 0
M  V30 10149 C 961.817 4.32414 -1.50938 0
M  V30 10150 N 963.308 4.39124 -1.47392 0
M  V30 10151 C 964.043 5.39838 -1.93293 0
M  V30 10152 N 963.539 6.47202 -2.47188 0
M  V30 10153 N 965.332 5.31068 -1.84183 0
M  V30 10154 H 957.483 1.44151 -1.55994 0
M  V30 10155 H 959.746 0.687905 -0.652297 0
M  V30 10156 H 959.452 2.92274 -1.95624 0
M  V30 10157 H 959.326 3.74927 -0.413466 0
M  V30 10158 H 961.713 2.94618 0.168601 0
M  V30 10159 H 961.794 2.1385 -1.40363 0
M  V30 10160 H 961.438 4.3903 -2.55372 0
M  V30 10161 H 961.368 5.17823 -0.957455 0
M  V30 10162 H 963.859 3.62138 -1.08002 0
M  V30 10163 H 964.172 7.20269 -2.80058 0
M  V30 10164 H 962.517 6.48009 -2.51216 0
M  V30 10165 H 965.708 4.46095 -1.41833 0
M  V30 10166 H 965.881 6.09414 -2.2027 0
M  V30 10167 N 959.287 0.325282 1.54207 0
M  V30 10168 C 960.219 -0.57395 2.21897 0
M  V30 10169 C 961.232 -1.0785 1.21952 0
M  V30 10170 O 962.421 -0.991782 1.48411 0
M  V30 10171 C 959.521 -1.8005 2.87115 0
M  V30 10172 C 958.694 -1.43435 4.13213 0
M  V30 10173 C 957.753 -2.51862 4.62009 0
M  V30 10174 O 956.779 -2.15934 5.26651 0
M  V30 10175 N 957.981 -3.8282 4.36382 0
M  V30 10176 H 960.746 0.00566918 2.99699 0
M  V30 10177 H 958.307 0.148563 1.61217 0
M  V30 10178 H 960.299 -2.51981 3.16682 0
M  V30 10179 H 958.869 -2.28792 2.13009 0
M  V30 10180 H 958.089 -0.546598 3.90392 0
M  V30 10181 H 959.377 -1.16544 4.95273 0
M  V30 10182 H 958.775 -4.14807 3.84645 0
M  V30 10183 H 957.332 -4.50976 4.70599 0
M  V30 10184 N 960.765 -1.57509 0.0534917 0
M  V30 10185 C 961.675 -2.15152 -0.935249 0
M  V30 10186 C 962.691 -1.10991 -1.34003 0
M  V30 10187 O 963.867 -1.43171 -1.41648 0
M  V30 10188 C 960.932 -2.68699 -2.19093 0
M  V30 10189 C 959.993 -3.87666 -1.84428 0
M  V30 10190 C 959.226 -4.3865 -3.0401 0
M  V30 10191 O 959.449 -3.887 -4.17455 0
M  V30 10192 O 958.383 -5.30209 -2.84889 0
M  V30 10193 H 962.209 -2.99962 -0.475009 0
M  V30 10194 H 959.794 -1.48446 -0.16854 0
M  V30 10195 H 961.676 -3.03098 -2.92762 0
M  V30 10196 H 960.351 -1.86958 -2.6425 0
M  V30 10197 H 959.258 -3.58151 -1.08068 0
M  V30 10198 H 960.591 -4.70643 -1.44068 0
M  V30 10199 N 962.243 0.219913 -1.56058 0
M  V30 10200 C 963.176 1.29978 -1.87566 0
M  V30 10201 C 964.154 1.45131 -0.733203 0
M  V30 10202 O 965.338 1.60917 -0.981729 0
M  V30 10203 C 962.465 2.66988 -2.08411 0
M  V30 10204 C 961.511 2.68842 -3.31099 0
M  V30 10205 S 962.344 2.22745 -4.86975 0
M  V30 10206 C 963.5 3.61627 -5.10859 0
M  V30 10207 H 963.733 1.03059 -2.78866 0
M  V30 10208 H 961.266 0.422233 -1.48514 0
M  V30 10209 H 963.224 3.45866 -2.21104 0
M  V30 10210 H 961.885 2.91131 -1.17905 0
M  V30 10211 H 961.078 3.69526 -3.42734 0
M  V30 10212 H 960.68 1.98028 -3.17271 0
M  V30 10213 H 962.972 4.57328 -4.99857 0
M  V30 10214 H 963.915 3.54906 -6.12737 0
M  V30 10215 H 964.323 3.55391 -4.38586 0
M  V30 10216 N 963.721 1.49897 0.486681 0
M  V30 10217 C 964.97 1.59349 1.23656 0
M  V30 10218 C 965.283 0.292024 1.93408 0
M  V30 10219 O 966.489 0.265258 2.70201 0
M  V30 10220 C 964.945 2.81215 2.24602 0
M  V30 10221 C 964.553 4.18177 1.60725 0
M  V30 10222 C 966.297 3.00004 3.00329 0
M  V30 10223 C 964.204 5.31247 2.59866 0
M  V30 10224 H 963.134 0.593363 0.465227 0
M  V30 10225 H 965.785 1.76306 0.508769 0
M  V30 10226 H 964.167 2.57783 3.00606 0
M  V30 10227 H 965.341 4.51802 0.90616 0
M  V30 10228 H 963.656 4.04864 0.973362 0
M  V30 10229 H 966.253 3.81649 3.74497 0
M  V30 10230 H 966.596 2.1112 3.58795 0
M  V30 10231 H 967.129 3.23544 2.3144 0
M  V30 10232 H 963.868 6.22236 2.06161 0
M  V30 10233 H 963.388 5.02059 3.28172 0
M  V30 10234 H 965.067 5.61177 3.22009 0
M  V30 10235 N 965.199 -0.738761 1.39212 0
M  V30 10236 C 966.147 -1.8741 1.3777 0
M  V30 10237 C 967.141 -1.67371 0.261375 0
M  V30 10238 O 968.347 -1.74759 0.431209 0
M  V30 10239 H 964.722 -0.616843 0.430126 0
M  V30 10240 H 966.693 -1.85742 2.33543 0
M  V30 10241 C 965.442 -3.25053 1.23433 0
M  V30 10242 H 964.765 -3.41066 2.086 0
M  V30 10243 H 966.205 -4.04696 1.2648 0
M  V30 10244 C 964.664 -3.36851 -0.0575624 0
M  V30 10245 O 965.194 -3.88293 -1.02915 0
M  V30 10246 N 963.4 -2.90355 -0.119364 0
M  V30 10247 H 962.947 -2.48681 0.671976 0
M  V30 10248 H 962.905 -2.98628 -0.983286 0
M  V30 10249 N 966.677 -1.24326 -0.968545 0
M  V30 10250 C 967.923 -1.08406 -1.71394 0
M  V30 10251 C 968.256 0.376353 -1.90518 0
M  V30 10252 O 967.531 1.27816 -1.46606 0
M  V30 10253 C 967.814 -1.82344 -3.1052 0
M  V30 10254 C 967.667 -3.3613 -2.98893 0
M  V30 10255 C 968.986 -1.59545 -4.10163 0
M  V30 10256 H 966.105 -0.395205 -0.622079 0
M  V30 10257 H 968.747 -1.52983 -1.12677 0
M  V30 10258 H 966.897 -1.44452 -3.60646 0
M  V30 10259 H 968.569 -3.83614 -2.56199 0
M  V30 10260 H 966.812 -3.64553 -2.35124 0
M  V30 10261 H 967.483 -3.83064 -3.97449 0
M  V30 10262 H 969.959 -1.92504 -3.68892 0
M  V30 10263 H 968.835 -2.13736 -5.05577 0
M  V30 10264 H 969.096 -0.533503 -4.38869 0
M  V30 10265 N 968.156 1.1691 -1.05688 0
M  V30 10266 C 969.402 1.87814 -0.780871 0
M  V30 10267 C 969.757 1.79796 0.684926 0
M  V30 10268 O 969.05 1.19853 1.49485 0
M  V30 10269 C 969.244 3.36578 -1.20207 0
M  V30 10270 C 969.073 3.59078 -2.70727 0
M  V30 10271 C 967.843 3.75515 -3.38107 0
M  V30 10272 C 970.041 3.58307 -3.68946 0
M  V30 10273 N 968.023 3.85906 -4.77441 0
M  V30 10274 C 969.394 3.74608 -4.94033 0
M  V30 10275 C 971.449 3.41484 -3.62343 0
M  V30 10276 C 970.152 3.75828 -6.13307 0
M  V30 10277 C 972.178 3.43995 -4.81063 0
M  V30 10278 C 971.54 3.60809 -6.04976 0
M  V30 10279 H 967.639 0.705158 -0.338047 0
M  V30 10280 H 970.223 1.40315 -1.34981 0
M  V30 10281 H 968.394 3.82734 -0.661031 0
M  V30 10282 H 970.126 3.95119 -0.875377 0
M  V30 10283 H 966.881 3.7558 -2.88508 0
M  V30 10284 H 967.305 3.94886 -5.49904 0
M  V30 10285 H 971.947 3.27417 -2.67503 0
M  V30 10286 H 969.665 3.88679 -7.08487 0
M  V30 10287 H 973.251 3.3223 -4.77613 0
M  V30 10288 H 972.131 3.62663 -6.95302 0
M  V30 10289 N 969.634 0.838594 1.33437 0
M  V30 10290 C 971.045 0.490934 1.8013 0
M  V30 10291 C 971.396 -0.990024 1.6939 0
M  V30 10292 O 970.521 -1.77139 1.24302 0
M  V30 10293 C 971.116 0.884347 3.27055 0
M  V30 10294 C 969.675 0.588829 3.71766 0
M  V30 10295 C 968.822 1.09282 2.54858 0
M  V30 10296 H 971.773 1.02732 1.20962 0
M  V30 10297 H 971.794 0.194283 3.80004 0
M  V30 10298 H 971.306 1.96225 3.34839 0
M  V30 10299 H 969.407 -0.479018 3.69508 0
M  V30 10300 H 969.52 1.14387 4.65245 0
M  V30 10301 H 967.884 0.513702 2.49466 0
M  V30 10302 H 968.667 2.1775 2.65405 0
M  V30 10303 N 971.112 -1.45937 0.595003 0
M  V30 10304 C 972.042 -2.33198 -0.11871 0
M  V30 10305 C 973.023 -1.46083 -0.871423 0
M  V30 10306 O 974.208 -1.74879 -0.844461 0
M  V30 10307 C 971.338 -3.28576 -1.12495 0
M  V30 10308 C 970.292 -4.25229 -0.486275 0
M  V30 10309 C 969.618 -5.10204 -1.59986 0
M  V30 10310 C 970.918 -5.19019 0.584473 0
M  V30 10311 H 972.612 -2.93122 0.609886 0
M  V30 10312 H 970.158 -1.40951 0.294742 0
M  V30 10313 H 972.111 -3.88485 -1.6327 0
M  V30 10314 H 970.835 -2.66784 -1.88398 0
M  V30 10315 H 969.494 -3.666 0.000507962 0
M  V30 10316 H 969.142 -4.44789 -2.34886 0
M  V30 10317 H 968.842 -5.75669 -1.1781 0
M  V30 10318 H 970.366 -5.7298 -2.11014 0
M  V30 10319 H 971.78 -5.73073 0.161297 0
M  V30 10320 H 970.177 -5.92893 0.927256 0
M  V30 10321 H 971.247 -4.62208 1.46601 0
M  V30 10322 N 972.59 -0.333456 -1.54032 0
M  V30 10323 C 974.001 0.15256 -1.86076 0
M  V30 10324 C 974.352 1.50819 -1.25492 0
M  V30 10325 O 973.477 2.08903 -0.564665 0
M  V30 10326 C 974.072 0.283599 -3.37611 0
M  V30 10327 C 972.631 0.713841 -3.69569 0
M  V30 10328 C 971.778 -0.158515 -2.76847 0
M  V30 10329 H 974.729 -0.553404 -1.48738 0
M  V30 10330 H 974.75 1.11284 -3.63863 0
M  V30 10331 H 974.262 -0.703193 -3.81676 0
M  V30 10332 H 972.363 1.71002 -3.31042 0
M  V30 10333 H 972.476 0.510731 -4.7637 0
M  V30 10334 H 970.84 0.367531 -2.52034 0
M  V30 10335 H 971.623 -1.14226 -3.2374 0
M  V30 10336 N 974.068 1.57479 -0.061844 0
M  V30 10337 C 974.998 2.15181 0.9066 0
M  V30 10338 C 975.979 1.07624 1.31724 0
M  V30 10339 O 977.164 1.35614 1.39006 0
M  V30 10340 C 974.294 2.70542 2.17771 0
M  V30 10341 C 973.248 3.83178 1.9068 0
M  V30 10342 C 972.574 4.25099 3.24337 0
M  V30 10343 C 973.874 5.07853 1.21994 0
M  V30 10344 H 975.568 2.96355 0.42594 0
M  V30 10345 H 973.114 1.42556 0.203435 0
M  V30 10346 H 975.067 3.09552 2.85929 0
M  V30 10347 H 973.791 1.86575 2.68062 0
M  V30 10348 H 972.45 3.44656 1.24931 0
M  V30 10349 H 972.098 3.38069 3.72449 0
M  V30 10350 H 971.798 5.01021 3.07005 0
M  V30 10351 H 973.322 4.66718 3.93709 0
M  V30 10352 H 974.736 5.44242 1.80204 0
M  V30 10353 H 973.133 5.88987 1.14954 0
M  V30 10354 H 974.203 4.84497 0.197536 0
M  V30 10355 N 975.546 -0.211634 1.56173 0
M  V30 10356 C 976.456 -1.2831 1.96402 0
M  V30 10357 C 977.472 -1.50731 0.869254 0
M  V30 10358 O 978.648 -1.63669 1.17365 0
M  V30 10359 C 975.713 -2.61084 2.28114 0
M  V30 10360 C 974.774 -2.46879 3.51211 0
M  V30 10361 C 974.007 -3.73321 3.81401 0
M  V30 10362 O 974.23 -4.76773 3.13119 0
M  V30 10363 O 973.164 -3.69839 4.74871 0
M  V30 10364 H 976.99 -0.971733 2.87734 0
M  V30 10365 H 974.575 -0.415305 1.43512 0
M  V30 10366 H 976.457 -3.39481 2.49661 0
M  V30 10367 H 975.132 -2.91881 1.39954 0
M  V30 10368 H 974.039 -1.66648 3.34932 0
M  V30 10369 H 975.372 -2.21018 4.39786 0
M  V30 10370 N 977.024 -1.50153 -0.478725 0
M  V30 10371 C 978.435 -1.53706 -1.05978 0
M  V30 10372 C 978.786 -0.336112 -1.933 0
M  V30 10373 O 977.911 0.551803 -2.09246 0
M  V30 10374 C 978.506 -2.78541 -1.92874 0
M  V30 10375 C 977.065 -2.848 -2.46102 0
M  V30 10376 C 976.212 -2.47902 -1.24257 0
M  V30 10377 H 979.163 -1.56528 -0.261664 0
M  V30 10378 H 979.184 -2.59964 -2.77847 0
M  V30 10379 H 978.696 -3.6593 -1.29293 0
M  V30 10380 H 976.797 -2.01744 -3.13257 0
M  V30 10381 H 976.91 -3.87511 -2.81731 0
M  V30 10382 H 975.274 -2.0017 -1.57493 0
M  V30 10383 H 976.057 -3.3759 -0.62351 0
M  V30 10384 N 978.502 0.731368 -1.39602 0
M  V30 10385 C 979.748 1.49211 -1.38231 0
M  V30 10386 C 980.103 1.92389 0.020747 0
M  V30 10387 O 979.396 1.64161 0.988014 0
M  V30 10388 C 979.59 2.74224 -2.29208 0
M  V30 10389 C 979.419 2.4327 -3.78219 0
M  V30 10390 C 978.189 2.35387 -4.47125 0
M  V30 10391 C 980.387 2.08574 -4.70108 0
M  V30 10392 N 978.369 1.96942 -5.81452 0
M  V30 10393 C 979.74 1.80603 -5.93113 0
M  V30 10394 C 981.795 1.95074 -4.58095 0
M  V30 10395 C 980.498 1.40491 -7.05447 0
M  V30 10396 C 982.524 1.56365 -5.70354 0
M  V30 10397 C 981.886 1.29281 -6.92435 0
M  V30 10398 H 977.985 0.544703 -0.56109 0
M  V30 10399 H 980.569 0.849647 -1.75183 0
M  V30 10400 H 978.74 3.36244 -1.94408 0
M  V30 10401 H 980.472 3.40451 -2.18803 0
M  V30 10402 H 977.227 2.52604 -4.0061 0
M  V30 10403 H 977.651 1.80303 -6.52549 0
M  V30 10404 H 982.293 2.1468 -3.64242 0
M  V30 10405 H 980.011 1.19626 -7.99197 0
M  V30 10406 H 983.597 1.4652 -5.63048 0
M  V30 10407 H 982.477 0.997769 -7.77827 0
M  V30 10408 N 979.98 1.24838 0.961938 0
M  V30 10409 C 980.91 1.07053 2.07514 0
M  V30 10410 C 981.891 -0.0182465 1.7009 0
M  V30 10411 O 983.076 0.149915 1.9362 0
M  V30 10412 C 980.206 0.680693 3.40564 0
M  V30 10413 C 979.16 1.71889 3.91967 0
M  V30 10414 C 978.486 1.18395 5.21428 0
M  V30 10415 C 979.786 3.1161 4.19161 0
M  V30 10416 H 981.48 2.00167 2.22651 0
M  V30 10417 H 979.026 0.963799 1.0699 0
M  V30 10418 H 980.979 0.54324 4.17884 0
M  V30 10419 H 979.703 -0.28615 3.25344 0
M  V30 10420 H 978.362 1.84465 3.16809 0
M  V30 10421 H 978.01 0.207543 5.02572 0
M  V30 10422 H 977.71 1.87778 5.56788 0
M  V30 10423 H 979.234 1.05873 6.01351 0
M  V30 10424 H 980.648 3.0223 4.87165 0
M  V30 10425 H 979.045 3.78398 4.65763 0
M  V30 10426 H 980.115 3.59218 3.25715 0
M  V30 10427 N 981.458 -1.16348 1.06306 0
M  V30 10428 C 982.869 -1.68491 0.80422 0
M  V30 10429 C 983.22 -1.84327 -0.672159 0
M  V30 10430 O 982.345 -1.53892 -1.52139 0
M  V30 10431 C 982.94 -3.06048 1.45328 0
M  V30 10432 C 981.499 -3.55311 1.24221 0
M  V30 10433 C 980.646 -2.31291 1.5297 0
M  V30 10434 H 983.597 -1.00708 1.22652 0
M  V30 10435 H 983.618 -3.70451 0.868674 0
M  V30 10436 H 983.13 -2.9449 2.52779 0
M  V30 10437 H 981.231 -3.72128 0.187447 0
M  V30 10438 H 981.344 -4.37397 1.95502 0
M  V30 10439 H 979.708 -2.3631 0.950241 0
M  V30 10440 H 980.491 -2.22331 2.6158 0
M  V30 10441 N 982.937 -0.845659 -1.3299 0
M  V30 10442 C 983.9 -0.288905 -2.27372 0
M  V30 10443 C 984.9 0.546263 -1.51237 0
M  V30 10444 O 986.09 0.359072 -1.70459 0
M  V30 10445 C 983.222 0.59224 -3.35716 0
M  V30 10446 H 984.415 -1.12181 -2.78128 0
M  V30 10447 H 981.968 -0.619276 -1.43508 0
M  V30 10448 H 982.703 1.44732 -2.90212 0
M  V30 10449 H 982.488 -0.00543255 -3.921 0
M  V30 10450 H 983.978 0.974848 -4.06062 0
M  V30 10451 N 984.415 1.45619 -0.602734 0
M  V30 10452 C 985.64 2.07157 -0.100429 0
M  V30 10453 C 986.065 1.44524 1.20393 0
M  V30 10454 O 985.423 0.536191 1.7319 0
M  V30 10455 C 985.471 3.60587 0.0308604 0
M  V30 10456 O 984.575 3.97944 1.08234 0
M  V30 10457 H 983.916 0.6601 -0.0718643 0
M  V30 10458 H 986.446 1.86948 -0.831366 0
M  V30 10459 H 986.456 4.07348 0.230634 0
M  V30 10460 H 985.131 4.05561 -0.921581 0
M  V30 10461 H 983.708 3.62862 0.859414 0
M  V30 10462 N 985.893 0.34162 1.53853 0
M  V30 10463 C 986.803 -0.524555 2.2866 0
M  V30 10464 C 987.819 -1.1136 1.33697 0
M  V30 10465 O 988.995 -1.1297 1.66732 0
M  V30 10466 C 986.06 -1.66065 3.04341 0
M  V30 10467 C 985.121 -1.10158 4.14926 0
M  V30 10468 C 984.354 -2.18353 4.86988 0
M  V30 10469 O 984.577 -3.39038 4.58704 0
M  V30 10470 O 983.511 -1.82756 5.73484 0
M  V30 10471 H 987.337 0.0835014 3.03585 0
M  V30 10472 H 984.922 0.106727 1.49018 0
M  V30 10473 H 986.804 -2.3217 3.51674 0
M  V30 10474 H 985.479 -2.25456 2.32275 0
M  V30 10475 H 984.386 -0.405109 3.719 0
M  V30 10476 H 985.719 -0.552567 4.89088 0
M  V30 10477 N 987.371 -1.57444 0.0701946 0
M  V30 10478 C 988.787 -1.57009 -0.286431 0
M  V30 10479 C 988.987 -1.07946 -1.70147 0
M  V30 10480 O 988.043 -0.744622 -2.41271 0
M  V30 10481 C 989.356 -3.00542 -0.0975466 0
M  V30 10482 C 990.904 -3.12553 -0.167205 0
M  V30 10483 C 991.379 -4.58 -0.00662047 0
M  V30 10484 N 992.87 -4.63158 -0.0622778 0
M  V30 10485 C 993.605 -5.73388 0.0375831 0
M  V30 10486 N 993.101 -6.92537 0.190873 0
M  V30 10487 N 994.894 -5.62097 -0.0193672 0
M  V30 10488 H 987.045 -1.87651 0.995023 0
M  V30 10489 H 989.308 -0.865006 0.387902 0
M  V30 10490 H 989.014 -3.40543 0.878822 0
M  V30 10491 H 988.888 -3.67485 -0.850547 0
M  V30 10492 H 991.275 -2.72439 -1.13406 0
M  V30 10493 H 991.356 -2.48251 0.616871 0
M  V30 10494 H 991 -4.98803 0.956992 0
M  V30 10495 H 990.93 -5.20332 -0.810081 0
M  V30 10496 H 993.421 -3.77475 -0.179229 0
M  V30 10497 H 993.734 -7.72365 0.25926 0
M  V30 10498 H 992.079 -6.94632 0.226214 0
M  V30 10499 H 995.27 -4.67897 -0.137815 0
M  V30 10500 H 995.443 -6.4797 0.0619121 0
M  V30 10501 N 988.849 0.203349 -1.56283 0
M  V30 10502 C 990.265 0.55384 -1.49682 0
M  V30 10503 C 990.465 1.86261 -0.768701 0
M  V30 10504 O 989.521 2.50517 -0.315824 0
M  V30 10505 C 990.834 0.616216 -2.94318 0
M  V30 10506 C 992.382 0.705611 -3.04943 0
M  V30 10507 C 992.857 0.79917 -4.50974 0
M  V30 10508 N 994.348 0.862916 -4.55091 0
M  V30 10509 C 995.083 0.955334 -5.65386 0
M  V30 10510 N 994.579 1.01057 -6.8539 0
M  V30 10511 N 996.372 0.991884 -5.53279 0
M  V30 10512 H 988.523 -0.655244 -2.0204 0
M  V30 10513 H 990.786 -0.232344 -0.919087 0
M  V30 10514 H 990.492 -0.27619 -3.50614 0
M  V30 10515 H 990.366 1.47371 -3.4722 0
M  V30 10516 H 992.753 1.58845 -2.48701 0
M  V30 10517 H 992.834 -0.177921 -2.5518 0
M  V30 10518 H 992.478 -0.0792841 -5.07838 0
M  V30 10519 H 992.408 1.69838 -4.9846 0
M  V30 10520 H 994.899 0.829812 -3.68677 0
M  V30 10521 H 995.212 1.08137 -7.65197 0
M  V30 10522 H 993.557 0.979384 -6.88065 0
M  V30 10523 H 996.748 0.945514 -4.58451 0
M  V30 10524 H 996.921 1.06045 -6.39264 0
M  V30 10525 N 990.327 1.50405 0.470755 0
M  V30 10526 C 991.29 1.68741 1.5511 0
M  V30 10527 C 992.29 0.558116 1.50804 0
M  V30 10528 O 993.48 0.825149 1.53418 0
M  V30 10529 C 990.612 1.71295 2.94739 0
M  V30 10530 H 991.805 2.65127 1.40169 0
M  V30 10531 H 989.358 1.39891 0.697156 0
M  V30 10532 H 990.093 0.766029 3.15123 0
M  V30 10533 H 989.878 2.53336 2.99271 0
M  V30 10534 H 991.368 1.87434 3.73173 0
M  V30 10535 N 991.805 -0.723954 1.39988 0
M  V30 10536 C 993.051 -1.48591 1.38017 0
M  V30 10537 C 993.384 -1.94189 -0.0203522 0
M  V30 10538 O 992.659 -1.67572 -0.987422 0
M  V30 10539 C 992.942 -2.71786 2.36229 0
M  V30 10540 C 992.795 -2.32136 3.8527 0
M  V30 10541 C 994.114 -3.73921 2.32102 0
M  V30 10542 H 991.233 -0.538993 0.502648 0
M  V30 10543 H 993.875 -0.826908 1.71062 0
M  V30 10544 H 992.025 -3.28015 2.0818 0
M  V30 10545 H 993.697 -1.81454 4.24113 0
M  V30 10546 H 991.94 -1.64234 4.01509 0
M  V30 10547 H 992.611 -3.20406 4.49493 0
M  V30 10548 H 995.087 -3.27303 2.56928 0
M  V30 10549 H 993.963 -4.5777 3.02882 0
M  V30 10550 H 994.224 -4.21627 1.32979 0
M  V30 10551 N 993.283 -1.25346 -0.955304 0
M  V30 10552 C 994.699 -1.02154 -1.22625 0
M  V30 10553 C 994.899 0.26206 -1.99789 0
M  V30 10554 O 993.955 0.974958 -2.32918 0
M  V30 10555 C 995.268 -2.2443 -2.00129 0
M  V30 10556 C 996.816 -2.29185 -2.13174 0
M  V30 10557 C 997.291 -3.51117 -2.94077 0
M  V30 10558 N 998.782 -3.51509 -3.01655 0
M  V30 10559 C 999.517 -4.42517 -3.64645 0
M  V30 10560 N 999.013 -5.43796 -4.29252 0
M  V30 10561 N 1000.81 -4.302 -3.61779 0
M  V30 10562 H 992.957 -2.07812 -0.439071 0
M  V30 10563 H 995.22 -0.91258 -0.256715 0
M  V30 10564 H 994.926 -3.17717 -1.50827 0
M  V30 10565 H 994.8 -2.27548 -3.00835 0
M  V30 10566 H 997.187 -1.36422 -2.61674 0
M  V30 10567 H 997.268 -2.30087 -1.11775 0
M  V30 10568 H 996.912 -4.44201 -2.46268 0
M  V30 10569 H 996.842 -3.4746 -3.95701 0
M  V30 10570 H 999.333 -2.78245 -2.55711 0
M  V30 10571 H 999.646 -6.09453 -4.75171 0
M  V30 10572 H 997.991 -5.4767 -4.27882 0
M  V30 10573 H 1001.18 -3.50304 -3.10491 0
M  V30 10574 H 1001.36 -5.01323 -4.10584 0
M  V30 10575 N 994.761 1.15782 -1.06922 0
M  V30 10576 C 995.691 2.22538 -0.707045 0
M  V30 10577 C 996.672 1.67371 0.303471 0
M  V30 10578 O 997.857 1.9339 0.177189 0
M  V30 10579 C 994.987 3.47158 -0.0994269 0
M  V30 10580 C 993.941 4.15257 -1.03661 0
M  V30 10581 C 993.267 5.33902 -0.291974 0
M  V30 10582 C 994.567 4.65516 -2.36837 0
M  V30 10583 H 996.261 2.53089 -1.59958 0
M  V30 10584 H 993.807 1.21649 -0.770552 0
M  V30 10585 H 995.76 4.21073 0.165852 0
M  V30 10586 H 994.484 3.15926 0.828155 0
M  V30 10587 H 993.143 3.43276 -1.28674 0
M  V30 10588 H 992.791 4.98926 0.638928 0
M  V30 10589 H 992.491 5.80407 -0.916613 0
M  V30 10590 H 994.015 6.1059 -0.0343915 0
M  V30 10591 H 995.429 5.30981 -2.16175 0
M  V30 10592 H 993.826 5.22666 -2.94856 0
M  V30 10593 H 994.896 3.81387 -2.99453 0
M  V30 10594 N 996.239 0.8527 1.3254 0
M  V30 10595 C 997.65 0.510012 1.79599 0
M  V30 10596 C 998.001 -0.972002 1.70431 0
M  V30 10597 O 997.126 -1.7581 1.26173 0
M  V30 10598 C 997.721 0.918986 3.26098 0
M  V30 10599 C 996.28 0.628227 3.7112 0
M  V30 10600 C 995.427 1.11979 2.53685 0
M  V30 10601 H 998.378 1.04009 1.19866 0
M  V30 10602 H 998.399 0.234577 3.79776 0
M  V30 10603 H 997.911 1.99765 3.32739 0
M  V30 10604 H 996.012 -0.4398 3.69995 0
M  V30 10605 H 996.125 1.19315 4.64005 0
M  V30 10606 H 994.489 0.540133 2.48907 0
M  V30 10607 H 995.272 2.20552 2.63081 0
M  V30 10608 N 997.718 -1.45297 0.610449 0
M  V30 10609 C 999.129 -1.85715 0.191488 0
M  V30 10610 C 999.48 -1.51036 -1.25229 0
M  V30 10611 O 998.605 -0.938422 -1.94994 0
M  V30 10612 C 999.2 -3.37082 0.340747 0
M  V30 10613 C 997.759 -3.76393 -0.0235433 0
M  V30 10614 C 996.906 -2.69237 0.663849 0
M  V30 10615 H 999.857 -1.36058 0.816948 0
M  V30 10616 H 999.878 -3.78105 -0.426233 0
M  V30 10617 H 999.39 -3.62291 1.39164 0
M  V30 10618 H 997.491 -3.56801 -1.07351 0
M  V30 10619 H 997.604 -4.77653 0.372102 0
M  V30 10620 H 995.968 -2.54499 0.101204 0
M  V30 10621 H 996.751 -2.97281 1.71694 0
M  V30 10622 N 999.196 -0.349774 -1.5367 0
M  V30 10623 C 1000.16 0.491676 -2.23864 0
M  V30 10624 C 1001.16 1.02256 -1.24098 0
M  V30 10625 O 1002.35 0.910816 -1.48492 0
M  V30 10626 C 999.481 1.68557 -2.96313 0
M  V30 10627 H 1000.67 -0.12233 -2.9965 0
M  V30 10628 H 998.227 -0.101214 -1.55972 0
M  V30 10629 H 998.962 2.3381 -2.2473 0
M  V30 10630 H 998.747 1.31203 -3.69497 0
M  V30 10631 H 1000.24 2.28225 -3.49718 0
M  V30 10632 N 1000.67 1.57404 -0.0785433 0
M  V30 10633 C 1001.9 1.98492 0.601292 0
M  V30 10634 C 1002.32 0.956832 1.61945 0
M  V30 10635 O 1001.68 -0.0767502 1.81137 0
M  V30 10636 C 1001.73 3.38596 1.24036 0
M  V30 10637 O 1000.83 3.38461 2.35622 0
M  V30 10638 H 1000.17 0.645882 0.154054 0
M  V30 10639 H 1002.7 2.04012 -0.155056 0
M  V30 10640 H 1002.71 3.75929 1.5856 0
M  V30 10641 H 1001.39 4.12952 0.494341 0
M  V30 10642 H 999.967 3.12906 2.02841 0
M  V30 10643 N 1002.15 -0.195058 1.56388 0
M  V30 10644 C 1003.38 -0.931642 1.84738 0
M  V30 10645 C 1003.79 -1.76849 0.661046 0
M  V30 10646 O 1003.15 -1.78705 -0.370241 0
M  V30 10647 C 1003.2 -1.82777 3.11889 0
M  V30 10648 O 1002.92 -1.02471 4.25948 0
M  V30 10649 C 1004.42 -2.67603 3.53417 0
M  V30 10650 H 1001.64 -0.271821 0.613477 0
M  V30 10651 H 1004.19 -0.202299 2.03497 0
M  V30 10652 H 1002.34 -2.51074 2.95027 0
M  V30 10653 H 1002.76 -1.63539 4.98353 0
M  V30 10654 H 1004.23 -3.26138 4.45352 0
M  V30 10655 H 1004.71 -3.41314 2.76408 0
M  V30 10656 H 1005.31 -2.04678 3.7281 0
M  V30 10657 N 1003.63 -1.50653 -0.462772 0
M  V30 10658 C 1004.85 -1.66103 -1.24196 0
M  V30 10659 C 1005.28 -0.347421 -1.84864 0
M  V30 10660 O 1004.64 0.689673 -1.6767 0
M  V30 10661 C 1004.69 -2.76027 -2.32037 0
M  V30 10662 O 1003.79 -2.37859 -3.36893 0
M  V30 10663 H 1003.13 -0.554672 -0.365014 0
M  V30 10664 H 1005.66 -1.97076 -0.549734 0
M  V30 10665 H 1005.67 -2.99354 -2.77221 0
M  V30 10666 H 1004.35 -3.71361 -1.87253 0
M  V30 10667 H 1002.92 -2.2501 -2.97363 0
M  V30 10668 N 1005.11 0.71652 -1.4037 0
M  V30 10669 C 1006.35 1.48883 -1.40047 0
M  V30 10670 C 1006.71 1.92 -0.00158027 0
M  V30 10671 O 1007.91 2.68501 0.126765 0
M  V30 10672 C 1006.18 2.68265 -2.36154 0
M  V30 10673 S 1007.74 3.57684 -2.5418 0
M  V30 10674 H 1004.56 0.509035 -0.496391 0
M  V30 10675 H 1007.16 0.837967 -1.76631 0
M  V30 10676 H 1005.87 2.34759 -3.36625 0
M  V30 10677 H 1005.4 3.38264 -2.0085 0
M  V30 10678 H 1007.41 4.62653 -1.79352 0
M  V30 10679 N 1006.59 1.25851 0.948643 0
M  V30 10680 C 1008 1.09975 1.50872 0
M  V30 10681 C 1008.35 -0.322497 1.93531 0
M  V30 10682 O 1007.47 -1.21316 1.79197 0
M  V30 10683 C 1008.07 1.99021 2.74182 0
M  V30 10684 C 1006.63 1.87313 3.26483 0
M  V30 10685 C 1005.77 1.92815 1.99293 0
M  V30 10686 H 1008.73 1.3905 0.764908 0
M  V30 10687 H 1008.75 1.53372 3.4822 0
M  V30 10688 H 1008.26 3.02527 2.43103 0
M  V30 10689 H 1006.36 0.867136 3.62369 0
M  V30 10690 H 1006.47 2.72446 3.94094 0
M  V30 10691 H 1004.84 1.36774 2.1486 0
M  V30 10692 H 1005.62 2.97936 1.70554 0
M  V30 10693 N 1008.06 -1.15214 1.07534 0
M  V30 10694 C 1009.48 -1.67628 0.822045 0
M  V30 10695 C 1009.83 -1.8503 -0.652571 0
M  V30 10696 O 1008.95 -1.55497 -1.50498 0
M  V30 10697 C 1009.55 -3.04489 1.48566 0
M  V30 10698 C 1008.11 -3.53974 1.27983 0
M  V30 10699 C 1007.25 -2.29656 1.55414 0
M  V30 10700 H 1010.2 -0.994016 1.23713 0
M  V30 10701 H 1010.22 -3.69509 0.907916 0
M  V30 10702 H 1009.74 -2.91792 2.55888 0
M  V30 10703 H 1007.84 -3.71908 0.226906 0
M  V30 10704 H 1007.95 -4.35298 2.0013 0
M  V30 10705 H 1006.31 -2.35289 0.975251 0
M  V30 10706 H 1007.1 -2.19544 2.63923 0
M  V30 10707 N 1009.54 -0.859717 -1.32086 0
M  V30 10708 C 1010.77 -0.479028 -2.0097 0
M  V30 10709 C 1011.18 0.930242 -1.64752 0
M  V30 10710 O 1010.52 1.6193 -0.867437 0
M  V30 10711 C 1010.59 -0.54431 -3.55355 0
M  V30 10712 C 1010.25 -1.91337 -4.15017 0
M  V30 10713 C 1011.25 -2.87951 -4.32874 0
M  V30 10714 C 1008.93 -2.21189 -4.50977 0
M  V30 10715 C 1010.93 -4.12567 -4.85867 0
M  V30 10716 C 1008.61 -3.46057 -5.03674 0
M  V30 10717 C 1009.61 -4.41562 -5.21068 0
M  V30 10718 O 1009.3 -5.64218 -5.72637 0
M  V30 10719 H 1009.03 -0.186161 -0.649861 0
M  V30 10720 H 1011.58 -1.15976 -1.69525 0
M  V30 10721 H 1009.81 0.1933 -3.86217 0
M  V30 10722 H 1011.5 -0.178506 -4.05507 0
M  V30 10723 H 1012.27 -2.66194 -4.05421 0
M  V30 10724 H 1008.15 -1.47635 -4.36721 0
M  V30 10725 H 1011.69 -4.8712 -4.99359 0
M  V30 10726 H 1007.59 -3.67662 -5.30561 0
M  V30 10727 H 1008.36 -5.66246 -5.91023 0
M  V30 10728 N 1011.02 1.44971 -0.618145 0
M  V30 10729 C 1012.27 2.0176 -0.11725 0
M  V30 10730 C 1012.59 1.48773 1.26062 0
M  V30 10731 O 1011.86 0.686152 1.83491 0
M  V30 10732 H 1010.44 0.745909 -0.0403545 0
M  V30 10733 H 1013.1 1.77638 -0.801923 0
M  V30 10734 H 1012.2 3.1201 -0.0750477 0
M  V30 10735 N 1012.5 0.357919 1.53482 0
M  V30 10736 C 1013.45 -0.50845 2.22258 0
M  V30 10737 C 1014.43 -1.05476 1.21506 0
M  V30 10738 O 1015.62 -0.986075 1.46988 0
M  V30 10739 C 1012.75 -1.65157 3.00962 0
M  V30 10740 C 1011.84 -1.11851 4.09084 0
M  V30 10741 N 1012.23 -0.307818 5.04862 0
M  V30 10742 C 1010.53 -1.39405 4.23653 0
M  V30 10743 C 1011.23 -0.016842 5.81698 0
M  V30 10744 N 1010.21 -0.612396 5.40139 0
M  V30 10745 H 1014.01 0.117836 2.93664 0
M  V30 10746 H 1011.52 0.16553 1.61554 0
M  V30 10747 H 1013.52 -2.28435 3.48745 0
M  V30 10748 H 1012.18 -2.281 2.31086 0
M  V30 10749 H 1013.19 0.0523313 5.17874 0
M  V30 10750 H 1009.87 -2.02682 3.65002 0
M  V30 10751 H 1011.26 0.638046 6.68864 0
M  V30 10752 N 1013.98 -1.5736 0.0868897 0
M  V30 10753 C 1015.25 -1.85495 -0.620561 0
M  V30 10754 C 1015.63 -0.982218 -1.86857 0
M  V30 10755 O 1014.98 -0.0524529 -2.2844 0
M  V30 10756 C 1015.19 -3.35996 -0.943798 0
M  V30 10757 C 1016.54 -4.03861 -1.31079 0
M  V30 10758 O 1017.56 -3.4083 -1.03507 0
M  V30 10759 O 1016.42 -5.15062 -1.82683 0
M  V30 10760 H 1013.52 -0.766822 -0.309697 0
M  V30 10761 H 1016.06 -1.69282 0.118966 0
M  V30 10762 H 1014.83 -3.91257 -0.0580628 0
M  V30 10763 H 1014.46 -3.57525 -1.73958 0
M  V30 10764 N 1015.45 0.186762 -1.56489 0
M  V30 10765 C 1016.42 1.21511 -1.94339 0
M  V30 10766 C 1017.42 1.38001 -0.82537 0
M  V30 10767 O 1018.61 1.3567 -1.09266 0
M  V30 10768 C 1015.74 2.583 -2.22472 0
M  V30 10769 H 1016.93 0.891371 -2.86347 0
M  V30 10770 H 1014.49 0.428612 -1.50308 0
M  V30 10771 H 1015.22 2.95715 -1.33129 0
M  V30 10772 H 1015.01 2.47701 -3.03951 0
M  V30 10773 H 1016.5 3.32441 -2.5273 0
M  V30 10774 N 1016.93 1.50896 0.454776 0
M  V30 10775 C 1017.86 1.6712 1.56855 0
M  V30 10776 C 1018.88 0.552223 1.53148 0
M  V30 10777 O 1020.07 0.825969 1.5824 0
M  V30 10778 C 1017.17 1.65464 2.95762 0
M  V30 10779 C 1016.34 2.93662 3.24163 0
M  V30 10780 C 1015.4 2.84428 4.42704 0
M  V30 10781 O 1014.42 3.58382 4.42211 0
M  V30 10782 N 1015.63 1.9909 5.45292 0
M  V30 10783 H 1018.39 2.63194 1.43349 0
M  V30 10784 H 1015.95 1.48564 0.643457 0
M  V30 10785 H 1017.94 1.56878 3.73057 0
M  V30 10786 H 1016.51 0.770568 3.02954 0
M  V30 10787 H 1015.73 3.16251 2.35328 0
M  V30 10788 H 1017.02 3.78558 3.39957 0
M  V30 10789 H 1016.42 1.3835 5.48521 0
M  V30 10790 H 1014.98 1.96396 6.21508 0
M  V30 10791 N 1018.41 -0.709066 1.40748 0
M  V30 10792 C 1019.34 -1.83583 1.4429 0
M  V30 10793 C 1020.32 -1.67378 0.303067 0
M  V30 10794 O 1021.51 -1.87312 0.512612 0
M  V30 10795 C 1018.64 -3.21599 1.31116 0
M  V30 10796 C 1017.59 -3.52486 2.4277 0
M  V30 10797 C 1016.92 -4.89716 2.14668 0
M  V30 10798 C 1018.22 -3.52824 3.85113 0
M  V30 10799 H 1019.91 -1.80876 2.38588 0
M  V30 10800 H 1017.46 -0.868795 1.14839 0
M  V30 10801 H 1019.41 -4.00123 1.32209 0
M  V30 10802 H 1018.13 -3.24898 0.332965 0
M  V30 10803 H 1016.79 -2.76305 2.40937 0
M  V30 10804 H 1016.44 -4.89625 1.15224 0
M  V30 10805 H 1016.14 -5.11347 2.89478 0
M  V30 10806 H 1017.66 -5.70566 2.17455 0
M  V30 10807 H 1019.08 -4.21377 3.88734 0
M  V30 10808 H 1017.48 -3.85984 4.59496 0
M  V30 10809 H 1018.55 -2.52073 4.14231 0
M  V30 10810 N 1019.89 -1.26353 -0.941956 0
M  V30 10811 C 1021.3 -1.10774 -1.50287 0
M  V30 10812 C 1021.65 0.312229 -1.937 0
M  V30 10813 O 1020.78 1.20364 -1.79838 0
M  V30 10814 C 1021.37 -2.00473 -2.73123 0
M  V30 10815 C 1019.93 -1.89042 -3.25485 0
M  V30 10816 C 1019.08 -1.93869 -1.98267 0
M  V30 10817 H 1022.03 -1.39454 -0.757523 0
M  V30 10818 H 1022.05 -1.55216 -3.47402 0
M  V30 10819 H 1021.56 -3.03812 -2.41495 0
M  V30 10820 H 1019.66 -0.886341 -3.61904 0
M  V30 10821 H 1019.78 -2.74533 -3.92643 0
M  V30 10822 H 1018.14 -1.37912 -2.14132 0
M  V30 10823 H 1018.92 -2.98837 -1.68972 0
M  V30 10824 N 1021.37 1.14642 -1.08144 0
M  V30 10825 C 1022.3 2.21775 -0.730609 0
M  V30 10826 C 1023.28 1.67683 0.285702 0
M  V30 10827 O 1024.46 1.93567 0.156667 0
M  V30 10828 C 1021.59 3.47033 -0.136242 0
M  V30 10829 C 1020.55 4.14134 -1.0806 0
M  V30 10830 C 1019.87 5.33563 -0.348585 0
M  V30 10831 C 1021.17 4.62978 -2.41761 0
M  V30 10832 H 1022.87 2.51378 -1.62633 0
M  V30 10833 H 1020.41 1.20825 -0.783411 0
M  V30 10834 H 1022.37 4.21226 0.121182 0
M  V30 10835 H 1021.09 3.16786 0.7946 0
M  V30 10836 H 1019.75 3.41892 -1.32308 0
M  V30 10837 H 1019.4 4.99575 0.585974 0
M  V30 10838 H 1019.1 5.79402 -0.978122 0
M  V30 10839 H 1020.62 6.10519 -0.0991508 0
M  V30 10840 H 1022.04 5.28659 -2.21795 0
M  V30 10841 H 1020.43 5.1951 -3.00383 0
M  V30 10842 H 1021.5 3.78189 -3.03482 0
M  V30 10843 N 1022.85 0.866709 1.31628 0
M  V30 10844 C 1023.78 0.277328 2.27516 0
M  V30 10845 C 1024.79 -0.557786 1.52946 0
M  V30 10846 O 1025.98 -0.38031 1.74402 0
M  V30 10847 C 1023.08 -0.625742 3.33073 0
M  V30 10848 C 1022.25 0.176204 4.37045 0
M  V30 10849 C 1021.31 -0.654497 5.22114 0
M  V30 10850 O 1020.34 -0.0836961 5.69138 0
M  V30 10851 N 1021.54 -1.96708 5.46156 0
M  V30 10852 H 1024.3 1.10133 2.78731 0
M  V30 10853 H 1021.87 0.72787 1.44616 0
M  V30 10854 H 1023.86 -1.18709 3.86898 0
M  V30 10855 H 1022.43 -1.35042 2.81926 0
M  V30 10856 H 1021.65 0.918999 3.83338 0
M  V30 10857 H 1022.94 0.726594 5.03585 0
M  V30 10858 H 1022.33 -2.454 5.09701 0
M  V30 10859 H 1020.89 -2.47629 6.02929 0
M  V30 10860 N 1024.32 -1.44642 0.625825 0
M  V30 10861 C 1025.25 -2.33397 -0.0692188 0
M  V30 10862 C 1026.23 -1.47898 -0.840241 0
M  V30 10863 O 1027.42 -1.7663 -0.807176 0
M  V30 10864 C 1024.55 -3.30888 -1.055 0
M  V30 10865 C 1023.5 -4.26164 -0.395968 0
M  V30 10866 C 1022.83 -5.13483 -1.49128 0
M  V30 10867 C 1024.13 -5.17663 0.694433 0
M  V30 10868 H 1025.82 -2.91763 0.671925 0
M  V30 10869 H 1023.37 -1.40294 0.324573 0
M  V30 10870 H 1025.32 -3.91861 -1.54993 0
M  V30 10871 H 1024.05 -2.7072 -1.82696 0
M  V30 10872 H 1022.71 -3.66516 0.0782691 0
M  V30 10873 H 1022.35 -4.49672 -2.25399 0
M  V30 10874 H 1022.05 -5.78038 -1.05573 0
M  V30 10875 H 1023.58 -5.77327 -1.98813 0
M  V30 10876 H 1024.99 -5.72602 0.282818 0
M  V30 10877 H 1023.39 -5.90793 1.05281 0
M  V30 10878 H 1024.46 -4.58994 1.56372 0
M  V30 10879 N 1025.8 -0.366053 -1.5329 0
M  V30 10880 C 1027.03 0.224236 -2.05681 0
M  V30 10881 C 1027.44 1.42412 -1.23952 0
M  V30 10882 O 1026.8 1.80334 -0.280309 0
M  V30 10883 C 1026.85 0.617266 -3.56191 0
M  V30 10884 O 1026.57 -0.534931 -4.34822 0
M  V30 10885 C 1028.07 1.26589 -4.24841 0
M  V30 10886 H 1025.29 0.0392928 -0.669849 0
M  V30 10887 H 1027.84 -0.52456 -1.97658 0
M  V30 10888 H 1025.99 1.31598 -3.64364 0
M  V30 10889 H 1026.41 -0.217123 -5.2405 0
M  V30 10890 H 1027.88 1.49146 -5.31469 0
M  V30 10891 H 1028.36 2.22633 -3.78591 0
M  V30 10892 H 1028.96 0.6086 -4.20923 0
M  V30 10893 N 1027.28 1.57312 -0.0952337 0
M  V30 10894 C 1028.53 1.93974 0.567319 0
M  V30 10895 C 1028.85 0.977805 1.68713 0
M  V30 10896 O 1028.12 0.0298944 1.95877 0
M  V30 10897 H 1026.7 0.71612 0.212558 0
M  V30 10898 H 1029.36 1.94254 -0.158598 0
M  V30 10899 H 1028.46 2.964 0.977423 0
M  V30 10900 N 1028.76 -0.17846 1.56586 0
M  V30 10901 C 1030 -0.897562 1.81856 0
M  V30 10902 C 1030.34 -1.82204 0.671955 0
M  V30 10903 O 1029.61 -1.91739 -0.326535 0
M  V30 10904 C 1029.89 -1.69942 3.17477 0
M  V30 10905 C 1029.75 -0.798545 4.42655 0
M  V30 10906 C 1031.07 -2.66861 3.49962 0
M  V30 10907 H 1028.19 -0.324863 0.661539 0
M  V30 10908 H 1030.83 -0.164106 1.8929 0
M  V30 10909 H 1028.98 -2.32471 3.11271 0
M  V30 10910 H 1030.65 -0.18668 4.60922 0
M  V30 10911 H 1028.89 -0.106181 4.3367 0
M  V30 10912 H 1029.56 -1.39496 5.34083 0
M  V30 10913 H 1032.04 -2.1446 3.56576 0
M  V30 10914 H 1030.92 -3.20037 4.45946 0
M  V30 10915 H 1031.18 -3.46715 2.74301 0
M  V30 10916 N 1030.24 -1.51135 -0.446768 0
M  V30 10917 C 1031.65 -1.39101 -0.782504 0
M  V30 10918 C 1031.85 -0.46599 -1.96038 0
M  V30 10919 O 1030.91 0.0823679 -2.52366 0
M  V30 10920 C 1032.22 -2.80953 -1.07173 0
M  V30 10921 C 1033.77 -2.90038 -1.17673 0
M  V30 10922 C 1034.24 -4.32777 -1.49894 0
M  V30 10923 N 1035.73 -4.3584 -1.56837 0
M  V30 10924 C 1036.47 -5.43305 -1.83322 0
M  V30 10925 N 1035.97 -6.60945 -2.07662 0
M  V30 10926 N 1037.76 -5.30775 -1.85026 0
M  V30 10927 H 1029.91 -2.09835 0.329114 0
M  V30 10928 H 1032.17 -0.944199 0.0848054 0
M  V30 10929 H 1031.88 -3.50591 -0.279037 0
M  V30 10930 H 1031.75 -3.197 -2.00179 0
M  V30 10931 H 1034.14 -2.20603 -1.96005 0
M  V30 10932 H 1034.22 -2.54801 -0.225892 0
M  V30 10933 H 1033.86 -5.02757 -0.720924 0
M  V30 10934 H 1033.79 -4.6552 -2.46168 0
M  V30 10935 H 1036.29 -3.51023 -1.39968 0
M  V30 10936 H 1036.6 -7.38643 -2.27214 0
M  V30 10937 H 1034.94 -6.64077 -2.05003 0
M  V30 10938 H 1038.13 -4.37858 -1.65523 0
M  V30 10939 H 1038.31 -6.14609 -2.05329 0
M  V30 10940 N 1031.71 0.701592 -1.41122 0
M  V30 10941 C 1032.99 1.45569 -1.30648 0
M  V30 10942 C 1033.37 2.10988 0.068744 0
M  V30 10943 O 1032.72 2.01228 1.08257 0
M  V30 10944 C 1032.93 2.48003 -2.45551 0
M  V30 10945 C 1034.28 3.13431 -2.86437 0
M  V30 10946 O 1035.3 2.58327 -2.45247 0
M  V30 10947 O 1034.16 4.13221 -3.57646 0
M  V30 10948 H 1031.25 0.648 -0.513834 0
M  V30 10949 H 1033.8 0.73258 -1.53073 0
M  V30 10950 H 1032.57 1.98276 -3.37346 0
M  V30 10951 H 1032.19 3.27832 -2.24971 0
M  V30 10952 N 1033.19 1.2685 0.935242 0
M  V30 10953 C 1034.44 1.12522 1.67878 0
M  V30 10954 C 1034.76 -0.330894 1.92172 0
M  V30 10955 O 1034.03 -1.23259 1.52263 0
M  V30 10956 H 1032.61 0.413418 0.622169 0
M  V30 10957 H 1035.27 1.59267 1.12339 0
M  V30 10958 H 1034.37 1.64853 2.65009 0
M  V30 10959 N 1034.67 -1.14067 1.0875 0
M  V30 10960 C 1035.63 -2.17453 0.724341 0
M  V30 10961 C 1036.63 -1.58959 -0.242614 0
M  V30 10962 O 1037.82 -1.74186 -0.0217008 0
M  V30 10963 C 1034.96 -3.40828 0.0700236 0
M  V30 10964 H 1036.15 -2.51094 1.63987 0
M  V30 10965 H 1033.7 -1.28775 0.885813 0
M  V30 10966 H 1034.44 -3.1277 -0.857061 0
M  V30 10967 H 1034.22 -3.84551 0.76569 0
M  V30 10968 H 1035.71 -4.17258 -0.168905 0
M  V30 10969 N 1036.15 -0.873678 -1.31166 0
M  V30 10970 C 1037.4 -0.482577 -1.95842 0
M  V30 10971 C 1037.71 0.970881 -1.69804 0
M  V30 10972 O 1038.92 1.4683 -2.28371 0
M  V30 10973 C 1037.37 -0.812074 -3.50619 0
M  V30 10974 C 1036.98 -2.28254 -3.85492 0
M  V30 10975 C 1038.72 -0.489624 -4.21667 0
M  V30 10976 C 1036.63 -2.55426 -5.33396 0
M  V30 10977 H 1035.56 -0.176736 -0.732994 0
M  V30 10978 H 1038.21 -1.06709 -1.49283 0
M  V30 10979 H 1036.59 -0.156769 -3.9569 0
M  V30 10980 H 1037.77 -2.98122 -3.51369 0
M  V30 10981 H 1036.08 -2.5714 -3.27518 0
M  V30 10982 H 1038.68 -0.669811 -5.30488 0
M  V30 10983 H 1039.02 0.570204 -4.12376 0
M  V30 10984 H 1039.56 -1.10163 -3.82242 0
M  V30 10985 H 1036.3 -3.60106 -5.47726 0
M  V30 10986 H 1035.82 -1.90156 -5.68859 0
M  V30 10987 H 1037.49 -2.40345 -6.00702 0
M  V30 10988 N 1037.63 1.44308 -0.633487 0
M  V30 10989 C 1038.88 2.01239 -0.136356 0
M  V30 10990 C 1039.19 1.50438 1.25011 0
M  V30 10991 O 1040.39 1.99513 1.84138 0
M  V30 10992 C 1038.85 3.59382 -0.193011 0
M  V30 10993 C 1038.46 4.19178 -1.58093 0
M  V30 10994 C 1040.2 4.23778 0.247534 0
M  V30 10995 C 1038.11 5.69553 -1.59258 0
M  V30 10996 H 1037.04 0.752521 -0.0472109 0
M  V30 10997 H 1039.69 1.65498 -0.79263 0
M  V30 10998 H 1038.07 3.92432 0.530408 0
M  V30 10999 H 1039.25 3.97662 -2.32813 0
M  V30 11000 H 1037.56 3.67079 -1.96576 0
M  V30 11001 H 1040.16 5.34075 0.258401 0
M  V30 11002 H 1040.5 3.96285 1.27529 0
M  V30 11003 H 1041.03 3.9554 -0.423469 0
M  V30 11004 H 1037.77 6.01784 -2.59878 0
M  V30 11005 H 1037.29 5.93185 -0.888352 0
M  V30 11006 H 1038.97 6.33234 -1.32756 0
M  V30 11007 N 1039.1 0.374177 1.53094 0
M  V30 11008 C 1040.05 -0.468226 2.26001 0
M  V30 11009 C 1041.02 -1.07041 1.27009 0
M  V30 11010 O 1042.21 -1.10129 1.55809 0
M  V30 11011 C 1039.35 -1.59754 3.05896 0
M  V30 11012 C 1038.46 -1.01969 4.19793 0
M  V30 11013 C 1037.59 -2.11882 4.87113 0
M  V30 11014 C 1036.63 -1.51607 5.93028 0
M  V30 11015 N 1035.77 -2.55388 6.54004 0
M  V30 11016 H 1040.61 0.159983 2.9757 0
M  V30 11017 H 1038.15 0.0907196 1.4682 0
M  V30 11018 H 1040.11 -2.26288 3.50499 0
M  V30 11019 H 1038.74 -2.19628 2.36565 0
M  V30 11020 H 1037.79 -0.244386 3.79614 0
M  V30 11021 H 1039.1 -0.539089 4.95878 0
M  V30 11022 H 1038.25 -2.86218 5.34943 0
M  V30 11023 H 1036.99 -2.63297 4.10519 0
M  V30 11024 H 1036 -0.757891 5.44551 0
M  V30 11025 H 1037.22 -1.01006 6.71546 0
M  V30 11026 H 1035.17 -3.06 5.80258 0
M  V30 11027 H 1035.09 -2.12039 7.25655 0
M  V30 11028 H 1036.35 -3.294 7.06481 0
M  V30 11029 N 1040.58 -1.57259 0.103575 0
M  V30 11030 C 1042 -1.57581 -0.253062 0
M  V30 11031 C 1042.2 -1.11531 -1.67819 0
M  V30 11032 O 1041.25 -0.795632 -2.39637 0
M  V30 11033 C 1042.57 -3.00681 -0.0337753 0
M  V30 11034 C 1044.12 -3.12837 -0.10087 0
M  V30 11035 C 1044.59 -4.57911 0.0905295 0
M  V30 11036 N 1046.08 -4.63186 0.0359789 0
M  V30 11037 C 1046.82 -5.73179 0.159199 0
M  V30 11038 N 1046.31 -6.91976 0.337728 0
M  V30 11039 N 1048.11 -5.62011 0.0998662 0
M  V30 11040 H 1040.26 -1.85499 1.0346 0
M  V30 11041 H 1042.52 -0.856584 0.406163 0
M  V30 11042 H 1042.23 -3.38602 0.950858 0
M  V30 11043 H 1042.1 -3.69207 -0.772406 0
M  V30 11044 H 1044.49 -2.74783 -1.07601 0
M  V30 11045 H 1044.57 -2.46886 0.66939 0
M  V30 11046 H 1044.21 -4.9666 1.06258 0
M  V30 11047 H 1044.14 -5.21933 -0.699528 0
M  V30 11048 H 1046.63 -3.7777 -0.099121 0
M  V30 11049 H 1046.95 -7.71641 0.423032 0
M  V30 11050 H 1045.29 -6.93996 0.373504 0
M  V30 11051 H 1048.48 -4.68084 -0.0385356 0
M  V30 11052 H 1048.65 -6.47693 0.199342 0
M  V30 11053 N 1042.06 0.170153 -1.56679 0
M  V30 11054 C 1042.99 1.21285 -1.9953 0
M  V30 11055 C 1043.97 1.46104 -0.871071 0
M  V30 11056 O 1045.16 1.57419 -1.13724 0
M  V30 11057 C 1042.29 2.5515 -2.35618 0
M  V30 11058 C 1041.24 2.44898 -3.51011 0
M  V30 11059 C 1040.57 3.83263 -3.72845 0
M  V30 11060 C 1041.87 1.95271 -4.84424 0
M  V30 11061 H 1043.56 0.856646 -2.86883 0
M  V30 11062 H 1041.11 0.410634 -1.38021 0
M  V30 11063 H 1043.06 3.28299 -2.64193 0
M  V30 11064 H 1041.78 2.92561 -1.45175 0
M  V30 11065 H 1040.44 1.74203 -3.22566 0
M  V30 11066 H 1040.09 4.18069 -2.79691 0
M  V30 11067 H 1039.79 3.77272 -4.50488 0
M  V30 11068 H 1041.31 4.57996 -4.03822 0
M  V30 11069 H 1042.73 2.58195 -5.11867 0
M  V30 11070 H 1041.13 2.00225 -5.65712 0
M  V30 11071 H 1042.2 0.90709 -4.7634 0
M  V30 11072 N 1043.54 1.5137 0.438746 0
M  V30 11073 C 1044.95 1.56462 1.01866 0
M  V30 11074 C 1045.3 0.387244 1.9234 0
M  V30 11075 O 1044.43 -0.496131 2.10636 0
M  V30 11076 C 1045.02 2.83557 1.85421 0
M  V30 11077 C 1043.58 2.91224 2.38464 0
M  V30 11078 C 1042.73 2.51109 1.17641 0
M  V30 11079 H 1045.68 1.57167 0.220072 0
M  V30 11080 H 1045.7 2.6724 2.70857 0
M  V30 11081 H 1045.21 3.69229 1.19546 0
M  V30 11082 H 1043.31 2.09979 3.07798 0
M  V30 11083 H 1043.42 3.94844 2.71358 0
M  V30 11084 H 1041.79 2.04276 1.5213 0
M  V30 11085 H 1042.57 3.39125 0.533785 0
M  V30 11086 N 1045.02 -0.694098 1.41492 0
M  V30 11087 C 1046.26 -1.45127 1.4065 0
M  V30 11088 C 1046.59 -1.94993 0.0170289 0
M  V30 11089 O 1045.86 -1.71799 -0.941372 0
M  V30 11090 H 1044.44 -0.538493 0.51772 0
M  V30 11091 H 1047.1 -0.821441 1.76744 0
M  V30 11092 H 1046.19 -2.31372 2.0946 0
M  V30 11093 N 1046.49 -1.27344 -0.928501 0
M  V30 11094 C 1047.46 -1.10043 -2.01055 0
M  V30 11095 C 1048.46 -0.0446793 -1.60738 0
M  V30 11096 O 1049.65 -0.289202 -1.71783 0
M  V30 11097 C 1046.78 -0.676559 -3.34119 0
M  V30 11098 H 1047.97 -2.06126 -2.17835 0
M  V30 11099 H 1045.53 -1.10121 -1.10919 0
M  V30 11100 H 1046.26 0.285697 -3.23039 0
M  V30 11101 H 1046.05 -1.43903 -3.64739 0
M  V30 11102 H 1047.54 -0.577725 -4.13584 0
M  V30 11103 N 1047.97 1.13488 -1.09353 0
M  V30 11104 C 1048.94 2.17066 -0.735863 0
M  V30 11105 C 1049.94 1.59086 0.234181 0
M  V30 11106 O 1051.13 1.74196 0.012463 0
M  V30 11107 C 1048.26 3.40786 -0.0880975 0
M  V30 11108 H 1049.45 2.50221 -1.65316 0
M  V30 11109 H 1047 1.28304 -0.89263 0
M  V30 11110 H 1047.74 3.1322 0.840462 0
M  V30 11111 H 1047.52 3.8414 -0.786073 0
M  V30 11112 H 1049.01 4.17342 0.146775 0
M  V30 11113 N 1049.45 0.880621 1.30701 0
M  V30 11114 C 1050.36 0.348034 2.32004 0
M  V30 11115 C 1051.38 -0.547508 1.65162 0
M  V30 11116 O 1052.55 -0.441673 1.96497 0
M  V30 11117 C 1049.62 -0.432585 3.43991 0
M  V30 11118 C 1048.68 0.492189 4.26469 0
M  V30 11119 C 1047.91 -0.25127 5.33108 0
M  V30 11120 O 1048.14 -1.47795 5.5092 0
M  V30 11121 O 1047.07 0.396376 6.00593 0
M  V30 11122 H 1050.9 1.18798 2.79501 0
M  V30 11123 H 1048.48 0.64432 1.34792 0
M  V30 11124 H 1050.36 -0.874733 4.12221 0
M  V30 11125 H 1049.04 -1.2489 2.98637 0
M  V30 11126 H 1047.94 0.983058 3.60953 0
M  V30 11127 H 1049.28 1.27439 4.75416 0
M  V30 11128 N 1050.93 -1.4397 0.641131 0
M  V30 11129 C 1051.89 -2.29149 -0.0482243 0
M  V30 11130 C 1052.89 -1.41572 -0.762495 0
M  V30 11131 O 1054.08 -1.63335 -0.605571 0
M  V30 11132 C 1051.21 -3.23375 -1.07896 0
M  V30 11133 H 1052.41 -2.9159 0.70109 0
M  V30 11134 H 1049.96 -1.51048 0.401754 0
M  V30 11135 H 1050.7 -2.65804 -1.85792 0
M  V30 11136 H 1050.48 -3.87926 -0.570597 0
M  V30 11137 H 1051.97 -3.87337 -1.56075 0
M  V30 11138 N 1052.41 -0.382291 -1.52893 0
M  V30 11139 C 1053.64 0.202408 -2.05908 0
M  V30 11140 C 1054.05 1.4109 -1.25456 0
M  V30 11141 O 1053.41 1.80027 -0.29942 0
M  V30 11142 C 1053.46 0.579452 -3.56826 0
M  V30 11143 O 1053.18 -0.58102 -4.3423 0
M  V30 11144 C 1054.68 1.22076 -4.2616 0
M  V30 11145 H 1051.9 0.0321859 -0.670228 0
M  V30 11146 H 1054.44 -0.545494 -1.9709 0
M  V30 11147 H 1052.6 1.27726 -3.65739 0
M  V30 11148 H 1053.01 -0.272693 -5.23791 0
M  V30 11149 H 1054.49 1.435 -5.33021 0
M  V30 11150 H 1054.96 2.18605 -3.80931 0
M  V30 11151 H 1055.57 0.563922 -4.21545 0
M  V30 11152 N 1053.89 1.57202 -0.111913 0
M  V30 11153 C 1054.82 2.17957 0.837683 0
M  V30 11154 C 1055.8 1.1176 1.28233 0
M  V30 11155 O 1056.98 1.39967 1.34621 0
M  V30 11156 C 1054.11 2.77333 2.09054 0
M  V30 11157 C 1053.07 3.8905 1.78393 0
M  V30 11158 C 1052.39 4.35203 3.10649 0
M  V30 11159 C 1053.69 5.11477 1.05775 0
M  V30 11160 H 1055.39 2.9756 0.331441 0
M  V30 11161 H 1052.93 1.43131 0.157979 0
M  V30 11162 H 1054.88 3.18492 2.75936 0
M  V30 11163 H 1053.61 1.95009 2.6199 0
M  V30 11164 H 1052.27 3.48456 1.13903 0
M  V30 11165 H 1051.92 3.49747 3.61506 0
M  V30 11166 H 1051.62 5.10534 2.9091 0
M  V30 11167 H 1053.14 4.79007 3.78661 0
M  V30 11168 H 1054.55 5.497 1.62798 0
M  V30 11169 H 1052.95 5.92346 0.961573 0
M  V30 11170 H 1054.02 4.84881 0.043297 0
M  V30 11171 N 1055.36 -0.161842 1.56767 0
M  V30 11172 C 1056.77 -0.723385 1.72116 0
M  V30 11173 C 1057.13 -1.82355 0.723961 0
M  V30 11174 O 1056.25 -2.16107 -0.112643 0
M  V30 11175 C 1056.85 -1.31895 3.12072 0
M  V30 11176 C 1055.4 -1.82722 3.29074 0
M  V30 11177 C 1054.55 -0.709863 2.6806 0
M  V30 11178 H 1057.5 0.0636647 1.58572 0
M  V30 11179 H 1057.52 -2.18871 3.11249 0
M  V30 11180 H 1057.04 -0.51801 3.84627 0
M  V30 11181 H 1055.14 -2.6543 2.61491 0
M  V30 11182 H 1055.25 -1.96614 4.36898 0
M  V30 11183 H 1053.61 -1.13273 2.28126 0
M  V30 11184 H 1054.4 0.0793884 3.43208 0
M  V30 11185 N 1056.84 -1.516 -0.430713 0
M  V30 11186 C 1057.77 -1.76342 -1.53054 0
M  V30 11187 C 1058.75 -0.61349 -1.58652 0
M  V30 11188 O 1059.94 -0.856888 -1.74273 0
M  V30 11189 C 1057.07 -1.8945 -2.91077 0
M  V30 11190 C 1056.02 -3.04928 -3.00339 0
M  V30 11191 C 1055.35 -3.03228 -4.40405 0
M  V30 11192 C 1056.65 -4.44777 -2.73808 0
M  V30 11193 H 1058.34 -2.68435 -1.326 0
M  V30 11194 H 1055.89 -1.29171 -0.636466 0
M  V30 11195 H 1057.84 -2.05343 -3.67984 0
M  V30 11196 H 1056.56 -0.940114 -3.12777 0
M  V30 11197 H 1055.22 -2.88751 -2.25872 0
M  V30 11198 H 1054.87 -2.05553 -4.59083 0
M  V30 11199 H 1054.57 -3.80776 -4.47531 0
M  V30 11200 H 1056.1 -3.21222 -5.19277 0
M  V30 11201 H 1057.51 -4.6127 -3.40445 0
M  V30 11202 H 1055.91 -5.2408 -2.92335 0
M  V30 11203 H 1056.98 -4.54358 -1.69372 0
M  V30 11204 N 1058.32 0.686584 -1.41858 0
M  V30 11205 C 1059.25 1.81202 -1.40352 0
M  V30 11206 C 1060.26 1.5993 -0.304322 0
M  V30 11207 O 1061.45 1.69267 -0.566643 0
M  V30 11208 C 1058.55 3.18116 -1.16856 0
M  V30 11209 C 1057.73 3.66339 -2.38987 0
M  V30 11210 C 1056.79 4.8195 -2.11212 0
M  V30 11211 O 1055.81 4.93102 -2.84323 0
M  V30 11212 N 1057.01 5.69829 -1.10793 0
M  V30 11213 H 1059.78 1.82983 -2.37355 0
M  V30 11214 H 1057.34 0.869244 -1.36586 0
M  V30 11215 H 1059.33 3.93097 -0.962125 0
M  V30 11216 H 1057.9 3.11306 -0.284186 0
M  V30 11217 H 1057.12 2.82166 -2.75274 0
M  V30 11218 H 1058.41 3.95297 -3.2034 0
M  V30 11219 H 1057.81 5.63459 -0.503012 0
M  V30 11220 H 1056.36 6.44671 -0.961379 0
M  V30 11221 N 1059.8 1.27835 0.921735 0
M  V30 11222 C 1061.02 1.17465 1.70929 0
M  V30 11223 C 1061.45 -0.264171 1.86236 0
M  V30 11224 O 1060.81 -1.19124 1.36671 0
M  V30 11225 C 1060.85 1.8697 3.08342 0
M  V30 11226 O 1059.96 1.17173 3.95404 0
M  V30 11227 H 1059.3 0.408206 0.523702 0
M  V30 11228 H 1061.83 1.69013 1.15307 0
M  V30 11229 H 1061.84 1.94564 3.58621 0
M  V30 11230 H 1060.51 2.91633 2.96518 0
M  V30 11231 H 1059.09 1.17688 3.53842 0
M  V30 11232 N 1061.28 -1.12907 1.09954 0
M  V30 11233 C 1062.5 -1.88679 0.861099 0
M  V30 11234 C 1062.93 -1.78853 -0.582499 0
M  V30 11235 O 1062.28 -1.13992 -1.4098 0
M  V30 11236 C 1062.33 -3.36047 1.30785 0
M  V30 11237 O 1061.44 -4.09716 0.469728 0
M  V30 11238 H 1060.78 -0.586447 0.31141 0
M  V30 11239 H 1063.31 -1.42818 1.46507 0
M  V30 11240 H 1063.32 -3.86882 1.29562 0
M  V30 11241 H 1061.99 -3.42516 2.35914 0
M  V30 11242 H 1060.57 -3.6887 0.54674 0
M  V30 11243 N 1062.75 -0.88754 -1.30232 0
M  V30 11244 C 1064 -0.506277 -1.95656 0
M  V30 11245 C 1064.32 0.948191 -1.70395 0
M  V30 11246 O 1063.59 1.66701 -1.02895 0
M  V30 11247 H 1062.17 -0.184235 -0.723924 0
M  V30 11248 H 1064.83 -1.13118 -1.58715 0
M  V30 11249 H 1063.93 -0.678673 -3.04632 0
M  V30 11250 N 1064.23 1.43628 -0.648757 0
M  V30 11251 C 1065.48 2.01465 -0.16002 0
M  V30 11252 C 1065.8 1.51413 1.22878 0
M  V30 11253 O 1065.07 0.724919 1.81994 0
M  V30 11254 H 1063.65 0.744885 -0.0561672 0
M  V30 11255 H 1066.31 1.75897 -0.839422 0
M  V30 11256 H 1065.41 3.1178 -0.141213 0
M  V30 11257 N 1065.71 0.390394 1.52688 0
M  V30 11258 C 1066.67 -0.432149 2.25089 0
M  V30 11259 C 1067.67 -0.989296 1.26766 0
M  V30 11260 O 1068.86 -0.871126 1.50854 0
M  V30 11261 C 1066 -1.60642 3.00678 0
M  V30 11262 H 1067.19 0.201734 2.99221 0
M  V30 11263 H 1064.74 0.142531 1.55649 0
M  V30 11264 H 1065.48 -2.2777 2.3085 0
M  V30 11265 H 1065.26 -1.21361 3.72846 0
M  V30 11266 H 1066.75 -2.18873 3.55647 0
M  V30 11267 N 1067.19 -1.57141 0.120249 0
M  V30 11268 C 1068.44 -1.94852 -0.536387 0
M  V30 11269 C 1068.76 -1.00452 -1.67136 0
M  V30 11270 O 1068.03 -0.061053 -1.95805 0
M  V30 11271 H 1066.61 -0.719411 -0.201138 0
M  V30 11272 H 1069.27 -1.93977 0.189482 0
M  V30 11273 H 1068.37 -2.97917 -0.930145 0
M  V30 11274 N 1068.67 0.153526 -1.5685 0
M  V30 11275 C 1069.58 1.20932 -2.01029 0
M  V30 11276 C 1070.59 1.47401 -0.924598 0
M  V30 11277 O 1071.77 1.592 -1.23359 0
M  V30 11278 C 1068.83 2.52438 -2.37647 0
M  V30 11279 C 1067.89 2.33673 -3.60132 0
M  V30 11280 C 1067.13 3.58909 -3.94994 0
M  V30 11281 O 1067.35 4.64823 -3.30599 0
M  V30 11282 O 1066.28 3.5196 -4.8827 0
M  V30 11283 H 1070.11 0.864273 -2.91143 0
M  V30 11284 H 1067.7 0.361755 -1.44954 0
M  V30 11285 H 1069.58 3.29981 -2.62088 0
M  V30 11286 H 1068.25 2.86486 -1.5069 0
M  V30 11287 H 1067.16 1.54102 -3.40886 0
M  V30 11288 H 1068.49 2.04544 -4.47686 0
M  V30 11289 N 1070.14 1.51827 0.422667 0
M  V30 11290 C 1071.56 1.40328 0.760275 0
M  V30 11291 C 1071.76 0.497119 1.95272 0
M  V30 11292 O 1070.82 -0.0422083 2.52465 0
M  V30 11293 C 1072.13 2.82622 1.02689 0
M  V30 11294 C 1073.68 2.91874 1.13044 0
M  V30 11295 C 1074.15 4.35107 1.4299 0
M  V30 11296 N 1075.64 4.3828 1.49883 0
M  V30 11297 C 1076.38 5.46153 1.74655 0
M  V30 11298 N 1075.87 6.64165 1.9712 0
M  V30 11299 N 1077.67 5.33651 1.76558 0
M  V30 11300 H 1069.82 2.09285 -0.362455 0
M  V30 11301 H 1072.08 0.94273 -0.0998161 0
M  V30 11302 H 1071.79 3.50991 0.223226 0
M  V30 11303 H 1071.66 3.22844 1.95068 0
M  V30 11304 H 1074.05 2.23694 1.92471 0
M  V30 11305 H 1074.13 2.55128 0.185326 0
M  V30 11306 H 1073.77 5.03841 0.640848 0
M  V30 11307 H 1073.7 4.69377 2.38731 0
M  V30 11308 H 1076.19 3.53206 1.34366 0
M  V30 11309 H 1076.51 7.42165 2.15434 0
M  V30 11310 H 1074.85 6.67255 1.94413 0
M  V30 11311 H 1078.04 4.40436 1.58536 0
M  V30 11312 H 1078.22 6.17798 1.95525 0
M  V30 11313 N 1071.62 -0.679052 1.4222 0
M  V30 11314 C 1072.87 -1.43978 1.43673 0
M  V30 11315 C 1073.22 -1.92333 0.0506711 0
M  V30 11316 O 1072.52 -1.67715 -0.926406 0
M  V30 11317 C 1072.71 -2.65528 2.39227 0
M  V30 11318 C 1072.54 -2.29065 3.86987 0
M  V30 11319 C 1071.31 -2.1863 4.55553 0
M  V30 11320 C 1073.51 -1.90983 4.77525 0
M  V30 11321 N 1071.49 -1.75227 5.88361 0
M  V30 11322 C 1072.86 -1.58465 5.99407 0
M  V30 11323 C 1074.92 -1.77938 4.65019 0
M  V30 11324 C 1073.62 -1.14212 7.10175 0
M  V30 11325 C 1075.64 -1.35089 5.75765 0
M  V30 11326 C 1075.01 -1.03493 6.96756 0
M  V30 11327 H 1071.11 -0.523503 0.58092 0
M  V30 11328 H 1073.69 -0.784043 1.78216 0
M  V30 11329 H 1071.86 -3.28797 2.06753 0
M  V30 11330 H 1073.59 -3.32096 2.31288 0
M  V30 11331 H 1070.35 -2.37562 4.09709 0
M  V30 11332 H 1070.77 -1.5596 6.58791 0
M  V30 11333 H 1075.41 -2.01013 3.71959 0
M  V30 11334 H 1073.13 -0.89882 8.03086 0
M  V30 11335 H 1076.72 -1.25522 5.68098 0
M  V30 11336 H 1075.6 -0.708396 7.80994 0
M  V30 11337 N 1073.1 -1.28322 -0.914942 0
M  V30 11338 C 1074.35 -1.16587 -1.6667 0
M  V30 11339 C 1074.7 0.282961 -1.90308 0
M  V30 11340 O 1073.99 1.20269 -1.49151 0
M  V30 11341 C 1074.19 -1.89663 -3.02924 0
M  V30 11342 C 1074.02 -3.41504 -2.92584 0
M  V30 11343 C 1072.79 -4.10841 -2.94173 0
M  V30 11344 C 1074.99 -4.37266 -2.70745 0
M  V30 11345 N 1072.97 -5.49157 -2.74409 0
M  V30 11346 C 1074.34 -5.62937 -2.59812 0
M  V30 11347 C 1076.39 -4.27207 -2.55732 0
M  V30 11348 C 1075.1 -6.79692 -2.35397 0
M  V30 11349 C 1077.12 -5.43697 -2.32697 0
M  V30 11350 C 1076.48 -6.6833 -2.22517 0
M  V30 11351 H 1072.58 -0.481552 -0.616142 0
M  V30 11352 H 1075.17 -1.61957 -1.08065 0
M  V30 11353 H 1073.34 -1.46729 -3.59618 0
M  V30 11354 H 1075.07 -1.70323 -3.67113 0
M  V30 11355 H 1071.83 -3.62412 -3.04884 0
M  V30 11356 H 1072.25 -6.21858 -2.67622 0
M  V30 11357 H 1076.89 -3.31557 -2.62354 0
M  V30 11358 H 1074.61 -7.75412 -2.27514 0
M  V30 11359 H 1078.2 -5.37802 -2.21947 0
M  V30 11360 H 1077.08 -7.56949 -2.04936 0
M  V30 11361 N 1074.58 1.12322 -1.10551 0
M  V30 11362 C 1075.83 1.83858 -0.848674 0
M  V30 11363 C 1076.15 1.84159 0.62575 0
M  V30 11364 O 1075.41 1.28341 1.4774 0
M  V30 11365 C 1075.71 3.31177 -1.34375 0
M  V30 11366 C 1075.37 3.51046 -2.8298 0
M  V30 11367 C 1074.04 3.56177 -3.23561 0
M  V30 11368 C 1076.39 3.58061 -3.78737 0
M  V30 11369 C 1073.72 3.65868 -4.58647 0
M  V30 11370 C 1076.07 3.69283 -5.13627 0
M  V30 11371 C 1074.73 3.7267 -5.53781 0
M  V30 11372 H 1074 0.672784 -0.310552 0
M  V30 11373 H 1076.65 1.3253 -1.38232 0
M  V30 11374 H 1074.95 3.84937 -0.730144 0
M  V30 11375 H 1076.65 3.84998 -1.12148 0
M  V30 11376 H 1073.24 3.47716 -2.50582 0
M  V30 11377 H 1077.42 3.53366 -3.48491 0
M  V30 11378 H 1072.68 3.66763 -4.89178 0
M  V30 11379 H 1076.85 3.73654 -5.8767 0
M  V30 11380 H 1074.48 3.79932 -6.58449 0
M  V30 11381 N 1076.06 0.894434 1.2976 0
M  V30 11382 C 1076.99 0.3847 2.30309 0
M  V30 11383 C 1077.97 -0.537486 1.61385 0
M  V30 11384 O 1079.15 -0.449332 1.8893 0
M  V30 11385 C 1076.28 -0.393311 3.45066 0
M  V30 11386 C 1075.24 0.437968 4.25753 0
M  V30 11387 C 1074.56 -0.467221 5.32655 0
M  V30 11388 C 1075.86 1.6851 4.9437 0
M  V30 11389 H 1077.56 1.22496 2.73194 0
M  V30 11390 H 1075.1 0.590471 1.31337 0
M  V30 11391 H 1077.06 -0.760614 4.14479 0
M  V30 11392 H 1075.78 -1.2673 3.0101 0
M  V30 11393 H 1074.44 0.787533 3.58041 0
M  V30 11394 H 1074.09 -1.33919 4.84845 0
M  V30 11395 H 1073.79 0.0852482 5.87538 0
M  V30 11396 H 1075.31 -0.830833 6.04921 0
M  V30 11397 H 1076.72 1.38784 5.56248 0
M  V30 11398 H 1075.12 2.17849 5.59162 0
M  V30 11399 H 1076.19 2.42412 4.19958 0
M  V30 11400 N 1077.53 -1.43282 0.656365 0
M  V30 11401 C 1078.48 -2.32556 -0.0452037 0
M  V30 11402 C 1079.48 -1.48789 -0.80982 0
M  V30 11403 O 1080.68 -1.64979 -0.719865 0
M  V30 11404 H 1077.06 -0.751258 -0.0334043 0
M  V30 11405 H 1079.03 -2.89448 0.725423 0
M  V30 11406 C 1077.78 -3.33138 -0.995706 0
M  V30 11407 H 1077.1 -3.97622 -0.416774 0
M  V30 11408 H 1078.54 -3.98231 -1.45562 0
M  V30 11409 C 1077 -2.63978 -2.09325 0
M  V30 11410 O 1077.53 -2.45769 -3.17743 0
M  V30 11411 N 1075.74 -2.23301 -1.8597 0
M  V30 11412 H 1075.28 -2.38312 -0.97802 0
M  V30 11413 H 1075.24 -1.77358 -2.59599 0
M  V30 11414 N 1079.01 -0.398486 -1.52479 0
M  V30 11415 C 1080.26 0.180394 -2.01293 0
M  V30 11416 C 1080.58 1.46548 -1.28641 0
M  V30 11417 O 1079.85 1.91579 -0.409173 0
M  V30 11418 H 1078.43 0.0696528 -0.743746 0
M  V30 11419 H 1081.09 -0.532285 -1.87491 0
M  V30 11420 H 1080.19 0.38409 -3.09728 0
M  V30 11421 N 1080.49 1.57075 -0.12858 0
M  V30 11422 C 1081.4 2.19369 0.831533 0
M  V30 11423 C 1082.42 1.17258 1.28555 0
M  V30 11424 O 1083.59 1.49766 1.34656 0
M  V30 11425 C 1080.66 2.78846 2.06024 0
M  V30 11426 C 1079.72 3.96024 1.65722 0
M  V30 11427 C 1078.95 4.52655 2.82735 0
M  V30 11428 O 1079.18 4.08175 3.98434 0
M  V30 11429 O 1078.11 5.43198 2.59268 0
M  V30 11430 H 1081.94 3.01887 0.331352 0
M  V30 11431 H 1079.52 1.49081 0.0975226 0
M  V30 11432 H 1081.4 3.16721 2.77967 0
M  V30 11433 H 1080.08 1.99353 2.5503 0
M  V30 11434 H 1078.98 3.62899 0.908574 0
M  V30 11435 H 1080.32 4.76981 1.21449 0
M  V30 11436 N 1081.97 -0.145205 1.5693 0
M  V30 11437 C 1083.38 -0.705089 1.72874 0
M  V30 11438 C 1083.73 -1.81577 0.743261 0
M  V30 11439 O 1082.86 -2.16214 -0.0897153 0
M  V30 11440 C 1083.45 -1.28578 3.13454 0
M  V30 11441 C 1082.01 -1.79221 3.30994 0
M  V30 11442 C 1081.16 -0.681392 2.68798 0
M  V30 11443 H 1084.11 0.0804798 1.58496 0
M  V30 11444 H 1084.13 -2.15558 3.13552 0
M  V30 11445 H 1083.64 -0.477186 3.85155 0
M  V30 11446 H 1081.74 -2.62642 2.64292 0
M  V30 11447 H 1081.86 -1.91969 4.38959 0
M  V30 11448 H 1080.22 -1.10847 2.29314 0
M  V30 11449 H 1081 0.115786 3.43105 0
M  V30 11450 N 1083.45 -1.52049 -0.414609 0
M  V30 11451 C 1084.38 -1.77956 -1.51175 0
M  V30 11452 C 1085.36 -0.630282 -1.57992 0
M  V30 11453 O 1086.54 -0.875324 -1.73354 0
M  V30 11454 C 1083.67 -1.92527 -2.89051 0
M  V30 11455 C 1082.63 -3.08096 -2.97087 0
M  V30 11456 C 1081.95 -3.07882 -4.37164 0
M  V30 11457 C 1083.25 -4.47656 -2.69075 0
M  V30 11458 H 1084.95 -2.69827 -1.29746 0
M  V30 11459 H 1082.49 -1.29839 -0.62273 0
M  V30 11460 H 1084.45 -2.09234 -3.65786 0
M  V30 11461 H 1083.17 -0.973235 -3.11762 0
M  V30 11462 H 1081.83 -2.91131 -2.22797 0
M  V30 11463 H 1081.48 -2.10411 -4.56877 0
M  V30 11464 H 1081.18 -3.85501 -4.43467 0
M  V30 11465 H 1082.7 -3.26712 -5.15841 0
M  V30 11466 H 1084.12 -4.64855 -3.35534 0
M  V30 11467 H 1082.51 -5.27151 -2.8676 0
M  V30 11468 H 1083.58 -4.56129 -1.64544 0
M  V30 11469 N 1084.93 0.6715 -1.42579 0
M  V30 11470 C 1086.15 1.45972 -1.46628 0
M  V30 11471 C 1086.57 1.88636 -0.0785986 0
M  V30 11472 O 1085.93 1.58345 0.907372 0
M  V30 11473 C 1085.98 2.70668 -2.39627 0
M  V30 11474 O 1085.7 2.29793 -3.72997 0
M  V30 11475 C 1087.2 3.64201 -2.52731 0
M  V30 11476 H 1084.42 0.449044 -0.498598 0
M  V30 11477 H 1086.96 0.824811 -1.87129 0
M  V30 11478 H 1085.12 3.3034 -2.02371 0
M  V30 11479 H 1085.53 3.10341 -4.22834 0
M  V30 11480 H 1087.01 4.48412 -3.21918 0
M  V30 11481 H 1087.48 4.10323 -1.56626 0
M  V30 11482 H 1088.09 3.1042 -2.90722 0
M  V30 11483 N 1086.4 1.28806 0.908124 0
M  V30 11484 C 1087.31 1.15079 2.04436 0
M  V30 11485 C 1088.33 0.076012 1.73834 0
M  V30 11486 O 1089.51 0.286421 1.99353 0
M  V30 11487 C 1086.57 0.819733 3.3687 0
M  V30 11488 C 1085.63 1.97746 3.81045 0
M  V30 11489 C 1084.86 1.66211 5.07158 0
M  V30 11490 O 1085.09 0.579092 5.67453 0
M  V30 11491 O 1084.02 2.5075 5.47182 0
M  V30 11492 H 1087.85 2.10477 2.18937 0
M  V30 11493 H 1085.43 1.08177 1.03044 0
M  V30 11494 H 1087.31 0.649304 4.16368 0
M  V30 11495 H 1085.99 -0.10454 3.23531 0
M  V30 11496 H 1084.9 2.20308 3.02349 0
M  V30 11497 H 1086.23 2.88264 3.98955 0
M  V30 11498 N 1087.88 -1.11734 1.11145 0
M  V30 11499 C 1089.3 -1.35412 0.844736 0
M  V30 11500 C 1089.5 -1.94347 -0.532111 0
M  V30 11501 O 1088.55 -2.17443 -1.28353 0
M  V30 11502 C 1089.87 -2.28869 1.95037 0
M  V30 11503 C 1091.41 -2.42442 1.97967 0
M  V30 11504 C 1091.89 -3.39219 3.07725 0
M  V30 11505 N 1093.38 -3.4678 3.07079 0
M  V30 11506 C 1094.12 -4.21595 3.88646 0
M  V30 11507 N 1093.61 -4.99411 4.80167 0
M  V30 11508 N 1095.4 -4.17075 3.76835 0
M  V30 11509 H 1087.56 -0.718412 1.99881 0
M  V30 11510 H 1089.82 -0.378787 0.869037 0
M  V30 11511 H 1089.52 -1.92752 2.94176 0
M  V30 11512 H 1089.4 -3.2906 1.84389 0
M  V30 11513 H 1091.79 -2.77835 0.994561 0
M  V30 11514 H 1091.87 -1.42113 2.12691 0
M  V30 11515 H 1091.51 -3.04553 4.0646 0
M  V30 11516 H 1091.44 -4.39394 2.90242 0
M  V30 11517 H 1093.93 -2.91272 2.40767 0
M  V30 11518 H 1094.24 -5.53856 5.38946 0
M  V30 11519 H 1092.59 -4.98582 4.84191 0
M  V30 11520 H 1095.78 -3.55369 3.04681 0
M  V30 11521 H 1095.95 -4.75125 4.40637 0
M  V30 11522 N 1089.36 -0.901303 -1.29284 0
M  V30 11523 C 1090.61 -0.527 -1.95108 0
M  V30 11524 C 1090.93 0.930065 -1.71391 0
M  V30 11525 O 1090.2 1.65601 -1.04658 0
M  V30 11526 H 1088.78 -0.191903 -0.721929 0
M  V30 11527 H 1091.44 -1.14795 -1.57506 0
M  V30 11528 H 1090.54 -0.710945 -3.03895 0
M  V30 11529 N 1090.84 1.42931 -0.663954 0
M  V30 11530 C 1092.25 1.56098 -0.332496 0
M  V30 11531 C 1092.45 1.64564 1.16279 0
M  V30 11532 O 1091.51 1.6066 1.94794 0
M  V30 11533 C 1092.82 2.81649 -1.05329 0
M  V30 11534 C 1094.37 2.95408 -1.03457 0
M  V30 11535 C 1094.85 4.23805 -1.73647 0
M  V30 11536 N 1096.34 4.30693 -1.70462 0
M  V30 11537 C 1097.07 5.28833 -2.21637 0
M  V30 11538 N 1096.57 6.33189 -2.81147 0
M  V30 11539 N 1098.36 5.20558 -2.12075 0
M  V30 11540 H 1090.51 1.3568 -1.63416 0
M  V30 11541 H 1092.77 0.652361 -0.687844 0
M  V30 11542 H 1092.48 2.81494 -2.10842 0
M  V30 11543 H 1092.35 3.72208 -0.611626 0
M  V30 11544 H 1094.74 2.95097 0.0121936 0
M  V30 11545 H 1094.82 2.06109 -1.51502 0
M  V30 11546 H 1094.47 4.24876 -2.78285 0
M  V30 11547 H 1094.4 5.12019 -1.2306 0
M  V30 11548 H 1096.89 3.55904 -1.27046 0
M  V30 11549 H 1097.2 7.04411 -3.17844 0
M  V30 11550 H 1095.55 6.33781 -2.85212 0
M  V30 11551 H 1098.74 4.3795 -1.6528 0
M  V30 11552 H 1098.91 5.96881 -2.52264 0
M  V30 11553 N 1092.32 0.406567 1.52266 0
M  V30 11554 C 1093.26 -0.43489 2.28498 0
M  V30 11555 C 1094.26 -1.04806 1.33086 0
M  V30 11556 O 1095.46 -0.986557 1.50556 0
M  V30 11557 H 1091.84 -0.159023 0.734994 0
M  V30 11558 H 1093.81 0.229316 2.97518 0
M  V30 11559 C 1092.56 -1.54073 3.117 0
M  V30 11560 H 1091.88 -1.07824 3.84986 0
M  V30 11561 H 1093.32 -2.10337 3.6815 0
M  V30 11562 C 1091.78 -2.50662 2.251 0
M  V30 11563 O 1092.31 -3.54486 1.88951 0
M  V30 11564 N 1090.52 -2.20811 1.8892 0
M  V30 11565 H 1090.06 -1.36413 2.18516 0
M  V30 11566 H 1090.02 -2.85684 1.3127 0
M  V30 11567 N 1093.79 -1.57004 0.136909 0
M  V30 11568 C 1095.04 -1.96087 -0.517477 0
M  V30 11569 C 1095.37 -1.0213 -1.65176 0
M  V30 11570 O 1094.65 -0.0617958 -1.94402 0
M  V30 11571 C 1094.93 -3.44958 -1.03323 0
M  V30 11572 C 1094.78 -4.49691 0.0988609 0
M  V30 11573 C 1096.1 -3.96091 -1.91832 0
M  V30 11574 H 1093.22 -0.712978 -0.186632 0
M  V30 11575 H 1095.86 -1.88767 0.216095 0
M  V30 11576 H 1094.01 -3.51327 -1.65836 0
M  V30 11577 H 1095.69 -4.55409 0.734847 0
M  V30 11578 H 1093.93 -4.271 0.75947 0
M  V30 11579 H 1094.6 -5.51165 -0.303554 0
M  V30 11580 H 1097.08 -3.92139 -1.39164 0
M  V30 11581 H 1095.95 -5.00742 -2.24831 0
M  V30 11582 H 1096.21 -3.37846 -2.85153 0
M  V30 11583 N 1095.27 0.136881 -1.57004 0
M  V30 11584 C 1096.5 0.862436 -1.88068 0
M  V30 11585 C 1096.92 1.74274 -0.726227 0
M  V30 11586 O 1096.27 1.79956 0.30366 0
M  V30 11587 C 1096.32 1.71076 -3.18458 0
M  V30 11588 O 1096.04 0.865918 -4.29457 0
M  V30 11589 C 1097.55 2.54302 -3.63105 0
M  V30 11590 H 1094.77 0.248865 -0.623143 0
M  V30 11591 H 1097.31 0.126633 -2.04108 0
M  V30 11592 H 1095.46 2.39951 -3.04142 0
M  V30 11593 H 1095.88 1.4493 -5.04079 0
M  V30 11594 H 1097.35 3.09384 -4.57149 0
M  V30 11595 H 1097.83 3.3082 -2.88886 0
M  V30 11596 H 1098.44 1.907 -3.80149 0
M  V30 11597 N 1096.75 1.52266 0.40654 0
M  V30 11598 C 1097.68 1.78755 1.50229 0
M  V30 11599 C 1098.66 0.638652 1.57655 0
M  V30 11600 O 1099.85 0.884505 1.72888 0
M  V30 11601 C 1096.98 1.94057 2.88026 0
M  V30 11602 C 1095.93 3.09667 2.95449 0
M  V30 11603 C 1095.26 3.10196 4.35526 0
M  V30 11604 C 1096.56 4.49077 2.66697 0
M  V30 11605 H 1098.25 2.70511 1.28313 0
M  V30 11606 H 1095.8 1.30167 0.615836 0
M  V30 11607 H 1097.75 2.11171 3.64671 0
M  V30 11608 H 1096.47 0.989755 3.11242 0
M  V30 11609 H 1095.13 2.92308 2.2125 0
M  V30 11610 H 1094.78 2.12831 4.55754 0
M  V30 11611 H 1094.48 3.87847 4.41416 0
M  V30 11612 H 1096 3.29443 5.14101 0
M  V30 11613 H 1097.42 4.66628 3.33064 0
M  V30 11614 H 1095.82 5.28665 2.8396 0
M  V30 11615 H 1096.89 4.56995 1.62122 0
M  V30 11616 N 1098.23 -0.663929 1.42933 0
M  V30 11617 C 1099.18 -1.77007 1.4371 0
M  V30 11618 C 1100.16 -1.57945 0.306948 0
M  V30 11619 O 1101.35 -1.68239 0.549967 0
M  V30 11620 C 1098.48 -3.15535 1.3525 0
M  V30 11621 C 1097.57 -3.40183 2.53252 0
M  V30 11622 N 1097.96 -3.35357 3.78641 0
M  V30 11623 C 1096.26 -3.70861 2.47746 0
M  V30 11624 C 1096.96 -3.5979 4.57085 0
M  V30 11625 N 1095.94 -3.81084 3.87655 0
M  V30 11626 H 1099.74 -1.71686 2.3854 0
M  V30 11627 H 1097.25 -0.865191 1.37434 0
M  V30 11628 H 1099.25 -3.94816 1.33888 0
M  V30 11629 H 1097.91 -3.22046 0.414308 0
M  V30 11630 H 1098.92 -3.15011 4.11082 0
M  V30 11631 H 1095.6 -3.84552 1.62561 0
M  V30 11632 H 1096.99 -3.61928 5.6609 0
M  V30 11633 N 1099.71 -1.29285 -0.901281 0
M  V30 11634 C 1100.64 -1.16832 -2.0217 0
M  V30 11635 C 1101.62 -0.0629265 -1.69984 0
M  V30 11636 O 1102.8 -0.242123 -1.92685 0
M  V30 11637 C 1099.93 -0.842406 -3.36929 0
M  V30 11638 C 1098.89 -1.90394 -3.8332 0
M  V30 11639 C 1098.21 -1.43138 -5.15185 0
M  V30 11640 C 1099.51 -3.31254 -4.03817 0
M  V30 11641 H 1101.21 -2.10562 -2.12847 0
M  V30 11642 H 1098.75 -1.01375 -1.0227 0
M  V30 11643 H 1100.71 -0.741999 -4.14816 0
M  V30 11644 H 1099.43 0.130598 -3.26339 0
M  V30 11645 H 1098.09 -1.99371 -3.07647 0
M  V30 11646 H 1097.74 -0.447091 -5.01009 0
M  V30 11647 H 1097.44 -2.14129 -5.47195 0
M  V30 11648 H 1098.96 -1.34444 -5.95615 0
M  V30 11649 H 1100.37 -3.25129 -4.72191 0
M  V30 11650 H 1098.77 -4.00189 -4.47178 0
M  V30 11651 H 1099.84 -3.74349 -3.08206 0
M  V30 11652 N 1101.18 1.11143 -1.11736 0
M  V30 11653 C 1102.41 1.86745 -0.890727 0
M  V30 11654 C 1102.83 1.80315 0.55964 0
M  V30 11655 O 1102.18 1.18663 1.38656 0
M  V30 11656 C 1102.24 3.35436 -1.34779 0
M  V30 11657 O 1101.96 3.41738 -2.74129 0
M  V30 11658 C 1103.46 4.27935 -1.15702 0
M  V30 11659 H 1100.68 0.59044 -0.318781 0
M  V30 11660 H 1103.22 1.40549 -1.48547 0
M  V30 11661 H 1101.38 3.79125 -0.796425 0
M  V30 11662 H 1101.79 4.34347 -2.94012 0
M  V30 11663 H 1103.26 5.30494 -1.52579 0
M  V30 11664 H 1103.74 4.39093 -0.0968735 0
M  V30 11665 H 1104.35 3.90042 -1.69551 0
M  V30 11666 N 1102.66 0.908147 1.28804 0
M  V30 11667 C 1103.94 0.457561 1.90173 0
M  V30 11668 C 1104.32 -1.06333 1.82364 0
M  V30 11669 O 1103.67 -1.90892 1.25589 0
M  V30 11670 C 1103.88 0.981624 3.34911 0
M  V30 11671 C 1105.23 1.03037 4.11908 0
M  V30 11672 O 1106.25 0.929878 3.43848 0
M  V30 11673 O 1105.11 1.18257 5.33552 0
M  V30 11674 H 1102.2 0.144081 0.814352 0
M  V30 11675 H 1104.75 0.998565 1.37211 0
M  V30 11676 H 1103.52 2.02561 3.34791 0
M  V30 11677 H 1103.14 0.421122 3.95364 0
M  V30 11678 N 1104.14 -1.42577 0.671525 0
M  V30 11679 C 1105.09 -2.30798 -0.00883676 0
M  V30 11680 C 1106.06 -1.4578 -0.796076 0
M  V30 11681 O 1107.24 -1.74617 -0.768987 0
M  V30 11682 C 1104.38 -3.31581 -0.956452 0
M  V30 11683 C 1103.5 -4.31691 -0.163381 0
M  V30 11684 C 1102.63 -5.19549 -1.10645 0
M  V30 11685 C 1101.67 -6.1134 -0.304876 0
M  V30 11686 N 1100.81 -6.91761 -1.20048 0
M  V30 11687 H 1105.65 -2.88426 0.749301 0
M  V30 11688 H 1103.18 -1.42074 0.381251 0
M  V30 11689 H 1105.14 -3.88539 -1.51966 0
M  V30 11690 H 1103.77 -2.75561 -1.68126 0
M  V30 11691 H 1102.82 -3.76879 0.516396 0
M  V30 11692 H 1104.14 -4.96683 0.459099 0
M  V30 11693 H 1103.29 -5.81223 -1.73969 0
M  V30 11694 H 1102.03 -4.54726 -1.76282 0
M  V30 11695 H 1101.03 -5.48738 0.341597 0
M  V30 11696 H 1102.26 -6.78211 0.347352 0
M  V30 11697 H 1100.2 -6.2957 -1.84331 0
M  V30 11698 H 1100.12 -7.53345 -0.633003 0
M  V30 11699 H 1101.39 -7.57924 -1.82129 0
M  V30 11700 N 1105.62 -0.414636 -1.52048 0
M  V30 11701 C 1106.87 0.159034 -2.01473 0
M  V30 11702 C 1107.19 1.45176 -1.30188 0
M  V30 11703 O 1106.46 1.91134 -0.429469 0
M  V30 11704 H 1105.04 0.0617604 -0.744443 0
M  V30 11705 H 1107.7 -0.552141 -1.86916 0
M  V30 11706 H 1106.8 0.351217 -3.10118 0
M  V30 11707 N 1107.1 1.56929 -0.145233 0
M  V30 11708 C 1108.37 1.8767 0.551288 0
M  V30 11709 C 1108.75 1.05089 1.83083 0
M  V30 11710 O 1108.1 0.137201 2.28088 0
M  V30 11711 C 1108.31 3.39268 0.818445 0
M  V30 11712 C 1109.66 4.08447 1.16 0
M  V30 11713 O 1110.68 3.44436 0.907857 0
M  V30 11714 O 1109.54 5.21488 1.63441 0
M  V30 11715 H 1106.64 0.777788 0.281024 0
M  V30 11716 H 1109.18 1.68724 -0.181712 0
M  V30 11717 H 1107.95 3.91203 -0.0871897 0
M  V30 11718 H 1107.58 3.63735 1.60569 0
M  V30 11719 N 1108.58 -0.128553 1.57075 0
M  V30 11720 C 1109.81 -0.851214 1.8825 0
M  V30 11721 C 1110.21 -1.74402 0.733531 0
M  V30 11722 O 1109.56 -1.81149 -0.305108 0
M  V30 11723 C 1109.62 -1.74451 3.14336 0
M  V30 11724 C 1109.28 -1.02699 4.45311 0
M  V30 11725 C 1110.28 -0.37224 5.18566 0
M  V30 11726 C 1107.96 -1.01101 4.9202 0
M  V30 11727 C 1109.96 0.2889 6.36745 0
M  V30 11728 C 1107.65 -0.346063 6.10119 0
M  V30 11729 C 1108.64 0.302744 6.82329 0
M  V30 11730 O 1108.33 0.9571 7.98182 0
M  V30 11731 H 1108.06 -0.250529 0.627863 0
M  V30 11732 H 1110.62 -0.120418 2.05047 0
M  V30 11733 H 1108.85 -2.51671 2.93596 0
M  V30 11734 H 1110.54 -2.34075 3.31608 0
M  V30 11735 H 1111.3 -0.376271 4.83538 0
M  V30 11736 H 1107.18 -1.50543 4.35727 0
M  V30 11737 H 1110.73 0.795901 6.93045 0
M  V30 11738 H 1106.62 -0.339762 6.44605 0
M  V30 11739 H 1107.39 0.860616 8.13963 0
M  V30 11740 N 1110.05 -1.5248 -0.398459 0
M  V30 11741 C 1110.99 -1.72826 -1.50545 0
M  V30 11742 C 1112 -0.608683 -1.50993 0
M  V30 11743 O 1113.19 -0.88413 -1.55066 0
M  V30 11744 C 1110.29 -1.76327 -2.89417 0
M  V30 11745 C 1109.46 -3.05491 -3.1304 0
M  V30 11746 C 1108.52 -3.00663 -4.31843 0
M  V30 11747 O 1107.55 -3.74548 -4.28605 0
M  V30 11748 N 1108.75 -2.19191 -5.37527 0
M  V30 11749 H 1111.51 -2.68333 -1.33482 0
M  V30 11750 H 1109.07 -1.5085 -0.587875 0
M  V30 11751 H 1111.07 -1.70616 -3.66977 0
M  V30 11752 H 1109.64 -0.882476 -2.99885 0
M  V30 11753 H 1108.86 -3.24767 -2.23428 0
M  V30 11754 H 1110.14 -3.90915 -3.25673 0
M  V30 11755 H 1109.54 -1.58613 -5.43009 0
M  V30 11756 H 1108.1 -2.19328 -6.1379 0
M  V30 11757 N 1111.53 0.65634 -1.43283 0
M  V30 11758 C 1112.46 1.78101 -1.51004 0
M  V30 11759 C 1113.44 1.66138 -0.36498 0
M  V30 11760 O 1114.63 1.85281 -0.581778 0
M  V30 11761 C 1111.76 3.16511 -1.42961 0
M  V30 11762 C 1110.71 3.43233 -2.55685 0
M  V30 11763 C 1110.04 4.81411 -2.32696 0
M  V30 11764 C 1111.34 3.38288 -3.97943 0
M  V30 11765 H 1113.03 1.71896 -2.45137 0
M  V30 11766 H 1110.58 0.825575 -1.17984 0
M  V30 11767 H 1112.53 3.94941 -1.46968 0
M  V30 11768 H 1111.25 3.23439 -0.45332 0
M  V30 11769 H 1109.91 2.67173 -2.51026 0
M  V30 11770 H 1109.56 4.85011 -1.33317 0
M  V30 11771 H 1109.26 5.00251 -3.08257 0
M  V30 11772 H 1110.79 5.62102 -2.38481 0
M  V30 11773 H 1112.2 4.06659 -4.04106 0
M  V30 11774 H 1110.6 3.68664 -4.73505 0
M  V30 11775 H 1111.67 2.36525 -4.23301 0
M  V30 11776 N 1113.01 1.29761 0.894412 0
M  V30 11777 C 1113.94 1.17902 2.01547 0
M  V30 11778 C 1114.92 0.0719402 1.69948 0
M  V30 11779 O 1116.11 0.252338 1.92554 0
M  V30 11780 C 1113.24 0.860262 3.36477 0
M  V30 11781 C 1112.19 1.92424 3.82305 0
M  V30 11782 C 1111.52 1.45868 5.14419 0
M  V30 11783 C 1112.82 3.33391 4.02054 0
M  V30 11784 H 1114.51 2.11688 2.11727 0
M  V30 11785 H 1112.06 1.01916 1.01731 0
M  V30 11786 H 1114.01 0.763987 4.14417 0
M  V30 11787 H 1112.73 -0.113289 3.26403 0
M  V30 11788 H 1111.39 2.00999 3.06586 0
M  V30 11789 H 1111.04 0.473654 5.00765 0
M  V30 11790 H 1110.74 2.17028 5.46052 0
M  V30 11791 H 1112.26 1.37601 5.94894 0
M  V30 11792 H 1113.68 3.27628 4.7046 0
M  V30 11793 H 1112.07 4.02555 4.4505 0
M  V30 11794 H 1113.14 3.75978 3.06216 0
M  V30 11795 N 1114.49 -1.10549 1.12324 0
M  V30 11796 C 1115.73 -1.82755 0.879117 0
M  V30 11797 C 1116.07 -1.84905 -0.593604 0
M  V30 11798 O 1115.34 -1.30884 -1.43873 0
M  V30 11799 C 1115.62 -3.29481 1.45308 0
M  V30 11800 C 1115.48 -3.3567 2.99408 0
M  V30 11801 C 1116.8 -4.25828 1.11167 0
M  V30 11802 H 1113.92 -0.663513 0.32081 0
M  V30 11803 H 1116.56 -1.29572 1.38965 0
M  V30 11804 H 1114.71 -3.74902 1.01887 0
M  V30 11805 H 1116.38 -2.98739 3.515 0
M  V30 11806 H 1114.62 -2.75606 3.34998 0
M  V30 11807 H 1115.29 -4.38983 3.34661 0
M  V30 11808 H 1117.77 -3.88635 1.48667 0
M  V30 11809 H 1116.65 -5.26857 1.53991 0
M  V30 11810 H 1116.91 -4.42094 0.0237046 0
M  V30 11811 N 1115.97 -0.914965 -1.28321 0
M  V30 11812 C 1116.9 -0.348729 -2.2552 0
M  V30 11813 C 1117.88 0.547737 -1.53097 0
M  V30 11814 O 1119.06 0.491119 -1.8199 0
M  V30 11815 C 1116.19 0.501397 -3.34968 0
M  V30 11816 C 1115.23 -0.329859 -4.25223 0
M  V30 11817 S 1116.07 -1.73737 -5.06533 0
M  V30 11818 C 1117.22 -0.89458 -6.19474 0
M  V30 11819 H 1117.46 -1.17256 -2.732 0
M  V30 11820 H 1114.99 -0.716297 -1.36779 0
M  V30 11821 H 1116.95 0.986061 -3.98481 0
M  V30 11822 H 1115.61 1.29962 -2.85952 0
M  V30 11823 H 1114.8 0.320236 -5.02982 0
M  V30 11824 H 1114.4 -0.748221 -3.66439 0
M  V30 11825 H 1116.69 -0.124776 -6.77385 0
M  V30 11826 H 1117.64 -1.64475 -6.88733 0
M  V30 11827 H 1118.05 -0.442217 -5.62765 0
M  V30 11828 N 1117.44 1.42219 -0.679077 0
M  V30 11829 C 1118.72 1.95155 -0.13188 0
M  V30 11830 C 1119.1 1.6193 1.35433 0
M  V30 11831 O 1118.45 0.917672 2.09263 0
M  V30 11832 C 1118.66 3.46635 -0.405578 0
M  V30 11833 C 1120.01 4.23359 -0.324394 0
M  V30 11834 O 1121.03 3.54578 -0.339564 0
M  V30 11835 O 1119.89 5.45831 -0.270268 0
M  V30 11836 H 1116.98 0.826983 -0.00535438 0
M  V30 11837 H 1119.53 1.52024 -0.754101 0
M  V30 11838 H 1118.3 3.6404 -1.43495 0
M  V30 11839 H 1117.92 3.96823 0.248439 0
M  V30 11840 N 1118.92 0.422693 1.51826 0
M  V30 11841 C 1120.2 -0.20786 1.94492 0
M  V30 11842 C 1120.58 -1.61414 1.36047 0
M  V30 11843 O 1119.93 -2.21987 0.541657 0
M  V30 11844 C 1120.14 -0.200457 3.48424 0
M  V30 11845 C 1121.48 -0.413199 4.22585 0
M  V30 11846 O 1122.51 -0.27922 3.55104 0
M  V30 11847 O 1121.37 -0.678469 5.42272 0
M  V30 11848 H 1118.46 -0.137851 0.81543 0
M  V30 11849 H 1121.01 0.479617 1.62781 0
M  V30 11850 H 1119.78 0.783263 3.83381 0
M  V30 11851 H 1119.4 -0.931464 3.86535 0
M  V30 11852 N 1120.4 -1.5685 0.153553 0
M  V30 11853 C 1121.65 -1.96625 -0.49665 0
M  V30 11854 C 1121.98 -1.03877 -1.64083 0
M  V30 11855 O 1121.25 -0.0824112 -1.94325 0
M  V30 11856 C 1121.54 -3.46035 -0.996585 0
M  V30 11857 C 1121.39 -4.49561 0.146551 0
M  V30 11858 C 1122.71 -3.98104 -1.8762 0
M  V30 11859 H 1119.83 -0.714917 -0.179059 0
M  V30 11860 H 1122.47 -1.88527 0.236104 0
M  V30 11861 H 1120.62 -3.53066 -1.621 0
M  V30 11862 H 1122.29 -4.54604 0.783108 0
M  V30 11863 H 1120.53 -4.26271 0.804727 0
M  V30 11864 H 1121.21 -5.51456 -0.245078 0
M  V30 11865 H 1123.68 -3.93593 -1.34997 0
M  V30 11866 H 1122.56 -5.03098 -2.19508 0
M  V30 11867 H 1122.82 -3.40852 -2.81554 0
M  V30 11868 N 1121.88 0.120221 -1.57141 0
M  V30 11869 C 1123.13 0.826586 -1.84423 0
M  V30 11870 C 1123.45 1.80473 -0.738553 0
M  V30 11871 O 1122.72 1.94454 0.23755 0
M  V30 11872 H 1121.3 0.308246 -0.680436 0
M  V30 11873 H 1123.96 0.107835 -1.94601 0
M  V30 11874 H 1123.05 1.37256 -2.80298 0
M  V30 11875 N 1123.36 1.52689 0.390367 0
M  V30 11876 C 1124.29 1.73622 1.49626 0
M  V30 11877 C 1125.3 0.616682 1.50668 0
M  V30 11878 O 1126.49 0.892341 1.54595 0
M  V30 11879 C 1123.59 1.77859 2.88477 0
M  V30 11880 C 1122.76 3.07146 3.11416 0
M  V30 11881 C 1121.82 3.02949 4.30242 0
M  V30 11882 O 1120.85 3.76816 4.26613 0
M  V30 11883 N 1122.05 2.22039 5.36357 0
M  V30 11884 H 1124.82 2.69037 1.32057 0
M  V30 11885 H 1122.38 1.51159 0.579867 0
M  V30 11886 H 1124.37 1.72559 3.66067 0
M  V30 11887 H 1122.94 0.898367 2.99413 0
M  V30 11888 H 1122.16 3.25947 2.21703 0
M  V30 11889 H 1123.45 3.92637 3.23595 0
M  V30 11890 H 1122.84 1.6149 5.4216 0
M  V30 11891 H 1121.4 2.2258 6.12619 0
M  V30 11892 N 1124.83 -0.648732 1.43629 0
M  V30 11893 C 1126.08 -1.40446 1.44768 0
M  V30 11894 C 1126.4 -1.95447 0.0773445 0
M  V30 11895 O 1127.6 -2.71479 -0.0337942 0
M  V30 11896 C 1126.06 -2.54194 2.54781 0
M  V30 11897 C 1125.67 -2.05781 3.97942 0
M  V30 11898 C 1127.41 -3.31529 2.65121 0
M  V30 11899 C 1125.32 -3.16767 4.99412 0
M  V30 11900 H 1124.25 -0.527717 0.538545 0
M  V30 11901 H 1126.9 -0.699756 1.69634 0
M  V30 11902 H 1125.28 -3.27156 2.23125 0
M  V30 11903 H 1126.45 -1.398 4.39081 0
M  V30 11904 H 1124.77 -1.41312 3.91688 0
M  V30 11905 H 1127.37 -4.14233 3.38105 0
M  V30 11906 H 1127.71 -3.79855 1.70341 0
M  V30 11907 H 1128.24 -2.65649 2.961 0
M  V30 11908 H 1124.98 -2.73404 5.9576 0
M  V30 11909 H 1124.5 -3.81445 4.62882 0
M  V30 11910 H 1126.18 -3.81827 5.22319 0
M  V30 11911 N 1126.31 -1.30234 -0.887518 0
M  V30 11912 C 1127.28 -1.16384 -1.97452 0
M  V30 11913 C 1128.28 -0.0957942 -1.60514 0
M  V30 11914 O 1129.47 -0.343706 -1.70776 0
M  V30 11915 C 1126.6 -0.782514 -3.31797 0
M  V30 11916 H 1127.79 -2.12952 -2.11167 0
M  V30 11917 H 1125.34 -1.13594 -1.07359 0
M  V30 11918 H 1126.08 0.18278 -3.23785 0
M  V30 11919 H 1125.86 -1.55434 -3.59976 0
M  V30 11920 H 1127.35 -0.709011 -4.11537 0
M  V30 11921 N 1127.79 1.09952 -1.12909 0
M  V30 11922 C 1129.02 1.8579 -0.910483 0
M  V30 11923 C 1129.43 1.80898 0.540484 0
M  V30 11924 O 1128.79 1.20126 1.3739 0
M  V30 11925 C 1128.84 3.33987 -1.38329 0
M  V30 11926 O 1128.56 3.38811 -2.77739 0
M  V30 11927 C 1130.06 4.26683 -1.20234 0
M  V30 11928 H 1127.28 0.587026 -0.325025 0
M  V30 11929 H 1129.83 1.38965 -1.5003 0
M  V30 11930 H 1127.98 3.78259 -0.836592 0
M  V30 11931 H 1128.4 4.31204 -2.98603 0
M  V30 11932 H 1129.87 5.28846 -1.58197 0
M  V30 11933 H 1130.35 4.38966 -0.14344 0
M  V30 11934 H 1130.95 3.88221 -1.73679 0
M  V30 11935 N 1129.27 0.921757 1.27833 0
M  V30 11936 C 1130.51 0.559906 1.94918 0
M  V30 11937 C 1130.85 -0.895532 1.72319 0
M  V30 11938 O 1130.12 -1.638 1.04879 0
M  V30 11939 C 1130.41 0.879458 3.49196 0
M  V30 11940 C 1130.26 2.38821 3.81162 0
M  V30 11941 C 1131.58 0.381183 4.38446 0
M  V30 11942 H 1128.7 0.204893 0.707946 0
M  V30 11943 H 1131.34 1.15246 1.51058 0
M  V30 11944 H 1129.49 0.375177 3.86684 0
M  V30 11945 H 1131.16 2.96373 3.53498 0
M  V30 11946 H 1129.4 2.83988 3.27923 0
M  V30 11947 H 1130.07 2.56234 4.88926 0
M  V30 11948 H 1132.55 0.813289 4.08075 0
M  V30 11949 H 1131.43 0.633778 5.45229 0
M  V30 11950 H 1131.69 -0.718651 4.3622 0
M  V30 11951 N 1130.75 -1.41857 0.686609 0
M  V30 11952 C 1131.69 -2.30795 0.015643 0
M  V30 11953 C 1132.66 -1.46616 -0.780569 0
M  V30 11954 O 1133.85 -1.75423 -0.750424 0
M  V30 11955 C 1130.99 -3.32577 -0.921229 0
M  V30 11956 C 1130.1 -4.3184 -0.117585 0
M  V30 11957 C 1129.24 -5.20693 -1.05128 0
M  V30 11958 C 1128.28 -6.11629 -0.240018 0
M  V30 11959 N 1127.41 -6.92995 -1.12704 0
M  V30 11960 H 1132.25 -2.87615 0.77985 0
M  V30 11961 H 1129.79 -1.41661 0.396298 0
M  V30 11962 H 1131.75 -3.90129 -1.47836 0
M  V30 11963 H 1130.38 -2.77328 -1.65193 0
M  V30 11964 H 1129.43 -3.7631 0.55634 0
M  V30 11965 H 1130.74 -4.96168 0.511753 0
M  V30 11966 H 1129.9 -5.83035 -1.67795 0
M  V30 11967 H 1128.63 -4.5657 -1.71449 0
M  V30 11968 H 1127.64 -5.48345 0.399779 0
M  V30 11969 H 1128.86 -6.77805 0.419266 0
M  V30 11970 H 1126.81 -6.31489 -1.77644 0
M  V30 11971 H 1126.73 -7.53974 -0.553065 0
M  V30 11972 H 1128 -7.59813 -1.7408 0
M  V30 11973 N 1132.22 -0.430739 -1.51599 0
M  V30 11974 C 1133.47 0.137929 -2.0203 0
M  V30 11975 C 1133.8 1.43287 -1.31526 0
M  V30 11976 O 1133.05 1.9121 -0.416814 0
M  V30 11977 C 1133.35 0.410694 -3.55032 0
M  V30 11978 C 1133.02 -0.797634 -4.43789 0
M  V30 11979 C 1131.68 -1.12902 -4.67768 0
M  V30 11980 C 1134.03 -1.60403 -4.95904 0
M  V30 11981 C 1131.36 -2.2676 -5.41107 0
M  V30 11982 C 1133.71 -2.73354 -5.70491 0
M  V30 11983 C 1132.38 -3.06955 -5.92735 0
M  V30 11984 H 1131.65 0.0504718 -0.739279 0
M  V30 11985 H 1134.29 -0.576585 -1.82614 0
M  V30 11986 H 1132.6 1.20703 -3.72744 0
M  V30 11987 H 1134.3 0.864006 -3.91581 0
M  V30 11988 H 1130.89 -0.529397 -4.25318 0
M  V30 11989 H 1135.07 -1.36122 -4.77268 0
M  V30 11990 H 1130.33 -2.53114 -5.56546 0
M  V30 11991 H 1134.5 -3.36213 -6.09864 0
M  V30 11992 H 1132.13 -3.95293 -6.49344 0
M  V30 11993 N 1133.7 1.56767 -0.161869 0
M  V30 11994 C 1134.95 1.96885 0.486215 0
M  V30 11995 C 1135.28 1.04745 1.6353 0
M  V30 11996 O 1134.56 0.0927156 1.94279 0
M  V30 11997 C 1134.84 3.46559 0.97822 0
M  V30 11998 C 1134.69 4.49477 -0.17039 0
M  V30 11999 C 1136.01 3.99093 1.85506 0
M  V30 12000 H 1133.13 0.715857 0.175265 0
M  V30 12001 H 1135.77 1.88399 -0.246098 0
M  V30 12002 H 1133.92 3.53921 1.60225 0
M  V30 12003 H 1135.59 4.54183 -0.807205 0
M  V30 12004 H 1133.84 4.25838 -0.827322 0
M  V30 12005 H 1134.51 5.51578 0.21583 0
M  V30 12006 H 1136.98 3.94303 1.32908 0
M  V30 12007 H 1135.86 5.04255 2.16837 0
M  V30 12008 H 1136.12 3.4234 2.79742 0
M  V30 12009 N 1135.18 -0.111886 1.57202 0
M  V30 12010 C 1136.11 -1.16749 1.96074 0
M  V30 12011 C 1137.09 -1.39735 0.831438 0
M  V30 12012 O 1138.28 -1.53772 1.09025 0
M  V30 12013 C 1135.4 -2.51996 2.26308 0
M  V30 12014 C 1134.45 -2.45394 3.48832 0
M  V30 12015 S 1135.28 -1.8867 5.01163 0
M  V30 12016 C 1136.44 -3.25576 5.34557 0
M  V30 12017 H 1136.67 -0.836033 2.85303 0
M  V30 12018 H 1134.2 -0.318922 1.5107 0
M  V30 12019 H 1136.16 -3.29813 2.44405 0
M  V30 12020 H 1134.82 -2.82317 1.3768 0
M  V30 12021 H 1134.02 -3.45038 3.67376 0
M  V30 12022 H 1133.62 -1.75702 3.30159 0
M  V30 12023 H 1135.91 -4.21807 5.30174 0
M  V30 12024 H 1136.85 -3.11853 6.35731 0
M  V30 12025 H 1137.26 -3.24333 4.62026 0
M  V30 12026 N 1136.66 -1.52894 -0.382264 0
M  V30 12027 C 1137.59 -1.74413 -1.48703 0
M  V30 12028 C 1138.6 -0.624663 -1.50339 0
M  V30 12029 O 1139.79 -0.900527 -1.54119 0
M  V30 12030 C 1136.89 -1.79387 -2.8753 0
M  V30 12031 C 1136.07 -3.08794 -3.09783 0
M  V30 12032 C 1135.12 -3.05226 -4.2863 0
M  V30 12033 O 1134.15 -3.79073 -4.24609 0
M  V30 12034 N 1135.35 -2.2488 -5.35172 0
M  V30 12035 H 1138.12 -2.69734 -1.30628 0
M  V30 12036 H 1135.68 -1.51465 -0.571842 0
M  V30 12037 H 1137.67 -1.74498 -3.65147 0
M  V30 12038 H 1136.24 -0.914233 -2.98932 0
M  V30 12039 H 1135.46 -3.27118 -2.19971 0
M  V30 12040 H 1136.75 -3.94347 -3.21509 0
M  V30 12041 H 1136.15 -1.64363 -5.41296 0
M  V30 12042 H 1134.7 -2.25825 -6.1143 0
M  V30 12043 O 1138.18 0.528217 -1.52618 0
M  V30 12044 H 1138.87 1.18332 -1.53353 0
M  V30 END ATOM
M  V30 BEGIN BOND
M  V30 END BOND
M  V30 END CTAB
M  END
$$$$
