drugbank_target|P78536 Disintegrin and metalloproteinase domain-containing protein 17 (DB06943; DB07079; DB07121; DB07145; DB07147; DB07189; DB07233; DB07964)
 OpenBabel12092120383D

  0  0  0     0  0            999 V3000
M  V30 BEGIN CTAB
M  V30 COUNTS 12851 12990 0 0 0
M  V30 BEGIN ATOM
M  V30 1 H -0.908 1.98254 -0.117106 0
M  V30 2 N 0 1.576 0 0
M  V30 3 C 0.933 2.03868 1.02534 0
M  V30 4 C 1.911 0.928543 1.3348 0
M  V30 5 O 3.095 1.19667 1.45644 0
M  V30 6 C 0.222 2.43627 2.35294 0
M  V30 7 C -0.732 3.65373 2.2001 0
M  V30 8 S 0.101 5.13292 1.52614 0
M  V30 9 C 1.257 5.56322 2.86805 0
M  V30 10 H 1.49 2.90518 0.631377 0
M  V30 11 H -0.977 1.52953 0.210867 0
M  V30 12 H 0.981 2.67203 3.11629 0
M  V30 13 H -0.358 1.57376 2.7183 0
M  V30 14 H -1.165 3.90944 3.18086 0
M  V30 15 H -1.563 3.418 1.51819 0
M  V30 16 H 0.729 5.58782 3.83104 0
M  V30 17 H 1.672 6.56266 2.65933 0
M  V30 18 H 2.08 4.83886 2.90714 0
M  V30 19 N 1.4781 -0.272755 1.55222 0
M  V30 20 C 2.8941 -0.619959 1.47067 0
M  V30 21 C 3.0941 -1.895 0.684978 0
M  V30 22 O 2.1501 -2.51675 0.203931 0
M  V30 23 C 3.4631 -0.746693 2.91282 0
M  V30 24 C 5.0111 -0.840731 3.01497 0
M  V30 25 C 5.4861 -0.99924 4.46967 0
M  V30 26 N 6.9771 -1.06476 4.50796 0
M  V30 27 C 7.7121 -1.20621 5.6057 0
M  V30 28 N 7.2081 -1.31483 6.80209 0
M  V30 29 N 9.0011 -1.23733 5.48312 0
M  V30 30 H 1.1521 0.564606 2.04758 0
M  V30 31 H 3.4151 0.191177 0.928523 0
M  V30 32 H 3.1211 0.119753 3.51496 0
M  V30 33 H 2.9951 -1.6269 3.40311 0
M  V30 34 H 5.3821 -1.69764 2.41379 0
M  V30 35 H 5.4631 0.0640874 2.5572 0
M  V30 36 H 5.1071 -0.146984 5.07687 0
M  V30 37 H 5.0371 -1.91871 4.90401 0
M  V30 38 H 7.5281 -0.993196 3.64615 0
M  V30 39 H 7.8411 -1.42111 7.59621 0
M  V30 40 H 6.1861 -1.28487 6.8302 0
M  V30 41 H 9.3771 -1.14877 4.53785 0
M  V30 42 H 9.5501 -1.34412 6.33906 0
M  V30 43 N 2.9562 -1.48159 -0.537278 0
M  V30 44 C 3.8882 -1.58218 -1.65831 0
M  V30 45 C 4.9012 -0.466948 -1.5596 0
M  V30 46 O 6.0902 -0.73747 -1.62553 0
M  V30 47 C 3.1902 -1.48906 -3.04434 0
M  V30 48 C 2.3632 -2.75343 -3.3986 0
M  V30 49 C 1.4222 -2.59588 -4.57712 0
M  V30 50 O 0.4482 -3.33457 -4.61297 0
M  V30 51 N 1.6502 -1.68724 -5.55439 0
M  V30 52 H 4.4152 -2.54891 -1.57641 0
M  V30 53 H 1.9762 -1.4479 -0.724386 0
M  V30 54 H 3.9682 -1.36072 -3.81139 0
M  V30 55 H 2.5382 -0.602368 -3.06741 0
M  V30 56 H 1.7582 -3.02795 -2.52406 0
M  V30 57 H 3.0462 -3.5924 -3.60311 0
M  V30 58 H 2.4442 -1.07898 -5.55315 0
M  V30 59 H 1.0012 -1.61832 -6.3139 0
M  V30 60 N 4.4343 0.785586 -1.36625 0
M  V30 61 C 5.6593 1.57963 -1.34397 0
M  V30 62 C 6.0843 1.87964 0.071526 0
M  V30 63 O 5.4423 1.48182 1.0446 0
M  V30 64 C 5.4903 2.87511 -2.17646 0
M  V30 65 O 4.5943 3.81281 -1.57158 0
M  V30 66 H 3.9353 0.479014 -0.459828 0
M  V30 67 H 6.4653 0.973411 -1.79961 0
M  V30 68 H 6.4753 3.36745 -2.30362 0
M  V30 69 H 5.1503 2.65002 -3.20541 0
M  V30 70 H 3.7273 3.39885 -1.53403 0
M  V30 71 N 5.9124 1.20967 1.01018 0
M  V30 72 C 6.8424 0.988272 2.11555 0
M  V30 73 C 7.8234 -0.0849778 1.69888 0
M  V30 74 O 9.0084 0.0738202 1.9406 0
M  V30 75 C 6.1384 0.546528 3.42973 0
M  V30 76 C 5.0924 1.56375 3.9841 0
M  V30 77 C 4.4184 0.97842 5.25672 0
M  V30 78 C 5.7184 2.94922 4.31066 0
M  V30 79 H 7.4124 1.91276 2.30334 0
M  V30 80 H 4.9584 0.921073 1.1069 0
M  V30 81 H 6.9114 0.378839 4.19694 0
M  V30 82 H 5.6354 -0.413598 3.23971 0
M  V30 83 H 4.2944 1.71891 3.23804 0
M  V30 84 H 3.9424 0.0101688 5.02999 0
M  V30 85 H 3.6424 1.65784 5.63728 0
M  V30 86 H 5.1664 0.821939 6.05043 0
M  V30 87 H 6.5804 2.8288 4.9865 0
M  V30 88 H 4.9774 3.5983 4.80253 0
M  V30 89 H 6.0474 3.4616 3.39561 0
M  V30 90 N 7.3905 -1.2043 1.01659 0
M  V30 91 C 8.3205 -2.25466 0.607226 0
M  V30 92 C 9.3015 -1.65853 -0.377716 0
M  V30 93 O 10.4865 -1.92409 -0.263149 0
M  V30 94 C 7.6165 -3.47256 -0.0552949 0
M  V30 95 C 6.5705 -4.19462 0.850632 0
M  V30 96 C 5.8965 -5.34673 0.0538859 0
M  V30 97 C 7.1965 -4.75603 2.15868 0
M  V30 98 H 8.8905 -2.59962 1.48526 0
M  V30 99 H 6.4365 -1.2496 0.715605 0
M  V30 100 H 8.3895 -4.19917 -0.353233 0
M  V30 101 H 7.1135 -3.11924 -0.968045 0
M  V30 102 H 5.7725 -3.48667 1.13257 0
M  V30 103 H 5.4205 -4.95585 -0.860514 0
M  V30 104 H 5.1205 -5.83913 0.657192 0
M  V30 105 H 6.6445 -6.10138 -0.237598 0
M  V30 106 H 8.0585 -5.40083 1.92311 0
M  V30 107 H 6.4555 -5.3528 2.71284 0
M  V30 108 H 7.5255 -3.94346 2.82169 0
M  V30 109 N 8.8686 -0.792821 -1.36206 0
M  V30 110 C 10.1156 -0.366786 -1.99151 0
M  V30 111 C 10.4436 1.06243 -1.62919 0
M  V30 112 O 9.6986 1.74927 -0.877442 0
M  V30 113 C 9.9976 -0.481501 -3.54142 0
M  V30 114 C 9.6636 -1.87202 -4.10203 0
M  V30 115 C 8.3256 -2.25248 -4.25226 0
M  V30 116 C 10.6776 -2.78237 -4.40719 0
M  V30 117 C 8.0056 -3.53723 -4.68078 0
M  V30 118 C 10.3576 -4.06144 -4.85005 0
M  V30 119 C 9.0216 -4.44207 -4.98234 0
M  V30 120 H 8.2916 -0.134217 -0.728743 0
M  V30 121 H 10.9386 -1.01094 -1.62641 0
M  V30 122 H 9.2436 0.246146 -3.91026 0
M  V30 123 H 10.9406 -0.132844 -4.0078 0
M  V30 124 H 7.5306 -1.56639 -3.98951 0
M  V30 125 H 11.7146 -2.50097 -4.28679 0
M  V30 126 H 6.9706 -3.8308 -4.76508 0
M  V30 127 H 11.1446 -4.76796 -5.07581 0
M  V30 128 H 8.7716 -5.43814 -5.31197 0
M  V30 129 N 10.3467 1.47872 -0.545128 0
M  V30 130 C 11.2767 2.32661 0.197793 0
M  V30 131 C 12.2577 1.43041 0.920504 0
M  V30 132 O 13.4427 1.71912 0.90333 0
M  V30 133 C 10.5727 3.24569 1.23582 0
M  V30 134 C 9.5267 4.23333 0.630323 0
M  V30 135 C 8.8527 5.0448 1.77211 0
M  V30 136 C 10.1527 5.20704 -0.407974 0
M  V30 137 H 11.8467 2.95024 -0.510045 0
M  V30 138 H 9.3927 1.4187 -0.246731 0
M  V30 139 H 11.3457 3.8272 1.76362 0
M  V30 140 H 10.0697 2.60236 1.97344 0
M  V30 141 H 8.7287 3.6639 0.123922 0
M  V30 142 H 8.3767 4.36561 2.49847 0
M  V30 143 H 8.0767 5.71339 1.37281 0
M  V30 144 H 9.6007 5.65487 2.3034 0
M  V30 145 H 11.0147 5.7329 0.033305 0
M  V30 146 H 9.4117 5.95699 -0.725486 0
M  V30 147 H 10.4817 4.66917 -1.30828 0
M  V30 148 N 11.8248 0.280983 1.55075 0
M  V30 149 C 13.0528 -0.337293 2.04132 0
M  V30 150 C 13.4678 -1.4903 1.15912 0
M  V30 151 O 12.8248 -1.81606 0.180459 0
M  V30 152 C 12.8758 -0.812706 3.52246 0
M  V30 153 O 12.5968 0.294387 4.3711 0
M  V30 154 C 14.0978 -1.4982 4.17216 0
M  V30 155 H 11.3178 -0.0761638 0.666663 0
M  V30 156 H 13.8618 0.414787 2.00249 0
M  V30 157 H 12.0168 -1.51486 3.56554 0
M  V30 158 H 12.4308 -0.0721325 5.2445 0
M  V30 159 H 13.9048 -1.7822 5.22438 0
M  V30 160 H 14.3818 -2.43168 3.65741 0
M  V30 161 H 14.9878 -0.839742 4.16927 0
M  V30 162 N 13.3029 -1.57598 0.00835791 0
M  V30 163 C 14.5279 -1.95617 -0.689103 0
M  V30 164 C 14.9529 -0.883753 -1.66046 0
M  V30 165 O 14.3109 0.157352 -1.80616 0
M  V30 166 C 14.3589 -3.32736 -1.38994 0
M  V30 167 O 13.4629 -3.27631 -2.50463 0
M  V30 168 H 12.8039 -0.638379 -0.182668 0
M  V30 169 H 15.3339 -2.045 0.064036 0
M  V30 170 H 15.3439 -3.68494 -1.75147 0
M  V30 171 H 14.0189 -4.1034 -0.677778 0
M  V30 172 H 12.5959 -3.03561 -2.16576 0
M  V30 173 N 14.781 0.264519 -1.55364 0
M  V30 174 C 16.027 0.99646 -1.76631 0
M  V30 175 C 16.36 1.85632 -0.570478 0
M  V30 176 O 15.635 1.89647 0.43175 0
M  V30 177 C 15.918 1.87187 -3.07625 0
M  V30 178 C 15.771 1.04138 -4.37579 0
M  V30 179 C 17.09 2.85749 -3.34717 0
M  V30 180 H 14.209 0.360841 -0.642622 0
M  V30 181 H 16.851 0.268218 -1.88097 0
M  V30 182 H 15.001 2.49279 -2.9798 0
M  V30 183 H 16.673 0.440517 -4.59192 0
M  V30 184 H 14.916 0.345115 -4.32425 0
M  V30 185 H 15.587 1.68729 -5.2558 0
M  V30 186 H 18.063 2.33793 -3.4421 0
M  V30 187 H 16.939 3.44136 -4.27623 0
M  V30 188 H 17.2 3.61311 -2.54768 0
M  V30 189 N 16.2591 1.48442 0.529413 0
M  V30 190 C 17.5051 1.5672 1.28711 0
M  V30 191 C 17.8381 0.2406 1.92704 0
M  V30 192 O 17.1131 -0.753454 1.79313 0
M  V30 193 C 17.3961 2.70587 2.37603 0
M  V30 194 C 17.2491 4.12953 1.78297 0
M  V30 195 C 18.5681 2.80212 3.39366 0
M  V30 196 H 15.6871 0.570474 0.466613 0
M  V30 197 H 18.3291 1.80617 0.589706 0
M  V30 198 H 16.4791 2.50342 2.97088 0
M  V30 199 H 18.1511 4.44639 1.22858 0
M  V30 200 H 16.3941 4.19927 1.0883 0
M  V30 201 H 17.0651 4.88448 2.57144 0
M  V30 202 H 19.5411 2.98553 2.89836 0
M  V30 203 H 18.4171 3.61611 4.12951 0
M  V30 204 H 18.6781 1.88393 3.99951 0
M  V30 205 N 17.7372 -0.778329 1.37039 0
M  V30 206 C 19.1482 -1.35421 1.28523 0
M  V30 207 C 19.4992 -1.96075 -0.0700901 0
M  V30 208 O 18.6242 -1.93352 -0.971801 0
M  V30 209 C 19.2192 -2.46211 2.32735 0
M  V30 210 C 17.7782 -2.99585 2.27873 0
M  V30 211 C 16.9252 -1.72748 2.16918 0
M  V30 212 H 19.8762 -0.5791 1.47757 0
M  V30 213 H 19.8972 -3.2552 1.9702 0
M  V30 214 H 19.4092 -2.02036 3.31365 0
M  V30 215 H 17.5102 -3.48152 1.32745 0
M  V30 216 H 17.6232 -3.55646 3.21018 0
M  V30 217 H 15.9872 -1.95416 1.63354 0
M  V30 218 H 16.7702 -1.30686 3.17452 0
M  V30 219 N 19.2153 -1.21501 -1.00376 0
M  V30 220 C 20.4623 -1.03299 -1.74171 0
M  V30 221 C 20.7903 0.433326 -1.89612 0
M  V30 222 O 20.0453 1.33779 -1.42834 0
M  V30 223 C 20.3443 -1.67673 -3.15627 0
M  V30 224 C 20.0103 -3.17533 -3.2013 0
M  V30 225 C 18.6723 -3.58427 -3.21067 0
M  V30 226 C 21.0243 -4.13504 -3.17275 0
M  V30 227 C 18.3523 -4.93794 -3.16835 0
M  V30 228 C 20.7043 -5.48834 -3.14585 0
M  V30 229 C 19.3683 -5.89123 -3.13831 0
M  V30 230 H 18.6383 -0.377999 -0.637336 0
M  V30 231 H 21.2853 -1.51111 -1.17634 0
M  V30 232 H 19.5903 -1.12158 -3.75404 0
M  V30 233 H 21.2873 -1.51091 -3.71446 0
M  V30 234 H 17.8773 -2.84965 -3.20145 0
M  V30 235 H 22.0613 -3.82936 -3.15711 0
M  V30 236 H 17.3173 -5.24255 -3.1459 0
M  V30 237 H 21.4913 -6.22934 -3.1133 0
M  V30 238 H 19.1183 -6.93984 -3.10307 0
M  V30 239 N 20.6934 1.19889 -1.02296 0
M  V30 240 C 21.9394 1.89701 -0.717033 0
M  V30 241 C 22.2724 1.7905 0.751989 0
M  V30 242 O 21.5474 1.17891 1.547 0
M  V30 243 C 21.8304 3.40858 -1.16136 0
M  V30 244 C 21.6834 3.60411 -2.69117 0
M  V30 245 C 23.0024 4.33876 -0.737549 0
M  V30 246 H 20.1214 0.688874 -0.261957 0
M  V30 247 H 22.7634 1.41154 -1.27183 0
M  V30 248 H 20.9134 3.82335 -0.689342 0
M  V30 249 H 22.5854 3.28145 -3.2422 0
M  V30 250 H 20.8284 3.03665 -3.0979 0
M  V30 251 H 21.4994 4.66396 -2.95261 0
M  V30 252 H 23.9754 4.00081 -1.14344 0
M  V30 253 H 22.8514 5.38242 -1.0764 0
M  V30 254 H 23.1124 4.40628 0.360436 0
M  V30 255 N 22.1715 0.800033 1.35784 0
M  V30 256 C 23.1015 0.220184 2.3246 0
M  V30 257 C 24.0825 -0.65073 1.57161 0
M  V30 258 O 25.2675 -0.582359 1.85263 0
M  V30 259 C 22.3975 -0.637353 3.41402 0
M  V30 260 C 21.3515 0.134531 4.27789 0
M  V30 261 C 20.6775 -0.844285 5.27992 0
M  V30 262 C 21.9775 1.32979 5.05088 0
M  V30 263 H 23.6715 1.02787 2.81203 0
M  V30 264 H 21.2175 0.495717 1.35199 0
M  V30 265 H 23.1705 -1.05302 4.08031 0
M  V30 266 H 21.8945 -1.47785 2.91251 0
M  V30 267 H 20.5535 0.531296 3.6273 0
M  V30 268 H 20.2015 -1.68011 4.74111 0
M  V30 269 H 19.9015 -0.332184 5.8666 0
M  V30 270 H 21.4255 -1.2583 5.97494 0
M  V30 271 H 22.8395 0.98934 5.64699 0
M  V30 272 H 21.2365 1.77593 5.7322 0
M  V30 273 H 22.3065 2.11978 4.36111 0
M  V30 274 N 23.6496 -1.47581 0.552962 0
M  V30 275 C 24.6126 -2.28439 -0.186605 0
M  V30 276 C 25.6126 -1.36706 -0.84665 0
M  V30 277 O 26.8026 -1.59378 -0.703164 0
M  V30 278 C 23.9346 -3.16264 -1.2724 0
M  V30 279 H 25.1276 -2.95294 0.523609 0
M  V30 280 H 22.6806 -1.532 0.309745 0
M  V30 281 H 23.4156 -2.54091 -2.01514 0
M  V30 282 H 23.2006 -3.83769 -0.803968 0
M  V30 283 H 24.6906 -3.77198 -1.79196 0
M  V30 284 N 25.1277 -0.289203 -1.54924 0
M  V30 285 C 26.5387 0.205791 -1.85562 0
M  V30 286 C 26.8897 1.54351 -1.2112 0
M  V30 287 O 26.0147 2.10435 -0.504601 0
M  V30 288 C 26.6097 0.380177 -3.3666 0
M  V30 289 C 25.1687 0.819395 -3.67373 0
M  V30 290 C 24.3157 -0.079159 -2.77187 0
M  V30 291 H 27.2667 -0.510577 -1.50262 0
M  V30 292 H 27.2877 1.21659 -3.60526 0
M  V30 293 H 26.7997 -0.593589 -3.83534 0
M  V30 294 H 24.9007 1.80413 -3.26009 0
M  V30 295 H 25.0137 0.646957 -4.74712 0
M  V30 296 H 23.3777 0.439565 -2.50878 0
M  V30 297 H 24.1607 -1.04906 -3.26878 0
M  V30 298 N 26.6058 1.57591 -0.0167156 0
M  V30 299 C 28.0218 1.55946 0.339557 0
M  V30 300 C 28.2218 1.02109 1.73713 0
M  V30 301 O 27.2778 0.662303 2.43659 0
M  V30 302 C 28.5908 3.00037 0.199499 0
M  V30 303 C 30.1388 3.11805 0.273193 0
M  V30 304 C 30.6138 4.57713 0.162068 0
M  V30 305 N 32.1048 4.6268 0.219444 0
M  V30 306 C 32.8398 5.73185 0.157054 0
M  V30 307 N 32.3358 6.92786 0.0442936 0
M  V30 308 N 34.1288 5.61707 0.21014 0
M  V30 309 H 26.2798 1.90921 -0.930758 0
M  V30 310 H 28.5428 0.877674 -0.358319 0
M  V30 311 H 28.2488 3.4333 -0.76273 0
M  V30 312 H 28.1228 3.64387 0.974786 0
M  V30 313 H 30.5098 2.68433 1.22587 0
M  V30 314 H 30.5908 2.50201 -0.532256 0
M  V30 315 H 30.2348 5.01763 -0.78714 0
M  V30 316 H 30.1648 5.17283 0.986222 0
M  V30 317 H 32.6558 3.76649 0.307246 0
M  V30 318 H 32.9688 7.728 0.00304069 0
M  V30 319 H 31.3138 6.94999 0.00968457 0
M  V30 320 H 34.5048 4.6716 0.296546 0
M  V30 321 H 34.6778 6.47807 0.158054 0
M  V30 322 N 28.0839 -0.256276 1.55502 0
M  V30 323 C 29.4949 -0.826068 1.67431 0
M  V30 324 C 29.8459 -1.86396 0.612446 0
M  V30 325 O 28.9709 -2.15031 -0.243025 0
M  V30 326 C 29.5659 -1.50512 3.03532 0
M  V30 327 C 28.1249 -2.02273 3.17431 0
M  V30 328 C 27.2719 -0.870548 2.63281 0
M  V30 329 H 30.2229 -0.0322728 1.58667 0
M  V30 330 H 30.2439 -2.37279 2.97454 0
M  V30 331 H 29.7559 -0.749484 3.80794 0
M  V30 332 H 27.8569 -2.80746 2.44974 0
M  V30 333 H 27.9699 -2.22655 4.24219 0
M  V30 334 H 26.3339 -1.26851 2.20864 0
M  V30 335 H 27.1169 -0.128149 3.43061 0
M  V30 336 N 29.562 -1.4872 -0.521534 0
M  V30 337 C 30.973 -1.50607 -1.10337 0
M  V30 338 C 31.324 -0.280612 -1.94183 0
M  V30 339 O 30.449 0.611507 -2.0758 0
M  V30 340 C 31.044 -2.72903 -2.00772 0
M  V30 341 C 29.603 -2.77634 -2.54158 0
M  V30 342 C 28.75 -2.44241 -1.31307 0
M  V30 343 H 31.701 -1.55714 -0.306388 0
M  V30 344 H 31.722 -2.519 -2.85178 0
M  V30 345 H 31.234 -3.62077 -1.39721 0
M  V30 346 H 29.335 -1.92689 -3.18907 0
M  V30 347 H 29.448 -3.79283 -2.92714 0
M  V30 348 H 27.812 -1.95577 -1.63161 0
M  V30 349 H 28.595 -3.35666 -0.719943 0
M  V30 350 N 31.0401 0.771051 -1.3745 0
M  V30 351 C 32.3171 1.519 -1.23231 0
M  V30 352 C 32.6971 2.10383 0.173809 0
M  V30 353 O 32.0451 1.95583 1.18151 0
M  V30 354 C 32.2551 2.59933 -2.32886 0
M  V30 355 C 33.6031 3.27316 -2.70461 0
M  V30 356 O 34.6271 2.70228 -2.32068 0
M  V30 357 O 33.4861 4.30531 -3.36608 0
M  V30 358 H 30.5801 0.672803 -0.480901 0
M  V30 359 H 33.1261 0.807957 -1.49232 0
M  V30 360 H 31.8981 2.14842 -3.27045 0
M  V30 361 H 31.5211 3.38637 -2.08353 0
M  V30 362 N 32.5182 1.22032 0.997298 0
M  V30 363 C 33.7952 0.950823 1.70935 0
M  V30 364 C 34.1752 -0.535292 2.042 0
M  V30 365 O 33.5232 -1.50217 1.72183 0
M  V30 366 C 33.7332 1.84386 2.96315 0
M  V30 367 C 35.0812 2.09732 3.69185 0
M  V30 368 O 36.1052 1.81798 3.06314 0
M  V30 369 O 34.9642 2.57018 4.82291 0
M  V30 370 H 32.0582 0.357204 0.745878 0
M  V30 371 H 34.6042 1.32997 1.05404 0
M  V30 372 H 33.3762 2.84928 2.68201 0
M  V30 373 H 32.9992 1.46602 3.69586 0
M  V30 374 N 33.9963 -1.19345 1.0293 0
M  V30 375 C 35.4073 -1.70725 0.755633 0
M  V30 376 C 35.7583 -1.82326 -0.724676 0
M  V30 377 O 34.8833 -1.49471 -1.56484 0
M  V30 378 C 35.4783 -3.10084 1.36503 0
M  V30 379 C 34.0373 -3.58723 1.13994 0
M  V30 380 C 33.1843 -2.35577 1.46283 0
M  V30 381 H 36.1353 -1.0418 1.19718 0
M  V30 382 H 36.1563 -3.72787 0.762217 0
M  V30 383 H 35.6683 -3.01609 2.44241 0
M  V30 384 H 33.7693 -3.72512 0.0807901 0
M  V30 385 H 33.8823 -4.42816 1.82894 0
M  V30 386 H 32.2463 -2.38935 0.88217 0
M  V30 387 H 33.0293 -2.29731 2.55105 0
M  V30 388 N 35.4744 -0.807222 -1.35358 0
M  V30 389 C 36.7224 -0.387122 -1.98358 0
M  V30 390 C 37.0434 1.04942 -1.64354 0
M  V30 391 O 36.3134 1.72615 -0.926339 0
M  V30 392 H 34.8934 -0.140154 -0.733734 0
M  V30 393 H 37.5554 -1.0332 -1.6526 0
M  V30 394 H 36.6514 -0.493352 -3.08176 0
M  V30 395 N 36.9525 1.47285 -0.560781 0
M  V30 396 C 38.1995 2.02464 -0.038062 0
M  V30 397 C 38.5275 1.43474 1.31322 0
M  V30 398 O 37.7825 0.581311 1.86867 0
M  V30 399 C 38.0815 3.57258 0.100784 0
M  V30 400 C 37.7475 4.35184 -1.18007 0
M  V30 401 C 36.4095 4.56194 -1.53103 0
M  V30 402 C 38.7615 4.80098 -2.02867 0
M  V30 403 C 36.0895 5.19367 -2.729 0
M  V30 404 C 38.4415 5.44593 -3.21871 0
M  V30 405 C 37.1055 5.63835 -3.57276 0
M  V30 406 H 36.3755 0.740869 -0.0139279 0
M  V30 407 H 39.0225 1.76916 -0.733012 0
M  V30 408 H 37.3275 3.81819 0.878724 0
M  V30 409 H 39.0245 3.97606 0.520639 0
M  V30 410 H 35.6145 4.19113 -0.8968 0
M  V30 411 H 39.7985 4.63642 -1.7706 0
M  V30 412 H 35.0545 5.32459 -3.00496 0
M  V30 413 H 39.2285 5.78358 -3.87911 0
M  V30 414 H 36.8555 6.12557 -4.50197 0
M  V30 415 N 38.4306 0.297415 1.54768 0
M  V30 416 C 39.6786 -0.312295 1.99673 0
M  V30 417 C 39.9996 -1.54686 1.18732 0
M  V30 418 O 39.2696 -1.93854 0.282382 0
M  V30 419 H 37.8496 -0.118381 0.73756 0
M  V30 420 H 40.5116 0.407915 1.90583 0
M  V30 421 H 39.6076 -0.586813 3.06534 0
M  V30 422 N 39.9087 -1.5758 0.0250728 0
M  V30 423 C 41.3197 -1.79476 -0.514323 0
M  V30 424 C 41.6707 -0.934956 -1.72491 0
M  V30 425 O 40.7957 -0.144245 -2.15919 0
M  V30 426 C 41.3907 -3.25503 -0.939842 0
M  V30 427 C 39.9497 -3.48408 -1.42438 0
M  V30 428 C 39.0967 -2.74583 -0.387201 0
M  V30 429 H 42.0477 -1.567 0.25113 0
M  V30 430 H 42.0687 -3.34992 -1.80445 0
M  V30 431 H 41.5807 -3.88056 -0.0585628 0
M  V30 432 H 39.6817 -2.91103 -2.32572 0
M  V30 433 H 39.7947 -4.57119 -1.43455 0
M  V30 434 H 38.1587 -2.39942 -0.854409 0
M  V30 435 H 38.9417 -3.39849 0.485543 0
M  V30 436 N 41.3868 0.248026 -1.55636 0
M  V30 437 C 42.3368 1.30994 -1.86614 0
M  V30 438 C 43.3208 1.43543 -0.726918 0
M  V30 439 O 44.5128 1.46804 -0.988818 0
M  V30 440 C 41.6418 2.6656 -2.16335 0
M  V30 441 C 40.7278 2.58019 -3.36581 0
M  V30 442 N 41.1188 2.1911 -4.55878 0
M  V30 443 C 39.4168 2.89035 -3.39669 0
M  V30 444 C 40.1178 2.21174 -5.38012 0
M  V30 445 N 39.0938 2.60632 -4.77045 0
M  V30 446 H 42.8958 0.999583 -2.76379 0
M  V30 447 H 40.4098 0.456652 -1.55848 0
M  V30 448 H 42.4068 3.43194 -2.36692 0
M  V30 449 H 41.0668 2.98463 -1.27867 0
M  V30 450 H 42.0778 1.90672 -4.81523 0
M  V30 451 H 38.7548 3.25485 -2.61469 0
M  V30 452 H 40.1448 1.9344 -6.43452 0
M  V30 453 N 42.8649 1.48995 0.513639 0
M  V30 454 C 43.7969 1.60836 1.63293 0
M  V30 455 C 44.8099 0.491701 1.55197 0
M  V30 456 O 45.9989 0.763238 1.6136 0
M  V30 457 C 43.0989 1.53731 3.02027 0
M  V30 458 C 42.2719 2.80715 3.35437 0
M  V30 459 C 41.3309 2.66837 4.53525 0
M  V30 460 O 40.3569 3.40753 4.55934 0
M  V30 461 N 41.5589 1.77539 5.52684 0
M  V30 462 H 44.3239 2.57366 1.53566 0
M  V30 463 H 41.8849 1.45925 0.701259 0
M  V30 464 H 43.8769 1.42118 3.78926 0
M  V30 465 H 42.4469 0.651092 3.05744 0
M  V30 466 H 41.6669 3.06772 2.47557 0
M  V30 467 H 42.9549 3.64927 3.54551 0
M  V30 468 H 42.3529 1.16719 5.53528 0
M  V30 469 H 40.9099 1.71856 6.28736 0
M  V30 470 N 44.343 -0.763751 1.37857 0
M  V30 471 C 45.759 -1.06542 1.18832 0
M  V30 472 C 45.959 -2.01478 0.0299722 0
M  V30 473 O 45.015 -2.4458 -0.627447 0
M  V30 474 C 46.328 -1.65525 2.51042 0
M  V30 475 C 47.876 -1.77745 2.57635 0
M  V30 476 C 48.351 -2.4014 3.89996 0
M  V30 477 N 49.842 -2.47582 3.91481 0
M  V30 478 C 50.577 -2.96732 4.9065 0
M  V30 479 N 50.073 -3.45993 6.00217 0
M  V30 480 N 51.866 -2.95679 4.78048 0
M  V30 481 H 44.017 -0.133556 2.1198 0
M  V30 482 H 46.28 -0.121879 0.940133 0
M  V30 483 H 45.986 -1.03236 3.36207 0
M  V30 484 H 45.86 -2.64719 2.68707 0
M  V30 485 H 48.247 -2.39164 1.72872 0
M  V30 486 H 48.328 -0.772836 2.43846 0
M  V30 487 H 47.972 -1.79358 4.75177 0
M  V30 488 H 47.902 -3.41223 4.01092 0
M  V30 489 H 50.393 -2.1273 3.12337 0
M  V30 490 H 50.706 -3.81922 6.7183 0
M  V30 491 H 49.051 -3.44077 6.03851 0
M  V30 492 H 52.242 -2.56499 3.91568 0
M  V30 493 H 52.415 -3.33672 5.55488 0
M  V30 494 N 45.8211 -1.22559 -0.990812 0
M  V30 495 C 46.7511 -1.0218 -2.09956 0
M  V30 496 C 47.7321 0.0579394 -1.70001 0
M  V30 497 O 48.9171 -0.104684 -1.93918 0
M  V30 498 C 46.0471 -0.601023 -3.4206 0
M  V30 499 C 45.0011 -1.62694 -3.95872 0
M  V30 500 C 44.3271 -1.06193 -5.24049 0
M  V30 501 C 45.6271 -3.01743 -4.2632 0
M  V30 502 H 47.3211 -1.94916 -2.27262 0
M  V30 503 H 44.8671 -0.938566 -1.09211 0
M  V30 504 H 46.8201 -0.445561 -4.19038 0
M  V30 505 H 45.5441 0.362005 -3.24588 0
M  V30 506 H 44.2031 -1.77021 -3.21028 0
M  V30 507 H 43.8511 -0.0901903 -5.02919 0
M  V30 508 H 43.5511 -1.74732 -5.61019 0
M  V30 509 H 45.0751 -0.918092 -6.03658 0
M  V30 510 H 46.4891 -2.90777 -4.94087 0
M  V30 511 H 44.8861 -3.67425 -4.74467 0
M  V30 512 H 45.9561 -3.51518 -3.34011 0
M  V30 513 N 47.2992 1.18797 -1.03562 0
M  V30 514 C 48.2092 2.25913 -0.632505 0
M  V30 515 C 49.2252 1.70668 0.338882 0
M  V30 516 O 50.4012 2.00453 0.195076 0
M  V30 517 C 47.4662 3.467 0.00350942 0
M  V30 518 C 46.5272 4.17098 -1.01624 0
M  V30 519 C 45.7602 5.32119 -0.410478 0
M  V30 520 O 45.9832 5.64976 0.784725 0
M  V30 521 O 44.9172 5.9107 -1.13667 0
M  V30 522 H 48.7432 2.62648 -1.52478 0
M  V30 523 H 46.3282 1.25781 -0.806195 0
M  V30 524 H 48.2102 4.19878 0.35781 0
M  V30 525 H 46.8852 3.11798 0.869686 0
M  V30 526 H 45.7922 3.4601 -1.42224 0
M  V30 527 H 47.1252 4.55987 -1.85301 0
M  V30 528 N 48.7773 0.814389 1.34928 0
M  V30 529 C 49.7243 0.22822 2.29669 0
M  V30 530 C 50.6943 -0.642164 1.53184 0
M  V30 531 O 51.8793 -0.585605 1.81591 0
M  V30 532 C 49.0193 -0.61089 3.3965 0
M  V30 533 C 48.1323 0.280792 4.31086 0
M  V30 534 C 47.2673 -0.567067 5.28165 0
M  V30 535 C 46.3063 0.324531 6.11239 0
M  V30 536 N 45.4433 -0.483756 7.00431 0
M  V30 537 H 50.2833 1.04153 2.79206 0
M  V30 538 H 47.8203 0.525133 1.37407 0
M  V30 539 H 49.7783 -1.11263 4.0209 0
M  V30 540 H 48.4083 -1.38939 2.91369 0
M  V30 541 H 47.4603 0.900688 3.69583 0
M  V30 542 H 48.7723 0.966723 4.89342 0
M  V30 543 H 47.9263 -1.13363 5.96015 0
M  V30 544 H 46.6653 -1.28654 4.70425 0
M  V30 545 H 45.6703 0.903298 5.42329 0
M  V30 546 H 46.8953 1.04198 6.71059 0
M  V30 547 H 44.8413 -1.18706 6.45171 0
M  V30 548 H 44.7583 0.143965 7.55863 0
M  V30 549 H 46.0263 -1.03334 7.7262 0
M  V30 550 N 50.2554 -1.46986 0.568584 0
M  V30 551 C 51.1854 -2.32946 -0.160753 0
M  V30 552 C 52.1664 -1.44487 -0.897631 0
M  V30 553 O 53.3514 -1.73327 -0.875867 0
M  V30 554 C 50.4814 -3.26494 -1.18403 0
M  V30 555 C 49.4354 -4.24282 -0.562895 0
M  V30 556 C 48.7614 -5.07236 -1.69163 0
M  V30 557 C 50.0614 -5.19989 0.490761 0
M  V30 558 H 51.7554 -2.94175 0.556916 0
M  V30 559 H 49.3014 -1.4146 0.26927 0
M  V30 560 H 51.2544 -3.85477 -1.70251 0
M  V30 561 H 49.9784 -2.63343 -1.93179 0
M  V30 562 H 48.6374 -3.66541 -0.0656164 0
M  V30 563 H 48.2854 -4.4048 -2.42871 0
M  V30 564 H 47.9854 -5.7345 -1.28174 0
M  V30 565 H 49.5094 -5.6908 -2.21314 0
M  V30 566 H 50.9234 -5.73271 0.0579047 0
M  V30 567 H 49.3204 -5.94469 0.820165 0
M  V30 568 H 50.3904 -4.64777 1.3824 0
M  V30 569 N 51.7335 -0.305618 -1.54608 0
M  V30 570 C 53.0105 0.355652 -1.92339 0
M  V30 571 C 53.3905 1.71324 -1.23335 0
M  V30 572 O 52.7385 2.25473 -0.370702 0
M  V30 573 C 52.9485 0.46572 -3.45879 0
M  V30 574 C 54.2965 0.734426 -4.182 0
M  V30 575 O 55.3205 0.54935 -3.51938 0
M  V30 576 O 54.1795 1.09024 -5.35515 0
M  V30 577 H 51.2735 0.199666 -0.802535 0
M  V30 578 H 53.8195 -0.354017 -1.65966 0
M  V30 579 H 52.5915 -0.488461 -3.88239 0
M  V30 580 H 52.2145 1.22367 -3.78301 0
M  V30 581 N 53.2116 1.57565 -0.0334293 0
M  V30 582 C 54.4366 1.96689 0.657895 0
M  V30 583 C 54.8616 0.910057 1.64619 0
M  V30 584 O 54.2196 -0.128598 1.80843 0
M  V30 585 C 54.2676 3.34905 1.33683 0
M  V30 586 O 53.3716 3.31574 2.45219 0
M  V30 587 H 52.7126 0.641205 0.172489 0
M  V30 588 H 55.2426 2.04372 -0.0965621 0
M  V30 589 H 55.2526 3.71234 1.69262 0
M  V30 590 H 53.9276 4.11366 0.612411 0
M  V30 591 H 52.5046 3.06968 2.11719 0
M  V30 592 N 54.6897 -0.239769 1.55765 0
M  V30 593 C 55.6197 -1.30052 1.9393 0
M  V30 594 C 56.6007 -1.49839 0.805132 0
M  V30 595 O 57.7857 -1.62328 1.06599 0
M  V30 596 C 54.9157 -2.65391 2.2402 0
M  V30 597 C 53.8697 -2.60289 3.39755 0
M  V30 598 C 53.1957 -3.99489 3.55405 0
M  V30 599 C 54.4957 -2.16654 4.75246 0
M  V30 600 H 56.1897 -0.983573 2.82783 0
M  V30 601 H 53.7357 -0.471701 1.36055 0
M  V30 602 H 55.6887 -3.3974 2.49308 0
M  V30 603 H 54.4127 -2.98736 1.32 0
M  V30 604 H 53.0717 -1.88398 3.14487 0
M  V30 605 H 52.7197 -4.30112 2.60793 0
M  V30 606 H 52.4197 -3.96962 4.33238 0
M  V30 607 H 53.9437 -4.75528 3.83022 0
M  V30 608 H 55.3577 -2.80737 4.99859 0
M  V30 609 H 53.7547 -2.25223 5.56232 0
M  V30 610 H 54.8247 -1.11835 4.71827 0
M  V30 611 N 56.1678 -1.49265 -0.50573 0
M  V30 612 C 57.0978 -1.68495 -1.61653 0
M  V30 613 C 58.0788 -0.53366 -1.61512 0
M  V30 614 O 59.2638 -0.76897 -1.78327 0
M  V30 615 C 56.3938 -1.74709 -3.00157 0
M  V30 616 C 55.3478 -2.89581 -3.15162 0
M  V30 617 C 54.6738 -2.80903 -4.5497 0
M  V30 618 C 55.9738 -4.30578 -2.95634 0
M  V30 619 H 57.6678 -2.61493 -1.45814 0
M  V30 620 H 55.2138 -1.25838 -0.70005 0
M  V30 621 H 57.1668 -1.86748 -3.77761 0
M  V30 622 H 55.8908 -0.783067 -3.17074 0
M  V30 623 H 54.5498 -2.77136 -2.39982 0
M  V30 624 H 54.1978 -1.82419 -4.68756 0
M  V30 625 H 53.8978 -3.57999 -4.65951 0
M  V30 626 H 55.4218 -2.94944 -5.34641 0
M  V30 627 H 56.8358 -4.4373 -3.63011 0
M  V30 628 H 55.2328 -5.0886 -3.18091 0
M  V30 629 H 56.3028 -4.45352 -1.91806 0
M  V30 630 N 57.6459 0.756429 -1.3826 0
M  V30 631 C 58.8709 1.55077 -1.37717 0
M  V30 632 C 59.2959 1.88073 0.03164 0
M  V30 633 O 58.6539 1.50364 1.01293 0
M  V30 634 C 58.7019 2.8283 -2.23695 0
M  V30 635 O 57.8059 3.77862 -1.6521 0
M  V30 636 H 57.1469 0.469152 -0.469885 0
M  V30 637 H 59.6769 0.935019 -1.81985 0
M  V30 638 H 59.6869 3.31783 -2.37453 0
M  V30 639 H 58.3619 2.58144 -3.2609 0
M  V30 640 H 56.9389 3.36555 -1.60578 0
M  V30 641 N 59.124 1.23083 0.984299 0
M  V30 642 C 60.401 0.9689 1.69917 0
M  V30 643 C 60.781 -0.513604 2.04757 0
M  V30 644 O 60.129 -1.48383 1.73767 0
M  V30 645 C 60.339 1.87518 2.94343 0
M  V30 646 C 61.687 2.13636 3.6694 0
M  V30 647 O 62.711 1.85036 3.04368 0
M  V30 648 O 61.57 2.62119 4.79537 0
M  V30 649 H 58.664 0.365095 0.742048 0
M  V30 650 H 61.21 1.34107 1.03987 0
M  V30 651 H 59.982 2.87756 2.65164 0
M  V30 652 H 59.605 1.50514 3.6801 0
M  V30 653 N 60.6021 -1.18246 1.0419 0
M  V30 654 C 61.8321 -1.91916 0.764961 0
M  V30 655 C 62.2401 -1.76485 -0.681898 0
M  V30 656 O 61.5831 -1.09275 -1.47664 0
M  V30 657 C 61.6451 -3.4373 1.05309 0
M  V30 658 C 61.3091 -3.8294 2.4941 0
M  V30 659 C 62.3061 -3.86621 3.47592 0
M  V30 660 C 59.9911 -4.142 2.84155 0
M  V30 661 C 61.9851 -4.21013 4.78568 0
M  V30 662 C 59.6721 -4.48262 4.15337 0
M  V30 663 C 60.6701 -4.51645 5.12353 0
M  V30 664 O 60.3581 -4.84911 6.41183 0
M  V30 665 H 60.0901 -0.61606 0.278292 0
M  V30 666 H 62.6441 -1.50947 1.39299 0
M  V30 667 H 60.8741 -3.84946 0.367933 0
M  V30 668 H 62.5631 -3.9865 0.763752 0
M  V30 669 H 63.3291 -3.62607 3.22089 0
M  V30 670 H 59.2081 -4.10743 2.09311 0
M  V30 671 H 62.7521 -4.23568 5.54289 0
M  V30 672 H 58.6491 -4.71737 4.40607 0
M  V30 673 H 59.4171 -5.02809 6.45852 0
M  V30 674 N 62.0802 -0.821533 -1.34494 0
M  V30 675 C 63.3572 -0.33159 -1.92769 0
M  V30 676 C 63.7372 1.18088 -1.74981 0
M  V30 677 O 63.0852 1.98733 -1.12772 0
M  V30 678 C 63.2952 -0.759398 -3.40638 0
M  V30 679 C 64.6432 -0.757433 -4.1779 0
M  V30 680 O 65.6672 -0.70189 -3.49216 0
M  V30 681 O 64.5262 -0.829361 -5.4017 0
M  V30 682 H 61.6202 -0.0902502 -0.822061 0
M  V30 683 H 64.1662 -0.906231 -1.43477 0
M  V30 684 H 62.9382 -1.8012 -3.47379 0
M  V30 685 H 62.5612 -0.160378 -3.97276 0
M  V30 686 N 63.5583 1.46682 -0.576371 0
M  V30 687 C 64.8073 2.01619 -0.0572825 0
M  V30 688 C 65.1203 1.45417 1.30818 0
M  V30 689 O 66.3263 1.92133 1.91825 0
M  V30 690 C 64.7823 3.59863 -0.0518371 0
M  V30 691 C 64.3903 4.25059 -1.41523 0
M  V30 692 C 66.1343 4.2248 0.413639 0
M  V30 693 C 64.0413 5.75364 -1.36785 0
M  V30 694 H 62.9713 0.753794 -0.0176448 0
M  V30 695 H 65.6223 1.68481 -0.727076 0
M  V30 696 H 64.0043 3.90048 0.683994 0
M  V30 697 H 65.1783 4.06491 -2.17029 0
M  V30 698 H 63.4933 3.7451 -1.8202 0
M  V30 699 H 66.0903 5.3265 0.467779 0
M  V30 700 H 66.4333 3.90976 1.42982 0
M  V30 701 H 66.9663 3.96897 -0.267929 0
M  V30 702 H 63.7053 6.11518 -2.36063 0
M  V30 703 H 63.2253 5.96214 -0.654895 0
M  V30 704 H 64.9043 6.37955 -1.07805 0
M  V30 705 N 65.0364 0.313813 1.54444 0
M  V30 706 C 65.9664 -0.549454 2.26943 0
M  V30 707 C 66.9474 -1.12741 1.27372 0
M  V30 708 O 68.1324 -1.15436 1.56167 0
M  V30 709 C 65.2624 -1.71523 3.01989 0
M  V30 710 C 64.2164 -1.26703 4.08816 0
M  V30 711 C 63.5424 -2.51898 4.71647 0
M  V30 712 C 64.8424 -0.388962 5.2085 0
M  V30 713 H 66.5364 0.0552661 2.99349 0
M  V30 714 H 64.0824 0.0280207 1.43973 0
M  V30 715 H 66.0354 -2.32535 3.51433 0
M  V30 716 H 64.7594 -2.34639 2.27183 0
M  V30 717 H 63.4184 -0.679896 3.6024 0
M  V30 718 H 63.0664 -3.13356 3.93468 0
M  V30 719 H 62.7664 -2.22605 5.43802 0
M  V30 720 H 64.2904 -3.1369 5.23861 0
M  V30 721 H 65.7044 -0.905107 5.6611 0
M  V30 722 H 64.1014 -0.18924 5.99802 0
M  V30 723 H 65.1714 0.582699 4.81386 0
M  V30 724 N 66.5145 -1.57545 0.0417849 0
M  V30 725 C 67.7395 -1.97035 -0.647455 0
M  V30 726 C 68.1645 -0.918775 -1.64135 0
M  V30 727 O 67.5225 0.119006 -1.80909 0
M  V30 728 C 67.5705 -3.35609 -1.31905 0
M  V30 729 O 66.6745 -3.3287 -2.43457 0
M  V30 730 H 66.0155 -0.64211 -0.169086 0
M  V30 731 H 68.5455 -2.04318 0.107399 0
M  V30 732 H 68.5555 -3.72126 -1.67291 0
M  V30 733 H 67.2305 -4.11685 -0.590586 0
M  V30 734 H 65.8075 -3.08087 -2.10088 0
M  V30 735 N 67.9926 0.231505 -1.5589 0
M  V30 736 C 68.9226 1.29022 -1.94617 0
M  V30 737 C 69.9036 1.4941 -0.813067 0
M  V30 738 O 71.0886 1.6176 -1.07459 0
M  V30 739 C 68.2186 2.64199 -2.25424 0
M  V30 740 C 67.1726 2.58484 -3.41131 0
M  V30 741 C 66.4986 3.97599 -3.57518 0
M  V30 742 C 67.7986 2.1413 -4.76388 0
M  V30 743 H 69.4926 0.968563 -2.83301 0
M  V30 744 H 67.0386 0.464479 -1.36303 0
M  V30 745 H 68.9916 3.38413 -2.51107 0
M  V30 746 H 67.7156 2.98032 -1.33583 0
M  V30 747 H 66.3746 1.86727 -3.15481 0
M  V30 748 H 66.0226 4.28723 -2.6307 0
M  V30 749 H 65.7226 3.94659 -4.35337 0
M  V30 750 H 67.2466 4.7349 -3.85538 0
M  V30 751 H 68.6606 2.78083 -5.01341 0
M  V30 752 H 67.0576 2.2227 -5.57419 0
M  V30 753 H 68.1276 1.09331 -4.72414 0
M  V30 754 N 69.4707 1.49531 0.497807 0
M  V30 755 C 70.6957 1.63159 1.28039 0
M  V30 756 C 71.1207 0.30418 1.85624 0
M  V30 757 O 70.4787 -0.728618 1.66015 0
M  V30 758 C 70.5267 2.70537 2.38416 0
M  V30 759 O 69.6307 2.29931 3.42353 0
M  V30 760 H 68.9717 0.546001 0.377861 0
M  V30 761 H 71.5017 1.9574 0.59558 0
M  V30 762 H 71.5117 2.92802 2.84132 0
M  V30 763 H 70.1867 3.6689 1.95869 0
M  V30 764 H 68.7637 2.18009 3.02533 0
M  V30 765 N 70.9488 -0.749086 1.3866 0
M  V30 766 C 71.8968 -1.88428 1.36373 0
M  V30 767 C 72.8908 -1.67561 0.248929 0
M  V30 768 O 74.0968 -1.75074 0.41821 0
M  V30 769 H 70.4718 -0.620023 0.42553 0
M  V30 770 H 72.4428 -1.87473 2.32156 0
M  V30 771 C 71.1918 -3.25961 1.21014 0
M  V30 772 H 70.5148 -3.42607 2.06059 0
M  V30 773 H 71.9548 -4.05625 1.23469 0
M  V30 774 C 70.4138 -3.36799 -0.0825941 0
M  V30 775 O 70.9438 -3.87517 -1.05797 0
M  V30 776 N 69.1498 -2.90258 -0.140939 0
M  V30 777 H 68.6968 -2.49174 0.653477 0
M  V30 778 H 68.6548 -2.97889 -1.00545 0
M  V30 779 N 72.4269 -1.23603 -0.977757 0
M  V30 780 C 73.6759 -1.06377 -1.71368 0
M  V30 781 C 73.9889 0.399062 -1.91486 0
M  V30 782 O 75.1949 0.691312 -2.62551 0
M  V30 783 C 73.6509 -1.85512 -3.08404 0
M  V30 784 C 73.2589 -3.36141 -2.96164 0
M  V30 785 C 75.0029 -1.76783 -3.85938 0
M  V30 786 C 72.9099 -4.07659 -4.28449 0
M  V30 787 H 71.8399 -0.394452 -0.642591 0
M  V30 788 H 74.4909 -1.47594 -1.09034 0
M  V30 789 H 72.8729 -1.37103 -3.71509 0
M  V30 790 H 74.0469 -3.92056 -2.42133 0
M  V30 791 H 72.3619 -3.45712 -2.32104 0
M  V30 792 H 74.9589 -2.27526 -4.83876 0
M  V30 793 H 75.3019 -0.731116 -4.0983 0
M  V30 794 H 75.8349 -2.22818 -3.2954 0
M  V30 795 H 72.5739 -5.11648 -4.09752 0
M  V30 796 H 72.0939 -3.5653 -4.82334 0
M  V30 797 H 73.7729 -4.141 -4.97122 0
M  V30 798 N 73.905 1.17692 -1.04816 0
M  V30 799 C 74.837 2.21103 -0.603822 0
M  V30 800 C 75.85 1.59411 0.33046 0
M  V30 801 O 77.039 1.7807 0.12379 0
M  V30 802 C 74.139 3.38623 0.136898 0
M  V30 803 C 73.312 4.29888 -0.807137 0
M  V30 804 C 72.371 5.26088 -0.10836 0
M  V30 805 O 71.397 5.64353 -0.741232 0
M  V30 806 N 72.599 5.68882 1.15558 0
M  V30 807 H 75.364 2.59848 -1.49329 0
M  V30 808 H 72.925 1.32553 -0.929587 0
M  V30 809 H 74.917 4.00009 0.614401 0
M  V30 810 H 73.487 2.98508 0.927993 0
M  V30 811 H 72.707 3.65993 -1.46434 0
M  V30 812 H 73.995 4.87759 -1.44807 0
M  V30 813 H 73.393 5.39861 1.69015 0
M  V30 814 H 71.95 6.32429 1.57722 0
M  V30 815 N 75.3831 0.828654 1.34056 0
M  V30 816 C 76.3151 0.212052 2.28217 0
M  V30 817 C 77.3281 -0.601362 1.51286 0
M  V30 818 O 78.5171 -0.430104 1.73241 0
M  V30 819 C 75.6171 -0.72088 3.31144 0
M  V30 820 C 74.7901 0.0509587 4.3737 0
M  V30 821 C 73.8491 -0.803766 5.20025 0
M  V30 822 O 72.8751 -0.246667 5.68665 0
M  V30 823 N 74.0771 -2.1227 5.40298 0
M  V30 824 H 76.8421 1.02105 2.81771 0
M  V30 825 H 74.4031 0.686153 1.46641 0
M  V30 826 H 76.3951 -1.29742 3.8334 0
M  V30 827 H 74.9651 -1.43061 2.77943 0
M  V30 828 H 74.1851 0.808831 3.85813 0
M  V30 829 H 75.4731 0.582065 5.0546 0
M  V30 830 H 74.8711 -2.59898 5.02464 0
M  V30 831 H 73.4281 -2.64796 5.95589 0
M  V30 832 N 76.8612 -1.46375 0.584142 0
M  V30 833 C 77.8112 -2.27371 -0.169232 0
M  V30 834 C 78.7952 -1.35955 -0.860523 0
M  V30 835 O 79.9872 -1.60119 -0.754382 0
M  V30 836 C 77.1162 -3.22334 -1.18134 0
M  V30 837 C 76.2022 -4.21235 -0.492088 0
M  V30 838 N 76.5932 -5.03766 0.453129 0
M  V30 839 C 74.8912 -4.39773 -0.742652 0
M  V30 840 C 75.5922 -5.75366 0.85609 0
M  V30 841 N 74.5682 -5.43214 0.204926 0
M  V30 842 H 78.3702 -2.88572 0.557097 0
M  V30 843 H 75.8842 -1.57242 0.406042 0
M  V30 844 H 77.8812 -3.79071 -1.73525 0
M  V30 845 H 76.5412 -2.62693 -1.90847 0
M  V30 846 H 77.5522 -5.11227 0.828723 0
M  V30 847 H 74.2292 -3.91279 -1.45625 0
M  V30 848 H 75.6192 -6.5172 1.63434 0
M  V30 849 N 78.3393 -0.321999 -1.54275 0
M  V30 850 C 79.5643 0.285791 -2.05422 0
M  V30 851 C 79.9893 1.45124 -1.19669 0
M  V30 852 O 79.3473 1.80132 -0.205441 0
M  V30 853 C 79.3953 0.69956 -3.53749 0
M  V30 854 O 78.4993 1.8021 -3.70942 0
M  V30 855 H 77.8403 0.0518962 -0.661969 0
M  V30 856 H 80.3703 -0.469954 -1.9913 0
M  V30 857 H 80.3803 0.982649 -3.9599 0
M  V30 858 H 79.0553 -0.152864 -4.15619 0
M  V30 859 H 77.6323 1.51794 -3.40607 0
M  V30 860 N 79.8174 1.5752 -0.0501392 0
M  V30 861 C 81.0634 1.92936 0.624798 0
M  V30 862 C 81.3964 0.928685 1.70555 0
M  V30 863 O 80.6714 -0.0454779 1.94447 0
M  V30 864 C 80.9544 3.38737 1.22185 0
M  V30 865 C 80.8074 4.49552 0.149218 0
M  V30 866 C 82.1264 3.84913 2.13378 0
M  V30 867 H 79.2454 0.701604 0.225657 0
M  V30 868 H 81.8874 1.89671 -0.111693 0
M  V30 869 H 80.0374 3.4165 1.84953 0
M  V30 870 H 81.7094 4.58768 -0.482648 0
M  V30 871 H 79.9524 4.30638 -0.522841 0
M  V30 872 H 80.6234 5.48653 0.606966 0
M  V30 873 H 83.0994 3.8387 1.60572 0
M  V30 874 H 81.9754 4.87584 2.52097 0
M  V30 875 H 82.2364 3.21611 3.03346 0
M  V30 876 N 81.2955 -0.223234 1.56011 0
M  V30 877 C 82.7115 -0.572856 1.48965 0
M  V30 878 C 82.9115 -1.87225 0.74492 0
M  V30 879 O 81.9675 -2.50899 0.283896 0
M  V30 880 C 83.2805 -0.653646 2.9351 0
M  V30 881 C 84.8285 -0.744386 3.0402 0
M  V30 882 C 85.3035 -0.856535 4.49919 0
M  V30 883 N 86.7945 -0.9208 4.53955 0
M  V30 884 C 87.5295 -1.02726 5.64123 0
M  V30 885 N 87.0255 -1.09777 6.84047 0
M  V30 886 N 88.8185 -1.06226 5.51971 0
M  V30 887 H 80.9695 0.629462 2.02858 0
M  V30 888 H 83.2325 0.220621 0.921971 0
M  V30 889 H 82.9385 0.231518 3.50937 0
M  V30 890 H 82.8125 -1.51781 3.45315 0
M  V30 891 H 85.1995 -1.61999 2.46658 0
M  V30 892 H 85.2805 0.14541 2.55386 0
M  V30 893 H 84.9245 0.0146069 5.07898 0
M  V30 894 H 84.8545 -1.76172 4.96257 0
M  V30 895 H 87.3455 -0.876694 3.6759 0
M  V30 896 H 87.6585 -1.17872 7.63758 0
M  V30 897 H 86.0035 -1.06693 6.86762 0
M  V30 898 H 89.1945 -1.00382 4.5721 0
M  V30 899 H 89.3675 -1.14177 6.37862 0
M  V30 900 N 82.7736 -1.49793 -0.48987 0
M  V30 901 C 83.7206 -1.67281 -1.59014 0
M  V30 902 C 84.6906 -0.514177 -1.57941 0
M  V30 903 O 85.8756 -0.742533 -1.75759 0
M  V30 904 C 83.0156 -1.75569 -2.97102 0
M  V30 905 C 82.1286 -3.0281 -3.08107 0
M  V30 906 C 81.2636 -3.02008 -4.36995 0
M  V30 907 C 80.3026 -4.23782 -4.41673 0
M  V30 908 N 79.4396 -4.20826 -5.62005 0
M  V30 909 H 84.2796 -2.61224 -1.43409 0
M  V30 910 H 81.8166 -1.29508 -0.697565 0
M  V30 911 H 83.7746 -1.78354 -3.77155 0
M  V30 912 H 82.4046 -0.850827 -3.11385 0
M  V30 913 H 81.4566 -3.09584 -2.21047 0
M  V30 914 H 82.7686 -3.92801 -3.07423 0
M  V30 915 H 81.9226 -3.03418 -5.25378 0
M  V30 916 H 80.6616 -2.09815 -4.4026 0
M  V30 917 H 79.6666 -4.22604 -3.5169 0
M  V30 918 H 80.8916 -5.17181 -4.40115 0
M  V30 919 H 78.8376 -3.31476 -5.66091 0
M  V30 920 H 78.7546 -5.04564 -5.62984 0
M  V30 921 H 80.0226 -4.26355 -6.52565 0
M  V30 922 N 84.2517 0.741722 -1.39055 0
M  V30 923 C 85.6677 1.04638 -1.20512 0
M  V30 924 C 85.8677 2.01405 -0.0620218 0
M  V30 925 O 84.9237 2.45547 0.588457 0
M  V30 926 C 86.2367 1.6151 -2.53643 0
M  V30 927 C 87.7847 1.73623 -2.6043 0
M  V30 928 C 88.2597 2.33906 -3.93767 0
M  V30 929 N 89.7507 2.41323 -3.9537 0
M  V30 930 C 90.4857 2.88888 -4.95309 0
M  V30 931 N 89.9817 3.36401 -6.05645 0
M  V30 932 N 91.7747 2.88037 -4.82692 0
M  V30 933 H 83.9257 0.0998155 -2.12165 0
M  V30 934 H 86.1887 0.106907 -0.941953 0
M  V30 935 H 85.8947 0.978739 -3.37807 0
M  V30 936 H 85.7687 2.60411 -2.72885 0
M  V30 937 H 88.1557 2.36384 -1.76655 0
M  V30 938 H 88.2367 0.733945 -2.45045 0
M  V30 939 H 87.8807 1.71776 -4.7797 0
M  V30 940 H 87.8107 3.34799 -4.06469 0
M  V30 941 H 90.3017 2.07734 -3.15682 0
M  V30 942 H 90.6147 3.71186 -6.77821 0
M  V30 943 H 88.9597 3.34427 -6.09248 0
M  V30 944 H 92.1507 2.50237 -3.95599 0
M  V30 945 H 92.3237 3.24792 -5.60726 0
M  V30 946 N 85.7298 1.2412 0.971189 0
M  V30 947 C 87.0068 0.986867 1.6888 0
M  V30 948 C 87.3868 -0.491857 2.0529 0
M  V30 949 O 86.7348 -1.46531 1.75331 0
M  V30 950 C 86.9448 1.9063 2.92338 0
M  V30 951 C 88.2928 2.17515 3.64654 0
M  V30 952 O 89.3168 1.88254 3.02388 0
M  V30 953 O 88.1758 2.6719 4.7673 0
M  V30 954 H 85.2698 0.372944 0.738134 0
M  V30 955 H 87.8158 1.35203 1.02559 0
M  V30 956 H 86.5878 2.90552 2.62097 0
M  V30 957 H 86.2108 1.54408 3.66393 0
M  V30 958 N 87.2079 -1.17134 1.05439 0
M  V30 959 C 88.1379 -2.2342 0.678649 0
M  V30 960 C 89.1189 -1.66971 -0.32476 0
M  V30 961 O 90.3039 -1.93149 -0.201802 0
M  V30 962 C 87.4339 -3.47256 0.0552099 0
M  V30 963 C 86.3879 -4.16543 0.98365 0
M  V30 964 C 85.7139 -5.34231 0.223961 0
M  V30 965 C 87.0139 -4.68495 2.3089 0
M  V30 966 H 88.7079 -2.55105 1.56722 0
M  V30 967 H 86.2539 -1.2262 0.754998 0
M  V30 968 H 88.2069 -4.20828 -0.21946 0
M  V30 969 H 86.9309 -3.14846 -0.868319 0
M  V30 970 H 85.5899 -3.44887 1.24293 0
M  V30 971 H 85.2379 -4.98071 -0.702412 0
M  V30 972 H 84.9379 -5.81527 0.842627 0
M  V30 973 H 86.4619 -6.10585 -0.0433671 0
M  V30 974 H 87.8759 -5.33691 2.09396 0
M  V30 975 H 86.2729 -5.26379 2.88176 0
M  V30 976 H 87.3429 -3.85169 2.94572 0
M  V30 977 N 88.686 -0.835752 -1.33615 0
M  V30 978 C 89.618 -0.224151 -2.28101 0
M  V30 979 C 90.631 0.593331 -1.51603 0
M  V30 980 O 91.82 0.420911 -1.73466 0
M  V30 981 C 88.92 0.703309 -3.31522 0
M  V30 982 C 88.093 -0.0741528 -4.37337 0
M  V30 983 C 87.152 0.776176 -5.20444 0
M  V30 984 O 86.178 0.216506 -5.68788 0
M  V30 985 N 87.38 2.09401 -5.41416 0
M  V30 986 H 90.145 -1.03598 -2.81225 0
M  V30 987 H 87.706 -0.69392 -1.46275 0
M  V30 988 H 89.698 1.27707 -3.84022 0
M  V30 989 H 88.268 1.41585 -2.78698 0
M  V30 990 H 87.488 -0.82928 -3.85378 0
M  V30 991 H 88.776 -0.608863 -5.05144 0
M  V30 992 H 88.174 2.57229 -5.03835 0
M  V30 993 H 86.731 2.61633 -5.96985 0
M  V30 994 N 90.1641 1.46063 -0.591896 0
M  V30 995 C 91.3921 2.06717 -0.0868936 0
M  V30 996 C 91.8071 1.43916 1.22203 0
M  V30 997 O 91.1641 0.547698 1.74088 0
M  V30 998 C 91.2151 3.6142 0.0758725 0
M  V30 999 O 90.9361 4.21874 -1.18126 0
M  V30 1000 C 92.4371 4.39025 0.61416 0
M  V30 1001 H 89.6571 0.668162 -0.0616518 0
M  V30 1002 H 92.2011 1.8755 -0.815175 0
M  V30 1003 H 90.3561 3.79983 0.754413 0
M  V30 1004 H 90.7701 5.14861 -1.00092 0
M  V30 1005 H 92.2441 5.4783 0.677193 0
M  V30 1006 H 92.7211 4.07708 1.63312 0
M  V30 1007 H 93.3271 4.2529 -0.0298142 0
M  V30 1008 N 91.6422 0.330177 1.54103 0
M  V30 1009 C 92.8672 -0.274893 2.0557 0
M  V30 1010 C 93.2922 -1.44487 1.20437 0
M  V30 1011 O 92.6502 -1.80021 0.214991 0
M  V30 1012 C 92.6982 -0.68079 3.54115 0
M  V30 1013 O 91.8022 -1.7824 3.71893 0
M  V30 1014 H 91.1432 -0.0483849 0.662235 0
M  V30 1015 H 93.6732 0.480508 1.98878 0
M  V30 1016 H 93.6832 -0.961635 3.96505 0
M  V30 1017 H 92.3582 0.174903 4.15532 0
M  V30 1018 H 90.9352 -1.49985 3.41407 0
M  V30 1019 N 93.1203 -1.57491 0.0584922 0
M  V30 1020 C 94.3483 -1.97296 -0.623037 0
M  V30 1021 C 94.7633 -0.936338 -1.63946 0
M  V30 1022 O 94.1203 0.0785981 -1.82331 0
M  V30 1023 C 94.1713 -3.37183 -1.30345 0
M  V30 1024 O 93.8923 -4.36872 -0.32773 0
M  V30 1025 C 95.3933 -3.91788 -2.07406 0
M  V30 1026 H 92.6133 -0.649153 -0.169826 0
M  V30 1027 H 95.1573 -2.04106 0.12696 0
M  V30 1028 H 93.3123 -3.31502 -2.00463 0
M  V30 1029 H 93.7263 -5.18141 -0.814269 0
M  V30 1030 H 95.2003 -4.91926 -2.50425 0
M  V30 1031 H 95.6773 -3.27609 -2.92521 0
M  V30 1032 H 96.2833 -4.00829 -1.42184 0
M  V30 1033 N 94.5984 0.214957 -1.56127 0
M  V30 1034 C 95.5484 1.27006 -1.8935 0
M  V30 1035 C 96.5324 1.41969 -0.757202 0
M  V30 1036 O 97.7244 1.44673 -1.01973 0
M  V30 1037 C 94.8534 2.61911 -2.2194 0
M  V30 1038 C 93.9394 2.50822 -3.41978 0
M  V30 1039 N 94.3304 2.09391 -4.60423 0
M  V30 1040 C 92.6284 2.81765 -3.45723 0
M  V30 1041 C 93.3294 2.09712 -5.42582 0
M  V30 1042 N 92.3054 2.50454 -4.82466 0
M  V30 1043 H 96.1074 0.940734 -2.78437 0
M  V30 1044 H 93.6214 0.423492 -1.56781 0
M  V30 1045 H 95.6184 3.38096 -2.43919 0
M  V30 1046 H 94.2784 2.95684 -1.34169 0
M  V30 1047 H 95.2894 1.80416 -4.85459 0
M  V30 1048 H 91.9664 3.19865 -2.68314 0
M  V30 1049 H 93.3564 1.79748 -6.4741 0
M  V30 1050 N 96.0765 1.50051 0.48192 0
M  V30 1051 C 97.3225 1.60736 1.2366 0
M  V30 1052 C 97.6555 0.301786 1.91841 0
M  V30 1053 O 96.9305 -0.696025 1.8162 0
M  V30 1054 C 97.2135 2.78009 2.28874 0
M  V30 1055 C 97.0665 4.18416 1.65069 0
M  V30 1056 C 98.3855 2.90867 3.30279 0
M  V30 1057 H 95.5045 0.585031 0.448228 0
M  V30 1058 H 98.1465 1.82402 0.531946 0
M  V30 1059 H 96.2965 2.59667 2.88973 0
M  V30 1060 H 97.9685 4.48322 1.0865 0
M  V30 1061 H 96.2115 4.23177 0.954148 0
M  V30 1062 H 96.8825 4.96381 2.41474 0
M  V30 1063 H 99.3585 3.07623 2.80191 0
M  V30 1064 H 98.2345 3.74566 4.01238 0
M  V30 1065 H 98.4955 2.01021 3.93755 0
M  V30 1066 N 97.5546 -0.734337 1.39446 0
M  V30 1067 C 98.4646 -1.87879 1.40495 0
M  V30 1068 C 99.4806 -1.714 0.299672 0
M  V30 1069 O 100.657 -1.93991 0.541249 0
M  V30 1070 C 97.7216 -3.23477 1.24754 0
M  V30 1071 C 96.7826 -3.52344 2.45259 0
M  V30 1072 C 96.0156 -4.81473 2.30259 0
M  V30 1073 O 96.2386 -5.55237 1.30643 0
M  V30 1074 O 95.1726 -5.10254 3.19256 0
M  V30 1075 H 98.9986 -1.89949 2.36966 0
M  V30 1076 H 96.5836 -0.882243 1.20569 0
M  V30 1077 H 98.4656 -4.04509 1.18111 0
M  V30 1078 H 97.1406 -3.22176 0.313781 0
M  V30 1079 H 96.0476 -2.71396 2.57478 0
M  V30 1080 H 97.3806 -3.58426 3.37331 0
M  V30 1081 N 99.0327 -1.24633 -0.964593 0
M  V30 1082 C 100.261 -1.11501 -1.74285 0
M  V30 1083 C 100.676 0.332165 -1.85855 0
M  V30 1084 O 100.033 1.22903 -1.34911 0
M  V30 1085 C 100.084 -1.75258 -3.16175 0
M  V30 1086 O 99.8047 -3.14318 -3.05182 0
M  V30 1087 C 101.306 -1.67776 -4.10324 0
M  V30 1088 H 98.5257 -0.389407 -0.546446 0
M  V30 1089 H 101.07 -1.64801 -1.21083 0
M  V30 1090 H 99.2247 -1.25954 -3.66353 0
M  V30 1091 H 99.6387 -3.4551 -3.94618 0
M  V30 1092 H 101.113 -2.17064 -5.0753 0
M  V30 1093 H 101.59 -0.639584 -4.34518 0
M  V30 1094 H 102.196 -2.16522 -3.66058 0
M  V30 1095 N 100.511 1.16574 -1.06058 0
M  V30 1096 C 101.441 2.23057 -0.690488 0
M  V30 1097 C 102.422 1.67141 0.315901 0
M  V30 1098 O 103.607 1.93253 0.191556 0
M  V30 1099 C 100.737 3.47222 -0.073625 0
M  V30 1100 C 99.6908 4.16016 -1.00573 0
M  V30 1101 C 99.0168 5.34104 -0.252289 0
M  V30 1102 C 100.317 4.67264 -2.33371 0
M  V30 1103 H 102.011 2.54271 -1.58072 0
M  V30 1104 H 99.5568 1.22218 -0.76149 0
M  V30 1105 H 101.51 4.20939 0.19714 0
M  V30 1106 H 100.234 3.15302 0.85161 0
M  V30 1107 H 98.8928 3.44223 -1.2612 0
M  V30 1108 H 98.5408 4.98437 0.675988 0
M  V30 1109 H 98.2408 5.81072 -0.873455 0
M  V30 1110 H 99.7648 6.10599 0.0109857 0
M  V30 1111 H 101.179 5.32573 -2.12223 0
M  V30 1112 H 99.5758 5.24843 -2.90963 0
M  V30 1113 H 100.646 3.83602 -2.96611 0
M  V30 1114 N 101.989 0.842826 1.3317 0
M  V30 1115 C 102.919 0.294028 2.31641 0
M  V30 1116 C 103.9 -0.600401 1.59151 0
M  V30 1117 O 105.085 -0.523124 1.87022 0
M  V30 1118 C 102.215 -0.528416 3.43257 0
M  V30 1119 C 101.169 0.27056 4.27144 0
M  V30 1120 C 100.495 -0.675881 5.30411 0
M  V30 1121 C 101.795 1.48981 5.00602 0
M  V30 1122 H 103.489 1.11681 2.77791 0
M  V30 1123 H 101.035 0.538478 1.33553 0
M  V30 1124 H 102.988 -0.922674 4.11175 0
M  V30 1125 H 101.712 -1.38445 2.95805 0
M  V30 1126 H 100.371 0.646427 3.60856 0
M  V30 1127 H 100.019 -1.52842 4.79216 0
M  V30 1128 H 99.7189 -0.145374 5.8742 0
M  V30 1129 H 101.243 -1.06757 6.01195 0
M  V30 1130 H 102.657 1.16849 5.61266 0
M  V30 1131 H 101.054 1.95739 5.6728 0
M  V30 1132 H 102.124 2.25746 4.29147 0
M  V30 1133 N 103.467 -1.45747 0.599634 0
M  V30 1134 C 104.695 -2.06668 0.0978551 0
M  V30 1135 C 105.11 -1.44562 -1.21439 0
M  V30 1136 O 104.467 -0.556923 -1.73795 0
M  V30 1137 C 104.518 -3.61456 -0.0567044 0
M  V30 1138 O 104.239 -4.21242 1.20361 0
M  V30 1139 C 105.74 -4.39345 -0.590869 0
M  V30 1140 H 102.96 -0.667825 0.0651943 0
M  V30 1141 H 105.504 -1.87115 0.82511 0
M  V30 1142 H 103.659 -3.80378 -0.734251 0
M  V30 1143 H 104.073 -5.14323 1.02821 0
M  V30 1144 H 105.547 -5.48182 -0.648131 0
M  V30 1145 H 106.024 -4.08568 -1.61147 0
M  V30 1146 H 106.63 -4.25268 0.0523679 0
M  V30 1147 N 104.945 -0.338344 -1.53925 0
M  V30 1148 C 106.192 0.259758 -2.00827 0
M  V30 1149 C 106.52 1.50973 -1.22628 0
M  V30 1150 O 105.775 1.93379 -0.300509 0
M  V30 1151 C 106.074 0.62448 -3.51902 0
M  V30 1152 C 105.74 -0.528006 -4.47798 0
M  V30 1153 C 104.402 -0.844298 -4.73735 0
M  V30 1154 C 106.754 -1.30143 -5.0469 0
M  V30 1155 C 104.082 -1.93648 -5.53821 0
M  V30 1156 C 106.434 -2.38382 -5.85967 0
M  V30 1157 C 105.098 -2.70576 -6.10201 0
M  V30 1158 H 104.368 0.0950523 -0.734878 0
M  V30 1159 H 107.015 -0.465182 -1.85764 0
M  V30 1160 H 105.32 1.43006 -3.64769 0
M  V30 1161 H 107.017 1.09905 -3.85645 0
M  V30 1162 H 103.607 -0.271421 -4.2774 0
M  V30 1163 H 107.791 -1.07033 -4.84621 0
M  V30 1164 H 103.047 -2.19021 -5.70824 0
M  V30 1165 H 107.221 -2.98746 -6.29066 0
M  V30 1166 H 104.848 -3.55333 -6.72044 0
M  V30 1167 N 106.423 1.57458 -0.0668435 0
M  V30 1168 C 107.648 1.9804 0.616027 0
M  V30 1169 C 108.073 0.944771 1.62652 0
M  V30 1170 O 107.431 -0.0902094 1.81075 0
M  V30 1171 C 107.479 3.37665 1.26549 0
M  V30 1172 O 106.583 3.36701 2.38131 0
M  V30 1173 H 105.924 0.644719 0.158849 0
M  V30 1174 H 108.454 2.04121 -0.139891 0
M  V30 1175 H 108.464 3.7474 1.6135 0
M  V30 1176 H 107.139 4.12573 0.525016 0
M  V30 1177 H 105.716 3.1139 2.0516 0
M  V30 1178 N 107.901 -0.206675 1.56239 0
M  V30 1179 C 108.864 -1.23976 1.92776 0
M  V30 1180 C 109.864 -1.39041 0.807729 0
M  V30 1181 O 111.054 -1.37051 1.0753 0
M  V30 1182 C 108.186 -2.61112 2.19165 0
M  V30 1183 H 109.379 -0.927764 2.85189 0
M  V30 1184 H 106.932 -0.447718 1.4975 0
M  V30 1185 H 107.667 -2.97386 1.29352 0
M  V30 1186 H 107.452 -2.51552 3.00772 0
M  V30 1187 H 108.942 -3.35633 2.48476 0
M  V30 1188 N 109.379 -1.50304 -0.473955 0
M  V30 1189 C 110.309 -1.71886 -1.58042 0
M  V30 1190 C 111.29 -0.567799 -1.60344 0
M  V30 1191 O 112.475 -0.806623 -1.76656 0
M  V30 1192 C 109.605 -1.81036 -2.96384 0
M  V30 1193 C 108.559 -2.962 -3.08949 0
M  V30 1194 C 107.885 -2.9049 -4.48909 0
M  V30 1195 C 109.185 -4.36752 -2.86434 0
M  V30 1196 H 110.879 -2.64527 -1.40234 0
M  V30 1197 H 108.425 -1.27295 -0.673201 0
M  V30 1198 H 110.378 -1.94719 -3.73714 0
M  V30 1199 H 109.102 -0.850147 -3.15341 0
M  V30 1200 H 107.761 -2.82164 -2.3405 0
M  V30 1201 H 107.409 -1.92321 -4.64781 0
M  V30 1202 H 107.109 -3.67802 -4.58253 0
M  V30 1203 H 108.633 -3.06218 -5.28264 0
M  V30 1204 H 110.047 -4.5133 -3.53517 0
M  V30 1205 H 108.444 -5.15493 -3.07225 0
M  V30 1206 H 109.514 -4.49321 -1.82316 0
M  V30 1207 N 110.857 0.726932 -1.39834 0
M  V30 1208 C 111.804 1.841 -1.39197 0
M  V30 1209 C 112.774 1.642 -0.250502 0
M  V30 1210 O 113.959 1.85494 -0.446846 0
M  V30 1211 C 111.099 3.21697 -1.24919 0
M  V30 1212 C 110.212 3.53247 -2.48678 0
M  V30 1213 C 109.347 4.80289 -2.26928 0
M  V30 1214 C 108.386 5.04707 -3.4632 0
M  V30 1215 N 107.523 6.22956 -3.23836 0
M  V30 1216 H 112.363 1.83979 -2.34427 0
M  V30 1217 H 109.9 0.898876 -1.16442 0
M  V30 1218 H 111.858 4.01137 -1.1465 0
M  V30 1219 H 110.488 3.21076 -0.333153 0
M  V30 1220 H 109.54 2.68447 -2.69519 0
M  V30 1221 H 110.852 3.67205 -3.37582 0
M  V30 1222 H 110.006 5.67725 -2.13947 0
M  V30 1223 H 108.745 4.68519 -1.35431 0
M  V30 1224 H 107.75 4.1573 -3.5979 0
M  V30 1225 H 108.975 5.18357 -4.38729 0
M  V30 1226 H 106.921 6.12459 -2.35011 0
M  V30 1227 H 106.838 6.37539 -4.063 0
M  V30 1228 H 108.106 7.1321 -3.14566 0
M  V30 1229 N 112.336 1.25143 0.95797 0
M  V30 1230 C 113.752 1.01892 1.22842 0
M  V30 1231 C 113.952 -0.266311 1.99732 0
M  V30 1232 O 113.008 -0.979913 2.3271 0
M  V30 1233 C 114.321 2.24004 2.00606 0
M  V30 1234 C 115.869 2.28731 2.13662 0
M  V30 1235 C 116.344 3.5049 2.94823 0
M  V30 1236 N 117.835 3.50866 3.02403 0
M  V30 1237 C 118.57 4.4174 3.65586 0
M  V30 1238 N 118.066 5.42882 4.30408 0
M  V30 1239 N 119.859 4.29429 3.62694 0
M  V30 1240 H 112.01 2.07718 0.443493 0
M  V30 1241 H 114.273 0.912031 0.258657 0
M  V30 1242 H 113.979 3.17395 1.51503 0
M  V30 1243 H 113.853 2.26907 3.01319 0
M  V30 1244 H 116.24 1.35865 2.61963 0
M  V30 1245 H 116.321 2.29848 1.12265 0
M  V30 1246 H 115.965 4.43676 2.47213 0
M  V30 1247 H 115.895 3.46617 3.96439 0
M  V30 1248 H 118.386 2.777 2.56302 0
M  V30 1249 H 118.699 6.0844 4.76467 0
M  V30 1250 H 117.044 5.46758 4.29047 0
M  V30 1251 H 120.235 3.49643 3.11236 0
M  V30 1252 H 120.408 5.00448 4.1165 0
M  V30 1253 N 113.814 -1.1601 1.06675 0
M  V30 1254 C 114.764 -2.18512 0.650888 0
M  V30 1255 C 115.748 -1.57677 -0.320441 0
M  V30 1256 O 116.94 -1.76482 -0.135266 0
M  V30 1257 C 114.069 -3.43273 0.0429255 0
M  V30 1258 C 113.155 -4.11176 1.03898 0
M  V30 1259 N 113.546 -4.54672 2.216 0
M  V30 1260 C 111.844 -4.37417 0.870779 0
M  V30 1261 C 112.545 -5.07248 2.84736 0
M  V30 1262 N 111.521 -5.0037 2.12441 0
M  V30 1263 H 115.323 -2.49863 1.54745 0
M  V30 1264 H 112.837 -1.32503 0.938975 0
M  V30 1265 H 114.834 -4.16006 -0.272857 0
M  V30 1266 H 113.494 -3.13408 -0.84884 0
M  V30 1267 H 114.505 -4.4828 2.59356 0
M  V30 1268 H 111.182 -4.17488 0.0313293 0
M  V30 1269 H 112.572 -5.50912 3.84636 0
M  V30 1270 N 115.292 -0.849877 -1.32721 0
M  V30 1271 C 116.539 -0.450923 -1.97416 0
M  V30 1272 C 116.867 0.992376 -1.67279 0
M  V30 1273 O 116.122 1.71048 -0.950845 0
M  V30 1274 C 116.421 -0.631272 -3.51781 0
M  V30 1275 C 116.087 -2.04432 -4.01894 0
M  V30 1276 C 114.749 -2.4308 -4.1529 0
M  V30 1277 C 117.101 -2.96679 -4.28522 0
M  V30 1278 C 114.429 -3.73257 -4.52654 0
M  V30 1279 C 116.781 -4.26349 -4.67343 0
M  V30 1280 C 115.445 -4.64939 -4.78945 0
M  V30 1281 H 114.715 -0.165004 -0.722395 0
M  V30 1282 H 117.362 -1.07901 -1.58207 0
M  V30 1283 H 115.667 0.0800767 -3.91718 0
M  V30 1284 H 117.364 -0.302709 -3.99856 0
M  V30 1285 H 113.954 -1.73419 -3.91949 0
M  V30 1286 H 118.138 -2.68054 -4.17685 0
M  V30 1287 H 113.394 -4.02946 -4.59831 0
M  V30 1288 H 117.568 -4.97895 -4.86902 0
M  V30 1289 H 115.195 -5.65855 -5.07654 0
M  V30 1290 N 116.77 1.45427 -0.607355 0
M  V30 1291 C 117.717 2.3053 0.111625 0
M  V30 1292 C 118.687 1.4209 0.860216 0
M  V30 1293 O 119.872 1.71019 0.845998 0
M  V30 1294 C 117.012 3.26992 1.10319 0
M  V30 1295 C 116.125 4.30535 0.355493 0
M  V30 1296 C 115.26 5.14105 1.33676 0
M  V30 1297 C 114.299 6.09376 0.576862 0
M  V30 1298 N 113.436 6.85727 1.5074 0
M  V30 1299 H 118.276 2.91477 -0.620093 0
M  V30 1300 H 115.813 1.43631 -0.317594 0
M  V30 1301 H 117.771 3.81385 1.6912 0
M  V30 1302 H 116.401 2.67799 1.80232 0
M  V30 1303 H 115.453 3.78805 -0.348023 0
M  V30 1304 H 116.765 4.98235 -0.237423 0
M  V30 1305 H 115.919 5.72897 1.99684 0
M  V30 1306 H 114.658 4.46423 1.9636 0
M  V30 1307 H 113.663 5.49715 -0.0968519 0
M  V30 1308 H 114.888 6.79085 -0.0449341 0
M  V30 1309 H 112.834 6.20735 2.12189 0
M  V30 1310 H 112.751 7.49778 0.967913 0
M  V30 1311 H 114.019 7.4906 2.15706 0
M  V30 1312 N 118.248 0.346503 1.53744 0
M  V30 1313 C 119.178 -0.501193 2.28058 0
M  V30 1314 C 120.159 -1.10014 1.29734 0
M  V30 1315 O 121.344 -1.12097 1.58581 0
M  V30 1316 C 118.474 -1.65078 3.05559 0
M  V30 1317 C 117.428 -1.18003 4.11411 0
M  V30 1318 C 116.754 -2.41837 4.76884 0
M  V30 1319 C 118.054 -0.278394 5.21558 0
M  V30 1320 H 119.748 0.11875 2.99164 0
M  V30 1321 H 117.294 0.0585531 1.43881 0
M  V30 1322 H 119.247 -2.25028 3.56287 0
M  V30 1323 H 117.971 -2.29767 2.32109 0
M  V30 1324 H 116.63 -0.603331 3.61601 0
M  V30 1325 H 116.278 -3.0494 4.00026 0
M  V30 1326 H 115.978 -2.1102 5.48402 0
M  V30 1327 H 117.502 -3.02508 5.30397 0
M  V30 1328 H 118.916 -0.784823 5.67903 0
M  V30 1329 H 117.313 -0.0619707 6.00068 0
M  V30 1330 H 118.383 0.684677 4.80042 0
M  V30 1331 N 119.726 -1.57421 0.075193 0
M  V30 1332 C 120.956 -1.97659 -0.601203 0
M  V30 1333 C 121.364 -0.952427 -1.63479 0
M  V30 1334 O 120.707 0.0688241 -1.83571 0
M  V30 1335 C 120.769 -3.34218 -1.32434 0
M  V30 1336 C 120.433 -4.5484 -0.443826 0
M  V30 1337 C 121.43 -5.19034 0.299969 0
M  V30 1338 C 119.115 -5.00952 -0.367709 0
M  V30 1339 C 121.109 -6.27695 1.10807 0
M  V30 1340 C 118.796 -6.09484 0.444058 0
M  V30 1341 C 119.794 -6.72719 1.18061 0
M  V30 1342 O 119.482 -7.79161 1.97898 0
M  V30 1343 H 119.214 -0.65494 -0.167422 0
M  V30 1344 H 121.768 -2.04886 0.145157 0
M  V30 1345 H 119.998 -3.23615 -2.11685 0
M  V30 1346 H 121.687 -3.59038 -1.89331 0
M  V30 1347 H 122.453 -4.84351 0.250776 0
M  V30 1348 H 118.332 -4.51509 -0.930638 0
M  V30 1349 H 121.876 -6.76982 1.68347 0
M  V30 1350 H 117.773 -6.43601 0.494803 0
M  V30 1351 H 118.541 -7.96055 1.90367 0
M  V30 1352 N 121.204 0.198386 -1.56346 0
M  V30 1353 C 122.134 1.24865 -1.9731 0
M  V30 1354 C 123.115 1.47651 -0.844576 0
M  V30 1355 O 124.3 1.59444 -1.10866 0
M  V30 1356 C 121.43 2.59358 -2.30977 0
M  V30 1357 C 120.384 2.5119 -3.46537 0
M  V30 1358 C 119.71 3.89926 -3.65871 0
M  V30 1359 C 121.01 2.03977 -4.80823 0
M  V30 1360 H 122.704 0.908252 -2.85291 0
M  V30 1361 H 120.25 0.435462 -1.37258 0
M  V30 1362 H 122.203 3.33011 -2.58228 0
M  V30 1363 H 120.927 2.95132 -1.39874 0
M  V30 1364 H 119.586 1.79993 -3.19371 0
M  V30 1365 H 119.234 4.23046 -2.72105 0
M  V30 1366 H 118.934 3.85336 -4.4361 0
M  V30 1367 H 120.458 4.65205 -3.95495 0
M  V30 1368 H 121.872 2.67386 -5.07127 0
M  V30 1369 H 120.269 2.10397 -5.62008 0
M  V30 1370 H 121.339 0.992861 -4.74626 0
M  V30 1371 N 122.682 1.50554 0.465978 0
M  V30 1372 C 123.91 1.65563 1.24083 0
M  V30 1373 C 124.325 0.341051 1.85694 0
M  V30 1374 O 123.682 -0.677543 1.69457 0
M  V30 1375 C 123.733 2.75051 2.34583 0
M  V30 1376 O 123.454 4.01413 1.75497 0
M  V30 1377 C 124.955 3.01078 3.25372 0
M  V30 1378 H 122.175 0.55638 0.375077 0
M  V30 1379 H 124.719 1.96807 0.555624 0
M  V30 1380 H 122.874 2.46486 2.9887 0
M  V30 1381 H 123.288 4.62002 2.48303 0
M  V30 1382 H 124.762 3.81339 3.99105 0
M  V30 1383 H 125.239 2.12349 3.84453 0
M  V30 1384 H 125.845 3.31194 2.66816 0
M  V30 1385 N 124.16 -0.719506 1.40217 0
M  V30 1386 C 125.385 -1.51371 1.4178 0
M  V30 1387 C 125.81 -1.88091 0.0182355 0
M  V30 1388 O 125.168 -1.52997 -0.972707 0
M  V30 1389 C 125.216 -2.768 2.31115 0
M  V30 1390 O 124.32 -3.73349 1.7517 0
M  V30 1391 H 123.661 -0.456529 0.482159 0
M  V30 1392 H 126.191 -0.88644 1.844 0
M  V30 1393 H 126.201 -3.25371 2.46167 0
M  V30 1394 H 124.876 -2.49407 3.3282 0
M  V30 1395 H 123.453 -3.32179 1.69444 0
M  V30 1396 N 125.638 -1.25649 -0.95132 0
M  V30 1397 C 126.863 -1.13443 -1.73624 0
M  V30 1398 C 127.288 0.307565 -1.85568 0
M  V30 1399 O 126.646 1.22282 -1.33854 0
M  V30 1400 C 126.694 -1.79723 -3.12621 0
M  V30 1401 O 125.798 -1.07912 -3.98031 0
M  V30 1402 H 125.139 -0.395872 -0.533086 0
M  V30 1403 H 127.669 -1.66276 -1.1922 0
M  V30 1404 H 127.679 -1.86141 -3.63064 0
M  V30 1405 H 126.354 -2.84633 -3.03244 0
M  V30 1406 H 124.931 -1.09398 -3.56492 0
M  V30 1407 N 127.117 1.15442 -1.07289 0
M  V30 1408 C 128.345 1.90096 -0.81676 0
M  V30 1409 C 128.76 1.7798 0.629966 0
M  V30 1410 O 128.117 1.1313 1.43206 0
M  V30 1411 C 128.168 3.40466 -1.21512 0
M  V30 1412 O 127.889 3.52232 -2.60508 0
M  V30 1413 C 129.39 4.32145 -0.988198 0
M  V30 1414 H 126.61 0.602495 -0.295366 0
M  V30 1415 H 129.154 1.4627 -1.42918 0
M  V30 1416 H 127.309 3.81958 -0.647039 0
M  V30 1417 H 127.723 4.45549 -2.76742 0
M  V30 1418 H 129.197 5.36072 -1.31645 0
M  V30 1419 H 129.674 4.39135 0.0755063 0
M  V30 1420 H 130.28 3.96395 -1.54115 0
M  V30 1421 N 128.595 0.856903 1.32268 0
M  V30 1422 C 129.505 0.306131 2.32594 0
M  V30 1423 C 130.521 -0.577209 1.64147 0
M  V30 1424 O 131.697 -0.477043 1.95669 0
M  V30 1425 C 128.762 -0.494561 3.43154 0
M  V30 1426 C 127.823 0.415186 4.27288 0
M  V30 1427 C 127.056 -0.347387 5.32568 0
M  V30 1428 O 127.279 -1.57708 5.48165 0
M  V30 1429 O 126.213 0.287982 6.01211 0
M  V30 1430 H 130.039 1.13737 2.81598 0
M  V30 1431 H 127.624 0.619902 1.35932 0
M  V30 1432 H 129.506 -0.948944 4.10576 0
M  V30 1433 H 128.181 -1.30257 2.96336 0
M  V30 1434 H 127.088 0.917793 3.62667 0
M  V30 1435 H 128.421 1.18844 4.77637 0
M  V30 1436 N 130.073 -1.45103 0.615059 0
M  V30 1437 C 131.489 -1.57137 0.279322 0
M  V30 1438 C 131.689 -1.60523 -1.21797 0
M  V30 1439 O 130.745 -1.53956 -2.00134 0
M  V30 1440 C 132.058 -2.85062 0.957083 0
M  V30 1441 C 133.606 -2.98749 0.933706 0
M  V30 1442 C 134.081 -4.29455 1.59162 0
M  V30 1443 N 135.572 -4.36231 1.55746 0
M  V30 1444 C 136.307 -5.36051 2.0356 0
M  V30 1445 N 135.803 -6.42367 2.59494 0
M  V30 1446 N 137.596 -5.27456 1.94284 0
M  V30 1447 H 129.747 -1.41148 1.58717 0
M  V30 1448 H 132.01 -0.675331 0.665306 0
M  V30 1449 H 131.716 -2.88488 2.01166 0
M  V30 1450 H 131.59 -3.7407 0.48494 0
M  V30 1451 H 133.977 -2.94886 -0.112347 0
M  V30 1452 H 134.058 -2.11132 1.44419 0
M  V30 1453 H 133.702 -4.34077 2.63704 0
M  V30 1454 H 133.632 -5.15901 1.0561 0
M  V30 1455 H 136.123 -3.60011 1.14893 0
M  V30 1456 H 136.436 -7.14793 2.93752 0
M  V30 1457 H 134.781 -6.43097 2.63537 0
M  V30 1458 H 137.972 -4.43308 1.5032 0
M  V30 1459 H 138.145 -6.05099 2.3186 0
M  V30 1460 N 131.551 -0.354651 -1.53558 0
M  V30 1461 C 132.798 0.238443 -2.01091 0
M  V30 1462 C 133.126 1.49663 -1.24222 0
M  V30 1463 O 132.381 1.93049 -0.321003 0
M  V30 1464 C 132.68 0.587121 -3.52545 0
M  V30 1465 C 132.346 -0.575472 -4.47213 0
M  V30 1466 C 131.008 -0.894497 -4.72813 0
M  V30 1467 C 133.36 -1.35489 -5.03281 0
M  V30 1468 C 130.688 -1.99511 -5.51736 0
M  V30 1469 C 133.04 -2.44583 -5.83405 0
M  V30 1470 C 131.704 -2.77033 -6.07296 0
M  V30 1471 H 130.974 0.0872526 -0.735845 0
M  V30 1472 H 133.621 -0.484859 -1.8526 0
M  V30 1473 H 131.926 1.39129 -3.66265 0
M  V30 1474 H 133.623 1.05809 -3.86789 0
M  V30 1475 H 130.213 -0.316774 -4.27428 0
M  V30 1476 H 134.397 -1.12167 -4.83459 0
M  V30 1477 H 129.653 -2.25063 -5.68469 0
M  V30 1478 H 133.827 -3.05401 -6.25862 0
M  V30 1479 H 131.454 -3.6244 -6.68237 0
M  V30 1480 N 133.029 1.57378 -0.0835403 0
M  V30 1481 C 134.254 1.98682 0.594987 0
M  V30 1482 C 134.679 0.961969 1.61641 0
M  V30 1483 O 134.037 -0.0709989 1.81161 0
M  V30 1484 C 134.085 3.38988 1.2296 0
M  V30 1485 O 133.189 3.39208 2.34546 0
M  V30 1486 H 132.53 0.646368 0.152002 0
M  V30 1487 H 135.06 2.03961 -0.161533 0
M  V30 1488 H 135.07 3.76431 1.57366 0
M  V30 1489 H 133.745 4.13107 0.481228 0
M  V30 1490 H 132.322 3.13548 2.01846 0
M  V30 1491 N 134.507 -0.190092 1.56449 0
M  V30 1492 C 135.439 -1.25973 1.91477 0
M  V30 1493 C 136.452 -1.41452 0.805931 0
M  V30 1494 O 137.641 -1.41789 1.08435 0
M  V30 1495 C 134.741 -2.63117 2.13594 0
M  V30 1496 C 133.914 -2.69182 3.4476 0
M  V30 1497 C 132.973 -3.87557 3.5593 0
M  V30 1498 O 131.999 -3.74427 4.28711 0
M  V30 1499 N 133.201 -5.03224 2.89388 0
M  V30 1500 H 135.966 -0.962394 2.83828 0
M  V30 1501 H 133.527 -0.379981 1.57378 0
M  V30 1502 H 135.519 -3.40742 2.1835 0
M  V30 1503 H 134.089 -2.85319 1.27719 0
M  V30 1504 H 133.309 -1.77793 3.51828 0
M  V30 1505 H 134.597 -2.70229 4.31107 0
M  V30 1506 H 133.995 -5.16791 2.30094 0
M  V30 1507 H 132.552 -5.78778 2.99764 0
M  V30 1508 N 135.985 -1.50799 -0.457987 0
M  V30 1509 C 136.933 -1.71162 -1.575 0
M  V30 1510 C 137.927 -0.577592 -1.59249 0
M  V30 1511 O 139.133 -0.758443 -1.63241 0
M  V30 1512 H 135.508 -0.540468 -0.522875 0
M  V30 1513 H 137.479 -2.64837 -1.37492 0
M  V30 1514 C 136.228 -1.83496 -2.95338 0
M  V30 1515 H 135.551 -2.70153 -2.94716 0
M  V30 1516 H 136.991 -2.01765 -3.72917 0
M  V30 1517 C 135.45 -0.589694 -3.31699 0
M  V30 1518 O 135.98 0.265163 -4.00824 0
M  V30 1519 N 134.186 -0.439845 -2.87252 0
M  V30 1520 H 133.733 -1.13655 -2.31172 0
M  V30 1521 H 133.691 0.392159 -3.11945 0
M  V30 1522 N 137.463 0.71206 -1.40597 0
M  V30 1523 C 138.71 1.47197 -1.39065 0
M  V30 1524 C 139.038 1.94499 0.00583891 0
M  V30 1525 O 138.293 1.68752 0.99102 0
M  V30 1526 C 138.592 2.71039 -2.32965 0
M  V30 1527 C 138.258 2.42484 -3.80148 0
M  V30 1528 C 136.92 2.34406 -4.20247 0
M  V30 1529 C 139.272 2.18598 -4.73143 0
M  V30 1530 C 136.6 2.00516 -5.51371 0
M  V30 1531 C 138.952 1.8622 -6.0457 0
M  V30 1532 C 137.616 1.76626 -6.43708 0
M  V30 1533 H 136.886 0.538634 -0.508876 0
M  V30 1534 H 139.533 0.815325 -1.73276 0
M  V30 1535 H 137.838 3.41558 -1.91951 0
M  V30 1536 H 139.535 3.29138 -2.29061 0
M  V30 1537 H 136.125 2.49659 -3.4838 0
M  V30 1538 H 140.309 2.23793 -4.42979 0
M  V30 1539 H 135.565 1.91628 -5.80593 0
M  V30 1540 H 139.739 1.66752 -6.76141 0
M  V30 1541 H 137.366 1.50133 -7.45228 0
M  V30 1542 N 138.941 1.26152 0.944643 0
M  V30 1543 C 139.888 1.07408 2.04285 0
M  V30 1544 C 140.858 -0.0198413 1.66088 0
M  V30 1545 O 142.043 0.139264 1.90291 0
M  V30 1546 C 139.183 0.70945 3.37729 0
M  V30 1547 C 138.296 1.87926 3.88983 0
M  V30 1548 C 137.431 1.45807 5.10797 0
M  V30 1549 C 136.47 2.5964 5.54305 0
M  V30 1550 N 135.607 2.18226 6.67324 0
M  V30 1551 H 140.447 2.01389 2.1965 0
M  V30 1552 H 137.984 1.00275 1.07626 0
M  V30 1553 H 139.942 0.478948 4.14442 0
M  V30 1554 H 138.572 -0.193389 3.2222 0
M  V30 1555 H 137.624 2.22279 3.08701 0
M  V30 1556 H 138.936 2.73377 4.17213 0
M  V30 1557 H 138.09 1.18781 5.94959 0
M  V30 1558 H 136.829 0.574414 4.84305 0
M  V30 1559 H 135.834 2.87399 4.68702 0
M  V30 1560 H 137.059 3.48599 5.828 0
M  V30 1561 H 135.005 1.3229 6.42523 0
M  V30 1562 H 134.922 2.97221 6.95123 0
M  V30 1563 H 136.19 1.94403 7.54869 0
M  V30 1564 N 140.419 -1.14872 1.07899 0
M  V30 1565 C 141.665 -1.86064 0.806725 0
M  V30 1566 C 141.998 -1.82434 -0.665706 0
M  V30 1567 O 141.273 -1.25138 -1.48899 0
M  V30 1568 C 141.556 -3.34929 1.32267 0
M  V30 1569 C 141.409 -3.47161 2.86006 0
M  V30 1570 C 142.728 -4.29863 0.943717 0
M  V30 1571 H 139.847 -0.675591 0.294526 0
M  V30 1572 H 142.489 -1.34925 1.33773 0
M  V30 1573 H 140.639 -3.78611 0.870974 0
M  V30 1574 H 142.311 -3.12302 3.39507 0
M  V30 1575 H 140.554 -2.88539 3.23925 0
M  V30 1576 H 141.225 -4.51777 3.17177 0
M  V30 1577 H 143.701 -3.9417 1.33302 0
M  V30 1578 H 142.577 -5.32494 1.33198 0
M  V30 1579 H 142.838 -4.41846 -0.149796 0
M  V30 1580 N 141.898 -0.863906 -1.31812 0
M  V30 1581 C 143.144 -0.472535 -1.97218 0
M  V30 1582 C 143.477 0.971394 -1.68159 0
M  V30 1583 O 142.752 1.68309 -0.974798 0
M  V30 1584 C 143.035 -0.723054 -3.52766 0
M  V30 1585 C 142.888 -2.21608 -3.91421 0
M  V30 1586 C 144.207 -0.185522 -4.39709 0
M  V30 1587 H 141.326 -0.173158 -0.71637 0
M  V30 1588 H 143.968 -1.08403 -1.56041 0
M  V30 1589 H 142.118 -0.202577 -3.87971 0
M  V30 1590 H 143.79 -2.80334 -3.66347 0
M  V30 1591 H 142.033 -2.691 -3.40246 0
M  V30 1592 H 142.704 -2.34203 -4.99853 0
M  V30 1593 H 145.18 -0.630726 -4.11292 0
M  V30 1594 H 144.056 -0.390306 -5.47511 0
M  V30 1595 H 144.317 0.912229 -4.32586 0
M  V30 1596 N 143.376 1.44774 -0.622745 0
M  V30 1597 C 144.622 2.0242 -0.124083 0
M  V30 1598 C 144.955 1.4881 1.24777 0
M  V30 1599 O 144.23 0.668799 1.8264 0
M  V30 1600 C 144.513 3.59957 -0.101619 0
M  V30 1601 C 144.366 4.23867 -1.50521 0
M  V30 1602 C 145.685 4.36284 0.578272 0
M  V30 1603 H 142.804 0.735528 -0.0465645 0
M  V30 1604 H 145.446 1.72447 -0.797617 0
M  V30 1605 H 143.596 3.85623 0.471934 0
M  V30 1606 H 145.268 4.09336 -2.12701 0
M  V30 1607 H 143.511 3.81684 -2.06154 0
M  V30 1608 H 144.182 5.32843 -1.4416 0
M  V30 1609 H 146.658 4.16001 0.0906057 0
M  V30 1610 H 145.534 5.46004 0.563149 0
M  V30 1611 H 145.795 4.10271 1.64713 0
M  V30 1612 N 144.854 0.36279 1.53368 0
M  V30 1613 C 146.1 -0.228113 2.01513 0
M  V30 1614 C 146.433 -1.48648 1.2497 0
M  V30 1615 O 145.708 -1.91459 0.342616 0
M  V30 1616 C 145.991 -0.522884 3.56284 0
M  V30 1617 C 145.844 0.74892 4.43521 0
M  V30 1618 C 147.163 -1.32461 4.19693 0
M  V30 1619 H 144.282 -0.0814343 0.732487 0
M  V30 1620 H 146.924 0.48713 1.83649 0
M  V30 1621 H 145.074 -1.1322 3.71636 0
M  V30 1622 H 146.746 1.38648 4.39971 0
M  V30 1623 H 144.989 1.36986 4.11603 0
M  V30 1624 H 145.66 0.497667 5.49752 0
M  V30 1625 H 148.136 -0.809203 4.08156 0
M  V30 1626 H 147.012 -1.49961 5.28018 0
M  V30 1627 H 147.273 -2.33232 3.75573 0
M  V30 1628 N 146.332 -1.57332 0.0918853 0
M  V30 1629 C 147.609 -1.85691 -0.614668 0
M  V30 1630 C 147.989 -0.988146 -1.86545 0
M  V30 1631 O 147.337 -0.0597055 -2.28422 0
M  V30 1632 C 147.547 -3.36294 -0.933126 0
M  V30 1633 C 148.895 -4.04275 -1.29796 0
M  V30 1634 O 149.919 -3.41157 -1.02424 0
M  V30 1635 O 148.778 -5.1564 -1.81047 0
M  V30 1636 H 145.872 -0.767802 -0.307261 0
M  V30 1637 H 148.418 -1.69244 0.12434 0
M  V30 1638 H 147.19 -3.91273 -0.0456404 0
M  V30 1639 H 146.813 -3.58076 -1.72822 0
M  V30 1640 N 147.81 0.181792 -1.56548 0
M  V30 1641 C 149.058 0.89832 -1.81038 0
M  V30 1642 C 149.379 1.83232 -0.667164 0
M  V30 1643 O 148.649 1.93372 0.313673 0
M  V30 1644 H 147.229 0.33471 -0.667816 0
M  V30 1645 H 149.891 0.184116 -1.94028 0
M  V30 1646 H 148.987 1.4815 -2.74696 0
M  V30 1647 N 149.288 1.51039 0.449983 0
M  V30 1648 C 150.235 1.71439 1.54523 0
M  V30 1649 C 151.205 0.555871 1.56522 0
M  V30 1650 O 152.39 0.788871 1.73728 0
M  V30 1651 C 149.53 1.83384 2.92343 0
M  V30 1652 C 148.643 3.10873 2.9997 0
M  V30 1653 C 147.778 3.13488 4.28834 0
M  V30 1654 C 146.817 4.35343 4.30282 0
M  V30 1655 N 145.954 4.35579 5.5065 0
M  V30 1656 H 150.794 2.64934 1.36433 0
M  V30 1657 H 148.331 1.31312 0.662982 0
M  V30 1658 H 150.289 1.88291 3.72293 0
M  V30 1659 H 148.919 0.933086 3.0902 0
M  V30 1660 H 147.971 3.15336 2.12761 0
M  V30 1661 H 149.283 4.00814 2.96901 0
M  V30 1662 H 148.437 3.17241 5.17149 0
M  V30 1663 H 147.176 2.21414 4.34543 0
M  V30 1664 H 146.181 4.3178 3.40362 0
M  V30 1665 H 147.406 5.28668 4.26248 0
M  V30 1666 H 145.352 3.46369 5.57104 0
M  V30 1667 H 145.269 5.19313 5.49409 0
M  V30 1668 H 146.537 4.43507 6.41032 0
M  V30 1669 N 150.766 -0.704594 1.40972 0
M  V30 1670 C 151.714 -1.83994 1.42299 0
M  V30 1671 C 152.708 -1.66684 0.302111 0
M  V30 1672 O 153.914 -1.73655 0.473697 0
M  V30 1673 H 150.289 -0.606171 0.44504 0
M  V30 1674 H 152.26 -1.79992 2.38003 0
M  V30 1675 C 151.009 -3.21946 1.31323 0
M  V30 1676 H 150.332 -3.35878 2.16855 0
M  V30 1677 H 151.772 -4.01491 1.36311 0
M  V30 1678 C 150.231 -3.36891 0.0245977 0
M  V30 1679 O 150.761 -3.90687 -0.934153 0
M  V30 1680 N 148.967 -2.90559 -0.0485243 0
M  V30 1681 H 148.514 -2.46968 0.732419 0
M  V30 1682 H 148.472 -3.00937 -0.910171 0
M  V30 1683 N 152.244 -1.26651 -0.937939 0
M  V30 1684 C 153.154 -1.10276 -2.07066 0
M  V30 1685 C 154.17 -0.0354197 -1.73964 0
M  V30 1686 O 155.346 -0.239816 -1.99967 0
M  V30 1687 C 152.411 -0.740887 -3.38691 0
M  V30 1688 C 151.472 -1.88799 -3.85556 0
M  V30 1689 C 150.705 -1.54329 -5.10899 0
M  V30 1690 O 150.928 -0.446494 -5.6865 0
M  V30 1691 O 149.862 -2.37911 -5.52885 0
M  V30 1692 H 153.688 -2.05309 -2.23789 0
M  V30 1693 H 151.273 -1.05743 -1.0554 0
M  V30 1694 H 153.155 -0.55195 -4.1777 0
M  V30 1695 H 151.83 0.180022 -3.23199 0
M  V30 1696 H 150.737 -2.13191 -3.07409 0
M  V30 1697 H 152.07 -2.78874 -4.05574 0
M  V30 1698 N 153.722 1.14298 -1.08507 0
M  V30 1699 C 154.947 1.8976 -0.837001 0
M  V30 1700 C 155.372 1.78097 0.605228 0
M  V30 1701 O 154.73 1.12188 1.4242 0
M  V30 1702 C 154.778 3.37685 -1.26495 0
M  V30 1703 O 153.882 4.10281 -0.417514 0
M  V30 1704 H 153.223 0.590365 -0.303917 0
M  V30 1705 H 155.753 1.44672 -1.44676 0
M  V30 1706 H 155.763 3.88501 -1.24625 0
M  V30 1707 H 154.438 3.45492 -2.31534 0
M  V30 1708 H 153.015 3.69536 -0.499722 0
M  V30 1709 N 155.201 0.870884 1.31352 0
M  V30 1710 C 156.111 0.330783 2.32256 0
M  V30 1711 C 157.127 -0.559767 1.6475 0
M  V30 1712 O 158.303 -0.456263 1.96164 0
M  V30 1713 C 155.368 -0.458137 3.4366 0
M  V30 1714 C 154.429 0.460482 4.26823 0
M  V30 1715 C 153.662 -0.290881 5.32907 0
M  V30 1716 O 153.885 -1.51885 5.49806 0
M  V30 1717 O 152.819 0.351732 6.00871 0
M  V30 1718 H 156.645 1.16718 2.80376 0
M  V30 1719 H 154.23 0.634285 1.35267 0
M  V30 1720 H 156.112 -0.905343 4.1156 0
M  V30 1721 H 154.787 -1.27106 2.97701 0
M  V30 1722 H 153.694 0.956207 3.61673 0
M  V30 1723 H 155.027 1.23903 4.7635 0
M  V30 1724 N 156.679 -1.44442 0.630414 0
M  V30 1725 C 157.909 -2.06115 0.141465 0
M  V30 1726 C 158.317 -1.47179 -1.1889 0
M  V30 1727 O 157.66 -0.588873 -1.74006 0
M  V30 1728 C 157.722 -3.59467 -0.0484355 0
M  V30 1729 C 157.386 -4.40864 1.20366 0
M  V30 1730 C 158.383 -4.74391 2.12719 0
M  V30 1731 C 156.068 -4.8125 1.43887 0
M  V30 1732 C 158.062 -5.47186 3.26904 0
M  V30 1733 C 155.749 -5.53795 2.5837 0
M  V30 1734 C 156.747 -5.86682 3.49705 0
M  V30 1735 O 156.435 -6.57749 4.62191 0
M  V30 1736 H 156.167 -0.671648 0.0765792 0
M  V30 1737 H 158.721 -1.86312 0.864695 0
M  V30 1738 H 156.951 -3.77758 -0.826803 0
M  V30 1739 H 158.64 -4.02909 -0.491849 0
M  V30 1740 H 159.406 -4.43728 1.95781 0
M  V30 1741 H 155.285 -4.55073 0.736853 0
M  V30 1742 H 158.829 -5.72773 3.98217 0
M  V30 1743 H 154.726 -5.83872 2.75251 0
M  V30 1744 H 155.494 -6.76217 4.61164 0
M  V30 1745 N 158.157 -0.370918 -1.53173 0
M  V30 1746 C 159.385 0.217704 -2.05751 0
M  V30 1747 C 159.8 1.42018 -1.24404 0
M  V30 1748 O 159.157 1.80245 -0.286033 0
M  V30 1749 C 159.208 0.605954 -3.56385 0
M  V30 1750 O 158.929 -0.548734 -4.3465 0
M  V30 1751 C 160.43 1.2524 -4.25241 0
M  V30 1752 H 157.65 0.0371659 -0.66997 0
M  V30 1753 H 160.194 -0.530832 -1.9749 0
M  V30 1754 H 158.349 1.3044 -3.6478 0
M  V30 1755 H 158.763 -0.23376 -5.23979 0
M  V30 1756 H 160.237 1.47458 -5.3194 0
M  V30 1757 H 160.714 2.2143 -3.79296 0
M  V30 1758 H 161.32 0.595233 -4.21114 0
M  V30 1759 N 159.635 1.57281 -0.100228 0
M  V30 1760 C 160.881 1.94826 0.563101 0
M  V30 1761 C 161.214 0.982475 1.67514 0
M  V30 1762 O 160.489 0.0164069 1.94493 0
M  V30 1763 C 160.772 3.42453 1.11346 0
M  V30 1764 C 160.625 4.498 0.00612081 0
M  V30 1765 C 161.944 3.91506 2.01024 0
M  V30 1766 H 159.063 0.708428 0.203221 0
M  V30 1767 H 161.705 1.8922 -0.171979 0
M  V30 1768 H 159.855 3.47361 1.7399 0
M  V30 1769 H 161.527 4.57 -0.628357 0
M  V30 1770 H 159.77 4.28756 -0.659581 0
M  V30 1771 H 160.441 5.50306 0.432109 0
M  V30 1772 H 162.917 3.88784 1.48278 0
M  V30 1773 H 161.793 4.95358 2.36457 0
M  V30 1774 H 162.054 3.31099 2.92961 0
M  V30 1775 N 161.113 -0.173488 1.56642 0
M  V30 1776 C 162.06 -1.21482 1.96242 0
M  V30 1777 C 163.03 -1.44104 0.826027 0
M  V30 1778 O 164.215 -1.5688 1.08597 0
M  V30 1779 C 161.355 -2.54964 2.32567 0
M  V30 1780 C 160.468 -2.39739 3.59373 0
M  V30 1781 C 159.603 -3.66072 3.84921 0
M  V30 1782 C 158.642 -3.45771 5.05083 0
M  V30 1783 N 157.779 -4.64169 5.26775 0
M  V30 1784 H 162.619 -0.870123 2.85014 0
M  V30 1785 H 160.156 -0.418245 1.41029 0
M  V30 1786 H 162.114 -3.32758 2.5165 0
M  V30 1787 H 160.744 -2.87433 1.46908 0
M  V30 1788 H 159.796 -1.53131 3.48217 0
M  V30 1789 H 161.108 -2.20683 4.47326 0
M  V30 1790 H 160.262 -4.52303 4.0436 0
M  V30 1791 H 159.001 -3.88105 2.9534 0
M  V30 1792 H 158.006 -2.57927 4.85545 0
M  V30 1793 H 159.231 -3.25163 5.96193 0
M  V30 1794 H 157.177 -4.86425 4.40144 0
M  V30 1795 H 157.094 -4.48019 6.08946 0
M  V30 1796 H 158.362 -5.51689 5.5069 0
M  V30 1797 N 162.591 -1.51276 -0.441967 0
M  V30 1798 C 163.837 -1.6492 -1.1905 0
M  V30 1799 C 164.192 -0.358731 -1.89026 0
M  V30 1800 O 163.485 0.645193 -1.8041 0
M  V30 1801 C 163.679 -2.78746 -2.23686 0
M  V30 1802 C 163.508 -4.18737 -1.63979 0
M  V30 1803 C 162.278 -4.84739 -1.42674 0
M  V30 1804 C 164.476 -5.01988 -1.11858 0
M  V30 1805 N 162.458 -6.08858 -0.785159 0
M  V30 1806 C 163.829 -6.17071 -0.601989 0
M  V30 1807 C 165.884 -4.87551 -1.0099 0
M  V30 1808 C 164.587 -7.19299 0.0126012 0
M  V30 1809 C 166.613 -5.89983 -0.409206 0
M  V30 1810 C 165.975 -7.04333 0.0968651 0
M  V30 1811 H 162.074 -0.657416 -0.423471 0
M  V30 1812 H 164.658 -1.8849 -0.48782 0
M  V30 1813 H 162.829 -2.56848 -2.91348 0
M  V30 1814 H 164.561 -2.81595 -2.90666 0
M  V30 1815 H 161.316 -4.42528 -1.68719 0
M  V30 1816 H 161.74 -6.75282 -0.481942 0
M  V30 1817 H 166.382 -3.99401 -1.38703 0
M  V30 1818 H 164.1 -8.071 0.401879 0
M  V30 1819 H 167.686 -5.8088 -0.327079 0
M  V30 1820 H 166.566 -7.82238 0.554373 0
M  V30 1821 N 164.069 0.697108 -1.41344 0
M  V30 1822 C 165.001 1.8224 -1.39001 0
M  V30 1823 C 166.014 1.60152 -0.292428 0
M  V30 1824 O 167.203 1.69684 -0.554048 0
M  V30 1825 C 164.303 3.18976 -1.14489 0
M  V30 1826 C 163.476 3.68105 -2.36258 0
M  V30 1827 C 162.535 4.83506 -2.07625 0
M  V30 1828 O 161.561 4.95201 -2.8065 0
M  V30 1829 N 162.763 5.70637 -1.06555 0
M  V30 1830 H 165.528 1.84742 -2.35988 0
M  V30 1831 H 163.089 0.87937 -1.35936 0
M  V30 1832 H 165.081 3.93801 -0.932885 0
M  V30 1833 H 163.651 3.11508 -0.261043 0
M  V30 1834 H 162.871 2.84204 -2.7317 0
M  V30 1835 H 164.159 3.97667 -3.17393 0
M  V30 1836 H 163.557 5.63817 -0.461125 0
M  V30 1837 H 162.114 6.45368 -0.913444 0
M  V30 1838 N 165.547 1.27147 0.931209 0
M  V30 1839 C 166.824 1.0401 1.65654 0
M  V30 1840 C 167.204 -0.426297 2.06751 0
M  V30 1841 O 166.552 -1.40879 1.79904 0
M  V30 1842 C 166.762 1.99834 2.86125 0
M  V30 1843 C 168.11 2.29007 3.57549 0
M  V30 1844 O 169.134 1.97779 2.96246 0
M  V30 1845 O 167.993 2.82222 4.67989 0
M  V30 1846 H 165.087 0.396239 0.725895 0
M  V30 1847 H 167.633 1.38397 0.982056 0
M  V30 1848 H 166.405 2.98744 2.52721 0
M  V30 1849 H 166.028 1.65987 3.61295 0
M  V30 1850 N 167.025 -1.13721 1.09112 0
M  V30 1851 C 168.272 -1.84924 0.825192 0
M  V30 1852 C 168.6 -1.83347 -0.649151 0
M  V30 1853 O 167.855 -1.26449 -1.49362 0
M  V30 1854 C 168.154 -3.32861 1.30146 0
M  V30 1855 C 167.82 -3.54621 2.78486 0
M  V30 1856 C 166.482 -3.60268 3.18999 0
M  V30 1857 C 168.834 -3.62855 3.74146 0
M  V30 1858 C 166.162 -3.71679 4.53951 0
M  V30 1859 C 168.514 -3.75793 5.08883 0
M  V30 1860 C 167.178 -3.79692 5.4899 0
M  V30 1861 H 166.448 -0.676684 0.301959 0
M  V30 1862 H 169.095 -1.3428 1.36533 0
M  V30 1863 H 167.4 -3.85835 0.681064 0
M  V30 1864 H 169.097 -3.86395 1.07236 0
M  V30 1865 H 165.687 -3.50879 2.46134 0
M  V30 1866 H 169.871 -3.57775 3.43963 0
M  V30 1867 H 165.127 -3.72963 4.84467 0
M  V30 1868 H 169.301 -3.81107 5.82864 0
M  V30 1869 H 166.928 -3.88287 6.53558 0
M  V30 1870 N 168.503 -0.877838 -1.30888 0
M  V30 1871 C 169.75 -0.492696 -1.96415 0
M  V30 1872 C 170.078 0.956671 -1.69346 0
M  V30 1873 O 169.333 1.68993 -0.986913 0
M  V30 1874 C 169.632 -0.705748 -3.50363 0
M  V30 1875 C 169.298 -2.1291 -3.97467 0
M  V30 1876 C 167.96 -2.51834 -4.1004 0
M  V30 1877 C 170.312 -3.05702 -4.22132 0
M  V30 1878 C 167.64 -3.82775 -4.44635 0
M  V30 1879 C 169.992 -4.36166 -4.58194 0
M  V30 1880 C 168.656 -4.74993 -4.68975 0
M  V30 1881 H 167.926 -0.18029 -0.718733 0
M  V30 1882 H 170.573 -1.11233 -1.55883 0
M  V30 1883 H 168.878 -0.00303058 -3.918 0
M  V30 1884 H 170.575 -0.387456 -3.99124 0
M  V30 1885 H 167.165 -1.81694 -3.88182 0
M  V30 1886 H 171.349 -2.76853 -4.11906 0
M  V30 1887 H 166.605 -4.12609 -4.51181 0
M  V30 1888 H 170.779 -5.08111 -4.76231 0
M  V30 1889 H 168.406 -5.76495 -4.95537 0
M  V30 1890 N 169.982 1.44106 -0.638065 0
M  V30 1891 C 171.21 2.06336 -0.152615 0
M  V30 1892 C 171.625 1.47731 1.17563 0
M  V30 1893 O 170.982 0.602806 1.72257 0
M  V30 1894 C 171.033 3.61479 -0.0391491 0
M  V30 1895 O 170.754 4.17903 -1.31487 0
M  V30 1896 C 172.255 4.40757 0.474176 0
M  V30 1897 H 169.475 0.665862 -0.0828776 0
M  V30 1898 H 172.019 1.84862 -0.87443 0
M  V30 1899 H 170.174 3.82191 0.633142 0
M  V30 1900 H 170.588 5.11416 -1.16421 0
M  V30 1901 H 172.062 5.49707 0.502562 0
M  V30 1902 H 172.539 4.12697 1.50258 0
M  V30 1903 H 173.145 4.24979 -0.165102 0
M  V30 1904 N 171.46 0.379036 1.52974 0
M  V30 1905 C 172.708 -0.206014 2.01047 0
M  V30 1906 C 173.029 -1.48175 1.26765 0
M  V30 1907 O 172.299 -1.92085 0.384743 0
M  V30 1908 H 170.879 -0.0791184 0.742798 0
M  V30 1909 H 173.541 0.508366 1.88153 0
M  V30 1910 H 172.637 -0.423501 3.09213 0
M  V30 1911 N 172.938 -1.57226 0.108567 0
M  V30 1912 C 173.888 -2.11305 -0.856396 0
M  V30 1913 C 174.872 -1.03129 -1.23504 0
M  V30 1914 O 176.064 -1.29381 -1.20787 0
M  V30 1915 C 173.193 -2.70771 -2.11041 0
M  V30 1916 C 172.279 -3.86011 -1.7566 0
M  V30 1917 N 172.67 -4.93492 -1.10902 0
M  V30 1918 C 170.968 -3.95999 -2.05185 0
M  V30 1919 C 171.669 -5.73984 -0.944308 0
M  V30 1920 N 170.645 -5.2346 -1.46596 0
M  V30 1921 H 174.447 -2.91784 -0.352002 0
M  V30 1922 H 171.961 -1.62126 -0.0942324 0
M  V30 1923 H 173.958 -3.07851 -2.81128 0
M  V30 1924 H 172.618 -1.91751 -2.62034 0
M  V30 1925 H 173.629 -5.1208 -0.774235 0
M  V30 1926 H 170.306 -3.28007 -2.58298 0
M  V30 1927 H 171.696 -6.70479 -0.436813 0
M  V30 1928 N 174.416 0.165178 -1.56732 0
M  V30 1929 C 175.662 0.882112 -1.82611 0
M  V30 1930 C 175.995 1.81628 -0.687378 0
M  V30 1931 O 175.27 1.92009 0.310267 0
M  V30 1932 C 175.553 1.67245 -3.18906 0
M  V30 1933 C 175.406 0.760987 -4.43316 0
M  V30 1934 C 176.725 2.63884 -3.52212 0
M  V30 1935 H 173.844 0.319242 -0.664269 0
M  V30 1936 H 176.486 0.148052 -1.89422 0
M  V30 1937 H 174.636 2.29824 -3.1323 0
M  V30 1938 H 176.308 0.147596 -4.61064 0
M  V30 1939 H 174.551 0.0694102 -4.33744 0
M  V30 1940 H 175.222 1.34962 -5.35247 0
M  V30 1941 H 177.698 2.11429 -3.58381 0
M  V30 1942 H 176.574 3.16245 -4.48643 0
M  V30 1943 H 176.835 3.44377 -2.77231 0
M  V30 1944 N 175.894 1.51508 0.433938 0
M  V30 1945 C 177.14 1.64588 1.18484 0
M  V30 1946 C 177.473 0.362666 1.90784 0
M  V30 1947 O 176.748 -0.637892 1.83742 0
M  V30 1948 C 177.031 2.85149 2.19913 0
M  V30 1949 C 176.884 4.23456 1.51674 0
M  V30 1950 C 178.203 3.01227 3.20858 0
M  V30 1951 H 175.322 0.598994 0.429389 0
M  V30 1952 H 177.964 1.84002 0.473647 0
M  V30 1953 H 176.114 2.68729 2.80566 0
M  V30 1954 H 177.786 4.51552 0.943322 0
M  V30 1955 H 176.029 4.25998 0.819035 0
M  V30 1956 H 176.7 5.03812 2.2556 0
M  V30 1957 H 179.176 3.16382 2.70263 0
M  V30 1958 H 178.052 3.87141 3.89118 0
M  V30 1959 H 178.313 2.13447 3.8716 0
M  V30 1960 N 177.372 -0.689602 1.41712 0
M  V30 1961 C 178.62 -1.4468 1.4111 0
M  V30 1962 C 178.941 -1.94986 0.0232196 0
M  V30 1963 O 178.211 -1.72097 -0.935913 0
M  V30 1964 H 176.791 -0.536847 0.519427 0
M  V30 1965 H 179.453 -0.815825 1.77004 0
M  V30 1966 H 178.549 -2.30706 2.10193 0
M  V30 1967 N 178.85 -1.27639 -0.924453 0
M  V30 1968 C 179.76 -1.12466 -2.05885 0
M  V30 1969 C 180.776 -0.053869 -1.73917 0
M  V30 1970 O 181.952 -0.261012 -1.99702 0
M  V30 1971 C 179.017 -0.776768 -3.37886 0
M  V30 1972 C 178.078 -1.92878 -3.83532 0
M  V30 1973 C 177.311 -1.59739 -5.09234 0
M  V30 1974 O 177.534 -0.506782 -5.68144 0
M  V30 1975 O 176.468 -2.43761 -5.50331 0
M  V30 1976 H 180.294 -2.07671 -2.21599 0
M  V30 1977 H 177.879 -1.06857 -1.04413 0
M  V30 1978 H 179.761 -0.596229 -4.17161 0
M  V30 1979 H 178.436 0.145732 -3.23372 0
M  V30 1980 H 177.343 -2.1644 -3.0513 0
M  V30 1981 H 178.676 -2.8316 -4.02593 0
M  V30 1982 N 180.328 1.1314 -1.09713 0
M  V30 1983 C 181.739 1.66029 -0.853885 0
M  V30 1984 C 182.09 1.86241 0.617142 0
M  V30 1985 O 181.215 1.5834 1.47503 0
M  V30 1986 C 181.81 3.01599 -1.5435 0
M  V30 1987 C 180.369 3.51467 -1.34714 0
M  V30 1988 C 179.516 2.26648 -1.59769 0
M  V30 1989 H 182.467 0.970226 -1.25588 0
M  V30 1990 H 182.488 3.67709 -0.978267 0
M  V30 1991 H 182 2.86856 -2.6141 0
M  V30 1992 H 180.101 3.71408 -0.297838 0
M  V30 1993 H 180.214 4.314 -2.08401 0
M  V30 1994 H 178.578 2.33385 -1.01998 0
M  V30 1995 H 179.361 2.14467 -2.68065 0
M  V30 1996 N 181.806 0.884767 1.30421 0
M  V30 1997 C 183.083 0.423185 1.90967 0
M  V30 1998 C 183.463 -1.09605 1.80416 0
M  V30 1999 O 182.811 -1.93126 1.22125 0
M  V30 2000 C 183.021 0.921056 3.36627 0
M  V30 2001 C 184.369 0.955903 4.137 0
M  V30 2002 O 185.393 0.867706 3.4547 0
M  V30 2003 O 184.252 1.08614 5.35598 0
M  V30 2004 H 181.346 0.129369 0.816819 0
M  V30 2005 H 183.892 0.973653 1.3899 0
M  V30 2006 H 182.664 1.96489 3.3839 0
M  V30 2007 H 182.287 0.349741 3.96059 0
M  V30 2008 N 183.284 -1.43765 0.645699 0
M  V30 2009 C 184.509 -2.06767 0.161883 0
M  V30 2010 C 184.934 -1.48034 -1.16049 0
M  V30 2011 O 184.292 -0.587369 -1.71522 0
M  V30 2012 C 184.34 -3.60519 0.0762003 0
M  V30 2013 O 183.444 -4.00982 -0.963721 0
M  V30 2014 H 182.785 -0.657675 0.091429 0
M  V30 2015 H 185.315 -1.84397 0.886499 0
M  V30 2016 H 185.325 -4.07853 -0.109604 0
M  V30 2017 H 184 -4.02646 1.04157 0
M  V30 2018 H 182.577 -3.65253 -0.751312 0
M  V30 2019 N 184.763 -0.387143 -1.52771 0
M  V30 2020 C 186.179 -0.037007 -1.59557 0
M  V30 2021 C 186.379 1.44801 -1.40124 0
M  V30 2022 O 185.435 2.21227 -1.21716 0
M  V30 2023 C 186.748 -0.512256 -2.96305 0
M  V30 2024 C 188.296 -0.468328 -3.09476 0
M  V30 2025 C 188.771 -0.919731 -4.4867 0
M  V30 2026 N 190.262 -0.875656 -4.54848 0
M  V30 2027 C 190.997 -1.19637 -5.6078 0
M  V30 2028 N 190.493 -1.58745 -6.74368 0
M  V30 2029 N 192.286 -1.11776 -5.50874 0
M  V30 2030 H 184.437 -1.35395 -1.63652 0
M  V30 2031 H 186.7 -0.554818 -0.768688 0
M  V30 2032 H 186.406 -1.54935 -3.15734 0
M  V30 2033 H 186.28 0.089805 -3.77093 0
M  V30 2034 H 188.667 0.559671 -2.89744 0
M  V30 2035 H 188.748 -1.10616 -2.30646 0
M  V30 2036 H 188.392 -1.94595 -4.69143 0
M  V30 2037 H 188.322 -0.258927 -5.25963 0
M  V30 2038 H 190.813 -0.587843 -3.733 0
M  V30 2039 H 191.126 -1.81586 -7.51163 0
M  V30 2040 H 189.471 -1.6263 -6.75705 0
M  V30 2041 H 192.662 -0.811264 -4.61016 0
M  V30 2042 H 192.835 -1.37103 -6.3333 0
M  V30 2043 N 186.241 1.57166 -0.116904 0
M  V30 2044 C 187.487 1.95412 0.542405 0
M  V30 2045 C 187.82 1.00019 1.66463 0
M  V30 2046 O 187.095 0.0370346 1.94465 0
M  V30 2047 C 187.378 3.43615 1.07708 0
M  V30 2048 C 187.231 4.49781 -0.0415868 0
M  V30 2049 C 188.55 3.93616 1.96861 0
M  V30 2050 H 185.669 0.710543 0.195696 0
M  V30 2051 H 188.311 1.89027 -0.192038 0
M  V30 2052 H 186.461 3.49187 1.70296 0
M  V30 2053 H 188.133 4.56308 -0.676793 0
M  V30 2054 H 186.376 4.28033 -0.705019 0
M  V30 2055 H 187.047 5.50733 0.373717 0
M  V30 2056 H 189.523 3.90335 1.44146 0
M  V30 2057 H 188.399 4.97838 2.3119 0
M  V30 2058 H 188.66 3.34188 2.89432 0
M  V30 2059 N 187.719 -0.156864 1.56817 0
M  V30 2060 C 188.649 -1.19589 2.00551 0
M  V30 2061 C 189.63 -1.4536 0.883426 0
M  V30 2062 O 190.815 -1.56449 1.15054 0
M  V30 2063 C 187.945 -2.53143 2.37773 0
M  V30 2064 C 186.899 -2.41913 3.53075 0
M  V30 2065 C 186.225 -3.80088 3.76081 0
M  V30 2066 C 187.525 -1.91157 4.86062 0
M  V30 2067 H 189.219 -0.832293 2.87599 0
M  V30 2068 H 186.765 -0.398918 1.38364 0
M  V30 2069 H 188.718 -3.26047 2.66967 0
M  V30 2070 H 187.442 -2.91319 1.4765 0
M  V30 2071 H 186.101 -1.71462 3.24031 0
M  V30 2072 H 185.749 -4.15683 2.83225 0
M  V30 2073 H 185.449 -3.73439 4.53671 0
M  V30 2074 H 186.973 -4.54556 4.0769 0
M  V30 2075 H 188.387 -2.53846 5.14038 0
M  V30 2076 H 186.784 -1.95422 5.67389 0
M  V30 2077 H 187.854 -0.866673 4.77092 0
M  V30 2078 N 189.197 -1.51736 -0.425897 0
M  V30 2079 C 190.16 -1.73271 -1.50032 0
M  V30 2080 C 191.16 -0.602639 -1.4908 0
M  V30 2081 O 192.35 -0.87033 -1.509 0
M  V30 2082 C 189.482 -1.79969 -2.89523 0
M  V30 2083 H 190.675 -2.69172 -1.32237 0
M  V30 2084 H 188.228 -1.41899 -0.65532 0
M  V30 2085 H 188.963 -0.859241 -3.1271 0
M  V30 2086 H 188.748 -2.62109 -2.91619 0
M  V30 2087 H 190.238 -1.9843 -3.67444 0
M  V30 2088 N 190.675 0.682077 -1.42076 0
M  V30 2089 C 191.625 1.78823 -1.41444 0
M  V30 2090 C 192.609 1.58323 -0.28681 0
M  V30 2091 O 193.801 1.68926 -0.528498 0
M  V30 2092 C 190.93 3.17232 -1.3122 0
M  V30 2093 C 190.016 3.4338 -2.489 0
M  V30 2094 N 190.407 3.40152 -3.7434 0
M  V30 2095 C 188.705 3.73986 -2.43003 0
M  V30 2096 C 189.406 3.65581 -4.52466 0
M  V30 2097 N 188.382 3.85989 -3.8277 0
M  V30 2098 H 192.184 1.7471 -2.36334 0
M  V30 2099 H 189.698 0.882622 -1.36321 0
M  V30 2100 H 191.695 3.96489 -1.2885 0
M  V30 2101 H 190.355 3.22547 -0.373263 0
M  V30 2102 H 191.366 3.20221 -4.07037 0
M  V30 2103 H 188.043 3.86591 -1.57651 0
M  V30 2104 H 189.433 3.69108 -5.61435 0
M  V30 2105 N 192.153 1.28127 0.917671 0
M  V30 2106 C 193.402 1.14432 1.66097 0
M  V30 2107 C 193.715 -0.307247 1.93172 0
M  V30 2108 O 194.921 -0.565259 2.65551 0
M  V30 2109 C 193.377 2.00015 2.99202 0
M  V30 2110 C 192.985 3.49889 2.79789 0
M  V30 2111 C 194.729 1.94996 3.77064 0
M  V30 2112 C 192.636 4.27636 4.08511 0
M  V30 2113 H 191.566 0.424662 0.62304 0
M  V30 2114 H 194.217 1.52628 1.01868 0
M  V30 2115 H 192.599 1.54672 3.64544 0
M  V30 2116 H 193.773 4.03162 2.23152 0
M  V30 2117 H 192.088 3.56392 2.15345 0
M  V30 2118 H 194.685 2.50354 4.72469 0
M  V30 2119 H 195.028 0.925819 4.05875 0
M  V30 2120 H 195.561 2.38287 3.18534 0
M  V30 2121 H 192.3 5.30615 3.84874 0
M  V30 2122 H 191.82 3.79137 4.64774 0
M  V30 2123 H 193.499 4.37346 4.76799 0
M  V30 2124 N 193.631 -1.12557 1.10312 0
M  V30 2125 C 195.047 -1.36036 0.834649 0
M  V30 2126 C 195.247 -1.93946 -0.546539 0
M  V30 2127 O 194.303 -2.16484 -1.29966 0
M  V30 2128 C 195.616 -2.30312 1.9333 0
M  V30 2129 C 197.164 -2.43906 1.9616 0
M  V30 2130 C 197.639 -3.41496 3.05195 0
M  V30 2131 N 199.13 -3.49053 3.04494 0
M  V30 2132 C 199.865 -4.24471 3.85502 0
M  V30 2133 N 199.361 -5.02966 4.76442 0
M  V30 2134 N 201.154 -4.19864 3.73725 0
M  V30 2135 H 193.305 -0.733246 1.99342 0
M  V30 2136 H 195.568 -0.385234 0.866198 0
M  V30 2137 H 195.274 -1.94933 2.92735 0
M  V30 2138 H 195.148 -3.30421 1.81939 0
M  V30 2139 H 197.535 -2.78567 0.973886 0
M  V30 2140 H 197.616 -1.4369 2.11629 0
M  V30 2141 H 197.26 -3.07565 4.04186 0
M  V30 2142 H 197.19 -4.41539 2.86968 0
M  V30 2143 H 199.681 -2.93053 2.38596 0
M  V30 2144 H 199.994 -5.57846 5.34815 0
M  V30 2145 H 198.339 -5.02167 4.80472 0
M  V30 2146 H 201.53 -3.57623 3.02032 0
M  V30 2147 H 201.703 -4.78386 4.37093 0
M  V30 2148 N 195.109 -0.891671 -1.2995 0
M  V30 2149 C 196.386 -0.433307 -1.9074 0
M  V30 2150 C 196.766 1.08646 -1.80995 0
M  V30 2151 O 196.114 1.92476 -1.23147 0
M  V30 2152 C 196.324 -0.938895 -3.36134 0
M  V30 2153 C 197.672 -0.977829 -4.13187 0
M  V30 2154 O 198.696 -0.886015 -3.45005 0
M  V30 2155 O 197.555 -1.11453 -5.35015 0
M  V30 2156 H 194.649 -0.133699 -0.816121 0
M  V30 2157 H 197.195 -0.981011 -1.38471 0
M  V30 2158 H 195.967 -1.98281 -3.37343 0
M  V30 2159 H 195.59 -0.37074 -3.95868 0
M  V30 2160 N 196.587 1.43421 -0.653314 0
M  V30 2161 C 197.864 1.95361 -0.0966581 0
M  V30 2162 C 198.244 1.59461 1.38331 0
M  V30 2163 O 197.592 0.879777 2.10884 0
M  V30 2164 C 197.802 3.47311 -0.342988 0
M  V30 2165 C 199.15 4.23875 -0.24798 0
M  V30 2166 O 200.174 3.55133 -0.275553 0
M  V30 2167 O 199.033 5.4623 -0.171771 0
M  V30 2168 H 196.127 0.826945 0.00956291 0
M  V30 2169 H 198.673 1.5336 -0.726558 0
M  V30 2170 H 197.445 3.66569 -1.36906 0
M  V30 2171 H 197.068 3.9631 0.319975 0
M  V30 2172 N 198.065 0.39524 1.52563 0
M  V30 2173 C 199.342 -0.242908 1.94086 0
M  V30 2174 C 199.722 -1.63841 1.33114 0
M  V30 2175 O 199.07 -2.22928 0.501529 0
M  V30 2176 C 199.28 -0.26327 3.48006 0
M  V30 2177 C 200.628 -0.489354 4.21771 0
M  V30 2178 O 201.652 -0.343226 3.54543 0
M  V30 2179 O 200.511 -0.776169 5.4096 0
M  V30 2180 H 197.605 -0.152536 0.812811 0
M  V30 2181 H 200.151 0.450178 1.6362 0
M  V30 2182 H 198.923 0.713985 3.84731 0
M  V30 2183 H 198.546 -1.00103 3.84792 0
M  V30 2184 N 199.544 -1.57102 0.125237 0
M  V30 2185 C 200.79 -1.95697 -0.532035 0
M  V30 2186 C 201.123 -1.009 -1.6593 0
M  V30 2187 O 200.398 -0.047347 -1.94442 0
M  V30 2188 C 200.681 -3.44181 -1.05884 0
M  V30 2189 C 200.534 -4.49752 0.0654392 0
M  V30 2190 C 201.853 -3.94655 -1.9477 0
M  V30 2191 H 198.972 -0.711571 -0.191925 0
M  V30 2192 H 201.614 -1.88923 0.20206 0
M  V30 2193 H 199.764 -3.50085 -1.68442 0
M  V30 2194 H 201.436 -4.55943 0.700982 0
M  V30 2195 H 199.679 -4.27653 0.727709 0
M  V30 2196 H 200.35 -5.50924 -0.344505 0
M  V30 2197 H 202.826 -3.91094 -1.42074 0
M  V30 2198 H 201.702 -4.99057 -2.28546 0
M  V30 2199 H 201.963 -3.35718 -2.87656 0
M  V30 2200 N 201.022 0.148545 -1.56898 0
M  V30 2201 C 202.271 0.85984 -1.82454 0
M  V30 2202 C 202.584 1.82406 -0.706229 0
M  V30 2203 O 203.79 2.57938 -0.847349 0
M  V30 2204 C 202.246 1.57967 -3.2338 0
M  V30 2205 C 201.854 0.65794 -4.43142 0
M  V30 2206 C 203.598 2.27784 -3.58211 0
M  V30 2207 C 201.505 1.3793 -5.75091 0
M  V30 2208 H 200.435 0.324834 -0.68044 0
M  V30 2209 H 203.086 0.112588 -1.83154 0
M  V30 2210 H 201.468 2.37249 -3.17063 0
M  V30 2211 H 202.642 -0.0995497 -4.60692 0
M  V30 2212 H 200.957 0.0682643 -4.16344 0
M  V30 2213 H 203.554 2.8239 -4.54048 0
M  V30 2214 H 203.897 3.04204 -2.84193 0
M  V30 2215 H 204.43 1.55421 -3.66182 0
M  V30 2216 H 201.169 0.656982 -6.52199 0
M  V30 2217 H 200.689 2.10954 -5.61479 0
M  V30 2218 H 202.368 1.92063 -6.17835 0
M  V30 2219 N 202.5 1.5196 0.417844 0
M  V30 2220 C 203.749 1.6482 1.16264 0
M  V30 2221 C 204.062 0.379886 1.91876 0
M  V30 2222 O 205.268 0.388154 2.68711 0
M  V30 2223 C 203.724 2.91161 2.1155 0
M  V30 2224 C 203.332 4.25068 1.41495 0
M  V30 2225 C 205.076 3.13383 2.86341 0
M  V30 2226 C 202.983 5.42541 2.35379 0
M  V30 2227 H 201.913 0.613954 0.437694 0
M  V30 2228 H 204.564 1.78442 0.427871 0
M  V30 2229 H 202.946 2.71218 2.88543 0
M  V30 2230 H 204.12 4.55463 0.699263 0
M  V30 2231 H 202.435 4.0888 0.787792 0
M  V30 2232 H 205.032 3.98324 3.5671 0
M  V30 2233 H 205.375 2.27256 3.48798 0
M  V30 2234 H 205.908 3.33757 2.1645 0
M  V30 2235 H 202.647 6.30987 1.77582 0
M  V30 2236 H 202.167 5.16497 3.04945 0
M  V30 2237 H 203.846 5.75272 2.96093 0
M  V30 2238 N 203.978 -0.674533 1.42435 0
M  V30 2239 C 205.394 -0.98769 1.25367 0
M  V30 2240 C 205.594 -2.00879 0.158044 0
M  V30 2241 O 204.65 -2.48075 -0.470633 0
M  V30 2242 C 205.963 -1.49224 2.6106 0
M  V30 2243 C 207.511 -1.61 2.68417 0
M  V30 2244 C 207.986 -2.14852 4.04478 0
M  V30 2245 N 209.477 -2.22185 4.06434 0
M  V30 2246 C 210.212 -2.64928 5.08528 0
M  V30 2247 N 209.708 -3.07121 6.21006 0
M  V30 2248 N 211.501 -2.64679 4.95885 0
M  V30 2249 H 203.652 0.00152503 2.124 0
M  V30 2250 H 205.915 -0.0618434 0.945981 0
M  V30 2251 H 205.621 -0.816453 3.42092 0
M  V30 2252 H 205.495 -2.47094 2.84999 0
M  V30 2253 H 207.882 -2.27686 1.87732 0
M  V30 2254 H 207.963 -0.616195 2.48267 0
M  V30 2255 H 207.607 -1.48775 4.85622 0
M  V30 2256 H 207.537 -3.15024 4.2198 0
M  V30 2257 H 210.028 -1.92435 3.25234 0
M  V30 2258 H 210.341 -3.38423 6.94759 0
M  V30 2259 H 208.686 -3.04978 6.24511 0
M  V30 2260 H 211.877 -2.31078 4.07088 0
M  V30 2261 H 212.05 -2.9767 5.75584 0
M  V30 2262 N 205.456 -1.28612 -0.910864 0
M  V30 2263 C 206.705 -1.15311 -1.65488 0
M  V30 2264 C 207.018 0.296999 -1.93332 0
M  V30 2265 O 208.224 0.551168 -2.65847 0
M  V30 2266 C 206.68 -2.01599 -2.98137 0
M  V30 2267 C 206.288 -3.51367 -2.7793 0
M  V30 2268 C 208.032 -1.96993 -3.76024 0
M  V30 2269 C 205.939 -4.29797 -4.06237 0
M  V30 2270 H 204.869 -0.42796 -0.620779 0
M  V30 2271 H 207.52 -1.53166 -1.01057 0
M  V30 2272 H 205.902 -1.56603 -3.63719 0
M  V30 2273 H 207.076 -4.0434 -2.21011 0
M  V30 2274 H 205.391 -3.57529 -2.13452 0
M  V30 2275 H 207.988 -2.52856 -4.71135 0
M  V30 2276 H 208.331 -0.94733 -4.05378 0
M  V30 2277 H 208.864 -2.39973 -3.17266 0
M  V30 2278 H 205.603 -5.32648 -3.82055 0
M  V30 2279 H 205.123 -3.81596 -4.62757 0
M  V30 2280 H 206.802 -4.39869 -4.74473 0
M  V30 2281 N 206.934 1.1197 -1.10907 0
M  V30 2282 C 207.882 2.19927 -0.757303 0
M  V30 2283 C 208.876 1.67564 0.248747 0
M  V30 2284 O 210.082 1.79672 0.108605 0
M  V30 2285 H 206.457 0.716925 -0.226987 0
M  V30 2286 H 208.428 2.46847 -1.67658 0
M  V30 2287 C 207.177 3.47061 -0.210671 0
M  V30 2288 H 206.5 3.87703 -0.976049 0
M  V30 2289 H 207.94 4.24 -0.0026584 0
M  V30 2290 C 206.399 3.19864 1.05777 0
M  V30 2291 O 206.929 3.40049 2.13845 0
M  V30 2292 N 205.135 2.73636 0.978349 0
M  V30 2293 H 204.682 2.5741 0.0988246 0
M  V30 2294 H 204.64 2.55815 1.82773 0
M  V30 2295 N 208.412 0.89855 1.29475 0
M  V30 2296 C 209.64 0.539261 1.99749 0
M  V30 2297 C 210.055 -0.875716 1.67262 0
M  V30 2298 O 209.412 -1.57786 0.917049 0
M  V30 2299 C 209.463 0.72061 3.54245 0
M  V30 2300 O 209.184 2.07989 3.8558 0
M  V30 2301 C 210.685 0.366118 4.41786 0
M  V30 2302 H 207.905 0.207047 0.638258 0
M  V30 2303 H 210.449 1.20758 1.65039 0
M  V30 2304 H 208.604 0.0994862 3.87272 0
M  V30 2305 H 209.018 2.10841 4.80257 0
M  V30 2306 H 210.492 0.543848 5.49314 0
M  V30 2307 H 210.969 -0.696763 4.33638 0
M  V30 2308 H 211.575 0.964135 4.14228 0
M  V30 2309 N 209.89 -1.43072 0.660911 0
M  V30 2310 C 211.167 -1.95307 0.107017 0
M  V30 2311 C 211.547 -1.60192 -1.37484 0
M  V30 2312 O 210.895 -0.890949 -2.10415 0
M  V30 2313 C 211.105 -3.47124 0.361402 0
M  V30 2314 C 212.453 -4.23738 0.270455 0
M  V30 2315 O 213.477 -3.54981 0.294382 0
M  V30 2316 O 212.336 -5.46131 0.200737 0
M  V30 2317 H 209.43 -0.826984 -0.00517729 0
M  V30 2318 H 211.976 -1.52972 0.734681 0
M  V30 2319 H 210.748 -3.65837 1.38848 0
M  V30 2320 H 210.371 -3.96475 -0.298953 0
M  V30 2321 N 211.368 -0.403325 -1.52352 0
M  V30 2322 C 212.616 0.174003 -2.0135 0
M  V30 2323 C 212.937 1.46139 -1.29106 0
M  V30 2324 O 212.207 1.91448 -0.415253 0
M  V30 2325 H 210.787 0.0672911 -0.743963 0
M  V30 2326 H 213.449 -0.538235 -1.87321 0
M  V30 2327 H 212.545 0.374254 -3.09848 0
M  V30 2328 N 212.846 1.57033 -0.133567 0
M  V30 2329 C 213.809 2.14897 0.796995 0
M  V30 2330 C 214.809 1.0874 1.18458 0
M  V30 2331 O 215.999 1.34446 1.1077 0
M  V30 2332 C 213.131 2.70112 2.07973 0
M  V30 2333 H 214.324 2.98457 0.293873 0
M  V30 2334 H 211.877 1.55871 0.115787 0
M  V30 2335 H 212.612 1.9018 2.62682 0
M  V30 2336 H 212.397 3.47764 1.81115 0
M  V30 2337 H 213.887 3.14738 2.74462 0
M  V30 2338 N 214.325 -0.140222 1.56975 0
M  V30 2339 C 215.235 -1.19223 2.02047 0
M  V30 2340 C 216.251 -1.46612 0.937062 0
M  V30 2341 O 217.427 -1.58148 1.24704 0
M  V30 2342 C 214.492 -2.50414 2.39778 0
M  V30 2343 C 213.553 -2.30612 3.621 0
M  V30 2344 C 212.786 -3.55547 3.98023 0
M  V30 2345 O 213.009 -4.62004 3.34528 0
M  V30 2346 O 211.943 -3.47808 4.91237 0
M  V30 2347 H 215.769 -0.839559 2.91865 0
M  V30 2348 H 213.354 -0.349453 1.45256 0
M  V30 2349 H 215.236 -3.27747 2.64877 0
M  V30 2350 H 213.911 -2.85198 1.53114 0
M  V30 2351 H 212.818 -1.51207 3.4218 0
M  V30 2352 H 214.151 -2.00741 4.49404 0
M  V30 2353 N 215.803 -1.52179 -0.40978 0
M  V30 2354 C 217.033 -1.69807 -1.17682 0
M  V30 2355 C 217.441 -0.406908 -1.84773 0
M  V30 2356 O 216.784 0.626863 -1.72673 0
M  V30 2357 C 216.846 -2.77712 -2.2829 0
M  V30 2358 C 216.51 -4.19481 -1.81341 0
M  V30 2359 C 217.507 -5.03345 -1.30154 0
M  V30 2360 C 215.192 -4.65713 -1.88194 0
M  V30 2361 C 217.186 -6.31511 -0.864416 0
M  V30 2362 C 214.873 -5.93869 -1.44093 0
M  V30 2363 C 215.871 -6.76597 -0.933023 0
M  V30 2364 O 215.559 -8.02354 -0.49838 0
M  V30 2365 H 215.291 -0.572372 -0.359675 0
M  V30 2366 H 217.845 -1.99511 -0.488311 0
M  V30 2367 H 216.075 -2.43383 -3.00502 0
M  V30 2368 H 217.764 -2.83946 -2.90051 0
M  V30 2369 H 218.53 -4.68819 -1.24232 0
M  V30 2370 H 214.409 -4.01424 -2.26671 0
M  V30 2371 H 217.953 -6.96033 -0.467286 0
M  V30 2372 H 213.85 -6.27903 -1.49694 0
M  V30 2373 H 214.618 -8.16135 -0.621747 0
M  V30 2374 N 217.281 0.66697 -1.42791 0
M  V30 2375 C 218.229 1.80157 -1.47127 0
M  V30 2376 C 219.223 1.65825 -0.346199 0
M  V30 2377 O 220.429 1.72338 -0.519572 0
M  V30 2378 H 216.804 0.594158 -0.460956 0
M  V30 2379 H 218.775 1.73619 -2.42692 0
M  V30 2380 C 217.524 3.18351 -1.39813 0
M  V30 2381 H 216.847 3.3001 -2.25684 0
M  V30 2382 H 218.287 3.97736 -1.46908 0
M  V30 2383 C 216.746 3.36707 -0.11391 0
M  V30 2384 O 217.276 3.93027 0.830241 0
M  V30 2385 N 215.482 2.90586 -0.0285295 0
M  V30 2386 H 215.029 2.4494 -0.79764 0
M  V30 2387 H 214.987 3.03245 0.830063 0
M  V30 2388 N 218.759 1.29093 0.90403 0
M  V30 2389 C 220.008 1.16187 1.64874 0
M  V30 2390 C 220.321 -0.286742 1.93487 0
M  V30 2391 O 221.527 -0.537062 2.66135 0
M  V30 2392 C 219.983 2.03177 2.97064 0
M  V30 2393 C 219.591 3.52836 2.76062 0
M  V30 2394 C 221.335 1.98984 3.74974 0
M  V30 2395 C 219.242 4.31945 4.03952 0
M  V30 2396 H 218.172 0.431246 0.618501 0
M  V30 2397 H 220.823 1.53699 1.00243 0
M  V30 2398 H 219.205 1.5853 3.62883 0
M  V30 2399 H 220.379 4.05507 2.18863 0
M  V30 2400 H 218.694 3.58656 2.11553 0
M  V30 2401 H 221.291 2.55351 4.69787 0
M  V30 2402 H 221.634 0.968815 4.0487 0
M  V30 2403 H 222.167 2.41652 3.15989 0
M  V30 2404 H 218.906 5.34667 3.79225 0
M  V30 2405 H 218.426 3.84045 4.60727 0
M  V30 2406 H 220.105 4.42379 4.72133 0
M  V30 2407 N 220.237 -1.11381 1.11499 0
M  V30 2408 C 221.147 -2.21019 0.786628 0
M  V30 2409 C 222.163 -1.72597 -0.220507 0
M  V30 2410 O 223.339 -2.01321 -0.0565251 0
M  V30 2411 C 220.404 -3.459 0.235333 0
M  V30 2412 C 219.465 -4.09107 1.30115 0
M  V30 2413 C 218.698 -5.28027 0.776068 0
M  V30 2414 O 218.921 -5.6904 -0.393661 0
M  V30 2415 O 217.855 -5.81835 1.54114 0
M  V30 2416 H 221.681 -2.51521 1.70209 0
M  V30 2417 H 219.266 -1.19928 0.890928 0
M  V30 2418 H 221.148 -4.21346 -0.067715 0
M  V30 2419 H 219.823 -3.17049 -0.652828 0
M  V30 2420 H 218.73 -3.35391 1.65722 0
M  V30 2421 H 220.063 -4.42139 2.16273 0
M  V30 2422 N 221.715 -0.905404 -1.28997 0
M  V30 2423 C 223.126 -0.581953 -1.77398 0
M  V30 2424 C 223.477 0.902552 -1.74208 0
M  V30 2425 O 222.602 1.70584 -1.33154 0
M  V30 2426 C 223.197 -1.04961 -3.22131 0
M  V30 2427 C 221.756 -0.777229 -3.68288 0
M  V30 2428 C 220.903 -1.22109 -2.48967 0
M  V30 2429 H 223.854 -1.08754 -1.15578 0
M  V30 2430 H 223.875 -0.387387 -3.78523 0
M  V30 2431 H 223.387 -2.13008 -3.24421 0
M  V30 2432 H 221.488 0.290383 -3.71467 0
M  V30 2433 H 221.601 -1.37911 -4.58822 0
M  V30 2434 H 219.965 -0.639971 -2.46529 0
M  V30 2435 H 220.748 -2.30972 -2.53982 0
M  V30 2436 N 223.193 1.4272 -0.668489 0
M  V30 2437 C 224.123 2.335 -0.000100175 0
M  V30 2438 C 225.104 1.50328 0.795964 0
M  V30 2439 O 226.289 1.78949 0.754385 0
M  V30 2440 C 223.419 3.33874 0.956302 0
M  V30 2441 C 222.373 4.27152 0.269278 0
M  V30 2442 C 221.699 5.17684 1.33818 0
M  V30 2443 C 222.999 5.15373 -0.847805 0
M  V30 2444 H 224.693 2.89639 -0.758244 0
M  V30 2445 H 222.239 1.39269 -0.366079 0
M  V30 2446 H 224.192 3.9629 1.43292 0
M  V30 2447 H 222.916 2.76025 1.74579 0
M  V30 2448 H 221.575 3.66123 -0.187042 0
M  V30 2449 H 221.223 4.56165 2.1195 0
M  V30 2450 H 220.923 5.80918 0.883659 0
M  V30 2451 H 222.447 5.82974 1.81586 0
M  V30 2452 H 223.861 5.7151 -0.452681 0
M  V30 2453 H 222.258 5.87407 -1.22773 0
M  V30 2454 H 223.328 4.5415 -1.69929 0
M  V30 2455 N 224.671 0.411399 1.52136 0
M  V30 2456 C 225.917 -0.156262 2.02799 0
M  V30 2457 C 226.272 -1.42613 1.29149 0
M  V30 2458 O 225.565 -1.87592 0.389839 0
M  V30 2459 C 225.759 -0.455872 3.54481 0
M  V30 2460 C 225.588 0.783404 4.42824 0
M  V30 2461 C 224.358 1.30928 4.88043 0
M  V30 2462 C 226.556 1.66217 4.86699 0
M  V30 2463 N 224.538 2.5038 5.6052 0
M  V30 2464 C 225.909 2.70292 5.5798 0
M  V30 2465 C 227.964 1.67966 4.68713 0
M  V30 2466 C 226.667 3.7603 6.13184 0
M  V30 2467 C 228.693 2.72624 5.24815 0
M  V30 2468 C 228.055 3.7542 5.9602 0
M  V30 2469 H 224.154 -0.0186886 0.781777 0
M  V30 2470 H 226.738 0.566255 1.86284 0
M  V30 2471 H 224.909 -1.14743 3.71064 0
M  V30 2472 H 226.641 -1.01261 3.91827 0
M  V30 2473 H 223.396 0.866977 4.65597 0
M  V30 2474 H 223.82 3.10881 6.014 0
M  V30 2475 H 228.462 0.898312 4.13147 0
M  V30 2476 H 226.18 4.55019 6.6782 0
M  V30 2477 H 229.766 2.74887 5.12765 0
M  V30 2478 H 228.646 4.55073 6.38654 0
M  V30 2479 N 226.149 -1.5696 0.141893 0
M  V30 2480 C 227.565 -1.58151 -0.21456 0
M  V30 2481 C 227.765 -1.1559 -1.65049 0
M  V30 2482 O 226.821 -0.853832 -2.37626 0
M  V30 2483 C 228.134 -3.00674 0.0395576 0
M  V30 2484 C 229.682 -3.1299 -0.0245529 0
M  V30 2485 C 230.157 -4.57554 0.202167 0
M  V30 2486 N 231.648 -4.62961 0.148919 0
M  V30 2487 C 232.383 -5.7262 0.298924 0
M  V30 2488 N 231.879 -6.90947 0.50637 0
M  V30 2489 N 233.672 -5.61601 0.236886 0
M  V30 2490 H 225.823 -1.8292 1.07953 0
M  V30 2491 H 228.086 -0.846425 0.42693 0
M  V30 2492 H 227.792 -3.36183 1.03315 0
M  V30 2493 H 227.666 -3.70981 -0.682143 0
M  V30 2494 H 230.053 -2.77326 -1.00869 0
M  V30 2495 H 230.134 -2.4518 0.729396 0
M  V30 2496 H 229.778 -4.93922 1.18338 0
M  V30 2497 H 229.708 -5.23484 -0.572044 0
M  V30 2498 H 232.199 -3.77899 -0.00697015 0
M  V30 2499 H 232.512 -7.7038 0.611076 0
M  V30 2500 H 230.857 -6.92878 0.542628 0
M  V30 2501 H 234.048 -4.68039 0.0756209 0
M  V30 2502 H 234.221 -6.47015 0.357227 0
M  V30 2503 N 227.627 0.131896 -1.57047 0
M  V30 2504 C 228.874 0.841932 -1.84168 0
M  V30 2505 C 229.202 1.8048 -0.725066 0
M  V30 2506 O 228.457 1.93618 0.284692 0
M  V30 2507 C 228.756 1.63703 -3.17704 0
M  V30 2508 C 228.422 0.81961 -4.43388 0
M  V30 2509 C 227.084 0.594148 -4.77518 0
M  V30 2510 C 229.436 0.248977 -5.20605 0
M  V30 2511 C 226.764 -0.212409 -5.86315 0
M  V30 2512 C 229.116 -0.544701 -6.30251 0
M  V30 2513 C 227.78 -0.780599 -6.6292 0
M  V30 2514 H 227.05 0.308085 -0.673917 0
M  V30 2515 H 229.697 0.104867 -1.91213 0
M  V30 2516 H 228.002 2.44464 -3.06177 0
M  V30 2517 H 229.699 2.19015 -3.35907 0
M  V30 2518 H 226.289 1.00542 -4.16641 0
M  V30 2519 H 230.473 0.410408 -4.946 0
M  V30 2520 H 225.729 -0.404524 -6.1006 0
M  V30 2521 H 229.903 -0.993922 -6.89271 0
M  V30 2522 H 227.53 -1.40742 -7.47058 0
M  V30 2523 N 229.106 1.52395 0.401703 0
M  V30 2524 C 230.352 1.67065 1.14966 0
M  V30 2525 C 230.685 0.403052 1.89971 0
M  V30 2526 O 229.96 -0.598774 1.85054 0
M  V30 2527 C 230.243 2.8975 2.13815 0
M  V30 2528 C 230.096 4.26578 1.42658 0
M  V30 2529 C 231.415 3.07965 3.14397 0
M  V30 2530 H 228.534 0.607968 0.416587 0
M  V30 2531 H 231.176 1.84965 0.434511 0
M  V30 2532 H 229.326 2.74619 2.74803 0
M  V30 2533 H 230.998 4.53451 0.847329 0
M  V30 2534 H 229.241 4.27639 0.72849 0
M  V30 2535 H 229.912 5.08483 2.14823 0
M  V30 2536 H 232.388 3.22043 2.63491 0
M  V30 2537 H 231.264 3.95308 3.80819 0
M  V30 2538 H 231.525 2.21611 3.82545 0
M  V30 2539 N 230.584 -0.659388 1.43143 0
M  V30 2540 C 231.532 -1.79374 1.4808 0
M  V30 2541 C 232.526 -1.65639 0.354988 0
M  V30 2542 O 233.732 -1.7206 0.528704 0
M  V30 2543 H 230.107 -0.591705 0.4641 0
M  V30 2544 H 232.078 -1.72329 2.43609 0
M  V30 2545 C 230.827 -3.17606 1.41499 0
M  V30 2546 H 230.15 -3.28809 2.27431 0
M  V30 2547 H 231.59 -3.96951 1.49015 0
M  V30 2548 C 230.049 -3.36642 0.131765 0
M  V30 2549 O 230.579 -3.93461 -0.809386 0
M  V30 2550 N 228.785 -2.90567 0.0439396 0
M  V30 2551 H 228.332 -2.44513 0.810619 0
M  V30 2552 H 228.29 -3.03681 -0.813969 0
M  V30 2553 N 232.062 -1.29571 -0.897171 0
M  V30 2554 C 233.339 -1.08365 -1.62839 0
M  V30 2555 C 233.719 0.371331 -2.07808 0
M  V30 2556 O 233.067 1.3606 -1.83576 0
M  V30 2557 C 233.277 -2.0735 -2.80726 0
M  V30 2558 C 234.625 -2.38406 -3.51351 0
M  V30 2559 O 235.649 -2.05564 -2.90898 0
M  V30 2560 O 234.508 -2.9453 -4.60341 0
M  V30 2561 H 231.602 -0.415345 -0.715134 0
M  V30 2562 H 234.148 -1.40952 -0.945018 0
M  V30 2563 H 232.92 -3.05339 -2.44711 0
M  V30 2564 H 232.543 -1.75507 -3.56767 0
M  V30 2565 N 233.54 1.10788 -1.12088 0
M  V30 2566 C 234.768 1.86461 -0.896651 0
M  V30 2567 C 235.183 1.80492 0.553912 0
M  V30 2568 O 234.54 1.19102 1.38278 0
M  V30 2569 C 234.591 3.35006 -1.35843 0
M  V30 2570 O 234.312 3.40866 -2.75213 0
M  V30 2571 C 235.813 4.27565 -1.1706 0
M  V30 2572 H 233.033 0.589425 -0.320654 0
M  V30 2573 H 235.577 1.40076 -1.48993 0
M  V30 2574 H 233.732 3.7887 -0.808458 0
M  V30 2575 H 234.146 4.33411 -2.9539 0
M  V30 2576 H 235.62 5.30007 -1.54263 0
M  V30 2577 H 236.097 4.3906 -0.110814 0
M  V30 2578 H 236.703 3.89501 -1.70789 0
M  V30 2579 N 235.018 0.912232 1.28515 0
M  V30 2580 C 235.965 0.397954 2.27343 0
M  V30 2581 C 236.935 -0.526766 1.57526 0
M  V30 2582 O 238.12 -0.449292 1.85435 0
M  V30 2583 C 235.26 -0.357263 3.43246 0
M  V30 2584 C 234.373 0.599788 4.27816 0
M  V30 2585 C 233.508 -0.173725 5.30916 0
M  V30 2586 C 232.547 0.777039 6.07148 0
M  V30 2587 N 231.684 0.0371398 7.0209 0
M  V30 2588 H 236.524 1.24577 2.70711 0
M  V30 2589 H 234.061 0.625612 1.33133 0
M  V30 2590 H 236.019 -0.8113 4.09236 0
M  V30 2591 H 234.649 -1.16943 3.00872 0
M  V30 2592 H 233.701 1.17235 3.61884 0
M  V30 2593 H 235.013 1.32704 4.80823 0
M  V30 2594 H 234.167 -0.688394 6.02782 0
M  V30 2595 H 232.906 -0.934041 4.78672 0
M  V30 2596 H 231.911 1.3031 5.34134 0
M  V30 2597 H 233.136 1.53689 6.61481 0
M  V30 2598 H 231.082 -0.705213 6.52198 0
M  V30 2599 H 230.999 0.704249 7.52713 0
M  V30 2600 H 232.267 -0.457383 7.78157 0
M  V30 2601 N 236.496 -1.42363 0.676048 0
M  V30 2602 C 237.773 -1.95183 0.127726 0
M  V30 2603 C 238.153 -1.61641 -1.35777 0
M  V30 2604 O 237.501 -0.913216 -2.09458 0
M  V30 2605 C 237.711 -3.46721 0.398199 0
M  V30 2606 C 239.059 -4.23427 0.315383 0
M  V30 2607 O 240.083 -3.54649 0.332016 0
M  V30 2608 O 238.942 -5.45888 0.25865 0
M  V30 2609 H 236.036 -0.826992 0.00359427 0
M  V30 2610 H 238.582 -1.52184 0.750864 0
M  V30 2611 H 237.354 -3.64344 1.4272 0
M  V30 2612 H 236.977 -3.96769 -0.256885 0
M  V30 2613 N 237.974 -0.419461 -1.51915 0
M  V30 2614 C 238.921 0.400927 -2.27291 0
M  V30 2615 C 239.891 1.03224 -1.30131 0
M  V30 2616 O 241.076 1.05455 -1.59009 0
M  V30 2617 C 238.216 1.50603 -3.10504 0
M  V30 2618 C 237.329 0.89462 -4.22635 0
M  V30 2619 C 236.464 1.97328 -4.93189 0
M  V30 2620 C 235.503 1.33935 -5.97267 0
M  V30 2621 N 234.64 2.3586 -6.61298 0
M  V30 2622 H 239.48 -0.248251 -2.96964 0
M  V30 2623 H 237.017 -0.134266 -1.46486 0
M  V30 2624 H 238.975 2.15783 -3.57062 0
M  V30 2625 H 237.605 2.12509 -2.42981 0
M  V30 2626 H 236.657 0.131583 -3.80172 0
M  V30 2627 H 237.969 0.391641 -4.9726 0
M  V30 2628 H 237.123 2.70211 -5.43204 0
M  V30 2629 H 235.862 2.50994 -4.18155 0
M  V30 2630 H 234.867 0.595896 -5.46561 0
M  V30 2631 H 236.092 0.810252 -6.74249 0
M  V30 2632 H 234.038 2.88639 -5.89087 0
M  V30 2633 H 233.955 1.90403 -7.3163 0
M  V30 2634 H 235.223 3.08282 -7.15949 0
M  V30 2635 N 239.452 1.56882 -0.150215 0
M  V30 2636 C 240.868 1.58263 0.20617 0
M  V30 2637 C 241.068 1.16464 1.64434 0
M  V30 2638 O 240.124 0.866422 2.3717 0
M  V30 2639 C 241.437 3.00649 -0.0555025 0
M  V30 2640 C 242.985 3.12999 0.00795388 0
M  V30 2641 C 243.46 4.5744 -0.226429 0
M  V30 2642 N 244.951 4.62875 -0.173469 0
M  V30 2643 C 245.686 5.72454 -0.329288 0
M  V30 2644 N 245.182 6.90669 -0.543005 0
M  V30 2645 N 246.975 5.61467 -0.266666 0
M  V30 2646 H 239.126 1.82345 -1.08922 0
M  V30 2647 H 241.389 0.844149 -0.431413 0
M  V30 2648 H 241.095 3.3563 -1.05096 0
M  V30 2649 H 240.969 3.71337 0.66246 0
M  V30 2650 H 243.356 2.77857 0.993966 0
M  V30 2651 H 243.437 2.4479 -0.742388 0
M  V30 2652 H 243.081 4.93287 -1.20956 0
M  V30 2653 H 243.011 5.2378 0.544274 0
M  V30 2654 H 245.502 3.77898 -0.0130709 0
M  V30 2655 H 245.815 7.70045 -0.651922 0
M  V30 2656 H 244.16 6.92581 -0.579366 0
M  V30 2657 H 247.351 4.67992 -0.100441 0
M  V30 2658 H 247.524 6.46816 -0.391535 0
M  V30 2659 N 240.93 -0.123565 1.57115 0
M  V30 2660 C 241.863 -1.18202 1.95201 0
M  V30 2661 C 242.841 -1.40349 0.821031 0
M  V30 2662 O 244.025 -1.54578 1.07879 0
M  V30 2663 C 241.152 -2.53671 2.24429 0
M  V30 2664 C 240.198 -2.4798 3.46999 0
M  V30 2665 S 241.031 -1.92389 4.99747 0
M  V30 2666 C 242.187 -3.2954 5.32123 0
M  V30 2667 H 242.42 -0.857212 2.84674 0
M  V30 2668 H 239.953 -0.33014 1.50829 0
M  V30 2669 H 241.911 -3.3162 2.41947 0
M  V30 2670 H 240.572 -2.83332 1.35579 0
M  V30 2671 H 239.765 -3.47758 3.64801 0
M  V30 2672 H 239.367 -1.7815 3.28844 0
M  V30 2673 H 241.659 -4.25736 5.27025 0
M  V30 2674 H 242.602 -3.16569 6.33395 0
M  V30 2675 H 243.01 -3.27758 4.59603 0
M  V30 2676 N 242.408 -1.52605 -0.393616 0
M  V30 2677 C 243.338 -1.80022 -1.48709 0
M  V30 2678 C 244.319 -0.651995 -1.57108 0
M  V30 2679 O 245.504 -0.89913 -1.72132 0
M  V30 2680 C 242.634 -1.96492 -2.86371 0
M  V30 2681 C 241.588 -3.12161 -2.92813 0
M  V30 2682 C 240.914 -3.13877 -4.3288 0
M  V30 2683 C 242.214 -4.51322 -2.6288 0
M  V30 2684 H 243.908 -2.71589 -1.26015 0
M  V30 2685 H 241.454 -1.30684 -0.604778 0
M  V30 2686 H 243.407 -2.14255 -3.62867 0
M  V30 2687 H 242.131 -1.01611 -3.10391 0
M  V30 2688 H 240.79 -2.94173 -2.18764 0
M  V30 2689 H 240.438 -2.16687 -4.53933 0
M  V30 2690 H 240.138 -3.91576 -4.38112 0
M  V30 2691 H 241.662 -3.33789 -5.1129 0
M  V30 2692 H 243.076 -4.69435 -3.29096 0
M  V30 2693 H 241.473 -5.31053 -2.79468 0
M  V30 2694 H 242.543 -4.58353 -1.58242 0
M  V30 2695 N 243.887 0.651787 -1.4349 0
M  V30 2696 C 245.133 1.41376 -1.45398 0
M  V30 2697 C 245.466 1.94041 -0.0784823 0
M  V30 2698 O 244.741 1.72379 0.900878 0
M  V30 2699 C 245.024 2.59414 -2.49752 0
M  V30 2700 C 244.877 2.12232 -3.96582 0
M  V30 2701 C 246.196 3.61626 -2.50827 0
M  V30 2702 H 243.315 0.512719 -0.529422 0
M  V30 2703 H 245.957 0.738796 -1.75048 0
M  V30 2704 H 244.107 3.16997 -2.246 0
M  V30 2705 H 245.779 1.59639 -4.32797 0
M  V30 2706 H 244.022 1.43592 -4.09346 0
M  V30 2707 H 244.693 2.9712 -4.65214 0
M  V30 2708 H 247.169 3.13805 -2.7325 0
M  V30 2709 H 246.045 4.41766 -3.25783 0
M  V30 2710 H 246.306 4.14314 -1.5426 0
M  V30 2711 N 245.365 1.30045 0.890287 0
M  V30 2712 C 246.595 1.21296 1.67245 0
M  V30 2713 C 247.003 -0.227471 1.87828 0
M  V30 2714 O 246.346 -1.16296 1.422 0
M  V30 2715 C 246.408 1.86519 3.07329 0
M  V30 2716 C 246.072 3.35837 3.09939 0
M  V30 2717 C 247.069 4.31915 2.89389 0
M  V30 2718 C 244.754 3.77196 3.31706 0
M  V30 2719 C 246.748 5.67325 2.90552 0
M  V30 2720 C 244.435 5.12725 3.32499 0
M  V30 2721 C 245.433 6.076 3.11947 0
M  V30 2722 O 245.121 7.40655 3.12547 0
M  V30 2723 H 244.853 0.4211 0.528821 0
M  V30 2724 H 247.407 1.72111 1.12103 0
M  V30 2725 H 245.637 1.30228 3.64112 0
M  V30 2726 H 247.326 1.71963 3.67673 0
M  V30 2727 H 248.092 4.01294 2.72375 0
M  V30 2728 H 243.971 3.03796 3.4674 0
M  V30 2729 H 247.515 6.41354 2.74429 0
M  V30 2730 H 243.412 5.42988 3.49047 0
M  V30 2731 H 244.18 7.49577 3.28749 0
M  V30 2732 N 246.843 -1.10192 1.12674 0
M  V30 2733 C 247.79 -2.16606 0.796906 0
M  V30 2734 C 248.76 -1.64394 -0.237476 0
M  V30 2735 O 249.945 -1.90474 -0.111484 0
M  V30 2736 C 247.085 -3.44116 0.26043 0
M  V30 2737 C 246.198 -4.10268 1.35293 0
M  V30 2738 C 245.333 -5.25507 0.775621 0
M  V30 2739 C 244.372 -5.83567 1.84706 0
M  V30 2740 N 243.509 -6.90179 1.28829 0
M  V30 2741 H 248.349 -2.44163 1.70846 0
M  V30 2742 H 245.886 -1.19846 0.85295 0
M  V30 2743 H 247.844 -4.17143 -0.0686814 0
M  V30 2744 H 246.474 -3.16901 -0.614274 0
M  V30 2745 H 245.526 -3.35184 1.79877 0
M  V30 2746 H 246.838 -4.4946 2.16303 0
M  V30 2747 H 245.992 -6.05398 0.397327 0
M  V30 2748 H 244.731 -4.87656 -0.0656581 0
M  V30 2749 H 243.736 -5.02344 2.23452 0
M  V30 2750 H 244.961 -6.23482 2.69161 0
M  V30 2751 H 242.907 -6.54322 0.468881 0
M  V30 2752 H 242.824 -7.28097 2.03497 0
M  V30 2753 H 244.092 -7.73844 0.937311 0
M  V30 2754 N 248.321 -0.919034 -1.28029 0
M  V30 2755 C 249.546 -0.570357 -1.99403 0
M  V30 2756 C 249.971 0.842486 -1.68178 0
M  V30 2757 O 249.329 1.56391 -0.917141 0
M  V30 2758 C 249.377 -0.792541 -3.51783 0
M  V30 2759 O 248.481 0.145988 -4.12142 0
M  V30 2760 H 247.822 -0.220555 -0.6263 0
M  V30 2761 H 250.352 -1.23592 -1.63053 0
M  V30 2762 H 250.362 -0.704708 -4.01868 0
M  V30 2763 H 249.037 -1.82247 -3.73844 0
M  V30 2764 H 247.614 0.00897528 -3.72899 0
M  V30 2765 N 249.799 1.42003 -0.683588 0
M  V30 2766 C 250.709 2.34597 -0.0109075 0
M  V30 2767 C 251.725 1.55576 0.779245 0
M  V30 2768 O 252.901 1.88107 0.719555 0
M  V30 2769 C 249.966 3.34199 0.922588 0
M  V30 2770 C 249.027 4.29115 0.125984 0
M  V30 2771 C 248.26 5.23959 1.01502 0
M  V30 2772 O 248.483 5.23952 2.25456 0
M  V30 2773 O 247.417 6.00053 0.47111 0
M  V30 2774 H 251.243 2.93675 -0.773853 0
M  V30 2775 H 248.828 1.42654 -0.443861 0
M  V30 2776 H 250.71 3.95365 1.45823 0
M  V30 2777 H 249.385 2.77582 1.66523 0
M  V30 2778 H 248.292 3.71335 -0.453969 0
M  V30 2779 H 249.625 4.88798 -0.577736 0
M  V30 2780 N 251.277 0.427512 1.51691 0
M  V30 2781 C 252.554 -0.201684 1.94557 0
M  V30 2782 C 252.934 -1.60981 1.36559 0
M  V30 2783 O 252.282 -2.21814 0.548702 0
M  V30 2784 C 252.492 -0.189394 3.48486 0
M  V30 2785 C 253.84 -0.39978 4.22714 0
M  V30 2786 O 254.864 -0.267945 3.55191 0
M  V30 2787 O 253.723 -0.661249 5.42485 0
M  V30 2788 H 250.817 -0.135261 0.815864 0
M  V30 2789 H 253.363 0.484782 1.62628 0
M  V30 2790 H 252.135 0.795431 3.8313 0
M  V30 2791 H 251.758 -0.919187 3.86829 0
M  V30 2792 N 252.755 -1.56801 0.158532 0
M  V30 2793 C 254.004 -1.95665 -0.489702 0
M  V30 2794 C 254.317 -1.04654 -1.65248 0
M  V30 2795 O 255.523 -1.33146 -2.3661 0
M  V30 2796 C 253.979 -3.47874 -0.922582 0
M  V30 2797 C 253.587 -4.47489 0.213893 0
M  V30 2798 C 255.331 -3.95583 -1.53996 0
M  V30 2799 C 253.238 -5.90921 -0.237903 0
M  V30 2800 H 252.168 -0.730516 -0.186716 0
M  V30 2801 H 254.819 -1.81861 0.244722 0
M  V30 2802 H 253.201 -3.57051 -1.71261 0
M  V30 2803 H 254.375 -4.50017 0.991036 0
M  V30 2804 H 252.69 -4.09764 0.740407 0
M  V30 2805 H 255.287 -5.0019 -1.8898 0
M  V30 2806 H 255.63 -3.37789 -2.43319 0
M  V30 2807 H 256.163 -3.8937 -0.814611 0
M  V30 2808 H 252.902 -6.52559 0.620236 0
M  V30 2809 H 252.422 -5.91729 -0.980676 0
M  V30 2810 H 254.101 -6.43352 -0.686067 0
M  V30 2811 N 254.233 0.115231 -1.57178 0
M  V30 2812 C 255.18 1.14115 -2.00615 0
M  V30 2813 C 256.15 1.40939 -0.878941 0
M  V30 2814 O 257.335 1.52741 -1.14345 0
M  V30 2815 C 254.475 2.46156 -2.4187 0
M  V30 2816 C 253.588 2.26236 -3.68024 0
M  V30 2817 C 252.723 3.51534 -3.98243 0
M  V30 2818 C 251.762 3.26787 -5.17568 0
M  V30 2819 N 250.899 4.44298 -5.43639 0
M  V30 2820 H 255.739 0.763743 -2.88047 0
M  V30 2821 H 253.276 0.365615 -1.42484 0
M  V30 2822 H 255.234 3.23189 -2.63827 0
M  V30 2823 H 253.864 2.81783 -1.57475 0
M  V30 2824 H 252.916 1.40102 -3.5366 0
M  V30 2825 H 254.228 2.03929 -4.55208 0
M  V30 2826 H 253.382 4.36984 -4.20868 0
M  V30 2827 H 252.121 3.76876 -3.09541 0
M  V30 2828 H 251.126 2.39729 -4.94783 0
M  V30 2829 H 252.351 3.02812 -6.0785 0
M  V30 2830 H 250.297 4.69754 -4.57895 0
M  V30 2831 H 250.214 4.25109 -6.25154 0
M  V30 2832 H 251.482 5.3087 -5.70786 0
M  V30 2833 N 255.711 1.52812 0.385517 0
M  V30 2834 C 256.659 1.78482 1.49155 0
M  V30 2835 C 257.653 0.652914 1.56312 0
M  V30 2836 O 258.859 0.835464 1.59436 0
M  V30 2837 H 255.234 0.5648 0.496493 0
M  V30 2838 H 257.205 2.71095 1.24699 0
M  V30 2839 C 255.954 1.97378 2.86247 0
M  V30 2840 H 255.277 2.83907 2.81491 0
M  V30 2841 H 256.717 2.19327 3.62866 0
M  V30 2842 C 255.176 0.74728 3.28508 0
M  V30 2843 O 255.706 -0.0736232 4.01633 0
M  V30 2844 N 253.912 0.576396 2.84826 0
M  V30 2845 H 253.459 1.24555 2.25486 0
M  V30 2846 H 253.417 -0.24288 3.1346 0
M  V30 2847 N 257.189 -0.644168 1.43834 0
M  V30 2848 C 258.435 -1.40603 1.46146 0
M  V30 2849 C 258.768 -1.93997 0.0887717 0
M  V30 2850 O 258.043 -1.72854 -0.891724 0
M  V30 2851 C 258.326 -2.58086 2.51124 0
M  V30 2852 C 258.179 -2.10126 3.97702 0
M  V30 2853 C 259.498 -3.60291 2.52742 0
M  V30 2854 H 256.617 -0.509905 0.532134 0
M  V30 2855 H 259.259 -0.729502 1.75437 0
M  V30 2856 H 257.409 -3.15801 2.26278 0
M  V30 2857 H 259.081 -1.57342 4.33637 0
M  V30 2858 H 257.324 -1.41419 4.10101 0
M  V30 2859 H 257.995 -2.94649 4.66783 0
M  V30 2860 H 260.471 -3.12352 2.7491 0
M  V30 2861 H 259.347 -4.40032 3.28121 0
M  V30 2862 H 259.608 -4.1349 1.56455 0
M  V30 2863 N 258.668 -1.30515 -0.883378 0
M  V30 2864 C 259.893 -1.22487 -1.67367 0
M  V30 2865 C 260.318 0.208767 -1.86938 0
M  V30 2866 O 259.676 1.15015 -1.40148 0
M  V30 2867 C 259.724 -1.96041 -3.02655 0
M  V30 2868 O 258.828 -1.28859 -3.91751 0
M  V30 2869 H 258.169 -0.423573 -0.511353 0
M  V30 2870 H 260.699 -1.72362 -1.10239 0
M  V30 2871 H 260.709 -2.05124 -3.52687 0
M  V30 2872 H 259.384 -3.00307 -2.8773 0
M  V30 2873 H 257.961 -1.28141 -3.50192 0
M  V30 2874 N 260.146 1.09593 -1.13257 0
M  V30 2875 C 261.562 1.33775 -0.870423 0
M  V30 2876 C 261.762 1.95327 0.494926 0
M  V30 2877 O 260.818 2.19853 1.2418 0
M  V30 2878 C 262.131 2.25106 -1.99369 0
M  V30 2879 C 263.679 2.3862 -2.02558 0
M  V30 2880 C 264.154 3.33285 -3.14142 0
M  V30 2881 N 265.645 3.40857 -3.13641 0
M  V30 2882 C 266.38 4.14101 -3.96621 0
M  V30 2883 N 265.876 4.90157 -4.8961 0
M  V30 2884 N 267.669 4.09808 -3.84726 0
M  V30 2885 H 259.82 0.680136 -2.01216 0
M  V30 2886 H 262.083 0.362133 -0.876107 0
M  V30 2887 H 261.789 1.87103 -2.97801 0
M  V30 2888 H 261.663 3.25481 -1.90635 0
M  V30 2889 H 264.05 2.75887 -1.0474 0
M  V30 2890 H 264.131 1.38028 -2.15364 0
M  V30 2891 H 263.775 2.96741 -4.12198 0
M  V30 2892 H 263.705 4.33776 -2.98574 0
M  V30 2893 H 266.196 2.86624 -2.46282 0
M  V30 2894 H 266.509 5.4347 -5.49418 0
M  V30 2895 H 264.854 4.89251 -4.93617 0
M  V30 2896 H 268.045 3.4949 -3.11408 0
M  V30 2897 H 268.218 4.66629 -4.49623 0
M  V30 2898 N 261.624 0.925811 1.2754 0
M  V30 2899 C 262.554 0.440748 2.29303 0
M  V30 2900 C 263.535 -0.497971 1.62648 0
M  V30 2901 O 264.72 -0.403126 1.8997 0
M  V30 2902 C 261.85 -0.309048 3.45922 0
M  V30 2903 C 260.804 0.54166 4.24559 0
M  V30 2904 C 260.13 -0.337191 5.33636 0
M  V30 2905 C 261.43 1.80516 4.90114 0
M  V30 2906 H 263.124 1.29121 2.70126 0
M  V30 2907 H 260.67 0.622323 1.29858 0
M  V30 2908 H 262.623 -0.659315 4.1621 0
M  V30 2909 H 261.347 -1.19352 3.04011 0
M  V30 2910 H 260.006 0.874609 3.56014 0
M  V30 2911 H 259.654 -1.22056 4.87966 0
M  V30 2912 H 259.354 0.228497 5.87156 0
M  V30 2913 H 260.878 -0.683072 6.06767 0
M  V30 2914 H 262.292 1.52307 5.52698 0
M  V30 2915 H 260.689 2.3142 5.53683 0
M  V30 2916 H 261.759 2.52581 4.13921 0
M  V30 2917 N 263.102 -1.41638 0.69111 0
M  V30 2918 C 264.034 -2.29194 -0.0161523 0
M  V30 2919 C 265.047 -1.44549 -0.748955 0
M  V30 2920 O 266.236 -1.681 -0.6004 0
M  V30 2921 C 263.336 -3.22325 -1.0469 0
M  V30 2922 C 262.509 -4.35706 -0.384621 0
M  V30 2923 C 261.568 -5.09443 -1.31737 0
M  V30 2924 O 260.594 -5.63386 -0.811451 0
M  V30 2925 N 261.796 -5.16487 -2.64993 0
M  V30 2926 H 264.561 -2.90534 0.735523 0
M  V30 2927 H 262.122 -1.52742 0.53679 0
M  V30 2928 H 264.114 -3.68522 -1.67252 0
M  V30 2929 H 262.684 -2.62323 -1.70015 0
M  V30 2930 H 261.904 -3.91948 0.420804 0
M  V30 2931 H 263.192 -5.08743 0.0760765 0
M  V30 2932 H 262.59 -4.741 -3.08619 0
M  V30 2933 H 261.147 -5.66276 -3.22761 0
M  V30 2934 N 264.58 -0.43555 -1.51462 0
M  V30 2935 C 265.805 0.132627 -2.06976 0
M  V30 2936 C 266.23 1.35848 -1.30104 0
M  V30 2937 O 265.588 1.78112 -0.338493 0
M  V30 2938 C 265.636 0.43523 -3.57964 0
M  V30 2939 O 264.74 1.52198 -3.83288 0
M  V30 2940 H 264.081 0.00265 -0.663995 0
M  V30 2941 H 266.611 -0.616369 -1.95095 0
M  V30 2942 H 266.621 0.686206 -4.02188 0
M  V30 2943 H 265.296 -0.460739 -4.1334 0
M  V30 2944 H 263.873 1.2611 -3.50928 0
M  V30 2945 N 266.058 1.56714 -0.166846 0
M  V30 2946 C 267.469 1.83378 0.350646 0
M  V30 2947 C 267.82 1.08646 1.63372 0
M  V30 2948 O 266.945 0.338058 2.13743 0
M  V30 2949 C 267.54 3.32643 0.642963 0
M  V30 2950 C 266.099 3.59818 1.10491 0
M  V30 2951 C 265.246 2.76954 0.138411 0
M  V30 2952 H 268.197 1.53803 -0.391193 0
M  V30 2953 H 268.218 3.49878 1.49551 0
M  V30 2954 H 267.73 3.87007 -0.291055 0
M  V30 2955 H 265.831 3.1086 2.05418 0
M  V30 2956 H 265.944 4.68178 1.01716 0
M  V30 2957 H 264.308 2.4666 0.634911 0
M  V30 2958 H 265.091 3.34097 -0.789549 0
M  V30 2959 N 267.536 -0.106894 1.57237 0
M  V30 2960 C 268.483 -1.13049 2.01217 0
M  V30 2961 C 269.453 -1.40471 0.886403 0
M  V30 2962 O 270.638 -1.52133 1.15153 0
M  V30 2963 C 267.778 -2.4487 2.43172 0
M  V30 2964 C 266.891 -2.24281 3.69218 0
M  V30 2965 C 266.026 -3.49417 4.00101 0
M  V30 2966 C 265.065 -3.24038 5.19294 0
M  V30 2967 N 264.202 -4.41409 5.45988 0
M  V30 2968 H 269.042 -0.748456 2.88448 0
M  V30 2969 H 266.579 -0.358054 1.42676 0
M  V30 2970 H 268.537 -3.21786 2.65537 0
M  V30 2971 H 267.167 -2.80944 1.58967 0
M  V30 2972 H 266.219 -1.38224 3.54398 0
M  V30 2973 H 267.531 -2.01512 4.56283 0
M  V30 2974 H 266.685 -4.34746 4.2318 0
M  V30 2975 H 265.424 -3.75229 3.11535 0
M  V30 2976 H 264.429 -2.37102 4.96047 0
M  V30 2977 H 265.654 -2.99584 6.09447 0
M  V30 2978 H 263.6 -4.67319 4.60379 0
M  V30 2979 H 263.517 -4.21788 6.274 0
M  V30 2980 H 264.785 -5.27836 5.73593 0
M  V30 2981 N 269.014 -1.53014 -0.377408 0
M  V30 2982 C 270.26 -1.68872 -1.12294 0
M  V30 2983 C 270.593 -0.433224 -1.89306 0
M  V30 2984 O 269.868 0.569258 -1.85983 0
M  V30 2985 C 270.151 -2.93115 -2.09179 0
M  V30 2986 C 270.004 -4.28794 -1.35853 0
M  V30 2987 C 271.323 -3.12928 -3.09458 0
M  V30 2988 H 268.442 -0.614518 -0.406862 0
M  V30 2989 H 271.084 -1.85633 -0.40503 0
M  V30 2990 H 269.234 -2.78956 -2.70399 0
M  V30 2991 H 270.906 -4.54742 -0.775082 0
M  V30 2992 H 269.149 -4.28744 -0.660364 0
M  V30 2993 H 269.82 -5.11837 -2.06706 0
M  V30 2994 H 272.296 -3.26194 -2.58334 0
M  V30 2995 H 271.172 -4.01316 -3.74482 0
M  V30 2996 H 271.433 -2.27669 -3.78971 0
M  V30 2997 N 270.492 0.636531 -1.44174 0
M  V30 2998 C 271.732 1.40781 -1.48189 0
M  V30 2999 C 272.096 1.91688 -0.10944 0
M  V30 3000 O 273.297 2.68789 -0.0242741 0
M  V30 3001 C 271.568 2.54575 -2.50851 0
M  V30 3002 S 273.127 3.4284 -2.73873 0
M  V30 3003 H 269.945 0.480345 -0.524204 0
M  V30 3004 H 272.547 0.737416 -1.81059 0
M  V30 3005 H 271.251 2.15478 -3.49281 0
M  V30 3006 H 270.782 3.26447 -2.19536 0
M  V30 3007 H 272.797 4.51846 -2.05059 0
M  V30 3008 N 271.97 1.30982 0.876444 0
M  V30 3009 C 273.218 1.20058 1.62575 0
M  V30 3010 C 273.539 -0.242947 1.93481 0
M  V30 3011 O 272.809 -1.1619 1.57724 0
M  V30 3012 H 271.389 0.44135 0.602677 0
M  V30 3013 H 274.051 1.64222 1.04962 0
M  V30 3014 H 273.147 1.76762 2.57219 0
M  V30 3015 N 273.449 -1.08991 1.13837 0
M  V30 3016 C 274.679 -1.84743 0.924859 0
M  V30 3017 C 275.087 -1.81629 -0.529874 0
M  V30 3018 O 274.43 -1.21397 -1.37872 0
M  V30 3019 C 274.492 -3.33568 1.34061 0
M  V30 3020 C 274.156 -3.60425 2.80968 0
M  V30 3021 C 275.153 -3.55771 3.79108 0
M  V30 3022 C 272.838 -3.88627 3.18236 0
M  V30 3023 C 274.832 -3.78939 5.12527 0
M  V30 3024 C 272.519 -4.11449 4.51833 0
M  V30 3025 C 273.517 -4.06598 5.48787 0
M  V30 3026 O 273.205 -4.28826 6.79973 0
M  V30 3027 H 272.937 -0.590258 0.329502 0
M  V30 3028 H 275.491 -1.38598 1.51591 0
M  V30 3029 H 273.721 -3.80442 0.692853 0
M  V30 3030 H 275.41 -3.90743 1.09886 0
M  V30 3031 H 276.176 -3.34005 3.51661 0
M  V30 3032 H 272.055 -3.91526 2.43369 0
M  V30 3033 H 275.599 -3.75068 5.88192 0
M  V30 3034 H 271.496 -4.32698 4.79002 0
M  V30 3035 H 272.264 -4.46264 6.86142 0
M  V30 3036 N 274.927 -0.932562 -1.27047 0
M  V30 3037 C 275.857 -0.452902 -2.29066 0
M  V30 3038 C 276.838 0.489338 -1.62909 0
M  V30 3039 O 278.023 0.393046 -1.90181 0
M  V30 3040 C 275.153 0.290698 -3.46081 0
M  V30 3041 C 274.107 -0.564168 -4.24265 0
M  V30 3042 C 273.433 0.308886 -5.33807 0
M  V30 3043 C 274.733 -1.83112 -4.89149 0
M  V30 3044 H 276.427 -1.30552 -2.69437 0
M  V30 3045 H 273.973 -0.629201 -1.29526 0
M  V30 3046 H 275.926 0.637233 -4.16554 0
M  V30 3047 H 274.65 1.17738 -3.0464 0
M  V30 3048 H 273.309 -0.893477 -3.55545 0
M  V30 3049 H 272.957 1.19467 -4.88607 0
M  V30 3050 H 272.657 -0.259633 -5.87026 0
M  V30 3051 H 274.181 0.650884 -6.07121 0
M  V30 3052 H 275.595 -1.55236 -5.51883 0
M  V30 3053 H 273.992 -2.34353 -5.52448 0
M  V30 3054 H 275.062 -2.54772 -4.12576 0
M  V30 3055 N 276.405 1.4127 -0.698611 0
M  V30 3056 C 277.352 2.30773 -0.0352094 0
M  V30 3057 C 278.322 1.47273 0.768111 0
M  V30 3058 O 279.507 1.76053 0.735524 0
M  V30 3059 C 276.647 3.33346 0.893 0
M  V30 3060 C 275.76 4.31924 0.0809695 0
M  V30 3061 C 274.895 5.21566 1.0071 0
M  V30 3062 C 273.934 6.11811 0.188155 0
M  V30 3063 N 273.071 6.93926 1.06825 0
M  V30 3064 H 277.911 2.86943 -0.804207 0
M  V30 3065 H 275.448 1.4132 -0.408294 0
M  V30 3066 H 277.406 3.91368 1.44523 0
M  V30 3067 H 276.036 2.78719 1.62836 0
M  V30 3068 H 275.088 3.75825 -0.588224 0
M  V30 3069 H 276.4 4.95716 -0.553801 0
M  V30 3070 H 275.554 5.84437 1.62845 0
M  V30 3071 H 274.293 4.58008 1.67572 0
M  V30 3072 H 273.298 5.47986 -0.446254 0
M  V30 3073 H 274.523 6.77425 -0.476716 0
M  V30 3074 H 272.469 6.32973 1.72283 0
M  V30 3075 H 272.386 7.54416 0.489123 0
M  V30 3076 H 273.654 7.61262 1.67632 0
M  V30 3077 N 277.883 0.443576 1.51229 0
M  V30 3078 C 279.129 -0.120975 2.02439 0
M  V30 3079 C 279.462 -1.41815 1.32674 0
M  V30 3080 O 278.737 -1.89373 0.443622 0
M  V30 3081 C 279.02 -0.333291 3.58554 0
M  V30 3082 C 278.873 0.982968 4.38928 0
M  V30 3083 C 280.192 -1.10028 4.26124 0
M  V30 3084 H 277.311 -0.0424923 0.735774 0
M  V30 3085 H 279.953 0.583794 1.80809 0
M  V30 3086 H 278.103 -0.933614 3.77115 0
M  V30 3087 H 279.775 1.61775 4.32003 0
M  V30 3088 H 278.018 1.58611 4.03763 0
M  V30 3089 H 278.689 0.788379 5.46341 0
M  V30 3090 H 281.165 -0.591711 4.11871 0
M  V30 3091 H 280.041 -1.21761 5.35225 0
M  V30 3092 H 280.302 -2.12996 3.87408 0
M  V30 3093 N 279.361 -1.56624 0.175154 0
M  V30 3094 C 280.638 -1.88688 -0.515373 0
M  V30 3095 C 281.018 -1.08564 -1.81044 0
M  V30 3096 O 280.366 -0.180703 -2.27784 0
M  V30 3097 C 280.576 -3.40768 -0.753552 0
M  V30 3098 C 281.924 -4.10587 -1.08184 0
M  V30 3099 O 282.948 -3.46106 -0.841961 0
M  V30 3100 O 281.807 -5.24512 -1.53459 0
M  V30 3101 H 278.901 -0.78301 -0.26613 0
M  V30 3102 H 281.447 -1.68347 0.213877 0
M  V30 3103 H 280.219 -3.90965 0.161829 0
M  V30 3104 H 279.842 -3.66733 -1.53598 0
M  V30 3105 N 280.839 0.0985539 -1.57292 0
M  V30 3106 C 281.787 1.1387 -2.02821 0
M  V30 3107 C 282.781 1.41676 -0.928666 0
M  V30 3108 O 283.987 1.41398 -1.11385 0
M  V30 3109 H 280.362 0.384419 -0.646317 0
M  V30 3110 H 282.333 0.728347 -2.89375 0
M  V30 3111 C 281.082 2.45166 -2.46554 0
M  V30 3112 H 280.405 2.24613 -3.3074 0
M  V30 3113 H 281.845 3.16456 -2.8219 0
M  V30 3114 C 280.304 3.09216 -1.33742 0
M  V30 3115 O 280.834 3.96163 -0.66464 0
M  V30 3116 N 279.04 2.69413 -1.08928 0
M  V30 3117 H 278.587 1.98801 -1.63817 0
M  V30 3118 H 278.545 3.12594 -0.336458 0
M  V30 3119 N 282.317 1.53212 0.369288 0
M  V30 3120 C 283.227 1.82342 1.47609 0
M  V30 3121 C 284.243 0.711532 1.58787 0
M  V30 3122 O 285.419 1.0012 1.74751 0
M  V30 3123 C 282.484 2.00393 2.8292 0
M  V30 3124 C 281.545 3.24297 2.81301 0
M  V30 3125 C 280.778 3.41478 4.10157 0
M  V30 3126 O 281.001 2.63033 5.06132 0
M  V30 3127 O 279.935 4.34817 4.16194 0
M  V30 3128 H 283.761 2.76366 1.25918 0
M  V30 3129 H 281.346 1.38547 0.559034 0
M  V30 3130 H 283.228 2.13859 3.63101 0
M  V30 3131 H 281.903 1.09559 3.04596 0
M  V30 3132 H 280.81 3.16257 1.99831 0
M  V30 3133 H 282.143 4.15041 2.64578 0
M  V30 3134 N 283.795 -0.628877 1.44509 0
M  V30 3135 C 284.705 -1.7694 1.54044 0
M  V30 3136 C 285.721 -1.68705 0.425987 0
M  V30 3137 O 286.897 -1.89442 0.683656 0
M  V30 3138 C 283.962 -3.13332 1.48405 0
M  V30 3139 C 283.023 -3.33181 2.70719 0
M  V30 3140 C 282.256 -4.63067 2.6534 0
M  V30 3141 O 282.479 -5.44017 1.71469 0
M  V30 3142 O 281.413 -4.85167 3.56226 0
M  V30 3143 H 285.239 -1.71848 2.50403 0
M  V30 3144 H 282.824 -0.790378 1.26781 0
M  V30 3145 H 284.706 -3.94634 1.47791 0
M  V30 3146 H 283.381 -3.1896 0.551898 0
M  V30 3147 H 282.288 -2.51549 2.769 0
M  V30 3148 H 283.621 -3.32416 3.62988 0
M  V30 3149 N 285.273 -1.31445 -0.869486 0
M  V30 3150 C 286.203 -1.21727 -1.99261 0
M  V30 3151 C 287.184 -0.104359 -1.6978 0
M  V30 3152 O 288.369 -0.289038 -1.92037 0
M  V30 3153 C 285.499 -0.924317 -3.34774 0
M  V30 3154 C 284.453 -1.99685 -3.78563 0
M  V30 3155 C 283.779 -1.55658 -5.11541 0
M  V30 3156 C 285.079 -3.41003 -3.95619 0
M  V30 3157 H 286.773 -2.1569 -2.07649 0
M  V30 3158 H 284.319 -1.03839 -0.997675 0
M  V30 3159 H 286.272 -0.842934 -4.12883 0
M  V30 3160 H 284.996 0.0509793 -3.2656 0
M  V30 3161 H 283.655 -2.06813 -3.02694 0
M  V30 3162 H 283.303 -0.569132 -4.9977 0
M  V30 3163 H 283.003 -2.27409 -5.41811 0
M  V30 3164 H 284.527 -1.48928 -5.92159 0
M  V30 3165 H 285.941 -3.36547 -4.64122 0
M  V30 3166 H 284.338 -4.10975 -4.37286 0
M  V30 3167 H 285.408 -3.81754 -2.98985 0
M  V30 3168 N 286.751 1.08385 -1.14413 0
M  V30 3169 C 287.681 2.17321 -0.854044 0
M  V30 3170 C 288.662 1.69024 0.191049 0
M  V30 3171 O 289.847 1.94141 0.0476779 0
M  V30 3172 C 286.977 3.45719 -0.330983 0
M  V30 3173 C 285.931 4.07409 -1.31155 0
M  V30 3174 C 285.257 5.30762 -0.64778 0
M  V30 3175 C 286.557 4.48665 -2.67388 0
M  V30 3176 H 288.251 2.41845 -1.76498 0
M  V30 3177 H 285.797 1.16233 -0.850051 0
M  V30 3178 H 287.75 4.21241 -0.115645 0
M  V30 3179 H 286.474 3.2075 0.615381 0
M  V30 3180 H 285.133 3.33919 -1.51306 0
M  V30 3181 H 284.781 5.02078 0.304398 0
M  V30 3182 H 284.481 5.72992 -1.30207 0
M  V30 3183 H 286.005 6.08998 -0.441972 0
M  V30 3184 H 287.419 5.15364 -2.51143 0
M  V30 3185 H 285.816 5.01814 -3.29093 0
M  V30 3186 H 286.886 3.60543 -3.24248 0
M  V30 3187 N 288.23 0.939286 1.26551 0
M  V30 3188 C 289.641 0.628782 1.75793 0
M  V30 3189 C 289.992 -0.856046 1.7654 0
M  V30 3190 O 289.117 -1.66994 1.3763 0
M  V30 3191 C 289.712 1.13465 3.19235 0
M  V30 3192 C 288.271 0.874601 3.66098 0
M  V30 3193 C 287.418 1.28667 2.45642 0
M  V30 3194 H 290.369 1.1178 1.12654 0
M  V30 3195 H 290.39 0.487609 3.77363 0
M  V30 3196 H 289.902 2.21535 3.1866 0
M  V30 3197 H 288.003 -0.191793 3.72106 0
M  V30 3198 H 288.116 1.50028 4.55004 0
M  V30 3199 H 286.48 0.705109 2.44745 0
M  V30 3200 H 287.263 2.37625 2.47769 0
M  V30 3201 N 289.708 -1.40897 0.706093 0
M  V30 3202 C 290.655 -2.30751 0.0474474 0
M  V30 3203 C 291.625 -1.47678 -0.76029 0
M  V30 3204 O 292.81 -1.76441 -0.726177 0
M  V30 3205 C 289.95 -3.33815 -0.875309 0
M  V30 3206 C 289.063 -4.31961 -0.0580623 0
M  V30 3207 C 288.198 -5.22093 -0.979425 0
M  V30 3208 C 287.237 -6.11902 -0.155706 0
M  V30 3209 N 286.374 -6.94482 -1.03144 0
M  V30 3210 H 291.214 -2.86513 0.819413 0
M  V30 3211 H 288.751 -1.41102 0.415783 0
M  V30 3212 H 290.709 -3.92129 -1.42446 0
M  V30 3213 H 289.339 -2.79579 -1.61356 0
M  V30 3214 H 288.391 -3.75507 0.608147 0
M  V30 3215 H 289.703 -4.95415 0.580082 0
M  V30 3216 H 288.857 -5.85292 -1.59744 0
M  V30 3217 H 287.596 -4.5889 -1.65141 0
M  V30 3218 H 286.601 -5.47742 0.475309 0
M  V30 3219 H 287.826 -6.77162 0.512635 0
M  V30 3220 H 285.772 -6.33877 -1.68924 0
M  V30 3221 H 285.689 -7.54665 -0.449108 0
M  V30 3222 H 286.957 -7.6214 -1.63593 0
M  V30 3223 N 291.186 -0.45159 -1.50991 0
M  V30 3224 C 292.434 0.109857 -2.01801 0
M  V30 3225 C 292.755 1.41958 -1.3369 0
M  V30 3226 O 292.025 1.9003 -0.475951 0
M  V30 3227 H 290.605 0.0435884 -0.745727 0
M  V30 3228 H 293.267 -0.597557 -1.85514 0
M  V30 3229 H 292.363 0.275489 -3.10882 0
M  V30 3230 N 292.664 1.56529 -0.183458 0
M  V30 3231 C 293.594 2.21549 0.737456 0
M  V30 3232 C 294.575 1.17489 1.23005 0
M  V30 3233 O 295.76 1.45959 1.281 0
M  V30 3234 C 292.89 2.86575 1.96194 0
M  V30 3235 C 291.844 3.96778 1.60473 0
M  V30 3236 C 291.17 4.48911 2.90487 0
M  V30 3237 C 292.47 5.15767 0.823497 0
M  V30 3238 H 294.164 2.98761 0.195453 0
M  V30 3239 H 291.71 1.43702 0.0925686 0
M  V30 3240 H 293.663 3.30739 2.61131 0
M  V30 3241 H 292.387 2.06749 2.52828 0
M  V30 3242 H 291.046 3.53286 0.978997 0
M  V30 3243 H 290.694 3.65862 3.45186 0
M  V30 3244 H 290.394 5.23265 2.67335 0
M  V30 3245 H 291.918 4.95771 3.56432 0
M  V30 3246 H 293.332 5.56549 1.37571 0
M  V30 3247 H 291.729 5.96114 0.690551 0
M  V30 3248 H 292.799 4.84574 -0.177782 0
M  V30 3249 N 294.142 -0.090211 1.57342 0
M  V30 3250 C 295.388 -0.793982 1.86611 0
M  V30 3251 C 295.721 -1.78142 0.773252 0
M  V30 3252 O 294.996 -1.93271 -0.218304 0
M  V30 3253 C 295.279 -1.51839 3.26523 0
M  V30 3254 C 295.132 -0.548609 4.46442 0
M  V30 3255 C 296.451 -2.46779 3.64401 0
M  V30 3256 H 293.57 -0.287186 0.678744 0
M  V30 3257 H 296.212 -0.0575076 1.89913 0
M  V30 3258 H 294.362 -2.14617 3.23839 0
M  V30 3259 H 296.034 0.0725513 4.61243 0
M  V30 3260 H 294.277 0.137614 4.33582 0
M  V30 3261 H 294.948 -1.09271 5.41076 0
M  V30 3262 H 297.424 -1.94089 3.68061 0
M  V30 3263 H 296.3 -2.94479 4.63221 0
M  V30 3264 H 296.561 -3.30758 2.93346 0
M  V30 3265 N 295.62 -1.53406 -0.361157 0
M  V30 3266 C 296.897 -1.60411 -1.11927 0
M  V30 3267 C 297.277 -0.414385 -2.06993 0
M  V30 3268 O 296.625 0.594976 -2.20618 0
M  V30 3269 C 296.835 -2.95652 -1.85448 0
M  V30 3270 C 298.183 -3.50386 -2.39823 0
M  V30 3271 O 299.207 -2.97711 -1.95568 0
M  V30 3272 O 298.066 -4.42482 -3.20737 0
M  V30 3273 H 295.16 -0.64811 -0.513695 0
M  V30 3274 H 297.706 -1.65749 -0.364065 0
M  V30 3275 H 296.478 -3.73682 -1.16091 0
M  V30 3276 H 296.101 -2.93825 -2.67866 0
M  V30 3277 N 297.098 0.621204 -1.44841 0
M  V30 3278 C 298.514 0.94048 -1.28946 0
M  V30 3279 C 298.714 2.00154 -0.23249 0
M  V30 3280 O 297.77 2.49651 0.378237 0
M  V30 3281 C 299.083 1.39433 -2.66419 0
M  V30 3282 C 300.631 1.50927 -2.74208 0
M  V30 3283 C 301.106 1.99692 -4.12174 0
M  V30 3284 N 302.597 2.06947 -4.144 0
M  V30 3285 C 303.332 2.45871 -5.1801 0
M  V30 3286 N 302.828 2.83862 -6.31977 0
M  V30 3287 N 304.621 2.46092 -5.05366 0
M  V30 3288 H 296.772 -0.0803548 -2.12248 0
M  V30 3289 H 299.035 0.0266913 -0.947624 0
M  V30 3290 H 298.741 0.688925 -3.44887 0
M  V30 3291 H 298.615 2.36347 -2.93973 0
M  V30 3292 H 301.002 2.20561 -1.96053 0
M  V30 3293 H 301.083 0.523627 -2.50383 0
M  V30 3294 H 300.727 1.30649 -4.90809 0
M  V30 3295 H 300.657 2.99146 -4.33381 0
M  V30 3296 H 303.148 1.80232 -3.32152 0
M  V30 3297 H 303.461 3.12405 -7.0684 0
M  V30 3298 H 301.806 2.8159 -6.35399 0
M  V30 3299 H 304.997 2.1581 -4.15384 0
M  V30 3300 H 305.17 2.76102 -5.86235 0
M  V30 3301 N 298.576 1.31904 0.862503 0
M  V30 3302 C 299.486 1.22161 2.00285 0
M  V30 3303 C 300.502 0.136785 1.73462 0
M  V30 3304 O 301.678 0.355994 1.98229 0
M  V30 3305 C 298.743 0.937093 3.33796 0
M  V30 3306 C 297.804 2.10957 3.73893 0
M  V30 3307 C 297.037 1.83853 5.01033 0
M  V30 3308 O 297.26 0.777274 5.65079 0
M  V30 3309 O 296.194 2.69741 5.38074 0
M  V30 3310 H 300.02 2.18008 2.11439 0
M  V30 3311 H 297.605 1.11716 0.991957 0
M  V30 3312 H 299.487 0.794583 4.13841 0
M  V30 3313 H 298.162 0.00871894 3.23699 0
M  V30 3314 H 297.069 2.30752 2.94456 0
M  V30 3315 H 298.402 3.02046 3.88625 0
M  V30 3316 N 300.054 -1.07777 1.14986 0
M  V30 3317 C 301.465 -1.61766 0.932127 0
M  V30 3318 C 301.816 -1.88974 -0.527581 0
M  V30 3319 O 300.941 -1.65198 -1.39781 0
M  V30 3320 C 301.536 -2.93891 1.68563 0
M  V30 3321 C 300.095 -3.44639 1.5133 0
M  V30 3322 C 299.242 -2.18767 1.704 0
M  V30 3323 H 302.193 -0.909201 1.30074 0
M  V30 3324 H 302.214 -3.62623 1.15259 0
M  V30 3325 H 301.726 -2.74057 2.74799 0
M  V30 3326 H 299.827 -3.69564 0.474702 0
M  V30 3327 H 299.94 -4.20966 2.28746 0
M  V30 3328 H 298.304 -2.28253 1.13016 0
M  V30 3329 H 299.087 -2.01433 2.77992 0
M  V30 3330 N 301.532 -0.945985 -1.26051 0
M  V30 3331 C 302.943 -0.638096 -1.75457 0
M  V30 3332 C 303.294 0.846672 -1.76991 0
M  V30 3333 O 302.419 1.66262 -1.38513 0
M  V30 3334 C 303.014 -1.15157 -3.18629 0
M  V30 3335 C 301.573 -0.894004 -3.65629 0
M  V30 3336 C 300.72 -1.29967 -2.44957 0
M  V30 3337 H 303.671 -1.12376 -1.1206 0
M  V30 3338 H 303.692 -0.507615 -3.77099 0
M  V30 3339 H 303.204 -2.23222 -3.1748 0
M  V30 3340 H 301.305 0.172057 -3.72203 0
M  V30 3341 H 301.418 -1.52439 -4.54202 0
M  V30 3342 H 299.782 -0.718078 -2.44368 0
M  V30 3343 H 300.565 -2.38935 -2.46505 0
M  V30 3344 N 303.011 1.40521 -0.713556 0
M  V30 3345 C 303.921 2.34522 -0.0606667 0
M  V30 3346 C 304.937 1.57193 0.74607 0
M  V30 3347 O 306.113 1.89591 0.679493 0
M  V30 3348 C 303.178 3.36081 0.851491 0
M  V30 3349 C 302.239 4.29286 0.0349339 0
M  V30 3350 C 301.472 5.25994 0.903649 0
M  V30 3351 O 301.695 5.28616 2.14292 0
M  V30 3352 O 300.629 6.00918 0.343723 0
M  V30 3353 H 304.455 2.91968 -0.835972 0
M  V30 3354 H 302.04 1.41681 -0.47402 0
M  V30 3355 H 303.922 3.98369 1.37404 0
M  V30 3356 H 302.597 2.81052 1.60598 0
M  V30 3357 H 301.504 3.70289 -0.532633 0
M  V30 3358 H 302.837 4.87462 -0.681287 0
M  V30 3359 N 304.489 0.459591 1.5075 0
M  V30 3360 C 305.399 -0.34613 2.32033 0
M  V30 3361 C 306.415 -1.00686 1.41909 0
M  V30 3362 O 307.591 -0.997361 1.7497 0
M  V30 3363 C 304.656 -1.42029 3.16273 0
M  V30 3364 C 303.717 -0.777362 4.22203 0
M  V30 3365 C 302.95 -1.80034 5.02418 0
M  V30 3366 O 303.173 -3.02544 4.83553 0
M  V30 3367 O 302.107 -1.37853 5.85901 0
M  V30 3368 H 305.933 0.318054 3.0203 0
M  V30 3369 H 303.518 0.221663 1.47746 0
M  V30 3370 H 305.4 -2.04275 3.68578 0
M  V30 3371 H 304.075 -2.06815 2.49016 0
M  V30 3372 H 302.982 -0.116256 3.73919 0
M  V30 3373 H 304.315 -0.172634 4.91897 0
M  V30 3374 N 305.967 -1.56429 0.191757 0
M  V30 3375 C 306.897 -2.21937 -0.725696 0
M  V30 3376 C 307.878 -1.1814 -1.2238 0
M  V30 3377 O 309.063 -1.46636 -1.27325 0
M  V30 3378 C 306.193 -2.87611 -1.94672 0
M  V30 3379 C 305.147 -3.97623 -1.58366 0
M  V30 3380 C 304.473 -4.50446 -2.88102 0
M  V30 3381 C 305.773 -5.16197 -0.796133 0
M  V30 3382 H 307.467 -2.98861 -0.179606 0
M  V30 3383 H 305.013 -1.43749 -0.0849464 0
M  V30 3384 H 306.966 -3.3212 -2.59373 0
M  V30 3385 H 305.69 -2.08087 -2.51728 0
M  V30 3386 H 304.349 -3.53801 -0.960247 0
M  V30 3387 H 303.997 -3.67688 -3.43241 0
M  V30 3388 H 303.697 -5.24675 -2.64556 0
M  V30 3389 H 305.221 -4.97654 -3.53798 0
M  V30 3390 H 306.635 -5.57271 -1.34618 0
M  V30 3391 H 305.032 -5.96471 -0.658928 0
M  V30 3392 H 306.102 -4.84473 0.203478 0
M  V30 3393 N 307.445 0.0818655 -1.57387 0
M  V30 3394 C 308.691 0.784074 -1.8703 0
M  V30 3395 C 309.024 1.77729 -0.782689 0
M  V30 3396 O 308.299 1.93384 0.208051 0
M  V30 3397 C 308.582 1.50105 -3.27323 0
M  V30 3398 C 308.435 0.524925 -4.46727 0
M  V30 3399 C 309.754 2.44843 -3.65705 0
M  V30 3400 H 306.873 0.283582 -0.680257 0
M  V30 3401 H 309.515 0.0474352 -1.89941 0
M  V30 3402 H 307.665 2.12897 -3.24972 0
M  V30 3403 H 309.337 -0.0970111 -4.61198 0
M  V30 3404 H 307.58 -0.160606 -4.33503 0
M  V30 3405 H 308.251 1.064 -5.41648 0
M  V30 3406 H 310.727 1.92135 -3.69085 0
M  V30 3407 H 309.603 2.92018 -4.64776 0
M  V30 3408 H 309.864 3.29197 -2.95096 0
M  V30 3409 N 308.923 1.53595 0.353017 0
M  V30 3410 C 309.873 1.77299 1.43349 0
M  V30 3411 C 310.857 0.627884 1.48143 0
M  V30 3412 O 312.049 0.88697 1.53173 0
M  V30 3413 C 309.178 1.97757 2.80619 0
M  V30 3414 C 308.264 3.18305 2.80254 0
M  V30 3415 N 308.655 4.39967 2.49526 0
M  V30 3416 C 306.953 3.19283 3.11407 0
M  V30 3417 C 307.654 5.21772 2.57156 0
M  V30 3418 N 306.63 4.58269 2.92388 0
M  V30 3419 H 310.432 2.68963 1.18474 0
M  V30 3420 H 307.946 1.52391 0.561306 0
M  V30 3421 H 309.943 2.1287 3.58458 0
M  V30 3422 H 308.603 1.07329 3.06448 0
M  V30 3423 H 309.614 4.67482 2.22893 0
M  V30 3424 H 306.291 2.3879 3.4247 0
M  V30 3425 H 307.681 6.2885 2.36638 0
M  V30 3426 N 310.401 -0.613514 1.45168 0
M  V30 3427 C 311.817 -0.933629 1.29443 0
M  V30 3428 C 312.017 -2.00028 0.243101 0
M  V30 3429 O 311.073 -2.49848 -0.364992 0
M  V30 3430 C 312.386 -1.38018 2.67155 0
M  V30 3431 C 313.934 -1.49471 2.75004 0
M  V30 3432 C 314.409 -1.97503 4.13227 0
M  V30 3433 N 315.9 -2.04746 4.15491 0
M  V30 3434 C 316.635 -2.43121 5.19307 0
M  V30 3435 N 316.131 -2.80506 6.33473 0
M  V30 3436 N 317.924 -2.43408 5.06664 0
M  V30 3437 H 310.075 0.0916097 2.12202 0
M  V30 3438 H 312.338 -0.0216655 0.947752 0
M  V30 3439 H 312.044 -0.670625 3.45247 0
M  V30 3440 H 311.918 -2.34784 2.95222 0
M  V30 3441 H 314.305 -2.19519 1.9722 0
M  V30 3442 H 314.386 -0.510342 2.50657 0
M  V30 3443 H 314.03 -1.28045 4.91495 0
M  V30 3444 H 313.96 -2.96843 4.34962 0
M  V30 3445 H 316.451 -1.78468 3.33103 0
M  V30 3446 H 316.764 -3.08652 7.08487 0
M  V30 3447 H 315.109 -2.78216 6.36884 0
M  V30 3448 H 318.3 -2.13604 4.16523 0
M  V30 3449 H 318.473 -2.72989 5.87691 0
M  V30 3450 N 311.879 -1.3236 -0.855495 0
M  V30 3451 C 313.125 -1.23054 -1.612 0
M  V30 3452 C 313.458 0.207404 -1.93089 0
M  V30 3453 O 312.733 1.14432 -1.57275 0
M  V30 3454 C 313.016 -2.08937 -2.93287 0
M  V30 3455 C 312.869 -3.61105 -2.68185 0
M  V30 3456 C 314.188 -1.94986 -3.94549 0
M  V30 3457 H 311.307 -0.448364 -0.584926 0
M  V30 3458 H 313.949 -1.62297 -0.987917 0
M  V30 3459 H 312.099 -1.75599 -3.46551 0
M  V30 3460 H 313.771 -4.04652 -2.21483 0
M  V30 3461 H 312.014 -3.83813 -2.02164 0
M  V30 3462 H 312.685 -4.16522 -3.62234 0
M  V30 3463 H 315.161 -2.24189 -3.5054 0
M  V30 3464 H 314.037 -2.57356 -4.84829 0
M  V30 3465 H 314.298 -0.917263 -4.3248 0
M  V30 3466 N 313.357 1.07166 -1.15556 0
M  V30 3467 C 314.304 2.14417 -0.854055 0
M  V30 3468 C 315.274 1.64965 0.193806 0
M  V30 3469 O 316.459 1.90703 0.0609443 0
M  V30 3470 C 313.599 3.43304 -0.351574 0
M  V30 3471 C 312.712 4.06537 -1.46123 0
M  V30 3472 C 311.847 5.23266 -0.914677 0
M  V30 3473 C 310.886 5.78464 -2.00114 0
M  V30 3474 N 310.023 6.86521 -1.47083 0
M  V30 3475 H 314.863 2.39548 -1.77259 0
M  V30 3476 H 312.4 1.17543 -0.884425 0
M  V30 3477 H 314.358 4.17179 -0.0419409 0
M  V30 3478 H 312.988 3.18419 0.530037 0
M  V30 3479 H 312.04 3.30297 -1.88701 0
M  V30 3480 H 313.352 4.43567 -2.28144 0
M  V30 3481 H 312.506 6.04131 -0.557698 0
M  V30 3482 H 311.245 4.87658 -0.0636583 0
M  V30 3483 H 310.25 4.96243 -2.36692 0
M  V30 3484 H 311.475 6.16126 -2.85597 0
M  V30 3485 H 309.421 6.52849 -0.642198 0
M  V30 3486 H 309.338 7.22446 -2.22729 0
M  V30 3487 H 310.606 7.71087 -1.14215 0
M  V30 3488 N 314.835 0.952656 1.25548 0
M  V30 3489 C 316.251 0.656769 1.4546 0
M  V30 3490 C 316.451 -0.78633 1.85524 0
M  V30 3491 O 315.507 -1.56183 1.98402 0
M  V30 3492 C 316.82 1.62801 2.52817 0
M  V30 3493 C 318.368 1.63897 2.66659 0
M  V30 3494 C 318.843 2.5978 3.77198 0
M  V30 3495 N 320.334 2.58133 3.84606 0
M  V30 3496 C 321.069 3.29003 4.69621 0
M  V30 3497 N 320.565 4.09339 5.58939 0
M  V30 3498 N 322.358 3.179 4.63569 0
M  V30 3499 H 314.509 1.88526 0.978344 0
M  V30 3500 H 316.772 0.810815 0.491206 0
M  V30 3501 H 316.478 2.65869 2.30232 0
M  V30 3502 H 316.352 1.38898 3.50695 0
M  V30 3503 H 318.739 0.615481 2.8861 0
M  V30 3504 H 318.82 1.91858 1.69187 0
M  V30 3505 H 318.464 3.62254 3.55997 0
M  V30 3506 H 318.394 2.29105 4.7415 0
M  V30 3507 H 320.885 1.99809 3.20757 0
M  V30 3508 H 321.198 4.6034 6.20731 0
M  V30 3509 H 319.543 4.13438 5.58654 0
M  V30 3510 H 322.734 2.54612 3.92798 0
M  V30 3511 H 322.907 3.73398 5.29602 0
M  V30 3512 N 316.313 -1.40141 0.720998 0
M  V30 3513 C 317.729 -1.54632 0.395113 0
M  V30 3514 C 317.929 -1.69115 -1.09555 0
M  V30 3515 O 316.985 -1.68377 -1.88163 0
M  V30 3516 C 318.298 -2.77177 1.1659 0
M  V30 3517 C 319.846 -2.91 1.15274 0
M  V30 3518 C 320.321 -4.16465 1.90579 0
M  V30 3519 N 321.812 -4.23476 1.87675 0
M  V30 3520 C 322.547 -5.19475 2.42762 0
M  V30 3521 N 322.043 -6.21348 3.06428 0
M  V30 3522 N 323.836 -5.11592 2.32874 0
M  V30 3523 H 315.987 -1.28986 1.68749 0
M  V30 3524 H 318.25 -0.62412 0.713567 0
M  V30 3525 H 317.956 -2.72771 2.22011 0
M  V30 3526 H 317.83 -3.69442 0.76108 0
M  V30 3527 H 320.217 -2.94907 0.106702 0
M  V30 3528 H 320.298 -1.99838 1.59682 0
M  V30 3529 H 319.942 -4.1332 2.95176 0
M  V30 3530 H 319.872 -5.06646 1.43587 0
M  V30 3531 H 322.363 -3.50497 1.41281 0
M  V30 3532 H 322.676 -6.91034 3.45965 0
M  V30 3533 H 321.021 -6.21777 3.10514 0
M  V30 3534 H 324.212 -4.30936 1.82789 0
M  V30 3535 H 324.385 -5.86233 2.76106 0
M  V30 3536 N 317.792 -0.46758 -1.50504 0
M  V30 3537 C 318.755 0.317059 -2.26996 0
M  V30 3538 C 319.755 0.923513 -1.31635 0
M  V30 3539 O 320.945 0.793239 -1.55091 0
M  V30 3540 C 318.077 1.45134 -3.08462 0
M  V30 3541 H 319.27 -0.353723 -2.97807 0
M  V30 3542 H 316.823 -0.221545 -1.54722 0
M  V30 3543 H 317.558 2.15728 -2.4214 0
M  V30 3544 H 317.343 1.02232 -3.78538 0
M  V30 3545 H 318.833 2.00493 -3.66323 0
M  V30 3546 N 319.27 1.56325 -0.20005 0
M  V30 3547 C 320.547 1.89484 0.48529 0
M  V30 3548 C 320.927 1.1143 1.79294 0
M  V30 3549 O 320.275 0.216919 2.27468 0
M  V30 3550 C 320.485 3.41923 0.699243 0
M  V30 3551 C 321.833 4.12256 1.01638 0
M  V30 3552 O 322.857 3.47402 0.786792 0
M  V30 3553 O 321.716 5.26887 1.45095 0
M  V30 3554 H 318.81 0.787144 0.253639 0
M  V30 3555 H 321.356 1.67985 -0.240633 0
M  V30 3556 H 320.128 3.90658 -0.224008 0
M  V30 3557 H 319.751 3.69131 1.47744 0
M  V30 3558 N 320.748 -0.0735177 1.57428 0
M  V30 3559 C 322.159 -0.625551 1.75908 0
M  V30 3560 C 322.51 -1.78 0.825261 0
M  V30 3561 O 321.635 -2.16398 0.00893964 0
M  V30 3562 C 322.23 -1.14155 3.18989 0
M  V30 3563 C 320.789 -1.63946 3.38819 0
M  V30 3564 C 319.936 -0.558151 2.71625 0
M  V30 3565 H 322.887 0.152647 1.57964 0
M  V30 3566 H 322.908 -2.0104 3.23053 0
M  V30 3567 H 322.42 -0.301116 3.8693 0
M  V30 3568 H 320.521 -2.50321 2.7599 0
M  V30 3569 H 320.634 -1.71759 4.47253 0
M  V30 3570 H 318.998 -1.00278 2.34129 0
M  V30 3571 H 319.781 0.272071 3.4222 0
M  V30 3572 N 322.226 -1.5378 -0.344866 0
M  V30 3573 C 323.503 -1.61589 -1.10219 0
M  V30 3574 C 323.883 -0.436316 -2.06542 0
M  V30 3575 O 323.231 0.571543 -2.21237 0
M  V30 3576 C 323.441 -2.97602 -1.82301 0
M  V30 3577 C 324.789 -3.5291 -2.36093 0
M  V30 3578 O 325.813 -2.99768 -1.924 0
M  V30 3579 O 324.672 -4.45859 -3.16026 0
M  V30 3580 H 321.766 -0.653522 -0.506792 0
M  V30 3581 H 324.312 -1.66126 -0.346465 0
M  V30 3582 H 323.084 -3.74893 -1.12121 0
M  V30 3583 H 322.707 -2.9665 -2.64735 0
M  V30 3584 N 323.704 0.605807 -1.45491 0
M  V30 3585 C 325.115 1.18777 -1.44045 0
M  V30 3586 C 325.466 1.95471 -0.169001 0
M  V30 3587 O 324.591 2.0374 0.729324 0
M  V30 3588 C 325.186 2.16064 -2.60963 0
M  V30 3589 C 323.745 2.69633 -2.62631 0
M  V30 3590 C 322.892 1.45072 -2.36325 0
M  V30 3591 H 325.843 0.395017 -1.53705 0
M  V30 3592 H 325.864 2.9913 -2.35163 0
M  V30 3593 H 325.376 1.60217 -3.53486 0
M  V30 3594 H 323.477 3.29414 -1.74119 0
M  V30 3595 H 323.59 3.13944 -3.61906 0
M  V30 3596 H 321.954 1.74089 -1.85917 0
M  V30 3597 H 322.737 0.910899 -3.30995 0
M  V30 3598 N 325.182 1.32811 0.848464 0
M  V30 3599 C 326.115 1.16601 1.96162 0
M  V30 3600 C 327.093 0.0638855 1.62474 0
M  V30 3601 O 328.277 0.224348 1.8716 0
M  V30 3602 C 325.404 0.786333 3.29446 0
M  V30 3603 C 324.45 1.89459 3.8211 0
M  V30 3604 S 325.283 3.50395 4.04949 0
M  V30 3605 C 326.439 3.14413 5.41198 0
M  V30 3606 H 326.672 2.10832 2.09612 0
M  V30 3607 H 324.205 1.17543 1.00115 0
M  V30 3608 H 326.163 0.574044 4.06466 0
M  V30 3609 H 324.824 -0.137218 3.138 0
M  V30 3610 H 324.017 1.58207 4.78526 0
M  V30 3611 H 323.619 2.06304 3.11953 0
M  V30 3612 H 325.911 2.64642 6.23675 0
M  V30 3613 H 326.854 4.09874 5.77416 0
M  V30 3614 H 327.262 2.51266 5.05495 0
M  V30 3615 N 326.66 -1.06551 1.16123 0
M  V30 3616 C 327.607 -2.13961 0.865414 0
M  V30 3617 C 328.577 -1.65066 -0.185055 0
M  V30 3618 O 329.762 -1.90732 -0.05083 0
M  V30 3619 C 326.902 -3.43113 0.369776 0
M  V30 3620 C 326.015 -4.05756 1.48276 0
M  V30 3621 C 325.15 -5.22773 0.942414 0
M  V30 3622 C 324.189 -5.77395 2.03179 0
M  V30 3623 N 323.326 -6.85731 1.50721 0
M  V30 3624 H 328.166 -2.38605 1.78527 0
M  V30 3625 H 325.703 -1.17072 0.890646 0
M  V30 3626 H 327.661 -4.17151 0.0640643 0
M  V30 3627 H 326.291 -3.18695 -0.513143 0
M  V30 3628 H 325.343 -3.29292 1.9045 0
M  V30 3629 H 326.655 -4.42351 2.30493 0
M  V30 3630 H 325.809 -6.03827 0.589729 0
M  V30 3631 H 324.548 -4.87618 0.0895191 0
M  V30 3632 H 323.553 -4.94981 2.3932 0
M  V30 3633 H 324.778 -6.14603 2.8886 0
M  V30 3634 H 322.724 -6.52499 0.676811 0
M  V30 3635 H 322.641 -7.21254 2.26557 0
M  V30 3636 H 323.909 -7.7047 1.18303 0
M  V30 3637 N 328.138 -0.959301 -1.25041 0
M  V30 3638 C 329.086 -0.474437 -2.2771 0
M  V30 3639 C 330.08 0.457697 -1.631 0
M  V30 3640 O 331.286 0.333912 -1.76876 0
M  V30 3641 H 327.661 -0.134936 -0.739795 0
M  V30 3642 H 329.632 -1.35251 -2.65988 0
M  V30 3643 C 328.381 0.227884 -3.46952 0
M  V30 3644 H 327.704 -0.480248 -3.96905 0
M  V30 3645 H 329.144 0.531091 -4.20661 0
M  V30 3646 C 327.603 1.452 -3.04004 0
M  V30 3647 O 328.133 2.54949 -3.10426 0
M  V30 3648 N 326.339 1.31502 -2.59144 0
M  V30 3649 H 325.886 0.422065 -2.54119 0
M  V30 3650 H 325.844 2.13521 -2.30773 0
M  V30 3651 N 329.616 1.39756 -0.72842 0
M  V30 3652 C 330.844 2.04948 -0.283528 0
M  V30 3653 C 331.259 1.54908 1.0793 0
M  V30 3654 O 330.616 0.711135 1.68075 0
M  V30 3655 C 330.667 3.60498 -0.268957 0
M  V30 3656 O 330.388 4.08695 -1.57798 0
M  V30 3657 C 331.889 4.4288 0.192912 0
M  V30 3658 H 329.109 0.659243 -0.125056 0
M  V30 3659 H 331.653 1.78927 -0.990226 0
M  V30 3660 H 329.808 3.85444 0.388801 0
M  V30 3661 H 330.222 5.02977 -1.48709 0
M  V30 3662 H 331.696 5.51791 0.151952 0
M  V30 3663 H 332.173 4.21418 1.23708 0
M  V30 3664 H 332.779 4.23069 -0.435039 0
M  V30 3665 N 331.094 0.475555 1.50254 0
M  V30 3666 C 332.334 -0.0765802 2.04256 0
M  V30 3667 C 332.698 -1.36587 1.34937 0
M  V30 3668 O 333.899 -2.00066 1.79519 0
M  V30 3669 C 332.17 -0.251668 3.56513 0
M  V30 3670 S 333.729 -0.761716 4.32138 0
M  V30 3671 H 330.547 -0.0138456 0.710865 0
M  V30 3672 H 333.149 0.643714 1.84598 0
M  V30 3673 H 331.853 0.692404 4.04517 0
M  V30 3674 H 331.384 -0.997946 3.80532 0
M  V30 3675 H 333.399 -2.03451 4.52573 0
M  V30 3676 N 332.573 -1.56217 0.208337 0
M  V30 3677 C 333.52 -2.19699 -0.707192 0
M  V30 3678 C 334.49 -1.14836 -1.20008 0
M  V30 3679 O 335.675 -1.4314 -1.26157 0
M  V30 3680 C 332.815 -2.87061 -1.91546 0
M  V30 3681 C 331.928 -4.06483 -1.46271 0
M  V30 3682 C 331.063 -4.61665 -2.62752 0
M  V30 3683 C 330.102 -5.73417 -2.14147 0
M  V30 3684 N 329.239 -6.22948 -3.23853 0
M  V30 3685 H 334.079 -2.97575 -0.159111 0
M  V30 3686 H 331.616 -1.46948 -0.0667874 0
M  V30 3687 H 333.574 -3.24294 -2.62468 0
M  V30 3688 H 332.204 -2.11725 -2.43664 0
M  V30 3689 H 331.256 -3.74825 -0.648886 0
M  V30 3690 H 332.568 -4.87271 -1.06622 0
M  V30 3691 H 331.722 -5.01272 -3.41776 0
M  V30 3692 H 330.461 -3.80013 -3.05682 0
M  V30 3693 H 329.466 -5.33326 -1.33581 0
M  V30 3694 H 330.691 -6.56897 -1.72232 0
M  V30 3695 H 328.637 -5.44213 -3.6629 0
M  V30 3696 H 328.554 -6.98823 -2.88414 0
M  V30 3697 H 329.822 -6.6721 -4.03052 0
M  V30 3698 N 334.051 0.0651679 -1.57465 0
M  V30 3699 C 334.981 1.07693 -2.07182 0
M  V30 3700 C 335.962 1.39962 -0.966673 0
M  V30 3701 O 337.147 1.49475 -1.2398 0
M  V30 3702 C 334.277 2.3885 -2.52127 0
M  V30 3703 C 333.231 2.20917 -3.66579 0
M  V30 3704 C 332.557 3.57515 -3.97601 0
M  V30 3705 C 333.857 1.62493 -4.9638 0
M  V30 3706 H 335.551 0.663199 -2.91962 0
M  V30 3707 H 333.097 0.317569 -1.40455 0
M  V30 3708 H 335.05 3.09928 -2.85522 0
M  V30 3709 H 333.774 2.82215 -1.64384 0
M  V30 3710 H 332.433 1.52279 -3.33477 0
M  V30 3711 H 332.081 3.98463 -3.06979 0
M  V30 3712 H 331.781 3.46353 -4.74672 0
M  V30 3713 H 333.305 4.30013 -4.33499 0
M  V30 3714 H 334.719 2.23445 -5.27963 0
M  V30 3715 H 333.116 1.62009 -5.77818 0
M  V30 3716 H 334.186 0.587041 -4.81333 0
M  V30 3717 N 335.529 1.53961 0.336706 0
M  V30 3718 C 336.459 1.85417 1.41925 0
M  V30 3719 C 337.44 0.709856 1.5458 0
M  V30 3720 O 338.625 0.962396 1.68676 0
M  V30 3721 C 335.755 2.06985 2.78881 0
M  V30 3722 C 334.709 3.22813 2.81026 0
M  V30 3723 C 334.035 3.29727 4.20932 0
M  V30 3724 C 335.335 4.60767 2.45949 0
M  V30 3725 H 337.029 2.76079 1.15848 0
M  V30 3726 H 334.575 1.32839 0.555859 0
M  V30 3727 H 336.528 2.27575 3.54665 0
M  V30 3728 H 335.252 1.13061 3.06406 0
M  V30 3729 H 333.911 3.0209 2.07695 0
M  V30 3730 H 333.559 2.33385 4.45579 0
M  V30 3731 H 333.259 4.07566 4.23277 0
M  V30 3732 H 334.783 3.52536 4.98549 0
M  V30 3733 H 336.197 4.81325 3.11446 0
M  V30 3734 H 334.594 5.4106 2.59566 0
M  V30 3735 H 335.664 4.6391 1.41122 0
M  V30 3736 N 337.007 -0.598083 1.45811 0
M  V30 3737 C 338.253 -1.35882 1.50545 0
M  V30 3738 C 338.586 -1.93616 0.150445 0
M  V30 3739 O 337.861 -1.75604 -0.83628 0
M  V30 3740 C 338.144 -2.49966 2.59208 0
M  V30 3741 C 337.997 -1.97367 4.04186 0
M  V30 3742 C 339.316 -3.52068 2.64076 0
M  V30 3743 H 336.435 -0.492717 0.548087 0
M  V30 3744 H 339.077 -0.673319 1.77669 0
M  V30 3745 H 337.227 -3.08443 2.3621 0
M  V30 3746 H 338.899 -1.43466 4.38423 0
M  V30 3747 H 337.142 -1.283 4.14393 0
M  V30 3748 H 337.813 -2.79649 4.75921 0
M  V30 3749 H 340.289 -3.03448 2.84708 0
M  V30 3750 H 339.165 -4.2937 3.41954 0
M  V30 3751 H 339.426 -4.08304 1.69531 0
M  V30 3752 N 338.485 -1.33259 -0.841409 0
M  V30 3753 C 339.731 -1.24757 -1.59886 0
M  V30 3754 C 340.064 0.186913 -1.93298 0
M  V30 3755 O 339.339 1.12757 -1.5848 0
M  V30 3756 C 339.622 -2.12036 -2.91055 0
M  V30 3757 C 339.475 -3.63929 -2.6434 0
M  V30 3758 C 340.794 -1.9916 -3.92458 0
M  V30 3759 H 337.913 -0.454542 -0.580138 0
M  V30 3760 H 340.555 -1.63335 -0.970647 0
M  V30 3761 H 338.705 -1.79265 -3.44669 0
M  V30 3762 H 340.377 -4.06978 -2.17178 0
M  V30 3763 H 338.62 -3.85935 -1.98082 0
M  V30 3764 H 339.291 -4.20341 -3.57796 0
M  V30 3765 H 341.767 -2.27895 -3.48143 0
M  V30 3766 H 340.643 -2.62484 -4.82072 0
M  V30 3767 H 340.904 -0.963082 -4.31482 0
M  V30 3768 N 339.963 1.05934 -1.16686 0
M  V30 3769 C 340.926 2.11669 -0.879144 0
M  V30 3770 C 341.926 1.60294 0.127445 0
M  V30 3771 O 343.116 1.7389 -0.103865 0
M  V30 3772 C 340.248 3.39438 -0.315425 0
M  V30 3773 H 341.441 2.38626 -1.81653 0
M  V30 3774 H 338.994 1.22058 -0.976299 0
M  V30 3775 H 339.729 3.18132 0.629468 0
M  V30 3776 H 339.514 3.78034 -1.04079 0
M  V30 3777 H 341.004 4.17391 -0.132189 0
M  V30 3778 N 341.441 0.965919 1.2453 0
M  V30 3779 C 342.718 0.543777 1.87889 0
M  V30 3780 C 343.098 -0.97909 1.87021 0
M  V30 3781 O 342.446 -1.84969 1.3416 0
M  V30 3782 C 342.656 1.13327 3.30088 0
M  V30 3783 C 344.004 1.21707 4.06783 0
M  V30 3784 O 345.028 1.08566 3.39252 0
M  V30 3785 O 343.887 1.42456 5.27606 0
M  V30 3786 H 340.981 0.181054 0.806938 0
M  V30 3787 H 343.527 1.06007 1.32516 0
M  V30 3788 H 342.299 2.17612 3.25209 0
M  V30 3789 H 341.922 0.600911 3.93033 0
M  V30 3790 N 342.919 -1.39368 0.735821 0
M  V30 3791 C 343.869 -2.27885 0.0724287 0
M  V30 3792 C 344.853 -1.44301 -0.711756 0
M  V30 3793 O 346.045 -1.67206 -0.58063 0
M  V30 3794 C 343.174 -3.33029 -0.833454 0
M  V30 3795 C 342.26 -4.24078 -0.0433749 0
M  V30 3796 N 342.651 -4.96138 0.983903 0
M  V30 3797 C 340.949 -4.45164 -0.272905 0
M  V30 3798 C 341.65 -5.63069 1.4604 0
M  V30 3799 N 340.626 -5.37991 0.778857 0
M  V30 3800 H 344.428 -2.81052 0.859467 0
M  V30 3801 H 341.942 -1.5206 0.570227 0
M  V30 3802 H 343.939 -3.95311 -1.32419 0
M  V30 3803 H 342.599 -2.81421 -1.61964 0
M  V30 3804 H 343.61 -4.9958 1.36528 0
M  V30 3805 H 340.287 -4.04497 -1.03383 0
M  V30 3806 H 341.677 -6.30755 2.31511 0
M  V30 3807 N 344.397 -0.483516 -1.5 0
M  V30 3808 C 345.813 -0.138404 -1.58999 0
M  V30 3809 C 346.013 1.35597 -1.4905 0
M  V30 3810 O 345.069 2.13039 -1.35539 0
M  V30 3811 C 346.382 -0.699658 -2.92447 0
M  V30 3812 C 347.93 -0.664195 -3.05872 0
M  V30 3813 C 348.405 -1.20321 -4.41913 0
M  V30 3814 N 349.896 -1.16315 -4.48358 0
M  V30 3815 C 350.631 -1.55058 -5.52037 0
M  V30 3816 N 350.127 -2.01311 -6.62907 0
M  V30 3817 N 351.92 -1.46584 -5.42651 0
M  V30 3818 H 344.071 -1.45529 -1.5471 0
M  V30 3819 H 346.334 -0.60258 -0.731848 0
M  V30 3820 H 346.04 -1.747 -3.05242 0
M  V30 3821 H 345.914 -0.150194 -3.76901 0
M  V30 3822 H 348.301 0.374272 -2.92717 0
M  V30 3823 H 348.382 -1.25061 -2.23144 0
M  V30 3824 H 348.026 -2.24037 -4.55818 0
M  V30 3825 H 347.956 -0.592896 -5.23252 0
M  V30 3826 H 350.447 -0.824058 -3.68806 0
M  V30 3827 H 350.76 -2.2899 -7.38095 0
M  V30 3828 H 349.105 -2.05273 -6.63994 0
M  V30 3829 H 352.296 -1.10281 -4.54924 0
M  V30 3830 H 352.469 -1.77103 -6.23329 0
M  V30 3831 N 345.875 1.56104 -0.216619 0
M  V30 3832 C 347.122 1.98172 0.416416 0
M  V30 3833 C 347.45 1.10413 1.60122 0
M  V30 3834 O 346.705 0.147967 1.9514 0
M  V30 3835 C 347.004 3.45923 0.898464 0
M  V30 3836 C 346.67 4.50559 -0.175288 0
M  V30 3837 C 345.332 4.78897 -0.470271 0
M  V30 3838 C 347.684 5.1334 -0.901728 0
M  V30 3839 C 345.012 5.67299 -1.4963 0
M  V30 3840 C 347.364 6.02853 -1.91705 0
M  V30 3841 C 346.028 6.29537 -2.21901 0
M  V30 3842 H 345.298 0.725164 0.152377 0
M  V30 3843 H 347.945 1.88839 -0.318103 0
M  V30 3844 H 346.25 3.52434 1.71165 0
M  V30 3845 H 347.947 3.75841 1.39803 0
M  V30 3846 H 344.537 4.28551 0.0647806 0
M  V30 3847 H 348.721 4.91521 -0.687072 0
M  V30 3848 H 343.977 5.86239 -1.73592 0
M  V30 3849 H 348.151 6.50552 -2.48505 0
M  V30 3850 H 345.778 6.97835 -3.01548 0
M  V30 3851 N 347.353 -0.0568162 1.57498 0
M  V30 3852 C 348.583 -0.764515 1.91934 0
M  V30 3853 C 348.991 -1.70877 0.81227 0
M  V30 3854 O 348.334 -1.82351 -0.222213 0
M  V30 3855 C 348.396 -1.5994 3.21962 0
M  V30 3856 C 348.06 -0.822925 4.4953 0
M  V30 3857 C 349.057 -0.135464 5.19723 0
M  V30 3858 C 346.742 -0.785666 4.96117 0
M  V30 3859 C 348.736 0.578861 6.34766 0
M  V30 3860 C 346.423 -0.0675784 6.11063 0
M  V30 3861 C 347.421 0.613471 6.80239 0
M  V30 3862 O 347.109 1.31996 7.92989 0
M  V30 3863 H 346.841 -0.221647 0.63863 0
M  V30 3864 H 349.395 -0.0268218 2.05382 0
M  V30 3865 H 347.625 -2.38026 3.04763 0
M  V30 3866 H 349.314 -2.18715 3.41934 0
M  V30 3867 H 350.08 -0.155458 4.84751 0
M  V30 3868 H 345.959 -1.30524 4.42136 0
M  V30 3869 H 349.503 1.111 6.88696 0
M  V30 3870 H 345.4 -0.0455636 6.45484 0
M  V30 3871 H 346.168 1.23077 8.09194 0
M  V30 3872 N 348.832 -1.54138 -0.328536 0
M  V30 3873 C 350.248 -1.44736 -0.672574 0
M  V30 3874 C 350.448 -0.616217 -1.91846 0
M  V30 3875 O 349.504 -0.113067 -2.52247 0
M  V30 3876 C 350.817 -2.884 -0.851217 0
M  V30 3877 C 352.365 -2.98271 -0.948877 0
M  V30 3878 C 352.84 -4.43074 -1.15973 0
M  V30 3879 N 354.331 -4.46665 -1.22658 0
M  V30 3880 C 355.066 -5.55857 -1.40751 0
M  V30 3881 N 354.562 -6.75026 -1.5592 0
M  V30 3882 N 356.355 -5.43495 -1.4342 0
M  V30 3883 H 348.506 -2.06661 0.490421 0
M  V30 3884 H 350.769 -0.934812 0.157579 0
M  V30 3885 H 350.475 -3.51699 -0.00704236 0
M  V30 3886 H 350.349 -3.34225 -1.74853 0
M  V30 3887 H 352.736 -2.35102 -1.78356 0
M  V30 3888 H 352.817 -2.55785 -0.0281435 0
M  V30 3889 H 352.461 -5.06827 -0.329915 0
M  V30 3890 H 352.391 -4.83165 -2.09426 0
M  V30 3891 H 354.882 -3.60797 -1.124 0
M  V30 3892 H 355.195 -7.54004 -1.69404 0
M  V30 3893 H 353.54 -6.77944 -1.53027 0
M  V30 3894 H 356.731 -4.49349 -1.31162 0
M  V30 3895 H 356.904 -6.28649 -1.57178 0
M  V30 3896 N 350.31 0.590341 -1.46126 0
M  V30 3897 C 351.54 1.37304 -1.54373 0
M  V30 3898 C 351.948 1.88332 -0.181071 0
M  V30 3899 O 351.291 1.63852 0.830559 0
M  V30 3900 C 351.353 2.6012 -2.48149 0
M  V30 3901 C 351.017 2.30613 -3.94546 0
M  V30 3902 C 352.014 1.89915 -4.83971 0
M  V30 3903 C 349.699 2.42993 -4.39613 0
M  V30 3904 C 351.693 1.61981 -6.16475 0
M  V30 3905 C 349.38 2.14672 -5.72153 0
M  V30 3906 C 350.378 1.7423 -6.60404 0
M  V30 3907 O 350.066 1.46251 -7.90485 0
M  V30 3908 H 349.798 0.426086 -0.524811 0
M  V30 3909 H 352.352 0.72539 -1.92165 0
M  V30 3910 H 350.582 3.27664 -2.05361 0
M  V30 3911 H 352.271 3.22182 -2.46887 0
M  V30 3912 H 353.037 1.79872 -4.50412 0
M  V30 3913 H 348.916 2.73435 -3.71153 0
M  V30 3914 H 352.46 1.30341 -6.85315 0
M  V30 3915 H 348.357 2.24337 -6.05263 0
M  V30 3916 H 349.125 1.6016 -8.02677 0
M  V30 3917 N 351.788 1.33704 0.83433 0
M  V30 3918 C 352.721 1.18675 1.94914 0
M  V30 3919 C 353.699 0.0811145 1.62398 0
M  V30 3920 O 354.883 0.244186 1.86912 0
M  V30 3921 C 352.01 0.821231 3.28593 0
M  V30 3922 C 351.056 1.93501 3.80079 0
M  V30 3923 S 351.889 3.54671 4.01209 0
M  V30 3924 C 353.045 3.20136 5.37833 0
M  V30 3925 H 353.278 2.13043 2.07364 0
M  V30 3926 H 350.811 1.18598 0.988624 0
M  V30 3927 H 352.769 0.617123 4.05835 0
M  V30 3928 H 351.43 -0.103927 3.13928 0
M  V30 3929 H 350.623 1.63273 4.76821 0
M  V30 3930 H 350.225 2.09601 3.09747 0
M  V30 3931 H 352.517 2.71242 6.20833 0
M  V30 3932 H 353.46 4.15975 5.73036 0
M  V30 3933 H 353.868 2.56613 5.02802 0
M  V30 3934 N 353.266 -1.05314 1.17247 0
M  V30 3935 C 354.514 -1.77941 0.958194 0
M  V30 3936 C 354.835 -1.88089 -0.514556 0
M  V30 3937 O 354.105 -1.39676 -1.37359 0
M  V30 3938 H 352.685 -0.659116 0.351533 0
M  V30 3939 H 355.347 -1.27166 1.47699 0
M  V30 3940 H 354.443 -2.79663 1.38546 0
M  V30 3941 N 354.744 -0.972509 -1.24016 0
M  V30 3942 C 356.16 -0.679827 -1.44397 0
M  V30 3943 C 356.36 0.756716 -1.86751 0
M  V30 3944 O 355.416 1.53007 -2.00861 0
M  V30 3945 C 356.729 -1.66803 -2.50195 0
M  V30 3946 C 358.277 -1.68119 -2.64017 0
M  V30 3947 C 358.752 -2.65748 -3.73017 0
M  V30 3948 N 360.243 -2.64219 -3.8045 0
M  V30 3949 C 360.978 -3.36433 -4.64328 0
M  V30 3950 N 360.474 -4.1818 -5.52356 0
M  V30 3951 N 362.267 -3.25235 -4.58453 0
M  V30 3952 H 354.418 -1.90059 -0.948228 0
M  V30 3953 H 356.681 -0.818527 -0.478245 0
M  V30 3954 H 356.387 -2.69498 -2.25973 0
M  V30 3955 H 356.261 -1.4446 -3.48441 0
M  V30 3956 H 358.648 -0.661319 -2.87594 0
M  V30 3957 H 358.729 -1.94525 -1.66113 0
M  V30 3958 H 358.373 -3.67872 -3.50189 0
M  V30 3959 H 358.303 -2.36619 -4.70446 0
M  V30 3960 H 360.794 -2.04887 -3.17537 0
M  V30 3961 H 361.107 -4.70157 -6.13329 0
M  V30 3962 H 359.452 -4.22273 -5.52006 0
M  V30 3963 H 362.643 -2.60829 -3.88698 0
M  V30 3964 H 362.816 -3.81776 -5.23594 0
M  V30 3965 N 356.222 1.38976 -0.743202 0
M  V30 3966 C 357.47 1.99948 -0.29417 0
M  V30 3967 C 357.791 1.59279 1.12495 0
M  V30 3968 O 357.061 0.844808 1.76748 0
M  V30 3969 H 355.641 0.739473 -0.105774 0
M  V30 3970 H 358.303 1.699 -0.954986 0
M  V30 3971 H 357.399 3.10142 -0.349056 0
M  V30 3972 N 357.7 0.491464 1.49741 0
M  V30 3973 C 358.61 -0.296835 2.32715 0
M  V30 3974 C 359.626 -0.976536 1.44013 0
M  V30 3975 O 360.802 -0.960023 1.77047 0
M  V30 3976 C 357.867 -1.35288 3.19215 0
M  V30 3977 C 356.928 -0.687632 4.23757 0
M  V30 3978 C 356.161 -1.69336 5.06123 0
M  V30 3979 O 356.384 -2.92219 4.89861 0
M  V30 3980 O 355.318 -1.25394 5.88693 0
M  V30 3981 H 359.144 0.382048 3.01287 0
M  V30 3982 H 356.729 0.252953 1.47243 0
M  V30 3983 H 358.611 -1.96411 3.72828 0
M  V30 3984 H 357.286 -2.01487 2.53347 0
M  V30 3985 H 356.193 -0.0369159 3.74082 0
M  V30 3986 H 357.526 -0.0682566 4.92153 0
M  V30 3987 N 359.178 -1.55987 0.224894 0
M  V30 3988 C 360.088 -2.24066 -0.69511 0
M  V30 3989 C 361.104 -1.24939 -1.21104 0
M  V30 3990 O 362.28 -1.5776 -1.25195 0
M  V30 3991 C 359.345 -2.90983 -1.88493 0
M  V30 3992 C 358.406 -4.05462 -1.41064 0
M  V30 3993 C 357.639 -4.69179 -2.54375 0
M  V30 3994 O 357.862 -4.31895 -3.72589 0
M  V30 3995 O 356.796 -5.58108 -2.25386 0
M  V30 3996 H 360.622 -3.03353 -0.145149 0
M  V30 3997 H 358.207 -1.49399 -0.00569476 0
M  V30 3998 H 360.089 -3.33209 -2.57972 0
M  V30 3999 H 358.764 -2.14653 -2.42293 0
M  V30 4000 H 357.671 -3.67798 -0.683774 0
M  V30 4001 H 359.004 -4.83545 -0.918985 0
M  V30 4002 N 360.656 0.0484629 -1.57525 0
M  V30 4003 C 361.881 0.759177 -1.93006 0
M  V30 4004 C 362.306 1.69125 -0.823317 0
M  V30 4005 O 361.664 1.79931 0.222364 0
M  V30 4006 C 361.712 1.50899 -3.27509 0
M  V30 4007 O 360.816 2.62112 -3.18388 0
M  V30 4008 H 360.157 0.205564 -0.631379 0
M  V30 4009 H 362.687 0.00972959 -2.04598 0
M  V30 4010 H 362.697 1.88317 -3.6194 0
M  V30 4011 H 361.372 0.825269 -4.0763 0
M  V30 4012 H 359.949 2.27379 -2.95556 0
M  V30 4013 N 362.134 1.5431 0.320358 0
M  V30 4014 C 363.362 1.76636 1.07738 0
M  V30 4015 C 363.777 0.51649 1.81598 0
M  V30 4016 O 363.134 -0.512942 1.75143 0
M  V30 4017 C 363.185 2.96158 2.07299 0
M  V30 4018 O 362.906 4.16313 1.36438 0
M  V30 4019 C 364.407 3.3072 2.95193 0
M  V30 4020 H 361.627 0.589597 0.320339 0
M  V30 4021 H 364.171 2.01207 0.36551 0
M  V30 4022 H 362.326 2.73851 2.74016 0
M  V30 4023 H 362.74 4.83565 2.03138 0
M  V30 4024 H 364.214 4.17643 3.60941 0
M  V30 4025 H 364.691 2.48026 3.62463 0
M  V30 4026 H 365.297 3.55117 2.34034 0
M  V30 4027 N 363.613 -0.582584 1.46437 0
M  V30 4028 C 364.841 -1.36682 1.55324 0
M  V30 4029 C 365.256 -1.87796 0.194409 0
M  V30 4030 O 364.613 -1.63623 -0.808318 0
M  V30 4031 C 364.664 -2.55426 2.55812 0
M  V30 4032 O 364.385 -2.0643 3.86417 0
M  V30 4033 C 365.886 -3.47976 2.74641 0
M  V30 4034 H 363.106 -0.417545 0.525259 0
M  V30 4035 H 365.65 -0.708219 1.91845 0
M  V30 4036 H 363.805 -3.17275 2.22295 0
M  V30 4037 H 364.219 -2.83762 4.41111 0
M  V30 4038 H 365.693 -4.27775 3.48874 0
M  V30 4039 H 366.17 -3.99919 1.81553 0
M  V30 4040 H 366.776 -2.91962 3.09255 0
M  V30 4041 N 365.091 -1.34144 -0.827227 0
M  V30 4042 C 366.319 -1.29325 -1.61501 0
M  V30 4043 C 366.734 0.13354 -1.88327 0
M  V30 4044 O 366.091 1.0793 -1.47164 0
M  V30 4045 C 366.142 -2.07746 -2.95844 0
M  V30 4046 O 365.863 -3.4486 -2.70191 0
M  V30 4047 C 367.364 -2.10273 -3.90256 0
M  V30 4048 H 364.584 -0.445069 -0.50215 0
M  V30 4049 H 367.128 -1.76693 -1.02955 0
M  V30 4050 H 365.283 -1.6403 -3.5096 0
M  V30 4051 H 365.697 -3.85345 -3.55822 0
M  V30 4052 H 367.171 -2.69575 -4.81698 0
M  V30 4053 H 367.648 -1.096 -4.25305 0
M  V30 4054 H 368.254 -2.54059 -3.41078 0
M  V30 4055 N 366.569 1.04691 -1.17803 0
M  V30 4056 C 367.517 2.14665 -0.895635 0
M  V30 4057 C 368.511 1.68806 0.141679 0
M  V30 4058 O 369.717 1.79999 -0.00587914 0
M  V30 4059 H 366.092 0.701038 -0.272121 0
M  V30 4060 H 368.063 2.35685 -1.83017 0
M  V30 4061 C 366.812 3.45019 -0.430962 0
M  V30 4062 H 366.135 3.8071 -1.22064 0
M  V30 4063 H 367.575 4.23125 -0.272301 0
M  V30 4064 C 366.034 3.25943 0.852207 0
M  V30 4065 O 366.564 3.5296 1.91786 0
M  V30 4066 N 364.77 2.79304 0.802346 0
M  V30 4067 H 364.317 2.57518 -0.0650788 0
M  V30 4068 H 364.275 2.66921 1.66134 0
M  V30 4069 N 368.047 0.979072 1.23499 0
M  V30 4070 C 369.277 0.664237 1.95631 0
M  V30 4071 C 369.685 -0.772653 1.72704 0
M  V30 4072 O 369.028 -1.53141 1.01457 0
M  V30 4073 C 369.09 0.873115 3.48736 0
M  V30 4074 C 368.754 2.29182 3.95379 0
M  V30 4075 C 369.751 3.2704 4.04155 0
M  V30 4076 C 367.436 2.62256 4.28401 0
M  V30 4077 C 369.43 4.56052 4.45304 0
M  V30 4078 C 367.117 3.91491 4.69231 0
M  V30 4079 C 368.115 4.88201 4.77649 0
M  V30 4080 O 367.803 6.15129 5.17563 0
M  V30 4081 H 367.535 0.245915 0.629684 0
M  V30 4082 H 370.089 1.3127 1.57979 0
M  V30 4083 H 368.319 0.167476 3.86337 0
M  V30 4084 H 370.008 0.555642 4.02079 0
M  V30 4085 H 370.774 3.02819 3.78848 0
M  V30 4086 H 366.653 1.87692 4.21061 0
M  V30 4087 H 370.197 5.31538 4.51789 0
M  V30 4088 H 366.094 4.15508 4.93987 0
M  V30 4089 H 366.862 6.18862 5.35679 0
M  V30 4090 N 369.525 -1.3858 0.750561 0
M  V30 4091 C 370.455 -2.33102 0.136237 0
M  V30 4092 C 371.436 -1.54713 -0.706965 0
M  V30 4093 O 372.621 -1.83043 -0.648769 0
M  V30 4094 C 369.751 -3.38882 -0.760017 0
M  V30 4095 C 368.705 -4.27995 -0.0197785 0
M  V30 4096 C 368.031 -5.24605 -1.03408 0
M  V30 4097 C 369.331 -5.09554 1.14684 0
M  V30 4098 H 371.025 -2.84726 0.925822 0
M  V30 4099 H 368.571 -1.36898 0.446654 0
M  V30 4100 H 370.524 -4.0397 -1.19943 0
M  V30 4101 H 369.248 -2.85734 -1.58189 0
M  V30 4102 H 367.907 -3.64409 0.400184 0
M  V30 4103 H 367.555 -4.67746 -1.84994 0
M  V30 4104 H 367.255 -5.85081 -0.543464 0
M  V30 4105 H 368.779 -5.9257 -1.47288 0
M  V30 4106 H 370.193 -5.67899 0.785118 0
M  V30 4107 H 368.59 -5.7925 1.56812 0
M  V30 4108 H 369.66 -4.4347 1.96118 0
M  V30 4109 N 371.003 -0.499398 -1.49478 0
M  V30 4110 C 372.252 0.0475259 -2.01644 0
M  V30 4111 C 372.565 1.38195 -1.38425 0
M  V30 4112 O 373.771 2.01547 -1.8191 0
M  V30 4113 C 372.227 0.135164 -3.59646 0
M  V30 4114 C 371.835 -1.19252 -4.31837 0
M  V30 4115 C 373.579 0.632538 -4.19761 0
M  V30 4116 C 371.486 -1.06713 -5.81693 0
M  V30 4117 H 370.416 0.0215349 -0.753692 0
M  V30 4118 H 373.067 -0.638577 -1.7203 0
M  V30 4119 H 371.449 0.885681 -3.85969 0
M  V30 4120 H 372.623 -1.9562 -4.17216 0
M  V30 4121 H 370.938 -1.62321 -3.83459 0
M  V30 4122 H 373.535 0.743833 -5.29501 0
M  V30 4123 H 373.878 1.63098 -3.83021 0
M  V30 4124 H 374.411 -0.0613987 -3.97753 0
M  V30 4125 H 371.15 -2.03979 -6.22955 0
M  V30 4126 H 370.67 -0.344307 -5.98811 0
M  V30 4127 H 372.349 -0.745208 -6.42694 0
M  V30 4128 N 372.481 1.55866 -0.233164 0
M  V30 4129 C 373.391 2.24431 0.683217 0
M  V30 4130 C 374.407 1.2558 1.2044 0
M  V30 4131 O 375.583 1.58422 1.24356 0
M  V30 4132 C 372.648 2.91979 1.86947 0
M  V30 4133 C 371.709 4.06204 1.38912 0
M  V30 4134 C 370.942 4.70522 2.51883 0
M  V30 4135 O 371.165 4.33865 3.70293 0
M  V30 4136 O 370.099 5.59296 2.22423 0
M  V30 4137 H 373.925 3.03426 0.129059 0
M  V30 4138 H 371.51 1.494 -0.0022283 0
M  V30 4139 H 373.392 3.34573 2.56201 0
M  V30 4140 H 372.067 2.15935 2.41151 0
M  V30 4141 H 370.974 3.68155 0.664259 0
M  V30 4142 H 372.307 4.84025 0.893328 0
M  V30 4143 N 373.959 -0.0401083 1.57549 0
M  V30 4144 C 374.889 -1.04384 2.08869 0
M  V30 4145 C 375.87 -1.38407 0.988817 0
M  V30 4146 O 377.055 -1.47483 1.26342 0
M  V30 4147 C 374.185 -2.34808 2.55895 0
M  V30 4148 C 373.139 -2.15057 3.70047 0
M  V30 4149 C 372.465 -3.51145 4.03239 0
M  V30 4150 C 373.765 -1.54576 4.98902 0
M  V30 4151 H 375.459 -0.616666 2.92981 0
M  V30 4152 H 373.005 -0.295184 1.40942 0
M  V30 4153 H 374.958 -3.05346 2.90417 0
M  V30 4154 H 373.682 -2.79565 1.68853 0
M  V30 4155 H 372.341 -1.46954 3.35857 0
M  V30 4156 H 371.989 -3.93529 3.13279 0
M  V30 4157 H 371.689 -3.38758 4.80122 0
M  V30 4158 H 373.213 -4.23062 4.40285 0
M  V30 4159 H 374.627 -2.15017 5.31451 0
M  V30 4160 H 373.024 -1.52796 5.80322 0
M  V30 4161 H 374.094 -0.51039 4.82206 0
M  V30 4162 N 375.437 -1.54477 -0.31217 0
M  V30 4163 C 376.686 -1.72438 -1.04633 0
M  V30 4164 C 376.999 -0.511163 -1.88803 0
M  V30 4165 O 378.205 -0.572341 -2.65399 0
M  V30 4166 C 376.661 -3.05043 -1.9099 0
M  V30 4167 C 376.269 -4.33806 -1.11877 0
M  V30 4168 C 378.013 -3.32364 -2.64073 0
M  V30 4169 C 375.92 -5.57467 -1.97445 0
M  V30 4170 H 374.85 -0.642647 -0.394361 0
M  V30 4171 H 377.501 -1.80966 -0.303929 0
M  V30 4172 H 375.883 -2.90451 -2.69173 0
M  V30 4173 H 377.057 -4.59199 -0.383843 0
M  V30 4174 H 375.372 -4.13336 -0.504252 0
M  V30 4175 H 377.969 -4.21951 -3.28423 0
M  V30 4176 H 378.312 -2.50745 -3.32314 0
M  V30 4177 H 378.845 -3.47875 -1.92944 0
M  V30 4178 H 375.584 -6.41722 -1.33692 0
M  V30 4179 H 375.104 -5.36277 -2.6864 0
M  V30 4180 H 376.783 -5.94303 -2.5576 0
M  V30 4181 N 376.915 0.57481 -1.46744 0
M  V30 4182 C 378.192 1.3352 -1.4294 0
M  V30 4183 C 378.572 2.10775 -0.117009 0
M  V30 4184 O 377.92 2.09966 0.901474 0
M  V30 4185 C 378.13 2.25456 -2.66403 0
M  V30 4186 C 379.478 2.87035 -3.12883 0
M  V30 4187 O 380.502 2.35766 -2.67007 0
M  V30 4188 O 379.361 3.80179 -3.92589 0
M  V30 4189 H 376.455 0.600318 -0.568812 0
M  V30 4190 H 379.001 0.595171 -1.58921 0
M  V30 4191 H 377.773 1.67851 -3.53471 0
M  V30 4192 H 377.396 3.06785 -2.52921 0
M  V30 4193 N 378.394 1.34581 0.820102 0
M  V30 4194 C 379.81 1.14325 1.11364 0
M  V30 4195 C 380.01 -0.0533648 2.01429 0
M  V30 4196 O 379.066 -0.728044 2.41776 0
M  V30 4197 C 380.379 2.43983 1.75764 0
M  V30 4198 C 381.927 2.50065 1.88246 0
M  V30 4199 C 382.402 3.79732 2.56061 0
M  V30 4200 N 383.893 3.80908 2.63558 0
M  V30 4201 C 384.628 4.77961 3.16766 0
M  V30 4202 N 384.124 5.85397 3.70517 0
M  V30 4203 N 385.917 4.65413 3.15194 0
M  V30 4204 H 378.068 2.11246 0.221096 0
M  V30 4205 H 380.331 0.934289 0.160649 0
M  V30 4206 H 380.037 3.31651 1.1705 0
M  V30 4207 H 379.911 2.57531 2.75604 0
M  V30 4208 H 382.298 1.62834 2.46108 0
M  V30 4209 H 382.379 2.40442 0.873006 0
M  V30 4210 H 382.023 4.67354 1.98853 0
M  V30 4211 H 381.953 3.86639 3.57516 0
M  V30 4212 H 384.444 3.03274 2.25463 0
M  V30 4213 H 384.757 6.55463 4.09376 0
M  V30 4214 H 383.102 5.89107 3.68752 0
M  V30 4215 H 386.293 3.80627 2.72471 0
M  V30 4216 H 386.466 5.41216 3.56356 0
M  V30 4217 N 379.872 -1.04064 1.18357 0
M  V30 4218 C 381.118 -1.77528 0.980397 0
M  V30 4219 C 381.451 -1.87948 -0.48879 0
M  V30 4220 O 380.726 -1.3876 -1.36293 0
M  V30 4221 C 381.009 -3.20797 1.63588 0
M  V30 4222 C 380.862 -3.1832 3.17793 0
M  V30 4223 C 382.181 -4.18911 1.34914 0
M  V30 4224 H 379.3 -0.644443 0.357578 0
M  V30 4225 H 381.942 -1.2156 1.46024 0
M  V30 4226 H 380.092 -3.68586 1.22788 0
M  V30 4227 H 381.764 -2.78521 3.67728 0
M  V30 4228 H 380.007 -2.56351 3.49952 0
M  V30 4229 H 380.678 -4.19489 3.58794 0
M  V30 4230 H 383.154 -3.7967 1.70265 0
M  V30 4231 H 382.03 -5.17374 1.83346 0
M  V30 4232 H 382.291 -4.41262 0.272027 0
M  V30 4233 N 381.35 -0.985608 -1.22978 0
M  V30 4234 C 382.627 -0.573599 -1.87001 0
M  V30 4235 C 383.007 0.949213 -1.88555 0
M  V30 4236 O 382.355 1.82811 -1.37086 0
M  V30 4237 C 382.565 -1.18564 -3.28243 0
M  V30 4238 C 383.913 -1.28163 -4.04796 0
M  V30 4239 O 384.937 -1.13949 -3.37482 0
M  V30 4240 O 383.796 -1.50832 -5.25273 0
M  V30 4241 H 380.89 -0.193868 -0.803955 0
M  V30 4242 H 383.436 -1.08102 -1.30813 0
M  V30 4243 H 382.208 -2.22758 -3.21706 0
M  V30 4244 H 381.831 -0.663363 -3.92027 0
M  V30 4245 N 382.828 1.3818 -0.7579 0
M  V30 4246 C 384.105 1.94106 -0.241306 0
M  V30 4247 C 384.485 1.69282 1.26122 0
M  V30 4248 O 383.833 1.03378 2.03777 0
M  V30 4249 C 384.043 3.43809 -0.59967 0
M  V30 4250 C 385.391 4.20868 -0.561717 0
M  V30 4251 O 386.415 3.5211 -0.538222 0
M  V30 4252 O 385.274 5.43451 -0.576478 0
M  V30 4253 H 382.368 0.825376 -0.0518042 0
M  V30 4254 H 384.914 1.47548 -0.838315 0
M  V30 4255 H 383.686 3.55403 -1.6372 0
M  V30 4256 H 383.309 3.97592 0.0251197 0
M  V30 4257 N 384.306 0.507319 1.49211 0
M  V30 4258 C 385.555 -0.0368315 2.01666 0
M  V30 4259 C 385.868 -1.37459 1.39156 0
M  V30 4260 O 387.074 -2.00579 1.82976 0
M  V30 4261 C 385.53 -0.116089 3.59713 0
M  V30 4262 C 385.138 1.2154 4.31198 0
M  V30 4263 C 386.882 -0.610268 4.2009 0
M  V30 4264 C 384.789 1.09796 5.81119 0
M  V30 4265 H 383.719 -0.0175376 0.753796 0
M  V30 4266 H 386.37 0.647691 1.71689 0
M  V30 4267 H 384.752 -0.8652 3.86433 0
M  V30 4268 H 385.926 1.9783 4.16173 0
M  V30 4269 H 384.241 1.64352 3.82593 0
M  V30 4270 H 386.838 -0.715742 5.29888 0
M  V30 4271 H 387.181 -1.61064 3.8388 0
M  V30 4272 H 387.714 0.0824916 3.97714 0
M  V30 4273 H 384.453 2.0728 6.21864 0
M  V30 4274 H 383.973 0.376058 5.9862 0
M  V30 4275 H 385.652 0.779281 6.4229 0
M  V30 4276 N 385.784 -1.5574 0.241426 0
M  V30 4277 C 387.014 -2.02913 -0.38857 0
M  V30 4278 C 387.422 -1.12014 -1.52478 0
M  V30 4279 O 386.765 -0.125903 -1.83268 0
M  V30 4280 C 386.827 -3.4636 -0.963075 0
M  V30 4281 C 386.491 -4.56982 0.0401916 0
M  V30 4282 C 387.488 -5.12941 0.847766 0
M  V30 4283 C 385.173 -5.0203 0.164699 0
M  V30 4284 C 387.167 -6.12437 1.76636 0
M  V30 4285 C 384.854 -6.01358 1.0868 0
M  V30 4286 C 385.852 -6.5644 1.88616 0
M  V30 4287 O 385.54 -7.53831 2.79273 0
M  V30 4288 H 385.272 -0.668983 -0.0971452 0
M  V30 4289 H 387.826 -2.02198 0.361248 0
M  V30 4290 H 386.056 -3.44206 -1.76235 0
M  V30 4291 H 387.745 -3.77065 -1.50257 0
M  V30 4292 H 388.511 -4.78974 0.762133 0
M  V30 4293 H 384.39 -4.58824 -0.447411 0
M  V30 4294 H 387.934 -6.55355 2.39071 0
M  V30 4295 H 383.831 -6.34746 1.17338 0
M  V30 4296 H 384.599 -7.71428 2.73572 0
M  V30 4297 N 387.262 0.0317525 -1.57568 0
M  V30 4298 C 388.678 0.38735 -1.54828 0
M  V30 4299 C 388.878 1.7677 -0.967187 0
M  V30 4300 O 387.934 2.45581 -0.587063 0
M  V30 4301 C 389.247 0.291667 -2.99282 0
M  V30 4302 C 390.795 0.368946 -3.10818 0
M  V30 4303 C 391.27 0.302741 -4.56998 0
M  V30 4304 N 392.761 0.361617 -4.61786 0
M  V30 4305 C 393.496 0.333238 -5.72431 0
M  V30 4306 N 392.992 0.257308 -6.92322 0
M  V30 4307 N 394.785 0.382769 -5.60795 0
M  V30 4308 H 386.936 -0.871609 -1.93692 0
M  V30 4309 H 389.199 -0.331161 -0.888277 0
M  V30 4310 H 388.905 -0.656794 -3.45513 0
M  V30 4311 H 388.779 1.08638 -3.61217 0
M  V30 4312 H 391.166 1.30784 -2.64536 0
M  V30 4313 H 391.247 -0.455066 -2.5172 0
M  V30 4314 H 390.891 -0.632473 -5.03947 0
M  V30 4315 H 390.821 1.14482 -5.14005 0
M  V30 4316 H 393.312 0.422923 -3.75526 0
M  V30 4317 H 393.625 0.24068 -7.72425 0
M  V30 4318 H 391.97 0.223396 -6.94641 0
M  V30 4319 H 395.161 0.44006 -4.66027 0
M  V30 4320 H 395.334 0.357184 -6.47015 0
M  V30 4321 N 388.74 1.54641 0.303973 0
M  V30 4322 C 389.688 1.86137 1.39484 0
M  V30 4323 C 390.682 0.734854 1.52631 0
M  V30 4324 O 391.888 0.918803 1.54784 0
M  V30 4325 H 388.263 0.590324 0.465856 0
M  V30 4326 H 390.234 2.77324 1.10154 0
M  V30 4327 C 388.983 2.12274 2.75382 0
M  V30 4328 H 388.306 2.98429 2.66046 0
M  V30 4329 H 389.746 2.38254 3.5073 0
M  V30 4330 C 388.205 0.920365 3.24085 0
M  V30 4331 O 388.735 0.139377 4.01458 0
M  V30 4332 N 386.941 0.726566 2.81371 0
M  V30 4333 H 386.488 1.36332 2.18567 0
M  V30 4334 H 386.446 -0.0763799 3.14307 0
M  V30 4335 N 390.218 -0.567019 1.47046 0
M  V30 4336 C 391.446 -1.35027 1.56765 0
M  V30 4337 C 391.861 -1.8758 0.214316 0
M  V30 4338 O 391.218 -1.64471 -0.790919 0
M  V30 4339 C 391.269 -2.52698 2.58507 0
M  V30 4340 O 390.99 -2.0232 3.88585 0
M  V30 4341 C 392.491 -3.45043 2.78316 0
M  V30 4342 H 389.711 -0.41195 0.529658 0
M  V30 4343 H 392.255 -0.687832 1.92585 0
M  V30 4344 H 390.41 -3.149 2.25648 0
M  V30 4345 H 390.824 -2.79068 4.44096 0
M  V30 4346 H 392.298 -4.2405 3.53391 0
M  V30 4347 H 392.775 -3.97971 1.85784 0
M  V30 4348 H 393.381 -2.88665 3.12334 0
M  V30 4349 N 391.696 -1.35014 -0.812953 0
M  V30 4350 C 392.921 -1.31187 -1.60639 0
M  V30 4351 C 393.346 0.109382 -1.87782 0
M  V30 4352 O 392.704 1.07424 -1.46047 0
M  V30 4353 C 392.752 -2.11809 -2.91838 0
M  V30 4354 O 391.856 -1.49444 -3.8437 0
M  V30 4355 H 391.197 -0.450084 -0.488181 0
M  V30 4356 H 393.727 -1.77963 -1.00947 0
M  V30 4357 H 393.737 -2.23531 -3.41318 0
M  V30 4358 H 392.412 -3.15137 -2.71407 0
M  V30 4359 H 390.989 -1.46524 -3.42907 0
M  V30 4360 N 393.175 1.03435 -1.18907 0
M  V30 4361 C 394.421 1.7713 -0.99982 0
M  V30 4362 C 394.776 1.86695 0.465049 0
M  V30 4363 O 394.069 1.36866 1.34083 0
M  V30 4364 C 394.263 3.19792 -1.59586 0
M  V30 4365 C 394.092 3.24134 -3.11717 0
M  V30 4366 C 392.862 3.32398 -3.80578 0
M  V30 4367 C 395.06 3.11625 -4.09138 0
M  V30 4368 N 393.042 3.26055 -5.20155 0
M  V30 4369 C 394.413 3.12855 -5.35277 0
M  V30 4370 C 396.468 2.95713 -4.00572 0
M  V30 4371 C 395.171 2.99805 -6.53842 0
M  V30 4372 C 397.197 2.84011 -5.1874 0
M  V30 4373 C 396.559 2.8589 -6.43775 0
M  V30 4374 H 392.658 0.659683 -0.419931 0
M  V30 4375 H 395.242 1.2317 -1.50789 0
M  V30 4376 H 393.413 3.72085 -1.11389 0
M  V30 4377 H 395.145 3.81819 -1.3415 0
M  V30 4378 H 391.9 3.38392 -3.31342 0
M  V30 4379 H 392.324 3.26307 -5.93172 0
M  V30 4380 H 396.966 2.93086 -3.0473 0
M  V30 4381 H 394.684 3.01184 -7.49876 0
M  V30 4382 H 398.27 2.72744 -5.13909 0
M  V30 4383 H 397.15 2.76931 -7.33675 0
M  V30 4384 N 394.653 0.992116 1.22453 0
M  V30 4385 C 395.93 0.583508 1.86694 0
M  V30 4386 C 396.31 -0.9392 1.89056 0
M  V30 4387 O 395.658 -1.82081 1.38053 0
M  V30 4388 C 395.868 1.20304 3.2761 0
M  V30 4389 C 397.216 1.30308 4.0411 0
M  V30 4390 O 398.24 1.15737 3.36873 0
M  V30 4391 O 397.099 1.53615 5.24466 0
M  V30 4392 H 394.193 0.198129 0.802916 0
M  V30 4393 H 396.739 1.08794 1.30238 0
M  V30 4394 H 395.511 2.24461 3.2052 0
M  V30 4395 H 395.134 0.684144 3.9167 0
M  V30 4396 N 396.131 -1.37776 0.765217 0
M  V30 4397 C 397.079 -2.32209 0.134798 0
M  V30 4398 C 398.073 -1.54607 -0.692315 0
M  V30 4399 O 399.279 -1.70052 -0.590109 0
M  V30 4400 H 395.654 -0.751591 0.0248005 0
M  V30 4401 H 397.625 -2.8297 0.947119 0
M  V30 4402 C 396.374 -3.39841 -0.735063 0
M  V30 4403 H 395.697 -3.99654 -0.107991 0
M  V30 4404 H 397.137 -4.08296 -1.14326 0
M  V30 4405 C 395.596 -2.79378 -1.88281 0
M  V30 4406 O 396.126 -2.69608 -2.97783 0
M  V30 4407 N 394.332 -2.37016 -1.68142 0
M  V30 4408 H 393.879 -2.45162 -0.790772 0
M  V30 4409 H 393.837 -1.96905 -2.45104 0
M  V30 4410 N 397.609 -0.515225 -1.4894 0
M  V30 4411 C 398.572 0.244681 -2.2789 0
M  V30 4412 C 399.572 0.881166 -1.34507 0
M  V30 4413 O 400.762 0.743497 -1.57537 0
M  V30 4414 C 397.894 1.35247 -3.12923 0
M  V30 4415 H 399.087 -0.448289 -2.96531 0
M  V30 4416 H 396.64 -0.270656 -1.53939 0
M  V30 4417 H 397.375 2.07916 -2.48881 0
M  V30 4418 H 397.16 0.901374 -3.81599 0
M  V30 4419 H 398.65 1.88737 -3.72516 0
M  V30 4420 N 399.087 1.5561 -0.249682 0
M  V30 4421 C 400.335 1.98618 0.373548 0
M  V30 4422 C 400.656 1.13919 1.58264 0
M  V30 4423 O 399.926 0.222637 1.94631 0
M  V30 4424 H 398.506 0.733571 0.141006 0
M  V30 4425 H 401.168 1.91748 -0.349117 0
M  V30 4426 H 400.264 3.04584 0.680796 0
M  V30 4427 N 400.565 -0.0233959 1.57583 0
M  V30 4428 C 401.812 -0.713063 1.8953 0
M  V30 4429 C 402.14 -1.75056 0.847673 0
M  V30 4430 O 401.395 -1.95119 -0.150636 0
M  V30 4431 C 401.694 -1.41428 3.28227 0
M  V30 4432 C 401.36 -0.512222 4.47981 0
M  V30 4433 C 400.022 -0.263785 4.80476 0
M  V30 4434 C 402.374 0.110248 5.21083 0
M  V30 4435 C 399.702 0.615804 5.83459 0
M  V30 4436 C 402.054 0.977573 6.25001 0
M  V30 4437 C 400.718 1.23542 6.55968 0
M  V30 4438 H 399.988 -0.260928 0.69354 0
M  V30 4439 H 402.635 0.0271047 1.91481 0
M  V30 4440 H 400.94 -2.22791 3.22291 0
M  V30 4441 H 402.637 -1.95355 3.50196 0
M  V30 4442 H 399.227 -0.716013 4.22577 0
M  V30 4443 H 403.411 -0.0687137 4.96252 0
M  V30 4444 H 398.667 0.82382 6.05824 0
M  V30 4445 H 402.841 1.46638 6.80786 0
M  V30 4446 H 400.468 1.91871 7.35588 0
M  V30 4447 N 402.043 -1.548 -0.295768 0
M  V30 4448 C 402.99 -1.86113 -1.36494 0
M  V30 4449 C 403.96 -0.7105 -1.50137 0
M  V30 4450 O 405.145 -0.959626 -1.64912 0
M  V30 4451 C 402.285 -2.11861 -2.72413 0
M  V30 4452 C 401.398 -3.39471 -2.67177 0
M  V30 4453 C 400.533 -3.55035 -3.95125 0
M  V30 4454 C 399.572 -4.76418 -3.84308 0
M  V30 4455 N 398.709 -4.8876 -5.04042 0
M  V30 4456 H 403.549 -2.77314 -1.09091 0
M  V30 4457 H 401.086 -1.37315 -0.52753 0
M  V30 4458 H 403.044 -2.24786 -3.51464 0
M  V30 4459 H 401.674 -1.2392 -2.98066 0
M  V30 4460 H 400.726 -3.35139 -1.79962 0
M  V30 4461 H 402.038 -4.28646 -2.55076 0
M  V30 4462 H 401.192 -3.67653 -4.82614 0
M  V30 4463 H 399.931 -2.64002 -4.10066 0
M  V30 4464 H 398.936 -4.63827 -2.95202 0
M  V30 4465 H 400.161 -5.68863 -3.70906 0
M  V30 4466 H 398.107 -4.00652 -5.19436 0
M  V30 4467 H 398.024 -5.71945 -4.94384 0
M  V30 4468 H 399.292 -5.0574 -5.93167 0
M  V30 4469 N 403.521 0.559213 -1.47345 0
M  V30 4470 C 404.769 1.31388 -1.53563 0
M  V30 4471 C 405.09 1.93985 -0.198678 0
M  V30 4472 O 404.36 1.79825 0.777167 0
M  V30 4473 H 402.94 0.487901 -0.565652 0
M  V30 4474 H 405.602 0.65315 -1.8363 0
M  V30 4475 H 404.698 2.10844 -2.30111 0
M  V30 4476 N 404.999 1.35443 0.805782 0
M  V30 4477 C 406.229 1.31687 1.59192 0
M  V30 4478 C 406.637 -0.10756 1.88894 0
M  V30 4479 O 405.98 -1.07017 1.49309 0
M  V30 4480 C 406.042 2.05686 2.94845 0
M  V30 4481 C 405.706 3.54868 2.87954 0
M  V30 4482 C 406.703 4.49444 2.61335 0
M  V30 4483 C 404.388 3.97528 3.07046 0
M  V30 4484 C 406.382 5.84655 2.53885 0
M  V30 4485 C 404.069 5.32833 2.99219 0
M  V30 4486 C 405.067 6.26209 2.72674 0
M  V30 4487 O 404.755 7.59032 2.64811 0
M  V30 4488 H 404.487 0.453878 0.50097 0
M  V30 4489 H 407.041 1.78892 1.0093 0
M  V30 4490 H 405.271 1.5312 3.55093 0
M  V30 4491 H 406.96 1.94998 3.55993 0
M  V30 4492 H 407.726 4.17804 2.46303 0
M  V30 4493 H 403.605 3.25233 3.26718 0
M  V30 4494 H 407.149 6.57508 2.33086 0
M  V30 4495 H 403.046 5.64087 3.13809 0
M  V30 4496 H 403.814 7.68967 2.80413 0
M  V30 4497 N 406.477 -1.02803 1.19454 0
M  V30 4498 C 407.725 -1.75869 0.995722 0
M  V30 4499 C 408.046 -1.89138 -0.474543 0
M  V30 4500 O 407.316 -1.42558 -1.34366 0
M  V30 4501 H 405.896 -0.651511 0.365435 0
M  V30 4502 H 408.558 -1.24004 1.50363 0
M  V30 4503 H 407.654 -2.76661 1.44447 0
M  V30 4504 N 407.956 -0.998596 -1.21925 0
M  V30 4505 C 409.205 -0.673085 -1.90138 0
M  V30 4506 C 409.518 0.79895 -1.78539 0
M  V30 4507 O 410.724 1.23628 -2.4172 0
M  V30 4508 C 409.18 -1.15339 -3.40918 0
M  V30 4509 C 408.788 -2.65106 -3.61141 0
M  V30 4510 C 410.532 -0.902476 -4.14796 0
M  V30 4511 C 408.439 -3.0671 -5.05651 0
M  V30 4512 H 407.369 -0.248057 -0.712028 0
M  V30 4513 H 410.02 -1.20891 -1.38049 0
M  V30 4514 H 408.402 -0.545658 -3.92223 0
M  V30 4515 H 409.576 -3.31274 -3.20304 0
M  V30 4516 H 407.891 -2.88142 -3.00605 0
M  V30 4517 H 410.488 -1.18895 -5.21314 0
M  V30 4518 H 410.831 0.161349 -4.15987 0
M  V30 4519 H 411.364 -1.47269 -3.69536 0
M  V30 4520 H 408.103 -4.12292 -5.09603 0
M  V30 4521 H 407.623 -2.45249 -5.47369 0
M  V30 4522 H 409.302 -2.9833 -5.74115 0
M  V30 4523 N 409.434 1.37368 -0.772513 0
M  V30 4524 C 410.366 2.28899 -0.117502 0
M  V30 4525 C 411.379 1.4867 0.663405 0
M  V30 4526 O 412.568 1.71314 0.501372 0
M  V30 4527 C 409.668 3.2788 0.857192 0
M  V30 4528 C 408.841 4.37207 0.129938 0
M  V30 4529 C 407.9 5.16257 1.01811 0
M  V30 4530 O 406.926 5.67159 0.481601 0
M  V30 4531 N 408.128 5.31058 2.3443 0
M  V30 4532 H 410.893 2.85752 -0.903662 0
M  V30 4533 H 408.454 1.49353 -0.62493 0
M  V30 4534 H 410.446 3.77647 1.45482 0
M  V30 4535 H 409.016 2.7179 1.54432 0
M  V30 4536 H 408.236 3.88827 -0.648605 0
M  V30 4537 H 409.524 5.07434 -0.372559 0
M  V30 4538 H 408.922 4.91287 2.80452 0
M  V30 4539 H 407.479 5.84131 2.89197 0
M  V30 4540 N 410.912 0.523116 1.48665 0
M  V30 4541 C 412.161 -0.01544 2.01694 0
M  V30 4542 C 412.474 -1.35975 1.40606 0
M  V30 4543 O 413.68 -1.98627 1.85093 0
M  V30 4544 C 412.136 -0.0779303 3.59816 0
M  V30 4545 C 411.744 1.26107 4.29885 0
M  V30 4546 C 413.488 -0.565678 4.20714 0
M  V30 4547 C 411.395 1.15954 5.79921 0
M  V30 4548 H 410.325 -0.00954163 0.75394 0
M  V30 4549 H 412.976 0.665865 1.70993 0
M  V30 4550 H 411.358 -0.824165 3.87329 0
M  V30 4551 H 412.532 2.02233 4.14051 0
M  V30 4552 H 410.847 1.68401 3.80828 0
M  V30 4553 H 413.444 -0.6595 5.30617 0
M  V30 4554 H 413.787 -1.56984 3.85567 0
M  V30 4555 H 414.32 0.12467 3.97605 0
M  V30 4556 H 411.059 2.13864 6.19631 0
M  V30 4557 H 410.579 0.439529 5.98187 0
M  V30 4558 H 412.258 0.847361 6.41427 0
M  V30 4559 N 412.39 -1.55475 0.257931 0
M  V30 4560 C 413.3 -2.2549 -0.647425 0
M  V30 4561 C 414.316 -1.2748 -1.18427 0
M  V30 4562 O 415.492 -1.6038 -1.2182 0
M  V30 4563 C 412.557 -2.94916 -1.82278 0
M  V30 4564 C 411.618 -4.08363 -1.32432 0
M  V30 4565 C 410.851 -4.74469 -2.44366 0
M  V30 4566 O 411.074 -4.39701 -3.63344 0
M  V30 4567 O 410.008 -5.62763 -2.13497 0
M  V30 4568 H 413.834 -3.03593 -0.0807707 0
M  V30 4569 H 411.419 -1.49377 0.0259962 0
M  V30 4570 H 413.301 -3.38606 -2.50846 0
M  V30 4571 H 411.976 -2.19744 -2.37685 0
M  V30 4572 H 410.883 -3.69166 -0.605605 0
M  V30 4573 H 412.216 -4.85385 -0.816211 0
M  V30 4574 N 413.868 0.0150385 -1.57593 0
M  V30 4575 C 414.8 1.03912 -2.04291 0
M  V30 4576 C 415.813 1.31618 -0.958146 0
M  V30 4577 O 417.002 1.28859 -1.23522 0
M  V30 4578 C 414.102 2.37749 -2.41514 0
M  V30 4579 C 413.275 2.29198 -3.72541 0
M  V30 4580 C 412.334 3.45598 -3.96797 0
M  V30 4581 O 411.36 3.24461 -4.67668 0
M  V30 4582 N 412.562 4.67945 -3.43523 0
M  V30 4583 H 415.327 0.64099 -2.92765 0
M  V30 4584 H 412.888 0.20272 -1.60626 0
M  V30 4585 H 414.88 3.14364 -2.54867 0
M  V30 4586 H 413.45 2.69357 -1.58637 0
M  V30 4587 H 412.67 1.3759 -3.69408 0
M  V30 4588 H 413.958 2.20642 -4.5847 0
M  V30 4589 H 413.356 4.88017 -2.86104 0
M  V30 4590 H 411.913 5.41878 -3.62232 0
M  V30 4591 N 415.346 1.54954 0.287554 0
M  V30 4592 C 416.595 1.74081 1.01877 0
M  V30 4593 C 416.908 0.541135 1.87966 0
M  V30 4594 O 418.114 0.614491 2.64455 0
M  V30 4595 C 416.57 3.08042 1.86113 0
M  V30 4596 C 416.178 4.35531 1.04961 0
M  V30 4597 C 417.922 3.36523 2.58752 0
M  V30 4598 C 415.829 5.60538 1.88551 0
M  V30 4599 H 414.759 0.64884 0.384087 0
M  V30 4600 H 417.41 1.81426 0.275101 0
M  V30 4601 H 415.792 2.94696 2.64519 0
M  V30 4602 H 416.966 4.59751 0.31074 0
M  V30 4603 H 415.281 4.14085 0.43843 0
M  V30 4604 H 417.878 4.27122 3.21668 0
M  V30 4605 H 418.221 2.56 3.28283 0
M  V30 4606 H 418.754 3.50901 1.87386 0
M  V30 4607 H 415.493 6.43767 1.23466 0
M  V30 4608 H 415.013 5.40483 2.60074 0
M  V30 4609 H 416.692 5.98297 2.46273 0
M  V30 4610 N 416.824 -0.551391 1.4764 0
M  V30 4611 C 418.24 -0.877887 1.33287 0
M  V30 4612 C 418.44 -1.98817 0.327721 0
M  V30 4613 O 417.496 -2.51171 -0.258695 0
M  V30 4614 C 418.809 -1.26563 2.72768 0
M  V30 4615 C 420.357 -1.37673 2.81097 0
M  V30 4616 C 420.832 -1.79799 4.21232 0
M  V30 4617 N 422.323 -1.8694 4.23802 0
M  V30 4618 C 423.058 -2.20876 5.29151 0
M  V30 4619 N 422.554 -2.53386 6.448 0
M  V30 4620 N 424.347 -2.217 5.16532 0
M  V30 4621 H 416.498 0.18153 2.11623 0
M  V30 4622 H 418.761 0.0185514 0.947818 0
M  V30 4623 H 418.467 -0.523591 3.47781 0
M  V30 4624 H 418.341 -2.22052 3.04915 0
M  V30 4625 H 420.728 -2.10956 2.06353 0
M  V30 4626 H 420.809 -0.40357 2.52596 0
M  V30 4627 H 420.453 -1.07083 4.96483 0
M  V30 4628 H 420.383 -2.78128 4.4716 0
M  V30 4629 H 422.874 -1.64179 3.40373 0
M  V30 4630 H 423.187 -2.78325 7.20941 0
M  V30 4631 H 421.532 -2.50953 6.48111 0
M  V30 4632 H 424.723 -1.95745 4.25207 0
M  V30 4633 H 424.896 -2.47818 5.98741 0
M  V30 4634 N 418.302 -1.35869 -0.798587 0
M  V30 4635 C 419.551 -1.28921 -1.5512 0
M  V30 4636 C 419.864 0.13208 -1.95154 0
M  V30 4637 O 421.07 0.323879 -2.69561 0
M  V30 4638 C 419.526 -2.26141 -2.79979 0
M  V30 4639 C 419.134 -3.73658 -2.47151 0
M  V30 4640 C 420.878 -2.28152 -3.57976 0
M  V30 4641 C 418.785 -4.62679 -3.6835 0
M  V30 4642 H 417.715 -0.479031 -0.582276 0
M  V30 4643 H 420.366 -1.61179 -0.877125 0
M  V30 4644 H 418.748 -1.86865 -3.49138 0
M  V30 4645 H 419.922 -4.21616 -1.85947 0
M  V30 4646 H 418.237 -3.74333 -1.82383 0
M  V30 4647 H 420.834 -2.91875 -4.4801 0
M  V30 4648 H 421.177 -1.28748 -3.95891 0
M  V30 4649 H 421.71 -2.65998 -2.95787 0
M  V30 4650 H 418.449 -5.63111 -3.35538 0
M  V30 4651 H 417.969 -4.19442 -4.28752 0
M  V30 4652 H 419.648 -4.78498 -4.35487 0
M  V30 4653 N 419.78 1.02168 -1.19998 0
M  V30 4654 C 420.71 2.12488 -0.96804 0
M  V30 4655 C 421.691 1.69799 0.101185 0
M  V30 4656 O 422.876 1.94121 -0.0552993 0
M  V30 4657 C 420.006 3.43479 -0.513776 0
M  V30 4658 C 418.96 3.99884 -1.52566 0
M  V30 4659 C 418.286 5.26582 -0.928214 0
M  V30 4660 C 419.586 4.33861 -2.90795 0
M  V30 4661 H 421.28 2.32149 -1.89069 0
M  V30 4662 H 418.826 1.11564 -0.910468 0
M  V30 4663 H 420.779 4.20036 -0.338774 0
M  V30 4664 H 419.503 3.23561 0.444493 0
M  V30 4665 H 418.162 3.25429 -1.68794 0
M  V30 4666 H 417.81 5.02986 0.0378289 0
M  V30 4667 H 417.51 5.65284 -1.60397 0
M  V30 4668 H 419.034 6.05799 -0.764167 0
M  V30 4669 H 420.448 5.01327 -2.78109 0
M  V30 4670 H 418.845 4.83664 -3.55231 0
M  V30 4671 H 419.915 3.42848 -3.42904 0
M  V30 4672 N 421.258 1.00505 1.21394 0
M  V30 4673 C 422.205 0.565496 2.23765 0
M  V30 4674 C 423.175 -0.408466 1.60999 0
M  V30 4675 O 424.36 -0.310503 1.88257 0
M  V30 4676 C 421.5 -0.101667 3.4495 0
M  V30 4677 C 420.613 0.915479 4.22188 0
M  V30 4678 C 419.748 0.220574 5.30742 0
M  V30 4679 C 418.787 1.22527 5.99711 0
M  V30 4680 N 417.924 0.557831 6.9988 0
M  V30 4681 H 422.764 1.44314 2.60725 0
M  V30 4682 H 420.301 0.722643 1.28126 0
M  V30 4683 H 422.259 -0.505504 4.14126 0
M  V30 4684 H 420.889 -0.94303 3.08718 0
M  V30 4685 H 419.941 1.43756 3.52191 0
M  V30 4686 H 421.253 1.68005 4.69655 0
M  V30 4687 H 420.407 -0.239368 6.06228 0
M  V30 4688 H 419.146 -0.576401 4.84282 0
M  V30 4689 H 418.151 1.69571 5.22997 0
M  V30 4690 H 419.376 2.02332 6.48258 0
M  V30 4691 H 417.322 -0.219486 6.55633 0
M  V30 4692 H 417.239 1.26065 7.45415 0
M  V30 4693 H 418.507 0.121095 7.79406 0
M  V30 4694 N 422.737 -1.36956 0.779787 0
M  V30 4695 C 423.962 -2.04283 0.358224 0
M  V30 4696 C 424.387 -1.58422 -1.01411 0
M  V30 4697 O 423.745 -0.748179 -1.65142 0
M  V30 4698 C 423.793 -3.58152 0.419479 0
M  V30 4699 O 422.897 -4.08342 -0.577142 0
M  V30 4700 H 422.238 -0.645967 0.153698 0
M  V30 4701 H 424.768 -1.75108 1.05822 0
M  V30 4702 H 424.778 -4.07041 0.279636 0
M  V30 4703 H 423.453 -3.90886 1.42061 0
M  V30 4704 H 422.03 -3.70751 -0.399755 0
M  V30 4705 N 424.215 -0.530993 -1.48385 0
M  V30 4706 C 425.626 -0.0907905 -1.86479 0
M  V30 4707 C 425.977 1.33213 -1.44044 0
M  V30 4708 O 425.102 1.99783 -0.831615 0
M  V30 4709 C 425.697 -0.157987 -3.38431 0
M  V30 4710 C 424.256 0.227026 -3.75715 0
M  V30 4711 C 423.403 -0.5173 -2.72432 0
M  V30 4712 H 426.354 -0.742186 -1.40276 0
M  V30 4713 H 426.375 0.630053 -3.75247 0
M  V30 4714 H 425.887 -1.19372 -3.69286 0
M  V30 4715 H 423.988 1.26486 -3.50474 0
M  V30 4716 H 424.101 -0.113288 -4.78966 0
M  V30 4717 H 422.465 0.0365527 -2.54674 0
M  V30 4718 H 423.248 -1.55368 -3.0613 0
M  V30 4719 N 425.693 1.55336 -0.266172 0
M  V30 4720 C 426.625 2.19544 0.658247 0
M  V30 4721 C 427.638 1.17746 1.12427 0
M  V30 4722 O 428.827 1.44517 1.04772 0
M  V30 4723 C 425.927 2.80032 1.9088 0
M  V30 4724 C 425.1 4.07436 1.59106 0
M  V30 4725 C 424.159 4.52056 2.69317 0
M  V30 4726 O 423.185 5.18023 2.35883 0
M  V30 4727 N 424.387 4.21448 3.99201 0
M  V30 4728 H 427.152 2.99503 0.108754 0
M  V30 4729 H 424.713 1.61667 -0.0869059 0
M  V30 4730 H 426.705 3.06831 2.63888 0
M  V30 4731 H 425.275 2.04119 2.36758 0
M  V30 4732 H 424.495 3.88021 0.695243 0
M  V30 4733 H 425.783 4.90462 1.35367 0
M  V30 4734 H 425.181 3.68528 4.29189 0
M  V30 4735 H 423.738 4.53039 4.68614 0
M  V30 4736 N 427.171 -0.0066808 1.57599 0
M  V30 4737 C 428.081 -1.01671 2.11424 0
M  V30 4738 C 429.097 -1.38143 1.05795 0
M  V30 4739 O 430.273 -1.47011 1.37658 0
M  V30 4740 C 427.338 -2.29192 2.60139 0
M  V30 4741 C 426.399 -1.99094 3.80342 0
M  V30 4742 C 425.632 -3.20535 4.26724 0
M  V30 4743 O 425.855 -4.3199 3.72479 0
M  V30 4744 O 424.789 -3.04924 5.18946 0
M  V30 4745 H 428.615 -0.589181 2.9793 0
M  V30 4746 H 426.2 -0.225091 1.47695 0
M  V30 4747 H 428.082 -3.0412 2.917 0
M  V30 4748 H 426.757 -2.71195 1.76733 0
M  V30 4749 H 425.664 -1.21663 3.53764 0
M  V30 4750 H 426.997 -1.61931 4.648 0
M  V30 4751 N 428.649 -1.55105 -0.279332 0
M  V30 4752 C 429.895 -1.75672 -1.01327 0
M  V30 4753 C 430.228 -0.552739 -1.86168 0
M  V30 4754 O 429.503 0.449827 -1.89227 0
M  V30 4755 C 429.786 -3.05825 -1.90114 0
M  V30 4756 C 429.639 -4.36565 -1.08309 0
M  V30 4757 C 430.958 -3.31975 -2.8893 0
M  V30 4758 H 428.077 -0.639149 -0.366957 0
M  V30 4759 H 430.719 -1.87833 -0.286154 0
M  V30 4760 H 428.869 -2.95588 -2.52111 0
M  V30 4761 H 430.541 -4.58751 -0.484314 0
M  V30 4762 H 428.784 -4.32076 -0.386362 0
M  V30 4763 H 429.455 -5.23946 -1.73737 0
M  V30 4764 H 431.931 -3.41963 -2.37067 0
M  V30 4765 H 430.807 -4.2432 -3.48201 0
M  V30 4766 H 431.068 -2.51309 -3.63725 0
M  V30 4767 N 430.127 0.543554 -1.4793 0
M  V30 4768 C 431.074 1.64942 -1.6144 0
M  V30 4769 C 432.044 1.59692 -0.456903 0
M  V30 4770 O 433.229 1.78321 -0.678688 0
M  V30 4771 C 430.369 3.03238 -1.64744 0
M  V30 4772 C 429.482 3.18823 -2.91506 0
M  V30 4773 C 428.617 4.47599 -2.86057 0
M  V30 4774 C 427.656 4.56664 -4.07584 0
M  V30 4775 N 426.793 5.76811 -4.00292 0
M  V30 4776 H 431.633 1.52733 -2.55884 0
M  V30 4777 H 429.17 0.7438 -1.2691 0
M  V30 4778 H 431.128 3.83339 -1.64641 0
M  V30 4779 H 429.758 3.1425 -0.738017 0
M  V30 4780 H 428.81 2.32064 -3.01414 0
M  V30 4781 H 430.122 3.21384 -3.81463 0
M  V30 4782 H 429.276 5.35975 -2.84281 0
M  V30 4783 H 428.015 4.47538 -1.93807 0
M  V30 4784 H 427.02 3.66697 -4.09651 0
M  V30 4785 H 428.245 4.58474 -5.00978 0
M  V30 4786 H 426.191 5.77673 -3.10853 0
M  V30 4787 H 426.108 5.80808 -4.8394 0
M  V30 4788 H 427.376 6.67512 -4.02553 0
M  V30 4789 N 431.605 1.3629 0.791371 0
M  V30 4790 C 433.016 1.27225 1.36641 0
M  V30 4791 C 433.367 -0.0887968 1.95999 0
M  V30 4792 O 432.492 -0.990207 1.92416 0
M  V30 4793 C 433.087 2.30375 2.48421 0
M  V30 4794 C 431.646 2.25004 3.01746 0
M  V30 4795 C 430.793 2.15259 1.7481 0
M  V30 4796 H 433.744 1.47198 0.593173 0
M  V30 4797 H 433.765 1.93905 3.27385 0
M  V30 4798 H 433.277 3.29422 2.05189 0
M  V30 4799 H 431.378 1.29417 3.49403 0
M  V30 4800 H 431.491 3.1761 3.58693 0
M  V30 4801 H 429.855 1.61482 1.96966 0
M  V30 4802 H 430.638 3.16191 1.33709 0
M  V30 4803 N 433.083 -1.0153 1.20538 0
M  V30 4804 C 434.331 -1.74803 1.01432 0
M  V30 4805 C 434.652 -1.8963 -0.454456 0
M  V30 4806 O 433.922 -1.43975 -1.32846 0
M  V30 4807 H 432.502 -0.647598 0.372324 0
M  V30 4808 H 435.164 -1.22402 1.5167 0
M  V30 4809 H 434.26 -2.75114 1.47373 0
M  V30 4810 N 434.561 -1.01147 -1.20859 0
M  V30 4811 C 435.471 -0.58686 -2.27141 0
M  V30 4812 C 436.487 0.373198 -1.69951 0
M  V30 4813 O 437.663 0.235423 -2.00019 0
M  V30 4814 C 434.728 0.0733602 -3.46622 0
M  V30 4815 C 433.789 -0.931995 -4.19061 0
M  V30 4816 C 433.022 -0.303186 -5.32838 0
M  V30 4817 O 433.245 0.898395 -5.63281 0
M  V30 4818 O 432.179 -1.01735 -5.9324 0
M  V30 4819 H 436.005 -1.47155 -2.65667 0
M  V30 4820 H 433.59 -0.780689 -1.2738 0
M  V30 4821 H 435.472 0.442333 -4.19072 0
M  V30 4822 H 434.147 0.932329 -3.09983 0
M  V30 4823 H 433.054 -1.35224 -3.48805 0
M  V30 4824 H 434.387 -1.76076 -4.59628 0
M  V30 4825 N 436.039 1.36541 -0.78704 0
M  V30 4826 C 436.986 2.30082 -0.181901 0
M  V30 4827 C 437.956 1.5186 0.672896 0
M  V30 4828 O 439.141 1.80374 0.622072 0
M  V30 4829 C 436.281 3.3835 0.679197 0
M  V30 4830 C 435.394 4.31565 -0.193882 0
M  V30 4831 C 434.529 5.26915 0.673364 0
M  V30 4832 C 433.568 6.11769 -0.201315 0
M  V30 4833 N 432.705 6.99315 0.624777 0
M  V30 4834 H 437.545 2.81248 -0.985064 0
M  V30 4835 H 435.082 1.38437 -0.497342 0
M  V30 4836 H 437.04 3.99767 1.19341 0
M  V30 4837 H 435.67 2.8851 1.44781 0
M  V30 4838 H 434.722 3.71323 -0.826044 0
M  V30 4839 H 436.034 4.91191 -0.867937 0
M  V30 4840 H 435.188 5.9361 1.25348 0
M  V30 4841 H 433.927 4.67737 1.38105 0
M  V30 4842 H 432.932 5.44039 -0.793849 0
M  V30 4843 H 434.157 6.73022 -0.906568 0
M  V30 4844 H 432.103 6.42648 1.3168 0
M  V30 4845 H 432.02 7.56 0.00835237 0
M  V30 4846 H 433.288 7.70382 1.18879 0
M  V30 4847 N 437.518 0.538854 1.48102 0
M  V30 4848 C 438.468 -0.23907 2.26743 0
M  V30 4849 C 439.452 -0.901923 1.33245 0
M  V30 4850 O 440.644 -0.803263 1.57723 0
M  V30 4851 C 437.773 -1.2799 3.18549 0
M  V30 4852 C 436.859 -0.621388 4.19523 0
M  V30 4853 N 437.25 0.298004 5.04921 0
M  V30 4854 C 435.548 -0.877533 4.37282 0
M  V30 4855 C 436.249 0.678757 5.77726 0
M  V30 4856 N 435.225 0.0377881 5.43587 0
M  V30 4857 H 439.027 0.468096 2.90148 0
M  V30 4858 H 436.541 0.357497 1.58416 0
M  V30 4859 H 438.538 -1.851 3.73555 0
M  V30 4860 H 437.198 -1.98835 2.567 0
M  V30 4861 H 438.209 0.671126 5.13533 0
M  V30 4862 H 434.886 -1.57588 3.86616 0
M  V30 4863 H 436.276 1.43316 6.56437 0
M  V30 4864 N 438.996 -1.55193 0.274407 0
M  V30 4865 C 440.226 -2.03692 -0.345442 0
M  V30 4866 C 440.634 -1.15224 -1.50067 0
M  V30 4867 O 439.977 -0.164749 -1.8296 0
M  V30 4868 C 440.039 -3.48325 -0.88939 0
M  V30 4869 C 439.703 -4.56794 0.137115 0
M  V30 4870 C 440.7 -5.11028 0.956378 0
M  V30 4871 C 438.385 -5.01568 0.27115 0
M  V30 4872 C 440.379 -6.08552 1.89587 0
M  V30 4873 C 438.066 -5.98918 1.21412 0
M  V30 4874 C 439.064 -6.52291 2.02498 0
M  V30 4875 O 438.752 -7.47738 2.952 0
M  V30 4876 H 438.484 -0.670893 -0.0829332 0
M  V30 4877 H 441.038 -2.01387 0.404056 0
M  V30 4878 H 439.268 -3.47867 -1.68895 0
M  V30 4879 H 440.957 -3.80167 -1.42225 0
M  V30 4880 H 441.723 -4.7725 0.863559 0
M  V30 4881 H 437.602 -4.5967 -0.349987 0
M  V30 4882 H 441.146 -6.50137 2.52918 0
M  V30 4883 H 437.043 -6.32114 1.30776 0
M  V30 4884 H 437.811 -7.65451 2.89874 0
M  V30 4885 N 440.474 -0.00167713 -1.576 0
M  V30 4886 C 441.422 1.0074 -2.09652 0
M  V30 4887 C 442.416 1.35483 -1.01689 0
M  V30 4888 O 443.622 1.34028 -1.20152 0
M  V30 4889 H 439.997 0.342537 -0.669457 0
M  V30 4890 H 441.968 0.542841 -2.93421 0
M  V30 4891 C 440.717 2.2899 -2.61647 0
M  V30 4892 H 440.04 2.03124 -3.44355 0
M  V30 4893 H 441.48 2.9787 -3.01744 0
M  V30 4894 C 439.939 3.00085 -1.53136 0
M  V30 4895 O 440.469 3.91135 -0.91524 0
M  V30 4896 N 438.675 2.6194 -1.25841 0
M  V30 4897 H 438.222 1.8798 -1.76129 0
M  V30 4898 H 438.18 3.09822 -0.534576 0
M  V30 4899 N 441.952 1.55251 0.271103 0
M  V30 4900 C 442.885 1.83191 1.36075 0
M  V30 4901 C 443.863 0.685091 1.47463 0
M  V30 4902 O 445.047 0.928292 1.64058 0
M  V30 4903 C 442.174 1.99521 2.73696 0
M  V30 4904 C 441.22 3.22081 2.79582 0
M  V30 4905 S 442.053 4.79388 2.38636 0
M  V30 4906 C 443.209 4.98693 3.78228 0
M  V30 4907 H 443.442 2.75327 1.12171 0
M  V30 4908 H 440.975 1.47046 0.470833 0
M  V30 4909 H 442.933 2.09613 3.52948 0
M  V30 4910 H 441.594 1.0827 2.9485 0
M  V30 4911 H 440.787 3.304 3.80594 0
M  V30 4912 H 440.389 3.10589 2.08352 0
M  V30 4913 H 442.681 4.84551 4.73515 0
M  V30 4914 H 443.624 6.00738 3.7486 0
M  V30 4915 H 444.032 4.26665 3.69618 0
M  V30 4916 N 443.43 -0.535701 1.48216 0
M  V30 4917 C 444.393 -1.623 1.61838 0
M  V30 4918 C 445.393 -1.53087 0.492024 0
M  V30 4919 O 446.583 -1.5686 0.757668 0
M  V30 4920 C 443.715 -3.01907 1.58319 0
M  V30 4921 H 444.908 -1.51564 2.58783 0
M  V30 4922 H 442.461 -0.757317 1.36727 0
M  V30 4923 H 443.196 -3.18155 0.628299 0
M  V30 4924 H 442.981 -3.10003 2.40085 0
M  V30 4925 H 444.471 -3.80969 1.71033 0
M  V30 4926 N 444.908 -1.36708 -0.784132 0
M  V30 4927 C 445.855 -1.31466 -1.89698 0
M  V30 4928 C 446.825 -0.18239 -1.65096 0
M  V30 4929 O 448.01 -0.369762 -1.87183 0
M  V30 4930 C 445.15 -1.1151 -3.26588 0
M  V30 4931 C 444.263 -2.33859 -3.63227 0
M  V30 4932 C 443.398 -2.06873 -4.89262 0
M  V30 4933 C 442.437 -3.25154 -5.18595 0
M  V30 4934 N 441.574 -2.978 -6.35814 0
M  V30 4935 H 446.414 -2.26619 -1.93515 0
M  V30 4936 H 443.951 -1.12625 -0.946256 0
M  V30 4937 H 445.909 -0.979653 -4.05535 0
M  V30 4938 H 444.539 -0.200103 -3.22179 0
M  V30 4939 H 443.591 -2.58188 -2.79362 0
M  V30 4940 H 444.903 -3.22109 -3.8085 0
M  V30 4941 H 444.057 -1.90289 -5.76086 0
M  V30 4942 H 442.796 -1.15942 -4.73718 0
M  V30 4943 H 441.801 -3.42292 -4.30251 0
M  V30 4944 H 443.026 -4.1692 -5.36055 0
M  V30 4945 H 440.972 -2.09485 -6.21653 0
M  V30 4946 H 440.889 -3.7959 -6.53794 0
M  V30 4947 H 442.157 -2.84805 -7.25607 0
M  V30 4948 N 446.386 1.0089 -1.21074 0
M  V30 4949 C 447.611 1.78727 -1.05221 0
M  V30 4950 C 448.036 1.83932 0.393795 0
M  V30 4951 O 447.394 1.28004 1.28393 0
M  V30 4952 C 447.442 3.20665 -1.64944 0
M  V30 4953 O 446.546 4.02632 -0.892273 0
M  V30 4954 H 445.887 0.550973 -0.370574 0
M  V30 4955 H 448.417 1.26847 -1.60534 0
M  V30 4956 H 448.427 3.71352 -1.69002 0
M  V30 4957 H 447.102 3.16191 -2.70177 0
M  V30 4958 H 445.679 3.61207 -0.926492 0
M  V30 4959 N 447.864 1.01787 1.20321 0
M  V30 4960 C 449.094 0.72614 1.93419 0
M  V30 4961 C 449.502 -0.717317 1.75075 0
M  V30 4962 O 448.845 -1.49836 1.06278 0
M  V30 4963 C 448.907 0.983621 3.45782 0
M  V30 4964 C 448.571 2.41645 3.87888 0
M  V30 4965 C 449.568 3.39732 3.93545 0
M  V30 4966 C 447.253 2.75752 4.19841 0
M  V30 4967 C 449.247 4.69988 4.30569 0
M  V30 4968 C 446.934 4.06221 4.56539 0
M  V30 4969 C 447.932 5.0315 4.61876 0
M  V30 4970 O 447.62 6.31284 4.97731 0
M  V30 4971 H 447.352 0.265824 0.621541 0
M  V30 4972 H 449.906 1.3623 1.53722 0
M  V30 4973 H 448.136 0.290301 3.85609 0
M  V30 4974 H 449.825 0.683279 4.00108 0
M  V30 4975 H 450.591 3.14718 3.69022 0
M  V30 4976 H 446.47 2.00993 4.14877 0
M  V30 4977 H 450.014 5.45642 4.3465 0
M  V30 4978 H 445.911 4.31013 4.80518 0
M  V30 4979 H 446.679 6.35591 5.15719 0
M  V30 4980 N 449.342 -1.36122 0.79427 0
M  V30 4981 C 450.753 -1.81646 0.431446 0
M  V30 4982 C 451.104 -1.66043 -1.04518 0
M  V30 4983 O 450.229 -1.1841 -1.8113 0
M  V30 4984 C 450.824 -3.29785 0.776341 0
M  V30 4985 C 449.383 -3.73501 0.466282 0
M  V30 4986 C 448.53 -2.58313 1.00844 0
M  V30 4987 H 451.481 -1.24274 0.986995 0
M  V30 4988 H 451.502 -3.80437 0.0692413 0
M  V30 4989 H 451.014 -3.4111 1.8511 0
M  V30 4990 H 449.115 -3.67733 -0.600245 0
M  V30 4991 H 449.228 -4.68754 0.990288 0
M  V30 4992 H 447.592 -2.5102 0.431406 0
M  V30 4993 H 448.375 -2.72421 2.08906 0
M  V30 4994 N 450.82 -0.546701 -1.47814 0
M  V30 4995 C 451.768 0.220048 -2.31557 0
M  V30 4996 C 452.762 0.919472 -1.42275 0
M  V30 4997 O 453.968 0.841953 -1.59095 0
M  V30 4998 H 450.343 0.0898334 -0.746615 0
M  V30 4999 H 452.314 -0.505589 -2.94086 0
M  V30 5000 C 451.063 1.24353 -3.24702 0
M  V30 5001 H 450.386 0.714758 -3.93359 0
M  V30 5002 H 451.826 1.75112 -3.8615 0
M  V30 5003 C 450.285 2.28593 -2.47481 0
M  V30 5004 O 450.815 3.35334 -2.21165 0
M  V30 5005 N 449.021 2.02244 -2.08676 0
M  V30 5006 H 448.568 1.15455 -2.30278 0
M  V30 5007 H 448.526 2.72207 -1.57323 0
M  V30 5008 N 452.299 1.55045 -0.282633 0
M  V30 5009 C 453.209 2.26491 0.61147 0
M  V30 5010 C 454.225 1.29348 1.16384 0
M  V30 5011 O 455.401 1.62298 1.19253 0
M  V30 5012 C 452.466 2.97779 1.77563 0
M  V30 5013 C 451.527 4.10418 1.25919 0
M  V30 5014 C 450.76 4.78297 2.36786 0
M  V30 5015 O 450.983 4.45426 3.56303 0
M  V30 5016 O 449.917 5.66089 2.04517 0
M  V30 5017 H 453.743 3.03683 0.0324615 0
M  V30 5018 H 451.328 1.49317 -0.0497576 0
M  V30 5019 H 453.21 3.42554 2.45427 0
M  V30 5020 H 451.885 2.23498 2.34159 0
M  V30 5021 H 450.792 3.70082 0.546797 0
M  V30 5022 H 452.125 4.86622 0.738887 0
M  V30 5023 N 453.777 0.010035 1.57597 0
M  V30 5024 C 454.687 -0.994226 2.12491 0
M  V30 5025 C 455.703 -1.37013 1.07254 0
M  V30 5026 O 456.879 -1.45542 1.3921 0
M  V30 5027 C 453.944 -2.2642 2.62555 0
M  V30 5028 C 453.005 -1.95049 3.82432 0
M  V30 5029 C 452.238 -3.15991 4.30099 0
M  V30 5030 O 452.461 -4.28015 3.7704 0
M  V30 5031 O 451.395 -2.99403 5.22151 0
M  V30 5032 H 455.221 -0.557549 2.98538 0
M  V30 5033 H 452.806 -0.209413 1.47925 0
M  V30 5034 H 454.688 -3.01009 2.9491 0
M  V30 5035 H 453.363 -2.69306 1.796 0
M  V30 5036 H 452.27 -1.17904 3.55034 0
M  V30 5037 H 453.603 -1.56992 4.66491 0
M  V30 5038 N 455.255 -1.55392 -0.262866 0
M  V30 5039 C 456.202 -1.88966 -1.32516 0
M  V30 5040 C 457.172 -0.742187 -1.48596 0
M  V30 5041 O 458.357 -0.99439 -1.62839 0
M  V30 5042 C 455.497 -2.17592 -2.67858 0
M  V30 5043 C 454.61 -3.45061 -2.59917 0
M  V30 5044 C 453.745 -3.63336 -3.87505 0
M  V30 5045 C 452.784 -4.84462 -3.74116 0
M  V30 5046 N 451.921 -4.99342 -4.93561 0
M  V30 5047 H 456.761 -2.79566 -1.03184 0
M  V30 5048 H 454.298 -1.38404 -0.498285 0
M  V30 5049 H 456.256 -2.3219 -3.46617 0
M  V30 5050 H 454.886 -1.30215 -2.95371 0
M  V30 5051 H 453.938 -3.38881 -1.72812 0
M  V30 5052 H 455.25 -4.3396 -2.45926 0
M  V30 5053 H 454.404 -3.77807 -4.74707 0
M  V30 5054 H 453.143 -2.72641 -4.04374 0
M  V30 5055 H 452.148 -4.69985 -2.85297 0
M  V30 5056 H 453.373 -5.76603 -3.58757 0
M  V30 5057 H 451.319 -4.1158 -5.10821 0
M  V30 5058 H 451.236 -5.82303 -4.82141 0
M  V30 5059 H 452.504 -5.18208 -5.82306 0
M  V30 5060 N 456.733 0.527833 -1.48498 0
M  V30 5061 C 458.01 1.28905 -1.47115 0
M  V30 5062 C 458.39 2.10297 -0.184007 0
M  V30 5063 O 457.738 2.12728 0.834218 0
M  V30 5064 C 457.948 2.16866 -2.73441 0
M  V30 5065 C 459.296 2.76936 -3.21857 0
M  V30 5066 O 460.32 2.27152 -2.74373 0
M  V30 5067 O 459.179 3.67496 -4.04486 0
M  V30 5068 H 456.273 0.581918 -0.587623 0
M  V30 5069 H 458.819 0.544311 -1.60734 0
M  V30 5070 H 457.591 1.56521 -3.58632 0
M  V30 5071 H 457.214 2.98583 -2.62553 0
M  V30 5072 N 458.211 1.37122 0.776871 0
M  V30 5073 C 459.174 1.32301 1.8716 0
M  V30 5074 C 460.174 0.228099 1.59174 0
M  V30 5075 O 461.364 0.483642 1.67352 0
M  V30 5076 C 458.496 1.054 3.24197 0
M  V30 5077 H 459.689 2.29673 1.92848 0
M  V30 5078 H 457.242 1.22077 0.97606 0
M  V30 5079 H 457.977 0.0853872 3.24188 0
M  V30 5080 H 457.762 1.84648 3.45901 0
M  V30 5081 H 459.252 1.04664 4.04271 0
M  V30 5082 N 459.689 -1.00246 1.21608 0
M  V30 5083 C 460.935 -1.74417 1.04643 0
M  V30 5084 C 461.29 -1.87862 -0.415387 0
M  V30 5085 O 460.583 -1.40373 -1.30407 0
M  V30 5086 C 460.777 -3.15448 1.68009 0
M  V30 5087 C 460.606 -3.15755 3.20201 0
M  V30 5088 C 459.376 -3.2219 3.89258 0
M  V30 5089 C 461.574 -3.00668 4.17257 0
M  V30 5090 N 459.556 -3.1215 5.28617 0
M  V30 5091 C 460.927 -2.98553 5.43384 0
M  V30 5092 C 462.982 -2.84989 4.08272 0
M  V30 5093 C 461.685 -2.82364 6.61561 0
M  V30 5094 C 463.711 -2.70158 5.26088 0
M  V30 5095 C 463.073 -2.68721 6.51128 0
M  V30 5096 H 459.172 -0.648317 0.437274 0
M  V30 5097 H 461.756 -1.19129 1.54001 0
M  V30 5098 H 459.927 -3.69001 1.21215 0
M  V30 5099 H 461.659 -3.78128 1.44226 0
M  V30 5100 H 458.414 -3.29488 3.40198 0
M  V30 5101 H 458.838 -3.10465 6.01615 0
M  V30 5102 H 463.48 -2.84904 3.12393 0
M  V30 5103 H 461.198 -2.81196 7.57598 0
M  V30 5104 H 464.784 -2.59022 5.20959 0
M  V30 5105 H 463.664 -2.57382 7.40759 0
M  V30 5106 N 461.167 -1.02423 -1.1978 0
M  V30 5107 C 462.444 -0.632802 -1.85081 0
M  V30 5108 C 462.824 0.888745 -1.9148 0
M  V30 5109 O 462.172 1.78357 -1.42832 0
M  V30 5110 C 462.382 -1.28947 -3.24305 0
M  V30 5111 C 463.73 -1.40976 -4.00513 0
M  V30 5112 O 464.754 -1.24628 -3.33686 0
M  V30 5113 O 463.613 -1.67467 -5.20209 0
M  V30 5114 H 460.707 -0.219348 -0.79738 0
M  V30 5115 H 463.253 -1.12209 -1.27307 0
M  V30 5116 H 462.025 -2.3288 -3.14456 0
M  V30 5117 H 461.648 -0.787748 -3.89718 0
M  V30 5118 N 462.645 1.35699 -0.801477 0
M  V30 5119 C 463.891 1.99208 -0.380022 0
M  V30 5120 C 464.224 1.63445 1.04878 0
M  V30 5121 O 463.499 0.895223 1.72673 0
M  V30 5122 C 463.782 3.55755 -0.557708 0
M  V30 5123 C 463.635 4.01332 -2.03107 0
M  V30 5124 C 464.954 4.40096 0.0197968 0
M  V30 5125 H 462.073 0.723667 -0.139552 0
M  V30 5126 H 464.715 1.60928 -1.01006 0
M  V30 5127 H 462.865 3.88494 -0.0213741 0
M  V30 5128 H 464.537 3.79026 -2.62939 0
M  V30 5129 H 462.78 3.52429 -2.52936 0
M  V30 5130 H 463.451 5.10234 -2.1063 0
M  V30 5131 H 465.927 4.13786 -0.438179 0
M  V30 5132 H 464.803 5.48735 -0.134477 0
M  V30 5133 H 465.064 4.2786 1.11303 0
M  V30 5134 N 464.123 0.554532 1.47522 0
M  V30 5135 C 465.07 -0.19466 2.29978 0
M  V30 5136 C 466.04 -0.910882 1.38896 0
M  V30 5137 O 467.225 -0.907102 1.67858 0
M  V30 5138 C 464.365 -1.22035 3.22802 0
M  V30 5139 C 463.478 -0.510474 4.28973 0
M  V30 5140 C 462.613 -1.52123 5.08952 0
M  V30 5141 C 461.652 -0.796173 6.069 0
M  V30 5142 N 460.789 -1.75363 6.79847 0
M  V30 5143 H 465.629 0.51461 2.93523 0
M  V30 5144 H 463.166 0.265607 1.44682 0
M  V30 5145 H 465.124 -1.8276 3.7504 0
M  V30 5146 H 463.754 -1.89769 2.61127 0
M  V30 5147 H 462.806 0.211234 3.79813 0
M  V30 5148 H 464.118 0.0576503 4.98767 0
M  V30 5149 H 463.272 -2.20207 5.65326 0
M  V30 5150 H 462.011 -2.12327 4.39054 0
M  V30 5151 H 461.016 -0.101388 5.49707 0
M  V30 5152 H 462.241 -0.199911 6.78806 0
M  V30 5153 H 460.187 -2.3443 6.12682 0
M  V30 5154 H 460.104 -1.23759 7.45801 0
M  V30 5155 H 461.372 -2.4257 7.40797 0
M  V30 5156 N 465.601 -1.54893 0.290851 0
M  V30 5157 C 466.534 -2.19289 -0.631489 0
M  V30 5158 C 467.512 -1.15893 -1.14051 0
M  V30 5159 O 468.696 -1.4449 -1.21058 0
M  V30 5160 C 465.823 -2.82866 -1.86291 0
M  V30 5161 C 464.869 -3.997 -1.48801 0
M  V30 5162 S 465.702 -5.32641 -0.552644 0
M  V30 5163 C 466.858 -5.99696 -1.79209 0
M  V30 5164 H 467.091 -2.9718 -0.0843791 0
M  V30 5165 H 464.624 -1.54218 0.075031 0
M  V30 5166 H 466.582 -3.20124 -2.56964 0
M  V30 5167 H 465.243 -2.04839 -2.38117 0
M  V30 5168 H 464.436 -4.42932 -2.40473 0
M  V30 5169 H 464.038 -3.63947 -0.861321 0
M  V30 5170 H 466.33 -6.19886 -2.734 0
M  V30 5171 H 467.273 -6.94071 -1.40251 0
M  V30 5172 H 467.681 -5.29226 -1.96419 0
M  V30 5173 N 467.08 -0.0183926 -1.57589 0
M  V30 5174 C 468.01 0.965596 -2.12599 0
M  V30 5175 C 468.991 1.34641 -1.0395 0
M  V30 5176 O 470.176 1.42693 -1.31729 0
M  V30 5177 C 467.306 2.25149 -2.64434 0
M  V30 5178 C 466.26 2.01175 -3.77773 0
M  V30 5179 C 465.586 3.35937 -4.15994 0
M  V30 5180 C 466.886 1.35953 -5.04296 0
M  V30 5181 H 468.58 0.507504 -2.95067 0
M  V30 5182 H 466.126 0.242671 -1.41941 0
M  V30 5183 H 468.079 2.94357 -3.01549 0
M  V30 5184 H 466.803 2.73105 -1.79112 0
M  V30 5185 H 465.462 1.34388 -3.4108 0
M  V30 5186 H 465.11 3.81631 -3.27669 0
M  V30 5187 H 464.81 3.20705 -4.92364 0
M  V30 5188 H 466.334 4.0643 -4.55683 0
M  V30 5189 H 467.748 1.95144 -5.39065 0
M  V30 5190 H 466.145 1.31152 -5.85593 0
M  V30 5191 H 467.215 0.331071 -4.83768 0
M  V30 5192 N 468.558 1.5553 0.254621 0
M  V30 5193 C 469.488 1.9268 1.31897 0
M  V30 5194 C 470.469 0.790797 1.506 0
M  V30 5195 O 471.654 1.05045 1.63337 0
M  V30 5196 C 468.784 2.21477 2.67517 0
M  V30 5197 C 467.738 3.37256 2.63519 0
M  V30 5198 C 467.064 3.51576 4.02862 0
M  V30 5199 C 468.364 4.73157 2.21179 0
M  V30 5200 H 470.058 2.81832 1.01051 0
M  V30 5201 H 467.604 1.35599 0.484662 0
M  V30 5202 H 469.557 2.46055 3.42104 0
M  V30 5203 H 468.281 1.29144 2.99982 0
M  V30 5204 H 466.94 3.12675 1.9139 0
M  V30 5205 H 466.588 2.56676 4.32581 0
M  V30 5206 H 466.288 4.2943 4.01078 0
M  V30 5207 H 467.812 3.78467 4.79161 0
M  V30 5208 H 469.226 4.97158 2.85494 0
M  V30 5209 H 467.623 5.54058 2.30521 0
M  V30 5210 H 468.693 4.70739 1.16332 0
M  V30 5211 N 470.036 -0.519951 1.48776 0
M  V30 5212 C 470.946 -1.65025 1.66745 0
M  V30 5213 C 471.962 -1.6508 0.549954 0
M  V30 5214 O 473.138 -1.83848 0.822295 0
M  V30 5215 C 470.203 -3.0146 1.71238 0
M  V30 5216 C 469.264 -3.12182 2.94688 0
M  V30 5217 C 468.497 -4.42109 2.98958 0
M  V30 5218 O 468.72 -5.29799 2.1135 0
M  V30 5219 O 467.654 -4.57406 3.91233 0
M  V30 5220 H 471.48 -1.52801 2.62461 0
M  V30 5221 H 469.065 -0.694157 1.32294 0
M  V30 5222 H 470.947 -3.82584 1.76657 0
M  V30 5223 H 469.622 -3.13988 0.786975 0
M  V30 5224 H 468.529 -2.30316 2.94797 0
M  V30 5225 H 469.862 -3.04574 3.86646 0
M  V30 5226 N 471.514 -1.37532 -0.769588 0
M  V30 5227 C 472.446 -1.29347 -1.89214 0
M  V30 5228 C 473.459 -0.208842 -1.61455 0
M  V30 5229 O 474.648 -0.465158 -1.72333 0
M  V30 5230 C 471.748 -0.977649 -3.24492 0
M  V30 5231 C 470.921 -2.16817 -3.7988 0
M  V30 5232 C 469.98 -1.82229 -4.93639 0
M  V30 5233 O 469.006 -2.54548 -5.09111 0
M  V30 5234 N 470.208 -0.767696 -5.75401 0
M  V30 5235 H 472.973 -2.26073 -1.96751 0
M  V30 5236 H 470.534 -1.31185 -0.948795 0
M  V30 5237 H 472.526 -0.727065 -3.98115 0
M  V30 5238 H 471.096 -0.0988777 -3.12444 0
M  V30 5239 H 470.316 -2.58038 -2.9801 0
M  V30 5240 H 471.604 -2.96308 -4.13617 0
M  V30 5241 H 471.002 -0.167626 -5.65452 0
M  V30 5242 H 469.559 -0.576973 -6.49241 0
M  V30 5243 N 472.992 0.995999 -1.22138 0
M  V30 5244 C 474.239 1.7351 -1.04406 0
M  V30 5245 C 474.567 1.89884 0.421244 0
M  V30 5246 O 473.822 1.43683 1.32867 0
M  V30 5247 C 474.121 3.14553 -1.6968 0
M  V30 5248 C 473.787 3.18102 -3.19565 0
M  V30 5249 C 472.449 3.18778 -3.60464 0
M  V30 5250 C 474.801 3.14636 -4.15516 0
M  V30 5251 C 472.129 3.13684 -4.95801 0
M  V30 5252 C 474.481 3.11084 -5.50826 0
M  V30 5253 C 473.145 3.10074 -5.91109 0
M  V30 5254 H 472.415 0.634916 -0.38205 0
M  V30 5255 H 475.062 1.1667 -1.51857 0
M  V30 5256 H 473.367 3.74682 -1.14546 0
M  V30 5257 H 475.064 3.70477 -1.53454 0
M  V30 5258 H 471.654 3.18324 -2.86998 0
M  V30 5259 H 475.838 3.13266 -3.84939 0
M  V30 5260 H 471.094 3.11245 -5.26247 0
M  V30 5261 H 475.268 3.07357 -6.24904 0
M  V30 5262 H 472.895 3.05882 -6.95946 0
M  V30 5263 N 474.47 1.03057 1.19235 0
M  V30 5264 C 475.695 0.74757 1.93458 0
M  V30 5265 C 476.12 -0.687648 1.7508 0
M  V30 5266 O 475.478 -1.47499 1.05422 0
M  V30 5267 C 475.526 1.10604 3.43219 0
M  V30 5268 O 474.63 0.225671 4.11782 0
M  V30 5269 H 473.971 0.276047 0.603899 0
M  V30 5270 H 476.501 1.3777 1.51263 0
M  V30 5271 H 476.511 1.06366 3.93891 0
M  V30 5272 H 475.186 2.15165 3.55917 0
M  V30 5273 H 473.763 0.326795 3.71465 0
M  V30 5274 N 475.948 -1.35272 0.808662 0
M  V30 5275 C 477.195 -1.98709 0.390003 0
M  V30 5276 C 477.523 -1.64148 -1.04335 0
M  V30 5277 O 476.778 -0.897797 -1.73891 0
M  V30 5278 C 477.077 -3.53556 0.522798 0
M  V30 5279 C 476.743 -4.0799 1.91977 0
M  V30 5280 C 475.405 -4.22568 2.30195 0
M  V30 5281 C 477.757 -4.37442 2.83361 0
M  V30 5282 C 475.085 -4.63918 3.59162 0
M  V30 5283 C 477.437 -4.80232 4.11776 0
M  V30 5284 C 476.101 -4.93016 4.49991 0
M  V30 5285 H 475.371 -0.727127 0.142712 0
M  V30 5286 H 478.018 -1.6145 1.02985 0
M  V30 5287 H 476.323 -3.91287 -0.200494 0
M  V30 5288 H 478.02 -4.00598 0.179608 0
M  V30 5289 H 474.61 -3.97096 1.61284 0
M  V30 5290 H 478.794 -4.25731 2.55083 0
M  V30 5291 H 474.05 -4.72005 3.88615 0
M  V30 5292 H 478.224 -5.01982 4.82687 0
M  V30 5293 H 475.851 -5.24814 5.49976 0
M  V30 5294 N 477.426 -0.562348 -1.47226 0
M  V30 5295 C 478.703 0.0256985 -1.95583 0
M  V30 5296 C 479.083 1.48032 -1.50498 0
M  V30 5297 O 478.431 2.15973 -0.746181 0
M  V30 5298 C 478.641 -0.125129 -3.48776 0
M  V30 5299 C 479.989 0.0175728 -4.24596 0
M  V30 5300 O 481.013 -0.0529341 -3.56161 0
M  V30 5301 O 479.872 0.170145 -5.46235 0
M  V30 5302 H 476.966 0.0612565 -0.824728 0
M  V30 5303 H 479.512 -0.629233 -1.57603 0
M  V30 5304 H 478.284 -1.13715 -3.74412 0
M  V30 5305 H 477.907 0.567178 -3.93534 0
M  V30 5306 N 478.904 1.54736 -0.299062 0
M  V30 5307 C 480.153 1.99279 0.311549 0
M  V30 5308 C 480.466 1.19107 1.55154 0
M  V30 5309 O 481.672 1.53908 2.23662 0
M  V30 5310 C 480.128 3.54768 0.605632 0
M  V30 5311 C 479.736 4.43746 -0.615914 0
M  V30 5312 C 481.48 4.07841 1.17754 0
M  V30 5313 C 479.387 5.90663 -0.29509 0
M  V30 5314 H 478.317 0.744359 0.120187 0
M  V30 5315 H 480.968 1.78919 -0.407464 0
M  V30 5316 H 479.35 3.71021 1.38419 0
M  V30 5317 H 480.524 4.39267 -1.39218 0
M  V30 5318 H 478.839 4.01434 -1.10633 0
M  V30 5319 H 481.436 5.15174 1.43179 0
M  V30 5320 H 481.779 3.58324 2.11918 0
M  V30 5321 H 482.312 3.95123 0.460739 0
M  V30 5322 H 479.051 6.44325 -1.20524 0
M  V30 5323 H 478.571 5.98155 0.44394 0
M  V30 5324 H 480.25 6.46916 0.104048 0
M  V30 5325 N 480.382 0.0267497 1.57577 0
M  V30 5326 C 481.345 -0.940916 2.08996 0
M  V30 5327 C 482.345 -1.25561 1.00455 0
M  V30 5328 O 483.535 -1.19634 1.26623 0
M  V30 5329 C 480.667 -2.25814 2.55384 0
M  V30 5330 H 481.86 -0.495628 2.95776 0
M  V30 5331 H 479.413 -0.221241 1.54726 0
M  V30 5332 H 480.148 -2.74976 1.71926 0
M  V30 5333 H 479.933 -2.04285 3.34679 0
M  V30 5334 H 481.423 -2.95178 2.95398 0
M  V30 5335 N 481.861 -1.55662 -0.24637 0
M  V30 5336 C 482.771 -1.93495 -1.32653 0
M  V30 5337 C 483.787 -0.835462 -1.5263 0
M  V30 5338 O 484.963 -1.1369 -1.66242 0
M  V30 5339 C 482.028 -2.22242 -2.66101 0
M  V30 5340 C 481.089 -3.45625 -2.54641 0
M  V30 5341 C 480.322 -3.72991 -3.81724 0
M  V30 5342 O 480.545 -3.02421 -4.8363 0
M  V30 5343 O 479.479 -4.66515 -3.80325 0
M  V30 5344 H 483.305 -2.85498 -1.03559 0
M  V30 5345 H 480.89 -1.42551 -0.44717 0
M  V30 5346 H 482.772 -2.42037 -3.44958 0
M  V30 5347 H 481.447 -1.33417 -2.94926 0
M  V30 5348 H 480.354 -3.31136 -1.74067 0
M  V30 5349 H 481.687 -4.34754 -2.3076 0
M  V30 5350 N 483.339 0.512053 -1.4905 0
M  V30 5351 C 484.249 1.64139 -1.67617 0
M  V30 5352 C 485.265 1.64786 -0.558701 0
M  V30 5353 O 486.441 1.8341 -0.832034 0
M  V30 5354 C 483.506 3.00548 -1.72835 0
M  V30 5355 C 482.567 3.10615 -2.96339 0
M  V30 5356 C 481.8 4.40517 -3.01298 0
M  V30 5357 O 482.023 5.28671 -2.14157 0
M  V30 5358 O 480.957 4.55325 -3.93653 0
M  V30 5359 H 484.783 1.51407 -2.63267 0
M  V30 5360 H 482.368 0.687131 -1.32661 0
M  V30 5361 H 484.25 3.81641 -1.78683 0
M  V30 5362 H 482.925 3.13566 -0.803616 0
M  V30 5363 H 481.832 2.2875 -2.96014 0
M  V30 5364 H 483.165 3.0252 -3.88256 0
M  V30 5365 N 484.817 1.37938 0.762283 0
M  V30 5366 C 485.78 1.34279 1.85747 0
M  V30 5367 C 486.78 0.244969 1.58923 0
M  V30 5368 O 487.97 0.501365 1.66829 0
M  V30 5369 C 485.102 1.08833 3.23061 0
M  V30 5370 H 486.295 2.31705 1.90401 0
M  V30 5371 H 483.848 1.23105 0.963057 0
M  V30 5372 H 484.583 0.119767 3.24079 0
M  V30 5373 H 484.368 1.88306 3.43923 0
M  V30 5374 H 485.858 1.08946 4.03138 0
M  V30 5375 N 486.295 -0.989507 1.22664 0
M  V30 5376 C 487.52 -1.77031 1.08051 0
M  V30 5377 C 487.945 -1.84535 -0.364483 0
M  V30 5378 O 487.303 -1.3003 -1.2634 0
M  V30 5379 C 487.351 -3.18 1.70024 0
M  V30 5380 O 486.455 -4.01161 0.956216 0
M  V30 5381 H 485.796 -0.545008 0.379292 0
M  V30 5382 H 488.326 -1.24277 1.62531 0
M  V30 5383 H 488.336 -3.68616 1.74888 0
M  V30 5384 H 487.011 -3.11853 2.75174 0
M  V30 5385 H 485.588 -3.59687 0.98384 0
M  V30 5386 N 487.773 -1.03688 -1.18687 0
M  V30 5387 C 488.72 -0.624624 -2.22187 0
M  V30 5388 C 489.69 0.365636 -1.62026 0
M  V30 5389 O 490.875 0.260481 -1.89014 0
M  V30 5390 C 488.015 0.0101738 -3.45099 0
M  V30 5391 C 487.128 -1.02709 -4.19613 0
M  V30 5392 C 486.263 -0.361213 -5.2997 0
M  V30 5393 C 485.302 -1.38384 -5.96252 0
M  V30 5394 N 484.439 -0.743196 -6.98155 0
M  V30 5395 H 489.279 -1.51176 -2.56807 0
M  V30 5396 H 486.816 -0.75636 -1.26165 0
M  V30 5397 H 488.774 0.395528 -4.15321 0
M  V30 5398 H 487.404 0.860848 -3.1111 0
M  V30 5399 H 486.456 -1.53043 -3.48256 0
M  V30 5400 H 487.768 -1.80398 -4.65036 0
M  V30 5401 H 486.922 0.0785537 -6.06649 0
M  V30 5402 H 485.661 0.447799 -4.8564 0
M  V30 5403 H 484.666 -1.83378 -5.18317 0
M  V30 5404 H 485.891 -2.19448 -6.42666 0
M  V30 5405 H 483.837 0.0455789 -6.55984 0
M  V30 5406 H 483.754 -1.45784 -7.41811 0
M  V30 5407 H 485.022 -0.327698 -7.78811 0
M  V30 5408 N 489.251 1.34841 -0.815825 0
M  V30 5409 C 490.497 1.98793 -0.401129 0
M  V30 5410 C 490.83 1.64548 1.03139 0
M  V30 5411 O 490.105 0.913487 1.71714 0
M  V30 5412 C 490.388 3.55143 -0.595409 0
M  V30 5413 C 490.241 3.99155 -2.07352 0
M  V30 5414 C 491.56 4.40092 -0.0268823 0
M  V30 5415 H 488.679 0.722146 -0.14722 0
M  V30 5416 H 491.321 1.59847 -1.02707 0
M  V30 5417 H 489.471 3.8845 -0.0625779 0
M  V30 5418 H 491.143 3.76216 -2.66945 0
M  V30 5419 H 489.386 3.49726 -2.56659 0
M  V30 5420 H 490.057 5.07971 -2.1603 0
M  V30 5421 H 492.533 4.13298 -0.482042 0
M  V30 5422 H 491.409 5.48562 -0.19267 0
M  V30 5423 H 491.67 4.29016 1.06759 0
M  V30 5424 N 490.729 0.570148 1.46925 0
M  V30 5425 C 491.969 0.0534743 2.0433 0
M  V30 5426 C 492.333 -1.27729 1.4335 0
M  V30 5427 O 493.534 -1.88244 1.91879 0
M  V30 5428 C 491.805 -0.0244296 3.57392 0
M  V30 5429 S 493.364 -0.485351 4.36108 0
M  V30 5430 H 490.182 0.0313908 0.710307 0
M  V30 5431 H 492.784 0.759808 1.80131 0
M  V30 5432 H 491.488 0.948261 3.99295 0
M  V30 5433 H 491.019 -0.753922 3.86108 0
M  V30 5434 H 493.034 -1.74258 4.64595 0
M  V30 5435 N 492.207 -1.54576 0.307264 0
M  V30 5436 C 493.137 -2.26708 -0.55907 0
M  V30 5437 C 494.118 -1.26893 -1.1328 0
M  V30 5438 O 495.303 -1.55677 -1.16097 0
M  V30 5439 C 492.433 -3.01259 -1.72801 0
M  V30 5440 C 491.387 -4.08275 -1.28435 0
M  V30 5441 C 490.713 -4.70575 -2.53895 0
M  V30 5442 C 492.013 -5.2068 -0.411038 0
M  V30 5443 H 493.707 -2.9937 0.042576 0
M  V30 5444 H 491.253 -1.43983 0.0219173 0
M  V30 5445 H 493.206 -3.50444 -2.34023 0
M  V30 5446 H 491.93 -2.26187 -2.356 0
M  V30 5447 H 490.589 -3.59949 -0.695161 0
M  V30 5448 H 490.237 -3.92136 -3.15021 0
M  V30 5449 H 489.937 -5.42854 -2.24908 0
M  V30 5450 H 491.461 -5.22527 -3.15908 0
M  V30 5451 H 492.875 -5.65721 -0.929097 0
M  V30 5452 H 491.272 -5.99716 -0.214664 0
M  V30 5453 H 492.342 -4.81629 0.562287 0
M  V30 5454 N 493.685 -0.035106 -1.57561 0
M  V30 5455 C 494.648 0.929819 -2.09492 0
M  V30 5456 C 495.648 1.25026 -1.01119 0
M  V30 5457 O 496.838 1.18961 -1.27255 0
M  V30 5458 C 493.97 2.24457 -2.56577 0
M  V30 5459 H 495.163 0.479935 -2.96035 0
M  V30 5460 H 492.716 0.213033 -1.54841 0
M  V30 5461 H 493.451 2.74061 -1.73382 0
M  V30 5462 H 493.236 2.02508 -3.35757 0
M  V30 5463 H 494.726 2.93607 -2.96959 0
M  V30 5464 N 495.163 1.55791 0.238111 0
M  V30 5465 C 496.113 1.87444 1.29803 0
M  V30 5466 C 497.097 0.736043 1.43078 0
M  V30 5467 O 498.289 0.998146 1.46171 0
M  V30 5468 C 495.418 2.18028 2.65177 0
M  V30 5469 C 494.504 3.38217 2.55871 0
M  V30 5470 N 494.895 4.57264 2.16202 0
M  V30 5471 C 493.193 3.41502 2.86866 0
M  V30 5472 C 493.894 5.3941 2.17744 0
M  V30 5473 N 492.87 4.78695 2.57589 0
M  V30 5474 H 496.672 2.7701 0.981965 0
M  V30 5475 H 494.186 1.56135 0.44672 0
M  V30 5476 H 496.183 2.38873 3.4168 0
M  V30 5477 H 494.843 1.29765 2.97643 0
M  V30 5478 H 495.854 4.82727 1.87602 0
M  V30 5479 H 492.531 2.63536 3.23813 0
M  V30 5480 H 493.921 6.44671 1.89339 0
M  V30 5481 N 496.642 -0.504142 1.49319 0
M  V30 5482 C 497.572 -1.61473 1.68667 0
M  V30 5483 C 498.553 -1.61455 0.535378 0
M  V30 5484 O 499.738 -1.78245 0.770868 0
M  V30 5485 C 496.868 -2.99971 1.75028 0
M  V30 5486 C 495.822 -3.14854 2.89916 0
M  V30 5487 C 495.148 -4.54671 2.81387 0
M  V30 5488 C 496.448 -2.95176 4.30893 0
M  V30 5489 H 498.142 -1.45535 2.61648 0
M  V30 5490 H 495.688 -0.698711 1.25913 0
M  V30 5491 H 497.641 -3.77562 1.8715 0
M  V30 5492 H 496.365 -3.1699 0.786441 0
M  V30 5493 H 495.024 -2.39687 2.77391 0
M  V30 5494 H 494.672 -4.68562 1.82917 0
M  V30 5495 H 494.372 -4.6557 3.58494 0
M  V30 5496 H 495.896 -5.34327 2.95512 0
M  V30 5497 H 497.31 -3.62538 4.44116 0
M  V30 5498 H 495.707 -3.17549 5.09198 0
M  V30 5499 H 496.777 -1.91332 4.45556 0
M  V30 5500 N 498.12 -1.38341 -0.754957 0
M  V30 5501 C 499.367 -1.34473 -1.51404 0
M  V30 5502 C 499.695 0.0656458 -1.94389 0
M  V30 5503 O 498.95 1.04244 -1.65625 0
M  V30 5504 C 499.249 -2.2452 -2.78075 0
M  V30 5505 C 498.915 -3.72512 -2.54059 0
M  V30 5506 C 497.577 -4.1284 -2.47218 0
M  V30 5507 C 499.929 -4.66197 -2.33044 0
M  V30 5508 C 497.257 -5.44945 -2.17376 0
M  V30 5509 C 499.609 -5.98558 -2.04723 0
M  V30 5510 C 498.273 -6.37972 -1.96337 0
M  V30 5511 H 497.543 -0.492072 -0.554027 0
M  V30 5512 H 500.19 -1.70687 -0.868223 0
M  V30 5513 H 498.495 -1.81357 -3.473 0
M  V30 5514 H 500.192 -2.18832 -3.36026 0
M  V30 5515 H 496.782 -3.40538 -2.60253 0
M  V30 5516 H 500.966 -4.35888 -2.37309 0
M  V30 5517 H 496.222 -5.74426 -2.09391 0
M  V30 5518 H 500.396 -6.70693 -1.87465 0
M  V30 5519 H 498.023 -7.40258 -1.72978 0
M  V30 5520 N 499.598 0.982988 -1.23187 0
M  V30 5521 C 500.826 1.75921 -1.08901 0
M  V30 5522 C 501.241 1.85341 0.359719 0
M  V30 5523 O 500.598 1.33072 1.24892 0
M  V30 5524 C 500.649 3.18742 -1.70545 0
M  V30 5525 O 500.37 3.09814 -3.09753 0
M  V30 5526 C 501.871 4.1277 -1.61667 0
M  V30 5527 H 499.091 0.552166 -0.381252 0
M  V30 5528 H 501.635 1.23516 -1.62985 0
M  V30 5529 H 499.79 3.68182 -1.20501 0
M  V30 5530 H 500.204 3.99703 -3.39614 0
M  V30 5531 H 501.678 5.10697 -2.09506 0
M  V30 5532 H 502.155 4.3542 -0.575009 0
M  V30 5533 H 502.761 3.69232 -2.11064 0
M  V30 5534 N 501.076 1.04316 1.18135 0
M  V30 5535 C 502.306 0.767003 1.91835 0
M  V30 5536 C 502.714 -0.68002 1.76557 0
M  V30 5537 O 502.057 -1.47548 1.09432 0
M  V30 5538 C 502.119 1.05674 3.43618 0
M  V30 5539 C 501.783 2.49818 3.82675 0
M  V30 5540 C 502.78 3.48003 3.86251 0
M  V30 5541 C 500.465 2.84596 4.13897 0
M  V30 5542 C 502.459 4.79016 4.20503 0
M  V30 5543 C 500.146 4.15813 4.4782 0
M  V30 5544 C 501.144 5.12834 4.51099 0
M  V30 5545 O 500.832 6.41699 4.84229 0
M  V30 5546 H 500.564 0.278948 0.615763 0
M  V30 5547 H 503.118 1.3946 1.50798 0
M  V30 5548 H 501.348 0.372029 3.84906 0
M  V30 5549 H 503.037 0.767994 3.98568 0
M  V30 5550 H 503.803 3.22475 3.62264 0
M  V30 5551 H 499.682 2.09748 4.1052 0
M  V30 5552 H 503.226 5.54739 4.22978 0
M  V30 5553 H 499.123 4.41109 4.71268 0
M  V30 5554 H 499.891 6.46387 5.02121 0
M  V30 5555 N 502.554 -1.34406 0.822964 0
M  V30 5556 C 503.486 -2.28305 0.202375 0
M  V30 5557 C 504.499 -1.5103 -0.60777 0
M  V30 5558 O 505.688 -1.73057 -0.437444 0
M  V30 5559 C 502.788 -3.30836 -0.734911 0
M  V30 5560 C 501.961 -4.37388 0.0324177 0
M  V30 5561 C 501.02 -5.1968 -0.825803 0
M  V30 5562 O 500.046 -5.68556 -0.270771 0
M  V30 5563 N 501.248 -5.39393 -2.14558 0
M  V30 5564 H 504.013 -2.82201 1.00909 0
M  V30 5565 H 501.574 -1.4693 0.67993 0
M  V30 5566 H 503.566 -3.82786 -1.31365 0
M  V30 5567 H 502.136 -2.77334 -1.44238 0
M  V30 5568 H 501.356 -3.86152 0.792469 0
M  V30 5569 H 502.644 -5.05702 0.560633 0
M  V30 5570 H 502.042 -5.01357 -2.62025 0
M  V30 5571 H 500.599 -5.94461 -2.67318 0
M  V30 5572 N 504.032 -0.577932 -1.46621 0
M  V30 5573 C 505.309 0.00495287 -1.95599 0
M  V30 5574 C 505.689 1.46428 -1.5206 0
M  V30 5575 O 505.037 2.1517 -0.769046 0
M  V30 5576 C 505.247 -0.162114 -3.48623 0
M  V30 5577 C 506.595 -0.0274623 -4.24591 0
M  V30 5578 O 507.619 -0.0907067 -3.56084 0
M  V30 5579 O 506.478 0.1122 -5.46385 0
M  V30 5580 H 503.572 0.0525057 -0.825332 0
M  V30 5581 H 506.118 -0.645914 -1.56927 0
M  V30 5582 H 504.89 -1.17679 -3.73185 0
M  V30 5583 H 504.513 0.525407 -3.94113 0
M  V30 5584 N 505.51 1.54411 -0.315457 0
M  V30 5585 C 506.757 2.00419 0.289543 0
M  V30 5586 C 507.085 1.20373 1.52776 0
M  V30 5587 O 506.34 0.271769 1.93804 0
M  V30 5588 C 506.639 3.50936 0.676652 0
M  V30 5589 C 506.305 4.48532 -0.461472 0
M  V30 5590 C 504.967 4.74936 -0.773879 0
M  V30 5591 C 507.319 5.06567 -1.22637 0
M  V30 5592 C 504.647 5.56634 -1.85405 0
M  V30 5593 C 506.999 5.89441 -2.29657 0
M  V30 5594 C 505.663 6.1415 -2.61488 0
M  V30 5595 H 504.933 0.733386 0.105951 0
M  V30 5596 H 507.58 1.86434 -0.437554 0
M  V30 5597 H 505.885 3.62606 1.48405 0
M  V30 5598 H 507.582 3.83971 1.15618 0
M  V30 5599 H 504.172 4.28096 -0.207893 0
M  V30 5600 H 508.356 4.86157 -0.998271 0
M  V30 5601 H 503.612 5.74012 -2.10523 0
M  V30 5602 H 507.786 6.33432 -2.89374 0
M  V30 5603 H 505.413 6.77245 -3.45317 0
M  V30 5604 N 506.988 0.0434614 1.5754 0
M  V30 5605 C 508.265 -0.671479 1.83713 0
M  V30 5606 C 508.645 -1.89495 0.930315 0
M  V30 5607 O 507.993 -2.28498 -0.0105639 0
M  V30 5608 C 508.203 -1.0361 3.33266 0
M  V30 5609 C 509.551 -1.42167 4.00092 0
M  V30 5610 O 510.575 -1.12866 3.37846 0
M  V30 5611 O 509.434 -1.96817 5.09829 0
M  V30 5612 H 506.528 -0.330726 0.75799 0
M  V30 5613 H 509.074 0.0722373 1.69546 0
M  V30 5614 H 507.846 -0.165938 3.90948 0
M  V30 5615 H 507.469 -1.83751 3.52592 0
M  V30 5616 N 508.466 -1.55915 -0.229846 0
M  V30 5617 C 509.399 -1.86734 -1.3117 0
M  V30 5618 C 510.377 -0.723947 -1.45595 0
M  V30 5619 O 511.561 -0.971462 -1.61539 0
M  V30 5620 C 508.688 -2.06707 -2.68309 0
M  V30 5621 C 507.734 -3.2938 -2.70944 0
M  V30 5622 S 508.567 -4.85547 -2.25842 0
M  V30 5623 C 509.723 -5.08546 -3.64873 0
M  V30 5624 H 509.956 -2.78204 -1.04832 0
M  V30 5625 H 507.489 -1.48243 -0.431681 0
M  V30 5626 H 509.447 -2.18898 -3.47267 0
M  V30 5627 H 508.108 -1.16049 -2.91876 0
M  V30 5628 H 507.301 -3.40374 -3.71701 0
M  V30 5629 H 506.903 -3.16004 -2.00044 0
M  V30 5630 H 509.195 -4.96935 -4.60502 0
M  V30 5631 H 510.138 -6.10465 -3.58801 0
M  V30 5632 H 510.546 -4.36314 -3.58176 0
M  V30 5633 N 509.944 0.496216 -1.49584 0
M  V30 5634 C 511.192 1.24756 -1.58998 0
M  V30 5635 C 511.513 1.92968 -0.280775 0
M  V30 5636 O 510.783 1.82959 0.700198 0
M  V30 5637 H 509.363 0.463471 -0.585836 0
M  V30 5638 H 512.025 0.574678 -1.86235 0
M  V30 5639 H 511.121 2.00895 -2.38847 0
M  V30 5640 N 511.423 1.38739 0.74761 0
M  V30 5641 C 512.651 1.38521 1.53686 0
M  V30 5642 C 513.066 -0.0235129 1.88785 0
M  V30 5643 O 512.423 -0.991662 1.53207 0
M  V30 5644 C 512.474 2.24641 2.83229 0
M  V30 5645 O 512.195 3.60026 2.49625 0
M  V30 5646 C 513.696 2.32669 3.77333 0
M  V30 5647 H 510.916 0.473589 0.475347 0
M  V30 5648 H 513.46 1.82395 0.924786 0
M  V30 5649 H 511.615 1.84213 3.40799 0
M  V30 5650 H 512.029 4.05435 3.3275 0
M  V30 5651 H 513.503 2.97201 4.65162 0
M  V30 5652 H 513.98 1.3421 4.18192 0
M  V30 5653 H 514.586 2.73512 3.25685 0
M  V30 5654 N 512.901 -0.976442 1.23707 0
M  V30 5655 C 513.831 -2.08749 1.04624 0
M  V30 5656 C 514.812 -1.70057 -0.0380956 0
M  V30 5657 O 515.997 -1.93782 0.127308 0
M  V30 5658 C 513.127 -3.41335 0.640902 0
M  V30 5659 C 512.081 -3.93947 1.67302 0
M  V30 5660 C 511.407 -5.22774 1.12301 0
M  V30 5661 C 512.707 -4.22769 3.06697 0
M  V30 5662 H 514.401 -2.24972 1.97555 0
M  V30 5663 H 511.947 -1.08108 0.951247 0
M  V30 5664 H 513.9 -4.18489 0.494434 0
M  V30 5665 H 512.624 -3.24988 -0.324099 0
M  V30 5666 H 511.283 -3.18941 1.80755 0
M  V30 5667 H 510.931 -5.0278 0.148877 0
M  V30 5668 H 510.631 -5.58942 1.81267 0
M  V30 5669 H 512.155 -6.02546 0.988479 0
M  V30 5670 H 513.569 -4.90659 2.96524 0
M  V30 5671 H 511.966 -4.70147 3.72937 0
M  V30 5672 H 513.036 -3.29885 3.55392 0
M  V30 5673 N 514.379 -1.04941 -1.1758 0
M  V30 5674 C 515.627 -0.756492 -1.87408 0
M  V30 5675 C 515.948 0.718478 -1.81281 0
M  V30 5676 O 515.218 1.519 -1.23706 0
M  V30 5677 H 513.798 -0.276841 -0.693807 0
M  V30 5678 H 516.46 -1.32803 -1.42652 0
M  V30 5679 H 515.556 -1.06918 -2.93215 0
M  V30 5680 N 515.857 1.33968 -0.830081 0
M  V30 5681 C 516.787 2.31911 -0.271911 0
M  V30 5682 C 517.768 1.58571 0.61556 0
M  V30 5683 O 518.953 1.86514 0.540946 0
M  V30 5684 C 516.083 3.42737 0.561146 0
M  V30 5685 C 515.037 4.27383 -0.229789 0
M  V30 5686 C 514.363 5.29742 0.726463 0
M  V30 5687 C 515.663 5.02 -1.44197 0
M  V30 5688 H 517.357 2.78844 -1.09025 0
M  V30 5689 H 514.903 1.34061 -0.52571 0
M  V30 5690 H 516.856 4.10276 0.961867 0
M  V30 5691 H 515.58 2.94471 1.41261 0
M  V30 5692 H 514.239 3.61456 -0.611964 0
M  V30 5693 H 513.887 4.77736 1.57408 0
M  V30 5694 H 513.587 5.87255 0.20142 0
M  V30 5695 H 515.111 6.00149 1.12489 0
M  V30 5696 H 516.525 5.62355 -1.11488 0
M  V30 5697 H 514.922 5.69122 -1.90317 0
M  V30 5698 H 515.992 4.31281 -2.2164 0
M  V30 5699 N 517.335 0.585699 1.46312 0
M  V30 5700 C 518.298 -0.135673 2.28798 0
M  V30 5701 C 519.298 -0.815988 1.38558 0
M  V30 5702 O 520.488 -0.667487 1.60904 0
M  V30 5703 C 517.62 -1.20163 3.1902 0
M  V30 5704 H 518.813 0.589257 2.94054 0
M  V30 5705 H 516.366 0.343794 1.52472 0
M  V30 5706 H 517.101 -1.95804 2.58517 0
M  V30 5707 H 516.886 -0.718282 3.85465 0
M  V30 5708 H 518.376 -1.70749 3.81096 0
M  V30 5709 N 518.813 -1.54241 0.323641 0
M  V30 5710 C 520.043 -2.04687 -0.280464 0
M  V30 5711 C 520.451 -1.19939 -1.46326 0
M  V30 5712 O 519.794 -0.222872 -1.82343 0
M  V30 5713 C 519.856 -3.50978 -0.778123 0
M  V30 5714 C 519.52 -4.56127 0.282371 0
M  V30 5715 C 520.517 -5.07726 1.11847 0
M  V30 5716 C 518.202 -5.00451 0.430582 0
M  V30 5717 C 520.196 -6.02212 2.08851 0
M  V30 5718 C 517.883 -5.94752 1.40404 0
M  V30 5719 C 518.881 -6.45519 2.23147 0
M  V30 5720 O 518.569 -7.37968 3.1884 0
M  V30 5721 H 518.301 -0.673192 -0.0615473 0
M  V30 5722 H 520.855 -1.99999 0.467921 0
M  V30 5723 H 519.085 -3.53064 -1.57742 0
M  V30 5724 H 520.774 -3.84499 -1.30058 0
M  V30 5725 H 521.54 -4.74261 1.01496 0
M  V30 5726 H 517.419 -4.6055 -0.203569 0
M  V30 5727 H 520.963 -6.41761 2.73474 0
M  V30 5728 H 516.86 -6.27633 1.5082 0
M  V30 5729 H 517.628 -7.55841 3.14079 0
M  V30 5730 N 520.291 -0.0518155 -1.57515 0
M  V30 5731 C 521.537 0.622745 -1.93002 0
M  V30 5732 C 521.87 1.70456 -0.930499 0
M  V30 5733 O 521.145 1.94452 0.0434086 0
M  V30 5734 C 521.428 1.21824 -3.38867 0
M  V30 5735 C 521.281 0.144434 -4.49568 0
M  V30 5736 C 522.6 2.12968 -3.8514 0
M  V30 5737 H 519.719 0.22491 -0.701844 0
M  V30 5738 H 522.361 -0.113711 -1.89659 0
M  V30 5739 H 520.511 1.8459 -3.41846 0
M  V30 5740 H 522.183 -0.48753 -4.58717 0
M  V30 5741 H 520.426 -0.527424 -4.30582 0
M  V30 5742 H 521.097 0.601127 -5.48717 0
M  V30 5743 H 523.573 1.60163 -3.8404 0
M  V30 5744 H 522.449 2.51578 -4.87852 0
M  V30 5745 H 522.71 3.03004 -3.21934 0
M  V30 5746 N 521.769 1.56035 0.221574 0
M  V30 5747 C 523.017 1.78693 0.944102 0
M  V30 5748 C 523.338 0.620317 1.8487 0
M  V30 5749 O 522.608 -0.362784 1.92512 0
M  V30 5750 H 521.188 0.659082 0.351597 0
M  V30 5751 H 523.85 1.93497 0.233435 0
M  V30 5752 H 522.946 2.70837 1.55093 0
M  V30 5753 N 523.247 -0.488276 1.49845 0
M  V30 5754 C 524.472 -1.26997 1.63971 0
M  V30 5755 C 524.897 -1.85427 0.315994 0
M  V30 5756 O 524.255 -1.66475 -0.718032 0
M  V30 5757 C 524.303 -2.36689 2.72049 0
M  V30 5758 O 523.407 -3.40882 2.32107 0
M  V30 5759 H 522.748 -0.374376 0.548396 0
M  V30 5760 H 525.278 -0.583104 1.96115 0
M  V30 5761 H 525.288 -2.82262 2.94605 0
M  V30 5762 H 523.963 -1.93529 3.68129 0
M  V30 5763 H 522.54 -3.01139 2.19931 0
M  V30 5764 N 524.725 -1.39134 -0.740242 0
M  V30 5765 C 526.136 -1.32208 -1.31825 0
M  V30 5766 C 526.487 0.0159919 -1.96193 0
M  V30 5767 O 525.612 0.918111 -1.95958 0
M  V30 5768 C 526.207 -2.39436 -2.39699 0
M  V30 5769 C 524.766 -2.36048 -2.93187 0
M  V30 5770 C 523.913 -2.21599 -1.66701 0
M  V30 5771 H 526.864 -1.49298 -0.538133 0
M  V30 5772 H 526.885 -2.05922 -3.19963 0
M  V30 5773 H 526.397 -3.36811 -1.92821 0
M  V30 5774 H 524.498 -1.42295 -3.44359 0
M  V30 5775 H 524.611 -3.30704 -3.46658 0
M  V30 5776 H 522.975 -1.68681 -1.90837 0
M  V30 5777 H 523.758 -3.20936 -1.21882 0
M  V30 5778 N 526.204 0.969867 -1.24223 0
M  V30 5779 C 527.62 1.23809 -1.00716 0
M  V30 5780 C 527.82 1.99469 0.285358 0
M  V30 5781 O 526.876 2.31764 1.00207 0
M  V30 5782 C 528.189 2.02734 -2.2208 0
M  V30 5783 C 529.737 2.15834 -2.26681 0
M  V30 5784 C 530.212 2.98154 -3.47661 0
M  V30 5785 N 531.703 3.05737 -3.47964 0
M  V30 5786 C 532.438 3.69785 -4.38231 0
M  V30 5787 N 531.934 4.35569 -5.3875 0
M  V30 5788 N 533.727 3.66775 -4.25949 0
M  V30 5789 H 525.878 0.463294 -2.07286 0
M  V30 5790 H 528.141 0.267348 -0.909521 0
M  V30 5791 H 527.847 1.54524 -3.15935 0
M  V30 5792 H 527.721 3.0347 -2.24021 0
M  V30 5793 H 530.108 2.63248 -1.33359 0
M  V30 5794 H 530.189 1.14453 -2.28767 0
M  V30 5795 H 529.833 2.51435 -4.41297 0
M  V30 5796 H 529.763 3.99729 -3.42818 0
M  V30 5797 H 532.254 2.58941 -2.75242 0
M  V30 5798 H 532.567 4.82251 -6.03866 0
M  V30 5799 H 530.912 4.34244 -5.42639 0
M  V30 5800 H 534.103 3.14558 -3.46657 0
M  V30 5801 H 534.276 4.16407 -4.96497 0
M  V30 5802 N 527.682 1.05563 1.17022 0
M  V30 5803 C 528.645 0.664098 2.19368 0
M  V30 5804 C 529.645 -0.286358 1.5823 0
M  V30 5805 O 530.835 -0.069728 1.7406 0
M  V30 5806 C 527.967 -0.0239932 3.40892 0
M  V30 5807 H 529.16 1.57 2.55521 0
M  V30 5808 H 526.713 0.849964 1.31169 0
M  V30 5809 H 527.448 -0.942988 3.10287 0
M  V30 5810 H 527.233 0.659351 3.86516 0
M  V30 5811 H 528.723 -0.283909 4.16634 0
M  V30 5812 N 529.16 -1.33526 0.837174 0
M  V30 5813 C 530.108 -2.31168 0.257698 0
M  V30 5814 C 531.102 -1.5806 -0.609388 0
M  V30 5815 O 532.308 -1.72941 -0.499139 0
M  V30 5816 H 528.683 -0.74922 0.0646058 0
M  V30 5817 H 530.654 -2.77552 1.09578 0
M  V30 5818 C 529.403 -3.4326 -0.553887 0
M  V30 5819 H 528.726 -3.99665 0.104008 0
M  V30 5820 H 530.166 -4.13782 -0.925219 0
M  V30 5821 C 528.625 -2.88965 -1.73207 0
M  V30 5822 O 529.155 -2.85013 -2.83073 0
M  V30 5823 N 527.361 -2.45596 -1.55342 0
M  V30 5824 H 526.908 -2.49009 -0.659705 0
M  V30 5825 H 526.866 -2.0962 -2.34322 0
M  V30 5826 N 530.638 -0.59345 -1.46 0
M  V30 5827 C 531.863 -0.0872365 -2.07216 0
M  V30 5828 C 532.288 1.2131 -1.43755 0
M  V30 5829 O 531.646 1.73528 -0.525152 0
M  V30 5830 C 531.694 0.0538197 -3.6056 0
M  V30 5831 O 530.798 1.10765 -3.97247 0
M  V30 5832 H 530.139 -0.0676598 -0.660544 0
M  V30 5833 H 532.669 -0.819445 -1.87473 0
M  V30 5834 H 532.679 0.256567 -4.07193 0
M  V30 5835 H 531.354 -0.895739 -4.0614 0
M  V30 5836 H 529.931 0.882501 -3.62307 0
M  V30 5837 N 532.116 1.54067 -0.331816 0
M  V30 5838 C 533.066 2.21363 0.546101 0
M  V30 5839 C 534.05 1.19698 1.07523 0
M  V30 5840 O 535.242 1.45293 1.01088 0
M  V30 5841 C 532.371 2.98115 1.70242 0
M  V30 5842 C 531.457 4.07127 1.18779 0
M  V30 5843 N 531.848 5.04267 0.393465 0
M  V30 5844 C 530.146 4.21226 1.46576 0
M  V30 5845 C 530.847 5.81585 0.115572 0
M  V30 5846 N 529.823 5.39022 0.703987 0
M  V30 5847 H 533.625 2.93821 -0.0679751 0
M  V30 5848 H 531.139 1.61812 -0.138085 0
M  V30 5849 H 533.136 3.44818 2.34321 0
M  V30 5850 H 531.796 2.27181 2.31989 0
M  V30 5851 H 532.807 5.17888 0.0355757 0
M  V30 5852 H 529.484 3.61509 2.08848 0
M  V30 5853 H 530.874 6.6985 -0.524426 0
M  V30 5854 N 533.594 0.0601682 1.57485 0
M  V30 5855 C 534.842 -0.610386 1.92662 0
M  V30 5856 C 535.163 -1.70849 0.939981 0
M  V30 5857 O 534.433 -1.95895 -0.0137455 0
M  V30 5858 H 533.013 -0.228457 0.711208 0
M  V30 5859 H 535.675 0.115288 1.94559 0
M  V30 5860 H 534.771 -1.0432 2.94149 0
M  V30 5861 N 535.072 -1.5615 -0.213296 0
M  V30 5862 C 536.32 -1.79191 -0.934612 0
M  V30 5863 C 536.641 -0.630112 -1.84539 0
M  V30 5864 O 535.911 0.35257 -1.92701 0
M  V30 5865 H 534.491 -0.660937 -0.348097 0
M  V30 5866 H 537.153 -1.93618 -0.22317 0
M  V30 5867 H 536.249 -2.71656 -1.53654 0
M  V30 5868 N 536.55 0.480323 -1.50102 0
M  V30 5869 C 537.796 1.23489 -1.60867 0
M  V30 5870 C 538.129 1.91809 -0.303827 0
M  V30 5871 O 537.404 1.81694 0.694092 0
M  V30 5872 C 537.687 2.28578 -2.78252 0
M  V30 5873 C 537.54 1.64624 -4.18592 0
M  V30 5874 C 538.859 3.2997 -2.91218 0
M  V30 5875 H 535.978 0.447605 -0.585507 0
M  V30 5876 H 538.62 0.530005 -1.82458 0
M  V30 5877 H 536.77 2.88697 -2.59974 0
M  V30 5878 H 538.442 1.08173 -4.48438 0
M  V30 5879 H 536.685 0.949645 -4.23278 0
M  V30 5880 H 537.356 2.40946 -4.96638 0
M  V30 5881 H 539.832 2.79864 -3.07921 0
M  V30 5882 H 538.708 4.00839 -3.74993 0
M  V30 5883 H 538.969 3.93541 -2.0144 0
M  V30 5884 N 538.028 1.39524 0.732853 0
M  V30 5885 C 539.268 1.383 1.50508 0
M  V30 5886 C 539.632 -0.0208271 1.91989 0
M  V30 5887 O 540.833 -0.158091 2.68335 0
M  V30 5888 C 539.104 2.33007 2.71003 0
M  V30 5889 S 540.663 2.49989 3.60626 0
M  V30 5890 H 537.481 0.490417 0.514794 0
M  V30 5891 H 540.083 1.75641 0.858524 0
M  V30 5892 H 538.787 3.33862 2.38672 0
M  V30 5893 H 538.318 1.96889 3.40585 0
M  V30 5894 H 540.333 1.7394 4.64714 0
M  V30 5895 N 539.506 -0.963266 1.24736 0
M  V30 5896 C 540.917 -1.52145 1.08207 0
M  V30 5897 C 541.268 -1.93142 -0.345061 0
M  V30 5898 O 540.393 -1.77769 -1.23399 0
M  V30 5899 C 540.988 -2.76486 1.95808 0
M  V30 5900 C 539.547 -3.28646 1.8349 0
M  V30 5901 C 538.694 -2.01529 1.90476 0
M  V30 5902 H 541.645 -0.781083 1.38148 0
M  V30 5903 H 541.666 -3.49986 1.49297 0
M  V30 5904 H 541.178 -2.46617 2.99669 0
M  V30 5905 H 539.279 -3.63357 0.824787 0
M  V30 5906 H 539.392 -3.97246 2.67829 0
M  V30 5907 H 537.756 -2.16442 1.34258 0
M  V30 5908 H 538.539 -1.7402 2.95926 0
M  V30 5909 N 540.985 -1.06182 -1.16461 0
M  V30 5910 C 541.932 -0.671613 -2.20812 0
M  V30 5911 C 542.902 0.331186 -1.62765 0
M  V30 5912 O 544.087 0.22033 -1.89524 0
M  V30 5913 C 541.227 -0.063029 -3.45042 0
M  V30 5914 C 540.34 -1.11587 -4.1734 0
M  V30 5915 C 539.475 -0.473546 -5.29085 0
M  V30 5916 C 538.514 -1.51 -5.93182 0
M  V30 5917 N 537.651 -0.891118 -6.96422 0
M  V30 5918 H 542.491 -1.56589 -2.53542 0
M  V30 5919 H 540.028 -0.782951 -1.24532 0
M  V30 5920 H 541.986 0.307344 -4.16066 0
M  V30 5921 H 540.616 0.794663 -3.12866 0
M  V30 5922 H 539.668 -1.60396 -3.44931 0
M  V30 5923 H 540.98 -1.90221 -4.61104 0
M  V30 5924 H 540.134 -0.0501432 -6.06679 0
M  V30 5925 H 538.873 0.344687 -4.8648 0
M  V30 5926 H 537.878 -1.94331 -5.14311 0
M  V30 5927 H 539.103 -2.33031 -6.37866 0
M  V30 5928 H 537.049 -0.0935753 -6.55933 0
M  V30 5929 H 536.966 -1.61486 -7.38551 0
M  V30 5930 H 538.234 -0.492822 -7.77941 0
M  V30 5931 N 542.463 1.3308 -0.844243 0
M  V30 5932 C 543.426 2.27403 -0.286485 0
M  V30 5933 C 544.426 1.51179 0.547872 0
M  V30 5934 O 545.616 1.70421 0.360886 0
M  V30 5935 C 542.748 3.35653 0.595813 0
M  V30 5936 H 543.941 2.78248 -1.11885 0
M  V30 5937 H 541.494 1.43574 -0.617749 0
M  V30 5938 H 542.229 2.90058 1.4504 0
M  V30 5939 H 542.014 3.921 -0.00125994 0
M  V30 5940 H 543.504 4.05958 0.979168 0
M  V30 5941 N 543.941 0.601185 1.45683 0
M  V30 5942 C 545.171 0.0999093 2.06358 0
M  V30 5943 C 545.579 -1.21831 1.44754 0
M  V30 5944 O 544.922 -1.75157 0.553695 0
M  V30 5945 C 544.984 -0.12085 3.59297 0
M  V30 5946 C 544.648 1.11459 4.432 0
M  V30 5947 C 545.645 2.03118 4.7858 0
M  V30 5948 C 543.33 1.34162 4.84051 0
M  V30 5949 C 545.324 3.15814 5.53661 0
M  V30 5950 C 543.011 2.4716 5.58888 0
M  V30 5951 C 544.009 3.37814 5.93608 0
M  V30 5952 O 543.697 4.48846 6.66928 0
M  V30 5953 H 543.429 0.0630316 0.673055 0
M  V30 5954 H 545.983 0.826982 1.88016 0
M  V30 5955 H 544.213 -0.902744 3.76015 0
M  V30 5956 H 545.902 -0.572925 4.01836 0
M  V30 5957 H 546.668 1.86801 4.47583 0
M  V30 5958 H 542.547 0.645018 4.56465 0
M  V30 5959 H 546.091 3.86596 5.8068 0
M  V30 5960 H 541.988 2.63432 5.89299 0
M  V30 5961 H 542.756 4.47446 6.85371 0
M  V30 5962 N 545.419 -1.53889 0.339982 0
M  V30 5963 C 546.649 -2.04973 -0.258738 0
M  V30 5964 C 547.057 -1.21485 -1.45045 0
M  V30 5965 O 546.4 -0.2422 -1.82096 0
M  V30 5966 C 546.462 -3.51783 -0.740853 0
M  V30 5967 C 546.126 -4.55802 0.330734 0
M  V30 5968 C 547.123 -5.06512 1.17226 0
M  V30 5969 C 544.808 -4.99966 0.483637 0
M  V30 5970 C 546.802 -5.99963 2.15227 0
M  V30 5971 C 544.489 -5.93229 1.46704 0
M  V30 5972 C 545.487 -6.43115 2.29981 0
M  V30 5973 O 545.175 -7.34545 3.26649 0
M  V30 5974 H 544.907 -0.673807 -0.0544037 0
M  V30 5975 H 547.461 -1.99492 0.489107 0
M  V30 5976 H 545.691 -3.54717 -1.53988 0
M  V30 5977 H 547.38 -3.85857 -1.25973 0
M  V30 5978 H 548.146 -4.73158 1.0652 0
M  V30 5979 H 544.025 -4.6074 -0.15471 0
M  V30 5980 H 547.569 -6.38825 2.80265 0
M  V30 5981 H 543.466 -6.25998 1.57468 0
M  V30 5982 H 544.234 -7.52468 3.22078 0
M  V30 5983 N 546.897 -0.0685191 -1.57451 0
M  V30 5984 C 548.122 0.613919 -1.98106 0
M  V30 5985 C 548.547 1.62551 -0.946501 0
M  V30 5986 O 547.905 1.81085 0.0882824 0
M  V30 5987 C 547.953 1.26189 -3.378 0
M  V30 5988 O 547.057 2.37773 -3.36954 0
M  V30 5989 H 546.398 0.158163 -0.644888 0
M  V30 5990 H 548.928 -0.142063 -2.04106 0
M  V30 5991 H 548.938 1.60951 -3.74912 0
M  V30 5992 H 547.613 0.520625 -4.12629 0
M  V30 5993 H 546.19 2.04829 -3.11608 0
M  V30 5994 N 548.375 1.56261 0.205012 0
M  V30 5995 C 549.786 1.70056 0.770574 0
M  V30 5996 C 550.137 0.673398 1.84282 0
M  V30 5997 O 549.262 -0.172196 2.15714 0
M  V30 5998 C 549.857 3.08316 1.40451 0
M  V30 5999 C 548.416 3.2391 1.91727 0
M  V30 6000 C 547.563 2.66001 0.783516 0
M  V30 6001 H 550.514 1.58688 -0.019911 0
M  V30 6002 H 550.535 3.05094 2.27371 0
M  V30 6003 H 550.047 3.83053 0.623882 0
M  V30 6004 H 548.148 2.54072 2.7254 0
M  V30 6005 H 548.261 4.3131 2.08588 0
M  V30 6006 H 546.625 2.24915 1.19521 0
M  V30 6007 H 547.408 3.43297 0.0152883 0
M  V30 6008 N 549.853 -0.472356 1.50355 0
M  V30 6009 C 551.099 -1.22634 1.6152 0
M  V30 6010 C 551.432 -1.91645 0.313995 0
M  V30 6011 O 550.707 -1.82059 -0.684446 0
M  V30 6012 C 550.99 -2.27099 2.7946 0
M  V30 6013 C 550.843 -1.62402 4.19459 0
M  V30 6014 C 552.162 -3.28421 2.92964 0
M  V30 6015 H 549.281 -0.444494 0.587873 0
M  V30 6016 H 551.923 -0.520321 1.82737 0
M  V30 6017 H 550.073 -2.87314 2.61501 0
M  V30 6018 H 551.745 -1.05793 4.49005 0
M  V30 6019 H 549.988 -0.927184 4.23776 0
M  V30 6020 H 550.659 -2.38309 4.97909 0
M  V30 6021 H 553.135 -2.78227 3.09401 0
M  V30 6022 H 552.011 -3.98845 3.77113 0
M  V30 6023 H 552.272 -3.92467 2.03525 0
M  V30 6024 N 551.331 -1.39911 -0.725443 0
M  V30 6025 C 552.579 -1.37382 -1.48224 0
M  V30 6026 C 552.9 0.0264107 -1.94982 0
M  V30 6027 O 552.17 0.979408 -1.6966 0
M  V30 6028 H 550.75 -0.505596 -0.549892 0
M  V30 6029 H 553.412 -1.7487 -0.860608 0
M  V30 6030 H 552.508 -2.04254 -2.3598 0
M  V30 6031 N 552.809 0.956637 -1.25245 0
M  V30 6032 C 553.756 2.053 -1.05454 0
M  V30 6033 C 554.726 1.66062 0.0356889 0
M  V30 6034 O 555.911 1.90415 -0.121099 0
M  V30 6035 C 553.051 3.38391 -0.677191 0
M  V30 6036 C 552.164 3.90758 -1.84206 0
M  V30 6037 C 551.299 5.12165 -1.40926 0
M  V30 6038 C 550.338 5.56757 -2.54338 0
M  V30 6039 N 549.475 6.69376 -2.11848 0
M  V30 6040 H 554.315 2.21562 -1.99284 0
M  V30 6041 H 551.852 1.08578 -0.992434 0
M  V30 6042 H 553.81 4.1488 -0.43938 0
M  V30 6043 H 552.44 3.22021 0.224127 0
M  V30 6044 H 551.492 3.10808 -2.19323 0
M  V30 6045 H 552.804 4.19802 -2.69383 0
M  V30 6046 H 551.958 5.96065 -1.13098 0
M  V30 6047 H 550.697 4.84832 -0.528175 0
M  V30 6048 H 549.702 4.71423 -2.82913 0
M  V30 6049 H 550.927 5.861 -3.43022 0
M  V30 6050 H 548.873 6.43756 -1.26153 0
M  V30 6051 H 548.79 6.97927 -2.90574 0
M  V30 6052 H 550.058 7.5669 -1.87191 0
M  V30 6053 N 554.287 1.06798 1.15896 0
M  V30 6054 C 555.234 0.683314 2.20453 0
M  V30 6055 C 556.204 -0.32255 1.62938 0
M  V30 6056 O 557.389 -0.210276 1.89638 0
M  V30 6057 C 554.529 0.0813266 3.45004 0
M  V30 6058 C 553.642 1.13799 4.16742 0
M  V30 6059 C 552.777 0.501598 5.28826 0
M  V30 6060 C 551.816 1.54144 5.92373 0
M  V30 6061 N 550.953 0.928038 6.9594 0
M  V30 6062 H 555.793 1.57932 2.52708 0
M  V30 6063 H 553.33 0.789544 1.24115 0
M  V30 6064 H 555.288 -0.285274 4.16224 0
M  V30 6065 H 553.918 -0.77806 3.13283 0
M  V30 6066 H 552.97 1.62223 3.44075 0
M  V30 6067 H 554.282 1.92664 4.60089 0
M  V30 6068 H 553.436 0.0823162 6.06644 0
M  V30 6069 H 552.175 -0.318883 4.86656 0
M  V30 6070 H 551.18 1.97056 5.13273 0
M  V30 6071 H 552.405 2.3641 6.36621 0
M  V30 6072 H 550.351 0.12836 6.55874 0
M  V30 6073 H 550.268 1.65401 7.37685 0
M  V30 6074 H 551.536 0.534071 7.77668 0
M  V30 6075 N 555.766 -1.3263 0.851289 0
M  V30 6076 C 556.714 -2.30882 0.282202 0
M  V30 6077 C 557.708 -1.58697 -0.592589 0
M  V30 6078 O 558.914 -1.73461 -0.480768 0
M  V30 6079 H 555.289 -0.748492 0.0725487 0
M  V30 6080 H 557.26 -2.76374 1.12516 0
M  V30 6081 C 556.009 -3.43828 -0.517449 0
M  V30 6082 H 555.332 -3.99532 0.146392 0
M  V30 6083 H 556.772 -4.1474 -0.88128 0
M  V30 6084 C 555.231 -2.90786 -1.70133 0
M  V30 6085 O 555.761 -2.88 -2.80034 0
M  V30 6086 N 553.967 -2.4723 -1.52728 0
M  V30 6087 H 553.514 -2.49695 -0.633257 0
M  V30 6088 H 553.472 -2.12094 -2.32085 0
M  V30 6089 N 557.244 -0.608902 -1.45362 0
M  V30 6090 C 558.493 -0.10218 -2.01441 0
M  V30 6091 C 558.806 1.27546 -1.48295 0
M  V30 6092 O 560.012 1.87498 -1.96359 0
M  V30 6093 C 558.468 -0.131985 -3.59658 0
M  V30 6094 C 558.076 -1.50956 -4.21801 0
M  V30 6095 C 559.82 0.319427 -4.23296 0
M  V30 6096 C 557.727 -1.49568 -5.72174 0
M  V30 6097 H 556.657 -0.0344314 -0.753213 0
M  V30 6098 H 559.308 -0.764426 -1.6682 0
M  V30 6099 H 557.69 0.596939 -3.91475 0
M  V30 6100 H 558.864 -2.26029 -4.01556 0
M  V30 6101 H 557.179 -1.90318 -3.70362 0
M  V30 6102 H 559.776 0.349013 -5.3356 0
M  V30 6103 H 560.119 1.34237 -3.94064 0
M  V30 6104 H 560.652 -0.356273 -3.96201 0
M  V30 6105 H 557.391 -2.49626 -6.06108 0
M  V30 6106 H 556.911 -0.787542 -5.94607 0
M  V30 6107 H 558.59 -1.21989 -6.35396 0
M  V30 6108 N 558.722 1.53707 -0.348139 0
M  V30 6109 C 559.952 2.05108 0.247864 0
M  V30 6110 C 560.36 1.22252 1.44399 0
M  V30 6111 O 559.703 0.251853 1.81965 0
M  V30 6112 C 559.765 3.52171 0.722187 0
M  V30 6113 C 559.429 4.5562 -0.354902 0
M  V30 6114 C 560.426 5.05883 -1.19911 0
M  V30 6115 C 558.111 4.99703 -0.510145 0
M  V30 6116 C 560.105 5.98814 -2.18406 0
M  V30 6117 C 557.792 5.92443 -1.49848 0
M  V30 6118 C 558.79 6.41887 -2.33389 0
M  V30 6119 O 558.478 7.32802 -3.3054 0
M  V30 6120 H 558.21 0.674086 0.0508296 0
M  V30 6121 H 560.764 1.99229 -0.49968 0
M  V30 6122 H 558.994 3.55529 1.52105 0
M  V30 6123 H 560.683 3.8652 1.23925 0
M  V30 6124 H 561.449 4.72586 -1.09028 0
M  V30 6125 H 557.328 4.60816 0.130274 0
M  V30 6126 H 560.872 6.3733 -2.83649 0
M  V30 6127 H 556.769 6.25155 -1.60786 0
M  V30 6128 H 557.537 7.50749 -3.26064 0
M  V30 6129 N 560.2 0.0768682 1.57412 0
M  V30 6130 C 561.13 -0.886026 2.16037 0
M  V30 6131 C 562.111 -1.30691 1.08876 0
M  V30 6132 O 563.296 -1.37705 1.36934 0
M  V30 6133 C 560.426 -2.1518 2.72608 0
M  V30 6134 C 559.38 -1.87015 3.8498 0
M  V30 6135 C 558.706 -3.20266 4.28175 0
M  V30 6136 C 560.006 -1.17143 5.08994 0
M  V30 6137 H 561.7 -0.397642 2.96748 0
M  V30 6138 H 559.246 -0.189823 1.42743 0
M  V30 6139 H 561.199 -2.82962 3.12266 0
M  V30 6140 H 559.923 -2.66269 1.89125 0
M  V30 6141 H 558.582 -1.21636 3.45833 0
M  V30 6142 H 558.23 -3.69207 3.41607 0
M  V30 6143 H 557.93 -3.0221 5.03927 0
M  V30 6144 H 559.454 -3.89237 4.70454 0
M  V30 6145 H 560.868 -1.75003 5.45937 0
M  V30 6146 H 559.265 -1.09328 5.90057 0
M  V30 6147 H 560.335 -0.151295 4.84664 0
M  V30 6148 N 561.678 -1.56367 -0.196722 0
M  V30 6149 C 562.626 -1.95304 -1.2633 0
M  V30 6150 C 563.62 -0.838252 -1.47206 0
M  V30 6151 O 564.826 -1.02325 -1.48087 0
M  V30 6152 H 561.201 -0.621013 -0.424083 0
M  V30 6153 H 563.172 -2.84254 -0.907879 0
M  V30 6154 C 561.921 -2.3074 -2.60104 0
M  V30 6155 H 561.244 -3.16047 -2.44856 0
M  V30 6156 H 562.684 -2.61849 -3.33484 0
M  V30 6157 C 561.143 -1.14143 -3.16975 0
M  V30 6158 O 561.673 -0.415602 -3.99544 0
M  V30 6159 N 559.879 -0.91867 -2.75697 0
M  V30 6160 H 559.426 -1.51065 -2.08656 0
M  V30 6161 H 559.384 -0.140321 -3.14087 0
M  V30 6162 N 563.156 0.464375 -1.50603 0
M  V30 6163 C 564.381 1.24372 -1.65971 0
M  V30 6164 C 564.806 1.84901 -0.345453 0
M  V30 6165 O 564.164 1.67596 0.691457 0
M  V30 6166 C 564.212 2.32331 -2.7578 0
M  V30 6167 O 563.316 3.37146 -2.375 0
M  V30 6168 H 562.657 0.365604 -0.554283 0
M  V30 6169 H 565.187 0.55183 -1.97018 0
M  V30 6170 H 565.197 2.77539 -2.99059 0
M  V30 6171 H 563.872 1.87648 -3.71162 0
M  V30 6172 H 562.449 2.97602 -2.24694 0
M  V30 6173 N 564.634 1.40294 0.718013 0
M  V30 6174 C 565.882 1.38167 1.47494 0
M  V30 6175 C 566.203 -0.01607 1.94993 0
M  V30 6176 O 565.473 -0.970396 1.70177 0
M  V30 6177 H 564.053 0.508505 0.547203 0
M  V30 6178 H 566.715 1.75324 0.851322 0
M  V30 6179 H 565.811 2.05503 2.34894 0
M  V30 6180 N 566.112 -0.949982 1.2575 0
M  V30 6181 C 567.042 -2.06483 1.09028 0
M  V30 6182 C 568.023 -1.701 -0.00201532 0
M  V30 6183 O 569.208 -1.93469 0.168383 0
M  V30 6184 C 566.338 -3.39899 0.71316 0
M  V30 6185 C 565.292 -3.90309 1.75621 0
M  V30 6186 C 564.618 -5.20274 1.23365 0
M  V30 6187 C 565.918 -4.16169 3.15596 0
M  V30 6188 H 567.612 -2.20731 2.02283 0
M  V30 6189 H 565.158 -1.06066 0.973964 0
M  V30 6190 H 567.111 -4.17346 0.58309 0
M  V30 6191 H 565.835 -3.25602 -0.255091 0
M  V30 6192 H 564.494 -3.15035 1.8748 0
M  V30 6193 H 564.142 -5.02351 0.255491 0
M  V30 6194 H 563.842 -5.54971 1.93082 0
M  V30 6195 H 565.366 -6.00314 1.11607 0
M  V30 6196 H 566.78 -4.84259 3.06864 0
M  V30 6197 H 565.177 -4.62131 3.82825 0
M  V30 6198 H 566.247 -3.22273 3.6231 0
M  V30 6199 N 567.59 -1.07411 -1.15328 0
M  V30 6200 C 568.818 -0.818782 -1.90009 0
M  V30 6201 C 569.233 0.628072 -1.78047 0
M  V30 6202 O 568.59 1.43085 -1.13282 0
M  V30 6203 C 568.641 -1.21874 -3.40337 0
M  V30 6204 O 568.362 -2.60883 -3.51954 0
M  V30 6205 C 569.863 -0.992796 -4.3204 0
M  V30 6206 H 567.083 -0.296007 -0.60218 0
M  V30 6207 H 569.627 -1.43073 -1.46117 0
M  V30 6208 H 567.782 -0.651103 -3.81889 0
M  V30 6209 H 568.196 -2.77216 -4.45255 0
M  V30 6210 H 569.67 -1.32215 -5.35932 0
M  V30 6211 H 570.147 0.0708331 -4.39143 0
M  V30 6212 H 570.753 -1.54537 -3.9623 0
M  V30 6213 N 569.068 1.32177 -0.85831 0
M  V30 6214 C 570.293 2.01847 -0.476718 0
M  V30 6215 C 570.718 1.64065 0.920021 0
M  V30 6216 O 570.076 0.843189 1.60499 0
M  V30 6217 C 570.124 3.55097 -0.627578 0
M  V30 6218 O 569.228 4.11012 0.338086 0
M  V30 6219 H 568.569 0.635907 -0.191099 0
M  V30 6220 H 571.099 1.68641 -1.15851 0
M  V30 6221 H 571.109 4.04718 -0.516476 0
M  V30 6222 H 569.784 3.81938 -1.64609 0
M  V30 6223 H 568.361 3.72451 0.182917 0
M  V30 6224 N 570.547 0.616602 1.45037 0
M  V30 6225 C 571.775 0.121968 2.0654 0
M  V30 6226 C 572.19 -1.19743 1.45969 0
M  V30 6227 O 571.547 -1.73133 0.577168 0
M  V30 6228 C 571.598 -0.0145171 3.61497 0
M  V30 6229 O 571.319 1.25269 4.19809 0
M  V30 6230 C 572.82 -0.539555 4.40004 0
M  V30 6231 H 570.04 0.0729837 0.667019 0
M  V30 6232 H 572.584 0.846891 1.8614 0
M  V30 6233 H 570.739 -0.689809 3.81209 0
M  V30 6234 H 571.153 1.08816 5.13088 0
M  V30 6235 H 572.627 -0.584112 5.48901 0
M  V30 6236 H 573.104 -1.56368 4.10421 0
M  V30 6237 H 573.71 0.101995 4.25178 0
M  V30 6238 N 572.025 -1.5352 0.356285 0
M  V30 6239 C 572.972 -2.25439 -0.494569 0
M  V30 6240 C 573.942 -1.25752 -1.08516 0
M  V30 6241 O 575.127 -1.54513 -1.1194 0
M  V30 6242 C 572.267 -3.04011 -1.63313 0
M  V30 6243 C 571.38 -4.18574 -1.06862 0
M  V30 6244 C 570.515 -4.84607 -2.17552 0
M  V30 6245 C 569.554 -5.91218 -1.58518 0
M  V30 6246 N 568.691 -6.50979 -2.63003 0
M  V30 6247 H 573.531 -2.97737 0.125244 0
M  V30 6248 H 571.068 -1.46916 0.0735789 0
M  V30 6249 H 573.026 -3.47834 -2.30363 0
M  V30 6250 H 571.656 -2.33986 -2.22374 0
M  V30 6251 H 570.708 -3.79303 -0.288672 0
M  V30 6252 H 572.02 -4.95215 -0.596924 0
M  V30 6253 H 571.174 -5.31566 -2.92442 0
M  V30 6254 H 569.913 -4.07418 -2.6807 0
M  V30 6255 H 568.918 -5.4363 -0.821391 0
M  V30 6256 H 570.143 -6.70322 -1.08836 0
M  V30 6257 H 568.089 -5.76648 -3.12751 0
M  V30 6258 H 568.006 -7.23131 -2.20493 0
M  V30 6259 H 569.274 -7.02589 -3.37623 0
M  V30 6260 N 573.503 -0.0852151 -1.57369 0
M  V30 6261 C 574.451 0.894856 -2.14698 0
M  V30 6262 C 575.445 1.29903 -1.08727 0
M  V30 6263 O 576.651 1.27471 -1.27088 0
M  V30 6264 H 573.026 0.306569 -0.686673 0
M  V30 6265 H 574.997 0.386542 -2.95886 0
M  V30 6266 C 573.746 2.14798 -2.73417 0
M  V30 6267 H 573.069 1.84585 -3.54638 0
M  V30 6268 H 574.509 2.81456 -3.1711 0
M  V30 6269 C 572.968 2.91546 -1.68828 0
M  V30 6270 O 573.498 3.85733 -1.12129 0
M  V30 6271 N 571.704 2.54901 -1.39549 0
M  V30 6272 H 571.251 1.7838 -1.85845 0
M  V30 6273 H 571.209 3.06553 -0.698054 0
M  V30 6274 N 574.981 1.5647 0.188427 0
M  V30 6275 C 576.211 1.84863 0.922463 0
M  V30 6276 C 576.619 0.666413 1.77075 0
M  V30 6277 O 575.962 -0.374044 1.79852 0
M  V30 6278 C 576.024 3.07447 1.86324 0
M  V30 6279 C 575.688 4.41066 1.19625 0
M  V30 6280 C 576.685 5.16767 0.569946 0
M  V30 6281 C 574.37 4.87802 1.19811 0
M  V30 6282 C 576.364 6.37384 -0.045594 0
M  V30 6283 C 574.051 6.08353 0.57874 0
M  V30 6284 C 575.049 6.82987 -0.0420259 0
M  V30 6285 O 574.737 8.01254 -0.651675 0
M  V30 6286 H 574.469 0.61784 0.274316 0
M  V30 6287 H 577.023 2.04437 0.198613 0
M  V30 6288 H 575.253 2.83774 2.62696 0
M  V30 6289 H 576.942 3.2243 2.46564 0
M  V30 6290 H 577.708 4.81749 0.560601 0
M  V30 6291 H 573.587 4.29662 1.67069 0
M  V30 6292 H 577.131 6.95578 -0.530731 0
M  V30 6293 H 573.028 6.42838 0.58561 0
M  V30 6294 H 573.796 8.16655 -0.549236 0
M  V30 6295 N 576.459 -0.456382 1.50847 0
M  V30 6296 C 577.707 -1.20497 1.62249 0
M  V30 6297 C 578.028 -1.92156 0.331839 0
M  V30 6298 O 577.298 -1.84751 -0.651443 0
M  V30 6299 H 575.878 -0.447775 0.597918 0
M  V30 6300 H 578.54 -0.525099 1.87693 0
M  V30 6301 H 577.636 -1.94492 2.44089 0
M  V30 6302 N 577.937 -1.40673 -0.710563 0
M  V30 6303 C 578.884 -1.41336 -1.82463 0
M  V30 6304 C 579.854 -0.269648 -1.63897 0
M  V30 6305 O 581.039 -0.468463 -1.8496 0
M  V30 6306 C 578.179 -1.28665 -3.20218 0
M  V30 6307 C 577.292 -2.52784 -3.5032 0
M  V30 6308 C 576.427 -2.32517 -4.77608 0
M  V30 6309 C 575.466 -3.52187 -5.0063 0
M  V30 6310 N 574.603 -3.31084 -6.19135 0
M  V30 6311 H 579.443 -2.36558 -1.8123 0
M  V30 6312 H 576.98 -1.17483 -0.885226 0
M  V30 6313 H 578.938 -1.19324 -3.99772 0
M  V30 6314 H 577.568 -0.370602 -3.20666 0
M  V30 6315 H 576.62 -2.72634 -2.65283 0
M  V30 6316 H 577.932 -3.41845 -3.63241 0
M  V30 6317 H 577.086 -2.20558 -5.65189 0
M  V30 6318 H 575.825 -1.40889 -4.66906 0
M  V30 6319 H 574.83 -3.64617 -4.11502 0
M  V30 6320 H 576.055 -4.44749 -5.13201 0
M  V30 6321 H 574.001 -2.42143 -6.09674 0
M  V30 6322 H 573.918 -4.13713 -6.32754 0
M  V30 6323 H 575.186 -3.22868 -7.0949 0
M  V30 6324 N 579.415 0.9433 -1.26252 0
M  V30 6325 C 580.643 1.72367 -1.14443 0
M  V30 6326 C 581.058 1.86392 0.300572 0
M  V30 6327 O 580.415 1.36978 1.20596 0
M  V30 6328 C 580.466 3.13155 -1.806 0
M  V30 6329 O 580.187 2.99803 -3.19452 0
M  V30 6330 C 581.688 4.07417 -1.74717 0
M  V30 6331 H 578.908 0.539758 -0.398626 0
M  V30 6332 H 581.452 1.18268 -1.66832 0
M  V30 6333 H 579.607 3.64162 -1.32154 0
M  V30 6334 H 580.021 3.88697 -3.52158 0
M  V30 6335 H 581.495 5.03773 -2.25647 0
M  V30 6336 H 581.972 4.3337 -0.713244 0
M  V30 6337 H 582.578 3.6233 -2.22704 0
M  V30 6338 N 580.893 1.08022 1.14757 0
M  V30 6339 C 582.142 0.802468 1.8505 0
M  V30 6340 C 582.455 -0.674061 1.83619 0
M  V30 6341 O 583.661 -1.06683 2.49662 0
M  V30 6342 C 582.117 1.38551 3.32162 0
M  V30 6343 C 581.725 2.89354 3.42021 0
M  V30 6344 C 583.469 1.18608 4.07594 0
M  V30 6345 C 581.376 3.40815 4.83321 0
M  V30 6346 H 580.306 0.296518 0.693248 0
M  V30 6347 H 582.957 1.30114 1.29393 0
M  V30 6348 H 581.339 0.814556 3.87532 0
M  V30 6349 H 582.513 3.52552 2.96722 0
M  V30 6350 H 580.828 3.08165 2.80041 0
M  V30 6351 H 583.425 1.54525 5.11885 0
M  V30 6352 H 583.768 0.125599 4.1611 0
M  V30 6353 H 584.301 1.72375 3.58513 0
M  V30 6354 H 581.04 4.46418 4.79991 0
M  V30 6355 H 580.56 2.82374 5.29174 0
M  V30 6356 H 582.239 3.37171 5.522 0
M  V30 6357 N 582.371 -1.3172 0.865308 0
M  V30 6358 C 583.301 -2.31109 0.333302 0
M  V30 6359 C 584.282 -1.60148 -0.573301 0
M  V30 6360 O 585.467 -1.87882 -0.491305 0
M  V30 6361 C 582.597 -3.44104 -0.470078 0
M  V30 6362 C 581.551 -4.26623 0.343021 0
M  V30 6363 C 580.877 -5.31482 -0.585756 0
M  V30 6364 C 582.177 -4.98001 1.57456 0
M  V30 6365 H 583.871 -2.75855 1.1638 0
M  V30 6366 H 581.417 -1.3262 0.561069 0
M  V30 6367 H 583.37 -4.12682 -0.852752 0
M  V30 6368 H 582.094 -2.98112 -1.33404 0
M  V30 6369 H 580.753 -3.59707 0.707583 0
M  V30 6370 H 580.401 -4.81741 -1.44686 0
M  V30 6371 H 580.101 -5.87582 -0.0456494 0
M  V30 6372 H 581.625 -6.0292 -0.965375 0
M  V30 6373 H 583.039 -5.59201 1.26359 0
M  V30 6374 H 581.436 -5.63876 2.05339 0
M  V30 6375 H 582.506 -4.25253 2.32997 0
M  V30 6376 N 583.85 -0.624285 -1.44708 0
M  V30 6377 C 585.077 -0.132919 -2.06473 0
M  V30 6378 C 585.493 1.18967 -1.46602 0
M  V30 6379 O 584.85 1.72824 -0.586341 0
M  V30 6380 C 584.901 -0.00465418 -3.615 0
M  V30 6381 O 584.622 -1.27494 -4.19138 0
M  V30 6382 C 586.123 0.516213 -4.40284 0
M  V30 6383 H 583.343 -0.0765201 -0.666623 0
M  V30 6384 H 585.887 -0.856751 -1.85688 0
M  V30 6385 H 584.042 0.669583 -3.8157 0
M  V30 6386 H 584.456 -1.11536 -5.12504 0
M  V30 6387 H 585.93 0.554994 -5.49203 0
M  V30 6388 H 586.407 1.5419 -4.11245 0
M  V30 6389 H 587.013 -0.124542 -4.25118 0
M  V30 6390 N 585.328 1.53329 -0.364422 0
M  V30 6391 C 586.275 2.25698 0.482607 0
M  V30 6392 C 587.245 1.26325 1.07848 0
M  V30 6393 O 588.43 1.55104 1.11119 0
M  V30 6394 C 585.57 3.04873 1.61699 0
M  V30 6395 C 584.683 4.19135 1.0464 0
M  V30 6396 C 583.818 4.85754 2.14979 0
M  V30 6397 C 582.857 5.9205 1.5538 0
M  V30 6398 N 581.994 6.52365 2.59547 0
M  V30 6399 H 586.834 2.97666 -0.141032 0
M  V30 6400 H 584.371 1.46875 -0.0813692 0
M  V30 6401 H 586.329 3.49051 2.28516 0
M  V30 6402 H 584.959 2.35162 2.2113 0
M  V30 6403 H 584.011 3.79451 0.268553 0
M  V30 6404 H 585.323 4.95525 0.570653 0
M  V30 6405 H 584.477 5.3311 2.89619 0
M  V30 6406 H 583.216 4.08834 2.65906 0
M  V30 6407 H 582.221 5.44058 0.792549 0
M  V30 6408 H 583.446 6.7089 1.0528 0
M  V30 6409 H 581.392 5.78298 3.09689 0
M  V30 6410 H 581.309 7.2429 2.16655 0
M  V30 6411 H 582.577 7.0437 3.33892 0
M  V30 6412 N 586.806 0.0935595 1.57322 0
M  V30 6413 C 587.716 -0.880192 2.17462 0
M  V30 6414 C 588.732 -1.31135 1.14366 0
M  V30 6415 O 589.908 -1.37958 1.46729 0
M  V30 6416 C 586.973 -2.12184 2.74188 0
M  V30 6417 C 586.034 -1.74503 3.92234 0
M  V30 6418 C 585.267 -2.92748 4.46245 0
M  V30 6419 O 585.49 -4.07427 3.99198 0
M  V30 6420 O 584.424 -2.71303 5.37288 0
M  V30 6421 H 588.25 -0.398516 3.01074 0
M  V30 6422 H 585.835 -0.130707 1.48827 0
M  V30 6423 H 587.717 -2.84953 3.10451 0
M  V30 6424 H 586.392 -2.59407 1.93623 0
M  V30 6425 H 585.299 -0.989186 3.60785 0
M  V30 6426 H 586.632 -1.32044 4.74157 0
M  V30 6427 N 588.284 -1.56567 -0.180126 0
M  V30 6428 C 589.247 -1.94852 -1.20686 0
M  V30 6429 C 590.247 -0.831212 -1.3765 0
M  V30 6430 O 591.437 -1.09841 -1.35206 0
M  V30 6431 C 588.569 -2.23565 -2.57355 0
M  V30 6432 H 589.762 -2.86722 -0.879225 0
M  V30 6433 H 587.315 -1.50489 -0.422237 0
M  V30 6434 H 588.05 -1.34381 -2.95148 0
M  V30 6435 H 587.835 -3.04999 -2.46411 0
M  V30 6436 H 589.325 -2.54137 -3.31367 0
M  V30 6437 N 589.762 0.448376 -1.51087 0
M  V30 6438 C 591.039 1.20926 -1.53741 0
M  V30 6439 C 591.419 2.09025 -0.295222 0
M  V30 6440 O 590.767 2.16851 0.720283 0
M  V30 6441 C 590.977 2.02067 -2.84552 0
M  V30 6442 C 592.325 2.59486 -3.36084 0
M  V30 6443 O 593.349 2.12289 -2.86028 0
M  V30 6444 O 592.208 3.45539 -4.23397 0
M  V30 6445 H 589.302 0.549951 -0.617643 0
M  V30 6446 H 591.848 0.458344 -1.63393 0
M  V30 6447 H 590.62 1.37291 -3.66425 0
M  V30 6448 H 590.243 2.84246 -2.78011 0
M  V30 6449 N 591.24 1.41047 0.703093 0
M  V30 6450 C 592.17 1.45067 1.82969 0
M  V30 6451 C 593.151 0.31016 1.67248 0
M  V30 6452 O 594.336 0.520548 1.87093 0
M  V30 6453 C 591.466 1.32478 3.2104 0
M  V30 6454 C 590.42 2.44262 3.51454 0
M  V30 6455 C 589.746 2.16742 4.88801 0
M  V30 6456 C 591.046 3.86606 3.51189 0
M  V30 6457 H 592.74 2.39353 1.79863 0
M  V30 6458 H 590.286 1.15206 0.863919 0
M  V30 6459 H 592.239 1.33904 3.99559 0
M  V30 6460 H 590.963 0.346735 3.24754 0
M  V30 6461 H 589.622 2.42107 2.75282 0
M  V30 6462 H 589.27 1.17299 4.89132 0
M  V30 6463 H 588.97 2.91643 5.10116 0
M  V30 6464 H 590.494 2.19872 5.69639 0
M  V30 6465 H 591.908 3.90517 4.19725 0
M  V30 6466 H 590.305 4.61128 3.84033 0
M  V30 6467 H 591.375 4.15296 2.50315 0
M  V30 6468 N 592.718 -0.936591 1.26751 0
M  V30 6469 C 593.964 -1.6858 1.12733 0
M  V30 6470 C 594.297 -1.91414 -0.327745 0
M  V30 6471 O 593.572 -1.49812 -1.24043 0
M  V30 6472 C 593.855 -3.05779 1.90187 0
M  V30 6473 C 593.708 -2.90242 3.43627 0
M  V30 6474 C 595.027 -4.0597 1.69931 0
M  V30 6475 H 592.146 -0.61182 0.410908 0
M  V30 6476 H 594.788 -1.08747 1.55801 0
M  V30 6477 H 592.938 -3.56853 1.53584 0
M  V30 6478 H 594.61 -2.46354 3.9001 0
M  V30 6479 H 592.853 -2.2577 3.70419 0
M  V30 6480 H 593.524 -3.87572 3.93055 0
M  V30 6481 H 596 -3.63874 2.0183 0
M  V30 6482 H 594.876 -4.99974 2.26534 0
M  V30 6483 H 595.137 -4.37369 0.64502 0
M  V30 6484 N 594.196 -1.08629 -1.14182 0
M  V30 6485 C 595.424 -0.838889 -1.8913 0
M  V30 6486 C 595.839 0.609153 -1.78703 0
M  V30 6487 O 595.196 1.41876 -1.14794 0
M  V30 6488 C 595.247 -1.25477 -3.39025 0
M  V30 6489 O 594.968 -2.64601 -3.49167 0
M  V30 6490 C 596.469 -1.03856 -4.30963 0
M  V30 6491 H 593.689 -0.302377 -0.599007 0
M  V30 6492 H 596.233 -1.44615 -1.44592 0
M  V30 6493 H 594.388 -0.691571 -3.81177 0
M  V30 6494 H 594.802 -2.81922 -4.42289 0
M  V30 6495 H 596.276 -1.37892 -5.345 0
M  V30 6496 H 596.753 0.0242522 -4.39193 0
M  V30 6497 H 597.359 -1.58731 -3.94569 0
M  V30 6498 N 595.674 1.31259 -0.872281 0
M  V30 6499 C 596.902 2.00795 -0.498907 0
M  V30 6500 C 597.317 1.65464 0.909238 0
M  V30 6501 O 596.674 0.885073 1.59602 0
M  V30 6502 C 596.725 3.55625 -0.649092 0
M  V30 6503 O 596.446 3.89692 -2.00179 0
M  V30 6504 C 597.947 4.42434 -0.277034 0
M  V30 6505 H 595.167 0.642299 -0.194145 0
M  V30 6506 H 597.711 1.67438 -1.17408 0
M  V30 6507 H 595.866 3.87394 -0.0214402 0
M  V30 6508 H 596.28 4.84407 -2.01122 0
M  V30 6509 H 597.754 5.50299 -0.433064 0
M  V30 6510 H 598.231 4.32146 0.783989 0
M  V30 6511 H 598.837 4.16086 -0.880483 0
M  V30 6512 N 597.152 0.631951 1.44375 0
M  V30 6513 C 598.102 -0.0943862 2.27805 0
M  V30 6514 C 599.086 -0.815359 1.38711 0
M  V30 6515 O 600.278 -0.701331 1.62513 0
M  V30 6516 C 597.407 -1.07472 3.26044 0
M  V30 6517 C 596.493 -0.353329 4.22626 0
M  V30 6518 N 596.884 0.618512 5.02004 0
M  V30 6519 C 595.182 -0.597662 4.41977 0
M  V30 6520 C 595.883 1.0448 5.7224 0
M  V30 6521 N 594.859 0.383413 5.42246 0
M  V30 6522 H 598.661 0.651672 2.86584 0
M  V30 6523 H 596.175 0.45752 1.55822 0
M  V30 6524 H 598.172 -1.60969 3.84571 0
M  V30 6525 H 596.832 -1.82107 2.68825 0
M  V30 6526 H 597.843 0.996356 5.08226 0
M  V30 6527 H 594.52 -1.32682 3.95856 0
M  V30 6528 H 595.91 1.84773 6.45994 0
M  V30 6529 N 598.631 -1.53133 0.372548 0
M  V30 6530 C 599.541 -2.29671 -0.478379 0
M  V30 6531 C 600.557 -1.35913 -1.08644 0
M  V30 6532 O 601.733 -1.68975 -1.09588 0
M  V30 6533 C 598.798 -3.07625 -1.599 0
M  V30 6534 C 597.859 -4.17061 -1.01776 0
M  V30 6535 C 597.092 -4.91289 -2.08497 0
M  V30 6536 O 597.315 -4.65442 -3.29727 0
M  V30 6537 O 596.249 -5.7705 -1.71164 0
M  V30 6538 H 600.075 -3.03355 0.144649 0
M  V30 6539 H 597.66 -1.48773 0.136729 0
M  V30 6540 H 599.542 -3.56281 -2.25038 0
M  V30 6541 H 598.217 -2.3677 -2.2073 0
M  V30 6542 H 597.124 -3.72641 -0.330098 0
M  V30 6543 H 598.457 -4.90102 -0.453915 0
M  V30 6544 N 600.109 -0.101901 -1.5727 0
M  V30 6545 C 601.039 0.851544 -2.17419 0
M  V30 6546 C 602.02 1.28942 -1.10941 0
M  V30 6547 O 603.205 1.35509 -1.39107 0
M  V30 6548 C 600.335 2.10816 -2.75996 0
M  V30 6549 C 599.289 1.80867 -3.87906 0
M  V30 6550 C 598.615 3.13413 -4.33216 0
M  V30 6551 C 599.915 1.0903 -5.10793 0
M  V30 6552 H 601.609 0.350381 -2.97343 0
M  V30 6553 H 599.155 0.16709 -1.43027 0
M  V30 6554 H 601.108 2.77959 -3.16729 0
M  V30 6555 H 599.832 2.63227 -1.93337 0
M  V30 6556 H 598.491 1.16119 -3.47724 0
M  V30 6557 H 598.139 3.63725 -3.47438 0
M  V30 6558 H 597.839 2.94155 -5.08671 0
M  V30 6559 H 599.363 3.81704 -4.76586 0
M  V30 6560 H 600.777 1.66295 -5.48652 0
M  V30 6561 H 599.174 0.99927 -5.91722 0
M  V30 6562 H 600.244 0.0741704 -4.84843 0
M  V30 6563 N 601.587 1.56661 0.17182 0
M  V30 6564 C 602.835 1.81606 0.886774 0
M  V30 6565 C 603.156 0.678818 1.82803 0
M  V30 6566 O 602.426 -0.301354 1.93568 0
M  V30 6567 H 601.006 0.669934 0.330451 0
M  V30 6568 H 603.668 1.94142 0.171757 0
M  V30 6569 H 602.764 2.75634 1.46398 0
M  V30 6570 N 603.065 -0.440357 1.51323 0
M  V30 6571 C 604.015 -1.53263 1.68803 0
M  V30 6572 C 604.999 -1.51494 0.542057 0
M  V30 6573 O 606.191 -1.57999 0.797839 0
M  V30 6574 C 603.32 -2.91479 1.8137 0
M  V30 6575 C 602.406 -2.98015 3.01742 0
M  V30 6576 N 602.797 -2.743 4.24962 0
M  V30 6577 C 601.095 -3.29173 3.00934 0
M  V30 6578 C 601.796 -2.86601 5.06197 0
M  V30 6579 N 600.772 -3.1814 4.40781 0
M  V30 6580 H 604.574 -1.33675 2.61741 0
M  V30 6581 H 602.088 -0.647616 1.48929 0
M  V30 6582 H 604.085 -3.70055 1.92002 0
M  V30 6583 H 602.745 -3.12089 0.896117 0
M  V30 6584 H 603.756 -2.49287 4.53957 0
M  V30 6585 H 600.433 -3.55577 2.18796 0
M  V30 6586 H 601.823 -2.72246 6.14274 0
M  V30 6587 N 604.543 -1.41418 -0.695603 0
M  V30 6588 C 605.491 -1.43467 -1.83084 0
M  V30 6589 C 606.485 -0.312719 -1.66489 0
M  V30 6590 O 607.691 -0.484744 -1.7335 0
M  V30 6591 H 604.066 -0.448891 -0.603325 0
M  V30 6592 H 606.037 -2.39144 -1.78473 0
M  V30 6593 C 604.786 -1.3337 -3.21104 0
M  V30 6594 H 604.109 -2.18989 -3.3449 0
M  V30 6595 H 605.549 -1.38865 -4.00615 0
M  V30 6596 C 604.008 -0.0460484 -3.36869 0
M  V30 6597 O 604.538 0.909258 -3.91274 0
M  V30 6598 N 602.744 0.0300222 -2.90584 0
M  V30 6599 H 602.291 -0.748129 -2.46497 0
M  V30 6600 H 602.249 0.890991 -3.01511 0
M  V30 6601 N 606.021 0.929856 -1.27246 0
M  V30 6602 C 607.268 1.67731 -1.13457 0
M  V30 6603 C 607.596 1.9185 0.319998 0
M  V30 6604 O 606.851 1.50524 1.25064 0
M  V30 6605 C 607.15 3.05116 -1.86115 0
M  V30 6606 C 606.816 3.00715 -3.35978 0
M  V30 6607 C 605.478 2.99222 -3.76855 0
M  V30 6608 C 607.83 2.92168 -4.3161 0
M  V30 6609 C 605.158 2.86962 -5.11732 0
M  V30 6610 C 607.51 2.81449 -5.66542 0
M  V30 6611 C 606.174 2.78305 -6.06715 0
M  V30 6612 H 605.444 0.613772 -0.415168 0
M  V30 6613 H 608.091 1.08456 -1.57827 0
M  V30 6614 H 606.396 3.68083 -1.34246 0
M  V30 6615 H 608.093 3.61822 -1.72876 0
M  V30 6616 H 604.683 3.02664 -3.03468 0
M  V30 6617 H 608.867 2.92421 -4.01003 0
M  V30 6618 H 604.123 2.82913 -5.42006 0
M  V30 6619 H 608.297 2.738 -6.40317 0
M  V30 6620 H 605.924 2.68561 -7.11181 0
M  V30 6621 N 607.499 1.09233 1.13605 0
M  V30 6622 C 608.747 0.825525 1.84471 0
M  V30 6623 C 609.068 -0.650702 1.83823 0
M  V30 6624 O 608.338 -1.47204 1.29259 0
M  V30 6625 H 606.918 0.3024 0.683054 0
M  V30 6626 H 609.58 1.38006 1.37624 0
M  V30 6627 H 608.676 1.17727 2.89045 0
M  V30 6628 N 608.977 -1.30795 0.87923 0
M  V30 6629 C 609.94 -2.26563 0.346676 0
M  V30 6630 C 610.94 -1.52578 -0.507597 0
M  V30 6631 O 612.13 -1.71318 -0.315575 0
M  V30 6632 C 609.262 -3.37115 -0.506611 0
M  V30 6633 H 610.455 -2.75183 1.19223 0
M  V30 6634 H 608.008 -1.41886 0.655598 0
M  V30 6635 H 608.743 -2.93802 -1.37299 0
M  V30 6636 H 608.528 -3.91959 0.105218 0
M  V30 6637 H 610.018 -4.08412 -0.871192 0
M  V30 6638 N 610.455 -0.639598 -1.44038 0
M  V30 6639 C 611.365 0.0612377 -2.3452 0
M  V30 6640 C 612.381 0.826717 -1.53106 0
M  V30 6641 O 613.557 0.777059 -1.85806 0
M  V30 6642 C 610.622 1.02492 -3.31204 0
M  V30 6643 C 609.683 0.25788 -4.28525 0
M  V30 6644 C 608.916 1.17566 -5.2059 0
M  V30 6645 O 609.139 2.41461 -5.16771 0
M  V30 6646 O 608.073 0.655407 -5.98321 0
M  V30 6647 H 611.899 -0.68318 -2.95916 0
M  V30 6648 H 609.484 -0.399784 -1.43952 0
M  V30 6649 H 611.366 1.57911 -3.90694 0
M  V30 6650 H 610.041 1.7498 -2.7233 0
M  V30 6651 H 608.948 -0.339566 -3.72556 0
M  V30 6652 H 610.281 -0.427154 -4.90343 0
M  V30 6653 N 611.933 1.52934 -0.380664 0
M  V30 6654 C 612.883 2.22989 0.475399 0
M  V30 6655 C 613.867 1.23058 1.03661 0
M  V30 6656 O 615.059 1.48436 0.964146 0
M  V30 6657 C 612.188 3.0338 1.60671 0
M  V30 6658 C 611.274 4.107 1.05766 0
M  V30 6659 N 611.665 5.05264 0.232837 0
M  V30 6660 C 609.963 4.25676 1.33101 0
M  V30 6661 C 610.664 5.81658 -0.0695134 0
M  V30 6662 N 609.64 5.40989 0.532144 0
M  V30 6663 H 613.442 2.93456 -0.161418 0
M  V30 6664 H 610.956 1.61291 -0.189495 0
M  V30 6665 H 612.953 3.52098 2.23232 0
M  V30 6666 H 611.613 2.34446 2.24644 0
M  V30 6667 H 612.624 5.17739 -0.129204 0
M  V30 6668 H 609.301 3.6797 1.97241 0
M  V30 6669 H 610.691 6.67843 -0.737269 0
M  V30 6670 N 613.412 0.11024 1.57214 0
M  V30 6671 C 614.689 -0.592956 1.86396 0
M  V30 6672 C 615.069 -1.85379 1.00985 0
M  V30 6673 O 614.417 -2.28337 0.0863592 0
M  V30 6674 C 614.627 -0.893816 3.3736 0
M  V30 6675 C 615.975 -1.25069 4.05762 0
M  V30 6676 O 616.999 -0.984356 3.42329 0
M  V30 6677 O 615.858 -1.75017 5.17718 0
M  V30 6678 H 612.952 -0.29828 0.771335 0
M  V30 6679 H 615.498 0.144083 1.69087 0
M  V30 6680 H 614.27 2.6031e-05 3.913 0
M  V30 6681 H 613.893 -1.68631 3.60068 0
M  V30 6682 N 614.89 -1.56749 -0.16351 0
M  V30 6683 C 616.301 -1.72039 -0.725216 0
M  V30 6684 C 616.652 -0.72202 -1.82432 0
M  V30 6685 O 615.777 0.114942 -2.16095 0
M  V30 6686 C 616.372 -3.11932 -1.32227 0
M  V30 6687 C 614.931 -3.28879 -1.83072 0
M  V30 6688 C 614.078 -2.67984 -0.712716 0
M  V30 6689 H 617.029 -1.58579 0.0619772 0
M  V30 6690 H 617.05 -3.11015 -2.19202 0
M  V30 6691 H 616.562 -3.84572 -0.522103 0
M  V30 6692 H 614.663 -2.61209 -2.65708 0
M  V30 6693 H 614.776 -4.36688 -1.97079 0
M  V30 6694 H 613.14 -2.28005 -1.13515 0
M  V30 6695 H 613.923 -3.43216 0.0757361 0
M  V30 6696 N 616.368 0.432326 -1.51554 0
M  V30 6697 C 617.645 1.19288 -1.55015 0
M  V30 6698 C 618.025 2.08701 -0.317375 0
M  V30 6699 O 617.373 2.17602 0.697243 0
M  V30 6700 C 617.583 1.99037 -2.86679 0
M  V30 6701 C 618.931 2.55907 -3.38817 0
M  V30 6702 O 619.955 2.09243 -2.88263 0
M  V30 6703 O 618.814 3.41029 -4.27038 0
M  V30 6704 H 615.908 0.543369 -0.623441 0
M  V30 6705 H 618.454 0.440988 -1.6387 0
M  V30 6706 H 617.226 1.33397 -3.6786 0
M  V30 6707 H 616.849 2.81281 -2.8101 0
M  V30 6708 N 617.846 1.41785 0.688094 0
M  V30 6709 C 619.094 1.41264 1.4453 0
M  V30 6710 C 619.415 0.0252946 1.94984 0
M  V30 6711 O 618.685 -0.934081 1.72197 0
M  V30 6712 H 617.265 0.519998 0.536294 0
M  V30 6713 H 619.927 1.7709 0.813941 0
M  V30 6714 H 619.023 2.10439 2.30482 0
M  V30 6715 N 619.324 -0.923095 1.27737 0
M  V30 6716 C 620.254 -2.04124 1.13383 0
M  V30 6717 C 621.235 -1.70066 0.0340658 0
M  V30 6718 O 622.42 -1.93068 0.209383 0
M  V30 6719 C 619.55 -3.3831 0.785097 0
M  V30 6720 C 618.504 -3.86496 1.8386 0
M  V30 6721 C 617.83 -5.1754 1.34373 0
M  V30 6722 C 619.13 -4.09381 3.24353 0
M  V30 6723 H 620.824 -2.1639 2.06919 0
M  V30 6724 H 618.37 -1.03976 0.996243 0
M  V30 6725 H 620.323 -4.16016 0.671485 0
M  V30 6726 H 619.047 -3.2607 -0.185969 0
M  V30 6727 H 617.706 -3.10987 1.9412 0
M  V30 6728 H 617.354 -5.01696 0.361989 0
M  V30 6729 H 617.054 -5.50751 2.04811 0
M  V30 6730 H 618.578 -5.97811 1.24315 0
M  V30 6731 H 619.992 -4.77641 3.17067 0
M  V30 6732 H 618.389 -4.53906 3.92542 0
M  V30 6733 H 619.459 -3.14515 3.69064 0
M  V30 6734 N 620.802 -1.09834 -1.13024 0
M  V30 6735 C 621.765 -0.745058 -2.16752 0
M  V30 6736 C 622.765 0.227435 -1.59183 0
M  V30 6737 O 623.955 0.0050786 -1.74199 0
M  V30 6738 C 621.087 -0.102543 -3.40746 0
M  V30 6739 H 622.28 -1.66375 -2.49518 0
M  V30 6740 H 619.833 -0.898061 -1.27924 0
M  V30 6741 H 620.568 0.827177 -3.13573 0
M  V30 6742 H 620.353 -0.80235 -3.83803 0
M  V30 6743 H 621.843 0.129082 -4.174 0
M  V30 6744 N 622.28 1.30327 -0.886154 0
M  V30 6745 C 623.19 2.31854 -0.357866 0
M  V30 6746 C 624.206 1.65392 0.540502 0
M  V30 6747 O 625.382 1.96683 0.433339 0
M  V30 6748 C 622.447 3.44171 0.417999 0
M  V30 6749 C 621.508 4.26257 -0.510263 0
M  V30 6750 C 620.741 5.3321 0.228669 0
M  V30 6751 O 620.964 5.51542 1.45458 0
M  V30 6752 O 619.898 6.0042 -0.421832 0
M  V30 6753 H 623.724 2.78995 -1.19982 0
M  V30 6754 H 621.309 1.34518 -0.650028 0
M  V30 6755 H 623.191 4.12588 0.857251 0
M  V30 6756 H 621.866 2.99164 1.23623 0
M  V30 6757 H 620.773 3.60533 -0.99835 0
M  V30 6758 H 622.106 4.74871 -1.29454 0
M  V30 6759 N 623.758 0.647228 1.43697 0
M  V30 6760 C 624.998 0.16171 2.03759 0
M  V30 6761 C 625.362 -1.19951 1.49919 0
M  V30 6762 O 626.563 -1.77808 2.01588 0
M  V30 6763 C 624.834 0.16505 3.57019 0
M  V30 6764 S 626.393 -0.253497 4.38067 0
M  V30 6765 H 623.211 0.0689985 0.707644 0
M  V30 6766 H 625.813 0.854224 1.7585 0
M  V30 6767 H 624.517 1.15858 3.93707 0
M  V30 6768 H 624.048 -0.548194 3.89562 0
M  V30 6769 H 626.063 -1.49385 4.73179 0
M  V30 6770 N 625.236 -1.5273 0.388769 0
M  V30 6771 C 626.199 -2.25043 -0.434544 0
M  V30 6772 C 627.199 -1.26661 -0.990644 0
M  V30 6773 O 628.389 -1.50762 -0.872731 0
M  V30 6774 C 625.521 -3.00507 -1.60961 0
M  V30 6775 H 626.714 -2.99242 0.198549 0
M  V30 6776 H 624.267 -1.55664 0.140875 0
M  V30 6777 H 625.002 -2.30607 -2.28015 0
M  V30 6778 H 624.787 -3.72716 -1.21757 0
M  V30 6779 H 626.277 -3.55413 -2.19251 0
M  V30 6780 N 626.714 -0.118576 -1.57153 0
M  V30 6781 C 628.125 0.40687 -1.82213 0
M  V30 6782 C 628.476 1.66636 -1.03571 0
M  V30 6783 O 627.601 2.14682 -0.272171 0
M  V30 6784 C 628.196 0.744949 -3.30509 0
M  V30 6785 C 626.755 1.21503 -3.5625 0
M  V30 6786 C 625.902 0.223511 -2.76398 0
M  V30 6787 H 628.853 -0.343712 -1.54933 0
M  V30 6788 H 628.874 1.6024 -3.45114 0
M  V30 6789 H 628.386 -0.171911 -3.87719 0
M  V30 6790 H 626.487 2.1488 -3.04396 0
M  V30 6791 H 626.6 1.16065 -4.64829 0
M  V30 6792 H 624.964 0.71046 -2.44591 0
M  V30 6793 H 625.747 -0.686439 -3.36367 0
M  V30 6794 N 628.193 1.56834 0.155195 0
M  V30 6795 C 629.141 1.98584 1.21107 0
M  V30 6796 C 630.135 0.876987 1.44932 0
M  V30 6797 O 631.341 1.06215 1.45322 0
M  V30 6798 H 627.716 0.632039 0.407469 0
M  V30 6799 H 629.687 2.86561 0.832195 0
M  V30 6800 C 628.436 2.37555 2.53895 0
M  V30 6801 H 627.759 3.22428 2.3639 0
M  V30 6802 H 629.199 2.70598 3.26424 0
M  V30 6803 C 627.658 1.22507 3.13837 0
M  V30 6804 O 628.188 0.521388 3.98302 0
M  V30 6805 N 626.394 0.991444 2.73164 0
M  V30 6806 H 625.941 1.56544 2.04577 0
M  V30 6807 H 625.899 0.223546 3.13604 0
M  V30 6808 N 629.671 -0.424282 1.51781 0
M  V30 6809 C 630.581 -1.54087 1.76902 0
M  V30 6810 C 631.597 -1.61249 0.653826 0
M  V30 6811 O 632.773 -1.78247 0.937552 0
M  V30 6812 C 629.838 -2.8996 1.90063 0
M  V30 6813 C 628.899 -2.92809 3.13945 0
M  V30 6814 C 628.132 -4.22201 3.26469 0
M  V30 6815 O 628.355 -5.15286 2.44616 0
M  V30 6816 O 627.289 -4.31599 4.1953 0
M  V30 6817 H 631.115 -1.358 2.71647 0
M  V30 6818 H 628.7 -0.608618 1.36441 0
M  V30 6819 H 630.582 -3.70575 2.0063 0
M  V30 6820 H 629.257 -3.08347 0.985067 0
M  V30 6821 H 628.164 -2.11102 3.08847 0
M  V30 6822 H 629.497 -2.79369 4.05233 0
M  V30 6823 N 631.149 -1.42148 -0.680565 0
M  V30 6824 C 632.426 -1.32795 -1.43614 0
M  V30 6825 C 632.806 0.037415 -2.11067 0
M  V30 6826 O 632.154 1.05258 -2.02813 0
M  V30 6827 C 632.364 -2.49206 -2.44331 0
M  V30 6828 C 633.712 -2.91059 -3.09144 0
M  V30 6829 O 634.736 -2.49054 -2.54657 0
M  V30 6830 O 633.595 -3.63741 -4.07866 0
M  V30 6831 H 630.689 -0.523397 -0.640301 0
M  V30 6832 H 633.235 -1.54144 -0.709775 0
M  V30 6833 H 632.007 -3.40252 -1.93247 0
M  V30 6834 H 631.63 -2.29813 -3.24456 0
M  V30 6835 N 632.627 0.916307 -1.28225 0
M  V30 6836 C 633.559 2.02303 -1.07732 0
M  V30 6837 C 634.572 1.62773 -0.0298421 0
M  V30 6838 O 635.761 1.76406 -0.272626 0
M  V30 6839 C 632.861 3.33282 -0.614504 0
M  V30 6840 C 632.034 4.01439 -1.73682 0
M  V30 6841 C 631.093 5.10698 -1.26781 0
M  V30 6842 O 630.119 5.34038 -1.96958 0
M  V30 6843 N 631.321 5.80355 -0.129624 0
M  V30 6844 H 634.086 2.20442 -2.03041 0
M  V30 6845 H 631.647 1.08744 -1.19943 0
M  V30 6846 H 633.639 4.03699 -0.284397 0
M  V30 6847 H 632.209 3.11633 0.245664 0
M  V30 6848 H 631.429 3.24604 -2.23665 0
M  V30 6849 H 632.717 4.43721 -2.48976 0
M  V30 6850 H 632.115 5.6386 0.455847 0
M  V30 6851 H 630.672 6.51647 0.141224 0
M  V30 6852 N 634.105 1.10431 1.1244 0
M  V30 6853 C 635.353 0.845045 1.83585 0
M  V30 6854 C 635.674 -0.631168 1.84503 0
M  V30 6855 O 634.944 -1.45825 1.30813 0
M  V30 6856 H 633.524 0.309628 0.679809 0
M  V30 6857 H 636.186 1.39458 1.36153 0
M  V30 6858 H 635.282 1.20786 2.8778 0
M  V30 6859 N 635.583 -1.29855 0.893053 0
M  V30 6860 C 636.831 -1.9544 0.514566 0
M  V30 6861 C 637.152 -1.70795 -0.940959 0
M  V30 6862 O 636.422 -1.03601 -1.66264 0
M  V30 6863 H 635.002 -0.723137 0.187302 0
M  V30 6864 H 637.664 -1.58234 1.13789 0
M  V30 6865 H 636.76 -3.04341 0.691581 0
M  V30 6866 N 637.061 -0.65484 -1.43351 0
M  V30 6867 C 638.008 0.0357713 -2.30772 0
M  V30 6868 C 638.978 0.813035 -1.44841 0
M  V30 6869 O 640.163 0.789314 -1.73708 0
M  V30 6870 C 637.303 0.995084 -3.30442 0
M  V30 6871 C 636.416 0.21375 -4.31471 0
M  V30 6872 C 635.551 1.16701 -5.18222 0
M  V30 6873 C 634.59 0.376201 -6.10943 0
M  V30 6874 N 633.727 1.28113 -6.90313 0
M  V30 6875 H 638.567 -0.71559 -2.89281 0
M  V30 6876 H 636.104 -0.364645 -1.42509 0
M  V30 6877 H 638.062 1.5649 -3.86739 0
M  V30 6878 H 636.692 1.7133 -2.7358 0
M  V30 6879 H 635.744 -0.472377 -3.77456 0
M  V30 6880 H 637.056 -0.401103 -4.97185 0
M  V30 6881 H 636.21 1.8074 -5.79153 0
M  V30 6882 H 634.949 1.81577 -4.52638 0
M  V30 6883 H 633.954 -0.277534 -5.49099 0
M  V30 6884 H 635.179 -0.268178 -6.7857 0
M  V30 6885 H 633.125 1.91666 -6.27376 0
M  V30 6886 H 633.042 0.720879 -7.52555 0
M  V30 6887 H 634.31 1.90962 -7.55747 0
M  V30 6888 N 638.539 1.52521 -0.396863 0
M  V30 6889 C 639.769 2.05792 0.182485 0
M  V30 6890 C 640.177 1.26784 1.40436 0
M  V30 6891 O 639.52 0.309617 1.81072 0
M  V30 6892 C 639.582 3.54291 0.609781 0
M  V30 6893 C 639.246 4.5426 -0.499674 0
M  V30 6894 C 640.243 5.01812 -1.35944 0
M  V30 6895 C 637.928 4.97827 -0.668864 0
M  V30 6896 C 639.922 5.91562 -2.37346 0
M  V30 6897 C 637.609 5.87376 -1.68621 0
M  V30 6898 C 638.607 6.34137 -2.53692 0
M  V30 6899 O 638.295 7.21915 -3.53686 0
M  V30 6900 H 638.027 0.675362 0.0293583 0
M  V30 6901 H 640.581 1.97539 -0.56281 0
M  V30 6902 H 638.811 3.60188 1.40717 0
M  V30 6903 H 640.5 3.90267 1.11565 0
M  V30 6904 H 641.266 4.68879 -1.24008 0
M  V30 6905 H 637.145 4.60997 -0.0163971 0
M  V30 6906 H 640.689 6.27983 -3.03782 0
M  V30 6907 H 636.586 6.19723 -1.80593 0
M  V30 6908 H 637.354 7.39996 -3.49784 0
M  V30 6909 N 640.017 0.126909 1.57088 0
M  V30 6910 C 641.263 -0.529952 1.95753 0
M  V30 6911 C 641.596 -1.65823 1.01077 0
M  V30 6912 O 640.871 -1.94437 0.0494162 0
M  V30 6913 C 641.154 -1.05517 3.44294 0
M  V30 6914 C 641.007 0.0702253 4.49745 0
M  V30 6915 C 642.326 -1.9435 3.94862 0
M  V30 6916 H 639.445 -0.191168 0.711775 0
M  V30 6917 H 642.087 0.204071 1.88901 0
M  V30 6918 H 640.237 -1.68069 3.50264 0
M  V30 6919 H 641.909 0.705834 4.55868 0
M  V30 6920 H 640.152 0.732259 4.27575 0
M  V30 6921 H 640.823 -0.338642 5.5096 0
M  V30 6922 H 643.299 -1.41658 3.91244 0
M  V30 6923 H 642.175 -2.28015 4.993 0
M  V30 6924 H 642.436 -2.87299 3.36024 0
M  V30 6925 N 641.495 -1.56914 -0.146875 0
M  V30 6926 C 642.428 -1.93425 -1.21087 0
M  V30 6927 C 643.406 -0.800106 -1.41552 0
M  V30 6928 O 644.59 -1.05572 -1.56162 0
M  V30 6929 C 641.717 -2.20639 -2.56975 0
M  V30 6930 C 640.763 -3.43279 -2.53104 0
M  V30 6931 S 641.596 -4.96836 -1.99786 0
M  V30 6932 C 642.752 -5.27172 -3.37403 0
M  V30 6933 H 642.985 -2.8337 -0.899378 0
M  V30 6934 H 640.518 -1.50322 -0.352494 0
M  V30 6935 H 642.476 -2.36998 -3.35175 0
M  V30 6936 H 641.137 -1.31357 -2.85314 0
M  V30 6937 H 640.33 -3.59599 -3.53136 0
M  V30 6938 H 639.932 -3.26163 -1.83012 0
M  V30 6939 H 642.224 -5.20647 -4.33513 0
M  V30 6940 H 643.167 -6.28626 -3.25937 0
M  V30 6941 H 643.575 -4.54687 -3.34544 0
M  V30 6942 N 642.974 0.416227 -1.52004 0
M  V30 6943 C 644.204 1.18401 -1.69307 0
M  V30 6944 C 644.612 1.84943 -0.399072 0
M  V30 6945 O 643.955 1.72406 0.634177 0
M  V30 6946 C 644.017 2.29465 -2.76742 0
M  V30 6947 C 643.681 1.83117 -4.18709 0
M  V30 6948 C 644.678 1.32286 -5.02789 0
M  V30 6949 C 642.363 1.90167 -4.64911 0
M  V30 6950 C 644.357 0.891178 -6.31139 0
M  V30 6951 C 642.044 1.4661 -5.93253 0
M  V30 6952 C 643.042 0.961696 -6.76196 0
M  V30 6953 O 642.73 0.532388 -8.02135 0
M  V30 6954 H 642.462 0.362098 -0.570843 0
M  V30 6955 H 645.016 0.496764 -1.99302 0
M  V30 6956 H 643.246 3.01531 -2.42107 0
M  V30 6957 H 644.935 2.91252 -2.82713 0
M  V30 6958 H 645.701 1.26218 -4.68288 0
M  V30 6959 H 641.58 2.28371 -4.00459 0
M  V30 6960 H 645.124 0.496788 -6.95829 0
M  V30 6961 H 641.021 1.52355 -6.27263 0
M  V30 6962 H 641.789 0.656339 -8.15864 0
M  V30 6963 N 644.452 1.42507 0.673017 0
M  V30 6964 C 645.863 1.38347 1.25367 0
M  V30 6965 C 646.214 0.0776327 1.96046 0
M  V30 6966 O 645.339 -0.823571 2.00116 0
M  V30 6967 C 645.934 2.506 2.28002 0
M  V30 6968 C 644.493 2.49767 2.81591 0
M  V30 6969 C 643.64 2.293 1.55938 0
M  V30 6970 H 646.591 1.51695 0.466288 0
M  V30 6971 H 646.612 2.20953 3.09774 0
M  V30 6972 H 646.124 3.45627 1.76532 0
M  V30 6973 H 644.225 1.58563 3.37177 0
M  V30 6974 H 644.338 3.46867 3.30485 0
M  V30 6975 H 642.702 1.77594 1.82572 0
M  V30 6976 H 643.485 3.26385 1.06431 0
M  V30 6977 N 645.93 -0.909495 1.28709 0
M  V30 6978 C 647.179 -1.65365 1.15487 0
M  V30 6979 C 647.492 -1.93364 -0.294941 0
M  V30 6980 O 648.698 -2.65905 -0.548338 0
M  V30 6981 C 647.154 -2.97923 2.01916 0
M  V30 6982 C 646.762 -2.77556 3.51663 0
M  V30 6983 C 648.506 -3.75814 1.97393 0
M  V30 6984 C 646.413 -4.0578 4.30229 0
M  V30 6985 H 645.343 -0.620323 0.42862 0
M  V30 6986 H 647.994 -1.00894 1.53273 0
M  V30 6987 H 646.376 -3.63552 1.5699 0
M  V30 6988 H 647.55 -2.2058 4.04575 0
M  V30 6989 H 645.865 -2.13072 3.57756 0
M  V30 6990 H 648.462 -4.70866 2.53357 0
M  V30 6991 H 648.805 -4.05277 0.951643 0
M  V30 6992 H 649.338 -3.1701 2.40311 0
M  V30 6993 H 646.077 -3.81488 5.33055 0
M  V30 6994 H 645.597 -4.62351 3.82089 0
M  V30 6995 H 647.276 -4.74004 4.40374 0
M  V30 6996 N 647.408 -1.11026 -1.11852 0
M  V30 6997 C 648.371 -0.768006 -2.1595 0
M  V30 6998 C 649.371 0.210538 -1.59416 0
M  V30 6999 O 650.561 -0.0133978 -1.74195 0
M  V30 7000 C 647.693 -0.138678 -3.40618 0
M  V30 7001 H 648.886 -1.69012 -2.4774 0
M  V30 7002 H 646.439 -0.911578 -1.26964 0
M  V30 7003 H 647.174 0.793872 -3.14433 0
M  V30 7004 H 646.959 -0.843012 -3.8293 0
M  V30 7005 H 648.449 0.0848039 -4.17514 0
M  V30 7006 N 648.886 1.2938 -0.899927 0
M  V30 7007 C 650.132 1.9584 -0.526742 0
M  V30 7008 C 650.465 1.70774 0.924651 0
M  V30 7009 O 649.74 1.02084 1.65557 0
M  V30 7010 C 650.023 3.50638 -0.820062 0
M  V30 7011 C 649.876 3.85161 -2.32317 0
M  V30 7012 C 651.195 4.3903 -0.30671 0
M  V30 7013 H 648.314 0.711322 -0.192848 0
M  V30 7014 H 650.956 1.52992 -1.12665 0
M  V30 7015 H 649.106 3.87265 -0.309491 0
M  V30 7016 H 650.778 3.58477 -2.9033 0
M  V30 7017 H 649.021 3.32696 -2.78381 0
M  V30 7018 H 649.692 4.93204 -2.47898 0
M  V30 7019 H 652.168 4.09396 -0.743908 0
M  V30 7020 H 651.044 5.46226 -0.541144 0
M  V30 7021 H 651.305 4.34937 0.792588 0
M  V30 7022 N 650.364 0.662433 1.43002 0
M  V30 7023 C 651.589 0.186003 2.06564 0
M  V30 7024 C 652.014 -1.14314 1.49379 0
M  V30 7025 O 651.372 -1.70824 0.607346 0
M  V30 7026 C 651.42 0.118269 3.60406 0
M  V30 7027 O 650.524 -0.916859 4.02079 0
M  V30 7028 H 649.865 0.0990981 0.656563 0
M  V30 7029 H 652.395 0.907958 1.8335 0
M  V30 7030 H 652.405 -0.0619981 4.07953 0
M  V30 7031 H 651.08 1.08849 4.01403 0
M  V30 7032 H 649.657 -0.708635 3.66105 0
M  V30 7033 N 651.842 -1.52309 0.404946 0
M  V30 7034 C 653.09 -2.01368 -0.17186 0
M  V30 7035 C 653.411 -1.29261 -1.46002 0
M  V30 7036 O 652.681 -0.41729 -1.91404 0
M  V30 7037 H 651.261 -0.744034 -0.0664993 0
M  V30 7038 H 653.923 -1.87263 0.540228 0
M  V30 7039 H 653.019 -3.09888 -0.370957 0
M  V30 7040 N 653.32 -0.135238 -1.57019 0
M  V30 7041 C 654.597 0.563227 -1.87316 0
M  V30 7042 C 654.977 1.83749 -1.03921 0
M  V30 7043 O 654.325 2.2817 -0.122675 0
M  V30 7044 C 654.535 0.840031 -3.3874 0
M  V30 7045 C 655.883 1.18598 -4.077 0
M  V30 7046 O 656.907 0.92977 -3.43851 0
M  V30 7047 O 655.766 1.66758 -5.20436 0
M  V30 7048 H 652.86 0.285971 -0.775983 0
M  V30 7049 H 655.406 -0.170965 -1.68837 0
M  V30 7050 H 654.178 -0.0622785 -3.9125 0
M  V30 7051 H 653.801 1.62882 -3.62706 0
M  V30 7052 N 654.798 1.5699 0.138552 0
M  V30 7053 C 655.748 1.9532 1.17619 0
M  V30 7054 C 656.732 0.825545 1.38107 0
M  V30 7055 O 657.924 1.08908 1.39528 0
M  V30 7056 C 655.053 2.34451 2.50774 0
M  V30 7057 C 654.139 3.53805 2.33844 0
M  V30 7058 N 654.53 4.70088 1.86685 0
M  V30 7059 C 652.828 3.59055 2.64567 0
M  V30 7060 C 653.529 5.52165 1.82998 0
M  V30 7061 N 652.505 4.94108 2.26624 0
M  V30 7062 H 656.307 2.82694 0.803809 0
M  V30 7063 H 653.821 1.5866 0.346519 0
M  V30 7064 H 655.818 2.60119 3.25797 0
M  V30 7065 H 654.478 1.48431 2.88788 0
M  V30 7066 H 655.489 4.93681 1.56523 0
M  V30 7067 H 652.166 2.83596 3.06398 0
M  V30 7068 H 653.556 6.55407 1.47957 0
M  V30 7069 N 656.276 -0.40816 1.52223 0
M  V30 7070 C 657.186 -1.52202 1.78526 0
M  V30 7071 C 658.202 -1.60546 0.670892 0
M  V30 7072 O 659.378 -1.77242 0.956404 0
M  V30 7073 C 656.443 -2.87928 1.93128 0
M  V30 7074 C 655.504 -2.89463 3.17033 0
M  V30 7075 C 654.737 -4.18715 3.30929 0
M  V30 7076 O 654.96 -5.12662 2.50067 0
M  V30 7077 O 653.894 -4.27125 4.24084 0
M  V30 7078 H 657.72 -1.32911 2.73072 0
M  V30 7079 H 655.305 -0.594112 1.37079 0
M  V30 7080 H 657.187 -3.68426 2.04549 0
M  V30 7081 H 655.862 -3.07285 1.01772 0
M  V30 7082 H 654.769 -2.07815 3.11069 0
M  V30 7083 H 656.102 -2.75055 4.08174 0
M  V30 7084 N 657.755 -1.42862 -0.66545 0
M  V30 7085 C 658.703 -1.47319 -1.8 0
M  V30 7086 C 659.697 -0.347963 -1.65788 0
M  V30 7087 O 660.903 -0.521406 -1.72283 0
M  V30 7088 H 657.278 -0.461588 -0.593667 0
M  V30 7089 H 659.249 -2.42876 -1.7336 0
M  V30 7090 C 657.998 -1.40152 -3.18203 0
M  V30 7091 H 657.321 -2.26035 -3.2977 0
M  V30 7092 H 658.761 -1.47331 -3.9758 0
M  V30 7093 C 657.22 -0.117493 -3.36695 0
M  V30 7094 O 657.75 0.826058 -3.93115 0
M  V30 7095 N 655.956 -0.0316218 -2.90583 0
M  V30 7096 H 655.503 -0.800247 -2.44855 0
M  V30 7097 H 655.461 0.826835 -3.03333 0
M  V30 7098 N 659.233 0.902656 -1.29189 0
M  V30 7099 C 660.181 2.0278 -1.13943 0
M  V30 7100 C 661.175 1.69308 -0.055787 0
M  V30 7101 O 662.381 1.78707 -0.215371 0
M  V30 7102 H 658.756 0.664595 -0.351877 0
M  V30 7103 H 660.727 2.12778 -2.09208 0
M  V30 7104 C 659.476 3.37657 -0.82966 0
M  V30 7105 H 658.799 3.63913 -1.65551 0
M  V30 7106 H 660.239 4.17078 -0.762998 0
M  V30 7107 C 658.698 3.33648 0.466991 0
M  V30 7108 O 659.228 3.72886 1.49395 0
M  V30 7109 N 657.434 2.86745 0.471761 0
M  V30 7110 H 656.981 2.55009 -0.364406 0
M  V30 7111 H 656.939 2.84446 1.33933 0
M  V30 7112 N 660.711 1.11618 1.11262 0
M  V30 7113 C 661.658 0.7762 2.17356 0
M  V30 7114 C 662.628 -0.253152 1.6416 0
M  V30 7115 O 663.813 -0.129655 1.90359 0
M  V30 7116 C 660.953 0.227581 3.44349 0
M  V30 7117 C 660.066 1.31372 4.1154 0
M  V30 7118 C 659.201 0.72544 5.26223 0
M  V30 7119 C 658.24 1.7913 5.85302 0
M  V30 7120 N 657.377 1.22237 6.91377 0
M  V30 7121 H 662.217 1.68508 2.45783 0
M  V30 7122 H 659.754 0.841475 1.20655 0
M  V30 7123 H 661.712 -0.108483 4.17059 0
M  V30 7124 H 660.342 -0.644486 3.16301 0
M  V30 7125 H 659.394 1.7667 3.36885 0
M  V30 7126 H 660.706 2.12005 4.51504 0
M  V30 7127 H 659.86 0.339541 6.05749 0
M  V30 7128 H 658.599 -0.112188 4.87571 0
M  V30 7129 H 657.604 2.18648 5.04453 0
M  V30 7130 H 658.829 2.63199 6.26022 0
M  V30 7131 H 656.775 0.406423 6.5474 0
M  V30 7132 H 656.692 1.9654 7.30006 0
M  V30 7133 H 657.96 0.863426 7.74703 0
M  V30 7134 N 662.189 -1.289 0.906776 0
M  V30 7135 C 663.122 -2.25737 0.334362 0
M  V30 7136 C 664.1 -1.52745 -0.557474 0
M  V30 7137 O 665.284 -1.81673 -0.502697 0
M  V30 7138 C 662.411 -3.34642 -0.522716 0
M  V30 7139 C 661.457 -4.25424 0.302777 0
M  V30 7140 S 662.29 -5.07629 1.70508 0
M  V30 7141 C 663.446 -6.20031 0.855118 0
M  V30 7142 H 663.679 -2.73941 1.15514 0
M  V30 7143 H 661.212 -1.37233 0.707573 0
M  V30 7144 H 663.17 -3.97845 -1.01141 0
M  V30 7145 H 661.831 -2.85119 -1.31781 0
M  V30 7146 H 661.024 -5.02767 -0.352257 0
M  V30 7147 H 660.626 -3.66908 0.724873 0
M  V30 7148 H 662.918 -6.77451 0.0816418 0
M  V30 7149 H 663.861 -6.89767 1.60087 0
M  V30 7150 H 664.269 -5.63035 0.406375 0
M  V30 7151 N 663.667 -0.670007 -1.42649 0
M  V30 7152 C 664.914 -0.190286 -2.01604 0
M  V30 7153 C 665.242 1.20155 -1.52948 0
M  V30 7154 O 664.497 1.81964 -0.72026 0
M  V30 7155 C 664.796 -0.168298 -3.57004 0
M  V30 7156 C 664.462 -1.50415 -4.25072 0
M  V30 7157 C 663.124 -1.86992 -4.43382 0
M  V30 7158 C 665.476 -2.38414 -4.63474 0
M  V30 7159 C 662.804 -3.11203 -4.97363 0
M  V30 7160 C 665.156 -3.61933 -5.18833 0
M  V30 7161 C 663.82 -3.98685 -5.35356 0
M  V30 7162 H 663.09 -0.0696305 -0.737721 0
M  V30 7163 H 665.737 -0.864044 -1.70899 0
M  V30 7164 H 664.042 0.588958 -3.87348 0
M  V30 7165 H 665.739 0.22001 -4.00396 0
M  V30 7166 H 662.329 -1.20959 -4.11177 0
M  V30 7167 H 666.513 -2.11442 -4.49006 0
M  V30 7168 H 661.769 -3.39705 -5.08341 0
M  V30 7169 H 665.943 -4.30326 -5.47533 0
M  V30 7170 H 663.57 -4.95009 -5.76949 0
M  V30 7171 N 665.145 1.52092 -0.413018 0
M  V30 7172 C 666.37 2.06756 0.163338 0
M  V30 7173 C 666.795 1.28073 1.37764 0
M  V30 7174 O 666.153 0.312015 1.78595 0
M  V30 7175 C 666.201 3.57278 0.488322 0
M  V30 7176 O 665.305 3.80986 1.57871 0
M  V30 7177 H 664.646 0.663882 0.0125068 0
M  V30 7178 H 667.176 1.95988 -0.587339 0
M  V30 7179 H 667.186 4.01125 0.745836 0
M  V30 7180 H 665.861 4.13978 -0.399327 0
M  V30 7181 H 664.438 3.49017 1.31306 0
M  V30 7182 N 666.623 0.143563 1.56945 0
M  V30 7183 C 667.571 -0.814556 2.17871 0
M  V30 7184 C 668.565 -1.25778 1.13474 0
M  V30 7185 O 669.771 -1.22666 1.31731 0
M  V30 7186 H 666.146 -0.280873 0.697578 0
M  V30 7187 H 668.117 -0.276459 2.97117 0
M  V30 7188 C 666.866 -2.04503 2.81201 0
M  V30 7189 H 666.189 -1.71296 3.61245 0
M  V30 7190 H 667.629 -2.69493 3.27337 0
M  V30 7191 C 666.088 -2.85079 1.79532 0
M  V30 7192 O 666.618 -3.81306 1.26368 0
M  V30 7193 N 664.824 -2.49546 1.48913 0
M  V30 7194 H 664.371 -1.71359 1.92338 0
M  V30 7195 H 664.329 -3.03751 0.811348 0
M  V30 7196 N 668.101 -1.57061 -0.130224 0
M  V30 7197 C 669.341 -1.86071 -0.845993 0
M  V30 7198 C 669.705 -0.73009 -1.77577 0
M  V30 7199 O 670.906 -0.901663 -2.53226 0
M  V30 7200 C 669.177 -3.20293 -1.58579 0
M  V30 7201 S 670.736 -3.70905 -2.34467 0
M  V30 7202 H 667.554 -0.652434 -0.282579 0
M  V30 7203 H 670.156 -1.95218 -0.10498 0
M  V30 7204 H 668.86 -4.00533 -0.894509 0
M  V30 7205 H 668.391 -3.14195 -2.36739 0
M  V30 7206 H 670.406 -3.41509 -3.59981 0
M  V30 7207 N 669.579 0.400081 -1.52437 0
M  V30 7208 C 670.804 1.17221 -1.71096 0
M  V30 7209 C 671.229 1.83269 -0.423565 0
M  V30 7210 O 670.587 1.70378 0.619751 0
M  V30 7211 C 670.635 2.20425 -2.85386 0
M  V30 7212 O 669.739 3.26769 -2.51586 0
M  V30 7213 H 669.08 0.341766 -0.569291 0
M  V30 7214 H 671.61 0.467772 -1.99181 0
M  V30 7215 H 671.62 2.64605 -3.10561 0
M  V30 7216 H 670.295 1.71737 -3.78786 0
M  V30 7217 H 668.872 2.87804 -2.37114 0
M  V30 7218 N 671.057 1.43213 0.657864 0
M  V30 7219 C 672.004 1.48011 1.77092 0
M  V30 7220 C 672.974 0.330291 1.62783 0
M  V30 7221 O 674.159 0.536787 1.83094 0
M  V30 7222 C 671.299 1.40461 3.15222 0
M  V30 7223 C 670.412 2.65612 3.40697 0
M  V30 7224 C 669.547 2.50083 4.68649 0
M  V30 7225 C 668.586 3.70525 4.87214 0
M  V30 7226 N 667.723 3.53835 6.0642 0
M  V30 7227 H 672.563 2.43121 1.72326 0
M  V30 7228 H 670.1 1.20687 0.841013 0
M  V30 7229 H 672.058 1.34079 3.95068 0
M  V30 7230 H 670.688 0.489359 3.19069 0
M  V30 7231 H 669.74 2.82292 2.54982 0
M  V30 7232 H 671.052 3.5509 3.50303 0
M  V30 7233 H 670.206 2.41383 5.56614 0
M  V30 7234 H 668.945 1.58121 4.61356 0
M  V30 7235 H 667.95 3.79639 3.97686 0
M  V30 7236 H 669.175 4.63489 4.96341 0
M  V30 7237 H 667.121 2.64604 6.00267 0
M  V30 7238 H 667.038 4.36912 6.16963 0
M  V30 7239 H 668.306 3.48978 6.97019 0
M  V30 7240 N 672.536 -0.895792 1.29666 0
M  V30 7241 C 673.468 -2.00563 1.10937 0
M  V30 7242 C 674.481 -1.62705 0.055734 0
M  V30 7243 O 675.67 -1.7595 0.300656 0
M  V30 7244 C 672.77 -3.32262 0.667448 0
M  V30 7245 C 671.943 -3.98625 1.80047 0
M  V30 7246 C 671.002 -5.08617 1.3489 0
M  V30 7247 O 670.028 -5.30837 2.05429 0
M  V30 7248 N 671.23 -5.80076 0.221937 0
M  V30 7249 H 673.995 -2.17184 2.06522 0
M  V30 7250 H 671.556 -1.06822 1.21658 0
M  V30 7251 H 673.548 -4.03196 0.348586 0
M  V30 7252 H 672.118 -3.11985 -0.196055 0
M  V30 7253 H 671.338 -3.21005 2.28801 0
M  V30 7254 H 672.626 -4.39704 2.56003 0
M  V30 7255 H 672.024 -5.64514 -0.366084 0
M  V30 7256 H 670.581 -6.51789 -0.0375346 0
M  V30 7257 N 674.014 -1.12206 -1.10668 0
M  V30 7258 C 675.239 -0.898938 -1.86906 0
M  V30 7259 C 675.664 0.546346 -1.79991 0
M  V30 7260 O 675.022 1.38655 -1.1681 0
M  V30 7261 C 675.07 -1.37529 -3.33344 0
M  V30 7262 O 674.174 -0.55218 -4.08687 0
M  V30 7263 H 673.515 -0.323163 -0.580053 0
M  V30 7264 H 676.045 -1.49355 -1.39837 0
M  V30 7265 H 676.055 -1.3733 -3.84193 0
M  V30 7266 H 674.73 -2.42767 -3.37693 0
M  V30 7267 H 673.307 -0.620947 -3.67694 0
M  V30 7268 N 675.492 1.28418 -0.913599 0
M  V30 7269 C 676.741 1.94265 -0.542572 0
M  V30 7270 C 677.054 1.72709 0.918207 0
M  V30 7271 O 678.26 2.32778 1.39738 0
M  V30 7272 C 676.716 3.47956 -0.919507 0
M  V30 7273 C 676.324 3.78291 -2.4 0
M  V30 7274 C 678.068 4.19962 -0.619057 0
M  V30 7275 C 675.975 5.2529 -2.71707 0
M  V30 7276 H 674.905 0.727213 -0.199192 0
M  V30 7277 H 677.556 1.45931 -1.11249 0
M  V30 7278 H 675.938 3.9502 -0.278372 0
M  V30 7279 H 677.112 3.42035 -3.08786 0
M  V30 7280 H 675.427 3.19456 -2.67089 0
M  V30 7281 H 678.024 5.28178 -0.832623 0
M  V30 7282 H 678.367 4.13935 0.443126 0
M  V30 7283 H 678.9 3.78674 -1.21865 0
M  V30 7284 H 675.639 5.36394 -3.76778 0
M  V30 7285 H 675.159 5.62743 -2.07559 0
M  V30 7286 H 676.838 5.93027 -2.58703 0
M  V30 7287 N 676.97 0.677563 1.42291 0
M  V30 7288 C 678.2 0.209155 2.05539 0
M  V30 7289 C 678.608 -1.13987 1.51009 0
M  V30 7290 O 677.951 -1.71976 0.645764 0
M  V30 7291 C 678.013 0.0697758 3.59432 0
M  V30 7292 C 677.677 1.34795 4.36668 0
M  V30 7293 C 678.674 2.28201 4.67141 0
M  V30 7294 C 676.359 1.59632 4.76259 0
M  V30 7295 C 678.353 3.44718 5.36142 0
M  V30 7296 C 676.04 2.76437 5.45 0
M  V30 7297 C 677.038 3.68805 5.74867 0
M  V30 7298 O 676.726 4.83567 6.42198 0
M  V30 7299 H 676.458 0.0986202 0.668768 0
M  V30 7300 H 679.012 0.925483 1.83368 0
M  V30 7301 H 677.242 -0.702157 3.80272 0
M  V30 7302 H 678.931 -0.359115 4.04308 0
M  V30 7303 H 679.697 2.10264 4.37052 0
M  V30 7304 H 675.576 0.886073 4.52404 0
M  V30 7305 H 679.12 4.16833 5.59371 0
M  V30 7306 H 675.017 2.94299 5.74507 0
M  V30 7307 H 675.785 4.83147 6.6069 0
M  V30 7308 N 678.448 -1.51871 0.421078 0
M  V30 7309 C 679.395 -2.27334 -0.398508 0
M  V30 7310 C 680.365 -1.30241 -1.03085 0
M  V30 7311 O 681.55 -1.59121 -1.05285 0
M  V30 7312 C 678.69 -3.10664 -1.50272 0
M  V30 7313 C 677.803 -4.2273 -0.890122 0
M  V30 7314 C 676.938 -4.93399 -1.96803 0
M  V30 7315 C 675.977 -5.97409 -1.333 0
M  V30 7316 N 675.114 -6.61548 -2.35156 0
M  V30 7317 H 679.954 -2.96938 0.251411 0
M  V30 7318 H 677.491 -1.46472 0.135825 0
M  V30 7319 H 679.449 -3.57292 -2.15403 0
M  V30 7320 H 678.079 -2.43207 -2.1225 0
M  V30 7321 H 677.131 -3.80186 -0.127537 0
M  V30 7322 H 678.443 -4.97302 -0.386349 0
M  V30 7323 H 677.597 -5.43491 -2.69633 0
M  V30 7324 H 676.336 -4.18421 -2.50549 0
M  V30 7325 H 675.341 -5.46624 -0.59008 0
M  V30 7326 H 676.566 -6.74335 -0.803076 0
M  V30 7327 H 674.512 -5.89394 -2.88012 0
M  V30 7328 H 674.429 -7.31832 -1.89624 0
M  V30 7329 H 675.697 -7.16276 -3.0752 0
M  V30 7330 N 679.926 -0.151884 -1.56866 0
M  V30 7331 C 681.154 0.504813 -2.00647 0
M  V30 7332 C 681.569 1.58098 -1.03201 0
M  V30 7333 O 680.926 1.82476 -0.0297814 0
M  V30 7334 C 680.977 1.10099 -3.44326 0
M  V30 7335 O 680.698 0.0678021 -4.38048 0
M  V30 7336 C 682.199 1.83782 -4.03409 0
M  V30 7337 H 679.419 0.130989 -0.65809 0
M  V30 7338 H 681.963 -0.247903 -2.02992 0
M  V30 7339 H 680.118 1.8043 -3.42817 0
M  V30 7340 H 680.532 0.505237 -5.22061 0
M  V30 7341 H 682.006 2.2078 -5.05925 0
M  V30 7342 H 682.483 2.72557 -3.44397 0
M  V30 7343 H 683.089 1.18138 -4.08563 0
M  V30 7344 N 681.404 1.57128 0.121893 0
M  V30 7345 C 682.653 1.83888 0.828748 0
M  V30 7346 C 682.966 0.737087 1.81181 0
M  V30 7347 O 684.172 0.891007 2.56463 0
M  V30 7348 C 682.628 3.26014 1.52455 0
M  V30 7349 C 682.236 4.44195 0.58263 0
M  V30 7350 C 683.98 3.62025 2.21671 0
M  V30 7351 C 681.887 5.77349 1.28149 0
M  V30 7352 H 680.817 0.685856 0.313238 0
M  V30 7353 H 683.468 1.83319 0.0814851 0
M  V30 7354 H 681.85 3.21044 2.31834 0
M  V30 7355 H 683.024 4.60457 -0.177729 0
M  V30 7356 H 681.339 4.164 -0.00241228 0
M  V30 7357 H 683.936 4.58776 2.74643 0
M  V30 7358 H 684.279 2.89315 2.99337 0
M  V30 7359 H 684.812 3.68767 1.49184 0
M  V30 7360 H 681.551 6.53221 0.546189 0
M  V30 7361 H 681.071 5.64978 2.01394 0
M  V30 7362 H 682.75 6.21006 1.81549 0
M  V30 7363 N 682.882 -0.391992 1.52647 0
M  V30 7364 C 683.792 -1.503 1.80131 0
M  V30 7365 C 684.808 -1.59825 0.687882 0
M  V30 7366 O 685.984 -1.76218 0.975149 0
M  V30 7367 C 683.049 -2.85863 1.96171 0
M  V30 7368 C 682.11 -2.86084 3.20085 0
M  V30 7369 C 681.343 -4.15181 3.35351 0
M  V30 7370 O 681.566 -5.09981 2.55491 0
M  V30 7371 O 680.5 -4.22603 4.28591 0
M  V30 7372 H 684.326 -1.30007 2.74466 0
M  V30 7373 H 681.911 -0.579539 1.37701 0
M  V30 7374 H 683.793 -3.66236 2.08445 0
M  V30 7375 H 682.468 -3.06189 1.05025 0
M  V30 7376 H 681.375 -2.04504 3.13256 0
M  V30 7377 H 682.708 -2.7071 4.11068 0
M  V30 7378 N 684.36 -1.4356 -0.65026 0
M  V30 7379 C 685.585 -1.48995 -1.44275 0
M  V30 7380 C 686.01 -0.109954 -1.87778 0
M  V30 7381 O 685.368 0.896926 -1.57559 0
M  V30 7382 C 685.416 -2.44341 -2.65198 0
M  V30 7383 O 684.52 -1.93172 -3.6436 0
M  V30 7384 H 683.861 -0.503852 -0.432469 0
M  V30 7385 H 686.391 -1.88504 -0.795446 0
M  V30 7386 H 686.401 -2.61743 -3.12977 0
M  V30 7387 H 685.076 -3.44588 -2.32877 0
M  V30 7388 H 683.653 -1.85445 -3.23519 0
M  V30 7389 N 685.838 0.888903 -1.30139 0
M  V30 7390 C 686.785 1.99422 -1.16188 0
M  V30 7391 C 687.755 1.66017 -0.0523869 0
M  V30 7392 O 688.94 1.89506 -0.221864 0
M  V30 7393 C 686.08 3.34325 -0.855612 0
M  V30 7394 C 685.193 3.80445 -2.0466 0
M  V30 7395 C 684.328 5.03975 -1.67876 0
M  V30 7396 C 683.367 5.42492 -2.83493 0
M  V30 7397 N 682.504 6.57206 -2.47032 0
M  V30 7398 H 687.344 2.10687 -2.10749 0
M  V30 7399 H 684.881 1.03165 -1.04859 0
M  V30 7400 H 686.839 4.11968 -0.658681 0
M  V30 7401 H 685.469 3.22756 0.0531155 0
M  V30 7402 H 684.521 2.98745 -2.3549 0
M  V30 7403 H 685.833 4.04933 -2.91257 0
M  V30 7404 H 684.987 5.89232 -1.44535 0
M  V30 7405 H 683.726 4.8135 -0.784431 0
M  V30 7406 H 682.731 4.55764 -3.07505 0
M  V30 7407 H 683.956 5.67093 -3.73607 0
M  V30 7408 H 681.902 6.36164 -1.601 0
M  V30 7409 H 681.819 6.81543 -3.27161 0
M  V30 7410 H 683.087 7.45704 -2.27038 0
M  V30 7411 N 687.317 1.12792 1.10072 0
M  V30 7412 C 688.28 0.802264 2.14701 0
M  V30 7413 C 689.28 -0.18515 1.59731 0
M  V30 7414 O 690.47 0.041109 1.74151 0
M  V30 7415 C 687.602 0.19285 3.40354 0
M  V30 7416 H 688.795 1.72932 2.45019 0
M  V30 7417 H 686.348 0.931662 1.25498 0
M  V30 7418 H 687.083 -0.743748 3.15656 0
M  V30 7419 H 686.868 0.903827 3.81541 0
M  V30 7420 H 688.358 -0.0183704 4.17596 0
M  V30 7421 N 688.795 -1.27931 0.920396 0
M  V30 7422 C 689.727 -2.26175 0.371169 0
M  V30 7423 C 690.74 -1.55122 -0.494065 0
M  V30 7424 O 691.929 -1.75825 -0.30787 0
M  V30 7425 C 689.029 -3.35376 -0.487481 0
M  V30 7426 C 688.202 -4.35943 0.356772 0
M  V30 7427 C 687.261 -5.24374 -0.438042 0
M  V30 7428 O 686.287 -5.68998 0.151715 0
M  V30 7429 N 687.489 -5.53823 -1.73956 0
M  V30 7430 H 690.254 -2.73938 1.21564 0
M  V30 7431 H 687.815 -1.41482 0.787047 0
M  V30 7432 H 689.807 -3.91476 -1.02609 0
M  V30 7433 H 688.377 -2.87269 -1.23269 0
M  V30 7434 H 687.597 -3.7921 1.07672 0
M  V30 7435 H 688.885 -5.0015 0.934206 0
M  V30 7436 H 688.283 -5.19413 -2.24114 0
M  V30 7437 H 686.84 -6.12653 -2.22486 0
M  V30 7438 N 690.273 -0.685099 -1.4193 0
M  V30 7439 C 691.183 -0.013404 -2.34596 0
M  V30 7440 C 692.199 0.777589 -1.55658 0
M  V30 7441 O 693.375 0.717553 -1.88184 0
M  V30 7442 C 690.44 0.919031 -3.34297 0
M  V30 7443 C 689.501 0.121417 -4.29128 0
M  V30 7444 C 688.734 1.00944 -5.24067 0
M  V30 7445 O 688.957 2.24898 -5.24192 0
M  V30 7446 O 687.891 0.464724 -6.00103 0
M  V30 7447 H 691.717 -0.776978 -2.93593 0
M  V30 7448 H 689.302 -0.445379 -1.42607 0
M  V30 7449 H 691.184 1.45402 -3.9552 0
M  V30 7450 H 689.859 1.66228 -2.77759 0
M  V30 7451 H 688.766 -0.45792 -3.71287 0
M  V30 7452 H 690.099 -0.582937 -4.88736 0
M  V30 7453 N 691.751 1.51645 -0.429126 0
M  V30 7454 C 692.991 2.03924 0.139354 0
M  V30 7455 C 693.355 1.30673 1.40672 0
M  V30 7456 O 694.556 1.73282 2.05491 0
M  V30 7457 C 692.827 3.5557 0.361179 0
M  V30 7458 S 694.386 4.29591 0.894241 0
M  V30 7459 H 691.204 0.710103 0.0356986 0
M  V30 7460 H 693.806 1.86491 -0.586644 0
M  V30 7461 H 692.51 4.06455 -0.567686 0
M  V30 7462 H 692.041 3.77283 1.11449 0
M  V30 7463 H 694.056 4.46102 2.17272 0
M  V30 7464 N 693.229 0.160201 1.56784 0
M  V30 7465 C 694.476 -0.487588 1.96542 0
M  V30 7466 C 694.804 -1.63999 1.04569 0
M  V30 7467 O 694.059 -1.95546 0.0775211 0
M  V30 7468 C 694.358 -1.02259 3.42459 0
M  V30 7469 C 694.024 0.0127436 4.50898 0
M  V30 7470 C 692.686 0.297318 4.80281 0
M  V30 7471 C 695.038 0.716078 5.16257 0
M  V30 7472 C 692.366 1.29081 5.72324 0
M  V30 7473 C 694.718 1.69847 6.09372 0
M  V30 7474 C 693.382 1.99061 6.37127 0
M  V30 7475 H 692.652 -0.178421 0.719199 0
M  V30 7476 H 695.299 0.249818 1.89864 0
M  V30 7477 H 693.604 -1.8376 3.46034 0
M  V30 7478 H 695.301 -1.53261 3.70556 0
M  V30 7479 H 691.891 -0.219235 4.28039 0
M  V30 7480 H 696.075 0.509428 4.93679 0
M  V30 7481 H 691.331 1.52344 5.92116 0
M  V30 7482 H 695.505 2.2489 6.59088 0
M  V30 7483 H 693.132 2.76194 7.08252 0
M  V30 7484 N 694.707 -1.5719 -0.113559 0
M  V30 7485 C 695.639 -1.97393 -1.16484 0
M  V30 7486 C 696.652 -0.873964 -1.37352 0
M  V30 7487 O 697.841 -1.15222 -1.36331 0
M  V30 7488 C 694.941 -2.26174 -2.52386 0
M  V30 7489 C 694.114 -3.57479 -2.52046 0
M  V30 7490 C 693.173 -3.74409 -3.69735 0
M  V30 7491 O 692.199 -4.46463 -3.53071 0
M  V30 7492 N 693.401 -3.13588 -4.88511 0
M  V30 7493 H 696.166 -2.88184 -0.822814 0
M  V30 7494 H 693.727 -1.59044 -0.302769 0
M  V30 7495 H 695.719 -2.3471 -3.29687 0
M  V30 7496 H 694.289 -1.41483 -2.7875 0
M  V30 7497 H 693.509 -3.60081 -1.60421 0
M  V30 7498 H 694.797 -4.43775 -2.48881 0
M  V30 7499 H 694.195 -2.55026 -5.04953 0
M  V30 7500 H 692.752 -3.27637 -5.63469 0
M  V30 7501 N 696.185 0.383891 -1.52853 0
M  V30 7502 C 697.095 1.49343 -1.80925 0
M  V30 7503 C 698.111 1.59458 -0.696348 0
M  V30 7504 O 699.287 1.75698 -0.984481 0
M  V30 7505 C 696.352 2.84819 -1.97684 0
M  V30 7506 C 695.413 2.84382 -3.21598 0
M  V30 7507 C 694.646 4.13397 -3.37548 0
M  V30 7508 O 694.869 5.08619 -2.58192 0
M  V30 7509 O 693.803 4.20325 -4.30826 0
M  V30 7510 H 697.629 1.2855 -2.75152 0
M  V30 7511 H 695.214 0.572229 -1.38007 0
M  V30 7512 H 697.096 3.65125 -2.10385 0
M  V30 7513 H 695.771 3.05627 -1.06647 0
M  V30 7514 H 694.678 2.0284 -3.14336 0
M  V30 7515 H 696.011 2.68526 -4.12498 0
M  V30 7516 N 697.663 1.43903 0.642637 0
M  V30 7517 C 699.079 1.27536 0.959519 0
M  V30 7518 C 699.279 0.202751 2.00477 0
M  V30 7519 O 698.335 -0.415256 2.49062 0
M  V30 7520 C 699.648 2.6432 1.43372 0
M  V30 7521 C 701.196 2.71937 1.54981 0
M  V30 7522 C 701.671 4.09164 2.05789 0
M  V30 7523 N 703.162 4.11282 2.13076 0
M  V30 7524 C 703.897 5.14303 2.53534 0
M  V30 7525 N 703.393 6.27693 2.93212 0
M  V30 7526 N 705.186 5.01657 2.53567 0
M  V30 7527 H 697.337 2.12344 -0.0488376 0
M  V30 7528 H 699.6 0.947124 0.0407559 0
M  V30 7529 H 699.306 3.43826 0.740048 0
M  V30 7530 H 699.18 2.90432 2.40685 0
M  V30 7531 H 701.567 1.92757 2.23448 0
M  V30 7532 H 701.648 2.49578 0.560739 0
M  V30 7533 H 701.292 4.88815 1.37921 0
M  V30 7534 H 701.222 4.28893 3.05546 0
M  V30 7535 H 703.713 3.2944 1.85143 0
M  V30 7536 H 704.026 7.02125 3.22863 0
M  V30 7537 H 702.371 6.31149 2.90991 0
M  V30 7538 H 705.562 4.12134 2.21952 0
M  V30 7539 H 705.735 5.82072 2.84774 0
M  V30 7540 N 699.141 -0.881989 1.30609 0
M  V30 7541 C 700.366 -1.67236 1.22665 0
M  V30 7542 C 700.791 -1.8696 -0.206777 0
M  V30 7543 O 700.149 -1.4027 -1.14865 0
M  V30 7544 C 700.197 -3.02446 1.96363 0
M  V30 7545 O 699.301 -3.91614 1.29276 0
M  V30 7546 H 698.642 -0.510902 0.424117 0
M  V30 7547 H 701.172 -1.10055 1.72479 0
M  V30 7548 H 701.182 -3.52468 2.055 0
M  V30 7549 H 699.857 -2.8741 3.00613 0
M  V30 7550 H 698.434 -3.50055 1.28514 0
M  V30 7551 N 700.619 -1.13374 -1.09472 0
M  V30 7552 C 701.567 -0.806105 -2.18185 0
M  V30 7553 C 702.561 0.21136 -1.68076 0
M  V30 7554 O 703.767 0.0685558 -1.79869 0
M  V30 7555 H 700.142 -0.242901 -0.71169 0
M  V30 7556 H 702.113 -1.73115 -2.43051 0
M  V30 7557 C 700.862 -0.287928 -3.46506 0
M  V30 7558 H 700.185 -1.06217 -3.85432 0
M  V30 7559 H 701.625 -0.0971054 -4.23889 0
M  V30 7560 C 700.084 0.986256 -3.22141 0
M  V30 7561 O 700.614 2.06217 -3.44728 0
M  V30 7562 N 698.82 0.917153 -2.75747 0
M  V30 7563 H 698.367 0.0414609 -2.57567 0
M  V30 7564 H 698.325 1.77029 -2.59823 0
M  V30 7565 N 702.098 1.27442 -0.927168 0
M  V30 7566 C 703.045 2.26863 -0.424459 0
M  V30 7567 C 704.015 1.5813 0.508346 0
M  V30 7568 O 705.2 1.85946 0.42762 0
M  V30 7569 C 702.34 3.43639 0.31718 0
M  V30 7570 C 701.453 4.27087 -0.649675 0
M  V30 7571 C 700.588 5.31082 0.111753 0
M  V30 7572 C 699.627 6.062 -0.847843 0
M  V30 7573 N 698.764 7.01999 -0.119074 0
M  V30 7574 H 703.604 2.69239 -1.27728 0
M  V30 7575 H 701.141 1.32394 -0.641106 0
M  V30 7576 H 703.099 4.10155 0.763486 0
M  V30 7577 H 701.729 3.02217 1.13424 0
M  V30 7578 H 700.781 3.60491 -1.21451 0
M  V30 7579 H 702.093 4.79242 -1.38307 0
M  V30 7580 H 701.247 6.03544 0.618 0
M  V30 7581 H 699.986 4.7973 0.878114 0
M  V30 7582 H 698.991 5.32577 -1.36534 0
M  V30 7583 H 700.216 6.59642 -1.61398 0
M  V30 7584 H 698.162 6.52977 0.629051 0
M  V30 7585 H 698.079 7.5184 -0.792046 0
M  V30 7586 H 699.347 7.78638 0.366537 0
M  V30 7587 N 703.576 0.692616 1.41565 0
M  V30 7588 C 704.822 0.222664 2.01574 0
M  V30 7589 C 705.155 -1.1737 1.54719 0
M  V30 7590 O 704.43 -1.79161 0.757084 0
M  V30 7591 C 704.713 0.277064 3.59033 0
M  V30 7592 C 704.566 1.71016 4.16021 0
M  V30 7593 C 705.885 -0.36479 4.38586 0
M  V30 7594 H 703.004 0.0823839 0.732381 0
M  V30 7595 H 705.646 0.880778 1.68352 0
M  V30 7596 H 703.796 -0.283288 3.87466 0
M  V30 7597 H 705.468 2.32413 3.98475 0
M  V30 7598 H 703.711 2.24525 3.71175 0
M  V30 7599 H 704.382 1.69978 5.25178 0
M  V30 7600 H 706.858 0.112404 4.15948 0
M  V30 7601 H 705.734 -0.296169 5.481 0
M  V30 7602 H 705.995 -1.44506 4.17816 0
M  V30 7603 N 705.054 -1.51416 0.437162 0
M  V30 7604 C 706.294 -2.03995 -0.128538 0
M  V30 7605 C 706.658 -1.31417 -1.39977 0
M  V30 7606 O 707.859 -1.74369 -2.0457 0
M  V30 7607 C 706.13 -3.55757 -0.342317 0
M  V30 7608 S 707.689 -4.3006 -0.871446 0
M  V30 7609 H 704.507 -0.710283 -0.0319322 0
M  V30 7610 H 707.109 -1.86177 0.596526 0
M  V30 7611 H 705.813 -4.06148 0.589233 0
M  V30 7612 H 705.344 -3.77869 -1.09447 0
M  V30 7613 H 707.359 -4.47248 -2.14903 0
M  V30 7614 N 706.532 -0.168513 -1.56696 0
M  V30 7615 C 707.78 0.476216 -1.96409 0
M  V30 7616 C 708.101 1.63968 -1.05544 0
M  V30 7617 O 707.371 1.95525 -0.121235 0
M  V30 7618 H 705.951 0.178921 -0.725256 0
M  V30 7619 H 708.613 -0.249042 -1.93302 0
M  V30 7620 H 707.709 0.838094 -3.00637 0
M  V30 7621 N 708.01 1.57248 0.105221 0
M  V30 7622 C 708.958 2.02337 1.14728 0
M  V30 7623 C 709.952 0.922652 1.42069 0
M  V30 7624 O 711.158 1.10785 1.41869 0
M  V30 7625 H 707.533 0.644682 0.387155 0
M  V30 7626 H 709.504 2.89063 0.740607 0
M  V30 7627 C 708.253 2.45513 2.46209 0
M  V30 7628 H 707.576 3.29785 2.26013 0
M  V30 7629 H 709.016 2.80846 3.1765 0
M  V30 7630 C 707.475 1.3243 3.09781 0
M  V30 7631 O 708.005 0.647841 3.96442 0
M  V30 7632 N 706.211 1.07785 2.69872 0
M  V30 7633 H 705.758 1.62973 1.99493 0
M  V30 7634 H 705.716 0.323204 3.12734 0
M  V30 7635 N 709.488 -0.375779 1.53054 0
M  V30 7636 C 710.713 -1.14484 1.7294 0
M  V30 7637 C 711.138 -1.82572 0.452668 0
M  V30 7638 O 710.496 -1.71343 -0.592567 0
M  V30 7639 C 710.544 -2.15857 2.88857 0
M  V30 7640 O 709.648 -3.22725 2.56753 0
M  V30 7641 H 708.989 -0.332666 0.574656 0
M  V30 7642 H 711.519 -0.436025 1.999 0
M  V30 7643 H 711.529 -2.59631 3.14731 0
M  V30 7644 H 710.204 -1.65689 3.81471 0
M  V30 7645 H 708.781 -2.83996 2.41663 0
M  V30 7646 N 710.966 -1.44241 -0.634997 0
M  V30 7647 C 712.382 -1.28043 -0.952742 0
M  V30 7648 C 712.582 -0.21338 -2.00367 0
M  V30 7649 O 711.638 0.402042 -2.49279 0
M  V30 7650 C 712.951 -2.65076 -1.41968 0
M  V30 7651 C 714.499 -2.72755 -1.53537 0
M  V30 7652 C 714.974 -4.10249 -2.03616 0
M  V30 7653 N 716.465 -4.12406 -2.10892 0
M  V30 7654 C 717.2 -5.15641 -2.50803 0
M  V30 7655 N 716.696 -6.29239 -2.89879 0
M  V30 7656 N 718.489 -5.02995 -2.50903 0
M  V30 7657 H 710.64 -2.12315 0.060098 0
M  V30 7658 H 712.903 -0.947326 -0.0357325 0
M  V30 7659 H 712.609 -3.44213 -0.721804 0
M  V30 7660 H 712.483 -2.91704 -2.39141 0
M  V30 7661 H 714.87 -1.93939 -2.22422 0
M  V30 7662 H 714.951 -2.49872 -0.547496 0
M  V30 7663 H 714.595 -4.8954 -1.35327 0
M  V30 7664 H 714.525 -4.30507 -3.03268 0
M  V30 7665 H 717.016 -3.30417 -1.83393 0
M  V30 7666 H 717.329 -7.03827 -3.19135 0
M  V30 7667 H 715.674 -6.32683 -2.8764 0
M  V30 7668 H 718.865 -4.13306 -2.19763 0
M  V30 7669 H 719.038 -5.83574 -2.81683 0
M  V30 7670 N 712.444 0.87505 -1.31075 0
M  V30 7671 C 713.69 1.63009 -1.20647 0
M  V30 7672 C 714.023 1.9276 0.236045 0
M  V30 7673 O 713.298 1.55559 1.16754 0
M  V30 7674 C 713.581 2.96357 -2.0456 0
M  V30 7675 C 713.434 2.73516 -3.57084 0
M  V30 7676 C 714.753 3.974 -1.89107 0
M  V30 7677 H 711.872 0.591518 -0.439631 0
M  V30 7678 H 714.514 1.0119 -1.60812 0
M  V30 7679 H 712.664 3.49119 -1.70435 0
M  V30 7680 H 714.336 2.27465 -4.01319 0
M  V30 7681 H 712.579 2.0784 -3.80769 0
M  V30 7682 H 713.25 3.68377 -4.11099 0
M  V30 7683 H 715.726 3.5383 -2.18961 0
M  V30 7684 H 714.602 4.88596 -2.5013 0
M  V30 7685 H 714.863 4.33794 -0.85296 0
M  V30 7686 N 713.922 1.13953 1.08869 0
M  V30 7687 C 715.199 0.815768 1.77777 0
M  V30 7688 C 715.579 -0.691624 1.99449 0
M  V30 7689 O 714.927 -1.63085 1.60049 0
M  V30 7690 C 715.137 1.60916 3.09689 0
M  V30 7691 C 716.485 1.80549 3.84301 0
M  V30 7692 O 717.509 1.57562 3.19457 0
M  V30 7693 O 716.368 2.18946 5.00724 0
M  V30 7694 H 713.462 0.298445 0.771271 0
M  V30 7695 H 716.008 1.24446 1.15374 0
M  V30 7696 H 714.78 2.6333 2.89435 0
M  V30 7697 H 714.403 1.17578 3.79817 0
M  V30 7698 N 715.4 -1.26948 0.933913 0
M  V30 7699 C 716.31 -2.30366 0.443671 0
M  V30 7700 C 717.326 -1.67284 -0.478745 0
M  V30 7701 O 718.502 -1.98156 -0.360043 0
M  V30 7702 C 715.567 -3.45485 -0.289974 0
M  V30 7703 C 714.628 -4.24069 0.668114 0
M  V30 7704 C 713.861 -5.33691 -0.0306138 0
M  V30 7705 O 714.084 -5.5656 -1.24888 0
M  V30 7706 O 713.018 -5.98441 0.644384 0
M  V30 7707 H 716.844 -2.74349 1.30254 0
M  V30 7708 H 714.429 -1.32012 0.699506 0
M  V30 7709 H 716.311 -4.15486 -0.70353 0
M  V30 7710 H 714.986 -3.03546 -1.12435 0
M  V30 7711 H 713.893 -3.56579 1.13147 0
M  V30 7712 H 715.226 -4.69739 1.46989 0
M  V30 7713 N 716.879 -0.700114 -1.41195 0
M  V30 7714 C 718.127 -0.232546 -2.00758 0
M  V30 7715 C 718.448 1.1734 -1.55745 0
M  V30 7716 O 717.718 1.79262 -0.790058 0
M  V30 7717 H 716.298 -0.0829845 -0.742376 0
M  V30 7718 H 718.96 -0.902289 -1.72756 0
M  V30 7719 H 718.056 -0.253521 -3.11069 0
M  V30 7720 N 718.357 1.51182 -0.445186 0
M  V30 7721 C 719.267 2.31692 0.368255 0
M  V30 7722 C 720.283 1.40942 1.02036 0
M  V30 7723 O 721.459 1.74011 1.01401 0
M  V30 7724 C 718.524 3.14903 1.45041 0
M  V30 7725 C 717.585 4.21442 0.817615 0
M  V30 7726 C 716.818 5.00677 1.8482 0
M  V30 7727 O 717.041 4.80644 3.07145 0
M  V30 7728 O 715.975 5.84559 1.43438 0
M  V30 7729 H 719.801 3.0232 -0.289219 0
M  V30 7730 H 717.386 1.47951 -0.207555 0
M  V30 7731 H 719.268 3.66612 2.07783 0
M  V30 7732 H 717.943 2.47031 2.09182 0
M  V30 7733 H 716.85 3.73791 0.151931 0
M  V30 7734 H 718.183 4.9171 0.219564 0
M  V30 7735 N 719.835 0.176821 1.56605 0
M  V30 7736 C 720.745 -0.763682 2.21822 0
M  V30 7737 C 721.761 -1.24889 1.21156 0
M  V30 7738 O 722.937 -1.29987 1.53836 0
M  V30 7739 C 720.002 -1.97352 2.8505 0
M  V30 7740 C 719.063 -1.53466 4.00932 0
M  V30 7741 C 718.296 -2.68682 4.61135 0
M  V30 7742 O 718.519 -3.85694 4.20234 0
M  V30 7743 O 717.453 -2.42442 5.50913 0
M  V30 7744 H 721.279 -0.238363 3.02763 0
M  V30 7745 H 718.864 -0.0516331 1.49311 0
M  V30 7746 H 720.746 -2.68096 3.25119 0
M  V30 7747 H 719.421 -2.48779 2.07101 0
M  V30 7748 H 718.328 -0.796551 3.65521 0
M  V30 7749 H 719.661 -1.06724 4.8049 0
M  V30 7750 N 721.313 -1.57302 -0.09688 0
M  V30 7751 C 722.553 -1.87823 -0.806334 0
M  V30 7752 C 722.917 -0.767593 -1.75989 0
M  V30 7753 O 724.118 -0.955173 -2.51257 0
M  V30 7754 C 722.389 -3.23585 -1.51749 0
M  V30 7755 S 723.948 -3.75795 -2.26547 0
M  V30 7756 H 720.766 -0.658281 -0.268676 0
M  V30 7757 H 723.368 -1.95397 -0.0635476 0
M  V30 7758 H 722.072 -4.0234 -0.809348 0
M  V30 7759 H 721.603 -3.19145 -2.30021 0
M  V30 7760 H 723.618 -3.49068 -3.52656 0
M  V30 7761 N 722.791 0.367657 -1.53252 0
M  V30 7762 C 724.068 1.12606 -1.59935 0
M  V30 7763 C 724.448 2.07167 -0.405606 0
M  V30 7764 O 723.796 2.20364 0.604323 0
M  V30 7765 C 724.006 1.86699 -2.94863 0
M  V30 7766 C 725.354 2.41306 -3.49366 0
M  V30 7767 O 726.378 1.96828 -2.96879 0
M  V30 7768 O 725.237 3.2261 -4.41118 0
M  V30 7769 H 722.331 0.516438 -0.645926 0
M  V30 7770 H 724.877 0.371088 -1.65593 0
M  V30 7771 H 723.649 1.17674 -3.73187 0
M  V30 7772 H 723.272 2.6911 -2.92687 0
M  V30 7773 N 724.269 1.44576 0.627338 0
M  V30 7774 C 725.68 1.42266 1.20902 0
M  V30 7775 C 726.031 0.139964 1.957 0
M  V30 7776 O 725.156 -0.759489 2.02634 0
M  V30 7777 C 725.751 2.57727 2.19914 0
M  V30 7778 C 724.31 2.58599 2.73502 0
M  V30 7779 C 723.457 2.34145 1.48564 0
M  V30 7780 H 726.408 1.53102 0.417791 0
M  V30 7781 H 726.429 2.30697 3.02588 0
M  V30 7782 H 725.941 3.51068 1.65447 0
M  V30 7783 H 724.042 1.6921 3.31962 0
M  V30 7784 H 724.155 3.57205 3.19282 0
M  V30 7785 H 722.519 1.83313 1.76829 0
M  V30 7786 H 723.302 3.29606 0.959935 0
M  V30 7787 N 725.747 -0.868086 1.31537 0
M  V30 7788 C 726.995 -1.61807 1.21091 0
M  V30 7789 C 727.316 -1.93631 -0.230623 0
M  V30 7790 O 726.586 -1.5846 -1.15183 0
M  V30 7791 H 725.166 -0.599854 0.445178 0
M  V30 7792 H 727.828 -1.03915 1.64887 0
M  V30 7793 H 726.924 -2.56088 1.78396 0
M  V30 7794 N 727.225 -1.14528 -1.08264 0
M  V30 7795 C 728.474 -0.908992 -1.80056 0
M  V30 7796 C 728.787 0.565859 -1.87236 0
M  V30 7797 O 729.993 0.919454 -2.55457 0
M  V30 7798 C 728.449 -1.57681 -3.23519 0
M  V30 7799 C 728.057 -3.08803 -3.24569 0
M  V30 7800 C 729.801 -1.4217 -3.99985 0
M  V30 7801 C 727.708 -3.68414 -4.62629 0
M  V30 7802 H 726.638 -0.336432 -0.674781 0
M  V30 7803 H 729.289 -1.37437 -1.21587 0
M  V30 7804 H 727.671 -1.03911 -3.82124 0
M  V30 7805 H 728.845 -3.69252 -2.75663 0
M  V30 7806 H 727.16 -3.23968 -2.61598 0
M  V30 7807 H 729.757 -1.84106 -5.02005 0
M  V30 7808 H 730.1 -0.367989 -4.1467 0
M  V30 7809 H 730.633 -1.92984 -3.47853 0
M  V30 7810 H 727.372 -4.73644 -4.53147 0
M  V30 7811 H 726.892 -3.12746 -5.11811 0
M  V30 7812 H 728.571 -3.68793 -5.31602 0
M  V30 7813 N 728.703 1.26451 -0.940633 0
M  V30 7814 C 729.636 2.24771 -0.394094 0
M  V30 7815 C 730.614 1.54169 0.516781 0
M  V30 7816 O 731.798 1.82942 0.454352 0
M  V30 7817 C 728.925 3.3591 0.433807 0
M  V30 7818 C 727.971 4.24472 -0.415464 0
M  V30 7819 S 728.804 5.0293 -1.83907 0
M  V30 7820 C 729.96 6.17546 -1.01921 0
M  V30 7821 H 730.193 2.70782 -1.22737 0
M  V30 7822 H 727.726 1.35308 -0.743709 0
M  V30 7823 H 729.684 4.00387 0.905576 0
M  V30 7824 H 728.345 2.88512 1.24175 0
M  V30 7825 H 727.538 5.03525 0.218833 0
M  V30 7826 H 727.14 3.64857 -0.821897 0
M  V30 7827 H 729.432 6.76996 -0.261227 0
M  V30 7828 H 730.375 6.8528 -1.78318 0
M  V30 7829 H 730.783 5.6176 -0.555511 0
M  V30 7830 N 730.181 0.707592 1.40822 0
M  V30 7831 C 731.411 0.252706 2.05049 0
M  V30 7832 C 731.819 -1.10758 1.53393 0
M  V30 7833 O 731.162 -1.70567 0.682097 0
M  V30 7834 C 731.224 0.146001 3.59203 0
M  V30 7835 C 730.888 1.44027 4.33711 0
M  V30 7836 C 731.885 2.38058 4.62195 0
M  V30 7837 C 729.57 1.69698 4.72766 0
M  V30 7838 C 731.564 3.56013 5.28709 0
M  V30 7839 C 729.251 2.87936 5.39014 0
M  V30 7840 C 730.249 3.80915 5.66915 0
M  V30 7841 O 729.937 4.9708 6.31796 0
M  V30 7842 H 729.669 0.112784 0.666525 0
M  V30 7843 H 732.223 0.96417 1.81364 0
M  V30 7844 H 730.453 -0.621338 3.81676 0
M  V30 7845 H 732.142 -0.273275 4.04979 0
M  V30 7846 H 732.908 2.19487 4.32493 0
M  V30 7847 H 728.787 0.981835 4.50423 0
M  V30 7848 H 732.331 4.28604 5.50404 0
M  V30 7849 H 728.228 3.06419 5.68135 0
M  V30 7850 H 728.996 4.97053 6.50293 0
M  V30 7851 N 731.66 -1.50943 0.453197 0
M  V30 7852 C 732.59 -2.31005 -0.34044 0
M  V30 7853 C 733.571 -1.37112 -1.00669 0
M  V30 7854 O 734.756 -1.66033 -1.0073 0
M  V30 7855 C 731.886 -3.16358 -1.433 0
M  V30 7856 C 730.84 -4.18658 -0.889363 0
M  V30 7857 C 730.166 -4.92633 -2.07887 0
M  V30 7858 C 731.466 -5.22227 0.0871142 0
M  V30 7859 H 733.16 -2.97601 0.327723 0
M  V30 7860 H 730.706 -1.43119 0.159054 0
M  V30 7861 H 732.659 -3.71155 -1.99555 0
M  V30 7862 H 731.383 -2.47613 -2.12968 0
M  V30 7863 H 730.042 -3.64936 -0.348915 0
M  V30 7864 H 729.69 -4.20376 -2.76211 0
M  V30 7865 H 729.39 -5.61819 -1.72143 0
M  V30 7866 H 730.914 -5.50258 -2.64666 0
M  V30 7867 H 732.328 -5.72001 -0.385656 0
M  V30 7868 H 730.725 -5.99032 0.357926 0
M  V30 7869 H 731.795 -4.74077 1.01879 0
M  V30 7870 N 733.138 -0.185124 -1.56509 0
M  V30 7871 C 734.086 0.756505 -2.19954 0
M  V30 7872 C 735.08 1.22725 -1.16769 0
M  V30 7873 O 736.286 1.1913 -1.34937 0
M  V30 7874 H 732.661 0.262279 -0.704779 0
M  V30 7875 H 734.632 0.197587 -2.97745 0
M  V30 7876 C 733.381 1.96975 -2.86524 0
M  V30 7877 H 732.704 1.61658 -3.65659 0
M  V30 7878 H 734.144 2.60719 -3.34367 0
M  V30 7879 C 732.603 2.80219 -1.87027 0
M  V30 7880 O 733.133 3.77821 -1.36433 0
M  V30 7881 N 731.339 2.4551 -1.55477 0
M  V30 7882 H 730.886 1.66199 -1.96813 0
M  V30 7883 H 730.844 3.01493 -0.891597 0
M  V30 7884 N 734.616 1.57351 0.0885366 0
M  V30 7885 C 735.564 2.03542 1.12576 0
M  V30 7886 C 736.558 0.937668 1.41082 0
M  V30 7887 O 737.764 1.12283 1.40686 0
M  V30 7888 H 734.139 0.648752 0.380296 0
M  V30 7889 H 736.11 2.89833 0.709906 0
M  V30 7890 C 734.859 2.4811 2.43591 0
M  V30 7891 H 734.182 3.32164 2.22502 0
M  V30 7892 H 735.622 2.842 3.14653 0
M  V30 7893 C 734.081 1.35708 3.08359 0
M  V30 7894 O 734.611 0.689852 3.95732 0
M  V30 7895 N 732.817 1.10641 2.68713 0
M  V30 7896 H 732.364 1.6508 1.97753 0
M  V30 7897 H 732.322 0.356355 3.12374 0
M  V30 7898 N 736.094 -0.359525 1.53444 0
M  V30 7899 C 737.371 -1.11756 1.6053 0
M  V30 7900 C 737.751 -2.06949 0.416587 0
M  V30 7901 O 737.099 -2.20681 -0.592628 0
M  V30 7902 C 737.309 -1.85133 2.95849 0
M  V30 7903 C 738.657 -2.3945 3.50641 0
M  V30 7904 O 739.681 -1.95251 2.97918 0
M  V30 7905 O 738.54 -3.20266 4.42823 0
M  V30 7906 H 735.634 -0.513005 0.648656 0
M  V30 7907 H 738.18 -0.362301 1.65787 0
M  V30 7908 H 736.952 -1.15694 3.73806 0
M  V30 7909 H 736.575 -2.67554 2.9411 0
M  V30 7910 N 737.572 -1.44907 -0.619662 0
M  V30 7911 C 738.8 -1.51795 -1.40591 0
M  V30 7912 C 739.215 -0.146553 -1.8823 0
M  V30 7913 O 738.572 0.849698 -1.61513 0
M  V30 7914 C 738.623 -2.49229 -2.61853 0
M  V30 7915 O 738.344 -3.81039 -2.16197 0
M  V30 7916 C 739.845 -2.65696 -3.54853 0
M  V30 7917 H 737.065 -0.514463 -0.430777 0
M  V30 7918 H 739.609 -1.8998 -0.756813 0
M  V30 7919 H 737.764 -2.14149 -3.2283 0
M  V30 7920 H 738.178 -4.33747 -2.94896 0
M  V30 7921 H 739.652 -3.37874 -4.36515 0
M  V30 7922 H 740.129 -1.71316 -4.0441 0
M  V30 7923 H 740.735 -3.01724 -2.99737 0
M  V30 7924 N 739.05 0.861098 -1.31996 0
M  V30 7925 C 740.29 1.62873 -1.23498 0
M  V30 7926 C 740.654 1.90938 0.201692 0
M  V30 7927 O 741.855 2.6565 0.410305 0
M  V30 7928 C 740.126 2.91759 -2.06426 0
M  V30 7929 S 741.685 3.82583 -2.14885 0
M  V30 7930 H 738.503 0.558726 -0.439712 0
M  V30 7931 H 741.105 1.02025 -1.66767 0
M  V30 7932 H 739.809 2.69077 -3.0988 0
M  V30 7933 H 739.34 3.57627 -1.6391 0
M  V30 7934 H 741.355 4.7904 -1.29364 0
M  V30 7935 N 740.528 1.15101 1.07655 0
M  V30 7936 C 741.768 0.934462 1.81789 0
M  V30 7937 C 742.132 -0.529101 1.84566 0
M  V30 7938 O 743.333 -0.863868 2.5454 0
M  V30 7939 C 741.604 1.52817 3.23082 0
M  V30 7940 S 743.163 1.45429 4.14 0
M  V30 7941 H 739.981 0.336379 0.626395 0
M  V30 7942 H 742.583 1.46593 1.29347 0
M  V30 7943 H 741.287 2.58635 3.18647 0
M  V30 7944 H 740.818 0.995432 3.80598 0
M  V30 7945 H 742.833 0.445058 4.942 0
M  V30 7946 N 742.006 -1.2595 0.947325 0
M  V30 7947 C 742.954 -2.28152 0.452687 0
M  V30 7948 C 743.948 -1.62655 -0.473239 0
M  V30 7949 O 745.154 -1.76549 -0.350774 0
M  V30 7950 H 741.529 -0.741049 0.12787 0
M  V30 7951 H 743.5 -2.67267 1.32707 0
M  V30 7952 C 742.249 -3.46719 -0.26098 0
M  V30 7953 H 741.572 -3.97345 0.442352 0
M  V30 7954 H 743.012 -4.20135 -0.571208 0
M  V30 7955 C 741.471 -3.02605 -1.48094 0
M  V30 7956 O 742.001 -3.07979 -2.57899 0
M  V30 7957 N 740.207 -2.57877 -1.33969 0
M  V30 7958 H 739.754 -2.53704 -0.446295 0
M  V30 7959 H 739.712 -2.28725 -2.15713 0
M  V30 7960 N 743.484 -0.715051 -1.40445 0
M  V30 7961 C 744.709 -0.26254 -2.05732 0
M  V30 7962 C 745.134 1.08691 -1.53519 0
M  V30 7963 O 744.492 1.68453 -0.670328 0
M  V30 7964 C 744.54 -0.25195 -3.59719 0
M  V30 7965 O 743.644 0.766998 -4.05205 0
M  V30 7966 H 742.985 -0.123398 -0.652433 0
M  V30 7967 H 745.515 -0.975382 -1.79854 0
M  V30 7968 H 745.525 -0.0894537 -4.07902 0
M  V30 7969 H 744.2 -1.23672 -3.97087 0
M  V30 7970 H 742.777 0.572269 -3.68483 0
M  V30 7971 N 744.962 1.50701 -0.461195 0
M  V30 7972 C 746.239 1.94958 0.158296 0
M  V30 7973 C 746.619 1.40111 1.57899 0
M  V30 7974 O 745.967 0.597976 2.20537 0
M  V30 7975 C 746.177 3.48821 0.11172 0
M  V30 7976 C 747.525 4.23499 0.30552 0
M  V30 7977 O 748.549 3.557 0.188758 0
M  V30 7978 O 747.408 5.43823 0.540244 0
M  V30 7979 H 744.502 0.818674 0.117054 0
M  V30 7980 H 747.048 1.61508 -0.520888 0
M  V30 7981 H 745.82 3.81263 -0.880577 0
M  V30 7982 H 745.443 3.88781 0.832791 0
M  V30 7983 N 746.441 0.193421 1.56409 0
M  V30 7984 C 747.681 -0.447977 1.9943 0
M  V30 7985 C 748.045 -1.58915 1.07751 0
M  V30 7986 O 749.246 -2.29462 1.40002 0
M  V30 7987 C 747.517 -0.89793 3.45936 0
M  V30 7988 S 749.076 -1.5374 4.10986 0
M  V30 7989 H 745.894 -0.143316 0.696406 0
M  V30 7990 H 748.496 0.296093 1.93245 0
M  V30 7991 H 747.2 -0.0572927 4.1036 0
M  V30 7992 H 746.731 -1.67551 3.55936 0
M  V30 7993 H 748.746 -2.82612 4.07854 0
M  V30 7994 N 747.919 -1.57396 -0.0801906 0
M  V30 7995 C 749.147 -1.91055 -0.794075 0
M  V30 7996 C 749.562 -0.788583 -1.71542 0
M  V30 7997 O 748.919 0.238587 -1.80934 0
M  V30 7998 C 748.97 -3.24418 -1.59484 0
M  V30 7999 O 748.691 -4.323 -0.710532 0
M  V30 8000 C 750.192 -3.72037 -2.41046 0
M  V30 8001 H 747.412 -0.63171 -0.226238 0
M  V30 8002 H 749.956 -2.04431 -0.0529685 0
M  V30 8003 H 748.111 -3.12595 -2.2883 0
M  V30 8004 H 748.525 -5.08976 -1.26663 0
M  V30 8005 H 749.999 -4.68006 -2.92702 0
M  V30 8006 H 750.476 -3.00624 -3.2019 0
M  V30 8007 H 751.082 -3.86777 -1.76871 0
M  V30 8008 N 749.397 0.351382 -1.53633 0
M  V30 8009 C 750.327 1.43688 -1.84055 0
M  V30 8010 C 751.308 1.55251 -0.695073 0
M  V30 8011 O 752.493 1.69587 -0.946257 0
M  V30 8012 C 749.623 2.80843 -2.04315 0
M  V30 8013 C 748.577 2.84094 -3.20117 0
M  V30 8014 C 747.903 4.2406 -3.25696 0
M  V30 8015 C 749.203 2.50334 -4.58399 0
M  V30 8016 H 750.897 1.18478 -2.74961 0
M  V30 8017 H 748.443 0.568509 -1.32303 0
M  V30 8018 H 750.396 3.56821 -2.2418 0
M  V30 8019 H 749.12 3.07471 -1.10132 0
M  V30 8020 H 747.779 2.10568 -3.00094 0
M  V30 8021 H 747.427 4.47785 -2.29123 0
M  V30 8022 H 747.127 4.27147 -4.03509 0
M  V30 8023 H 748.651 5.0189 -3.47762 0
M  V30 8024 H 750.065 3.16025 -4.78332 0
M  V30 8025 H 748.462 2.64717 -5.38558 0
M  V30 8026 H 749.532 1.45542 -4.62543 0
M  V30 8027 N 750.875 1.45233 0.611969 0
M  V30 8028 C 751.822 1.5357 1.72293 0
M  V30 8029 C 752.792 0.381912 1.6165 0
M  V30 8030 O 753.977 0.594765 1.81293 0
M  V30 8031 C 751.117 1.50419 3.10593 0
M  V30 8032 C 750.23 2.76316 3.32074 0
M  V30 8033 C 749.365 2.64866 4.60456 0
M  V30 8034 C 748.404 3.85838 4.7518 0
M  V30 8035 N 747.541 3.72949 5.94856 0
M  V30 8036 H 752.381 2.4848 1.64504 0
M  V30 8037 H 749.918 1.23302 0.802191 0
M  V30 8038 H 751.876 1.4658 3.90602 0
M  V30 8039 H 750.506 0.590621 3.17351 0
M  V30 8040 H 749.558 2.90261 2.45872 0
M  V30 8041 H 750.87 3.66055 3.38829 0
M  V30 8042 H 750.024 2.58969 5.48653 0
M  V30 8043 H 748.763 1.72719 4.56092 0
M  V30 8044 H 747.768 3.92099 3.85407 0
M  V30 8045 H 748.993 4.79045 4.81344 0
M  V30 8046 H 746.939 2.83567 5.91545 0
M  V30 8047 H 746.856 4.56319 6.02751 0
M  V30 8048 H 748.124 3.70976 6.85563 0
M  V30 8049 N 752.353 -0.854086 1.3245 0
M  V30 8050 C 753.263 -1.99503 1.23434 0
M  V30 8051 C 754.279 -1.73371 0.147828 0
M  V30 8052 O 755.455 -1.97998 0.368609 0
M  V30 8053 C 752.52 -3.33192 0.958328 0
M  V30 8054 C 751.581 -3.72542 2.13333 0
M  V30 8055 C 750.814 -4.99852 1.8704 0
M  V30 8056 O 751.037 -5.64573 0.813239 0
M  V30 8057 O 749.971 -5.36345 2.73161 0
M  V30 8058 H 753.797 -2.10046 2.1935 0
M  V30 8059 H 751.382 -0.984823 1.12346 0
M  V30 8060 H 753.264 -4.13327 0.820918 0
M  V30 8061 H 751.939 -3.23687 0.0293299 0
M  V30 8062 H 750.846 -2.92981 2.32622 0
M  V30 8063 H 752.179 -3.86694 3.04514 0
M  V30 8064 N 753.831 -1.1567 -1.07043 0
M  V30 8065 C 755.079 -0.931673 -1.79344 0
M  V30 8066 C 755.4 0.542421 -1.87304 0
M  V30 8067 O 754.67 1.39418 -1.37621 0
M  V30 8068 H 753.25 -0.34171 -0.664262 0
M  V30 8069 H 755.912 -1.45795 -1.29344 0
M  V30 8070 H 755.008 -1.34379 -2.81689 0
M  V30 8071 N 755.309 1.25446 -0.953992 0
M  V30 8072 C 756.555 1.9343 -0.60933 0
M  V30 8073 C 756.888 1.74542 0.851388 0
M  V30 8074 O 756.163 1.09014 1.61078 0
M  V30 8075 C 756.446 3.46844 -0.968041 0
M  V30 8076 C 756.299 3.74961 -2.48444 0
M  V30 8077 C 757.618 4.37334 -0.492641 0
M  V30 8078 H 754.737 0.702502 -0.222844 0
M  V30 8079 H 757.379 1.48076 -1.19053 0
M  V30 8080 H 755.529 3.85604 -0.473465 0
M  V30 8081 H 757.201 3.45841 -3.05273 0
M  V30 8082 H 755.444 3.20589 -2.92241 0
M  V30 8083 H 756.115 4.82246 -2.68594 0
M  V30 8084 H 758.591 4.05873 -0.916878 0
M  V30 8085 H 757.467 5.43439 -0.772331 0
M  V30 8086 H 757.728 4.37908 0.607403 0
M  V30 8087 N 756.787 0.722489 1.40064 0
M  V30 8088 C 757.719 0.0349057 2.29173 0
M  V30 8089 C 758.732 -0.716571 1.46182 0
M  V30 8090 O 759.921 -0.562806 1.69395 0
M  V30 8091 C 757.021 -0.974839 3.24577 0
M  V30 8092 C 756.194 -0.287471 4.36454 0
M  V30 8093 C 755.253 -1.20356 5.12251 0
M  V30 8094 O 754.279 -0.685753 5.65054 0
M  V30 8095 N 755.481 -2.53422 5.22262 0
M  V30 8096 H 758.246 0.800058 2.88824 0
M  V30 8097 H 755.807 0.57068 1.51509 0
M  V30 8098 H 757.799 -1.59002 3.72157 0
M  V30 8099 H 756.369 -1.6413 2.66046 0
M  V30 8100 H 755.589 0.508008 3.90913 0
M  V30 8101 H 756.877 0.189382 5.08447 0
M  V30 8102 H 756.275 -2.97981 4.80857 0
M  V30 8103 H 754.832 -3.10067 5.73325 0
M  V30 8104 N 758.265 -1.50454 0.469181 0
M  V30 8105 C 759.505 -2.04222 -0.0852381 0
M  V30 8106 C 759.869 -1.34357 -1.37158 0
M  V30 8107 O 761.07 -1.78669 -2.00825 0
M  V30 8108 C 759.341 -3.56403 -0.266778 0
M  V30 8109 S 760.9 -4.31811 -0.780028 0
M  V30 8110 H 757.718 -0.7108 -0.0168589 0
M  V30 8111 H 760.32 -1.8487 0.635883 0
M  V30 8112 H 759.024 -4.04807 0.67525 0
M  V30 8113 H 758.555 -3.80106 -1.01407 0
M  V30 8114 H 760.57 -4.51706 -2.05368 0
M  V30 8115 N 759.743 -0.201713 -1.56304 0
M  V30 8116 C 760.968 0.443815 -2.02596 0
M  V30 8117 C 761.393 1.53945 -1.08086 0
M  V30 8118 O 760.751 1.81182 -0.0655056 0
M  V30 8119 C 760.799 0.971066 -3.47279 0
M  V30 8120 O 759.903 2.0836 -3.55893 0
M  V30 8121 H 759.244 0.10294 -0.655972 0
M  V30 8122 H 761.774 -0.314533 -2.02168 0
M  V30 8123 H 761.784 1.28598 -3.87204 0
M  V30 8124 H 760.459 0.169048 -4.15556 0
M  V30 8125 H 759.036 1.77683 -3.27846 0
M  V30 8126 N 761.222 1.57436 0.0718424 0
M  V30 8127 C 762.499 1.78312 0.804006 0
M  V30 8128 C 762.879 0.789273 1.9579 0
M  V30 8129 O 762.227 -0.177605 2.27809 0
M  V30 8130 C 762.437 3.24798 1.277 0
M  V30 8131 C 763.785 3.88627 1.71039 0
M  V30 8132 O 764.809 3.28689 1.37266 0
M  V30 8133 O 763.668 4.94073 2.33567 0
M  V30 8134 H 760.762 0.73178 0.385262 0
M  V30 8135 H 763.308 1.69621 0.0519219 0
M  V30 8136 H 762.08 3.88688 0.45134 0
M  V30 8137 H 761.703 3.38213 2.0904 0
M  V30 8138 N 762.7 -0.34323 1.53817 0
M  V30 8139 C 764.116 -0.686355 1.44088 0
M  V30 8140 C 764.316 -1.92426 0.597882 0
M  V30 8141 O 763.372 -2.52343 0.0889918 0
M  V30 8142 C 764.685 -0.878698 2.87575 0
M  V30 8143 C 766.233 -0.977296 2.97352 0
M  V30 8144 C 766.708 -1.20195 4.41947 0
M  V30 8145 N 768.199 -1.26915 4.45474 0
M  V30 8146 C 768.934 -1.46049 5.54488 0
M  V30 8147 N 768.43 -1.62354 6.73508 0
M  V30 8148 N 770.223 -1.48599 5.42102 0
M  V30 8149 H 762.374 0.470679 2.07119 0
M  V30 8150 H 764.637 0.148652 0.936273 0
M  V30 8151 H 764.343 -0.040602 3.51677 0
M  V30 8152 H 764.217 -1.78034 3.32541 0
M  V30 8153 H 766.604 -1.80591 2.3339 0
M  V30 8154 H 766.685 -0.0525498 2.55746 0
M  V30 8155 H 766.329 -0.378262 5.06489 0
M  V30 8156 H 766.259 -2.14027 4.81145 0
M  V30 8157 H 768.75 -1.15837 3.59708 0
M  V30 8158 H 769.063 -1.76591 7.52353 0
M  V30 8159 H 767.408 -1.5949 6.76453 0
M  V30 8160 H 770.599 -1.35443 4.48077 0
M  V30 8161 H 770.772 -1.6317 6.2712 0
M  V30 8162 N 764.178 -1.45556 -0.604258 0
M  V30 8163 C 765.126 -1.5482 -1.7359 0
M  V30 8164 C 766.12 -0.417966 -1.64163 0
M  V30 8165 O 767.326 -0.594007 -1.69916 0
M  V30 8166 H 763.701 -0.486352 -0.573556 0
M  V30 8167 H 765.672 -2.5001 -1.62903 0
M  V30 8168 C 764.421 -1.53521 -3.11972 0
M  V30 8169 H 763.744 -2.39818 -3.19886 0
M  V30 8170 H 765.184 -1.64061 -3.90973 0
M  V30 8171 C 763.643 -0.260191 -3.35894 0
M  V30 8172 O 764.173 0.658582 -3.96265 0
M  V30 8173 N 762.379 -0.154839 -2.90187 0
M  V30 8174 H 761.926 -0.903378 -2.4124 0
M  V30 8175 H 761.884 0.697437 -3.06567 0
M  V30 8176 N 765.656 0.84705 -1.32902 0
M  V30 8177 C 766.881 1.63925 -1.27056 0
M  V30 8178 C 767.306 1.87443 0.157136 0
M  V30 8179 O 766.664 1.43266 1.11106 0
M  V30 8180 C 766.712 2.97134 -2.04313 0
M  V30 8181 O 765.816 3.88049 -1.39614 0
M  V30 8182 H 765.157 0.499477 -0.437514 0
M  V30 8183 H 767.687 1.05443 -1.75336 0
M  V30 8184 H 767.697 3.46896 -2.14772 0
M  V30 8185 H 766.372 2.79339 -3.08128 0
M  V30 8186 H 764.949 3.46525 -1.3775 0
M  V30 8187 N 767.134 1.16236 1.06428 0
M  V30 8188 C 768.545 0.950942 1.60667 0
M  V30 8189 C 768.896 -0.505491 1.89576 0
M  V30 8190 O 768.021 -1.37843 1.66818 0
M  V30 8191 C 768.616 1.71982 2.91904 0
M  V30 8192 C 767.175 1.55342 3.4285 0
M  V30 8193 C 766.322 1.72942 2.16763 0
M  V30 8194 H 769.273 1.31126 0.893959 0
M  V30 8195 H 769.294 1.19483 3.61253 0
M  V30 8196 H 768.806 2.77978 2.70831 0
M  V30 8197 H 766.907 0.5178 3.68985 0
M  V30 8198 H 767.02 2.33643 4.18267 0
M  V30 8199 H 765.384 1.15673 2.26918 0
M  V30 8200 H 766.167 2.80324 1.98175 0
M  V30 8201 N 768.612 -1.24939 0.960631 0
M  V30 8202 C 769.852 -1.94565 0.626414 0
M  V30 8203 C 770.216 -1.73505 -0.822184 0
M  V30 8204 O 771.417 -2.37105 -1.26628 0
M  V30 8205 C 769.688 -3.43631 0.982462 0
M  V30 8206 S 771.247 -4.32138 0.761726 0
M  V30 8207 H 768.065 -0.672757 0.230043 0
M  V30 8208 H 770.667 -1.51464 1.23608 0
M  V30 8209 H 769.371 -3.56463 2.03377 0
M  V30 8210 H 768.902 -3.91719 0.363286 0
M  V30 8211 H 770.917 -4.94859 -0.364493 0
M  V30 8212 N 770.09 -0.729906 -1.39679 0
M  V30 8213 C 771.33 -0.280232 -2.0247 0
M  V30 8214 C 771.694 1.11006 -1.56658 0
M  V30 8215 O 772.895 1.65753 -2.11612 0
M  V30 8216 C 771.166 -0.372922 -3.55449 0
M  V30 8217 S 772.725 -0.00233974 -4.388 0
M  V30 8218 H 769.543 -0.110139 -0.702418 0
M  V30 8219 H 772.145 -0.955296 -1.70571 0
M  V30 8220 H 770.849 -1.38616 -3.86282 0
M  V30 8221 H 770.38 0.320136 -3.92095 0
M  V30 8222 H 772.395 1.21544 -4.81084 0
M  V30 8223 N 771.568 1.50203 -0.477153 0
M  V30 8224 C 772.515 2.28656 0.31386 0
M  V30 8225 C 773.485 1.33977 0.981802 0
M  V30 8226 O 774.67 1.62919 0.993072 0
M  V30 8227 C 771.81 3.16027 1.38639 0
M  V30 8228 C 770.923 4.25743 0.732615 0
M  V30 8229 C 770.058 5.00363 1.78355 0
M  V30 8230 C 769.097 6.01945 1.11035 0
M  V30 8231 N 768.234 6.6982 2.10441 0
M  V30 8232 H 773.074 2.958 -0.361445 0
M  V30 8233 H 770.611 1.45867 -0.190093 0
M  V30 8234 H 772.569 3.6504 2.01994 0
M  V30 8235 H 771.199 2.50917 2.03077 0
M  V30 8236 H 770.251 3.80398 -0.0136546 0
M  V30 8237 H 771.563 4.98393 0.201513 0
M  V30 8238 H 770.717 5.53124 2.49276 0
M  V30 8239 H 769.456 4.27432 2.34847 0
M  V30 8240 H 768.461 5.48438 0.386797 0
M  V30 8241 H 769.686 6.76851 0.552248 0
M  V30 8242 H 767.632 5.99677 2.65939 0
M  V30 8243 H 767.549 7.38366 1.62332 0
M  V30 8244 H 768.817 7.27196 2.80724 0
M  V30 8245 N 773.046 0.209999 1.56195 0
M  V30 8246 C 773.994 -0.721416 2.2113 0
M  V30 8247 C 774.988 -1.20852 1.18706 0
M  V30 8248 O 776.194 -1.16968 1.36815 0
M  V30 8249 H 772.569 -0.251033 0.708863 0
M  V30 8250 H 774.54 -0.150193 2.98022 0
M  V30 8251 C 773.289 -1.92392 2.89621 0
M  V30 8252 H 772.612 -1.5582 3.68185 0
M  V30 8253 H 774.052 -2.55367 3.38473 0
M  V30 8254 C 772.511 -2.77208 1.91461 0
M  V30 8255 O 773.041 -3.75603 1.42426 0
M  V30 8256 N 771.247 -2.43006 1.59363 0
M  V30 8257 H 770.794 -1.63047 1.99433 0
M  V30 8258 H 770.752 -3.00036 0.939449 0
M  V30 8259 N 774.524 -1.57472 -0.0634922 0
M  V30 8260 C 775.764 -1.89491 -0.766312 0
M  V30 8261 C 776.128 -0.80475 -1.74321 0
M  V30 8262 O 777.329 -1.00825 -2.49174 0
M  V30 8263 C 775.6 -3.26731 -1.44851 0
M  V30 8264 S 777.159 -3.80516 -2.18525 0
M  V30 8265 H 773.977 -0.663832 -0.254653 0
M  V30 8266 H 776.579 -1.95488 -0.0220867 0
M  V30 8267 H 775.283 -4.03967 -0.723824 0
M  V30 8268 H 774.814 -3.23953 -2.232 0
M  V30 8269 H 776.829 -3.5647 -3.45172 0
M  V30 8270 N 776.003 0.335068 -1.53997 0
M  V30 8271 C 776.935 1.4327 -1.78903 0
M  V30 8272 C 777.948 1.48347 -0.670598 0
M  V30 8273 O 779.137 1.51277 -0.947494 0
M  V30 8274 C 776.237 2.81878 -1.88144 0
M  V30 8275 C 775.41 3.00141 -3.18174 0
M  V30 8276 C 774.469 4.19041 -3.18263 0
M  V30 8277 O 773.495 4.12751 -3.9195 0
M  V30 8278 N 774.697 5.28004 -2.41231 0
M  V30 8279 H 777.462 1.22272 -2.73623 0
M  V30 8280 H 775.023 0.524996 -1.53152 0
M  V30 8281 H 777.015 3.59609 -1.85644 0
M  V30 8282 H 775.585 2.9598 -1.00572 0
M  V30 8283 H 774.805 2.09808 -3.33728 0
M  V30 8284 H 776.093 3.0923 -4.04047 0
M  V30 8285 H 775.491 5.35986 -1.8093 0
M  V30 8286 H 774.048 6.04196 -2.44521 0
M  V30 8287 N 777.481 1.45874 0.596531 0
M  V30 8288 C 778.728 1.50467 1.35521 0
M  V30 8289 C 779.056 0.150802 1.93915 0
M  V30 8290 O 778.311 -0.851913 1.76184 0
M  V30 8291 C 778.61 2.54034 2.51399 0
M  V30 8292 C 778.276 3.9844 2.11085 0
M  V30 8293 C 776.938 4.37758 1.99804 0
M  V30 8294 C 779.29 4.89209 1.79788 0
M  V30 8295 C 776.618 5.65727 1.55465 0
M  V30 8296 C 778.97 6.17602 1.36931 0
M  V30 8297 C 777.634 6.5584 1.24218 0
M  V30 8298 H 776.904 0.550597 0.495907 0
M  V30 8299 H 779.551 1.79279 0.673145 0
M  V30 8300 H 777.856 2.18832 3.24992 0
M  V30 8301 H 779.553 2.54822 3.09624 0
M  V30 8302 H 776.143 3.67353 2.20794 0
M  V30 8303 H 780.327 4.59562 1.87395 0
M  V30 8304 H 775.583 5.94139 1.44253 0
M  V30 8305 H 779.757 6.87373 1.11764 0
M  V30 8306 H 777.384 7.54897 0.896353 0
M  V30 8307 N 778.959 -0.83999 1.33349 0
M  V30 8308 C 779.869 -1.98182 1.25543 0
M  V30 8309 C 780.885 -1.73204 0.166208 0
M  V30 8310 O 782.061 -1.97596 0.389589 0
M  V30 8311 C 779.126 -3.32157 0.993614 0
M  V30 8312 C 778.187 -3.70258 2.17273 0
M  V30 8313 C 777.42 -4.9784 1.92331 0
M  V30 8314 O 777.643 -5.63679 0.873074 0
M  V30 8315 O 776.577 -5.33418 2.78835 0
M  V30 8316 H 780.403 -2.07708 2.21565 0
M  V30 8317 H 777.988 -0.972852 1.13384 0
M  V30 8318 H 779.87 -4.12433 0.864711 0
M  V30 8319 H 778.545 -3.23637 0.0636596 0
M  V30 8320 H 777.452 -2.90497 2.35716 0
M  V30 8321 H 778.785 -3.83442 3.08598 0
M  V30 8322 N 780.437 -1.16799 -1.0581 0
M  V30 8323 C 781.665 -0.97687 -1.82387 0
M  V30 8324 C 782.08 0.474917 -1.82729 0
M  V30 8325 O 781.437 1.3297 -1.25001 0
M  V30 8326 C 781.488 -1.50279 -3.28783 0
M  V30 8327 O 781.209 -2.89772 -3.28578 0
M  V30 8328 C 782.71 -1.35538 -4.22071 0
M  V30 8329 H 779.93 -0.345977 -0.574927 0
M  V30 8330 H 782.474 -1.54942 -1.33466 0
M  V30 8331 H 780.629 -0.972414 -3.74997 0
M  V30 8332 H 781.043 -3.13954 -4.20159 0
M  V30 8333 H 782.517 -1.7716 -5.22799 0
M  V30 8334 H 782.994 -0.301598 -4.38163 0
M  V30 8335 H 783.6 -1.87562 -3.81708 0
M  V30 8336 N 781.915 1.24427 -0.967243 0
M  V30 8337 C 782.878 2.23637 -0.501927 0
M  V30 8338 C 783.878 1.55712 0.401283 0
M  V30 8339 O 785.068 1.73085 0.196808 0
M  V30 8340 C 782.2 3.39804 0.273176 0
M  V30 8341 H 783.393 2.66317 -1.37897 0
M  V30 8342 H 780.946 1.37033 -0.751783 0
M  V30 8343 H 781.681 3.02562 1.16733 0
M  V30 8344 H 781.466 3.90303 -0.37498 0
M  V30 8345 H 782.956 4.13443 0.587776 0
M  V30 8346 N 783.393 0.737304 1.3929 0
M  V30 8347 C 784.325 0.0592106 2.29124 0
M  V30 8348 C 785.338 -0.701026 1.46934 0
M  V30 8349 O 786.527 -0.544808 1.69983 0
M  V30 8350 C 783.627 -0.940358 3.25592 0
M  V30 8351 C 782.8 -0.241163 4.36735 0
M  V30 8352 C 781.859 -1.14916 5.13498 0
M  V30 8353 O 780.885 -0.625783 5.6575 0
M  V30 8354 N 782.087 -2.47869 5.2492 0
M  V30 8355 H 784.852 0.830647 2.87959 0
M  V30 8356 H 782.413 0.586718 1.50895 0
M  V30 8357 H 784.405 -1.55046 3.73822 0
M  V30 8358 H 782.975 -1.61299 2.67771 0
M  V30 8359 H 782.195 0.549441 3.90352 0
M  V30 8360 H 783.483 0.243299 5.08218 0
M  V30 8361 H 782.881 -2.92864 4.83991 0
M  V30 8362 H 781.438 -3.03969 5.76581 0
M  V30 8363 N 784.871 -1.49948 0.485112 0
M  V30 8364 C 785.818 -2.28819 -0.301729 0
M  V30 8365 C 786.788 -1.34496 -0.974683 0
M  V30 8366 O 787.973 -1.63444 -0.984418 0
M  V30 8367 C 785.113 -3.16758 -1.36961 0
M  V30 8368 C 784.226 -4.26125 -0.710027 0
M  V30 8369 C 783.361 -5.01302 -1.75699 0
M  V30 8370 C 782.4 -6.02525 -1.07841 0
M  V30 8371 N 781.537 -6.70927 -2.06886 0
M  V30 8372 H 786.377 -2.95604 0.377127 0
M  V30 8373 H 783.914 -1.45764 0.197826 0
M  V30 8374 H 785.872 -3.66106 -2.00056 0
M  V30 8375 H 784.502 -2.51991 -2.01744 0
M  V30 8376 H 783.554 -3.80385 0.0338278 0
M  V30 8377 H 784.866 -4.98493 -0.175079 0
M  V30 8378 H 784.02 -5.54438 -2.46339 0
M  V30 8379 H 782.759 -4.28672 -2.32577 0
M  V30 8380 H 781.764 -5.48635 -0.357706 0
M  V30 8381 H 782.989 -6.77134 -0.516345 0
M  V30 8382 H 780.935 -6.01079 -2.62755 0
M  V30 8383 H 780.852 -7.39216 -1.58414 0
M  V30 8384 H 782.12 -7.28675 -2.76863 0
M  V30 8385 N 786.349 -0.21828 -1.56081 0
M  V30 8386 C 787.296 0.693189 -2.20144 0
M  V30 8387 C 788.266 1.19274 -1.15598 0
M  V30 8388 O 789.451 1.25243 -1.4394 0
M  V30 8389 C 786.591 1.89715 -2.88275 0
M  V30 8390 C 785.704 1.4368 -4.07407 0
M  V30 8391 C 784.839 2.59807 -4.63329 0
M  V30 8392 C 783.878 2.10492 -5.74769 0
M  V30 8393 N 783.015 3.1988 -6.24997 0
M  V30 8394 H 787.855 0.14016 -2.9767 0
M  V30 8395 H 785.392 0.0574292 -1.46988 0
M  V30 8396 H 787.35 2.60398 -3.25958 0
M  V30 8397 H 785.98 2.42311 -2.13273 0
M  V30 8398 H 785.032 0.625007 -3.7523 0
M  V30 8399 H 786.344 1.03517 -4.8794 0
M  V30 8400 H 785.498 3.38577 -5.03438 0
M  V30 8401 H 784.237 3.03256 -3.81951 0
M  V30 8402 H 783.242 1.30182 -5.34165 0
M  V30 8403 H 784.467 1.68045 -6.5798 0
M  V30 8404 H 782.413 3.62817 -5.46534 0
M  V30 8405 H 782.33 2.83958 -7.00645 0
M  V30 8406 H 783.598 3.98796 -6.69763 0
M  V30 8407 N 787.827 1.57504 0.0551401 0
M  V30 8408 C 789.067 1.89895 0.756252 0
M  V30 8409 C 789.431 0.813983 1.73892 0
M  V30 8410 O 790.632 1.02145 2.48636 0
M  V30 8411 C 788.903 3.27494 1.43116 0
M  V30 8412 S 790.462 3.81669 2.16504 0
M  V30 8413 H 787.28 0.665173 0.251129 0
M  V30 8414 H 789.882 1.95496 0.0117193 0
M  V30 8415 H 788.586 4.04345 0.702391 0
M  V30 8416 H 788.117 3.25132 2.21479 0
M  V30 8417 H 790.132 3.58295 3.43277 0
M  V30 8418 N 789.305 -0.326896 1.54172 0
M  V30 8419 C 790.237 -1.42319 1.79661 0
M  V30 8420 C 791.25 -1.47989 0.678456 0
M  V30 8421 O 792.439 -1.50773 0.955503 0
M  V30 8422 C 789.539 -2.80876 1.89636 0
M  V30 8423 C 788.712 -2.98449 3.19761 0
M  V30 8424 C 787.771 -4.17347 3.2048 0
M  V30 8425 O 786.797 -4.10667 3.94134 0
M  V30 8426 N 787.999 -5.26717 2.44027 0
M  V30 8427 H 790.764 -1.20819 2.74268 0
M  V30 8428 H 788.325 -0.516866 1.53428 0
M  V30 8429 H 790.317 -3.58619 1.87549 0
M  V30 8430 H 788.887 -2.95442 1.02141 0
M  V30 8431 H 788.107 -2.08035 3.34836 0
M  V30 8432 H 789.395 -3.07083 4.05681 0
M  V30 8433 H 788.793 -5.35019 1.8377 0
M  V30 8434 H 787.35 -6.02891 2.47721 0
M  V30 8435 N 790.784 -1.46188 -0.588786 0
M  V30 8436 C 791.694 -1.58865 -1.72624 0
M  V30 8437 C 792.71 -0.472348 -1.67466 0
M  V30 8438 O 793.886 -0.735638 -1.87484 0
M  V30 8439 C 790.951 -1.56989 -3.0912 0
M  V30 8440 C 790.012 -2.79804 -3.25589 0
M  V30 8441 C 789.245 -2.78009 -4.55573 0
M  V30 8442 O 789.468 -1.86406 -5.39082 0
M  V30 8443 O 788.402 -3.6947 -4.75159 0
M  V30 8444 H 792.228 -2.55047 -1.64878 0
M  V30 8445 H 789.813 -1.28912 -0.755115 0
M  V30 8446 H 791.695 -1.58618 -3.90408 0
M  V30 8447 H 790.37 -0.639648 -3.17317 0
M  V30 8448 H 789.277 -2.83732 -2.43818 0
M  V30 8449 H 790.61 -3.72017 -3.22279 0
M  V30 8450 N 792.262 0.832906 -1.33792 0
M  V30 8451 C 793.225 1.92471 -1.24449 0
M  V30 8452 C 794.225 1.59981 -0.162085 0
M  V30 8453 O 795.415 1.69208 -0.414029 0
M  V30 8454 C 792.547 3.28278 -0.919044 0
M  V30 8455 H 793.74 2.0218 -2.21502 0
M  V30 8456 H 791.293 1.0257 -1.17936 0
M  V30 8457 H 792.028 3.24263 0.048738 0
M  V30 8458 H 791.813 3.53241 -1.70187 0
M  V30 8459 H 793.303 4.08253 -0.878576 0
M  V30 8460 N 793.74 1.17359 1.05189 0
M  V30 8461 C 794.989 0.956412 1.77583 0
M  V30 8462 C 795.302 -0.516018 1.88671 0
M  V30 8463 O 796.508 -0.851401 2.57805 0
M  V30 8464 C 794.964 1.66203 3.19225 0
M  V30 8465 C 794.572 3.17299 3.16267 0
M  V30 8466 C 796.316 1.52725 3.96075 0
M  V30 8467 C 794.223 3.8055 4.52698 0
M  V30 8468 H 793.153 0.354204 0.665624 0
M  V30 8469 H 795.804 1.40612 1.17901 0
M  V30 8470 H 794.186 1.14006 3.79234 0
M  V30 8471 H 795.36 3.76431 2.65776 0
M  V30 8472 H 793.675 3.3079 2.52917 0
M  V30 8473 H 796.272 1.97351 4.96947 0
M  V30 8474 H 796.615 0.477803 4.13549 0
M  V30 8475 H 797.148 2.02139 3.42614 0
M  V30 8476 H 793.887 4.85492 4.4043 0
M  V30 8477 H 793.407 3.26206 5.03339 0
M  V30 8478 H 795.086 3.82757 5.21638 0
M  V30 8479 N 795.218 -1.23913 0.973828 0
M  V30 8480 C 796.166 -2.27141 0.50098 0
M  V30 8481 C 797.16 -1.63623 -0.438631 0
M  V30 8482 O 798.366 -1.77253 -0.313247 0
M  V30 8483 H 794.741 -0.73817 0.14356 0
M  V30 8484 H 796.712 -2.64392 1.38346 0
M  V30 8485 C 795.461 -3.47195 -0.187377 0
M  V30 8486 H 794.784 -3.96318 0.526535 0
M  V30 8487 H 796.224 -4.21252 -0.481962 0
M  V30 8488 C 794.683 -3.05678 -1.41642 0
M  V30 8489 O 795.213 -3.1338 -2.51309 0
M  V30 8490 N 793.419 -2.60661 -1.28469 0
M  V30 8491 H 792.966 -2.54594 -0.39238 0
M  V30 8492 H 792.924 -2.33249 -2.10813 0
M  V30 8493 N 796.696 -0.74468 -1.38897 0
M  V30 8494 C 797.659 -0.11945 -2.28889 0
M  V30 8495 C 798.659 0.656942 -1.46768 0
M  V30 8496 O 799.849 0.484525 -1.67326 0
M  V30 8497 C 796.981 0.839635 -3.30398 0
M  V30 8498 H 798.174 -0.912414 -2.85683 0
M  V30 8499 H 795.727 -0.511119 -1.47707 0
M  V30 8500 H 796.462 1.6586 -2.78677 0
M  V30 8501 H 796.247 0.285432 -3.9106 0
M  V30 8502 H 797.737 1.27337 -3.97712 0
M  V30 8503 N 798.174 1.49689 -0.493057 0
M  V30 8504 C 799.402 2.06836 0.0513141 0
M  V30 8505 C 799.817 1.35436 1.31539 0
M  V30 8506 O 799.174 0.430248 1.77356 0
M  V30 8507 C 799.225 3.60107 0.317003 0
M  V30 8508 O 798.946 4.2882 -0.896957 0
M  V30 8509 C 800.447 4.33945 0.905902 0
M  V30 8510 H 797.667 0.670787 -0.0169048 0
M  V30 8511 H 800.211 1.92574 -0.688139 0
M  V30 8512 H 798.366 3.74099 1.00642 0
M  V30 8513 H 798.78 5.20395 -0.654939 0
M  V30 8514 H 800.254 5.42087 1.04144 0
M  V30 8515 H 800.731 3.95895 1.90168 0
M  V30 8516 H 801.337 4.2454 0.254195 0
M  V30 8517 N 799.652 0.226554 1.55963 0
M  V30 8518 C 800.892 -0.405574 2.00336 0
M  V30 8519 C 801.256 -1.56593 1.11097 0
M  V30 8520 O 802.457 -2.26441 1.44838 0
M  V30 8521 C 800.728 -0.82435 3.47763 0
M  V30 8522 S 802.287 -1.44988 4.14154 0
M  V30 8523 H 799.105 -0.128512 0.699289 0
M  V30 8524 H 801.707 0.337017 1.92573 0
M  V30 8525 H 800.411 0.0297636 4.10389 0
M  V30 8526 H 799.942 -1.59963 3.5941 0
M  V30 8527 H 801.957 -2.73897 4.13757 0
M  V30 8528 N 801.13 -1.57531 -0.0467866 0
M  V30 8529 C 802.077 -2.05387 -1.05285 0
M  V30 8530 C 803.047 -0.939385 -1.36985 0
M  V30 8531 O 804.232 -1.20877 -1.47626 0
M  V30 8532 C 801.372 -2.52343 -2.35408 0
M  V30 8533 C 800.485 -3.77512 -2.10022 0
M  V30 8534 C 799.62 -4.1315 -3.33887 0
M  V30 8535 C 798.659 -5.31286 -3.03976 0
M  V30 8536 N 797.796 -5.62441 -4.20243 0
M  V30 8537 H 802.636 -2.91095 -0.637788 0
M  V30 8538 H 800.173 -1.43939 -0.303322 0
M  V30 8539 H 802.131 -2.77628 -3.11413 0
M  V30 8540 H 800.761 -1.69577 -2.7467 0
M  V30 8541 H 799.813 -3.59417 -1.24594 0
M  V30 8542 H 801.125 -4.63644 -1.83945 0
M  V30 8543 H 800.279 -4.39469 -4.18273 0
M  V30 8544 H 799.018 -3.25634 -3.63062 0
M  V30 8545 H 798.023 -5.04738 -2.17991 0
M  V30 8546 H 799.248 -6.20441 -2.76098 0
M  V30 8547 H 797.194 -4.77885 -4.49402 0
M  V30 8548 H 797.111 -6.43046 -3.97528 0
M  V30 8549 H 798.379 -5.93327 -5.05553 0
M  V30 8550 N 802.608 0.318715 -1.54344 0
M  V30 8551 C 803.856 1.054 -1.72439 0
M  V30 8552 C 804.177 1.88388 -0.503495 0
M  V30 8553 O 803.447 1.89866 0.48246 0
M  V30 8554 H 802.027 0.392124 -0.635805 0
M  V30 8555 H 804.689 0.35398 -1.91659 0
M  V30 8556 H 803.785 1.71726 -2.60608 0
M  V30 8557 N 804.086 1.46499 0.581025 0
M  V30 8558 C 805.332 1.52121 1.34116 0
M  V30 8559 C 805.665 0.173031 1.93428 0
M  V30 8560 O 804.94 -0.815729 1.76568 0
M  V30 8561 C 805.223 2.62108 2.46924 0
M  V30 8562 C 805.076 4.06462 1.92636 0
M  V30 8563 C 806.395 2.68167 3.48962 0
M  V30 8564 H 803.514 0.5538 0.486287 0
M  V30 8565 H 806.156 1.78443 0.652538 0
M  V30 8566 H 804.306 2.39794 3.05665 0
M  V30 8567 H 805.978 4.40068 1.3834 0
M  V30 8568 H 804.221 4.15862 1.23455 0
M  V30 8569 H 804.892 4.79152 2.74076 0
M  V30 8570 H 807.368 2.8823 3.00104 0
M  V30 8571 H 806.244 3.46942 4.2535 0
M  V30 8572 H 806.505 1.74284 4.06297 0
M  V30 8573 N 805.565 -0.825799 1.34232 0
M  V30 8574 C 806.79 -1.61883 1.29648 0
M  V30 8575 C 807.215 -1.87669 -0.127295 0
M  V30 8576 O 806.573 -1.45016 -1.08813 0
M  V30 8577 C 806.621 -2.93846 2.09014 0
M  V30 8578 O 805.725 -3.85778 1.4577 0
M  V30 8579 H 805.066 -0.492454 0.445405 0
M  V30 8580 H 807.596 -1.02641 1.76992 0
M  V30 8581 H 807.606 -3.43435 2.20264 0
M  V30 8582 H 806.281 -2.74401 3.12533 0
M  V30 8583 H 804.858 -3.4429 1.43245 0
M  V30 8584 N 807.043 -1.17915 -1.04565 0
M  V30 8585 C 808.273 -0.994716 -1.81077 0
M  V30 8586 C 808.681 0.460146 -1.83519 0
M  V30 8587 O 808.024 1.33136 -1.26572 0
M  V30 8588 C 808.086 -1.46698 -3.28207 0
M  V30 8589 C 807.75 -2.94523 -3.49436 0
M  V30 8590 C 808.747 -3.92414 -3.41038 0
M  V30 8591 C 806.432 -3.32841 -3.76194 0
M  V30 8592 C 808.426 -5.2662 -3.59096 0
M  V30 8593 C 806.113 -4.67212 -3.93899 0
M  V30 8594 C 807.111 -5.6391 -3.8535 0
M  V30 8595 O 806.799 -6.95849 -4.02554 0
M  V30 8596 H 806.531 -0.351797 -0.577248 0
M  V30 8597 H 809.085 -1.56772 -1.32709 0
M  V30 8598 H 807.315 -0.837592 -3.7752 0
M  V30 8599 H 809.004 -1.24724 -3.86263 0
M  V30 8600 H 809.77 -3.64157 -3.20336 0
M  V30 8601 H 805.649 -2.58139 -3.81949 0
M  V30 8602 H 809.193 -6.02082 -3.52339 0
M  V30 8603 H 805.09 -4.95172 -4.14095 0
M  V30 8604 H 805.858 -7.02679 -4.19743 0
M  V30 8605 N 808.521 1.23394 -0.980386 0
M  V30 8606 C 809.761 1.93543 -0.657288 0
M  V30 8607 C 810.125 1.74791 0.794477 0
M  V30 8608 O 811.326 2.39089 1.2284 0
M  V30 8609 C 809.597 3.42025 -1.03701 0
M  V30 8610 S 811.156 4.30871 -0.830379 0
M  V30 8611 H 807.974 0.669012 -0.240717 0
M  V30 8612 H 810.576 1.49478 -1.26002 0
M  V30 8613 H 809.28 3.53183 -2.09022 0
M  V30 8614 H 808.811 3.91091 -0.425559 0
M  V30 8615 H 810.826 4.95377 0.285719 0
M  V30 8616 N 809.999 0.752036 1.385 0
M  V30 8617 C 811.227 0.318274 2.04437 0
M  V30 8618 C 811.642 -1.05285 1.56718 0
M  V30 8619 O 810.999 -1.66844 0.73956 0
M  V30 8620 C 811.05 0.330106 3.5999 0
M  V30 8621 O 810.771 1.64712 4.05957 0
M  V30 8622 C 812.272 -0.117713 4.43144 0
M  V30 8623 H 809.492 0.136228 0.657026 0
M  V30 8624 H 812.036 1.02045 1.7722 0
M  V30 8625 H 810.191 -0.323323 3.86048 0
M  V30 8626 H 810.605 1.57225 5.0038 0
M  V30 8627 H 812.079 -0.0582735 5.51969 0
M  V30 8628 H 812.556 -1.16538 4.23457 0
M  V30 8629 H 813.162 0.506784 4.2227 0
M  V30 8630 N 811.477 -1.49425 0.500989 0
M  V30 8631 C 812.725 -2.02053 -0.0434495 0
M  V30 8632 C 813.046 -1.38285 -1.37486 0
M  V30 8633 O 812.316 -0.538171 -1.88363 0
M  V30 8634 H 810.896 -0.746757 -0.0190469 0
M  V30 8635 H 813.558 -1.83449 0.658227 0
M  V30 8636 H 812.654 -3.11619 -0.173129 0
M  V30 8637 N 812.955 -0.234822 -1.55841 0
M  V30 8638 C 813.903 0.686145 -2.22249 0
M  V30 8639 C 814.897 1.18948 -1.20614 0
M  V30 8640 O 816.103 1.14777 -1.38659 0
M  V30 8641 H 812.478 0.239724 -0.712767 0
M  V30 8642 H 814.449 0.102762 -2.98223 0
M  V30 8643 C 813.198 1.8776 -2.92646 0
M  V30 8644 H 812.521 1.49943 -3.70617 0
M  V30 8645 H 813.961 2.4995 -3.42493 0
M  V30 8646 C 812.42 2.74127 -1.95847 0
M  V30 8647 O 812.95 3.7329 -1.48384 0
M  V30 8648 N 811.156 2.4044 -1.63209 0
M  V30 8649 H 810.703 1.59854 -2.02001 0
M  V30 8650 H 810.661 2.98504 -0.987063 0
M  V30 8651 N 814.433 1.57553 0.0384317 0
M  V30 8652 C 815.658 1.93485 0.746872 0
M  V30 8653 C 816.083 0.834069 1.68597 0
M  V30 8654 O 815.441 -0.210902 1.80069 0
M  V30 8655 C 815.489 3.28463 1.4881 0
M  V30 8656 O 814.593 3.20051 2.60079 0
M  V30 8657 H 813.934 0.632675 0.201539 0
M  V30 8658 H 816.464 2.046 -0.00329815 0
M  V30 8659 H 816.474 3.63132 1.86009 0
M  V30 8660 H 815.149 4.08147 0.799297 0
M  V30 8661 H 813.726 2.96998 2.25492 0
M  V30 8662 N 815.911 -0.310526 1.54511 0
M  V30 8663 C 817.136 -1.07046 1.7764 0
M  V30 8664 C 817.561 -1.80488 0.529696 0
M  V30 8665 O 816.919 -1.73702 -0.519361 0
M  V30 8666 C 816.967 -2.03411 2.97752 0
M  V30 8667 O 816.071 -3.11545 2.7021 0
M  V30 8668 H 815.412 -0.307994 0.588248 0
M  V30 8669 H 817.942 -0.350848 2.01569 0
M  V30 8670 H 817.952 -2.46048 3.2546 0
M  V30 8671 H 816.627 -1.49361 3.88155 0
M  V30 8672 H 815.204 -2.7349 2.53491 0
M  V30 8673 N 817.389 -1.46805 -0.573248 0
M  V30 8674 C 818.299 -1.60687 -1.70929 0
M  V30 8675 C 819.315 -0.490084 -1.66956 0
M  V30 8676 O 820.491 -0.755482 -1.86693 0
M  V30 8677 C 817.556 -1.60259 -3.07438 0
M  V30 8678 C 816.617 -2.83242 -3.22603 0
M  V30 8679 C 815.85 -2.82825 -4.52599 0
M  V30 8680 O 816.073 -1.92113 -5.37074 0
M  V30 8681 O 815.007 -3.74489 -4.71213 0
M  V30 8682 H 818.833 -2.56782 -1.62163 0
M  V30 8683 H 816.418 -1.29706 -0.741399 0
M  V30 8684 H 818.3 -1.6275 -3.88704 0
M  V30 8685 H 816.975 -0.673268 -3.16621 0
M  V30 8686 H 815.882 -2.86302 -2.40794 0
M  V30 8687 H 817.215 -3.75415 -3.18315 0
M  V30 8688 N 818.867 0.818669 -1.34668 0
M  V30 8689 C 820.107 1.58862 -1.28617 0
M  V30 8690 C 820.471 1.91483 0.140845 0
M  V30 8691 O 821.672 2.66821 0.325583 0
M  V30 8692 C 819.943 2.85044 -2.15604 0
M  V30 8693 S 821.502 3.75553 -2.26948 0
M  V30 8694 H 818.32 0.544454 -0.457265 0
M  V30 8695 H 820.922 0.966679 -1.69928 0
M  V30 8696 H 819.626 2.59083 -3.18284 0
M  V30 8697 H 819.157 3.52231 -1.75205 0
M  V30 8698 H 821.172 4.74682 -1.44539 0
M  V30 8699 N 820.346 1.18468 1.03938 0
M  V30 8700 C 821.757 0.984808 1.58614 0
M  V30 8701 C 822.108 -0.465165 1.90606 0
M  V30 8702 O 821.233 -1.34274 1.69704 0
M  V30 8703 C 821.828 1.78135 2.8819 0
M  V30 8704 C 820.387 1.62579 3.39478 0
M  V30 8705 C 819.534 1.77501 2.13046 0
M  V30 8706 H 822.485 1.32993 0.865944 0
M  V30 8707 H 822.506 1.27119 3.58638 0
M  V30 8708 H 822.018 2.83661 2.64874 0
M  V30 8709 H 820.119 0.59595 3.67803 0
M  V30 8710 H 820.232 2.42463 4.13217 0
M  V30 8711 H 818.596 1.2046 2.24414 0
M  V30 8712 H 819.379 2.84464 1.92185 0
M  V30 8713 N 821.824 -1.22873 0.986916 0
M  V30 8714 C 823.235 -1.73264 0.695438 0
M  V30 8715 C 823.586 -1.79679 -0.788023 0
M  V30 8716 O 822.711 -1.43905 -1.61618 0
M  V30 8717 C 823.306 -3.14671 1.2557 0
M  V30 8718 C 821.865 -3.62492 1.01373 0
M  V30 8719 C 821.012 -2.40551 1.37951 0
M  V30 8720 H 823.963 -1.08304 1.15999 0
M  V30 8721 H 823.984 -3.75226 0.631322 0
M  V30 8722 H 823.496 -3.0997 2.33539 0
M  V30 8723 H 821.597 -3.72567 -0.0495917 0
M  V30 8724 H 821.71 -4.48944 1.67289 0
M  V30 8725 H 820.074 -2.41875 0.798033 0
M  V30 8726 H 820.857 -2.38516 2.46911 0
M  V30 8727 N 823.302 -0.75937 -1.38099 0
M  V30 8728 C 824.713 -0.385078 -1.82686 0
M  V30 8729 C 825.064 1.0871 -1.6333 0
M  V30 8730 O 824.189 1.84084 -1.13762 0
M  V30 8731 C 824.784 -0.692161 -3.31654 0
M  V30 8732 C 823.343 -0.371077 -3.74566 0
M  V30 8733 C 822.49 -0.942375 -2.60796 0
M  V30 8734 H 825.441 -0.955048 -1.26746 0
M  V30 8735 H 825.462 0.0276001 -3.8049 0
M  V30 8736 H 824.974 -1.76369 -3.4571 0
M  V30 8737 H 823.075 0.693637 -3.66087 0
M  V30 8738 H 823.188 -0.870672 -4.71122 0
M  V30 8739 H 821.552 -0.367383 -2.52036 0
M  V30 8740 H 822.335 -2.01905 -2.77649 0
M  V30 8741 N 824.78 1.49157 -0.508906 0
M  V30 8742 C 826.028 2.02073 0.0327335 0
M  V30 8743 C 826.349 1.39012 1.3675 0
M  V30 8744 O 825.619 0.548153 1.88075 0
M  V30 8745 H 824.199 0.746848 0.0150864 0
M  V30 8746 H 826.861 1.83097 -0.667946 0
M  V30 8747 H 825.957 3.11707 0.1566 0
M  V30 8748 N 826.258 0.243083 1.55714 0
M  V30 8749 C 827.206 -0.674349 2.2261 0
M  V30 8750 C 828.2 -1.18307 1.21243 0
M  V30 8751 O 829.406 -1.1404 1.39265 0
M  V30 8752 H 825.781 -0.235941 0.714028 0
M  V30 8753 H 827.752 -0.0869446 2.98273 0
M  V30 8754 C 826.501 -1.86206 2.93637 0
M  V30 8755 H 825.824 -1.47975 3.71407 0
M  V30 8756 H 827.264 -2.4813 3.43813 0
M  V30 8757 C 825.723 -2.73084 1.97298 0
M  V30 8758 O 826.253 -3.72497 1.50361 0
M  V30 8759 N 824.459 -2.39571 1.64482 0
M  V30 8760 H 824.006 -1.5878 2.02846 0
M  V30 8761 H 823.964 -2.97976 1.00288 0
M  V30 8762 N 827.736 -1.57571 -0.0300757 0
M  V30 8763 C 828.699 -2.05468 -1.01565 0
M  V30 8764 C 829.699 -0.958628 -1.29101 0
M  V30 8765 O 830.889 -1.22228 -1.24121 0
M  V30 8766 C 828.021 -2.47077 -2.34874 0
M  V30 8767 H 829.214 -2.93797 -0.601936 0
M  V30 8768 H 826.767 -1.53828 -0.276878 0
M  V30 8769 H 827.502 -1.61901 -2.80996 0
M  V30 8770 H 827.287 -3.27097 -2.16218 0
M  V30 8771 H 828.777 -2.84564 -3.05635 0
M  V30 8772 N 829.214 0.302327 -1.54673 0
M  V30 8773 C 830.124 1.39542 -1.88587 0
M  V30 8774 C 831.14 1.55543 -0.779895 0
M  V30 8775 O 832.316 1.70233 -1.07623 0
M  V30 8776 C 829.381 2.7394 -2.12504 0
M  V30 8777 C 828.442 2.66935 -3.3622 0
M  V30 8778 C 827.675 3.94923 -3.58987 0
M  V30 8779 O 827.898 4.94218 -2.84789 0
M  V30 8780 O 826.832 3.96896 -4.52501 0
M  V30 8781 H 830.658 1.13784 -2.81579 0
M  V30 8782 H 828.243 0.49827 -1.40846 0
M  V30 8783 H 830.125 3.5346 -2.29443 0
M  V30 8784 H 828.8 2.99544 -1.22698 0
M  V30 8785 H 827.707 1.85892 -3.24646 0
M  V30 8786 H 829.04 2.46283 -4.26152 0
M  V30 8787 N 830.692 1.47107 0.565454 0
M  V30 8788 C 831.969 1.43787 1.32607 0
M  V30 8789 C 832.349 0.130428 2.10697 0
M  V30 8790 O 831.697 -0.888086 2.10536 0
M  V30 8791 C 831.907 2.67833 2.23755 0
M  V30 8792 C 833.255 3.14704 2.85037 0
M  V30 8793 O 834.279 2.68503 2.34061 0
M  V30 8794 O 833.138 3.95002 3.77671 0
M  V30 8795 H 830.232 0.572623 0.596684 0
M  V30 8796 H 832.778 1.59296 0.58504 0
M  V30 8797 H 831.55 3.54532 1.65597 0
M  V30 8798 H 831.173 2.54869 3.05168 0
M  V30 8799 N 832.17 -0.811516 1.35101 0
M  V30 8800 C 833.447 -1.55491 1.18667 0
M  V30 8801 C 833.827 -2.09775 -0.236189 0
M  V30 8802 O 833.175 -1.91989 -1.23905 0
M  V30 8803 C 833.385 -2.66732 2.25067 0
M  V30 8804 C 834.733 -3.35201 2.60625 0
M  V30 8805 O 835.757 -2.76998 2.23943 0
M  V30 8806 O 834.616 -4.40334 3.23679 0
M  V30 8807 H 831.71 -0.686783 0.460716 0
M  V30 8808 H 834.256 -0.851903 1.46768 0
M  V30 8809 H 833.028 -2.24457 3.20523 0
M  V30 8810 H 832.651 -3.44673 1.98208 0
M  V30 8811 N 833.648 -1.19017 -1.03309 0
M  V30 8812 C 834.876 -1.01534 -1.80273 0
M  V30 8813 C 835.291 0.43605 -1.83696 0
M  V30 8814 O 834.648 1.30288 -1.27794 0
M  V30 8815 C 834.699 -1.5722 -3.25522 0
M  V30 8816 O 834.42 -2.96677 -3.22358 0
M  V30 8817 C 835.921 -1.4446 -4.19102 0
M  V30 8818 H 833.141 -0.358094 -0.567459 0
M  V30 8819 H 835.685 -1.57738 -1.3015 0
M  V30 8820 H 833.84 -1.05174 -3.7285 0
M  V30 8821 H 834.254 -3.22795 -4.13405 0
M  V30 8822 H 835.728 -1.88209 -5.18923 0
M  V30 8823 H 836.205 -0.394471 -4.37425 0
M  V30 8824 H 836.811 -1.95616 -3.77643 0
M  V30 8825 N 835.127 1.22348 -0.993418 0
M  V30 8826 C 836.373 1.91393 -0.67056 0
M  V30 8827 C 836.706 1.77163 0.795428 0
M  V30 8828 O 835.981 1.14084 1.57528 0
M  V30 8829 C 836.264 3.43589 -1.0779 0
M  V30 8830 C 836.117 3.66867 -2.60248 0
M  V30 8831 C 837.436 4.35545 -0.631527 0
M  V30 8832 H 834.555 0.695057 -0.24508 0
M  V30 8833 H 837.197 1.44213 -1.23703 0
M  V30 8834 H 835.347 3.83903 -0.595902 0
M  V30 8835 H 837.019 3.35954 -3.16121 0
M  V30 8836 H 835.262 3.1113 -3.02293 0
M  V30 8837 H 835.933 4.73457 -2.838 0
M  V30 8838 H 838.409 4.0275 -1.04554 0
M  V30 8839 H 837.285 5.40707 -0.944831 0
M  V30 8840 H 837.546 4.39618 0.467779 0
M  V30 8841 N 836.605 0.766683 1.37694 0
M  V30 8842 C 837.845 0.333815 2.01656 0
M  V30 8843 C 838.209 -1.06813 1.59546 0
M  V30 8844 O 839.41 -1.60084 2.15932 0
M  V30 8845 C 837.681 0.467032 3.54335 0
M  V30 8846 S 839.24 0.118679 4.38639 0
M  V30 8847 H 836.058 0.128723 0.699251 0
M  V30 8848 H 838.66 1.00018 1.67978 0
M  V30 8849 H 837.364 1.48808 3.82471 0
M  V30 8850 H 836.895 -0.216066 3.92806 0
M  V30 8851 H 838.91 -1.08746 4.84137 0
M  V30 8852 N 838.083 -1.48885 0.516809 0
M  V30 8853 C 839.013 -2.32241 -0.242157 0
M  V30 8854 C 839.994 -1.41258 -0.947633 0
M  V30 8855 O 841.179 -1.70156 -0.935973 0
M  V30 8856 C 838.309 -3.22151 -1.29754 0
M  V30 8857 C 837.263 -4.22053 -0.710995 0
M  V30 8858 C 836.589 -5.01007 -1.86806 0
M  V30 8859 C 837.889 -5.21388 0.30853 0
M  V30 8860 H 839.583 -2.95943 0.453651 0
M  V30 8861 H 837.129 -1.42316 0.219612 0
M  V30 8862 H 839.082 -3.79284 -1.83634 0
M  V30 8863 H 837.806 -2.56423 -2.02274 0
M  V30 8864 H 836.465 -3.66087 -0.193819 0
M  V30 8865 H 836.113 -4.31713 -2.58133 0
M  V30 8866 H 835.813 -5.68615 -1.48159 0
M  V30 8867 H 837.337 -5.60989 -2.4109 0
M  V30 8868 H 838.751 -5.73122 -0.142703 0
M  V30 8869 H 837.148 -5.96975 0.611673 0
M  V30 8870 H 838.218 -4.69329 1.21894 0
M  V30 8871 N 839.561 -0.251338 -1.55583 0
M  V30 8872 C 840.838 0.422729 -1.90977 0
M  V30 8873 C 841.218 1.75534 -1.17265 0
M  V30 8874 O 840.566 2.26632 -0.291588 0
M  V30 8875 C 840.776 0.586448 -3.44037 0
M  V30 8876 C 842.124 0.880294 -4.15375 0
M  V30 8877 O 843.148 0.672148 -3.49801 0
M  V30 8878 O 842.007 1.27694 -5.31372 0
M  V30 8879 H 839.101 0.227622 -0.795058 0
M  V30 8880 H 841.647 -0.295733 -1.67103 0
M  V30 8881 H 840.419 -0.352327 -3.89711 0
M  V30 8882 H 840.042 1.35528 -3.73789 0
M  V30 8883 N 841.039 1.57585 0.0217189 0
M  V30 8884 C 841.969 2.10073 1.01939 0
M  V30 8885 C 842.95 1.0049 1.37243 0
M  V30 8886 O 844.135 1.28055 1.45999 0
M  V30 8887 C 841.265 2.58618 2.31806 0
M  V30 8888 C 840.219 3.72531 2.10724 0
M  V30 8889 C 839.545 4.07309 3.46415 0
M  V30 8890 C 840.845 5.00672 1.48743 0
M  V30 8891 H 842.539 2.9368 0.582432 0
M  V30 8892 H 840.085 1.41277 0.278715 0
M  V30 8893 H 842.038 2.9396 3.01936 0
M  V30 8894 H 840.762 1.72104 2.77575 0
M  V30 8895 H 839.421 3.37549 1.43025 0
M  V30 8896 H 839.069 3.17851 3.89846 0
M  V30 8897 H 838.769 4.84042 3.33132 0
M  V30 8898 H 840.293 4.45192 4.17895 0
M  V30 8899 H 841.707 5.33925 2.088 0
M  V30 8900 H 840.104 5.82065 1.46013 0
M  V30 8901 H 841.174 4.82769 0.45408 0
M  V30 8902 N 842.517 -0.29412 1.54831 0
M  V30 8903 C 843.765 -1.02643 1.74094 0
M  V30 8904 C 844.086 -1.87563 0.533402 0
M  V30 8905 O 843.356 -1.9061 -0.452192 0
M  V30 8906 H 841.936 -0.381959 0.641963 0
M  V30 8907 H 844.598 -0.323444 1.92197 0
M  V30 8908 H 843.694 -1.67558 2.63307 0
M  V30 8909 N 843.995 -1.47404 -0.557645 0
M  V30 8910 C 844.942 -1.59859 -1.66475 0
M  V30 8911 C 845.912 -0.441644 -1.60121 0
M  V30 8912 O 847.097 -0.661641 -1.78961 0
M  V30 8913 C 844.237 -1.61843 -3.04797 0
M  V30 8914 C 843.35 -2.8845 -3.2159 0
M  V30 8915 C 842.485 -2.81773 -4.50308 0
M  V30 8916 C 841.524 -4.03208 -4.60532 0
M  V30 8917 N 840.661 -3.94769 -5.80604 0
M  V30 8918 H 845.501 -2.54415 -1.55168 0
M  V30 8919 H 843.038 -1.26194 -0.755876 0
M  V30 8920 H 844.996 -1.60976 -3.84893 0
M  V30 8921 H 843.626 -0.707997 -3.1494 0
M  V30 8922 H 842.678 -2.99186 -2.34929 0
M  V30 8923 H 843.99 -3.78379 -3.25009 0
M  V30 8924 H 843.144 -2.79153 -5.38663 0
M  V30 8925 H 841.883 -1.89527 -4.49367 0
M  V30 8926 H 840.888 -4.06133 -3.70589 0
M  V30 8927 H 842.113 -4.9658 -4.63233 0
M  V30 8928 H 840.059 -3.05326 -5.80613 0
M  V30 8929 H 839.976 -4.78375 -5.854 0
M  V30 8930 H 841.244 -3.96165 -6.71322 0
M  V30 8931 N 845.473 0.80434 -1.35529 0
M  V30 8932 C 846.713 1.57489 -1.30295 0
M  V30 8933 C 847.077 1.91621 0.120528 0
M  V30 8934 O 848.278 2.67151 0.297265 0
M  V30 8935 C 846.549 2.82741 -2.18615 0
M  V30 8936 S 848.108 3.73125 -2.30918 0
M  V30 8937 H 844.926 0.539573 -0.463014 0
M  V30 8938 H 847.528 0.948601 -1.70944 0
M  V30 8939 H 846.232 2.55692 -3.21014 0
M  V30 8940 H 845.763 3.50353 -1.78931 0
M  V30 8941 H 847.778 4.73122 -1.49566 0
M  V30 8942 N 846.951 1.19563 1.02676 0
M  V30 8943 C 847.898 0.935291 2.11 0
M  V30 8944 C 848.868 -0.130685 1.65585 0
M  V30 8945 O 850.053 0.0119062 1.90796 0
M  V30 8946 C 847.193 0.482384 3.41712 0
M  V30 8947 C 846.306 1.61537 4.00662 0
M  V30 8948 C 845.441 1.11378 5.19392 0
M  V30 8949 C 844.48 2.22052 5.70403 0
M  V30 8950 N 843.617 1.73185 6.80405 0
M  V30 8951 H 848.457 1.86275 2.32606 0
M  V30 8952 H 845.994 0.928656 1.14081 0
M  V30 8953 H 847.952 0.20118 4.16715 0
M  V30 8954 H 846.582 -0.408086 3.2021 0
M  V30 8955 H 845.634 2.01173 3.22852 0
M  V30 8956 H 846.946 2.44912 4.34534 0
M  V30 8957 H 846.1 0.787935 6.01562 0
M  V30 8958 H 844.839 0.249789 4.8706 0
M  V30 8959 H 843.844 2.55465 4.86845 0
M  V30 8960 H 845.069 3.08911 6.04774 0
M  V30 8961 H 843.015 0.890973 6.49921 0
M  V30 8962 H 842.932 2.50148 7.13416 0
M  V30 8963 H 844.2 1.4357 7.66164 0
M  V30 8964 N 848.429 -1.21819 0.999893 0
M  V30 8965 C 849.706 -1.86318 0.595384 0
M  V30 8966 C 850.086 -1.8965 -0.927143 0
M  V30 8967 O 849.434 -1.3921 -1.81199 0
M  V30 8968 C 849.644 -3.26837 1.22387 0
M  V30 8969 C 850.992 -4.03272 1.32878 0
M  V30 8970 O 852.016 -3.36129 1.1788 0
M  V30 8971 O 850.875 -5.23477 1.56952 0
M  V30 8972 H 847.969 -0.801638 0.203238 0
M  V30 8973 H 850.515 -1.29542 1.09622 0
M  V30 8974 H 849.287 -3.19084 2.26497 0
M  V30 8975 H 848.91 -3.91226 0.709069 0
M  V30 8976 N 849.908 -0.773975 -1.37286 0
M  V30 8977 C 851.156 -0.338636 -1.99243 0
M  V30 8978 C 851.477 1.08919 -1.61746 0
M  V30 8979 O 850.747 1.74822 -0.88397 0
M  V30 8980 H 849.327 -0.12222 -0.736934 0
M  V30 8981 H 851.989 -0.992595 -1.67731 0
M  V30 8982 H 851.085 -0.418055 -3.09287 0
M  V30 8983 N 851.386 1.48609 -0.524698 0
M  V30 8984 C 852.333 2.29539 0.240956 0
M  V30 8985 C 853.303 1.37033 0.938681 0
M  V30 8986 O 854.488 1.65996 0.940737 0
M  V30 8987 C 851.628 3.20278 1.28514 0
M  V30 8988 C 850.741 4.27858 0.596798 0
M  V30 8989 C 849.876 5.05784 1.62346 0
M  V30 8990 C 848.915 6.05173 0.918287 0
M  V30 8991 N 848.052 6.76176 1.89025 0
M  V30 8992 H 852.892 2.945 -0.455368 0
M  V30 8993 H 850.429 1.45188 -0.236403 0
M  V30 8994 H 852.387 3.71281 1.90279 0
M  V30 8995 H 851.017 2.57251 1.94992 0
M  V30 8996 H 850.069 3.80162 -0.134668 0
M  V30 8997 H 851.381 4.98782 0.0428506 0
M  V30 8998 H 850.535 5.60775 2.31553 0
M  V30 8999 H 849.274 4.34687 2.2113 0
M  V30 9000 H 848.279 5.49391 0.21212 0
M  V30 9001 H 849.504 6.78265 0.336633 0
M  V30 9002 H 847.45 6.07834 2.46726 0
M  V30 9003 H 847.367 7.43157 1.3876 0
M  V30 9004 H 848.635 7.35759 2.57446 0
M  V30 9005 N 852.864 0.259585 1.55447 0
M  V30 9006 C 854.104 -0.362989 2.01151 0
M  V30 9007 C 854.468 -1.54201 1.14394 0
M  V30 9008 O 855.669 -2.23318 1.49608 0
M  V30 9009 C 853.94 -0.750399 3.49434 0
M  V30 9010 S 855.499 -1.3617 4.17137 0
M  V30 9011 H 852.317 -0.11365 0.701858 0
M  V30 9012 H 854.919 0.377788 1.91815 0
M  V30 9013 H 853.623 0.116807 4.10234 0
M  V30 9014 H 853.154 -1.52303 3.62722 0
M  V30 9015 H 855.169 -2.65059 4.19474 0
M  V30 9016 N 854.342 -1.57594 -0.0133615 0
M  V30 9017 C 855.591 -1.8916 -0.700103 0
M  V30 9018 C 855.904 -0.860147 -1.75673 0
M  V30 9019 O 857.11 -1.06556 -2.49716 0
M  V30 9020 C 855.566 -3.35742 -1.29635 0
M  V30 9021 C 855.174 -4.47154 -0.275249 0
M  V30 9022 C 856.918 -3.76436 -1.96205 0
M  V30 9023 C 854.825 -5.84805 -0.880726 0
M  V30 9024 H 853.755 -0.705805 -0.265247 0
M  V30 9025 H 856.406 -1.83445 0.044993 0
M  V30 9026 H 854.788 -3.36252 -2.09167 0
M  V30 9027 H 855.962 -4.58139 0.494506 0
M  V30 9028 H 854.277 -4.15394 0.289256 0
M  V30 9029 H 856.874 -4.76606 -2.42386 0
M  V30 9030 H 857.217 -3.09249 -2.78695 0
M  V30 9031 H 857.75 -3.78168 -1.23426 0
M  V30 9032 H 854.489 -6.55431 -0.0949013 0
M  V30 9033 H 854.009 -5.7751 -1.61995 0
M  V30 9034 H 855.688 -6.32038 -1.38338 0
M  V30 9035 N 855.82 0.285905 -1.54985 0
M  V30 9036 C 857.231 0.857869 -1.65824 0
M  V30 9037 C 857.582 1.87531 -0.576763 0
M  V30 9038 O 856.707 2.14528 0.284016 0
M  V30 9039 C 857.302 1.56277 -3.00604 0
M  V30 9040 C 855.861 2.08294 -3.13513 0
M  V30 9041 C 855.008 0.920633 -2.61571 0
M  V30 9042 H 857.959 0.0625463 -1.58577 0
M  V30 9043 H 857.98 2.42912 -2.92872 0
M  V30 9044 H 857.492 0.822017 -3.79295 0
M  V30 9045 H 855.593 2.8537 -2.39572 0
M  V30 9046 H 855.706 2.3071 -4.19892 0
M  V30 9047 H 854.07 1.31043 -2.18403 0
M  V30 9048 H 854.853 0.193594 -3.42754 0
M  V30 9049 N 857.298 1.47698 0.54982 0
M  V30 9050 C 858.545 1.54702 1.30665 0
M  V30 9051 C 858.873 0.212418 1.93337 0
M  V30 9052 O 858.128 -0.79543 1.78805 0
M  V30 9053 C 858.427 2.61903 2.4319 0
M  V30 9054 C 858.093 4.04953 1.98302 0
M  V30 9055 C 856.755 4.43893 1.85776 0
M  V30 9056 C 859.107 4.94682 1.64133 0
M  V30 9057 C 856.435 5.70387 1.37388 0
M  V30 9058 C 858.787 6.21646 1.17214 0
M  V30 9059 C 857.451 6.5946 1.0329 0
M  V30 9060 H 856.721 0.566096 0.478139 0
M  V30 9061 H 859.368 1.8133 0.615767 0
M  V30 9062 H 857.673 2.2906 3.17866 0
M  V30 9063 H 859.37 2.64543 3.0136 0
M  V30 9064 H 855.96 3.74191 2.08995 0
M  V30 9065 H 860.144 4.65291 1.72679 0
M  V30 9066 H 855.4 5.98427 1.25278 0
M  V30 9067 H 859.574 6.90581 0.898391 0
M  V30 9068 H 857.201 7.57367 0.655735 0
M  V30 9069 N 858.776 -0.797141 1.35954 0
M  V30 9070 C 860.016 -1.56795 1.31128 0
M  V30 9071 C 860.38 -1.91683 -0.110364 0
M  V30 9072 O 861.581 -2.67305 -0.283093 0
M  V30 9073 C 859.852 -2.81577 2.20111 0
M  V30 9074 S 861.411 -3.71895 2.32894 0
M  V30 9075 H 858.229 -0.53711 0.465869 0
M  V30 9076 H 860.831 -0.939522 1.71445 0
M  V30 9077 H 859.535 -2.53986 3.22365 0
M  V30 9078 H 859.066 -3.49399 1.80786 0
M  V30 9079 H 861.081 -4.72322 1.52073 0
M  V30 9080 N 860.254 -1.20106 -1.0204 0
M  V30 9081 C 861.164 -0.962051 -2.13967 0
M  V30 9082 C 862.18 0.0808053 -1.73812 0
M  V30 9083 O 863.356 -0.105774 -2.01122 0
M  V30 9084 C 860.421 -0.513108 -3.42882 0
M  V30 9085 C 859.482 -1.62636 -3.97301 0
M  V30 9086 C 858.715 -1.19875 -5.20063 0
M  V30 9087 O 858.938 -0.0658423 -5.70362 0
M  V30 9088 O 857.872 -2.00467 -5.67536 0
M  V30 9089 H 861.698 -1.8991 -2.36998 0
M  V30 9090 H 859.283 -0.984608 -1.12365 0
M  V30 9091 H 861.165 -0.271797 -4.20523 0
M  V30 9092 H 859.84 0.395402 -3.21276 0
M  V30 9093 H 858.747 -1.92192 -3.20957 0
M  V30 9094 H 860.08 -2.51174 -4.23288 0
M  V30 9095 N 861.732 1.21287 -1.00634 0
M  V30 9096 C 863.148 1.42467 -0.719389 0
M  V30 9097 C 863.348 1.88767 0.704927 0
M  V30 9098 O 862.404 2.05004 1.47409 0
M  V30 9099 C 863.717 2.455 -1.73639 0
M  V30 9100 C 865.265 2.59281 -1.75335 0
M  V30 9101 C 865.74 3.65547 -2.75934 0
M  V30 9102 N 867.231 3.73019 -2.74611 0
M  V30 9103 C 867.966 4.54873 -3.4911 0
M  V30 9104 N 867.462 5.40614 -4.33253 0
M  V30 9105 N 869.255 4.49309 -3.37754 0
M  V30 9106 H 861.406 0.895454 -1.92602 0
M  V30 9107 H 863.669 0.455491 -0.831404 0
M  V30 9108 H 863.375 2.18455 -2.75627 0
M  V30 9109 H 863.249 3.44325 -1.54014 0
M  V30 9110 H 865.636 2.85661 -0.740377 0
M  V30 9111 H 865.717 1.60685 -1.99032 0
M  V30 9112 H 865.361 3.39911 -3.77389 0
M  V30 9113 H 865.291 4.63741 -2.49503 0
M  V30 9114 H 867.782 3.11766 -2.13565 0
M  V30 9115 H 868.095 6.0013 -4.86892 0
M  V30 9116 H 866.44 5.40151 -4.37335 0
M  V30 9117 H 869.631 3.81357 -2.71449 0
M  V30 9118 H 869.804 5.12867 -3.9607 0
M  V30 9119 N 863.21 0.781244 1.36873 0
M  V30 9120 C 864.12 0.174981 2.33947 0
M  V30 9121 C 865.136 -0.668512 1.60645 0
M  V30 9122 O 866.312 -0.586213 1.9268 0
M  V30 9123 C 863.377 -0.686557 3.39834 0
M  V30 9124 C 862.438 0.174489 4.28945 0
M  V30 9125 C 861.671 -0.646024 5.29776 0
M  V30 9126 O 861.894 -1.88254 5.38439 0
M  V30 9127 O 860.828 -0.0502214 6.01879 0
M  V30 9128 H 864.654 0.977382 2.87543 0
M  V30 9129 H 862.239 0.542559 1.392 0
M  V30 9130 H 864.121 -1.1781 4.04597 0
M  V30 9131 H 862.796 -1.46699 2.8855 0
M  V30 9132 H 861.703 0.712604 3.6725 0
M  V30 9133 H 863.036 0.918232 4.83559 0
M  V30 9134 N 864.689 -1.48329 0.532571 0
M  V30 9135 C 865.621 -2.27652 -0.265931 0
M  V30 9136 C 866.634 -1.35522 -0.902083 0
M  V30 9137 O 867.823 -1.60552 -0.780088 0
M  V30 9138 C 864.923 -3.0899 -1.39207 0
M  V30 9139 C 864.096 -4.28915 -0.857349 0
M  V30 9140 C 863.155 -4.92044 -1.86493 0
M  V30 9141 O 862.181 -5.51181 -1.42084 0
M  V30 9142 N 863.383 -4.84518 -3.19723 0
M  V30 9143 H 866.148 -2.96821 0.414389 0
M  V30 9144 H 863.709 -1.57684 0.367066 0
M  V30 9145 H 865.701 -3.48091 -2.06433 0
M  V30 9146 H 864.271 -2.42224 -1.97601 0
M  V30 9147 H 863.491 -3.94199 -0.00901765 0
M  V30 9148 H 864.779 -5.0654 -0.479025 0
M  V30 9149 H 864.177 -4.37628 -3.58467 0
M  V30 9150 H 862.734 -5.27712 -3.82575 0
M  V30 9151 N 866.167 -0.267825 -1.55308 0
M  V30 9152 C 867.099 0.65591 -2.19614 0
M  V30 9153 C 868.112 1.12302 -1.17865 0
M  V30 9154 O 869.301 1.04618 -1.44628 0
M  V30 9155 C 866.401 1.90582 -2.80235 0
M  V30 9156 C 865.574 1.58673 -4.07605 0
M  V30 9157 C 864.633 2.68836 -4.52343 0
M  V30 9158 O 863.659 2.35331 -5.18274 0
M  V30 9159 N 864.861 3.98752 -4.21873 0
M  V30 9160 H 867.626 0.105566 -2.99514 0
M  V30 9161 H 865.187 -0.0886263 -1.61657 0
M  V30 9162 H 867.179 2.63561 -3.07112 0
M  V30 9163 H 865.749 2.3654 -2.04371 0
M  V30 9164 H 864.969 0.691113 -3.88094 0
M  V30 9165 H 866.257 1.34845 -4.90606 0
M  V30 9166 H 865.655 4.28797 -3.68985 0
M  V30 9167 H 864.212 4.68131 -4.53537 0
M  V30 9168 N 867.645 1.57599 0.00500368 0
M  V30 9169 C 868.575 2.11143 0.99705 0
M  V30 9170 C 869.556 1.0194 1.3617 0
M  V30 9171 O 870.741 1.29596 1.44632 0
M  V30 9172 C 867.871 2.61062 2.2905 0
M  V30 9173 C 866.825 3.74745 2.0676 0
M  V30 9174 C 866.151 4.10961 3.42075 0
M  V30 9175 C 867.451 5.02222 1.43424 0
M  V30 9176 H 869.145 2.94281 0.551251 0
M  V30 9177 H 866.691 1.41565 0.263715 0
M  V30 9178 H 868.644 2.97146 2.98801 0
M  V30 9179 H 867.368 1.75038 2.75734 0
M  V30 9180 H 866.027 3.39047 1.39436 0
M  V30 9181 H 865.675 3.21968 3.86453 0
M  V30 9182 H 865.375 4.87549 3.27979 0
M  V30 9183 H 866.899 4.49599 4.1315 0
M  V30 9184 H 868.313 5.36109 2.03125 0
M  V30 9185 H 866.71 5.83581 1.39831 0
M  V30 9186 H 867.78 4.83224 0.40285 0
M  V30 9187 N 869.123 -0.277682 1.55134 0
M  V30 9188 C 870.033 -1.36524 1.90783 0
M  V30 9189 C 871.049 -1.54283 0.804542 0
M  V30 9190 O 872.225 -1.68499 1.10318 0
M  V30 9191 C 869.29 -2.70524 2.16835 0
M  V30 9192 C 868.351 -2.61552 3.40424 0
M  V30 9193 C 867.584 -3.89162 3.65224 0
M  V30 9194 O 867.807 -4.89624 2.92616 0
M  V30 9195 O 866.741 -3.89647 4.58758 0
M  V30 9196 H 870.567 -1.0929 2.83354 0
M  V30 9197 H 868.152 -0.475799 1.41621 0
M  V30 9198 H 870.034 -3.49765 2.35038 0
M  V30 9199 H 868.709 -2.97555 1.27448 0
M  V30 9200 H 867.616 -1.80704 3.27562 0
M  V30 9201 H 868.949 -2.39472 4.30016 0
M  V30 9202 N 870.601 -1.47988 -0.541979 0
M  V30 9203 C 871.826 -1.59286 -1.32826 0
M  V30 9204 C 872.251 -0.24894 -1.86445 0
M  V30 9205 O 871.609 0.777581 -1.63778 0
M  V30 9206 C 871.657 -2.6334 -2.46343 0
M  V30 9207 O 870.761 -2.19667 -3.49028 0
M  V30 9208 H 870.102 -0.534543 -0.393903 0
M  V30 9209 H 872.632 -1.93885 -0.653427 0
M  V30 9210 H 872.642 -2.84238 -2.92699 0
M  V30 9211 H 871.317 -3.60913 -2.06675 0
M  V30 9212 H 869.894 -2.08932 -3.08872 0
M  V30 9213 N 872.079 0.78992 -1.36375 0
M  V30 9214 C 873.319 1.56098 -1.31958 0
M  V30 9215 C 873.683 1.91738 0.100197 0
M  V30 9216 O 874.884 2.67451 0.268913 0
M  V30 9217 C 873.155 2.80406 -2.21601 0
M  V30 9218 S 874.714 3.70655 -2.34863 0
M  V30 9219 H 871.532 0.534632 -0.46871 0
M  V30 9220 H 874.134 0.930417 -1.7194 0
M  V30 9221 H 872.838 2.52273 -3.23707 0
M  V30 9222 H 872.369 3.48436 -1.82637 0
M  V30 9223 H 874.384 4.71509 -1.54575 0
M  V30 9224 N 873.557 1.20646 1.01402 0
M  V30 9225 C 874.52 0.959314 2.08158 0
M  V30 9226 C 875.52 -0.0661558 1.60664 0
M  V30 9227 O 876.71 0.170177 1.73367 0
M  V30 9228 C 873.842 0.444785 3.37986 0
M  V30 9229 H 875.035 1.90631 2.31517 0
M  V30 9230 H 872.588 1.02219 1.18241 0
M  V30 9231 H 873.323 -0.507553 3.20304 0
M  V30 9232 H 873.108 1.18435 3.73785 0
M  V30 9233 H 874.598 0.291443 4.16582 0
M  V30 9234 N 875.035 -1.20752 1.01276 0
M  V30 9235 C 876.275 -1.91733 0.708372 0
M  V30 9236 C 876.639 -1.76836 -0.747855 0
M  V30 9237 O 877.84 -2.42262 -1.16458 0
M  V30 9238 C 876.111 -3.39155 1.12732 0
M  V30 9239 S 877.67 -4.28518 0.944325 0
M  V30 9240 H 874.488 -0.662394 0.25837 0
M  V30 9241 H 877.09 -1.46085 1.29921 0
M  V30 9242 H 875.794 -3.47516 2.18313 0
M  V30 9243 H 875.325 -3.89826 0.5291 0
M  V30 9244 H 877.34 -4.9596 -0.154278 0
M  V30 9245 N 876.513 -0.788492 -1.36457 0
M  V30 9246 C 877.461 -0.174192 -2.31947 0
M  V30 9247 C 878.455 0.665974 -1.5576 0
M  V30 9248 O 879.661 0.561161 -1.71029 0
M  V30 9249 H 876.036 -0.0375538 -0.751062 0
M  V30 9250 H 878.007 -0.995011 -2.81322 0
M  V30 9251 C 876.756 0.677276 -3.4104 0
M  V30 9252 H 876.079 0.0401418 -3.9978 0
M  V30 9253 H 877.519 1.07379 -4.10178 0
M  V30 9254 C 875.978 1.83512 -2.82533 0
M  V30 9255 O 876.508 2.93164 -2.74623 0
M  V30 9256 N 874.714 1.64095 -2.39836 0
M  V30 9257 H 874.261 0.749046 -2.46469 0
M  V30 9258 H 874.219 2.41726 -2.01037 0
M  V30 9259 N 877.991 1.48044 -0.54043 0
M  V30 9260 C 878.901 2.33565 0.220163 0
M  V30 9261 C 879.917 1.47146 0.928659 0
M  V30 9262 O 881.093 1.80107 0.901295 0
M  V30 9263 C 878.158 3.2349 1.2472 0
M  V30 9264 C 877.219 4.25789 0.547938 0
M  V30 9265 C 876.452 5.11417 1.52605 0
M  V30 9266 O 876.675 4.99204 2.75956 0
M  V30 9267 O 875.609 5.92498 1.05972 0
M  V30 9268 H 879.435 2.99868 -0.480898 0
M  V30 9269 H 877.02 1.46332 -0.301226 0
M  V30 9270 H 878.902 3.79084 1.84047 0
M  V30 9271 H 877.577 2.59835 1.93048 0
M  V30 9272 H 876.484 3.74001 -0.0860941 0
M  V30 9273 H 877.817 4.92111 -0.0935896 0
M  V30 9274 N 879.47 0.276058 1.55163 0
M  V30 9275 C 880.698 -0.343772 2.04024 0
M  V30 9276 C 881.113 -1.49397 1.15438 0
M  V30 9277 O 880.47 -1.81662 0.174692 0
M  V30 9278 C 880.521 -0.823885 3.51986 0
M  V30 9279 O 880.242 0.280507 4.37201 0
M  V30 9280 C 881.743 -1.51143 4.16738 0
M  V30 9281 H 878.963 -0.07828 0.666418 0
M  V30 9282 H 881.507 0.408427 2.0038 0
M  V30 9283 H 879.662 -1.52617 3.56071 0
M  V30 9284 H 880.076 -0.0887831 5.24425 0
M  V30 9285 H 881.55 -1.79878 5.2187 0
M  V30 9286 H 882.027 -2.44327 3.64967 0
M  V30 9287 H 882.633 -0.852975 4.16659 0
M  V30 9288 N 880.948 -1.576 0.00335426 0
M  V30 9289 C 882.225 -1.81945 -0.718015 0
M  V30 9290 C 882.605 -0.881788 -1.91801 0
M  V30 9291 O 881.953 0.0687118 -2.28397 0
M  V30 9292 C 882.163 -3.30521 -1.12058 0
M  V30 9293 C 883.511 -3.96345 -1.52303 0
M  V30 9294 O 884.535 -3.34864 -1.21428 0
M  V30 9295 O 883.394 -5.04655 -2.09728 0
M  V30 9296 H 880.488 -0.749328 -0.34991 0
M  V30 9297 H 883.034 -1.69675 0.0290654 0
M  V30 9298 H 881.806 -3.90399 -0.265378 0
M  V30 9299 H 881.429 -3.47802 -1.92665 0
M  V30 9300 N 882.426 0.269451 -1.5528 0
M  V30 9301 C 883.374 1.35303 -1.89198 0
M  V30 9302 C 884.368 1.50956 -0.768671 0
M  V30 9303 O 885.574 1.52699 -0.953054 0
M  V30 9304 H 881.949 0.452591 -0.600554 0
M  V30 9305 H 883.92 1.03949 -2.79709 0
M  V30 9306 C 882.669 2.70585 -2.18356 0
M  V30 9307 H 881.992 2.59332 -3.04281 0
M  V30 9308 H 883.432 3.45335 -2.46007 0
M  V30 9309 C 881.891 3.21954 -0.992327 0
M  V30 9310 O 882.421 4.01048 -0.228769 0
M  V30 9311 N 880.627 2.79682 -0.789062 0
M  V30 9312 H 880.174 2.15475 -1.41167 0
M  V30 9313 H 880.132 3.14399 0.00634776 0
M  V30 9314 N 883.904 1.48273 0.534124 0
M  V30 9315 C 885.129 1.59988 1.31979 0
M  V30 9316 C 885.554 0.258824 1.86311 0
M  V30 9317 O 884.912 -0.768885 1.64188 0
M  V30 9318 C 884.96 2.64642 2.44943 0
M  V30 9319 O 884.064 2.21515 3.47858 0
M  V30 9320 H 883.405 0.536625 0.391063 0
M  V30 9321 H 885.935 1.94229 0.643135 0
M  V30 9322 H 885.945 2.85786 2.91187 0
M  V30 9323 H 884.62 3.62004 2.04758 0
M  V30 9324 H 883.197 2.10567 3.0776 0
M  V30 9325 N 885.382 -0.782676 1.36792 0
M  V30 9326 C 886.622 -1.55396 1.32784 0
M  V30 9327 C 886.986 -1.91789 -0.0900272 0
M  V30 9328 O 888.187 -2.6759 -0.254725 0
M  V30 9329 C 886.458 -2.79227 2.23085 0
M  V30 9330 S 888.017 -3.69404 2.36825 0
M  V30 9331 H 884.835 -0.532139 0.471539 0
M  V30 9332 H 887.437 -0.921285 1.72431 0
M  V30 9333 H 886.141 -2.50553 3.25041 0
M  V30 9334 H 885.672 -3.47462 1.84482 0
M  V30 9335 H 887.687 -4.70683 1.57074 0
M  V30 9336 N 886.86 -1.21182 -1.00761 0
M  V30 9337 C 887.807 -0.968741 -2.09485 0
M  V30 9338 C 888.777 0.104325 -1.65772 0
M  V30 9339 O 889.962 -0.0422587 -1.90753 0
M  V30 9340 C 887.102 -0.536686 -3.40901 0
M  V30 9341 C 886.215 -1.6789 -3.98041 0
M  V30 9342 C 885.35 -1.19627 -5.17555 0
M  V30 9343 C 884.389 -2.31099 -5.66798 0
M  V30 9344 N 883.526 -1.83988 -6.77564 0
M  V30 9345 H 888.366 -1.89952 -2.29613 0
M  V30 9346 H 885.903 -0.946688 -1.12589 0
M  V30 9347 H 887.861 -0.26745 -4.16342 0
M  V30 9348 H 886.491 0.357092 -3.20819 0
M  V30 9349 H 885.543 -2.06284 -3.19611 0
M  V30 9350 H 886.855 -2.51794 -4.30582 0
M  V30 9351 H 886.009 -0.883539 -6.00232 0
M  V30 9352 H 884.748 -0.327244 -4.86601 0
M  V30 9353 H 883.753 -2.63178 -4.82719 0
M  V30 9354 H 884.978 -3.18493 -5.99782 0
M  V30 9355 H 882.924 -0.994257 -6.48422 0
M  V30 9356 H 882.841 -2.61466 -7.09346 0
M  V30 9357 H 884.109 -1.55741 -7.63783 0
M  V30 9358 N 888.338 1.20213 -1.01915 0
M  V30 9359 C 889.584 1.89928 -0.711007 0
M  V30 9360 C 889.917 1.7881 0.75767 0
M  V30 9361 O 889.192 1.17399 1.55073 0
M  V30 9362 C 889.475 3.41225 -1.15053 0
M  V30 9363 C 889.328 3.61264 -2.67971 0
M  V30 9364 C 890.647 4.34108 -0.72377 0
M  V30 9365 H 887.766 0.689702 -0.259768 0
M  V30 9366 H 890.408 1.41557 -1.26734 0
M  V30 9367 H 888.558 3.82552 -0.677199 0
M  V30 9368 H 890.23 3.29173 -3.23176 0
M  V30 9369 H 888.473 3.04647 -3.08824 0
M  V30 9370 H 889.144 4.67331 -2.93779 0
M  V30 9371 H 891.62 4.00442 -1.13073 0
M  V30 9372 H 890.496 5.38581 -1.05931 0
M  V30 9373 H 890.757 4.40512 0.374424 0
M  V30 9374 N 889.816 0.795718 1.36037 0
M  V30 9375 C 891.056 0.376514 2.00902 0
M  V30 9376 C 891.42 -1.03405 1.61776 0
M  V30 9377 O 892.621 -1.55468 2.19279 0
M  V30 9378 C 890.892 0.542086 3.53265 0
M  V30 9379 S 892.451 0.211694 4.38289 0
M  V30 9380 H 889.269 0.143527 0.696363 0
M  V30 9381 H 891.871 1.03559 1.65819 0
M  V30 9382 H 890.575 1.56888 3.79229 0
M  V30 9383 H 890.106 -0.132698 3.93176 0
M  V30 9384 H 892.121 -0.98452 4.86335 0
M  V30 9385 N 891.294 -1.47756 0.548274 0
M  V30 9386 C 892.534 -2.04387 0.0231354 0
M  V30 9387 C 892.898 -1.41438 -1.29843 0
M  V30 9388 O 894.099 -1.89064 -1.91072 0
M  V30 9389 C 892.37 -3.57316 -0.077482 0
M  V30 9390 S 893.929 -4.35339 -0.550038 0
M  V30 9391 H 890.747 -0.710694 0.0208428 0
M  V30 9392 H 893.349 -1.81239 0.732984 0
M  V30 9393 H 892.053 -4.00658 0.88888 0
M  V30 9394 H 891.584 -3.84947 -0.811157 0
M  V30 9395 H 893.599 -4.61957 -1.81135 0
M  V30 9396 N 892.772 -0.284283 -1.55015 0
M  V30 9397 C 894.188 0.069603 -1.59448 0
M  V30 9398 C 894.388 1.53833 -1.30144 0
M  V30 9399 O 893.444 2.2886 -1.06674 0
M  V30 9400 C 894.757 -0.313287 -2.99064 0
M  V30 9401 C 896.305 -0.260662 -3.11913 0
M  V30 9402 C 896.78 -0.618127 -4.5381 0
M  V30 9403 N 898.271 -0.570026 -4.59679 0
M  V30 9404 C 899.006 -0.8193 -5.67517 0
M  V30 9405 N 898.502 -1.13367 -6.83462 0
M  V30 9406 N 900.295 -0.747482 -5.57108 0
M  V30 9407 H 892.446 -1.24167 -1.72326 0
M  V30 9408 H 894.709 -0.502259 -0.804015 0
M  V30 9409 H 894.415 -1.33509 -3.25374 0
M  V30 9410 H 894.289 0.341369 -3.75652 0
M  V30 9411 H 896.676 0.751869 -2.85361 0
M  V30 9412 H 896.757 -0.949706 -2.37517 0
M  V30 9413 H 896.401 -1.62839 -4.81088 0
M  V30 9414 H 896.331 0.092807 -5.26518 0
M  V30 9415 H 898.822 -0.3373 -3.76392 0
M  V30 9416 H 899.135 -1.3103 -7.61611 0
M  V30 9417 H 897.48 -1.17154 -6.85055 0
M  V30 9418 H 900.671 -0.501658 -4.65404 0
M  V30 9419 H 900.844 -0.945128 -6.4107 0
M  V30 9420 N 894.251 1.57596 -0.0117121 0
M  V30 9421 C 895.528 1.82323 0.708356 0
M  V30 9422 C 895.908 0.891947 1.91331 0
M  V30 9423 O 895.256 -0.0565984 2.2843 0
M  V30 9424 C 895.466 3.31111 1.10303 0
M  V30 9425 C 896.814 3.97147 1.50199 0
M  V30 9426 O 897.838 3.35503 1.1965 0
M  V30 9427 O 896.697 5.0576 2.07049 0
M  V30 9428 H 893.791 0.751173 0.345931 0
M  V30 9429 H 896.337 1.69657 -0.0380632 0
M  V30 9430 H 895.109 3.90534 0.24467 0
M  V30 9431 H 894.732 3.48818 1.90818 0
M  V30 9432 N 895.729 -0.261212 1.5542 0
M  V30 9433 C 896.659 -1.32712 1.92119 0
M  V30 9434 C 897.64 -1.50934 0.784406 0
M  V30 9435 O 898.825 -1.63781 1.04352 0
M  V30 9436 C 895.955 -2.68453 2.20341 0
M  V30 9437 C 894.909 -2.64947 3.36136 0
M  V30 9438 C 894.235 -4.04349 3.49865 0
M  V30 9439 C 895.535 -2.23182 4.72215 0
M  V30 9440 H 897.229 -1.02245 2.81401 0
M  V30 9441 H 894.775 -0.490406 1.35392 0
M  V30 9442 H 896.728 -3.43144 2.44603 0
M  V30 9443 H 895.452 -3.00527 1.27871 0
M  V30 9444 H 894.111 -1.92714 3.11861 0
M  V30 9445 H 893.759 -4.33665 2.5484 0
M  V30 9446 H 893.459 -4.02895 4.27726 0
M  V30 9447 H 894.983 -4.80761 3.76432 0
M  V30 9448 H 896.397 -2.87599 4.95943 0
M  V30 9449 H 894.794 -2.32867 5.53076 0
M  V30 9450 H 895.864 -1.18327 4.70241 0
M  V30 9451 N 897.207 -1.48554 -0.526253 0
M  V30 9452 C 898.432 -1.60686 -1.31129 0
M  V30 9453 C 898.857 -0.268701 -1.86171 0
M  V30 9454 O 898.215 0.760167 -1.64594 0
M  V30 9455 C 898.263 -2.65938 -2.43536 0
M  V30 9456 O 897.367 -2.23356 -3.46678 0
M  V30 9457 H 896.708 -0.538691 -0.388211 0
M  V30 9458 H 899.238 -1.94567 -0.632826 0
M  V30 9459 H 899.248 -2.87327 -2.89668 0
M  V30 9460 H 897.923 -3.63085 -2.02835 0
M  V30 9461 H 896.5 -2.12196 -3.06639 0
M  V30 9462 N 898.685 0.775411 -1.37205 0
M  V30 9463 C 899.933 1.53081 -1.3195 0
M  V30 9464 C 900.254 1.9476 0.0966864 0
M  V30 9465 O 899.524 1.66019 1.03993 0
M  V30 9466 H 898.104 0.567762 -0.485444 0
M  V30 9467 H 900.766 0.92309 -1.71654 0
M  V30 9468 H 899.862 2.4319 -1.95614 0
M  V30 9469 N 900.163 1.21714 1.00117 0
M  V30 9470 C 901.579 0.97532 1.26332 0
M  V30 9471 C 901.779 -0.336029 1.98678 0
M  V30 9472 O 900.835 -1.06073 2.29139 0
M  V30 9473 C 902.148 2.16848 2.0832 0
M  V30 9474 C 903.696 2.21115 2.21533 0
M  V30 9475 C 904.171 3.3996 3.06906 0
M  V30 9476 N 905.662 3.40071 3.14494 0
M  V30 9477 C 906.397 4.28678 3.80818 0
M  V30 9478 N 905.893 5.2749 4.49139 0
M  V30 9479 N 907.686 4.16476 3.77497 0
M  V30 9480 H 899.837 2.06039 0.515897 0
M  V30 9481 H 902.1 0.902423 0.290408 0
M  V30 9482 H 901.806 3.119 1.62515 0
M  V30 9483 H 901.68 2.16226 3.09073 0
M  V30 9484 H 904.067 1.26616 2.66557 0
M  V30 9485 H 904.148 2.2578 1.20238 0
M  V30 9486 H 903.792 4.34755 2.62585 0
M  V30 9487 H 903.722 3.32534 4.08324 0
M  V30 9488 H 906.213 2.68563 2.65861 0
M  V30 9489 H 906.526 5.91397 4.97463 0
M  V30 9490 H 904.871 5.31412 4.47914 0
M  V30 9491 H 908.062 3.38539 3.23278 0
M  V30 9492 H 908.235 4.85739 4.28908 0
M  V30 9493 N 901.641 -1.19671 1.02551 0
M  V30 9494 C 902.881 -1.90971 0.728668 0
M  V30 9495 C 903.245 -1.7762 -0.729057 0
M  V30 9496 O 904.446 -2.43484 -1.13882 0
M  V30 9497 C 902.717 -3.3794 1.16323 0
M  V30 9498 S 904.276 -4.27493 0.989722 0
M  V30 9499 H 901.094 -0.659617 0.265381 0
M  V30 9500 H 903.696 -1.44698 1.31463 0
M  V30 9501 H 902.4 -3.45181 2.21986 0
M  V30 9502 H 901.931 -3.89243 0.570417 0
M  V30 9503 H 903.946 -4.96096 -0.101666 0
M  V30 9504 N 903.119 -0.802921 -1.35613 0
M  V30 9505 C 904.365 -0.382141 -1.99167 0
M  V30 9506 C 904.698 1.04704 -1.63556 0
M  V30 9507 O 903.973 1.72578 -0.89706 0
M  V30 9508 C 904.256 -0.561493 -3.55695 0
M  V30 9509 C 904.109 -2.03534 -4.01116 0
M  V30 9510 C 905.428 0.0151135 -4.40097 0
M  V30 9511 H 902.547 -0.140322 -0.723518 0
M  V30 9512 H 905.189 -1.01177 -1.6082 0
M  V30 9513 H 903.339 -0.0255083 -3.88492 0
M  V30 9514 H 905.011 -2.63343 -3.78746 0
M  V30 9515 H 903.254 -2.5331 -3.52159 0
M  V30 9516 H 903.925 -2.11173 -5.1001 0
M  V30 9517 H 906.401 -0.442582 -4.1374 0
M  V30 9518 H 905.277 -0.140316 -5.48721 0
M  V30 9519 H 905.538 1.10848 -4.27978 0
M  V30 9520 N 904.597 1.47463 -0.556102 0
M  V30 9521 C 906.008 1.86298 -0.122429 0
M  V30 9522 C 906.359 1.46285 1.30749 0
M  V30 9523 O 905.484 0.865405 1.98342 0
M  V30 9524 C 906.079 3.38115 -0.215407 0
M  V30 9525 C 904.638 3.76046 0.163223 0
M  V30 9526 C 903.785 2.71515 -0.563466 0
M  V30 9527 H 906.736 1.38996 -0.765888 0
M  V30 9528 H 906.757 3.76263 0.566271 0
M  V30 9529 H 906.269 3.67207 -1.25622 0
M  V30 9530 H 904.37 3.5257 1.20519 0
M  V30 9531 H 904.483 4.78705 -0.194568 0
M  V30 9532 H 902.847 2.54699 -0.00667879 0
M  V30 9533 H 903.63 3.03449 -1.60542 0
M  V30 9534 N 906.075 0.2925 1.54862 0
M  V30 9535 C 907.305 -0.321646 2.04081 0
M  V30 9536 C 907.713 -1.48712 1.16967 0
M  V30 9537 O 907.056 -1.82755 0.18609 0
M  V30 9538 C 907.118 -0.848678 3.49339 0
M  V30 9539 C 906.782 0.190416 4.56603 0
M  V30 9540 C 907.779 1.01595 5.09877 0
M  V30 9541 C 905.464 0.329666 5.01217 0
M  V30 9542 C 907.458 1.96676 6.06298 0
M  V30 9543 C 905.145 1.28393 5.9746 0
M  V30 9544 C 906.143 2.10097 6.49883 0
M  V30 9545 O 905.831 3.03907 7.44242 0
M  V30 9546 H 905.563 -0.075098 0.671816 0
M  V30 9547 H 908.117 0.427531 2.00901 0
M  V30 9548 H 906.347 -1.64823 3.49815 0
M  V30 9549 H 908.036 -1.37779 3.81801 0
M  V30 9550 H 908.802 0.919197 4.7621 0
M  V30 9551 H 904.681 -0.296317 4.60047 0
M  V30 9552 H 908.225 2.60488 6.47141 0
M  V30 9553 H 904.122 1.38144 6.30545 0
M  V30 9554 H 904.89 2.98787 7.62016 0
M  V30 9555 N 907.553 -1.57587 0.0200696 0
M  V30 9556 C 908.799 -1.91708 -0.661503 0
M  V30 9557 C 909.132 -0.895968 -1.72296 0
M  V30 9558 O 908.407 0.082577 -1.94325 0
M  V30 9559 C 908.69 -3.36344 -1.28627 0
M  V30 9560 C 908.543 -4.49186 -0.234982 0
M  V30 9561 C 909.862 -3.80771 -2.20685 0
M  V30 9562 H 906.981 -0.69717 -0.239005 0
M  V30 9563 H 909.623 -1.8985 0.0754764 0
M  V30 9564 H 907.773 -3.38058 -1.91439 0
M  V30 9565 H 909.445 -4.59606 0.395011 0
M  V30 9566 H 907.688 -4.31557 0.440565 0
M  V30 9567 H 908.359 -5.47395 -0.711558 0
M  V30 9568 H 910.835 -3.80735 -1.67868 0
M  V30 9569 H 909.711 -4.82685 -2.61356 0
M  V30 9570 H 909.972 -3.15764 -3.09428 0
M  V30 9571 N 909.032 0.252966 -1.55557 0
M  V30 9572 C 910.309 1.00432 -1.67847 0
M  V30 9573 C 910.689 2.03587 -0.55816 0
M  V30 9574 O 910.037 2.24239 0.439197 0
M  V30 9575 C 910.247 1.64313 -3.079 0
M  V30 9576 C 911.595 2.14726 -3.66303 0
M  V30 9577 O 912.619 1.74264 -3.10661 0
M  V30 9578 O 911.478 2.89 -4.63833 0
M  V30 9579 H 908.572 0.467102 -0.682455 0
M  V30 9580 H 911.118 0.247233 -1.67889 0
M  V30 9581 H 909.89 0.896681 -3.80888 0
M  V30 9582 H 909.513 2.46657 -3.11843 0
M  V30 9583 N 910.51 1.48831 0.518367 0
M  V30 9584 C 911.473 1.63721 1.604 0
M  V30 9585 C 912.473 0.509857 1.52503 0
M  V30 9586 O 913.663 0.775922 1.55965 0
M  V30 9587 C 910.795 1.61831 3.00039 0
M  V30 9588 H 911.988 2.60534 1.48533 0
M  V30 9589 H 909.541 1.37602 0.741309 0
M  V30 9590 H 910.276 0.665387 3.17401 0
M  V30 9591 H 910.061 2.43686 3.0718 0
M  V30 9592 H 911.551 1.75467 3.78947 0
M  V30 9593 N 911.988 -0.768124 1.37614 0
M  V30 9594 C 912.898 -1.91249 1.35871 0
M  V30 9595 C 913.914 -1.7208 0.257786 0
M  V30 9596 O 915.09 -1.95253 0.493782 0
M  V30 9597 C 912.155 -3.26423 1.16829 0
M  V30 9598 C 911.216 -3.5822 2.36594 0
M  V30 9599 C 910.449 -4.86945 2.1845 0
M  V30 9600 O 910.672 -5.58258 1.17064 0
M  V30 9601 O 909.606 -5.17888 3.06718 0
M  V30 9602 H 913.432 -1.95671 2.32264 0
M  V30 9603 H 911.017 -0.911382 1.18382 0
M  V30 9604 H 912.899 -4.07269 1.08212 0
M  V30 9605 H 911.574 -3.22845 0.235123 0
M  V30 9606 H 910.481 -2.77594 2.50783 0
M  V30 9607 H 911.814 -3.66545 3.2849 0
M  V30 9608 N 913.466 -1.22244 -0.994698 0
M  V30 9609 C 914.398 -0.948706 -2.08644 0
M  V30 9610 C 915.411 0.0720049 -1.62641 0
M  V30 9611 O 916.6 -0.161778 -1.77765 0
M  V30 9612 C 913.7 -0.404885 -3.36473 0
M  V30 9613 C 912.873 -1.48239 -4.11514 0
M  V30 9614 C 911.932 -0.94597 -5.17627 0
M  V30 9615 O 910.958 -1.63177 -5.45309 0
M  V30 9616 N 912.16 0.23355 -5.8003 0
M  V30 9617 H 914.925 -1.88858 -2.32707 0
M  V30 9618 H 912.486 -1.12908 -1.16032 0
M  V30 9619 H 914.478 -0.0313903 -4.04688 0
M  V30 9620 H 913.048 0.440061 -3.09487 0
M  V30 9621 H 912.268 -2.02928 -3.37955 0
M  V30 9622 H 913.556 -2.20741 -4.58422 0
M  V30 9623 H 912.954 0.80756 -5.59906 0
M  V30 9624 H 911.511 0.54845 -6.49488 0
M  V30 9625 N 914.944 1.19125 -1.03184 0
M  V30 9626 C 915.891 2.2245 -0.6152 0
M  V30 9627 C 916.861 1.61869 0.372502 0
M  V30 9628 O 918.046 1.88901 0.268491 0
M  V30 9629 C 915.186 3.45091 0.0248027 0
M  V30 9630 C 914.299 4.20044 -1.0093 0
M  V30 9631 C 913.434 5.30119 -0.338744 0
M  V30 9632 C 912.473 5.96833 -1.35855 0
M  V30 9633 N 911.61 6.98464 -0.713594 0
M  V30 9634 H 916.45 2.57445 -1.50086 0
M  V30 9635 H 913.987 1.26485 -0.751005 0
M  V30 9636 H 915.945 4.15149 0.413131 0
M  V30 9637 H 914.575 3.10742 0.874028 0
M  V30 9638 H 913.627 3.48901 -1.51566 0
M  V30 9639 H 914.939 4.65796 -1.78425 0
M  V30 9640 H 914.093 6.0661 0.104269 0
M  V30 9641 H 912.832 4.85446 0.468382 0
M  V30 9642 H 911.837 5.1909 -1.81179 0
M  V30 9643 H 913.062 6.4359 -2.16722 0
M  V30 9644 H 911.008 6.55959 0.0733863 0
M  V30 9645 H 910.925 7.42422 -1.42638 0
M  V30 9646 H 912.193 7.78943 -0.294681 0
M  V30 9647 N 916.422 0.810101 1.35185 0
M  V30 9648 C 917.37 0.211071 2.3164 0
M  V30 9649 C 918.364 -0.641109 1.568 0
M  V30 9650 O 919.57 -0.533881 1.719 0
M  V30 9651 H 915.945 0.0494978 0.750369 0
M  V30 9652 H 917.916 1.03964 2.79703 0
M  V30 9653 C 916.665 -0.622933 3.42074 0
M  V30 9654 H 915.988 0.0234648 3.99793 0
M  V30 9655 H 917.428 -1.0084 4.11834 0
M  V30 9656 C 915.887 -1.78994 2.85417 0
M  V30 9657 O 916.417 -2.88758 2.79252 0
M  V30 9658 N 914.623 -1.60259 2.42416 0
M  V30 9659 H 914.17 -0.70974 2.4763 0
M  V30 9660 H 914.128 -2.38498 2.04857 0
M  V30 9661 N 917.9 -1.47166 0.563914 0
M  V30 9662 C 918.83 -2.32894 -0.168148 0
M  V30 9663 C 919.811 -1.44202 -0.902214 0
M  V30 9664 O 920.996 -1.73048 -0.881365 0
M  V30 9665 C 918.126 -3.26116 -1.19439 0
M  V30 9666 C 917.08 -4.24101 -0.576363 0
M  V30 9667 C 916.406 -5.06696 -1.70772 0
M  V30 9668 C 917.706 -5.20142 0.47425 0
M  V30 9669 H 919.4 -2.9435 0.547573 0
M  V30 9670 H 916.946 -1.41545 0.264778 0
M  V30 9671 H 918.899 -3.84935 -1.71474 0
M  V30 9672 H 917.623 -2.62728 -1.94014 0
M  V30 9673 H 916.282 -3.66519 -0.0772534 0
M  V30 9674 H 915.93 -4.39707 -2.44268 0
M  V30 9675 H 915.63 -5.7304 -1.29994 0
M  V30 9676 H 917.154 -5.68375 -2.2312 0
M  V30 9677 H 918.568 -5.73286 0.0397035 0
M  V30 9678 H 916.965 -5.94726 0.801287 0
M  V30 9679 H 918.035 -4.65214 1.36764 0
M  V30 9680 N 919.378 -0.300708 -1.54705 0
M  V30 9681 C 920.625 0.308654 -2.00134 0
M  V30 9682 C 920.953 1.53918 -1.1891 0
M  V30 9683 O 920.208 1.94054 -0.253263 0
M  V30 9684 C 920.507 0.710108 -3.50275 0
M  V30 9685 C 920.173 -0.418651 -4.48952 0
M  V30 9686 C 918.835 -0.728524 -4.75653 0
M  V30 9687 C 921.187 -1.17797 -5.07714 0
M  V30 9688 C 918.515 -1.80085 -5.58378 0
M  V30 9689 C 920.867 -2.24022 -5.91606 0
M  V30 9690 C 919.531 -2.55616 -6.16617 0
M  V30 9691 H 918.801 0.112945 -0.732342 0
M  V30 9692 H 921.448 -0.419744 -1.86843 0
M  V30 9693 H 919.753 1.51859 -3.61173 0
M  V30 9694 H 921.45 1.19277 -3.8285 0
M  V30 9695 H 918.04 -0.167034 -4.28274 0
M  V30 9696 H 922.224 -0.951835 -4.87087 0
M  V30 9697 H 917.48 -2.05036 -5.75995 0
M  V30 9698 H 921.654 -2.83317 -6.36164 0
M  V30 9699 H 919.281 -3.38839 -6.80509 0
M  V30 9700 N 920.856 1.57574 -0.0284266 0
M  V30 9701 C 921.786 2.1321 0.952039 0
M  V30 9702 C 922.767 1.04806 1.33977 0
M  V30 9703 O 923.952 1.32635 1.41851 0
M  V30 9704 C 921.082 2.65862 2.23461 0
M  V30 9705 C 920.036 3.79047 1.98765 0
M  V30 9706 C 919.362 4.18124 3.33281 0
M  V30 9707 C 920.662 5.05151 1.32739 0
M  V30 9708 H 922.356 2.95385 0.488705 0
M  V30 9709 H 919.902 1.42092 0.233628 0
M  V30 9710 H 921.855 3.03417 2.92431 0
M  V30 9711 H 920.579 1.80848 2.71959 0
M  V30 9712 H 919.238 3.41929 1.32213 0
M  V30 9713 H 918.886 3.30092 3.79537 0
M  V30 9714 H 918.586 4.94396 3.17563 0
M  V30 9715 H 920.11 4.58262 4.0352 0
M  V30 9716 H 921.524 5.40297 1.91708 0
M  V30 9717 H 919.921 5.86416 1.27421 0
M  V30 9718 H 920.991 4.83969 0.300261 0
M  V30 9719 N 922.334 -0.244713 1.55689 0
M  V30 9720 C 923.75 -0.593331 1.48161 0
M  V30 9721 C 923.95 -1.88234 0.719047 0
M  V30 9722 O 923.006 -2.51266 0.249292 0
M  V30 9723 C 924.319 -0.694032 2.92581 0
M  V30 9724 C 925.867 -0.786213 3.02965 0
M  V30 9725 C 926.342 -0.918457 4.48696 0
M  V30 9726 N 927.833 -0.983272 4.52643 0
M  V30 9727 C 928.568 -1.1049 5.62654 0
M  V30 9728 N 928.064 -1.19193 6.8247 0
M  V30 9729 N 929.857 -1.13823 5.50455 0
M  V30 9730 H 922.008 0.601446 2.03707 0
M  V30 9731 H 924.271 0.207894 0.924924 0
M  V30 9732 H 923.977 0.183133 3.51223 0
M  V30 9733 H 923.851 -1.56525 3.4319 0
M  V30 9734 H 926.238 -1.65383 2.44402 0
M  V30 9735 H 926.319 0.110202 2.55563 0
M  V30 9736 H 925.963 -0.0553881 5.0787 0
M  V30 9737 H 925.893 -1.82994 4.93782 0
M  V30 9738 H 928.384 -0.927269 3.66347 0
M  V30 9739 H 928.697 -1.28387 7.62061 0
M  V30 9740 H 927.042 -1.16147 6.85226 0
M  V30 9741 H 930.233 -1.06673 4.55783 0
M  V30 9742 H 930.406 -1.22957 6.36228 0
M  V30 9743 N 923.813 -1.49104 -0.510467 0
M  V30 9744 C 924.76 -1.65074 -1.61305 0
M  V30 9745 C 925.73 -0.492362 -1.58635 0
M  V30 9746 O 926.915 -0.718241 -1.76765 0
M  V30 9747 C 924.055 -1.71457 -2.99493 0
M  V30 9748 C 923.168 -2.98536 -3.12251 0
M  V30 9749 C 922.303 -2.95957 -4.41116 0
M  V30 9750 C 921.342 -4.17655 -4.47471 0
M  V30 9751 N 920.479 -4.13041 -5.67751 0
M  V30 9752 H 925.319 -2.59222 -1.46996 0
M  V30 9753 H 922.856 -1.28535 -0.715346 0
M  V30 9754 H 924.814 -1.7314 -3.79577 0
M  V30 9755 H 923.444 -0.807834 -3.12528 0
M  V30 9756 H 922.496 -3.06509 -2.25292 0
M  V30 9757 H 923.808 -3.88527 -3.12807 0
M  V30 9758 H 922.962 -2.96149 -5.2951 0
M  V30 9759 H 921.701 -2.03728 -4.4311 0
M  V30 9760 H 920.706 -4.17717 -3.57481 0
M  V30 9761 H 921.931 -5.11066 -4.472 0
M  V30 9762 H 919.877 -3.23643 -5.70606 0
M  V30 9763 H 919.794 -4.96757 -5.69884 0
M  V30 9764 H 921.062 -4.17322 -6.58379 0
M  V30 9765 N 925.291 0.760815 -1.38019 0
M  V30 9766 C 926.539 1.51673 -1.33566 0
M  V30 9767 C 926.86 1.94852 0.076024 0
M  V30 9768 O 926.13 1.67112 1.02227 0
M  V30 9769 H 924.71 0.562581 -0.491438 0
M  V30 9770 H 927.372 0.904832 -1.72623 0
M  V30 9771 H 926.468 2.41102 -1.98182 0
M  V30 9772 N 926.769 1.22769 0.988202 0
M  V30 9773 C 927.716 1.00195 2.07917 0
M  V30 9774 C 928.686 -0.0779391 1.65917 0
M  V30 9775 O 929.871 0.0726005 1.90662 0
M  V30 9776 C 927.011 0.590853 3.40004 0
M  V30 9777 C 926.124 1.74202 3.9532 0
M  V30 9778 C 925.259 1.27846 5.15586 0
M  V30 9779 C 924.298 2.40087 5.63049 0
M  V30 9780 N 923.435 1.94744 6.74551 0
M  V30 9781 H 928.275 1.93581 2.26562 0
M  V30 9782 H 925.812 0.96448 1.11068 0
M  V30 9783 H 927.77 0.333653 4.15864 0
M  V30 9784 H 926.4 -0.306007 3.21346 0
M  V30 9785 H 925.452 2.11342 3.16289 0
M  V30 9786 H 926.764 2.58612 4.26522 0
M  V30 9787 H 925.918 0.978919 5.9875 0
M  V30 9788 H 924.657 0.404617 4.86019 0
M  V30 9789 H 923.662 2.70824 4.78471 0
M  V30 9790 H 924.887 3.27995 5.9464 0
M  V30 9791 H 922.833 1.09729 6.46758 0
M  V30 9792 H 922.75 2.72718 7.05096 0
M  V30 9793 H 924.018 1.67873 7.61209 0
M  V30 9794 N 928.247 -1.18576 1.03814 0
M  V30 9795 C 929.658 -1.70159 0.768299 0
M  V30 9796 C 930.009 -1.8286 -0.711106 0
M  V30 9797 O 929.134 -1.5063 -1.55369 0
M  V30 9798 C 929.729 -3.09062 1.38804 0
M  V30 9799 C 928.288 -3.57866 1.16656 0
M  V30 9800 C 927.435 -2.34484 1.48029 0
M  V30 9801 H 930.386 -1.03287 1.20488 0
M  V30 9802 H 930.407 -3.72211 0.7899 0
M  V30 9803 H 929.919 -2.99785 2.46476 0
M  V30 9804 H 928.02 -3.72442 0.108471 0
M  V30 9805 H 928.133 -4.41445 1.8618 0
M  V30 9806 H 926.497 -2.38273 0.899902 0
M  V30 9807 H 927.28 -2.27829 2.56805 0
M  V30 9808 N 929.725 -0.817259 -1.34754 0
M  V30 9809 C 930.965 -0.408429 -2.00278 0
M  V30 9810 C 931.329 1.00818 -1.634 0
M  V30 9811 O 932.53 1.51959 -2.21725 0
M  V30 9812 C 930.801 -0.598219 -3.52358 0
M  V30 9813 S 932.36 -0.281395 -4.37897 0
M  V30 9814 H 929.178 -0.154587 -0.693991 0
M  V30 9815 H 931.78 -1.06184 -1.6415 0
M  V30 9816 H 930.484 -1.62901 -3.76685 0
M  V30 9817 H 930.015 0.0701299 -3.93337 0
M  V30 9818 H 932.03 0.907024 -4.8784 0
M  V30 9819 N 931.203 1.46865 -0.571711 0
M  V30 9820 C 932.431 2.06818 -0.0583975 0
M  V30 9821 C 932.846 1.42218 1.24175 0
M  V30 9822 O 932.203 0.523655 1.74826 0
M  V30 9823 C 932.254 3.61281 0.125673 0
M  V30 9824 O 931.975 4.23462 -1.123 0
M  V30 9825 C 933.476 4.38137 0.674604 0
M  V30 9826 H 930.696 0.668948 -0.052438 0
M  V30 9827 H 933.24 1.88656 -0.789251 0
M  V30 9828 H 931.395 3.78908 0.806707 0
M  V30 9829 H 931.809 5.16192 -0.929869 0
M  V30 9830 H 933.283 5.46845 0.752626 0
M  V30 9831 H 933.76 4.05419 1.68915 0
M  V30 9832 H 934.366 4.2529 0.0287979 0
M  V30 9833 N 932.681 0.308908 1.54543 0
M  V30 9834 C 933.927 -0.298478 2.00592 0
M  V30 9835 C 934.26 -1.52929 1.19692 0
M  V30 9836 O 933.535 -1.9254 0.27542 0
M  V30 9837 C 933.818 -0.647218 3.54236 0
M  V30 9838 C 933.671 0.593284 4.4587 0
M  V30 9839 C 934.99 -1.47064 4.14801 0
M  V30 9840 H 932.109 -0.107012 0.72919 0
M  V30 9841 H 934.751 0.422578 1.85241 0
M  V30 9842 H 932.901 -1.26153 3.67447 0
M  V30 9843 H 934.573 1.2317 4.44552 0
M  V30 9844 H 932.816 1.22501 4.16144 0
M  V30 9845 H 933.487 0.305018 5.51157 0
M  V30 9846 H 935.963 -0.951511 4.05075 0
M  V30 9847 H 934.839 -1.68343 5.22448 0
M  V30 9848 H 935.1 -2.4623 3.67183 0
M  V30 9849 N 934.159 -1.57557 0.0367827 0
M  V30 9850 C 935.407 -1.91735 -0.63892 0
M  V30 9851 C 935.728 -0.914515 -1.72226 0
M  V30 9852 O 934.998 0.0428248 -1.95853 0
M  V30 9853 H 933.578 -0.707738 -0.23899 0
M  V30 9854 H 936.24 -1.94708 0.0863931 0
M  V30 9855 H 935.336 -2.92568 -1.08676 0
M  V30 9856 N 935.637 0.236453 -1.55816 0
M  V30 9857 C 936.884 0.963012 -1.78136 0
M  V30 9858 C 937.212 1.84918 -0.602952 0
M  V30 9859 O 936.467 1.91285 0.413325 0
M  V30 9860 C 936.766 1.84549 -3.06066 0
M  V30 9861 C 936.432 1.11381 -4.36927 0
M  V30 9862 C 935.094 0.911635 -4.72486 0
M  V30 9863 C 937.446 0.596 -5.17781 0
M  V30 9864 C 934.774 0.179515 -5.86425 0
M  V30 9865 C 937.126 -0.122702 -6.32481 0
M  V30 9866 C 935.79 -0.336263 -6.66652 0
M  V30 9867 H 935.06 0.352391 -0.651845 0
M  V30 9868 H 937.707 0.232295 -1.90086 0
M  V30 9869 H 936.012 2.6436 -2.89173 0
M  V30 9870 H 937.709 2.40953 -3.20535 0
M  V30 9871 H 934.299 1.28134 -4.08998 0
M  V30 9872 H 938.483 0.73971 -4.90757 0
M  V30 9873 H 933.739 0.00368224 -6.114 0
M  V30 9874 H 937.913 -0.531516 -6.94369 0
M  V30 9875 H 935.54 -0.905507 -7.54788 0
M  V30 9876 N 937.115 1.49373 0.502552 0
M  V30 9877 C 938.355 1.60398 1.26696 0
M  V30 9878 C 938.719 0.283599 1.89894 0
M  V30 9879 O 939.92 0.269022 2.6745 0
M  V30 9880 C 938.191 2.72998 2.30666 0
M  V30 9881 S 939.75 3.03964 3.16466 0
M  V30 9882 H 936.568 0.565781 0.430596 0
M  V30 9883 H 939.17 1.87024 0.569418 0
M  V30 9884 H 937.874 3.67458 1.82765 0
M  V30 9885 H 937.405 2.4836 3.05091 0
M  V30 9886 H 939.42 2.45367 4.31288 0
M  V30 9887 N 938.594 -0.753485 1.38421 0
M  V30 9888 C 939.871 -1.50318 1.25155 0
M  V30 9889 C 940.251 -2.10588 -0.147003 0
M  V30 9890 O 939.599 -1.97071 -1.15651 0
M  V30 9891 C 939.809 -2.56946 2.36177 0
M  V30 9892 C 941.157 -3.23846 2.74607 0
M  V30 9893 O 942.181 -2.67251 2.3549 0
M  V30 9894 O 941.04 -4.2621 3.42064 0
M  V30 9895 H 938.134 -0.666624 0.48943 0
M  V30 9896 H 940.68 -0.788887 1.50249 0
M  V30 9897 H 939.452 -2.1066 3.29754 0
M  V30 9898 H 939.075 -3.35956 2.12648 0
M  V30 9899 N 940.072 -1.23292 -0.981677 0
M  V30 9900 C 941.005 -0.956198 -2.07201 0
M  V30 9901 C 941.983 0.105027 -1.6226 0
M  V30 9902 O 943.167 -0.0289582 -1.88478 0
M  V30 9903 C 940.294 -0.44029 -3.35826 0
M  V30 9904 C 939.34 -1.48792 -3.99704 0
M  V30 9905 S 940.173 -3.06491 -4.39117 0
M  V30 9906 C 941.329 -2.56567 -5.70898 0
M  V30 9907 H 941.562 -1.87947 -2.30355 0
M  V30 9908 H 939.095 -1.06522 -1.1177 0
M  V30 9909 H 941.053 -0.149237 -4.10229 0
M  V30 9910 H 939.714 0.462045 -3.10683 0
M  V30 9911 H 938.907 -1.07706 -4.92357 0
M  V30 9912 H 938.509 -1.72826 -3.31673 0
M  V30 9913 H 940.801 -1.98508 -6.47766 0
M  V30 9914 H 941.744 -3.47755 -6.16824 0
M  V30 9915 H 942.152 -1.97465 -5.28836 0
M  V30 9916 N 941.55 1.18024 -1.04442 0
M  V30 9917 C 942.498 2.23834 -0.632557 0
M  V30 9918 C 943.492 1.65902 0.342488 0
M  V30 9919 O 944.698 1.78778 0.20937 0
M  V30 9920 H 941.073 0.728544 -0.186353 0
M  V30 9921 H 943.044 2.55876 -1.53526 0
M  V30 9922 C 941.793 3.47697 -0.0153661 0
M  V30 9923 H 941.116 3.92574 -0.756704 0
M  V30 9924 H 942.556 4.23345 0.235541 0
M  V30 9925 C 941.015 3.13416 1.23579 0
M  V30 9926 O 941.545 3.27499 2.3261 0
M  V30 9927 N 939.751 2.67708 1.13053 0
M  V30 9928 H 939.298 2.56449 0.243277 0
M  V30 9929 H 939.256 2.45143 1.96855 0
M  V30 9930 N 943.028 0.824394 1.34319 0
M  V30 9931 C 944.276 0.41235 1.97849 0
M  V30 9932 C 944.597 -1.02841 1.65677 0
M  V30 9933 O 943.867 -1.71421 0.948245 0
M  V30 9934 H 942.447 0.149486 0.73189 0
M  V30 9935 H 945.109 1.05416 1.63931 0
M  V30 9936 H 944.205 0.532557 3.07523 0
M  V30 9937 N 944.506 -1.46559 0.579492 0
M  V30 9938 C 945.453 -2.30275 -0.155598 0
M  V30 9939 C 946.423 -1.40422 -0.887175 0
M  V30 9940 O 947.608 -1.69373 -0.878481 0
M  V30 9941 C 944.748 -3.24827 -1.16539 0
M  V30 9942 C 943.861 -4.29778 -0.43759 0
M  V30 9943 C 942.996 -5.11461 -1.43462 0
M  V30 9944 C 942.035 -6.08164 -0.693048 0
M  V30 9945 N 941.172 -6.82726 -1.63799 0
M  V30 9946 H 946.012 -2.92607 0.564356 0
M  V30 9947 H 943.549 -1.44211 0.290126 0
M  V30 9948 H 945.507 -3.78088 -1.76368 0
M  V30 9949 H 944.137 -2.64311 -1.8531 0
M  V30 9950 H 943.189 -3.794 0.27567 0
M  V30 9951 H 944.501 -4.98597 0.142298 0
M  V30 9952 H 943.655 -5.68982 -2.1058 0
M  V30 9953 H 942.394 -4.42595 -2.04844 0
M  V30 9954 H 941.399 -5.49799 -0.00807093 0
M  V30 9955 H 942.624 -6.79047 -0.0846678 0
M  V30 9956 H 940.57 -6.16572 -2.23997 0
M  V30 9957 H 940.487 -7.47795 -1.11082 0
M  V30 9958 H 941.755 -7.44807 -2.29962 0
M  V30 9959 N 945.984 -0.3171 -1.54377 0
M  V30 9960 C 947.224 0.288083 -2.0236 0
M  V30 9961 C 947.588 1.4985 -1.20038 0
M  V30 9962 O 948.789 2.17611 -1.57794 0
M  V30 9963 C 947.06 0.620192 -3.51978 0
M  V30 9964 S 948.619 1.20595 -4.21903 0
M  V30 9965 H 945.437 0.0875231 -0.705592 0
M  V30 9966 H 948.039 -0.448719 -1.90281 0
M  V30 9967 H 946.743 -0.268982 -4.09518 0
M  V30 9968 H 946.274 1.38736 -3.68125 0
M  V30 9969 H 948.289 2.49308 -4.29022 0
M  V30 9970 N 947.462 1.57535 -0.0451378 0
M  V30 9971 C 948.372 2.14653 0.946646 0
M  V30 9972 C 949.388 1.10279 1.3459 0
M  V30 9973 O 950.564 1.42417 1.42405 0
M  V30 9974 C 947.629 2.67533 2.20515 0
M  V30 9975 C 946.69 3.86682 1.86481 0
M  V30 9976 C 945.923 4.37031 3.06332 0
M  V30 9977 O 946.146 3.86481 4.1951 0
M  V30 9978 O 945.08 5.28691 2.87697 0
M  V30 9979 H 948.906 2.99706 0.49091 0
M  V30 9980 H 946.491 1.48355 0.17641 0
M  V30 9981 H 948.373 3.01542 2.94365 0
M  V30 9982 H 947.048 1.85554 2.65238 0
M  V30 9983 H 945.955 3.57573 1.09966 0
M  V30 9984 H 947.288 4.69873 1.46562 0
M  V30 9985 N 948.94 -0.228186 1.55939 0
M  V30 9986 C 949.887 -1.28274 1.91871 0
M  V30 9987 C 950.857 -1.46906 0.775103 0
M  V30 9988 O 952.042 -1.60583 1.03042 0
M  V30 9989 C 949.182 -2.62945 2.23504 0
M  V30 9990 C 948.295 -2.52166 3.50766 0
M  V30 9991 C 947.43 -3.79316 3.71878 0
M  V30 9992 C 946.469 -3.63231 4.92676 0
M  V30 9993 N 945.606 -4.82315 5.10212 0
M  V30 9994 H 950.446 -0.96931 2.81795 0
M  V30 9995 H 947.983 -0.467331 1.39479 0
M  V30 9996 H 949.941 -3.41359 2.39854 0
M  V30 9997 H 948.571 -2.92397 1.36762 0
M  V30 9998 H 947.623 -1.65221 3.42646 0
M  V30 9999 H 948.935 -2.36199 4.39331 0
M  V30 10000 H 948.089 -4.66173 3.88288 0
M  V30 10001 H 946.828 -3.982 2.81581 0
M  V30 10002 H 945.833 -2.74757 4.76223 0
M  V30 10003 H 947.058 -3.45823 5.84451 0
M  V30 10004 H 945.004 -5.01526 4.22856 0
M  V30 10005 H 944.921 -4.6905 5.92898 0
M  V30 10006 H 946.189 -5.70618 5.31051 0
M  V30 10007 N 950.418 -1.49637 -0.494624 0
M  V30 10008 C 951.834 -1.36541 -0.826361 0
M  V30 10009 C 952.034 -0.403386 -1.97421 0
M  V30 10010 O 951.09 0.162614 -2.51976 0
M  V30 10011 C 952.403 -2.77401 -1.16057 0
M  V30 10012 C 953.951 -2.86148 -1.26841 0
M  V30 10013 C 954.426 -4.27789 -1.63587 0
M  V30 10014 N 955.917 -4.3063 -1.70624 0
M  V30 10015 C 956.652 -5.37198 -2.00514 0
M  V30 10016 N 956.148 -6.54004 -2.28584 0
M  V30 10017 N 957.941 -5.2462 -2.01818 0
M  V30 10018 H 950.092 -2.10776 0.26219 0
M  V30 10019 H 952.355 -0.946419 0.0547235 0
M  V30 10020 H 952.061 -3.49526 -0.390434 0
M  V30 10021 H 951.935 -3.1317 -2.10249 0
M  V30 10022 H 954.322 -2.14256 -2.02925 0
M  V30 10023 H 954.403 -2.53953 -0.30684 0
M  V30 10024 H 954.047 -5.00209 -0.880507 0
M  V30 10025 H 953.977 -4.57453 -2.60854 0
M  V30 10026 H 956.468 -3.46393 -1.51065 0
M  V30 10027 H 956.781 -7.31041 -2.50598 0
M  V30 10028 H 955.126 -6.57219 -2.26027 0
M  V30 10029 H 958.317 -4.32371 -1.79369 0
M  V30 10030 H 958.49 -6.07765 -2.24778 0
M  V30 10031 N 951.896 0.746133 -1.38819 0
M  V30 10032 C 953.142 1.50768 -1.35635 0
M  V30 10033 C 953.475 1.94132 0.0512435 0
M  V30 10034 O 952.75 1.65979 1.01396 0
M  V30 10035 C 953.033 2.7551 -2.31875 0
M  V30 10036 C 952.886 2.38236 -3.81528 0
M  V30 10037 C 954.205 3.77566 -2.26124 0
M  V30 10038 H 951.324 0.546922 -0.494009 0
M  V30 10039 H 953.966 0.854017 -1.69725 0
M  V30 10040 H 952.116 3.31285 -2.02935 0
M  V30 10041 H 953.788 1.88178 -4.21173 0
M  V30 10042 H 952.031 1.70601 -3.98846 0
M  V30 10043 H 952.702 3.27517 -4.44339 0
M  V30 10044 H 955.178 3.31349 -2.51689 0
M  V30 10045 H 954.054 4.62531 -2.95561 0
M  V30 10046 H 954.315 4.23689 -1.26254 0
M  V30 10047 N 953.375 1.23811 0.975125 0
M  V30 10048 C 954.307 0.981779 2.07108 0
M  V30 10049 C 955.32 -0.0461211 1.62735 0
M  V30 10050 O 956.509 0.190039 1.77486 0
M  V30 10051 C 953.609 0.458364 3.35786 0
M  V30 10052 C 952.782 1.54767 4.09104 0
M  V30 10053 C 951.841 1.0282 5.16057 0
M  V30 10054 O 950.867 1.71831 5.42644 0
M  V30 10055 N 952.069 -0.141243 5.80328 0
M  V30 10056 H 954.834 1.92537 2.29673 0
M  V30 10057 H 952.395 1.1474 1.14221 0
M  V30 10058 H 954.387 0.0957686 4.04587 0
M  V30 10059 H 952.957 -0.390768 3.10148 0
M  V30 10060 H 952.177 2.08279 3.34684 0
M  V30 10061 H 953.465 2.28006 4.54853 0
M  V30 10062 H 952.863 -0.718382 5.6112 0
M  V30 10063 H 951.42 -0.445052 6.50279 0
M  V30 10064 N 954.853 -1.17469 1.05066 0
M  V30 10065 C 956.13 -1.83625 0.673872 0
M  V30 10066 C 956.51 -1.93412 -0.845871 0
M  V30 10067 O 955.858 -1.4677 -1.75131 0
M  V30 10068 C 956.068 -3.21352 1.36139 0
M  V30 10069 C 957.416 -3.97274 1.49863 0
M  V30 10070 O 958.44 -3.30827 1.3203 0
M  V30 10071 O 957.299 -5.16349 1.79013 0
M  V30 10072 H 954.393 -0.792297 0.237055 0
M  V30 10073 H 956.939 -1.24776 1.15017 0
M  V30 10074 H 955.711 -3.0919 2.39827 0
M  V30 10075 H 955.334 -3.87867 0.874364 0
M  V30 10076 N 956.331 -0.831506 -1.3388 0
M  V30 10077 C 957.577 -0.424302 -1.98312 0
M  V30 10078 C 957.91 1.01211 -1.65741 0
M  V30 10079 O 957.185 1.70636 -0.933464 0
M  V30 10080 C 957.468 -0.636815 -3.54424 0
M  V30 10081 C 957.321 -2.11997 -3.96708 0
M  V30 10082 C 958.64 -0.0782411 -4.4003 0
M  V30 10083 H 955.759 -0.155637 -0.720379 0
M  V30 10084 H 958.401 -1.04566 -1.58638 0
M  V30 10085 H 956.551 -0.107907 -3.8835 0
M  V30 10086 H 958.223 -2.71317 -3.73075 0
M  V30 10087 H 956.466 -2.60723 -3.46707 0
M  V30 10088 H 957.137 -2.21944 -5.05416 0
M  V30 10089 H 959.613 -0.530243 -4.12708 0
M  V30 10090 H 958.489 -0.256676 -5.483 0
M  V30 10091 H 958.75 1.01745 -4.30233 0
M  V30 10092 N 957.809 1.4625 -0.587256 0
M  V30 10093 C 959.058 2.01571 -0.0722643 0
M  V30 10094 C 959.371 1.46385 1.29733 0
M  V30 10095 O 960.577 1.93554 1.90392 0
M  V30 10096 C 959.033 3.59814 -0.078579 0
M  V30 10097 C 958.641 4.23996 -1.44678 0
M  V30 10098 C 960.385 4.22776 0.382231 0
M  V30 10099 C 958.292 5.74332 -1.41057 0
M  V30 10100 H 957.222 0.753642 -0.0232461 0
M  V30 10101 H 959.873 1.67936 -0.739577 0
M  V30 10102 H 958.255 3.90546 0.654988 0
M  V30 10103 H 959.429 4.04867 -2.20043 0
M  V30 10104 H 957.744 3.73147 -1.84799 0
M  V30 10105 H 960.341 5.32983 0.428182 0
M  V30 10106 H 960.684 3.92027 1.40072 0
M  V30 10107 H 961.217 3.96687 -0.297417 0
M  V30 10108 H 957.956 6.09747 -2.40601 0
M  V30 10109 H 957.476 5.95711 -0.699185 0
M  V30 10110 H 959.155 6.37137 -1.12543 0
M  V30 10111 N 959.287 0.325282 1.54207 0
M  V30 10112 C 960.197 -0.548778 2.28091 0
M  V30 10113 C 961.213 -1.12772 1.32508 0
M  V30 10114 O 962.389 -1.14732 1.65525 0
M  V30 10115 C 959.454 -1.69284 3.02562 0
M  V30 10116 C 958.515 -1.14553 4.13734 0
M  V30 10117 C 957.748 -2.23506 4.84645 0
M  V30 10118 O 957.971 -3.43884 4.55082 0
M  V30 10119 O 956.905 -1.88828 5.71513 0
M  V30 10120 H 960.731 0.0512974 3.03657 0
M  V30 10121 H 958.316 0.0909159 1.49123 0
M  V30 10122 H 960.198 -2.35887 3.49192 0
M  V30 10123 H 958.873 -2.27906 2.2987 0
M  V30 10124 H 957.78 -0.444532 3.71449 0
M  V30 10125 H 959.113 -0.60441 4.88475 0
M  V30 10126 N 960.765 -1.57509 0.0534917 0
M  V30 10127 C 962.181 -1.56696 -0.303067 0
M  V30 10128 C 962.381 -1.06135 -1.71282 0
M  V30 10129 O 961.437 -0.71899 -2.42047 0
M  V30 10130 C 962.75 -3.00421 -0.129418 0
M  V30 10131 C 964.298 -3.12358 -0.200346 0
M  V30 10132 C 964.773 -4.57967 -0.0551971 0
M  V30 10133 N 966.264 -4.63066 -0.111398 0
M  V30 10134 C 966.999 -5.73395 -0.0232344 0
M  V30 10135 N 966.495 -6.92701 0.11741 0
M  V30 10136 N 968.288 -5.62045 -0.078984 0
M  V30 10137 H 960.439 -1.88696 0.975064 0
M  V30 10138 H 962.702 -0.869072 0.378706 0
M  V30 10139 H 962.408 -3.41456 0.842653 0
M  V30 10140 H 962.282 -3.66563 -0.889476 0
M  V30 10141 H 964.669 -2.71221 -1.16289 0
M  V30 10142 H 964.75 -2.48891 0.590506 0
M  V30 10143 H 964.394 -4.9979 0.904034 0
M  V30 10144 H 964.324 -5.19443 -0.865223 0
M  V30 10145 H 966.815 -3.77263 -0.219256 0
M  V30 10146 H 967.128 -7.72597 0.177326 0
M  V30 10147 H 965.473 -6.94833 0.152526 0
M  V30 10148 H 968.664 -4.67725 -0.187434 0
M  V30 10149 H 968.837 -6.48 -0.00681731 0
M  V30 10150 N 962.243 0.219913 -1.56058 0
M  V30 10151 C 963.49 0.944064 -1.79147 0
M  V30 10152 C 963.818 1.84268 -0.622531 0
M  V30 10153 O 963.073 1.91713 0.393013 0
M  V30 10154 C 963.372 1.81293 -3.08006 0
M  V30 10155 C 963.038 1.0674 -4.38084 0
M  V30 10156 C 961.7 0.86147 -4.73426 0
M  V30 10157 C 964.052 0.541049 -5.18384 0
M  V30 10158 C 961.38 0.117307 -5.86583 0
M  V30 10159 C 963.732 -0.189779 -6.32315 0
M  V30 10160 C 962.396 -0.406951 -6.66258 0
M  V30 10161 H 961.666 0.345458 -0.655546 0
M  V30 10162 H 964.313 0.212121 -1.90322 0
M  V30 10163 H 962.618 2.61278 -2.9196 0
M  V30 10164 H 964.315 2.3754 -3.23072 0
M  V30 10165 H 960.905 1.23789 -4.10334 0
M  V30 10166 H 965.089 0.687617 -4.91514 0
M  V30 10167 H 960.345 -0.0611651 -6.11369 0
M  V30 10168 H 964.519 -0.605134 -6.93766 0
M  V30 10169 H 962.146 -0.985511 -7.53785 0
M  V30 10170 N 963.721 1.49897 0.486681 0
M  V30 10171 C 964.967 1.61313 1.23893 0
M  V30 10172 C 965.322 0.302457 1.90008 0
M  V30 10173 O 964.615 -0.698466 1.78415 0
M  V30 10174 C 964.809 2.71982 2.31863 0
M  V30 10175 C 964.638 4.13685 1.76338 0
M  V30 10176 C 963.408 4.8029 1.57002 0
M  V30 10177 C 965.606 4.98446 1.26711 0
M  V30 10178 N 963.588 6.06259 0.965564 0
M  V30 10179 C 964.959 6.15011 0.784912 0
M  V30 10180 C 967.014 4.84338 1.15419 0
M  V30 10181 C 965.717 7.19019 0.200942 0
M  V30 10182 C 967.743 5.88508 0.584173 0
M  V30 10183 C 967.105 7.04311 0.112272 0
M  V30 10184 H 963.204 0.644555 0.442801 0
M  V30 10185 H 965.788 1.86959 0.543562 0
M  V30 10186 H 963.959 2.48086 2.98844 0
M  V30 10187 H 965.691 2.72842 2.98897 0
M  V30 10188 H 962.446 4.37324 1.81781 0
M  V30 10189 H 962.87 6.73554 0.6822 0
M  V30 10190 H 967.512 3.95107 1.50499 0
M  V30 10191 H 965.23 8.07937 -0.162099 0
M  V30 10192 H 968.816 5.79653 0.49938 0
M  V30 10193 H 967.696 7.83539 -0.321907 0
M  V30 10194 N 965.199 -0.738761 1.39212 0
M  V30 10195 C 966.476 -1.48982 1.26742 0
M  V30 10196 C 966.856 -2.10732 -0.12466 0
M  V30 10197 O 966.204 -1.98287 -1.13554 0
M  V30 10198 C 966.414 -2.54427 2.38889 0
M  V30 10199 C 967.762 -3.20915 2.78027 0
M  V30 10200 O 968.786 -2.64738 2.38311 0
M  V30 10201 O 967.645 -4.22558 3.46565 0
M  V30 10202 H 964.739 -0.661395 0.496473 0
M  V30 10203 H 967.285 -0.772907 1.51077 0
M  V30 10204 H 966.057 -2.07151 3.3197 0
M  V30 10205 H 965.68 -3.33682 2.162 0
M  V30 10206 N 966.677 -1.24326 -0.968545 0
M  V30 10207 C 967.924 -1.08245 -1.71141 0
M  V30 10208 C 968.252 0.378842 -1.90775 0
M  V30 10209 O 967.507 1.29634 -1.46607 0
M  V30 10210 C 967.806 -1.76644 -3.10695 0
M  V30 10211 C 967.472 -3.26572 -3.10905 0
M  V30 10212 C 966.134 -3.67475 -3.10669 0
M  V30 10213 C 968.486 -4.22422 -3.05302 0
M  V30 10214 C 965.814 -5.02666 -3.02562 0
M  V30 10215 C 968.166 -5.57619 -2.98737 0
M  V30 10216 C 966.83 -5.9787 -2.9683 0
M  V30 10217 H 966.1 -0.396098 -0.626249 0
M  V30 10218 H 968.747 -1.54418 -1.13258 0
M  V30 10219 H 967.052 -1.22864 -3.72037 0
M  V30 10220 H 968.749 -1.61668 -3.66967 0
M  V30 10221 H 965.339 -2.94017 -3.11852 0
M  V30 10222 H 969.523 -3.91821 -3.04614 0
M  V30 10223 H 964.779 -5.3305 -2.99446 0
M  V30 10224 H 968.953 -6.31595 -2.93361 0
M  V30 10225 H 966.58 -7.02587 -2.90303 0
M  V30 10226 N 968.156 1.1691 -1.05688 0
M  V30 10227 C 969.405 1.86629 -0.765022 0
M  V30 10228 C 969.718 1.82223 0.710918 0
M  V30 10229 O 970.924 2.47462 1.11691 0
M  V30 10230 C 969.38 3.34886 -1.3183 0
M  V30 10231 C 968.988 3.47781 -2.82404 0
M  V30 10232 C 970.732 4.099 -1.10372 0
M  V30 10233 C 968.639 4.9009 -3.31008 0
M  V30 10234 H 967.569 0.699082 -0.282491 0
M  V30 10235 H 970.22 1.31989 -1.27481 0
M  V30 10236 H 968.602 3.89094 -0.736312 0
M  V30 10237 H 969.776 3.03765 -3.46502 0
M  V30 10238 H 968.091 2.86193 -3.02461 0
M  V30 10239 H 970.688 5.14894 -1.4418 0
M  V30 10240 H 971.031 4.16279 -0.0417372 0
M  V30 10241 H 971.564 3.61913 -1.65117 0
M  V30 10242 H 968.303 4.88887 -4.36657 0
M  V30 10243 H 967.823 5.34756 -2.71655 0
M  V30 10244 H 969.502 5.58881 -3.25977 0
M  V30 10245 N 969.634 0.838594 1.33437 0
M  V30 10246 C 970.911 0.356112 1.92331 0
M  V30 10247 C 971.291 -1.1585 1.76471 0
M  V30 10248 O 970.639 -1.97281 1.15293 0
M  V30 10249 C 970.849 0.802715 3.39643 0
M  V30 10250 C 972.197 0.810575 4.16791 0
M  V30 10251 O 973.221 0.746304 3.48294 0
M  V30 10252 O 972.08 0.898082 5.3907 0
M  V30 10253 H 969.174 0.100711 0.820845 0
M  V30 10254 H 971.72 0.924428 1.42311 0
M  V30 10255 H 970.492 1.84529 3.45057 0
M  V30 10256 H 970.115 0.210956 3.9704 0
M  V30 10257 N 971.112 -1.45937 0.595003 0
M  V30 10258 C 972.044 -2.28575 -0.169137 0
M  V30 10259 C 973.057 -1.39226 -0.843792 0
M  V30 10260 O 974.246 -1.63716 -0.711291 0
M  V30 10261 C 971.346 -3.14616 -1.25976 0
M  V30 10262 C 970.519 -4.32166 -0.67466 0
M  V30 10263 C 969.578 -4.99511 -1.65456 0
M  V30 10264 O 968.604 -5.56712 -1.18578 0
M  V30 10265 N 969.806 -4.97643 -2.98885 0
M  V30 10266 H 972.571 -2.94797 0.539908 0
M  V30 10267 H 970.132 -1.55985 0.433614 0
M  V30 10268 H 972.124 -3.56534 -1.91483 0
M  V30 10269 H 970.694 -2.50387 -1.8715 0
M  V30 10270 H 969.914 -3.93882 0.158184 0
M  V30 10271 H 971.202 -5.08116 -0.263753 0
M  V30 10272 H 970.6 -4.52438 -3.39583 0
M  V30 10273 H 969.157 -5.43463 -3.59848 0
M  V30 10274 N 972.59 -0.333456 -1.54032 0
M  V30 10275 C 973.52 0.52051 -2.27625 0
M  V30 10276 C 974.501 1.1111 -1.28797 0
M  V30 10277 O 975.686 1.13438 -1.57625 0
M  V30 10278 C 972.816 1.67663 -3.04149 0
M  V30 10279 C 971.77 1.21487 -4.10396 0
M  V30 10280 C 971.096 2.45872 -4.74817 0
M  V30 10281 C 972.396 0.322603 -5.21303 0
M  V30 10282 H 974.09 -0.0933823 -2.99254 0
M  V30 10283 H 971.636 -0.0463526 -1.43925 0
M  V30 10284 H 973.589 2.28041 -3.54366 0
M  V30 10285 H 972.313 2.31727 -2.30153 0
M  V30 10286 H 970.972 0.633966 -3.61077 0
M  V30 10287 H 970.62 3.0832 -3.97426 0
M  V30 10288 H 970.32 2.15662 -5.46593 0
M  V30 10289 H 971.844 3.06994 -5.27814 0
M  V30 10290 H 973.258 0.832942 -5.67217 0
M  V30 10291 H 971.655 0.112843 -5.99994 0
M  V30 10292 H 972.725 -0.643954 -4.80605 0
M  V30 10293 N 974.068 1.57479 -0.061844 0
M  V30 10294 C 975.293 1.97843 0.622311 0
M  V30 10295 C 975.718 0.939602 1.62951 0
M  V30 10296 O 975.076 -0.095958 1.81046 0
M  V30 10297 C 975.124 3.37262 1.2762 0
M  V30 10298 O 974.228 3.35943 2.39199 0
M  V30 10299 H 973.569 0.644212 0.160896 0
M  V30 10300 H 976.099 2.04165 -0.133409 0
M  V30 10301 H 976.109 3.74226 1.62539 0
M  V30 10302 H 974.784 4.12404 0.538112 0
M  V30 10303 H 973.361 3.10737 2.06148 0
M  V30 10304 N 975.546 -0.211634 1.56173 0
M  V30 10305 C 976.795 -0.932647 1.78842 0
M  V30 10306 C 977.108 -1.85103 0.63217 0
M  V30 10307 O 978.314 -2.61143 0.742746 0
M  V30 10308 C 976.77 -1.70866 3.16753 0
M  V30 10309 C 976.378 -0.835934 4.40132 0
M  V30 10310 C 978.122 -2.4203 3.48743 0
M  V30 10311 C 976.029 -1.60987 5.69067 0
M  V30 10312 H 974.959 -0.351983 0.666801 0
M  V30 10313 H 977.61 -0.186284 1.82552 0
M  V30 10314 H 975.992 -2.4983 3.07247 0
M  V30 10315 H 977.166 -0.0861298 4.60719 0
M  V30 10316 H 975.481 -0.235941 4.15731 0
M  V30 10317 H 978.078 -3.00453 4.42303 0
M  V30 10318 H 978.421 -3.15406 2.71707 0
M  V30 10319 H 978.954 -1.70048 3.59623 0
M  V30 10320 H 975.693 -0.9192 6.49023 0
M  V30 10321 H 975.213 -2.33403 5.52524 0
M  V30 10322 H 976.892 -2.16798 6.09596 0
M  V30 10323 N 977.024 -1.50153 -0.478725 0
M  V30 10324 C 977.972 -1.68975 -1.59844 0
M  V30 10325 C 978.966 -0.555591 -1.6003 0
M  V30 10326 O 980.172 -0.735875 -1.64271 0
M  V30 10327 H 976.547 -0.533211 -0.530274 0
M  V30 10328 H 978.518 -2.62917 -1.41128 0
M  V30 10329 C 977.267 -1.79409 -2.97838 0
M  V30 10330 H 976.59 -2.66066 -2.98411 0
M  V30 10331 H 978.03 -1.96606 -3.75662 0
M  V30 10332 C 976.489 -0.543927 -3.3248 0
M  V30 10333 O 977.019 0.320376 -4.0042 0
M  V30 10334 N 975.225 -0.400217 -2.87831 0
M  V30 10335 H 974.772 -1.10458 -2.32716 0
M  V30 10336 H 974.73 0.435111 -3.11375 0
M  V30 10337 N 978.502 0.731368 -1.39602 0
M  V30 10338 C 979.73 1.52059 -1.40305 0
M  V30 10339 C 980.145 1.888 0.00147921 0
M  V30 10340 O 979.502 1.54354 0.973715 0
M  V30 10341 C 979.553 2.80588 -2.27931 0
M  V30 10342 O 979.274 2.45406 -3.62915 0
M  V30 10343 C 980.775 3.74592 -2.37056 0
M  V30 10344 H 977.995 0.469787 -0.479104 0
M  V30 10345 H 980.539 0.903436 -1.83462 0
M  V30 10346 H 978.694 3.38626 -1.88178 0
M  V30 10347 H 979.108 3.27996 -4.09291 0
M  V30 10348 H 980.582 4.61662 -3.02609 0
M  V30 10349 H 981.059 4.16597 -1.39081 0
M  V30 10350 H 981.665 3.22471 -2.77295 0
M  V30 10351 N 979.98 1.24838 0.961938 0
M  V30 10352 C 981.227 1.09151 1.70564 0
M  V30 10353 C 981.555 -0.368719 1.90973 0
M  V30 10354 O 980.81 -1.28854 1.47293 0
M  V30 10355 C 981.109 1.78289 3.09754 0
M  V30 10356 C 980.775 3.28216 3.09169 0
M  V30 10357 C 979.437 3.69118 3.08716 0
M  V30 10358 C 981.789 4.24035 3.03058 0
M  V30 10359 C 979.117 5.04263 2.99892 0
M  V30 10360 C 981.469 5.59195 2.95776 0
M  V30 10361 C 980.133 5.99436 2.93655 0
M  V30 10362 H 979.403 0.399414 0.624139 0
M  V30 10363 H 982.05 1.55016 1.12438 0
M  V30 10364 H 980.355 1.24835 3.7138 0
M  V30 10365 H 982.052 1.63612 3.66104 0
M  V30 10366 H 978.642 2.95667 3.10289 0
M  V30 10367 H 982.826 3.93431 3.02532 0
M  V30 10368 H 978.082 5.3463 2.96615 0
M  V30 10369 H 982.256 6.33142 2.90007 0
M  V30 10370 H 979.883 7.04116 2.86573 0
M  V30 10371 N 981.458 -1.16348 1.06306 0
M  V30 10372 C 982.706 -1.86512 0.778311 0
M  V30 10373 C 983.027 -1.82107 -0.697273 0
M  V30 10374 O 982.297 -1.2547 -1.50446 0
M  V30 10375 H 980.877 -0.690529 0.284919 0
M  V30 10376 H 983.539 -1.41092 1.34458 0
M  V30 10377 H 982.635 -2.91947 1.10333 0
M  V30 10378 N 982.937 -0.845659 -1.3299 0
M  V30 10379 C 983.884 -0.281761 -2.29074 0
M  V30 10380 C 984.854 0.606237 -1.54641 0
M  V30 10381 O 986.039 0.543063 -1.82908 0
M  V30 10382 C 983.179 0.531451 -3.40983 0
M  V30 10383 C 982.292 -0.381328 -4.30314 0
M  V30 10384 C 981.427 0.443643 -5.29344 0
M  V30 10385 C 980.466 -0.467101 -6.10315 0
M  V30 10386 N 979.603 0.320148 -7.0137 0
M  V30 10387 H 984.443 -1.10641 -2.76699 0
M  V30 10388 H 981.98 -0.55706 -1.36144 0
M  V30 10389 H 983.938 1.01848 -4.04577 0
M  V30 10390 H 982.568 1.32101 -2.94532 0
M  V30 10391 H 981.62 -0.986701 -3.6738 0
M  V30 10392 H 982.932 -1.08067 -4.86953 0
M  V30 10393 H 982.086 0.994212 -5.98498 0
M  V30 10394 H 980.825 1.17639 -4.73299 0
M  V30 10395 H 979.83 -1.02963 -5.40073 0
M  V30 10396 H 981.055 -1.19832 -6.68444 0
M  V30 10397 H 979.001 1.03615 -6.47765 0
M  V30 10398 H 978.918 -0.320338 -7.55321 0
M  V30 10399 H 980.186 0.852735 -7.74822 0
M  V30 10400 N 984.415 1.45619 -0.602734 0
M  V30 10401 C 985.662 2.02272 -0.0960337 0
M  V30 10402 C 985.99 1.47177 1.27159 0
M  V30 10403 O 985.245 0.634593 1.85125 0
M  V30 10404 C 985.544 3.574 -0.00157909 0
M  V30 10405 C 985.21 4.31626 -1.30422 0
M  V30 10406 C 983.872 4.51622 -1.66106 0
M  V30 10407 C 986.224 4.74091 -2.16535 0
M  V30 10408 C 983.552 5.11338 -2.87663 0
M  V30 10409 C 985.904 5.35151 -3.37336 0
M  V30 10410 C 984.568 5.53371 -3.73278 0
M  V30 10411 H 983.838 0.740166 -0.0351412 0
M  V30 10412 H 986.485 1.74744 -0.783382 0
M  V30 10413 H 984.79 3.84179 0.769008 0
M  V30 10414 H 986.487 3.98934 0.406549 0
M  V30 10415 H 983.077 4.16372 -1.01647 0
M  V30 10416 H 987.261 4.5838 -1.90266 0
M  V30 10417 H 982.517 5.23634 -3.15622 0
M  V30 10418 H 986.691 5.67011 -4.04316 0
M  V30 10419 H 984.318 5.99412 -4.67556 0
M  V30 10420 N 985.893 0.34162 1.53853 0
M  V30 10421 C 986.823 -0.508431 2.27897 0
M  V30 10422 C 987.804 -1.10425 1.29384 0
M  V30 10423 O 988.989 -1.126 1.58224 0
M  V30 10424 C 986.119 -1.66048 3.05034 0
M  V30 10425 C 985.073 -1.19309 4.11035 0
M  V30 10426 C 984.399 -2.4335 4.76114 0
M  V30 10427 C 985.699 -0.294952 5.21467 0
M  V30 10428 H 987.393 0.109251 2.99201 0
M  V30 10429 H 984.939 0.0539847 1.43899 0
M  V30 10430 H 986.892 -2.26158 3.5557 0
M  V30 10431 H 985.616 -2.30503 2.31379 0
M  V30 10432 H 984.275 -0.614809 3.61408 0
M  V30 10433 H 983.923 -3.06208 3.99056 0
M  V30 10434 H 983.623 -2.1276 5.47729 0
M  V30 10435 H 985.147 -3.0419 5.29434 0
M  V30 10436 H 986.561 -0.80285 5.67651 0
M  V30 10437 H 984.958 -0.0810221 6.00045 0
M  V30 10438 H 986.028 0.669433 4.80257 0
M  V30 10439 N 987.371 -1.57444 0.0701946 0
M  V30 10440 C 988.334 -2.11511 -0.882923 0
M  V30 10441 C 989.334 -1.03879 -1.22743 0
M  V30 10442 O 990.524 -1.29874 -1.16097 0
M  V30 10443 C 987.656 -2.61514 -2.18686 0
M  V30 10444 H 988.849 -2.9703 -0.413873 0
M  V30 10445 H 986.402 -1.55278 -0.178488 0
M  V30 10446 H 987.137 -1.79443 -2.70131 0
M  V30 10447 H 986.922 -3.40185 -1.94978 0
M  V30 10448 H 988.412 -3.03425 -2.86919 0
M  V30 10449 N 988.849 0.203349 -1.56283 0
M  V30 10450 C 990.126 0.950415 -1.70958 0
M  V30 10451 C 990.506 2.01708 -0.622647 0
M  V30 10452 O 989.854 2.25523 0.367635 0
M  V30 10453 C 990.064 1.54434 -3.12971 0
M  V30 10454 C 991.412 2.02964 -3.72949 0
M  V30 10455 O 992.436 1.64293 -3.16048 0
M  V30 10456 O 991.295 2.74097 -4.72793 0
M  V30 10457 H 988.389 0.445154 -0.69697 0
M  V30 10458 H 990.935 0.193695 -1.68591 0
M  V30 10459 H 989.707 0.77505 -3.83547 0
M  V30 10460 H 989.33 2.36611 -3.19532 0
M  V30 10461 N 990.327 1.50405 0.470755 0
M  V30 10462 C 991.275 1.6982 1.58946 0
M  V30 10463 C 992.269 0.56407 1.59733 0
M  V30 10464 O 993.475 0.744576 1.63878 0
M  V30 10465 H 989.85 0.536016 0.527438 0
M  V30 10466 H 991.821 2.63662 1.39732 0
M  V30 10467 C 990.57 1.80986 2.96883 0
M  V30 10468 H 989.893 2.67645 2.96996 0
M  V30 10469 H 991.333 1.98596 3.74614 0
M  V30 10470 C 989.792 0.561551 3.32187 0
M  V30 10471 O 990.322 -0.299136 4.00585 0
M  V30 10472 N 988.528 0.415476 2.87615 0
M  V30 10473 H 988.075 1.11691 2.32127 0
M  V30 10474 H 988.033 -0.418592 3.11601 0
M  V30 10475 N 991.805 -0.723954 1.39988 0
M  V30 10476 C 993.054 -1.47922 1.3712 0
M  V30 10477 C 993.367 -1.95582 -0.0263665 0
M  V30 10478 O 994.573 -2.70918 -0.177652 0
M  V30 10479 C 993.029 -2.67342 2.40949 0
M  V30 10480 C 992.637 -2.26586 3.86475 0
M  V30 10481 C 994.381 -3.45116 2.47174 0
M  V30 10482 C 992.288 -3.42794 4.81919 0
M  V30 10483 H 991.218 -0.555522 0.509815 0
M  V30 10484 H 993.869 -0.788692 1.65686 0
M  V30 10485 H 992.251 -3.38524 2.0547 0
M  V30 10486 H 993.425 -1.62878 4.31054 0
M  V30 10487 H 991.74 -1.61876 3.83647 0
M  V30 10488 H 994.337 -4.31573 3.15672 0
M  V30 10489 H 994.68 -3.8835 1.49966 0
M  V30 10490 H 995.213 -2.80971 2.81602 0
M  V30 10491 H 991.952 -3.046 5.8043 0
M  V30 10492 H 991.472 -4.05445 4.42012 0
M  V30 10493 H 993.151 -4.08977 5.01345 0
M  V30 10494 N 993.283 -1.25346 -0.955304 0
M  V30 10495 C 994.529 -1.10218 -1.70235 0
M  V30 10496 C 994.862 0.356124 -1.90907 0
M  V30 10497 O 994.137 1.26253 -1.47954 0
M  V30 10498 C 994.42 -1.85627 -3.08569 0
M  V30 10499 C 994.273 -3.39281 -2.95311 0
M  V30 10500 C 995.592 -1.63886 -4.08448 0
M  V30 10501 H 992.711 -0.401781 -0.617852 0
M  V30 10502 H 995.353 -1.5417 -1.11048 0
M  V30 10503 H 993.503 -1.48269 -3.59094 0
M  V30 10504 H 995.175 -3.8631 -2.52116 0
M  V30 10505 H 993.418 -3.67027 -2.31244 0
M  V30 10506 H 994.089 -3.87258 -3.93364 0
M  V30 10507 H 996.565 -1.96406 -3.6683 0
M  V30 10508 H 995.441 -2.19087 -5.03281 0
M  V30 10509 H 995.702 -0.580021 -4.38279 0
M  V30 10510 N 994.761 1.15782 -1.06922 0
M  V30 10511 C 996.009 1.86097 -0.788192 0
M  V30 10512 C 996.33 1.82475 0.687606 0
M  V30 10513 O 995.6 1.26266 1.49778 0
M  V30 10514 H 994.18 0.689008 -0.288577 0
M  V30 10515 H 996.842 1.40377 -1.35205 0
M  V30 10516 H 995.938 2.91358 -1.1188 0
M  V30 10517 N 996.239 0.8527 1.3254 0
M  V30 10518 C 997.464 0.468157 2.02047 0
M  V30 10519 C 997.889 -0.926967 1.63673 0
M  V30 10520 O 997.247 -1.60855 0.836378 0
M  V30 10521 C 997.295 0.612519 3.5536 0
M  V30 10522 O 996.399 -0.355506 4.10865 0
M  V30 10523 H 995.74 0.188401 0.636711 0
M  V30 10524 H 998.27 1.15135 1.6913 0
M  V30 10525 H 998.28 0.499315 4.04933 0
M  V30 10526 H 996.955 1.62988 3.82632 0
M  V30 10527 H 995.532 -0.198703 3.7237 0
M  V30 10528 N 997.718 -1.45297 0.610449 0
M  V30 10529 C 998.964 -2.02518 0.106917 0
M  V30 10530 C 999.297 -1.47747 -1.26034 0
M  V30 10531 O 998.572 -0.65329 -1.832 0
M  V30 10532 C 998.855 -3.6003 0.0710975 0
M  V30 10533 C 998.708 -4.25128 1.46922 0
M  V30 10534 C 1000.03 -4.35778 -0.61524 0
M  V30 10535 H 997.146 -0.735896 0.040327 0
M  V30 10536 H 999.788 -1.73117 0.782968 0
M  V30 10537 H 997.938 -3.85209 -0.504611 0
M  V30 10538 H 999.61 -4.11125 2.09223 0
M  V30 10539 H 997.853 -3.83418 2.02911 0
M  V30 10540 H 998.524 -5.34046 1.39637 0
M  V30 10541 H 1001 -4.1591 -0.125871 0
M  V30 10542 H 999.876 -5.45506 -0.609419 0
M  V30 10543 H 1000.14 -4.08859 -1.68186 0
M  V30 10544 N 999.196 -0.349774 -1.5367 0
M  V30 10545 C 1000.13 0.496338 -2.28164 0
M  V30 10546 C 1001.11 1.09737 -1.29968 0
M  V30 10547 O 1002.29 1.11759 -1.58819 0
M  V30 10548 C 999.422 1.64428 -3.0591 0
M  V30 10549 C 998.376 1.17127 -4.11661 0
M  V30 10550 C 997.702 2.40822 -4.77398 0
M  V30 10551 C 999.002 0.267293 -5.21616 0
M  V30 10552 H 1000.7 -0.125117 -2.99138 0
M  V30 10553 H 998.242 -0.0616152 -1.43868 0
M  V30 10554 H 1000.19 2.2427 -3.56765 0
M  V30 10555 H 998.919 2.29272 -2.32598 0
M  V30 10556 H 997.578 0.595634 -3.61729 0
M  V30 10557 H 997.226 3.04088 -4.00674 0
M  V30 10558 H 996.926 2.09852 -5.48849 0
M  V30 10559 H 998.45 3.01378 -5.3104 0
M  V30 10560 H 999.864 0.772734 -5.68068 0
M  V30 10561 H 998.261 0.0491991 -6.0008 0
M  V30 10562 H 999.331 -0.694892 -4.79895 0
M  V30 10563 N 1000.67 1.57404 -0.0785433 0
M  V30 10564 C 1001.92 1.94031 0.589896 0
M  V30 10565 C 1002.25 0.959297 1.68852 0
M  V30 10566 O 1001.53 -0.0103978 1.94497 0
M  V30 10567 C 1001.81 3.40886 1.16055 0
M  V30 10568 C 1001.66 4.49748 0.0681072 0
M  V30 10569 C 1002.98 3.88699 2.06401 0
M  V30 10570 H 1000.1 0.70556 0.212965 0
M  V30 10571 H 1002.74 1.89439 -0.145886 0
M  V30 10572 H 1000.89 3.4493 1.78761 0
M  V30 10573 H 1002.57 4.57823 -0.565318 0
M  V30 10574 H 1000.81 4.29625 -0.600431 0
M  V30 10575 H 1001.48 5.49658 0.507906 0
M  V30 10576 H 1003.96 3.86703 1.53622 0
M  V30 10577 H 1002.83 4.92052 2.43261 0
M  V30 10578 H 1003.09 3.2703 2.97496 0
M  V30 10579 N 1002.15 -0.195058 1.56388 0
M  V30 10580 C 1003.4 -0.915444 1.80626 0
M  V30 10581 C 1003.73 -1.83255 0.651768 0
M  V30 10582 O 1002.98 -1.92314 -0.362464 0
M  V30 10583 C 1003.28 -1.7637 3.10851 0
M  V30 10584 C 1002.95 -0.997572 4.39726 0
M  V30 10585 C 1001.61 -0.786043 4.74737 0
M  V30 10586 C 1003.96 -0.45851 5.19179 0
M  V30 10587 C 1001.29 -0.023972 5.86695 0
M  V30 10588 C 1003.64 0.29035 6.31933 0
M  V30 10589 C 1002.3 0.512895 6.65527 0
M  V30 10590 H 1001.57 -0.334985 0.660959 0
M  V30 10591 H 1004.22 -0.181815 1.90635 0
M  V30 10592 H 1002.53 -2.566 2.9608 0
M  V30 10593 H 1004.22 -2.3237 3.26811 0
M  V30 10594 H 1000.81 -1.17245 4.12252 0
M  V30 10595 H 1005 -0.609334 4.92545 0
M  V30 10596 H 1000.25 0.158421 6.11195 0
M  V30 10597 H 1004.43 0.715429 6.92715 0
M  V30 10598 H 1002.05 1.10531 7.52122 0
M  V30 10599 N 1003.63 -1.50653 -0.462772 0
M  V30 10600 C 1004.85 -1.66103 -1.24196 0
M  V30 10601 C 1005.28 -0.347421 -1.84864 0
M  V30 10602 O 1004.64 0.689673 -1.6767 0
M  V30 10603 C 1004.69 -2.76027 -2.32037 0
M  V30 10604 O 1003.79 -2.37859 -3.36893 0
M  V30 10605 H 1003.13 -0.554672 -0.365014 0
M  V30 10606 H 1005.66 -1.97076 -0.549734 0
M  V30 10607 H 1005.67 -2.99354 -2.77221 0
M  V30 10608 H 1004.35 -3.71361 -1.87253 0
M  V30 10609 H 1002.92 -2.2501 -2.97363 0
M  V30 10610 N 1005.11 0.71652 -1.4037 0
M  V30 10611 C 1006.04 1.84345 -1.43315 0
M  V30 10612 C 1007.02 1.67537 -0.294186 0
M  V30 10613 O 1008.2 1.87582 -0.502671 0
M  V30 10614 C 1005.33 3.2229 -1.29408 0
M  V30 10615 C 1004.29 3.53769 -2.40897 0
M  V30 10616 C 1003.61 4.90847 -2.12068 0
M  V30 10617 C 1004.91 3.54862 -3.83237 0
M  V30 10618 H 1006.61 1.82138 -2.37626 0
M  V30 10619 H 1004.15 0.874873 -1.14376 0
M  V30 10620 H 1006.11 4.00819 -1.30085 0
M  V30 10621 H 1004.83 3.2507 -0.31573 0
M  V30 10622 H 1003.49 2.77579 -2.39469 0
M  V30 10623 H 1003.14 4.90229 -1.12626 0
M  V30 10624 H 1002.84 5.12875 -2.86762 0
M  V30 10625 H 1004.36 5.71711 -2.14426 0
M  V30 10626 H 1005.78 4.23432 -3.86494 0
M  V30 10627 H 1004.17 3.88416 -4.57442 0
M  V30 10628 H 1005.24 2.54266 -4.12888 0
M  V30 10629 N 1006.59 1.25851 0.948643 0
M  V30 10630 C 1007.84 1.10347 1.68838 0
M  V30 10631 C 1008.15 -0.354262 1.92365 0
M  V30 10632 O 1009.35 -0.629847 2.64093 0
M  V30 10633 C 1007.81 1.92659 3.03991 0
M  V30 10634 C 1007.42 3.42962 2.88238 0
M  V30 10635 C 1009.16 1.85743 3.81707 0
M  V30 10636 C 1007.07 4.17547 4.18818 0
M  V30 10637 H 1006 0.409342 0.63321 0
M  V30 10638 H 1008.65 1.50098 1.05559 0
M  V30 10639 H 1007.03 1.45736 3.68208 0
M  V30 10640 H 1008.21 3.97601 2.32917 0
M  V30 10641 H 1006.52 3.51035 2.23972 0
M  V30 10642 H 1009.12 2.38758 4.78434 0
M  V30 10643 H 1009.46 0.826568 4.08012 0
M  V30 10644 H 1009.99 2.30449 3.2425 0
M  V30 10645 H 1006.73 5.21072 3.97699 0
M  V30 10646 H 1006.25 3.6769 4.73882 0
M  V30 10647 H 1007.93 4.25589 4.87322 0
M  V30 10648 N 1008.06 -1.15214 1.07534 0
M  V30 10649 C 1009.31 -1.86043 0.799629 0
M  V30 10650 C 1009.64 -1.82435 -0.674356 0
M  V30 10651 O 1008.89 -1.24379 -1.51091 0
M  V30 10652 C 1009.19 -3.34623 1.25547 0
M  V30 10653 C 1008.86 -3.58425 2.73573 0
M  V30 10654 C 1007.52 -3.6463 3.14004 0
M  V30 10655 C 1009.87 -3.67977 3.6911 0
M  V30 10656 C 1007.2 -3.779 4.48786 0
M  V30 10657 C 1009.55 -3.82771 5.03656 0
M  V30 10658 C 1008.22 -3.87222 5.43705 0
M  V30 10659 H 1007.49 -0.680781 0.292605 0
M  V30 10660 H 1010.13 -1.36149 1.34669 0
M  V30 10661 H 1008.44 -3.86737 0.627828 0
M  V30 10662 H 1010.14 -3.87836 1.01901 0
M  V30 10663 H 1006.73 -3.54238 2.41275 0
M  V30 10664 H 1010.91 -3.62482 3.39 0
M  V30 10665 H 1006.17 -3.79604 4.79281 0
M  V30 10666 H 1010.34 -3.89104 5.77556 0
M  V30 10667 H 1007.97 -3.97256 6.48145 0
M  V30 10668 N 1009.54 -0.859717 -1.32086 0
M  V30 10669 C 1010.79 -0.475565 -1.97762 0
M  V30 10670 C 1011.14 0.959348 -1.66776 0
M  V30 10671 O 1010.44 1.66484 -0.948343 0
M  V30 10672 C 1010.63 -0.657397 -3.51302 0
M  V30 10673 C 1010.46 -2.10843 -3.97209 0
M  V30 10674 C 1009.23 -2.74796 -4.24046 0
M  V30 10675 C 1011.43 -3.07959 -4.11905 0
M  V30 10676 N 1009.41 -4.10758 -4.56236 0
M  V30 10677 C 1010.78 -4.28922 -4.4769 0
M  V30 10678 C 1012.84 -3.04086 -3.94254 0
M  V30 10679 C 1011.54 -5.46518 -4.67665 0
M  V30 10680 C 1013.56 -4.20931 -4.15416 0
M  V30 10681 C 1012.93 -5.40654 -4.51522 0
M  V30 10682 H 1009.03 -0.222859 -0.749572 0
M  V30 10683 H 1011.61 -1.11217 -1.59809 0
M  V30 10684 H 1009.78 -0.0504597 -3.88367 0
M  V30 10685 H 1011.51 -0.242642 -4.03972 0
M  V30 10686 H 1008.27 -2.25805 -4.16304 0
M  V30 10687 H 1008.69 -4.80905 -4.76507 0
M  V30 10688 H 1013.33 -2.12641 -3.65436 0
M  V30 10689 H 1011.05 -6.3849 -4.95335 0
M  V30 10690 H 1014.64 -4.19376 -4.03255 0
M  V30 10691 H 1013.52 -6.29563 -4.67568 0
M  V30 10692 N 1011.02 1.44971 -0.618145 0
M  V30 10693 C 1012.27 2.01372 -0.115004 0
M  V30 10694 C 1012.58 1.49104 1.26599 0
M  V30 10695 O 1013.79 1.97549 1.86244 0
M  V30 10696 C 1012.24 3.59567 -0.154883 0
M  V30 10697 C 1011.85 4.20832 -1.53639 0
M  V30 10698 C 1013.6 4.23491 0.292468 0
M  V30 10699 C 1011.5 5.7121 -1.53208 0
M  V30 10700 H 1010.43 0.752979 -0.0392267 0
M  V30 10701 H 1013.08 1.66329 -0.775032 0
M  V30 10702 H 1011.47 3.91847 0.572001 0
M  V30 10703 H 1012.64 4.00109 -2.28582 0
M  V30 10704 H 1010.96 3.69143 -1.92672 0
M  V30 10705 H 1013.55 5.33771 0.315032 0
M  V30 10706 H 1013.9 3.9491 1.31725 0
M  V30 10707 H 1014.43 3.95967 -0.381493 0
M  V30 10708 H 1011.17 6.04506 -2.53481 0
M  V30 10709 H 1010.69 5.94094 -0.825387 0
M  V30 10710 H 1012.37 6.34606 -1.26032 0
M  V30 10711 N 1012.5 0.357919 1.53482 0
M  V30 10712 C 1013.91 -0.122938 1.86295 0
M  V30 10713 C 1014.26 -1.48803 1.27875 0
M  V30 10714 O 1013.39 -2.07978 0.597828 0
M  V30 10715 C 1013.98 -0.229853 3.38019 0
M  V30 10716 C 1012.54 -0.654955 3.70658 0
M  V30 10717 C 1011.69 0.202539 2.76559 0
M  V30 10718 H 1014.64 0.576997 1.47839 0
M  V30 10719 H 1014.66 -1.05481 3.65587 0
M  V30 10720 H 1014.17 0.763825 3.80509 0
M  V30 10721 H 1012.27 -1.65714 3.33721 0
M  V30 10722 H 1012.38 -0.43488 4.77122 0
M  V30 10723 H 1010.75 -0.327388 2.52587 0
M  V30 10724 H 1011.53 1.19361 3.21882 0
M  V30 10725 N 1013.98 -1.5736 0.0868897 0
M  V30 10726 C 1015.22 -1.94054 -0.578741 0
M  V30 10727 C 1015.55 -0.968047 -1.68698 0
M  V30 10728 O 1014.81 0.0137824 -1.95695 0
M  V30 10729 C 1015.11 -3.37316 -1.18123 0
M  V30 10730 C 1014.77 -4.50467 -0.197607 0
M  V30 10731 C 1013.43 -4.81145 0.072952 0
M  V30 10732 C 1015.79 -5.19036 0.474473 0
M  V30 10733 C 1013.11 -5.77723 1.02242 0
M  V30 10734 C 1015.47 -6.16632 1.41236 0
M  V30 10735 C 1014.13 -6.45719 1.69124 0
M  V30 10736 H 1013.4 -0.710093 -0.211776 0
M  V30 10737 H 1016.05 -1.90822 0.160978 0
M  V30 10738 H 1014.35 -3.37085 -1.99701 0
M  V30 10739 H 1016.05 -3.63003 -1.7038 0
M  V30 10740 H 1012.64 -4.2655 -0.418669 0
M  V30 10741 H 1016.82 -4.95518 0.278581 0
M  V30 10742 H 1012.08 -5.98578 1.24557 0
M  V30 10743 H 1016.25 -6.68862 1.939 0
M  V30 10744 H 1013.88 -7.20365 2.42855 0
M  V30 10745 N 1015.45 0.186762 -1.56489 0
M  V30 10746 C 1016.68 0.925916 -1.85584 0
M  V30 10747 C 1017.1 1.75708 -0.671446 0
M  V30 10748 O 1016.46 1.7728 0.379687 0
M  V30 10749 C 1016.51 1.79107 -3.12975 0
M  V30 10750 O 1015.61 2.89088 -2.94112 0
M  V30 10751 H 1014.96 0.260275 -0.610863 0
M  V30 10752 H 1017.49 0.189561 -2.0372 0
M  V30 10753 H 1017.5 2.19408 -3.43983 0
M  V30 10754 H 1016.17 1.18044 -3.98796 0
M  V30 10755 H 1014.75 2.52482 -2.74422 0
M  V30 10756 N 1016.93 1.50896 0.454776 0
M  V30 10757 C 1018.18 1.61936 1.20248 0
M  V30 10758 C 1018.49 0.332983 1.92745 0
M  V30 10759 O 1019.7 0.322512 2.69578 0
M  V30 10760 C 1018.16 2.85916 2.18587 0
M  V30 10761 C 1017.76 4.21492 1.51818 0
M  V30 10762 C 1019.51 3.06307 2.93898 0
M  V30 10763 C 1017.42 5.3664 2.48539 0
M  V30 10764 H 1016.35 0.603098 0.452536 0
M  V30 10765 H 1019 1.77345 0.471257 0
M  V30 10766 H 1017.38 2.64101 2.95071 0
M  V30 10767 H 1018.55 4.53623 0.810123 0
M  V30 10768 H 1016.87 4.06837 0.887265 0
M  V30 10769 H 1019.46 3.89507 3.66317 0
M  V30 10770 H 1019.81 2.18683 3.54236 0
M  V30 10771 H 1020.34 3.2838 2.24525 0
M  V30 10772 H 1017.08 6.26469 1.92916 0
M  V30 10773 H 1016.6 5.08907 3.17449 0
M  V30 10774 H 1018.28 5.67881 3.10033 0
M  V30 10775 N 1018.41 -0.709066 1.40748 0
M  V30 10776 C 1019.34 -1.83583 1.4429 0
M  V30 10777 C 1020.32 -1.67378 0.303067 0
M  V30 10778 O 1021.51 -1.87312 0.512612 0
M  V30 10779 C 1018.64 -3.21599 1.31116 0
M  V30 10780 C 1017.59 -3.52486 2.4277 0
M  V30 10781 C 1016.92 -4.89716 2.14668 0
M  V30 10782 C 1018.22 -3.52824 3.85113 0
M  V30 10783 H 1019.91 -1.80876 2.38588 0
M  V30 10784 H 1017.46 -0.868795 1.14839 0
M  V30 10785 H 1019.41 -4.00123 1.32209 0
M  V30 10786 H 1018.13 -3.24898 0.332965 0
M  V30 10787 H 1016.79 -2.76305 2.40937 0
M  V30 10788 H 1016.44 -4.89625 1.15224 0
M  V30 10789 H 1016.14 -5.11347 2.89478 0
M  V30 10790 H 1017.66 -5.70566 2.17455 0
M  V30 10791 H 1019.08 -4.21377 3.88734 0
M  V30 10792 H 1017.48 -3.85984 4.59496 0
M  V30 10793 H 1018.55 -2.52073 4.14231 0
M  V30 10794 N 1019.89 -1.26353 -0.941956 0
M  V30 10795 C 1021.14 -1.12017 -1.69056 0
M  V30 10796 C 1021.47 0.335856 -1.91274 0
M  V30 10797 O 1020.74 1.24677 -1.49285 0
M  V30 10798 C 1021.03 -1.88889 -3.06583 0
M  V30 10799 C 1020.88 -3.42394 -2.91696 0
M  V30 10800 C 1022.2 -1.68209 -4.06686 0
M  V30 10801 H 1019.32 -0.408311 -0.613556 0
M  V30 10802 H 1021.96 -1.55339 -1.09407 0
M  V30 10803 H 1020.11 -1.5207 -3.57501 0
M  V30 10804 H 1021.78 -3.88962 -2.48005 0
M  V30 10805 H 1020.02 -3.69459 -2.27338 0
M  V30 10806 H 1020.7 -3.91408 -3.89235 0
M  V30 10807 H 1023.17 -2.00286 -3.64726 0
M  V30 10808 H 1022.05 -2.24412 -5.00929 0
M  V30 10809 H 1022.31 -0.626474 -4.37639 0
M  V30 10810 N 1021.37 1.14642 -1.08144 0
M  V30 10811 C 1022.32 2.17665 -0.678661 0
M  V30 10812 C 1023.3 1.58072 0.300336 0
M  V30 10813 O 1024.49 1.7664 0.112781 0
M  V30 10814 C 1021.62 3.43191 -0.0866362 0
M  V30 10815 C 1020.71 4.0982 -1.09126 0
M  V30 10816 N 1021.1 4.51814 -2.27372 0
M  V30 10817 C 1019.4 4.36272 -0.926411 0
M  V30 10818 C 1020.1 5.03581 -2.91172 0
M  V30 10819 N 1019.07 4.97624 -2.18795 0
M  V30 10820 H 1022.88 2.47872 -1.57914 0
M  V30 10821 H 1020.39 1.31296 -0.955772 0
M  V30 10822 H 1022.39 4.1632 0.219859 0
M  V30 10823 H 1021.05 3.14464 0.80886 0
M  V30 10824 H 1022.06 4.44941 -2.65044 0
M  V30 10825 H 1018.74 4.17414 -0.084492 0
M  V30 10826 H 1020.13 5.45969 -3.91621 0
M  V30 10827 N 1022.85 0.866709 1.31628 0
M  V30 10828 C 1024.09 0.482479 1.98624 0
M  V30 10829 C 1024.45 -0.946844 1.6703 0
M  V30 10830 O 1025.65 -1.43626 2.27212 0
M  V30 10831 C 1023.92 0.728582 3.49895 0
M  V30 10832 S 1025.48 0.443724 4.36551 0
M  V30 10833 H 1022.3 0.180238 0.687776 0
M  V30 10834 H 1024.9 1.12203 1.60096 0
M  V30 10835 H 1023.6 1.76769 3.70379 0
M  V30 10836 H 1023.14 0.075903 3.93327 0
M  V30 10837 H 1025.15 -0.72534 4.9087 0
M  V30 10838 N 1024.32 -1.44642 0.625825 0
M  V30 10839 C 1025.57 -2.02393 0.128391 0
M  V30 10840 C 1025.9 -1.49075 -1.2446 0
M  V30 10841 O 1025.18 -0.672684 -1.82497 0
M  V30 10842 C 1025.46 -3.59934 0.109279 0
M  V30 10843 C 1025.31 -4.23546 1.51423 0
M  V30 10844 C 1026.63 -4.36406 -0.568985 0
M  V30 10845 H 1023.75 -0.735427 0.0481299 0
M  V30 10846 H 1026.39 -1.72277 0.801286 0
M  V30 10847 H 1024.54 -3.85722 -0.463726 0
M  V30 10848 H 1026.22 -4.08882 2.13572 0
M  V30 10849 H 1024.46 -3.81245 2.06966 0
M  V30 10850 H 1025.13 -5.32535 1.45294 0
M  V30 10851 H 1027.61 -4.1602 -0.0817516 0
M  V30 10852 H 1026.48 -5.46122 -0.551527 0
M  V30 10853 H 1026.74 -4.1062 -1.6384 0
M  V30 10854 N 1025.8 -0.366053 -1.5329 0
M  V30 10855 C 1027.08 0.279902 -1.93587 0
M  V30 10856 C 1027.46 1.66352 -1.29963 0
M  V30 10857 O 1026.81 2.23845 -0.458895 0
M  V30 10858 C 1027.02 0.329634 -3.4744 0
M  V30 10859 C 1028.36 0.569754 -4.2076 0
M  V30 10860 O 1029.39 0.410823 -3.53823 0
M  V30 10861 O 1028.25 0.879262 -5.3938 0
M  V30 10862 H 1025.34 0.16802 -0.809752 0
M  V30 10863 H 1027.89 -0.418871 -1.64449 0
M  V30 10864 H 1026.66 -0.640434 -3.86023 0
M  V30 10865 H 1026.28 1.07428 -3.82812 0
M  V30 10866 N 1027.28 1.57312 -0.0952337 0
M  V30 10867 C 1028.23 2.14032 0.863657 0
M  V30 10868 C 1029.2 1.0589 1.27971 0
M  V30 10869 O 1030.38 1.33678 1.36143 0
M  V30 10870 C 1027.52 2.72513 2.11733 0
M  V30 10871 C 1026.63 3.94887 1.7518 0
M  V30 10872 C 1025.77 4.41533 2.95334 0
M  V30 10873 C 1024.81 5.56496 2.54908 0
M  V30 10874 N 1023.95 5.97993 3.67897 0
M  V30 10875 H 1028.79 2.95655 0.373115 0
M  V30 10876 H 1026.32 1.46085 0.172497 0
M  V30 10877 H 1028.28 3.04539 2.85153 0
M  V30 10878 H 1026.91 1.93618 2.58287 0
M  V30 10879 H 1025.96 3.69175 0.917279 0
M  V30 10880 H 1027.27 4.78322 1.41455 0
M  V30 10881 H 1026.43 4.75343 3.77007 0
M  V30 10882 H 1025.17 3.56999 3.3227 0
M  V30 10883 H 1024.17 5.22314 1.71662 0
M  V30 10884 H 1025.4 6.42779 2.19117 0
M  V30 10885 H 1023.34 5.16405 4.04551 0
M  V30 10886 H 1023.26 6.76225 3.38018 0
M  V30 10887 H 1024.53 6.36434 4.5008 0
M  V30 10888 N 1028.76 -0.17846 1.56586 0
M  V30 10889 C 1029.7 -1.22104 1.95855 0
M  V30 10890 C 1030.67 -1.44366 0.821447 0
M  V30 10891 O 1031.86 -1.57224 1.08098 0
M  V30 10892 C 1029 -2.55701 2.31757 0
M  V30 10893 C 1028.11 -2.40879 3.5861 0
M  V30 10894 C 1027.25 -3.67293 3.83757 0
M  V30 10895 C 1026.29 -3.47373 5.03982 0
M  V30 10896 N 1025.42 -4.65839 5.25298 0
M  V30 10897 H 1030.26 -0.879168 2.84736 0
M  V30 10898 H 1027.8 -0.422721 1.40895 0
M  V30 10899 H 1029.76 -3.33556 2.50592 0
M  V30 10900 H 1028.39 -2.87898 1.45995 0
M  V30 10901 H 1027.44 -1.54236 3.47729 0
M  V30 10902 H 1028.75 -2.22102 4.46623 0
M  V30 10903 H 1027.91 -4.53584 4.02922 0
M  V30 10904 H 1026.65 -3.89041 2.94107 0
M  V30 10905 H 1025.65 -2.59467 4.84723 0
M  V30 10906 H 1026.88 -3.27055 5.95157 0
M  V30 10907 H 1024.82 -4.8782 4.38598 0
M  V30 10908 H 1024.74 -4.4995 6.0752 0
M  V30 10909 H 1026.01 -5.53435 5.48936 0
M  V30 10910 N 1030.24 -1.51135 -0.446768 0
M  V30 10911 C 1031.17 -1.74709 -1.54916 0
M  V30 10912 C 1032.15 -0.596628 -1.59293 0
M  V30 10913 O 1033.33 -0.838356 -1.75172 0
M  V30 10914 C 1030.46 -1.86353 -2.9307 0
M  V30 10915 C 1029.42 -3.01725 -3.03556 0
M  V30 10916 C 1028.74 -2.9854 -4.43597 0
M  V30 10917 C 1030.04 -4.41848 -2.7851 0
M  V30 10918 H 1031.74 -2.67014 -1.3544 0
M  V30 10919 H 1029.28 -1.28489 -0.650131 0
M  V30 10920 H 1031.23 -2.01428 -3.70141 0
M  V30 10921 H 1029.96 -0.906887 -3.13756 0
M  V30 10922 H 1028.62 -2.86339 -2.28922 0
M  V30 10923 H 1028.27 -2.00673 -4.61237 0
M  V30 10924 H 1027.97 -3.76008 -4.51544 0
M  V30 10925 H 1029.49 -3.15696 -5.22655 0
M  V30 10926 H 1030.9 -4.57633 -3.45319 0
M  V30 10927 H 1029.3 -5.2095 -2.97877 0
M  V30 10928 H 1030.37 -4.52536 -1.74182 0
M  V30 10929 N 1031.71 0.701592 -1.41122 0
M  V30 10930 C 1032.99 1.45569 -1.30648 0
M  V30 10931 C 1033.37 2.10988 0.068744 0
M  V30 10932 O 1032.72 2.01228 1.08257 0
M  V30 10933 C 1032.93 2.48003 -2.45551 0
M  V30 10934 C 1034.28 3.13431 -2.86437 0
M  V30 10935 O 1035.3 2.58327 -2.45247 0
M  V30 10936 O 1034.16 4.13221 -3.57646 0
M  V30 10937 H 1031.25 0.648 -0.513834 0
M  V30 10938 H 1033.8 0.73258 -1.53073 0
M  V30 10939 H 1032.57 1.98276 -3.37346 0
M  V30 10940 H 1032.19 3.27832 -2.24971 0
M  V30 10941 N 1033.19 1.2685 0.935242 0
M  V30 10942 C 1034.14 1.08923 2.03481 0
M  V30 10943 C 1035.11 -0.00749786 1.66098 0
M  V30 10944 O 1036.29 0.153401 1.90182 0
M  V30 10945 C 1033.43 0.734529 3.37192 0
M  V30 10946 C 1032.55 1.90812 3.87576 0
M  V30 10947 C 1031.68 1.49599 5.097 0
M  V30 10948 C 1030.72 2.63752 5.5236 0
M  V30 10949 N 1029.86 2.23179 6.65684 0
M  V30 10950 H 1034.7 2.03016 2.18148 0
M  V30 10951 H 1032.23 1.01072 1.06878 0
M  V30 10952 H 1034.19 0.509734 4.14074 0
M  V30 10953 H 1032.82 -0.169438 3.22355 0
M  V30 10954 H 1031.87 2.24567 3.0704 0
M  V30 10955 H 1033.19 2.7647 4.1517 0
M  V30 10956 H 1032.34 1.23199 5.9406 0
M  V30 10957 H 1031.08 0.61039 4.83865 0
M  V30 10958 H 1030.08 2.90874 4.66554 0
M  V30 10959 H 1031.31 3.5292 5.80193 0
M  V30 10960 H 1029.26 1.37061 6.41522 0
M  V30 10961 H 1029.17 3.02379 6.92895 0
M  V30 10962 H 1030.44 2.00007 7.53404 0
M  V30 10963 N 1034.67 -1.14067 1.0875 0
M  V30 10964 C 1035.6 -2.18926 0.67852 0
M  V30 10965 C 1036.62 -1.60441 -0.276163 0
M  V30 10966 O 1037.8 -1.78388 -0.0632788 0
M  V30 10967 C 1034.9 -3.38893 -0.0218852 0
M  V30 10968 C 1034.08 -4.26901 0.952582 0
M  V30 10969 C 1033.14 -5.25418 0.286859 0
M  V30 10970 O 1032.16 -5.61512 0.932354 0
M  V30 10971 N 1033.36 -5.72476 -0.961831 0
M  V30 10972 H 1036.13 -2.54629 1.58063 0
M  V30 10973 H 1033.69 -1.29321 0.974042 0
M  V30 10974 H 1035.68 -4.01864 -0.478278 0
M  V30 10975 H 1034.25 -3.01486 -0.826141 0
M  V30 10976 H 1033.47 -3.60812 1.58772 0
M  V30 10977 H 1034.76 -4.82563 1.61279 0
M  V30 10978 H 1034.16 -5.45287 -1.50594 0
M  V30 10979 H 1032.72 -6.37418 -1.36166 0
M  V30 10980 N 1036.15 -0.873678 -1.31166 0
M  V30 10981 C 1037.38 -0.500317 -2.0045 0
M  V30 10982 C 1037.79 0.912716 -1.65729 0
M  V30 10983 O 1037.13 1.61001 -0.884563 0
M  V30 10984 C 1037.19 -0.58197 -3.54758 0
M  V30 10985 C 1036.86 -1.95728 -4.12964 0
M  V30 10986 C 1037.85 -2.92526 -4.29796 0
M  V30 10987 C 1035.54 -2.2596 -4.48606 0
M  V30 10988 C 1037.53 -4.17697 -4.81464 0
M  V30 10989 C 1035.22 -3.5138 -4.99976 0
M  V30 10990 C 1036.22 -4.47064 -5.16356 0
M  V30 10991 O 1035.9 -5.70259 -5.66621 0
M  V30 10992 H 1035.64 -0.193044 -0.64785 0
M  V30 10993 H 1038.19 -1.17768 -1.68285 0
M  V30 10994 H 1036.42 0.152326 -3.864 0
M  V30 10995 H 1038.11 -0.221506 -4.05295 0
M  V30 10996 H 1038.88 -2.70479 -4.02574 0
M  V30 10997 H 1034.75 -1.52258 -4.3513 0
M  V30 10998 H 1038.3 -4.92389 -4.94165 0
M  V30 10999 H 1034.2 -3.73269 -5.26631 0
M  V30 11000 H 1034.96 -5.72483 -5.84983 0
M  V30 11001 N 1037.63 1.44308 -0.633487 0
M  V30 11002 C 1038.54 2.34492 0.0711787 0
M  V30 11003 C 1039.55 1.52754 0.8332 0
M  V30 11004 O 1040.73 1.85475 0.784929 0
M  V30 11005 C 1037.79 3.30767 1.03895 0
M  V30 11006 C 1036.85 4.28412 0.276043 0
M  V30 11007 C 1036.09 5.20087 1.19772 0
M  V30 11008 O 1036.31 5.15743 2.4365 0
M  V30 11009 O 1035.24 5.98038 0.680764 0
M  V30 11010 H 1039.07 2.96203 -0.67063 0
M  V30 11011 H 1036.66 1.4412 -0.393678 0
M  V30 11012 H 1038.54 3.90021 1.59566 0
M  V30 11013 H 1037.21 2.71586 1.76133 0
M  V30 11014 H 1036.12 3.72696 -0.32377 0
M  V30 11015 H 1037.45 4.9052 -0.406364 0
M  V30 11016 N 1039.1 0.374177 1.53094 0
M  V30 11017 C 1040.33 -0.215903 2.06273 0
M  V30 11018 C 1040.75 -1.40979 1.24526 0
M  V30 11019 O 1040.11 -1.79331 0.266462 0
M  V30 11020 C 1040.16 -0.579089 3.5592 0
M  V30 11021 O 1039.26 -1.67516 3.76845 0
M  V30 11022 H 1038.61 -0.0293981 0.663349 0
M  V30 11023 H 1041.14 0.537271 1.9742 0
M  V30 11024 H 1041.15 -0.847678 3.99097 0
M  V30 11025 H 1039.82 0.293843 4.14861 0
M  V30 11026 H 1038.4 -1.40146 3.45563 0
M  V30 11027 N 1040.58 -1.57259 0.103575 0
M  V30 11028 C 1041.51 -2.17509 -0.84923 0
M  V30 11029 C 1042.49 -1.11079 -1.28824 0
M  V30 11030 O 1043.68 -1.39252 -1.35361 0
M  V30 11031 C 1040.81 -2.76221 -2.10522 0
M  V30 11032 C 1039.76 -3.88098 -1.80454 0
M  V30 11033 C 1039.09 -4.33549 -3.12952 0
M  V30 11034 C 1040.39 -5.10909 -1.08486 0
M  V30 11035 H 1042.08 -2.9738 -0.347217 0
M  V30 11036 H 1039.63 -1.43045 -0.165568 0
M  V30 11037 H 1041.58 -3.17024 -2.77621 0
M  V30 11038 H 1040.31 -1.93617 -2.63021 0
M  V30 11039 H 1038.96 -3.47847 -1.15749 0
M  V30 11040 H 1038.61 -3.47825 -3.63355 0
M  V30 11041 H 1038.31 -5.08984 -2.93614 0
M  V30 11042 H 1039.84 -4.76992 -3.81196 0
M  V30 11043 H 1041.25 -5.48828 -1.65711 0
M  V30 11044 H 1039.65 -5.91828 -0.992973 0
M  V30 11045 H 1040.72 -4.84851 -0.0690108 0
M  V30 11046 N 1042.06 0.170153 -1.56679 0
M  V30 11047 C 1043.29 0.90618 -1.86556 0
M  V30 11048 C 1043.71 1.74986 -0.690044 0
M  V30 11049 O 1043.07 1.77672 0.360862 0
M  V30 11050 C 1043.12 1.75777 -3.14857 0
M  V30 11051 O 1042.22 2.85952 -2.97162 0
M  V30 11052 H 1041.56 0.253781 -0.613589 0
M  V30 11053 H 1044.09 0.167943 -2.0391 0
M  V30 11054 H 1044.1 2.15747 -3.46291 0
M  V30 11055 H 1042.78 1.13807 -4.00026 0
M  V30 11056 H 1041.35 2.49557 -2.77084 0
M  V30 11057 N 1043.54 1.5137 0.438746 0
M  V30 11058 C 1044.47 1.75528 1.53987 0
M  V30 11059 C 1045.45 0.605067 1.58975 0
M  V30 11060 O 1046.63 0.847634 1.74725 0
M  V30 11061 C 1043.76 1.87904 2.92078 0
M  V30 11062 C 1042.72 3.0333 3.01951 0
M  V30 11063 C 1042.04 3.00888 4.42007 0
M  V30 11064 C 1043.34 4.43319 2.76163 0
M  V30 11065 H 1045.04 2.67728 1.34022 0
M  V30 11066 H 1042.58 1.28831 0.643308 0
M  V30 11067 H 1044.54 2.03388 3.69068 0
M  V30 11068 H 1043.26 0.923514 3.13271 0
M  V30 11069 H 1041.92 2.87549 2.274 0
M  V30 11070 H 1041.57 2.03116 4.60166 0
M  V30 11071 H 1041.27 3.78397 4.49544 0
M  V30 11072 H 1042.79 3.18464 5.20973 0
M  V30 11073 H 1044.21 4.59458 3.42887 0
M  V30 11074 H 1042.6 5.22523 2.9511 0
M  V30 11075 H 1043.67 4.53453 1.71779 0
M  V30 11076 N 1045.02 -0.694098 1.41492 0
M  V30 11077 C 1046.26 -1.45415 1.40929 0
M  V30 11078 C 1046.59 -1.94491 0.0189301 0
M  V30 11079 O 1045.85 -1.7 -0.96945 0
M  V30 11080 C 1046.15 -2.6805 2.36398 0
M  V30 11081 C 1045.81 -2.37623 3.83205 0
M  V30 11082 C 1044.47 -2.29035 4.23198 0
M  V30 11083 C 1046.83 -2.12555 4.75888 0
M  V30 11084 C 1044.15 -1.93478 5.5388 0
M  V30 11085 C 1046.51 -1.78506 6.06892 0
M  V30 11086 C 1045.17 -1.68415 6.45905 0
M  V30 11087 H 1044.44 -0.53211 0.515694 0
M  V30 11088 H 1047.09 -0.793193 1.74301 0
M  V30 11089 H 1045.39 -3.39086 1.96285 0
M  V30 11090 H 1047.09 -3.26194 2.33234 0
M  V30 11091 H 1043.68 -2.45202 3.51531 0
M  V30 11092 H 1047.86 -2.18133 4.45793 0
M  V30 11093 H 1043.12 -1.84219 5.82986 0
M  V30 11094 H 1047.29 -1.58128 6.7821 0
M  V30 11095 H 1044.92 -1.40631 7.47079 0
M  V30 11096 N 1046.49 -1.27344 -0.928501 0
M  V30 11097 C 1047.44 -1.06656 -2.01515 0
M  V30 11098 C 1048.43 0.00516619 -1.60899 0
M  V30 11099 O 1049.62 -0.213277 -1.7571 0
M  V30 11100 C 1046.75 -0.714935 -3.35773 0
M  V30 11101 C 1045.84 -1.82476 -3.82836 0
M  V30 11102 N 1046.23 -3.06421 -4.02417 0
M  V30 11103 C 1044.52 -1.71126 -4.11864 0
M  V30 11104 C 1045.23 -3.78637 -4.41598 0
M  V30 11105 N 1044.2 -3.06396 -4.49024 0
M  V30 11106 H 1048 -2.00718 -2.14685 0
M  V30 11107 H 1045.52 -1.18048 -1.11528 0
M  V30 11108 H 1047.51 -0.54784 -4.13285 0
M  V30 11109 H 1046.17 0.218069 -3.23967 0
M  V30 11110 H 1047.19 -3.42191 -3.88749 0
M  V30 11111 H 1043.86 -0.849031 -4.08776 0
M  V30 11112 H 1045.25 -4.85159 -4.64834 0
M  V30 11113 N 1047.97 1.13488 -1.09353 0
M  V30 11114 C 1049.38 1.66299 -0.848609 0
M  V30 11115 C 1049.73 1.86044 0.623051 0
M  V30 11116 O 1048.86 1.57871 1.48005 0
M  V30 11117 C 1049.45 3.02087 -1.53391 0
M  V30 11118 C 1048.01 3.51893 -1.33598 0
M  V30 11119 C 1047.16 2.27154 -1.59048 0
M  V30 11120 H 1050.11 0.974208 -1.25279 0
M  V30 11121 H 1050.13 3.68018 -0.966587 0
M  V30 11122 H 1049.64 2.87684 -2.60498 0
M  V30 11123 H 1047.75 3.715 -0.286045 0
M  V30 11124 H 1047.86 4.32059 -2.0703 0
M  V30 11125 H 1046.22 2.33708 -1.01256 0
M  V30 11126 H 1047.01 2.15317 -2.67383 0
M  V30 11127 N 1049.45 0.880621 1.30701 0
M  V30 11128 C 1050.68 0.510909 2.01009 0
M  V30 11129 C 1051.1 -0.892041 1.65603 0
M  V30 11130 O 1050.46 -1.59045 0.870309 0
M  V30 11131 C 1050.51 0.687759 3.53981 0
M  V30 11132 O 1049.61 -0.268275 4.11526 0
M  V30 11133 H 1048.95 0.201864 0.632572 0
M  V30 11134 H 1051.48 1.18697 1.6665 0
M  V30 11135 H 1051.49 0.585095 4.03783 0
M  V30 11136 H 1050.17 1.71068 3.79089 0
M  V30 11137 H 1048.74 -0.119673 3.72708 0
M  V30 11138 N 1050.93 -1.4397 0.641131 0
M  V30 11139 C 1051.88 -2.32495 -0.0698668 0
M  V30 11140 C 1052.87 -1.47922 -0.825555 0
M  V30 11141 O 1054.08 -1.64206 -0.737323 0
M  V30 11142 H 1050.45 -0.750861 -0.0413706 0
M  V30 11143 H 1052.42 -2.90201 0.694682 0
M  V30 11144 C 1051.17 -3.32063 -1.03098 0
M  V30 11145 H 1050.5 -3.97157 -0.458923 0
M  V30 11146 H 1051.94 -3.96664 -1.49778 0
M  V30 11147 C 1050.39 -2.61743 -2.12113 0
M  V30 11148 O 1050.92 -2.42385 -3.20332 0
M  V30 11149 N 1049.13 -2.21316 -1.88328 0
M  V30 11150 H 1048.68 -2.37261 -1.00324 0
M  V30 11151 H 1048.64 -1.74594 -2.61465 0
M  V30 11152 N 1052.41 -0.382291 -1.52893 0
M  V30 11153 C 1053.65 0.202433 -2.01787 0
M  V30 11154 C 1053.99 1.47044 -1.26853 0
M  V30 11155 O 1053.26 1.91007 -0.366969 0
M  V30 11156 C 1053.54 0.477471 -3.5692 0
M  V30 11157 C 1053.4 -0.805339 -4.42532 0
M  V30 11158 C 1054.72 1.27106 -4.21346 0
M  V30 11159 H 1051.84 0.0720998 -0.733465 0
M  V30 11160 H 1054.48 -0.510478 -1.83014 0
M  V30 11161 H 1052.63 1.08478 -3.73048 0
M  V30 11162 H 1054.3 -1.4424 -4.3817 0
M  V30 11163 H 1052.54 -1.42216 -4.09826 0
M  V30 11164 H 1053.21 -0.567635 -5.49074 0
M  V30 11165 H 1055.69 0.757161 -4.09153 0
M  V30 11166 H 1054.57 1.43225 -5.29885 0
M  V30 11167 H 1054.83 2.28431 -3.78513 0
M  V30 11168 N 1053.89 1.57202 -0.111913 0
M  V30 11169 C 1054.8 2.18475 0.854753 0
M  V30 11170 C 1055.81 1.15888 1.29792 0
M  V30 11171 O 1056.99 1.48329 1.36237 0
M  V30 11172 C 1054.05 2.76645 2.0897 0
M  V30 11173 C 1053.11 3.94244 1.69913 0
M  V30 11174 C 1052.35 4.49631 2.8752 0
M  V30 11175 O 1052.57 4.03926 4.02741 0
M  V30 11176 O 1051.5 5.40417 2.65015 0
M  V30 11177 H 1055.33 3.01519 0.363352 0
M  V30 11178 H 1052.91 1.4897 0.113329 0
M  V30 11179 H 1054.8 3.13755 2.81311 0
M  V30 11180 H 1053.47 1.96637 2.5713 0
M  V30 11181 H 1052.38 3.61915 0.947013 0
M  V30 11182 H 1053.71 4.75666 1.26501 0
M  V30 11183 N 1055.36 -0.161842 1.56767 0
M  V30 11184 C 1056.3 -1.22927 1.9226 0
M  V30 11185 C 1057.27 -1.42309 0.786562 0
M  V30 11186 O 1058.46 -1.57163 1.04078 0
M  V30 11187 C 1055.59 -2.59069 2.18177 0
M  V30 11188 C 1054.63 -2.56368 3.40849 0
M  V30 11189 S 1055.46 -2.04518 4.94907 0
M  V30 11190 C 1056.62 -3.42418 5.23928 0
M  V30 11191 H 1056.85 -0.926377 2.82499 0
M  V30 11192 H 1054.39 -0.366822 1.49979 0
M  V30 11193 H 1056.34 -3.37421 2.33789 0
M  V30 11194 H 1055.01 -2.86554 1.28629 0
M  V30 11195 H 1054.2 -3.56551 3.56213 0
M  V30 11196 H 1053.8 -1.86116 3.24402 0
M  V30 11197 H 1056.09 -4.38461 5.16486 0
M  V30 11198 H 1057.04 -3.3192 6.25487 0
M  V30 11199 H 1057.44 -3.38868 4.51474 0
M  V30 11200 N 1056.84 -1.516 -0.430713 0
M  V30 11201 C 1057.77 -1.76342 -1.53054 0
M  V30 11202 C 1058.75 -0.61349 -1.58652 0
M  V30 11203 O 1059.94 -0.856888 -1.74273 0
M  V30 11204 C 1057.07 -1.8945 -2.91077 0
M  V30 11205 C 1056.02 -3.04928 -3.00339 0
M  V30 11206 C 1055.35 -3.03228 -4.40405 0
M  V30 11207 C 1056.65 -4.44777 -2.73808 0
M  V30 11208 H 1058.34 -2.68435 -1.326 0
M  V30 11209 H 1055.89 -1.29171 -0.636466 0
M  V30 11210 H 1057.84 -2.05343 -3.67984 0
M  V30 11211 H 1056.56 -0.940114 -3.12777 0
M  V30 11212 H 1055.22 -2.88751 -2.25872 0
M  V30 11213 H 1054.87 -2.05553 -4.59083 0
M  V30 11214 H 1054.57 -3.80776 -4.47531 0
M  V30 11215 H 1056.1 -3.21222 -5.19277 0
M  V30 11216 H 1057.51 -4.6127 -3.40445 0
M  V30 11217 H 1055.91 -5.2408 -2.92335 0
M  V30 11218 H 1056.98 -4.54358 -1.69372 0
M  V30 11219 N 1058.32 0.686584 -1.41858 0
M  V30 11220 C 1059.54 1.4802 -1.45275 0
M  V30 11221 C 1059.97 1.87997 -0.0621297 0
M  V30 11222 O 1059.33 1.55226 0.936733 0
M  V30 11223 C 1059.38 2.7133 -2.37513 0
M  V30 11224 O 1058.48 3.69159 -1.83836 0
M  V30 11225 H 1057.82 0.445152 -0.492682 0
M  V30 11226 H 1060.35 0.843161 -1.86419 0
M  V30 11227 H 1060.36 3.19537 -2.53693 0
M  V30 11228 H 1059.04 2.41571 -3.3855 0
M  V30 11229 H 1057.61 3.28134 -1.77151 0
M  V30 11230 N 1059.8 1.27835 0.921735 0
M  V30 11231 C 1061.02 1.17465 1.70929 0
M  V30 11232 C 1061.45 -0.264171 1.86236 0
M  V30 11233 O 1060.81 -1.19124 1.36671 0
M  V30 11234 C 1060.85 1.8697 3.08342 0
M  V30 11235 O 1059.96 1.17173 3.95404 0
M  V30 11236 H 1059.3 0.408206 0.523702 0
M  V30 11237 H 1061.83 1.69013 1.15307 0
M  V30 11238 H 1061.84 1.94564 3.58621 0
M  V30 11239 H 1060.51 2.91633 2.96518 0
M  V30 11240 H 1059.09 1.17688 3.53842 0
M  V30 11241 N 1061.28 -1.12907 1.09954 0
M  V30 11242 C 1062.21 -2.17589 0.687769 0
M  V30 11243 C 1063.19 -1.59648 -0.308444 0
M  V30 11244 O 1064.37 -1.87343 -0.208527 0
M  V30 11245 C 1061.5 -3.38697 0.0140519 0
M  V30 11246 C 1060.54 -4.15254 0.972942 0
M  V30 11247 S 1061.38 -4.74205 2.48777 0
M  V30 11248 C 1062.53 -5.98653 1.82662 0
M  V30 11249 H 1062.77 -2.52181 1.57455 0
M  V30 11250 H 1060.3 -1.24289 0.916051 0
M  V30 11251 H 1062.26 -4.08844 -0.368343 0
M  V30 11252 H 1060.92 -3.02396 -0.849456 0
M  V30 11253 H 1060.11 -5.01999 0.448715 0
M  V30 11254 H 1059.71 -3.5079 1.297 0
M  V30 11255 H 1062 -6.67602 1.15388 0
M  V30 11256 H 1062.95 -6.55693 2.67343 0
M  V30 11257 H 1063.36 -5.49486 1.29325 0
M  V30 11258 N 1062.75 -0.88754 -1.30232 0
M  V30 11259 C 1064.03 -0.427249 -1.90877 0
M  V30 11260 C 1064.41 1.0922 -1.80649 0
M  V30 11261 O 1063.76 1.92866 -1.22536 0
M  V30 11262 C 1063.97 -0.928219 -3.3643 0
M  V30 11263 C 1065.32 -0.964706 -4.13496 0
M  V30 11264 O 1066.34 -0.875057 -3.45284 0
M  V30 11265 O 1065.2 -1.09754 -5.35366 0
M  V30 11266 H 1062.29 -0.131107 -0.816541 0
M  V30 11267 H 1064.84 -0.976609 -1.38782 0
M  V30 11268 H 1063.61 -1.97209 -3.37971 0
M  V30 11269 H 1063.23 -0.358169 -3.95983 0
M  V30 11270 N 1064.23 1.43628 -0.648757 0
M  V30 11271 C 1065.46 2.06732 -0.166284 0
M  V30 11272 C 1065.88 1.48281 1.15734 0
M  V30 11273 O 1065.24 0.591018 1.71396 0
M  V30 11274 C 1065.29 3.60502 -0.0838732 0
M  V30 11275 O 1064.39 4.01186 0.955185 0
M  V30 11276 H 1063.73 0.657479 -0.0928285 0
M  V30 11277 H 1066.26 1.84208 -0.890421 0
M  V30 11278 H 1066.27 4.07875 0.100923 0
M  V30 11279 H 1064.95 4.02424 -1.05014 0
M  V30 11280 H 1063.53 3.65412 0.743537 0
M  V30 11281 N 1065.71 0.390394 1.52688 0
M  V30 11282 C 1066.67 -0.432149 2.25089 0
M  V30 11283 C 1067.67 -0.989296 1.26766 0
M  V30 11284 O 1068.86 -0.871126 1.50854 0
M  V30 11285 C 1066 -1.60642 3.00678 0
M  V30 11286 H 1067.19 0.201734 2.99221 0
M  V30 11287 H 1064.74 0.142531 1.55649 0
M  V30 11288 H 1065.48 -2.2777 2.3085 0
M  V30 11289 H 1065.26 -1.21361 3.72846 0
M  V30 11290 H 1066.75 -2.18873 3.55647 0
M  V30 11291 N 1067.19 -1.57141 0.120249 0
M  V30 11292 C 1068.41 -2.00017 -0.548454 0
M  V30 11293 C 1068.84 -0.999433 -1.59352 0
M  V30 11294 O 1068.2 0.0286978 -1.81277 0
M  V30 11295 C 1068.24 -3.41766 -1.15015 0
M  V30 11296 O 1067.35 -3.44589 -2.26566 0
M  V30 11297 H 1066.69 -0.649739 -0.136875 0
M  V30 11298 H 1069.22 -2.03529 0.209092 0
M  V30 11299 H 1069.23 -3.80001 -1.48537 0
M  V30 11300 H 1067.9 -4.14117 -0.384681 0
M  V30 11301 H 1066.48 -3.18174 -1.94473 0
M  V30 11302 N 1068.67 0.153526 -1.5685 0
M  V30 11303 C 1069.91 0.868517 -1.83261 0
M  V30 11304 C 1070.25 1.81112 -0.700857 0
M  V30 11305 O 1069.52 1.92235 0.295989 0
M  V30 11306 C 1069.8 1.6487 -3.2014 0
M  V30 11307 C 1069.66 0.728021 -4.43869 0
M  V30 11308 C 1070.98 2.61259 -3.54163 0
M  V30 11309 H 1068.09 0.314297 -0.666623 0
M  V30 11310 H 1070.74 0.133971 -1.89527 0
M  V30 11311 H 1068.89 2.2749 -3.1493 0
M  V30 11312 H 1070.56 0.113328 -4.61161 0
M  V30 11313 H 1068.8 0.0371744 -4.33784 0
M  V30 11314 H 1069.47 1.30981 -5.36235 0
M  V30 11315 H 1071.95 2.0876 -3.59942 0
M  V30 11316 H 1070.82 3.12902 -4.50981 0
M  V30 11317 H 1071.09 3.42307 -2.79782 0
M  V30 11318 N 1070.14 1.51827 0.422667 0
M  V30 11319 C 1071.56 1.40328 0.760275 0
M  V30 11320 C 1071.76 0.497119 1.95272 0
M  V30 11321 O 1070.82 -0.0422083 2.52465 0
M  V30 11322 C 1072.13 2.82622 1.02689 0
M  V30 11323 C 1073.68 2.91874 1.13044 0
M  V30 11324 C 1074.15 4.35107 1.4299 0
M  V30 11325 N 1075.64 4.3828 1.49883 0
M  V30 11326 C 1076.38 5.46153 1.74655 0
M  V30 11327 N 1075.87 6.64165 1.9712 0
M  V30 11328 N 1077.67 5.33651 1.76558 0
M  V30 11329 H 1069.82 2.09285 -0.362455 0
M  V30 11330 H 1072.08 0.94273 -0.0998161 0
M  V30 11331 H 1071.79 3.50991 0.223226 0
M  V30 11332 H 1071.66 3.22844 1.95068 0
M  V30 11333 H 1074.05 2.23694 1.92471 0
M  V30 11334 H 1074.13 2.55128 0.185326 0
M  V30 11335 H 1073.77 5.03841 0.640848 0
M  V30 11336 H 1073.7 4.69377 2.38731 0
M  V30 11337 H 1076.19 3.53206 1.34366 0
M  V30 11338 H 1076.51 7.42165 2.15434 0
M  V30 11339 H 1074.85 6.67255 1.94413 0
M  V30 11340 H 1078.04 4.40436 1.58536 0
M  V30 11341 H 1078.22 6.17798 1.95525 0
M  V30 11342 N 1071.62 -0.679052 1.4222 0
M  V30 11343 C 1072.87 -1.43485 1.41757 0
M  V30 11344 C 1073.18 -1.95567 0.0358698 0
M  V30 11345 O 1074.39 -2.71346 -0.0913713 0
M  V30 11346 C 1072.85 -2.59541 2.49332 0
M  V30 11347 C 1072.45 -2.14176 3.93488 0
M  V30 11348 C 1074.2 -3.37078 2.58029 0
M  V30 11349 C 1072.11 -3.27289 4.92581 0
M  V30 11350 H 1071.04 -0.539022 0.52723 0
M  V30 11351 H 1073.69 -0.735581 1.68111 0
M  V30 11352 H 1072.07 -3.31815 2.16135 0
M  V30 11353 H 1073.24 -1.49082 4.36017 0
M  V30 11354 H 1071.56 -1.49589 3.88603 0
M  V30 11355 H 1074.15 -4.21312 3.29242 0
M  V30 11356 H 1074.5 -3.83383 1.62245 0
M  V30 11357 H 1075.03 -2.7187 2.90399 0
M  V30 11358 H 1071.77 -2.8598 5.89827 0
M  V30 11359 H 1071.29 -3.91178 4.54687 0
M  V30 11360 H 1072.97 -3.9282 5.14103 0
M  V30 11361 N 1073.1 -1.28322 -0.914942 0
M  V30 11362 C 1074.35 -1.14785 -1.65853 0
M  V30 11363 C 1074.66 0.303135 -1.93237 0
M  V30 11364 O 1075.87 0.559606 -2.6567 0
M  V30 11365 C 1074.32 -2.00652 -2.98776 0
M  V30 11366 C 1073.93 -3.50483 -2.79044 0
M  V30 11367 C 1075.68 -1.95798 -3.76648 0
M  V30 11368 C 1073.58 -4.28505 -4.076 0
M  V30 11369 H 1072.51 -0.425987 -0.622135 0
M  V30 11370 H 1075.16 -1.52844 -1.01543 0
M  V30 11371 H 1073.55 -1.55447 -3.64214 0
M  V30 11372 H 1074.72 -4.03636 -2.22293 0
M  V30 11373 H 1073.04 -3.5685 -2.14586 0
M  V30 11374 H 1075.63 -2.51359 -4.71935 0
M  V30 11375 H 1075.98 -0.934455 -4.05677 0
M  V30 11376 H 1076.51 -2.38965 -3.18026 0
M  V30 11377 H 1073.25 -5.31433 -3.83744 0
M  V30 11378 H 1072.77 -3.80125 -4.63966 0
M  V30 11379 H 1074.45 -4.3836 -4.75867 0
M  V30 11380 N 1074.58 1.12322 -1.10551 0
M  V30 11381 C 1075.53 2.18087 -0.755424 0
M  V30 11382 C 1076.5 1.6391 0.268805 0
M  V30 11383 O 1077.68 1.90227 0.147813 0
M  V30 11384 C 1074.82 3.4455 -0.194713 0
M  V30 11385 C 1073.93 4.12775 -1.27439 0
M  V30 11386 C 1073.07 5.26891 -0.675194 0
M  V30 11387 C 1072.11 5.86985 -1.73536 0
M  V30 11388 N 1071.24 6.92512 -1.15635 0
M  V30 11389 H 1076.08 2.47379 -1.66155 0
M  V30 11390 H 1073.62 1.21452 -0.829924 0
M  V30 11391 H 1075.58 4.16936 0.148275 0
M  V30 11392 H 1074.21 3.15671 0.674638 0
M  V30 11393 H 1073.26 3.38556 -1.73448 0
M  V30 11394 H 1074.57 4.53506 -2.07687 0
M  V30 11395 H 1073.73 6.06046 -0.281723 0
M  V30 11396 H 1072.47 4.87442 0.158708 0
M  V30 11397 H 1071.47 5.06517 -2.13825 0
M  V30 11398 H 1072.7 6.28505 -2.57213 0
M  V30 11399 H 1070.64 6.55098 -0.343928 0
M  V30 11400 H 1070.56 7.31848 -1.89565 0
M  V30 11401 H 1071.83 7.75492 -0.789463 0
M  V30 11402 N 1076.06 0.894434 1.2976 0
M  V30 11403 C 1077.47 0.566892 1.77885 0
M  V30 11404 C 1077.82 -0.917289 1.73437 0
M  V30 11405 O 1076.94 -1.71707 1.31703 0
M  V30 11406 C 1077.54 1.02227 3.2301 0
M  V30 11407 C 1076.1 0.745978 3.68934 0
M  V30 11408 C 1075.24 1.19993 2.49994 0
M  V30 11409 H 1078.2 1.0777 1.16496 0
M  V30 11410 H 1078.22 0.355281 3.78838 0
M  V30 11411 H 1077.73 2.1025 3.26215 0
M  V30 11412 H 1075.83 -0.321866 3.71207 0
M  V30 11413 H 1075.94 1.34017 4.59974 0
M  V30 11414 H 1074.31 0.619047 2.47063 0
M  V30 11415 H 1075.09 2.28811 2.55931 0
M  V30 11416 N 1077.53 -1.43282 0.656365 0
M  V30 11417 C 1078.78 -2.01776 0.171039 0
M  V30 11418 C 1079.11 -1.51795 -1.21609 0
M  V30 11419 O 1078.36 -0.702864 -1.82643 0
M  V30 11420 C 1078.66 -3.57148 0.134225 0
M  V30 11421 C 1078.33 -4.26488 1.46352 0
M  V30 11422 C 1076.99 -4.45146 1.82753 0
M  V30 11423 C 1079.34 -4.65728 2.33981 0
M  V30 11424 C 1076.67 -5.0031 3.06443 0
M  V30 11425 C 1079.02 -5.22263 3.56966 0
M  V30 11426 C 1077.69 -5.39136 3.93559 0
M  V30 11427 H 1076.96 -0.738352 0.0625878 0
M  V30 11428 H 1079.6 -1.71716 0.847697 0
M  V30 11429 H 1077.91 -3.86768 -0.625892 0
M  V30 11430 H 1079.61 -4.00168 -0.258207 0
M  V30 11431 H 1076.2 -4.12313 1.1703 0
M  V30 11432 H 1080.38 -4.51003 2.07148 0
M  V30 11433 H 1075.64 -5.11559 3.34839 0
M  V30 11434 H 1079.81 -5.51614 4.25082 0
M  V30 11435 H 1077.44 -5.81646 4.89481 0
M  V30 11436 N 1079.01 -0.398486 -1.52479 0
M  V30 11437 C 1080.42 0.0735015 -1.86555 0
M  V30 11438 C 1080.78 1.45361 -1.31775 0
M  V30 11439 O 1079.9 2.0632 -0.652759 0
M  V30 11440 C 1080.5 0.140152 -3.3851 0
M  V30 11441 C 1079.05 0.556451 -3.72264 0
M  V30 11442 C 1078.2 -0.275792 -2.75925 0
M  V30 11443 H 1081.15 -0.615991 -1.46257 0
M  V30 11444 H 1081.17 0.957507 -3.68255 0
M  V30 11445 H 1080.69 -0.864442 -3.7835 0
M  V30 11446 H 1078.79 1.56808 -3.37997 0
M  V30 11447 H 1078.9 0.308227 -4.78107 0
M  V30 11448 H 1077.26 0.260304 -2.53366 0
M  V30 11449 H 1078.05 -1.27854 -3.18604 0
M  V30 11450 N 1080.49 1.57075 -0.12858 0
M  V30 11451 C 1081.45 2.14643 0.803813 0
M  V30 11452 C 1082.45 1.08363 1.18803 0
M  V30 11453 O 1083.64 1.34093 1.11197 0
M  V30 11454 C 1080.78 2.6945 2.08829 0
M  V30 11455 H 1081.97 2.98362 0.303347 0
M  V30 11456 H 1079.52 1.55833 0.120735 0
M  V30 11457 H 1080.26 1.89345 2.63285 0
M  V30 11458 H 1080.04 3.47187 1.82218 0
M  V30 11459 H 1081.53 3.13865 2.7546 0
M  V30 11460 N 1081.97 -0.145205 1.5693 0
M  V30 11461 C 1083.38 -0.705089 1.72874 0
M  V30 11462 C 1083.73 -1.81577 0.743261 0
M  V30 11463 O 1082.86 -2.16214 -0.0897153 0
M  V30 11464 C 1083.45 -1.28578 3.13454 0
M  V30 11465 C 1082.01 -1.79221 3.30994 0
M  V30 11466 C 1081.16 -0.681392 2.68798 0
M  V30 11467 H 1084.11 0.0804798 1.58496 0
M  V30 11468 H 1084.13 -2.15558 3.13552 0
M  V30 11469 H 1083.64 -0.477186 3.85155 0
M  V30 11470 H 1081.74 -2.62642 2.64292 0
M  V30 11471 H 1081.86 -1.91969 4.38959 0
M  V30 11472 H 1080.22 -1.10847 2.29314 0
M  V30 11473 H 1081 0.115786 3.43105 0
M  V30 11474 N 1083.45 -1.52049 -0.414609 0
M  V30 11475 C 1084.38 -1.7122 -1.52369 0
M  V30 11476 C 1085.39 -0.592634 -1.5163 0
M  V30 11477 O 1086.58 -0.867634 -1.55995 0
M  V30 11478 C 1083.68 -1.73247 -2.91271 0
M  V30 11479 C 1082.85 -3.02153 -3.16263 0
M  V30 11480 C 1081.91 -2.96066 -4.35007 0
M  V30 11481 O 1080.94 -3.69981 -4.32554 0
M  V30 11482 N 1082.14 -2.13478 -5.39822 0
M  V30 11483 H 1084.91 -2.66902 -1.3632 0
M  V30 11484 H 1082.47 -1.50218 -0.603842 0
M  V30 11485 H 1084.46 -1.66714 -3.68766 0
M  V30 11486 H 1083.03 -0.85062 -3.00804 0
M  V30 11487 H 1082.25 -3.22379 -2.2686 0
M  V30 11488 H 1083.54 -3.87439 -3.29801 0
M  V30 11489 H 1082.94 -1.52844 -5.44661 0
M  V30 11490 H 1081.49 -2.12805 -6.16082 0
M  V30 11491 N 1084.93 0.6715 -1.42579 0
M  V30 11492 C 1086.15 1.45972 -1.46628 0
M  V30 11493 C 1086.57 1.88636 -0.0785986 0
M  V30 11494 O 1085.93 1.58345 0.907372 0
M  V30 11495 C 1085.98 2.70668 -2.39627 0
M  V30 11496 O 1085.7 2.29793 -3.72997 0
M  V30 11497 C 1087.2 3.64201 -2.52731 0
M  V30 11498 H 1084.42 0.449044 -0.498598 0
M  V30 11499 H 1086.96 0.824811 -1.87129 0
M  V30 11500 H 1085.12 3.3034 -2.02371 0
M  V30 11501 H 1085.53 3.10341 -4.22834 0
M  V30 11502 H 1087.01 4.48412 -3.21918 0
M  V30 11503 H 1087.48 4.10323 -1.56626 0
M  V30 11504 H 1088.09 3.1042 -2.90722 0
M  V30 11505 N 1086.4 1.28806 0.908124 0
M  V30 11506 C 1087.81 1.14719 1.47297 0
M  V30 11507 C 1088.17 -0.260763 1.94459 0
M  V30 11508 O 1087.29 -1.15553 1.82966 0
M  V30 11509 C 1087.89 2.07643 2.67712 0
M  V30 11510 C 1086.44 1.97605 3.20358 0
M  V30 11511 C 1085.59 1.99058 1.93058 0
M  V30 11512 H 1088.54 1.41413 0.720283 0
M  V30 11513 H 1088.56 1.64372 3.43165 0
M  V30 11514 H 1088.08 3.10108 2.33355 0
M  V30 11515 H 1086.18 0.981982 3.59427 0
M  V30 11516 H 1086.29 2.84846 3.85226 0
M  V30 11517 H 1084.65 1.43541 2.104 0
M  V30 11518 H 1085.44 3.03212 1.60989 0
M  V30 11519 N 1087.88 -1.11734 1.11145 0
M  V30 11520 C 1089.13 -1.83043 0.856717 0
M  V30 11521 C 1089.45 -1.84901 -0.619407 0
M  V30 11522 O 1088.72 -1.31738 -1.44989 0
M  V30 11523 H 1087.3 -0.677823 0.31395 0
M  V30 11524 H 1089.96 -1.35262 1.40322 0
M  V30 11525 H 1089.06 -2.87005 1.22616 0
M  V30 11526 N 1089.36 -0.901303 -1.29284 0
M  V30 11527 C 1090.78 -0.597634 -1.47988 0
M  V30 11528 C 1090.98 0.860434 -1.82205 0
M  V30 11529 O 1090.03 1.64049 -1.91948 0
M  V30 11530 C 1091.34 -1.52484 -2.5917 0
M  V30 11531 C 1092.89 -1.53021 -2.73045 0
M  V30 11532 C 1093.37 -2.44373 -3.87357 0
M  V30 11533 N 1094.86 -2.42429 -3.94693 0
M  V30 11534 C 1095.59 -3.09817 -4.82495 0
M  V30 11535 N 1095.09 -3.86489 -5.74976 0
M  V30 11536 N 1096.88 -2.98966 -4.76 0
M  V30 11537 H 1089.03 -1.84432 -1.0535 0
M  V30 11538 H 1091.3 -0.790367 -0.523473 0
M  V30 11539 H 1091 -2.56378 -2.40756 0
M  V30 11540 H 1090.88 -1.24657 -3.56006 0
M  V30 11541 H 1093.26 -0.498709 -2.90855 0
M  V30 11542 H 1093.34 -1.84886 -1.76779 0
M  V30 11543 H 1092.99 -3.47618 -3.70302 0
M  V30 11544 H 1092.92 -2.09817 -4.82995 0
M  V30 11545 H 1095.41 -1.86724 -3.28546 0
M  V30 11546 H 1095.72 -4.34959 -6.38773 0
M  V30 11547 H 1094.07 -3.90596 -5.74857 0
M  V30 11548 H 1097.26 -2.38581 -4.02737 0
M  V30 11549 H 1097.43 -3.51758 -5.44215 0
M  V30 11550 N 1090.84 1.42931 -0.663954 0
M  V30 11551 C 1091.77 2.33499 0.00731327 0
M  V30 11552 C 1092.75 1.50074 0.800733 0
M  V30 11553 O 1093.93 1.78708 0.760062 0
M  V30 11554 C 1091.06 3.33569 0.966897 0
M  V30 11555 C 1090.02 4.27064 0.282839 0
M  V30 11556 C 1089.34 5.17257 1.35461 0
M  V30 11557 C 1090.64 5.1564 -0.831438 0
M  V30 11558 H 1092.34 2.89879 -0.749044 0
M  V30 11559 H 1089.88 1.39385 -0.361656 0
M  V30 11560 H 1091.84 3.95833 1.44549 0
M  V30 11561 H 1090.56 2.75469 1.75455 0
M  V30 11562 H 1089.22 3.6618 -0.175417 0
M  V30 11563 H 1088.87 4.5549 2.13397 0
M  V30 11564 H 1088.57 5.80634 0.902098 0
M  V30 11565 H 1090.09 5.82395 1.83436 0
M  V30 11566 H 1091.51 5.71651 -0.434534 0
M  V30 11567 H 1089.9 5.87794 -1.20908 0
M  V30 11568 H 1090.97 4.54687 -1.68487 0
M  V30 11569 N 1092.32 0.406567 1.52266 0
M  V30 11570 C 1093.25 -0.45552 2.24628 0
M  V30 11571 C 1094.26 -1.01234 1.27497 0
M  V30 11572 O 1095.45 -0.911718 1.5346 0
M  V30 11573 C 1092.55 -1.64578 2.96256 0
M  V30 11574 C 1091.72 -1.2133 4.20235 0
M  V30 11575 C 1090.78 -2.27018 4.7471 0
M  V30 11576 O 1089.81 -1.87714 5.37357 0
M  V30 11577 N 1091.01 -3.5915 4.56061 0
M  V30 11578 H 1093.77 0.164525 2.99248 0
M  V30 11579 H 1091.34 0.233812 1.60203 0
M  V30 11580 H 1093.33 -2.3484 3.29594 0
M  V30 11581 H 1091.9 -2.1718 2.24837 0
M  V30 11582 H 1091.12 -0.338892 3.92741 0
M  V30 11583 H 1092.41 -0.901268 5.00754 0
M  V30 11584 H 1091.8 -3.93834 4.06092 0
M  V30 11585 H 1090.36 -4.25397 4.93843 0
M  V30 11586 N 1093.79 -1.57004 0.136909 0
M  V30 11587 C 1095.21 -1.82675 -0.385577 0
M  V30 11588 C 1095.56 -1.05508 -1.65416 0
M  V30 11589 O 1094.68 -0.297207 -2.14349 0
M  V30 11590 C 1095.28 -3.31356 -0.706326 0
M  V30 11591 C 1093.84 -3.57644 -1.17337 0
M  V30 11592 C 1092.98 -2.7664 -0.191239 0
M  V30 11593 H 1095.93 -1.54522 0.36177 0
M  V30 11594 H 1095.95 -3.4696 -1.56201 0
M  V30 11595 H 1095.47 -3.87492 0.217147 0
M  V30 11596 H 1093.57 -3.06883 -2.11313 0
M  V30 11597 H 1093.68 -4.66152 -1.10632 0
M  V30 11598 H 1092.04 -2.45403 -0.681867 0
M  V30 11599 H 1092.83 -3.35543 0.725647 0
M  V30 11600 N 1095.27 0.136881 -1.57004 0
M  V30 11601 C 1096.24 1.15267 -1.98106 0
M  V30 11602 C 1097.24 1.35305 -0.868856 0
M  V30 11603 O 1098.43 1.32126 -1.13527 0
M  V30 11604 C 1095.56 2.51092 -2.30577 0
M  V30 11605 H 1096.75 0.799821 -2.89038 0
M  V30 11606 H 1094.3 0.380576 -1.51596 0
M  V30 11607 H 1095.04 2.9133 -1.42469 0
M  V30 11608 H 1094.82 2.37906 -3.11678 0
M  V30 11609 H 1096.31 3.24232 -2.63179 0
M  V30 11610 N 1096.75 1.52266 0.40654 0
M  V30 11611 C 1098.16 1.58587 0.985241 0
M  V30 11612 C 1098.51 0.427955 1.91476 0
M  V30 11613 O 1097.64 -0.451341 2.11641 0
M  V30 11614 C 1098.23 2.87426 1.79365 0
M  V30 11615 C 1096.79 2.96217 2.32233 0
M  V30 11616 C 1095.94 2.53548 1.12288 0
M  V30 11617 H 1098.89 1.57598 0.186685 0
M  V30 11618 H 1098.91 2.72925 2.65127 0
M  V30 11619 H 1098.42 3.71682 1.11687 0
M  V30 11620 H 1096.52 2.1646 3.03275 0
M  V30 11621 H 1096.64 4.00511 2.62922 0
M  V30 11622 H 1095 2.07457 1.47763 0
M  V30 11623 H 1095.78 3.40181 0.461731 0
M  V30 11624 N 1098.23 -0.663929 1.42933 0
M  V30 11625 C 1099.47 -1.42603 1.44195 0
M  V30 11626 C 1099.81 -1.94101 0.0620284 0
M  V30 11627 O 1099.08 -1.71609 -0.91546 0
M  V30 11628 C 1099.37 -2.61522 2.47544 0
M  V30 11629 C 1099.22 -2.15587 3.94769 0
M  V30 11630 C 1100.54 -3.6374 2.47753 0
M  V30 11631 H 1097.66 -0.517189 0.525056 0
M  V30 11632 H 1100.3 -0.75361 1.74415 0
M  V30 11633 H 1098.45 -3.1889 2.21904 0
M  V30 11634 H 1100.12 -1.63303 4.31428 0
M  V30 11635 H 1098.36 -1.47057 4.08114 0
M  V30 11636 H 1099.03 -3.01053 4.62678 0
M  V30 11637 H 1101.51 -3.16111 2.70579 0
M  V30 11638 H 1100.39 -4.44512 3.22025 0
M  V30 11639 H 1100.65 -4.15607 1.50742 0
M  V30 11640 N 1099.71 -1.29285 -0.901281 0
M  V30 11641 C 1100.96 -1.16538 -1.64626 0
M  V30 11642 C 1101.27 0.282623 -1.93547 0
M  V30 11643 O 1102.47 0.531396 -2.66249 0
M  V30 11644 C 1100.93 -2.03809 -2.96631 0
M  V30 11645 C 1100.54 -3.53423 -2.75311 0
M  V30 11646 C 1102.28 -1.99782 -3.7455 0
M  V30 11647 C 1100.19 -4.32804 -4.03032 0
M  V30 11648 H 1099.12 -0.432561 -0.617581 0
M  V30 11649 H 1101.77 -1.53912 -0.999159 0
M  V30 11650 H 1100.15 -1.59302 -3.62545 0
M  V30 11651 H 1101.33 -4.05971 -2.18 0
M  V30 11652 H 1099.64 -3.59106 -2.10789 0
M  V30 11653 H 1102.24 -2.5635 -4.69243 0
M  V30 11654 H 1102.58 -0.97743 -4.04663 0
M  V30 11655 H 1103.11 -2.42324 -3.15474 0
M  V30 11656 H 1099.85 -5.35473 -3.78086 0
M  V30 11657 H 1099.37 -3.85025 -4.59909 0
M  V30 11658 H 1101.05 -4.43383 -4.71191 0
M  V30 11659 N 1101.18 1.11143 -1.11736 0
M  V30 11660 C 1102.6 1.64462 -0.883693 0
M  V30 11661 C 1102.95 1.87324 0.583448 0
M  V30 11662 O 1102.07 1.60975 1.44623 0
M  V30 11663 C 1102.67 2.98765 -1.59764 0
M  V30 11664 C 1101.23 3.4898 -1.41032 0
M  V30 11665 C 1100.37 2.23729 -1.63831 0
M  V30 11666 H 1103.32 0.947415 -1.27317 0
M  V30 11667 H 1103.34 3.65885 -1.04443 0
M  V30 11668 H 1102.86 2.82094 -2.66542 0
M  V30 11669 H 1100.96 3.7081 -0.364781 0
M  V30 11670 H 1101.07 4.27571 -2.16148 0
M  V30 11671 H 1099.43 2.31507 -1.06191 0
M  V30 11672 H 1100.22 2.09597 -2.7189 0
M  V30 11673 N 1102.66 0.908147 1.28804 0
M  V30 11674 C 1103.89 0.553431 1.9988 0
M  V30 11675 C 1104.31 -0.856714 1.67458 0
M  V30 11676 O 1103.67 -1.57163 0.903849 0
M  V30 11677 C 1103.72 0.762688 3.52442 0
M  V30 11678 O 1102.82 -0.180924 4.12003 0
M  V30 11679 H 1102.16 0.215237 0.628147 0
M  V30 11680 H 1104.69 1.22205 1.64095 0
M  V30 11681 H 1104.7 0.670612 4.02451 0
M  V30 11682 H 1103.38 1.79071 3.75375 0
M  V30 11683 H 1101.96 -0.0405897 3.72878 0
M  V30 11684 N 1104.14 -1.42577 0.671525 0
M  V30 11685 C 1105.1 -2.292 0.000392482 0
M  V30 11686 C 1106.1 -1.43158 -0.732294 0
M  V30 11687 O 1107.29 -1.64583 -0.570789 0
M  V30 11688 C 1104.43 -3.25591 -1.01013 0
M  V30 11689 H 1105.62 -2.90037 0.762783 0
M  V30 11690 H 1103.17 -1.50162 0.433703 0
M  V30 11691 H 1103.91 -2.69685 -1.80112 0
M  V30 11692 H 1103.69 -3.89049 -0.488183 0
M  V30 11693 H 1105.18 -3.90561 -1.47824 0
M  V30 11694 N 1105.62 -0.414636 -1.52048 0
M  V30 11695 C 1107.03 0.0537107 -1.86623 0
M  V30 11696 C 1107.38 1.43955 -1.3331 0
M  V30 11697 O 1106.51 2.05616 -0.674606 0
M  V30 11698 C 1107.1 0.104241 -3.3864 0
M  V30 11699 C 1105.66 0.516936 -3.72833 0
M  V30 11700 C 1104.81 -0.305042 -2.75617 0
M  V30 11701 H 1107.76 -0.631469 -1.45596 0
M  V30 11702 H 1107.78 0.918395 -3.6925 0
M  V30 11703 H 1107.29 -0.904523 -3.77412 0
M  V30 11704 H 1105.39 1.53214 -3.39641 0
M  V30 11705 H 1105.5 0.2575 -4.78408 0
M  V30 11706 H 1103.87 0.233416 -2.53628 0
M  V30 11707 H 1104.65 -1.31226 -3.1723 0
M  V30 11708 N 1107.1 1.56929 -0.145233 0
M  V30 11709 C 1108.06 2.15483 0.781002 0
M  V30 11710 C 1109.06 1.09617 1.17647 0
M  V30 11711 O 1110.25 1.35265 1.09768 0
M  V30 11712 C 1107.38 2.7165 2.05959 0
M  V30 11713 H 1108.57 2.98667 0.271685 0
M  V30 11714 H 1106.13 1.55952 0.1042 0
M  V30 11715 H 1106.86 1.92127 2.61262 0
M  V30 11716 H 1106.65 3.491 1.78526 0
M  V30 11717 H 1108.14 3.16769 2.72116 0
M  V30 11718 N 1108.58 -0.128553 1.57075 0
M  V30 11719 C 1109.54 -1.14215 1.98715 0
M  V30 11720 C 1110.54 -1.34843 0.876019 0
M  V30 11721 O 1111.73 -1.31522 1.14227 0
M  V30 11722 C 1108.86 -2.49865 2.31905 0
M  V30 11723 H 1110.05 -0.784481 2.89458 0
M  V30 11724 H 1107.61 -0.372531 1.51796 0
M  V30 11725 H 1108.34 -2.9057 1.44012 0
M  V30 11726 H 1108.13 -2.3625 3.12935 0
M  V30 11727 H 1109.62 -3.22832 2.64895 0
M  V30 11728 N 1110.05 -1.5248 -0.398459 0
M  V30 11729 C 1111.46 -1.59107 -0.976817 0
M  V30 11730 C 1111.82 -0.438104 -1.91246 0
M  V30 11731 O 1110.94 0.440111 -2.11877 0
M  V30 11732 C 1111.54 -2.88373 -1.77838 0
M  V30 11733 C 1110.09 -2.97445 -2.30659 0
M  V30 11734 C 1109.24 -2.5414 -1.10942 0
M  V30 11735 H 1112.19 -1.57695 -0.178324 0
M  V30 11736 H 1112.21 -2.74327 -2.63676 0
M  V30 11737 H 1111.73 -3.72269 -1.09714 0
M  V30 11738 H 1109.83 -2.18066 -3.02123 0
M  V30 11739 H 1109.94 -4.019 -2.60794 0
M  V30 11740 H 1108.3 -2.08237 -1.46661 0
M  V30 11741 H 1109.09 -3.40421 -0.443684 0
M  V30 11742 N 1111.53 0.65634 -1.43283 0
M  V30 11743 C 1112.48 1.76934 -1.48199 0
M  V30 11744 C 1113.45 1.62748 -0.332023 0
M  V30 11745 O 1114.63 1.83036 -0.538735 0
M  V30 11746 C 1111.77 3.15072 -1.40797 0
M  V30 11747 C 1110.89 3.40414 -2.65974 0
M  V30 11748 C 1110.02 4.68383 -2.50582 0
M  V30 11749 C 1109.06 4.8682 -3.71043 0
M  V30 11750 N 1108.2 6.06043 -3.5448 0
M  V30 11751 H 1113.04 1.72067 -2.43304 0
M  V30 11752 H 1110.57 0.839728 -1.20777 0
M  V30 11753 H 1112.53 3.94925 -1.345 0
M  V30 11754 H 1111.16 3.19017 -0.492754 0
M  V30 11755 H 1110.21 2.54681 -2.82563 0
M  V30 11756 H 1111.53 3.49925 -3.55463 0
M  V30 11757 H 1110.68 5.56357 -2.41975 0
M  V30 11758 H 1109.42 4.61187 -1.58612 0
M  V30 11759 H 1108.42 3.97282 -3.80062 0
M  V30 11760 H 1109.65 4.95847 -4.64017 0
M  V30 11761 H 1107.6 5.99985 -2.65242 0
M  V30 11762 H 1107.51 6.16498 -4.37568 0
M  V30 11763 H 1108.78 6.96647 -3.49719 0
M  V30 11764 N 1113.01 1.29761 0.894412 0
M  V30 11765 C 1113.94 1.17902 2.01547 0
M  V30 11766 C 1114.92 0.0719402 1.69948 0
M  V30 11767 O 1116.11 0.252338 1.92554 0
M  V30 11768 C 1113.24 0.860262 3.36477 0
M  V30 11769 C 1112.19 1.92424 3.82305 0
M  V30 11770 C 1111.52 1.45868 5.14419 0
M  V30 11771 C 1112.82 3.33391 4.02054 0
M  V30 11772 H 1114.51 2.11688 2.11727 0
M  V30 11773 H 1112.06 1.01916 1.01731 0
M  V30 11774 H 1114.01 0.763987 4.14417 0
M  V30 11775 H 1112.73 -0.113289 3.26403 0
M  V30 11776 H 1111.39 2.00999 3.06586 0
M  V30 11777 H 1111.04 0.473654 5.00765 0
M  V30 11778 H 1110.74 2.17028 5.46052 0
M  V30 11779 H 1112.26 1.37601 5.94894 0
M  V30 11780 H 1113.68 3.27628 4.7046 0
M  V30 11781 H 1112.07 4.02555 4.4505 0
M  V30 11782 H 1113.14 3.75978 3.06216 0
M  V30 11783 N 1114.49 -1.10549 1.12324 0
M  V30 11784 C 1115.76 -1.78968 0.789287 0
M  V30 11785 C 1116.14 -1.984 -0.721156 0
M  V30 11786 O 1115.49 -1.5761 -1.65443 0
M  V30 11787 C 1115.7 -3.12044 1.563 0
M  V30 11788 C 1117.05 -3.86939 1.74825 0
M  V30 11789 O 1118.07 -3.21761 1.52802 0
M  V30 11790 O 1116.93 -5.0392 2.11488 0
M  V30 11791 H 1114.03 -0.775617 0.286962 0
M  V30 11792 H 1116.57 -1.17209 1.2272 0
M  V30 11793 H 1115.35 -2.93313 2.59005 0
M  V30 11794 H 1114.97 -3.81521 1.11926 0
M  V30 11795 N 1115.97 -0.914965 -1.28321 0
M  V30 11796 C 1116.92 -0.375436 -2.24888 0
M  V30 11797 C 1117.9 0.51313 -1.52498 0
M  V30 11798 O 1119.09 0.352654 -1.73451 0
M  V30 11799 C 1116.22 0.382266 -3.41165 0
M  V30 11800 C 1115.31 -0.522089 -4.20874 0
M  V30 11801 N 1115.7 -1.63623 -4.78603 0
M  V30 11802 C 1114 -0.322703 -4.44831 0
M  V30 11803 C 1114.7 -2.19766 -5.38589 0
M  V30 11804 N 1113.67 -1.48878 -5.22816 0
M  V30 11805 H 1117.47 -1.2263 -2.67094 0
M  V30 11806 H 1114.99 -0.767759 -1.43106 0
M  V30 11807 H 1116.99 0.785641 -4.0943 0
M  V30 11808 H 1115.65 1.23021 -3.00493 0
M  V30 11809 H 1116.66 -2.01879 -4.76933 0
M  V30 11810 H 1113.33 0.485627 -4.14666 0
M  V30 11811 H 1114.72 -3.13494 -5.94282 0
M  V30 11812 N 1117.44 1.42219 -0.679077 0
M  V30 11813 C 1118.38 2.29172 0.035583 0
M  V30 11814 C 1119.39 1.43909 0.761183 0
M  V30 11815 O 1120.58 1.67584 0.61463 0
M  V30 11816 C 1117.68 3.21426 1.07419 0
M  V30 11817 C 1116.85 4.35364 0.421547 0
M  V30 11818 C 1115.91 5.08307 1.36051 0
M  V30 11819 O 1114.94 5.62678 0.859186 0
M  V30 11820 N 1116.14 5.14222 2.69362 0
M  V30 11821 H 1118.9 2.91147 -0.710865 0
M  V30 11822 H 1116.46 1.53192 -0.523821 0
M  V30 11823 H 1118.46 3.67091 1.70371 0
M  V30 11824 H 1117.03 2.60873 1.72233 0
M  V30 11825 H 1116.25 3.9229 -0.387559 0
M  V30 11826 H 1117.53 5.08789 -0.0329421 0
M  V30 11827 H 1116.93 4.71467 3.12627 0
M  V30 11828 H 1115.49 5.63519 3.27551 0
M  V30 11829 N 1118.92 0.422693 1.51826 0
M  V30 11830 C 1120.34 0.0742364 1.59427 0
M  V30 11831 C 1120.54 -1.41491 1.43466 0
M  V30 11832 O 1119.59 -2.18326 1.26846 0
M  V30 11833 C 1120.91 0.581272 2.95028 0
M  V30 11834 C 1122.45 0.54043 3.08299 0
M  V30 11835 C 1122.93 1.0242 4.46401 0
M  V30 11836 N 1124.42 0.981576 4.5268 0
M  V30 11837 C 1125.16 1.32693 5.57835 0
M  V30 11838 N 1124.65 1.74441 6.70479 0
M  V30 11839 N 1126.44 1.24603 5.48115 0
M  V30 11840 H 1118.6 1.39178 1.60447 0
M  V30 11841 H 1120.86 0.572607 0.75553 0
M  V30 11842 H 1120.56 1.62261 3.12032 0
M  V30 11843 H 1120.44 -0.00176969 3.772 0
M  V30 11844 H 1122.83 -0.491895 2.90971 0
M  V30 11845 H 1122.91 1.15969 2.28002 0
M  V30 11846 H 1122.55 2.05491 4.64474 0
M  V30 11847 H 1122.48 0.381613 5.25215 0
M  V30 11848 H 1124.97 0.674808 3.71826 0
M  V30 11849 H 1125.28 1.99068 7.46721 0
M  V30 11850 H 1123.63 1.78356 6.71725 0
M  V30 11851 H 1126.82 0.918641 4.58997 0
M  V30 11852 H 1126.99 1.51847 6.29958 0
M  V30 11853 N 1120.4 -1.5685 0.153553 0
M  V30 11854 C 1121.33 -2.12888 -0.821829 0
M  V30 11855 C 1122.31 -1.05418 -1.23798 0
M  V30 11856 O 1123.49 -1.33288 -1.33292 0
M  V30 11857 C 1120.62 -2.65394 -2.10438 0
M  V30 11858 C 1119.67 -3.85071 -1.83364 0
M  V30 11859 S 1120.5 -5.2572 -1.01877 0
M  V30 11860 C 1121.66 -5.81619 -2.31236 0
M  V30 11861 H 1121.89 -2.95288 -0.345314 0
M  V30 11862 H 1119.42 -1.5428 -0.0608377 0
M  V30 11863 H 1121.38 -2.96294 -2.84113 0
M  V30 11864 H 1120.04 -1.83112 -2.55204 0
M  V30 11865 H 1119.23 -4.20076 -2.78482 0
M  V30 11866 H 1118.84 -3.54965 -1.17794 0
M  V30 11867 H 1121.13 -5.9345 -3.26838 0
M  V30 11868 H 1122.07 -6.79054 -2.00727 0
M  V30 11869 H 1122.48 -5.09909 -2.42184 0
M  V30 11870 N 1121.88 0.120221 -1.57141 0
M  V30 11871 C 1123.15 0.858458 -1.75755 0
M  V30 11872 C 1123.53 1.98124 -0.728693 0
M  V30 11873 O 1122.88 2.27155 0.247573 0
M  V30 11874 C 1123.09 1.37627 -3.20718 0
M  V30 11875 C 1124.44 1.82909 -3.83183 0
M  V30 11876 O 1125.46 1.47309 -3.24312 0
M  V30 11877 O 1124.32 2.4865 -4.86657 0
M  V30 11878 H 1121.42 0.407583 -0.719587 0
M  V30 11879 H 1123.96 0.104057 -1.69381 0
M  V30 11880 H 1122.74 0.570651 -3.87117 0
M  V30 11881 H 1122.36 2.19341 -3.31625 0
M  V30 11882 N 1123.36 1.52689 0.390367 0
M  V30 11883 C 1124.58 1.71541 1.15678 0
M  V30 11884 C 1125 0.433171 1.83764 0
M  V30 11885 O 1124.36 -0.592248 1.72623 0
M  V30 11886 C 1124.41 2.864 2.20584 0
M  V30 11887 O 1124.13 4.0966 1.55274 0
M  V30 11888 C 1125.63 3.1692 3.09962 0
M  V30 11889 H 1122.85 0.574381 0.346883 0
M  V30 11890 H 1125.39 1.99332 0.456851 0
M  V30 11891 H 1123.55 2.61075 2.86214 0
M  V30 11892 H 1123.96 4.73802 2.2497 0
M  V30 11893 H 1125.44 4.00755 3.79604 0
M  V30 11894 H 1125.91 2.31245 3.73393 0
M  V30 11895 H 1126.52 3.4408 2.49979 0
M  V30 11896 N 1124.83 -0.648732 1.43629 0
M  V30 11897 C 1126.08 -1.40446 1.44768 0
M  V30 11898 C 1126.4 -1.95447 0.0773445 0
M  V30 11899 O 1127.6 -2.71479 -0.0337942 0
M  V30 11900 C 1126.06 -2.54194 2.54781 0
M  V30 11901 C 1125.67 -2.05781 3.97942 0
M  V30 11902 C 1127.41 -3.31529 2.65121 0
M  V30 11903 C 1125.32 -3.16767 4.99412 0
M  V30 11904 H 1124.25 -0.527717 0.538545 0
M  V30 11905 H 1126.9 -0.699756 1.69634 0
M  V30 11906 H 1125.28 -3.27156 2.23125 0
M  V30 11907 H 1126.45 -1.398 4.39081 0
M  V30 11908 H 1124.77 -1.41312 3.91688 0
M  V30 11909 H 1127.37 -4.14233 3.38105 0
M  V30 11910 H 1127.71 -3.79855 1.70341 0
M  V30 11911 H 1128.24 -2.65649 2.961 0
M  V30 11912 H 1124.98 -2.73404 5.9576 0
M  V30 11913 H 1124.5 -3.81445 4.62882 0
M  V30 11914 H 1126.18 -3.81827 5.22319 0
M  V30 11915 N 1126.31 -1.30234 -0.887518 0
M  V30 11916 C 1127.24 -1.12212 -1.99853 0
M  V30 11917 C 1128.26 -0.0660929 -1.62666 0
M  V30 11918 O 1129.45 -0.311853 -1.75755 0
M  V30 11919 C 1126.55 -0.688591 -3.31831 0
M  V30 11920 C 1125.72 -1.82581 -3.97471 0
M  V30 11921 C 1124.78 -1.38126 -5.07748 0
M  V30 11922 O 1123.8 -2.08805 -5.29518 0
M  V30 11923 N 1125.01 -0.258868 -5.79923 0
M  V30 11924 H 1127.77 -2.07901 -2.15864 0
M  V30 11925 H 1125.33 -1.22336 -1.06045 0
M  V30 11926 H 1127.32 -0.374252 -4.02966 0
M  V30 11927 H 1125.89 0.176185 -3.12103 0
M  V30 11928 H 1125.11 -2.3084 -3.19541 0
M  V30 11929 H 1126.4 -2.58798 -4.38065 0
M  V30 11930 H 1125.8 0.330131 -5.64736 0
M  V30 11931 H 1124.36 -0.00396813 -6.518 0
M  V30 11932 N 1127.79 1.09952 -1.12909 0
M  V30 11933 C 1128.7 2.19999 -0.81471 0
M  V30 11934 C 1129.72 1.72864 0.19851 0
M  V30 11935 O 1130.89 2.01376 0.0308832 0
M  V30 11936 C 1127.96 3.45573 -0.279363 0
M  V30 11937 C 1127.02 4.07417 -1.35314 0
M  V30 11938 C 1126.25 5.26996 -0.843247 0
M  V30 11939 O 1126.47 5.69495 0.321164 0
M  V30 11940 O 1125.41 5.79826 -1.61511 0
M  V30 11941 H 1129.23 2.49333 -1.73398 0
M  V30 11942 H 1126.82 1.18784 -0.906128 0
M  V30 11943 H 1128.7 4.21398 0.0140531 0
M  V30 11944 H 1127.38 3.17854 0.612401 0
M  V30 11945 H 1126.28 3.33253 -1.6998 0
M  V30 11946 H 1127.62 4.39349 -2.21885 0
M  V30 11947 N 1129.27 0.921757 1.27833 0
M  V30 11948 C 1130.55 0.477706 1.89677 0
M  V30 11949 C 1130.93 -1.04392 1.83481 0
M  V30 11950 O 1130.27 -1.89549 1.27606 0
M  V30 11951 C 1130.48 1.01709 3.33851 0
M  V30 11952 C 1131.83 1.074 4.10792 0
M  V30 11953 O 1132.86 0.966295 3.42843 0
M  V30 11954 O 1131.71 1.23909 5.32268 0
M  V30 11955 H 1128.81 0.15271 0.812778 0
M  V30 11956 H 1131.35 1.01306 1.36144 0
M  V30 11957 H 1130.13 2.061 3.32623 0
M  V30 11958 H 1129.75 0.463031 3.94895 0
M  V30 11959 N 1130.75 -1.41857 0.686609 0
M  V30 11960 C 1132.16 -1.84439 0.289662 0
M  V30 11961 C 1132.51 -1.57462 -1.17047 0
M  V30 11962 O 1131.63 -1.04046 -1.89745 0
M  V30 11963 C 1132.23 -3.34802 0.518948 0
M  V30 11964 C 1130.79 -3.75988 0.176007 0
M  V30 11965 C 1129.93 -2.65339 0.805632 0
M  V30 11966 H 1132.89 -1.31536 0.88792 0
M  V30 11967 H 1132.91 -3.79833 -0.225209 0
M  V30 11968 H 1132.42 -3.54405 1.58173 0
M  V30 11969 H 1130.52 -3.61989 -0.882865 0
M  V30 11970 H 1130.63 -4.75009 0.624772 0
M  V30 11971 H 1129 -2.53605 0.235966 0
M  V30 11972 H 1129.78 -2.87762 1.8721 0
M  V30 11973 N 1132.22 -0.430739 -1.51599 0
M  V30 11974 C 1133.45 0.139197 -2.06932 0
M  V30 11975 C 1133.87 1.3626 -1.29672 0
M  V30 11976 O 1133.23 1.78219 -0.332836 0
M  V30 11977 C 1133.28 0.446593 -3.57824 0
M  V30 11978 O 1132.38 1.53414 -3.82803 0
M  V30 11979 H 1131.73 0.00475812 -0.663983 0
M  V30 11980 H 1134.26 -0.610171 -1.9529 0
M  V30 11981 H 1134.27 0.698972 -4.01968 0
M  V30 11982 H 1132.94 -0.447613 -4.13484 0
M  V30 11983 H 1131.52 1.27224 -3.50526 0
M  V30 11984 N 1133.7 1.56767 -0.161869 0
M  V30 11985 C 1134.93 2.00964 0.492027 0
M  V30 11986 C 1135.35 1.04206 1.57437 0
M  V30 11987 O 1134.7 0.0413998 1.82453 0
M  V30 11988 C 1134.75 3.4502 1.07904 0
M  V30 11989 O 1134.47 4.38082 0.0399085 0
M  V30 11990 C 1135.98 4.04572 1.81209 0
M  V30 11991 H 1133.2 0.658911 0.126797 0
M  V30 11992 H 1135.74 2.0283 -0.260824 0
M  V30 11993 H 1133.89 3.43959 1.78243 0
M  V30 11994 H 1134.31 5.22372 0.471985 0
M  V30 11995 H 1135.78 5.07321 2.17554 0
M  V30 11996 H 1136.26 3.46126 2.70359 0
M  V30 11997 H 1136.87 4.09307 1.15534 0
M  V30 11998 N 1135.18 -0.111886 1.57202 0
M  V30 11999 C 1136.46 -0.849125 1.76208 0
M  V30 12000 C 1136.84 -1.97735 0.73919 0
M  V30 12001 O 1136.19 -2.27283 -0.235523 0
M  V30 12002 C 1136.4 -1.35924 3.21443 0
M  V30 12003 C 1137.74 -1.80874 3.84148 0
M  V30 12004 O 1138.77 -1.45587 3.25089 0
M  V30 12005 O 1137.63 -2.46065 4.87969 0
M  V30 12006 H 1134.72 -0.403761 0.721738 0
M  V30 12007 H 1137.27 -0.0950726 1.69433 0
M  V30 12008 H 1136.04 -0.550113 3.87414 0
M  V30 12009 H 1135.66 -2.17579 3.32784 0
M  V30 12010 N 1136.66 -1.52894 -0.382264 0
M  V30 12011 C 1137.88 -1.72453 -1.15216 0
M  V30 12012 C 1138.31 -0.444925 -1.82762 0
M  V30 12013 O 1137.67 0.599825 -1.7109 0
M  V30 12014 C 1137.71 -2.87939 -2.17079 0
M  V30 12015 O 1136.82 -2.55383 -3.23811 0
M  V30 12016 H 1136.16 -0.57324 -0.335099 0
M  V30 12017 H 1138.69 -1.99713 -0.444495 0
M  V30 12018 H 1138.7 -3.13628 -2.60963 0
M  V30 12019 H 1137.37 -3.80765 -1.67305 0
M  V30 12020 H 1135.95 -2.40457 -2.85018 0
M  V30 12021 N 1138.14 0.641106 -1.43971 0
M  V30 12022 C 1139.09 1.74699 -1.46507 0
M  V30 12023 C 1140.07 1.57437 -0.332037 0
M  V30 12024 O 1141.26 1.67343 -0.576663 0
M  V30 12025 C 1138.39 3.13344 -1.40252 0
M  V30 12026 C 1137.48 3.3611 -2.58632 0
M  V30 12027 N 1137.87 3.29291 -3.83929 0
M  V30 12028 C 1136.17 3.66873 -2.53615 0
M  V30 12029 C 1136.87 3.52472 -4.62751 0
M  V30 12030 N 1135.84 3.74868 -3.93668 0
M  V30 12031 H 1139.65 1.67869 -2.41241 0
M  V30 12032 H 1137.16 0.843217 -1.38793 0
M  V30 12033 H 1139.16 3.92636 -1.40153 0
M  V30 12034 H 1137.82 3.21346 -0.46549 0
M  V30 12035 H 1138.83 3.08431 -4.16041 0
M  V30 12036 H 1135.51 3.81917 -1.68659 0
M  V30 12037 H 1136.9 3.52876 -5.71776 0
M  V30 12038 N 1139.62 1.30703 0.880598 0
M  V30 12039 C 1140.55 1.11783 1.98947 0
M  V30 12040 C 1141.53 0.0242461 1.62582 0
M  V30 12041 O 1142.71 0.178641 1.87652 0
M  V30 12042 C 1139.84 0.705762 3.31265 0
M  V30 12043 C 1138.88 1.80084 3.86616 0
M  V30 12044 S 1139.72 3.40416 4.13373 0
M  V30 12045 C 1140.87 3.01122 5.48704 0
M  V30 12046 H 1141.11 2.05658 2.14691 0
M  V30 12047 H 1138.64 1.15067 1.02951 0
M  V30 12048 H 1140.6 0.474754 4.07745 0
M  V30 12049 H 1139.26 -0.213699 3.13372 0
M  V30 12050 H 1138.45 1.4649 4.82241 0
M  V30 12051 H 1138.05 1.98636 3.16891 0
M  V30 12052 H 1140.34 2.49355 6.29943 0
M  V30 12053 H 1141.29 3.95671 5.87239 0
M  V30 12054 H 1141.7 2.38865 5.11472 0
M  V30 12055 N 1141.09 -1.09351 1.1349 0
M  V30 12056 C 1142.37 -1.78121 0.808225 0
M  V30 12057 C 1142.75 -1.99154 -0.700072 0
M  V30 12058 O 1142.1 -1.59356 -1.63762 0
M  V30 12059 C 1142.31 -3.10368 1.59601 0
M  V30 12060 C 1143.66 -3.85063 1.78919 0
M  V30 12061 O 1144.68 -3.20122 1.56206 0
M  V30 12062 O 1143.54 -5.01648 2.16821 0
M  V30 12063 H 1140.63 -0.77253 0.295173 0
M  V30 12064 H 1143.18 -1.15901 1.23956 0
M  V30 12065 H 1141.95 -2.90549 2.62101 0
M  V30 12066 H 1141.57 -3.80312 1.15967 0
M  V30 12067 N 1142.57 -0.928524 -1.27343 0
M  V30 12068 C 1143.48 -0.433901 -2.30553 0
M  V30 12069 C 1144.5 0.485832 -1.6708 0
M  V30 12070 O 1145.67 0.36844 -1.98001 0
M  V30 12071 C 1142.74 0.304617 -3.45359 0
M  V30 12072 C 1141.8 -0.650131 -4.24349 0
M  V30 12073 C 1141.03 0.0532372 -5.33673 0
M  V30 12074 O 1141.26 1.27246 -5.56026 0
M  V30 12075 O 1140.19 -0.619009 -5.98709 0
M  V30 12076 H 1144.02 -1.2909 -2.74899 0
M  V30 12077 H 1141.6 -0.693903 -1.32308 0
M  V30 12078 H 1143.48 0.721137 -4.15184 0
M  V30 12079 H 1142.16 1.13721 -3.03066 0
M  V30 12080 H 1141.06 -1.11635 -3.57055 0
M  V30 12081 H 1142.4 -1.44996 -4.70358 0
M  V30 12082 N 1144.05 1.41491 -0.694123 0
M  V30 12083 C 1145.33 1.95004 -0.152571 0
M  V30 12084 C 1145.71 1.63357 1.33707 0
M  V30 12085 O 1145.05 0.939815 2.08278 0
M  V30 12086 C 1145.26 3.46186 -0.44232 0
M  V30 12087 C 1146.61 4.22991 -0.369279 0
M  V30 12088 O 1147.64 3.54198 -0.377152 0
M  V30 12089 O 1146.5 5.45514 -0.328145 0
M  V30 12090 H 1143.59 0.826879 -0.0141253 0
M  V30 12091 H 1146.14 1.51216 -0.770183 0
M  V30 12092 H 1144.91 3.62497 -1.47348 0
M  V30 12093 H 1144.53 3.97064 0.206337 0
M  V30 12094 N 1145.53 0.438773 1.51369 0
M  V30 12095 C 1146.78 -0.126962 2.01701 0
M  V30 12096 C 1147.1 -1.43086 1.32481 0
M  V30 12097 O 1146.37 -1.90427 0.459823 0
M  V30 12098 H 1144.95 -0.0499092 0.745331 0
M  V30 12099 H 1147.61 0.581808 1.86013 0
M  V30 12100 H 1146.7 -0.301836 3.10637 0
M  V30 12101 N 1147.01 -1.56678 0.170181 0
M  V30 12102 C 1148.25 -1.96849 -0.475064 0
M  V30 12103 C 1148.58 -1.05611 -1.6333 0
M  V30 12104 O 1147.84 -0.0899708 -1.95493 0
M  V30 12105 C 1148.13 -3.43103 -1.00076 0
M  V30 12106 C 1147.8 -4.50881 0.0414538 0
M  V30 12107 C 1146.46 -4.80082 0.327894 0
M  V30 12108 C 1148.81 -5.15791 0.748936 0
M  V30 12109 C 1146.14 -5.71491 1.32722 0
M  V30 12110 C 1148.49 -6.08278 1.73724 0
M  V30 12111 C 1147.16 -6.35847 2.03114 0
M  V30 12112 H 1146.43 -0.72032 -0.173838 0
M  V30 12113 H 1149.08 -1.89701 0.261903 0
M  V30 12114 H 1147.38 -3.47197 -1.81553 0
M  V30 12115 H 1149.08 -3.71525 -1.50899 0
M  V30 12116 H 1145.67 -4.2817 -0.191976 0
M  V30 12117 H 1149.85 -4.93344 0.540852 0
M  V30 12118 H 1145.11 -5.91134 1.56112 0
M  V30 12119 H 1149.28 -6.57643 2.29082 0
M  V30 12120 H 1146.91 -7.06479 2.80698 0
M  V30 12121 N 1148.48 0.103547 -1.57259 0
M  V30 12122 C 1149.39 1.14475 -2.04774 0
M  V30 12123 C 1150.41 1.44385 -0.971025 0
M  V30 12124 O 1151.59 1.55195 -1.28361 0
M  V30 12125 C 1148.65 2.4475 -2.45558 0
M  V30 12126 C 1147.71 2.22098 -3.67384 0
M  V30 12127 C 1146.94 3.4616 -4.06213 0
M  V30 12128 O 1147.17 4.5407 -3.45219 0
M  V30 12129 O 1146.1 3.36248 -4.9922 0
M  V30 12130 H 1149.93 0.771211 -2.93745 0
M  V30 12131 H 1147.51 0.315456 -1.46032 0
M  V30 12132 H 1149.39 3.21476 -2.72454 0
M  V30 12133 H 1148.07 2.81547 -1.59728 0
M  V30 12134 H 1146.98 1.43179 -3.45616 0
M  V30 12135 H 1148.31 1.90197 -4.53967 0
M  V30 12136 N 1149.96 1.53094 0.37415 0
M  V30 12137 C 1150.91 1.78927 1.45787 0
M  V30 12138 C 1151.88 0.633187 1.53558 0
M  V30 12139 O 1153.06 0.874472 1.69581 0
M  V30 12140 C 1150.2 1.97726 2.8284 0
M  V30 12141 C 1149.32 3.25436 2.84104 0
M  V30 12142 C 1148.45 3.3447 4.12678 0
M  V30 12143 C 1147.49 4.56246 4.08051 0
M  V30 12144 N 1146.63 4.6248 5.28258 0
M  V30 12145 H 1151.47 2.71404 1.2306 0
M  V30 12146 H 1149 1.34453 0.596716 0
M  V30 12147 H 1150.96 2.06611 3.62447 0
M  V30 12148 H 1149.59 1.08593 3.03986 0
M  V30 12149 H 1148.64 3.25548 1.96781 0
M  V30 12150 H 1149.96 4.15112 2.76556 0
M  V30 12151 H 1149.11 3.4262 5.00696 0
M  V30 12152 H 1147.85 2.42795 4.22968 0
M  V30 12153 H 1146.85 4.48206 3.1842 0
M  V30 12154 H 1148.08 5.49254 3.99371 0
M  V30 12155 H 1146.03 3.73703 5.3915 0
M  V30 12156 H 1145.94 5.46049 5.22845 0
M  V30 12157 H 1147.21 4.74903 6.18132 0
M  V30 12158 N 1151.44 -0.633461 1.44309 0
M  V30 12159 C 1152.72 -1.3917 1.37444 0
M  V30 12160 C 1153.1 -2.11076 0.0319994 0
M  V30 12161 O 1152.44 -2.06164 -0.98533 0
M  V30 12162 C 1152.65 -2.36005 2.57104 0
M  V30 12163 C 1154 -2.99407 3.01065 0
M  V30 12164 O 1155.03 -2.46331 2.57292 0
M  V30 12165 O 1153.89 -3.95686 3.76954 0
M  V30 12166 H 1150.98 -0.622746 0.544166 0
M  V30 12167 H 1153.53 -0.658712 1.56394 0
M  V30 12168 H 1152.3 -1.81955 3.46422 0
M  V30 12169 H 1151.92 -3.16725 2.40356 0
M  V30 12170 N 1152.92 -1.31168 -0.873655 0
M  V30 12171 C 1154.33 -1.18584 -1.44203 0
M  V30 12172 C 1154.68 0.209114 -1.95082 0
M  V30 12173 O 1153.81 1.10662 -1.85965 0
M  V30 12174 C 1154.4 -2.14668 -2.62112 0
M  V30 12175 C 1152.96 -2.06029 -3.15006 0
M  V30 12176 C 1152.11 -2.04106 -1.87712 0
M  V30 12177 H 1155.06 -1.43273 -0.682536 0
M  V30 12178 H 1155.08 -1.73413 -3.38686 0
M  V30 12179 H 1154.59 -3.16186 -2.25051 0
M  V30 12180 H 1152.69 -1.07693 -3.56697 0
M  V30 12181 H 1152.8 -2.9496 -3.77539 0
M  V30 12182 H 1151.17 -1.49069 -2.0652 0
M  V30 12183 H 1151.95 -3.07373 -1.52894 0
M  V30 12184 N 1154.4 1.08748 -1.14068 0
M  V30 12185 C 1155.64 1.81065 -0.906738 0
M  V30 12186 C 1155.97 1.86057 0.566844 0
M  V30 12187 O 1155.23 1.32976 1.43582 0
M  V30 12188 C 1155.53 3.26734 -1.44843 0
M  V30 12189 C 1155.19 3.41866 -2.94005 0
M  V30 12190 C 1153.85 3.45703 -3.34729 0
M  V30 12191 C 1156.21 3.45831 -3.89937 0
M  V30 12192 C 1153.53 3.51092 -4.70055 0
M  V30 12193 C 1155.89 3.52755 -5.25116 0
M  V30 12194 C 1154.55 3.54863 -5.65357 0
M  V30 12195 H 1153.82 0.662564 -0.331799 0
M  V30 12196 H 1156.47 1.28065 -1.42378 0
M  V30 12197 H 1154.77 3.82419 -0.852239 0
M  V30 12198 H 1156.47 3.81236 -1.2434 0
M  V30 12199 H 1153.06 3.39568 -2.61518 0
M  V30 12200 H 1157.24 3.421 -3.59557 0
M  V30 12201 H 1152.5 3.51015 -5.00598 0
M  V30 12202 H 1156.67 3.54768 -5.9926 0
M  V30 12203 H 1154.3 3.58792 -6.70203 0
M  V30 12204 N 1155.87 0.935264 1.26849 0
M  V30 12205 C 1157.29 0.623198 1.75992 0
M  V30 12206 C 1157.64 -0.861647 1.76267 0
M  V30 12207 O 1156.76 -1.6743 1.37099 0
M  V30 12208 C 1157.36 1.12451 3.19594 0
M  V30 12209 C 1155.92 0.862974 3.66374 0
M  V30 12210 C 1155.06 1.27886 2.4605 0
M  V30 12211 H 1158.01 1.11422 1.13008 0
M  V30 12212 H 1158.03 0.475626 3.77516 0
M  V30 12213 H 1157.55 2.20522 3.19361 0
M  V30 12214 H 1155.65 -0.203606 3.72043 0
M  V30 12215 H 1155.76 1.48582 4.55478 0
M  V30 12216 H 1154.12 0.697335 2.44968 0
M  V30 12217 H 1154.91 2.36837 2.48522 0
M  V30 12218 N 1157.35 -1.41121 0.701616 0
M  V30 12219 C 1158.3 -2.32582 0.0288052 0
M  V30 12220 C 1159.29 -1.5129 -0.762074 0
M  V30 12221 O 1160.5 -1.67185 -0.667014 0
M  V30 12222 H 1156.88 -0.75194 -0.00948675 0
M  V30 12223 H 1158.85 -2.86994 0.817141 0
M  V30 12224 C 1157.6 -3.36137 -0.889217 0
M  V30 12225 H 1156.92 -3.98746 -0.290062 0
M  V30 12226 H 1158.36 -4.0266 -1.32819 0
M  V30 12227 C 1156.82 -2.70504 -2.00821 0
M  V30 12228 O 1157.35 -2.55753 -3.09763 0
M  V30 12229 N 1155.55 -2.29105 -1.78772 0
M  V30 12230 H 1155.1 -2.41303 -0.901708 0
M  V30 12231 H 1155.06 -1.85527 -2.53825 0
M  V30 12232 N 1158.83 -0.446794 -1.51134 0
M  V30 12233 C 1160.06 0.117242 -2.07068 0
M  V30 12234 C 1160.48 1.34877 -1.3111 0
M  V30 12235 O 1159.84 1.77856 -0.35172 0
M  V30 12236 C 1159.89 0.408616 -3.58277 0
M  V30 12237 O 1158.99 1.49345 -3.84408 0
M  V30 12238 H 1158.33 -0.00228458 -0.663996 0
M  V30 12239 H 1160.86 -0.63085 -1.94632 0
M  V30 12240 H 1160.87 0.656298 -4.02687 0
M  V30 12241 H 1159.55 -0.491444 -4.12986 0
M  V30 12242 H 1158.12 1.23499 -3.51856 0
M  V30 12243 N 1160.31 1.56586 -0.178487 0
M  V30 12244 C 1161.53 2.01915 0.473841 0
M  V30 12245 C 1161.96 1.05789 1.55533 0
M  V30 12246 O 1161.32 0.0386018 1.81259 0
M  V30 12247 C 1161.36 3.45799 1.02251 0
M  V30 12248 O 1160.47 3.52761 2.1362 0
M  V30 12249 H 1159.81 0.654372 0.112666 0
M  V30 12250 H 1162.34 2.02613 -0.284486 0
M  V30 12251 H 1162.35 3.85252 1.34332 0
M  V30 12252 H 1161.02 4.1526 0.230719 0
M  V30 12253 H 1159.6 3.25172 1.8253 0
M  V30 12254 N 1161.79 -0.095206 1.57312 0
M  V30 12255 C 1163.01 -0.81227 1.90289 0
M  V30 12256 C 1163.43 -1.72287 0.772178 0
M  V30 12257 O 1162.79 -1.80698 -0.255841 0
M  V30 12258 C 1162.84 -1.62572 3.22882 0
M  V30 12259 O 1162.56 -0.75175 4.31602 0
M  V30 12260 C 1164.06 -2.44585 3.6972 0
M  V30 12261 H 1161.28 -0.232256 0.629522 0
M  V30 12262 H 1163.82 -0.0724733 2.04372 0
M  V30 12263 H 1161.98 -2.31803 3.10397 0
M  V30 12264 H 1162.39 -1.31514 5.07744 0
M  V30 12265 H 1163.87 -2.97155 4.65191 0
M  V30 12266 H 1164.34 -3.23044 2.97555 0
M  V30 12267 H 1164.95 -1.80554 3.85072 0
M  V30 12268 N 1163.26 -1.53291 -0.366026 0
M  V30 12269 C 1164.23 -1.79025 -1.43117 0
M  V30 12270 C 1165.23 -0.660676 -1.46601 0
M  V30 12271 O 1166.42 -0.928875 -1.47369 0
M  V30 12272 C 1163.55 -1.91192 -2.82238 0
M  V30 12273 H 1164.74 -2.74154 -1.21572 0
M  V30 12274 H 1162.3 -1.44361 -0.599132 0
M  V30 12275 H 1163.03 -0.98129 -3.09097 0
M  V30 12276 H 1162.82 -2.7335 -2.81109 0
M  V30 12277 H 1164.31 -2.12696 -3.59375 0
M  V30 12278 N 1164.74 0.6258 -1.44643 0
M  V30 12279 C 1165.71 1.71941 -1.51555 0
M  V30 12280 C 1166.71 1.55822 -0.396988 0
M  V30 12281 O 1167.9 1.61221 -0.65981 0
M  V30 12282 C 1165.03 3.11068 -1.39461 0
M  V30 12283 H 1166.22 1.67185 -2.48976 0
M  V30 12284 H 1163.77 0.839934 -1.31814 0
M  V30 12285 H 1164.51 3.21416 -0.431534 0
M  V30 12286 H 1164.29 3.24175 -2.20574 0
M  V30 12287 H 1165.78 3.90762 -1.4729 0
M  V30 12288 N 1166.22 1.31629 0.866686 0
M  V30 12289 C 1167.17 1.19556 1.97421 0
M  V30 12290 C 1168.14 0.0805578 1.65905 0
M  V30 12291 O 1169.32 0.253997 1.89102 0
M  V30 12292 C 1166.46 0.912234 3.32825 0
M  V30 12293 C 1165.58 2.11088 3.76916 0
M  V30 12294 C 1164.71 1.76406 5.01053 0
M  V30 12295 C 1163.75 2.9266 5.37602 0
M  V30 12296 N 1162.89 2.58152 6.52918 0
M  V30 12297 H 1167.73 2.14294 2.0708 0
M  V30 12298 H 1165.26 1.06595 1.0137 0
M  V30 12299 H 1167.22 0.72851 4.1079 0
M  V30 12300 H 1165.85 0.00167404 3.228 0
M  V30 12301 H 1164.9 2.40527 2.94705 0
M  V30 12302 H 1166.22 2.98089 3.99931 0
M  V30 12303 H 1165.37 1.54515 5.86694 0
M  V30 12304 H 1164.11 0.866018 4.79949 0
M  V30 12305 H 1163.11 3.15196 4.50479 0
M  V30 12306 H 1164.34 3.83179 5.6067 0
M  V30 12307 H 1162.28 1.70874 6.33355 0
M  V30 12308 H 1162.2 3.38682 6.75892 0
M  V30 12309 H 1163.47 2.39662 7.41743 0
M  V30 12310 N 1167.7 -1.08142 1.14644 0
M  V30 12311 C 1168.92 -1.84857 0.940349 0
M  V30 12312 C 1169.35 -1.81163 -0.506117 0
M  V30 12313 O 1168.71 -1.19869 -1.36019 0
M  V30 12314 C 1168.76 -3.30198 1.4492 0
M  V30 12315 O 1167.86 -4.07355 0.64308 0
M  V30 12316 H 1167.2 -0.572711 0.336003 0
M  V30 12317 H 1169.73 -1.36475 1.52432 0
M  V30 12318 H 1169.74 -3.81039 1.45854 0
M  V30 12319 H 1168.42 -3.32202 2.50229 0
M  V30 12320 H 1166.99 -3.66219 0.702698 0
M  V30 12321 N 1169.18 -0.941978 -1.26351 0
M  V30 12322 C 1170.42 -0.589971 -1.93715 0
M  V30 12323 C 1170.75 0.871085 -1.73903 0
M  V30 12324 O 1170.01 1.63864 -1.06991 0
M  V30 12325 C 1170.31 -0.879481 -3.4641 0
M  V30 12326 C 1169.97 -2.32454 -3.86362 0
M  V30 12327 C 1168.63 -2.71957 -3.9698 0
M  V30 12328 C 1170.99 -3.2636 -4.06373 0
M  V30 12329 C 1168.31 -4.04459 -4.25006 0
M  V30 12330 C 1170.67 -4.58459 -4.35887 0
M  V30 12331 C 1169.33 -4.97775 -4.4472 0
M  V30 12332 H 1168.6 -0.215886 -0.708854 0
M  V30 12333 H 1171.25 -1.18863 -1.50146 0
M  V30 12334 H 1169.55 -0.198289 -3.91298 0
M  V30 12335 H 1171.25 -0.585887 -3.96697 0
M  V30 12336 H 1167.84 -2.00814 -3.78645 0
M  V30 12337 H 1172.02 -2.97037 -3.97596 0
M  V30 12338 H 1167.28 -4.34582 -4.30057 0
M  V30 12339 H 1171.45 -5.31213 -4.50317 0
M  V30 12340 H 1169.08 -6.00475 -4.66191 0
M  V30 12341 N 1170.66 1.40747 -0.709091 0
M  V30 12342 C 1171.57 2.3454 -0.0532205 0
M  V30 12343 C 1172.58 1.56956 0.751057 0
M  V30 12344 O 1173.76 1.89375 0.685509 0
M  V30 12345 C 1170.82 3.35809 0.862157 0
M  V30 12346 C 1169.88 4.29273 0.0485632 0
M  V30 12347 C 1169.12 5.25705 0.920345 0
M  V30 12348 O 1169.34 5.27933 2.15969 0
M  V30 12349 O 1168.27 6.00806 0.3628 0
M  V30 12350 H 1172.1 2.92232 -0.826698 0
M  V30 12351 H 1169.68 1.4183 -0.469519 0
M  V30 12352 H 1171.57 3.97931 1.38668 0
M  V30 12353 H 1170.24 2.8054 1.61489 0
M  V30 12354 H 1169.15 3.70456 -0.520873 0
M  V30 12355 H 1170.48 4.87676 -0.665807 0
M  V30 12356 N 1172.13 0.454803 1.50895 0
M  V30 12357 C 1173.41 -0.166559 1.9489 0
M  V30 12358 C 1173.79 -1.58492 1.3944 0
M  V30 12359 O 1173.14 -2.20788 0.588622 0
M  V30 12360 C 1173.35 -0.126506 3.48771 0
M  V30 12361 C 1174.7 -0.32347 4.23366 0
M  V30 12362 O 1175.72 -0.203835 3.55616 0
M  V30 12363 O 1174.58 -0.563292 5.43589 0
M  V30 12364 H 1171.67 -0.120523 0.818171 0
M  V30 12365 H 1174.22 0.514037 1.61727 0
M  V30 12366 H 1172.99 0.864407 3.81633 0
M  V30 12367 H 1172.61 -0.849264 3.88424 0
M  V30 12368 N 1173.61 -1.56489 0.186789 0
M  V30 12369 C 1174.54 -2.21705 -0.732739 0
M  V30 12370 C 1175.52 -1.17751 -1.22755 0
M  V30 12371 O 1176.71 -1.46231 -1.27789 0
M  V30 12372 C 1173.84 -2.86992 -1.95584 0
M  V30 12373 C 1172.79 -3.97118 -1.59628 0
M  V30 12374 C 1172.12 -4.49529 -2.89531 0
M  V30 12375 C 1173.42 -5.15941 -0.812518 0
M  V30 12376 H 1175.11 -2.98802 -0.189094 0
M  V30 12377 H 1172.66 -1.43722 -0.0895099 0
M  V30 12378 H 1174.61 -3.31295 -2.60426 0
M  V30 12379 H 1173.33 -2.07287 -2.52388 0
M  V30 12380 H 1171.99 -3.53494 -0.971475 0
M  V30 12381 H 1171.64 -3.66596 -3.44407 0
M  V30 12382 H 1171.34 -5.23832 -2.66221 0
M  V30 12383 H 1172.87 -4.96528 -3.55376 0
M  V30 12384 H 1174.28 -5.56841 -1.36386 0
M  V30 12385 H 1172.68 -5.96259 -0.677862 0
M  V30 12386 H 1173.75 -4.84535 0.188095 0
M  V30 12387 N 1175.09 0.086862 -1.5736 0
M  V30 12388 C 1176.32 0.802167 -1.90717 0
M  V30 12389 C 1176.73 1.71875 -0.781304 0
M  V30 12390 O 1176.09 1.80831 0.246255 0
M  V30 12391 C 1176.14 1.60858 -3.23739 0
M  V30 12392 O 1175.86 0.728851 -4.31995 0
M  V30 12393 C 1177.36 2.42621 -3.71012 0
M  V30 12394 H 1174.58 0.228914 -0.630745 0
M  V30 12395 H 1177.13 0.061634 -2.04407 0
M  V30 12396 H 1175.28 2.30153 -3.11622 0
M  V30 12397 H 1175.7 1.2882 -5.08435 0
M  V30 12398 H 1177.17 2.94683 -4.66761 0
M  V30 12399 H 1177.65 3.21462 -2.99264 0
M  V30 12400 H 1178.25 1.78509 -3.86024 0
M  V30 12401 N 1176.57 1.53483 0.357892 0
M  V30 12402 C 1177.84 1.60649 1.11585 0
M  V30 12403 C 1178.22 0.418789 2.06904 0
M  V30 12404 O 1177.57 -0.590279 2.20744 0
M  V30 12405 C 1177.78 2.96046 1.84818 0
M  V30 12406 C 1179.13 3.50895 2.39076 0
M  V30 12407 O 1180.15 2.98126 1.94934 0
M  V30 12408 O 1179.01 4.43163 3.19794 0
M  V30 12409 H 1176.11 0.649202 0.512315 0
M  V30 12410 H 1178.65 1.65826 0.360537 0
M  V30 12411 H 1177.43 3.73929 1.15296 0
M  V30 12412 H 1177.05 2.94395 2.6724 0
M  V30 12413 N 1178.05 -0.61812 1.44973 0
M  V30 12414 C 1179 -1.72346 1.49268 0
M  V30 12415 C 1179.98 -1.56889 0.357042 0
M  V30 12416 O 1181.17 -1.66404 0.603212 0
M  V30 12417 C 1178.3 -3.11073 1.4522 0
M  V30 12418 C 1177.39 -3.31953 2.63947 0
M  V30 12419 N 1177.78 -3.23141 3.89119 0
M  V30 12420 C 1176.08 -3.62791 2.59419 0
M  V30 12421 C 1176.78 -3.45066 4.683 0
M  V30 12422 N 1175.75 -3.68558 3.99582 0
M  V30 12423 H 1179.55 -1.6401 2.43881 0
M  V30 12424 H 1177.07 -0.821029 1.40117 0
M  V30 12425 H 1179.07 -3.90356 1.46381 0
M  V30 12426 H 1177.73 -3.20565 0.516555 0
M  V30 12427 H 1178.74 -3.01773 4.20896 0
M  V30 12428 H 1175.41 -3.79185 1.74713 0
M  V30 12429 H 1176.8 -3.43735 5.77318 0
M  V30 12430 N 1179.52 -1.32087 -0.859693 0
M  V30 12431 C 1180.93 -1.20107 -1.42938 0
M  V30 12432 C 1181.29 0.188411 -1.95293 0
M  V30 12433 O 1180.41 1.08683 -1.87128 0
M  V30 12434 C 1181.01 -2.17436 -2.59821 0
M  V30 12435 C 1179.56 -2.09359 -3.12803 0
M  V30 12436 C 1178.71 -2.06086 -1.85537 0
M  V30 12437 H 1181.66 -1.43989 -0.667302 0
M  V30 12438 H 1181.68 -1.76996 -3.36828 0
M  V30 12439 H 1181.2 -3.18555 -2.21685 0
M  V30 12440 H 1179.3 -1.1147 -3.55535 0
M  V30 12441 H 1179.41 -2.98947 -3.74389 0
M  V30 12442 H 1177.77 -1.51251 -2.04928 0
M  V30 12443 H 1178.56 -3.08978 -1.49625 0
M  V30 12444 N 1181 1.07532 -1.15215 0
M  V30 12445 C 1182.25 1.8036 -0.927263 0
M  V30 12446 C 1182.58 1.86414 0.544371 0
M  V30 12447 O 1181.86 1.34653 1.40353 0
M  V30 12448 C 1182.14 3.25512 -1.53992 0
M  V30 12449 C 1181.99 3.27614 -3.08203 0
M  V30 12450 C 1183.31 4.22731 -1.22418 0
M  V30 12451 H 1180.43 0.654775 -0.338289 0
M  V30 12452 H 1183.07 1.25842 -1.42351 0
M  V30 12453 H 1181.22 3.72068 -1.11791 0
M  V30 12454 H 1182.89 2.89315 -3.59297 0
M  V30 12455 H 1181.14 2.66627 -3.42188 0
M  V30 12456 H 1181.81 4.29956 -3.46182 0
M  V30 12457 H 1184.28 3.84557 -1.58919 0
M  V30 12458 H 1183.16 5.22589 -1.67906 0
M  V30 12459 H 1183.42 4.41875 -0.14091 0
M  V30 12460 N 1182.48 0.948665 1.2585 0
M  V30 12461 C 1183.71 0.617229 1.97479 0
M  V30 12462 C 1184.12 -0.809406 1.7057 0
M  V30 12463 O 1183.48 -1.54066 0.97826 0
M  V30 12464 C 1183.53 0.859065 3.51144 0
M  V30 12465 O 1183.25 2.2296 3.77121 0
M  V30 12466 C 1184.75 0.539197 4.40009 0
M  V30 12467 H 1181.97 0.231933 0.629641 0
M  V30 12468 H 1184.52 1.27141 1.60173 0
M  V30 12469 H 1182.67 0.25138 3.86584 0
M  V30 12470 H 1183.09 2.29524 4.71613 0
M  V30 12471 H 1184.56 0.758986 5.46757 0
M  V30 12472 H 1185.04 -0.526062 4.36038 0
M  V30 12473 H 1185.64 1.12594 4.10125 0
M  V30 12474 N 1183.96 -1.40369 0.716545 0
M  V30 12475 C 1185.37 -1.54757 0.390202 0
M  V30 12476 C 1185.57 -1.68767 -1.10091 0
M  V30 12477 O 1184.63 -1.67779 -1.88697 0
M  V30 12478 C 1185.94 -2.77546 1.15709 0
M  V30 12479 C 1187.49 -2.91364 1.14349 0
M  V30 12480 C 1187.97 -4.17068 1.89256 0
M  V30 12481 N 1189.46 -4.2407 1.8633 0
M  V30 12482 C 1190.19 -5.20243 2.41112 0
M  V30 12483 N 1189.69 -6.22318 3.04454 0
M  V30 12484 N 1191.48 -5.12328 2.31249 0
M  V30 12485 H 1183.63 -1.29521 1.68339 0
M  V30 12486 H 1185.9 -0.626382 0.711582 0
M  V30 12487 H 1185.6 -2.73474 2.21144 0
M  V30 12488 H 1185.48 -3.69682 0.749347 0
M  V30 12489 H 1187.86 -2.94939 0.0973383 0
M  V30 12490 H 1187.94 -2.00344 1.59047 0
M  V30 12491 H 1187.59 -4.14255 2.93863 0
M  V30 12492 H 1187.52 -5.07099 1.41978 0
M  V30 12493 H 1190.01 -3.50944 1.40168 0
M  V30 12494 H 1190.32 -6.92129 3.43769 0
M  V30 12495 H 1188.67 -6.22759 3.08538 0
M  V30 12496 H 1191.86 -4.31514 1.8142 0
M  V30 12497 H 1192.03 -5.87107 2.74243 0
M  V30 12498 N 1185.44 -0.462799 -1.50652 0
M  V30 12499 C 1186.66 0.0952726 -2.07181 0
M  V30 12500 C 1187.09 1.33479 -1.32533 0
M  V30 12501 O 1186.44 1.77473 -0.370564 0
M  V30 12502 C 1186.49 0.370592 -3.58691 0
M  V30 12503 O 1185.6 1.4526 -3.85971 0
M  V30 12504 H 1184.94 -0.00932702 -0.663934 0
M  V30 12505 H 1187.47 -0.651458 -1.93951 0
M  V30 12506 H 1187.48 0.613551 -4.0336 0
M  V30 12507 H 1186.15 -0.535219 -4.12442 0
M  V30 12508 H 1184.73 1.1976 -3.53146 0
M  V30 12509 N 1186.91 1.56388 -0.195085 0
M  V30 12510 C 1187.82 2.22698 0.737743 0
M  V30 12511 C 1188.84 1.22605 1.23466 0
M  V30 12512 O 1190.02 1.55342 1.28183 0
M  V30 12513 C 1187.08 2.87333 1.94011 0
M  V30 12514 C 1186.14 4.02696 1.48776 0
M  V30 12515 C 1185.38 4.64239 2.63282 0
M  V30 12516 O 1185.6 4.24706 3.80763 0
M  V30 12517 O 1184.53 5.53705 2.35996 0
M  V30 12518 H 1188.36 3.03021 0.203013 0
M  V30 12519 H 1185.94 1.49361 0.0342044 0
M  V30 12520 H 1187.83 3.28226 2.64284 0
M  V30 12521 H 1186.5 2.0999 2.46345 0
M  V30 12522 H 1185.41 3.66426 0.753839 0
M  V30 12523 H 1186.74 4.81703 1.01109 0
M  V30 12524 N 1188.39 -0.0785156 1.57404 0
M  V30 12525 C 1189.34 -1.09402 2.03224 0
M  V30 12526 C 1190.31 -1.38849 0.911596 0
M  V30 12527 O 1191.49 -1.50031 1.17878 0
M  V30 12528 C 1188.63 -2.40444 2.47549 0
M  V30 12529 C 1187.75 -2.17585 3.73203 0
M  V30 12530 C 1186.88 -3.42143 4.06339 0
M  V30 12531 C 1185.92 -3.14619 5.25054 0
M  V30 12532 N 1185.06 -4.31489 5.5386 0
M  V30 12533 H 1189.9 -0.696307 2.89751 0
M  V30 12534 H 1187.44 -0.332261 1.43298 0
M  V30 12535 H 1189.39 -3.16944 2.71298 0
M  V30 12536 H 1188.02 -2.78031 1.64009 0
M  V30 12537 H 1187.08 -1.3181 3.56834 0
M  V30 12538 H 1188.39 -1.93249 4.59844 0
M  V30 12539 H 1187.54 -4.27042 4.30953 0
M  V30 12540 H 1186.28 -3.69549 3.18253 0
M  V30 12541 H 1185.29 -2.28116 5.00243 0
M  V30 12542 H 1186.51 -2.88543 6.14752 0
M  V30 12543 H 1184.46 -4.58939 4.68734 0
M  V30 12544 H 1184.37 -4.10403 6.34906 0
M  V30 12545 H 1185.64 -5.17404 5.83021 0
M  V30 12546 N 1189.87 -1.5367 -0.349747 0
M  V30 12547 C 1190.83 -1.80533 -1.41211 0
M  V30 12548 C 1191.83 -0.676188 -1.45892 0
M  V30 12549 O 1193.02 -0.944453 -1.46375 0
M  V30 12550 C 1190.16 -1.94175 -2.80195 0
M  V30 12551 H 1191.35 -2.75428 -1.18658 0
M  V30 12552 H 1188.9 -1.44988 -0.583787 0
M  V30 12553 H 1189.64 -1.01402 -3.08039 0
M  V30 12554 H 1189.42 -2.76316 -2.78194 0
M  V30 12555 H 1190.91 -2.16496 -3.57098 0
M  V30 12556 N 1191.35 0.610423 -1.45298 0
M  V30 12557 C 1192.31 1.70324 -1.5337 0
M  V30 12558 C 1193.31 1.55393 -0.413492 0
M  V30 12559 O 1194.5 1.60512 -0.676872 0
M  V30 12560 C 1191.63 3.09572 -1.42752 0
M  V30 12561 H 1192.83 1.64535 -2.50736 0
M  V30 12562 H 1190.38 0.825906 -1.32697 0
M  V30 12563 H 1191.11 3.2094 -0.465601 0
M  V30 12564 H 1190.9 3.21817 -2.24 0
M  V30 12565 H 1192.39 3.89178 -1.51427 0
M  V30 12566 N 1192.83 1.32541 0.852676 0
M  V30 12567 C 1194.05 1.2636 1.64462 0
M  V30 12568 C 1194.48 -0.16508 1.87374 0
M  V30 12569 O 1193.83 -1.11712 1.42794 0
M  V30 12570 C 1193.88 2.03052 2.97997 0
M  V30 12571 O 1192.99 1.37967 3.88637 0
M  V30 12572 H 1192.33 0.435393 0.501327 0
M  V30 12573 H 1194.86 1.74888 1.06186 0
M  V30 12574 H 1194.87 2.133 3.47803 0
M  V30 12575 H 1193.54 3.06941 2.80642 0
M  V30 12576 H 1192.12 1.36279 3.47106 0
M  V30 12577 N 1194.3 -1.0692 1.15784 0
M  V30 12578 C 1195.55 -1.796 0.935429 0
M  V30 12579 C 1195.88 -1.86935 -0.537173 0
M  V30 12580 O 1195.13 -1.35244 -1.41448 0
M  V30 12581 C 1195.43 -3.24389 1.50022 0
M  V30 12582 C 1195.1 -3.37145 2.99406 0
M  V30 12583 C 1193.76 -3.40334 3.40186 0
M  V30 12584 C 1196.11 -3.39584 3.95389 0
M  V30 12585 C 1193.44 -3.43569 4.75581 0
M  V30 12586 C 1195.79 -3.44356 5.30661 0
M  V30 12587 C 1194.46 -3.45824 5.70931 0
M  V30 12588 H 1193.73 -0.657201 0.342298 0
M  V30 12589 H 1196.37 -1.25784 1.44397 0
M  V30 12590 H 1194.68 -3.81015 0.91297 0
M  V30 12591 H 1196.38 -3.79209 1.30389 0
M  V30 12592 H 1192.97 -3.35365 2.66887 0
M  V30 12593 H 1197.15 -3.36337 3.64954 0
M  V30 12594 H 1192.41 -3.43006 5.06119 0
M  V30 12595 H 1196.58 -3.4519 6.04828 0
M  V30 12596 H 1194.21 -3.48084 6.75826 0
M  V30 12597 N 1195.78 -0.955326 -1.25345 0
M  V30 12598 C 1196.73 -0.474888 -2.25862 0
M  V30 12599 C 1197.7 0.472996 -1.59223 0
M  V30 12600 O 1198.88 0.386094 -1.86853 0
M  V30 12601 C 1196.02 0.240554 -3.44261 0
M  V30 12602 C 1195.14 -0.74465 -4.25534 0
M  V30 12603 C 1194.27 -0.00657513 -5.312 0
M  V30 12604 C 1193.31 -0.982666 -6.04161 0
M  V30 12605 N 1192.45 -0.275418 -7.0156 0
M  V30 12606 H 1197.29 -1.33693 -2.66327 0
M  V30 12607 H 1194.83 -0.670439 -1.30933 0
M  V30 12608 H 1196.78 0.671933 -4.11753 0
M  V30 12609 H 1195.41 1.06664 -3.04668 0
M  V30 12610 H 1194.47 -1.29451 -3.57696 0
M  V30 12611 H 1195.78 -1.48948 -4.76042 0
M  V30 12612 H 1194.93 0.483404 -6.04771 0
M  V30 12613 H 1193.67 0.771035 -4.81567 0
M  V30 12614 H 1192.68 -1.48364 -5.29404 0
M  V30 12615 H 1193.9 -1.76052 -6.55883 0
M  V30 12616 H 1191.85 0.483441 -6.54216 0
M  V30 12617 H 1191.76 -0.959324 -7.49889 0
M  V30 12618 H 1193.03 0.193002 -7.79261 0
M  V30 12619 N 1197.26 1.39987 -0.723979 0
M  V30 12620 C 1198.19 2.3332 -0.0917282 0
M  V30 12621 C 1199.17 1.53335 0.736361 0
M  V30 12622 O 1200.36 1.81771 0.683582 0
M  V30 12623 C 1197.49 3.3737 0.824549 0
M  V30 12624 C 1196.44 4.2788 0.101452 0
M  V30 12625 C 1195.77 5.22536 1.13401 0
M  V30 12626 C 1197.07 5.11649 -1.04939 0
M  V30 12627 H 1198.76 2.86441 -0.871318 0
M  V30 12628 H 1196.31 1.37725 -0.420448 0
M  V30 12629 H 1198.26 4.01607 1.27631 0
M  V30 12630 H 1196.98 2.82663 1.63613 0
M  V30 12631 H 1195.64 3.65107 -0.330569 0
M  V30 12632 H 1195.29 4.64131 1.93886 0
M  V30 12633 H 1194.99 5.83938 0.65502 0
M  V30 12634 H 1196.52 5.89651 1.58569 0
M  V30 12635 H 1197.93 5.69293 -0.6766 0
M  V30 12636 H 1196.33 5.82137 -1.45729 0
M  V30 12637 H 1197.4 4.47132 -1.8762 0
M  V30 12638 N 1198.74 0.470782 1.50404 0
M  V30 12639 C 1199.67 -0.359838 2.26358 0
M  V30 12640 C 1200.68 -0.95735 1.31676 0
M  V30 12641 O 1201.87 -0.84581 1.57189 0
M  V30 12642 C 1198.97 -1.51864 3.02969 0
M  V30 12643 C 1198.15 -1.03397 4.25003 0
M  V30 12644 C 1197.21 -2.06679 4.83911 0
M  V30 12645 O 1196.23 -1.64754 5.44835 0
M  V30 12646 N 1197.43 -3.39484 4.70883 0
M  V30 12647 H 1200.2 0.291299 2.98281 0
M  V30 12648 H 1197.76 0.301549 1.59067 0
M  V30 12649 H 1199.75 -2.2065 3.39258 0
M  V30 12650 H 1198.32 -2.07448 2.33846 0
M  V30 12651 H 1197.54 -0.172012 3.93825 0
M  V30 12652 H 1198.83 -0.68807 5.04126 0
M  V30 12653 H 1198.23 -3.76256 4.22431 0
M  V30 12654 H 1196.78 -4.04068 5.11441 0
M  V30 12655 N 1200.22 -1.56282 0.203376 0
M  V30 12656 C 1201.63 -1.58871 -0.152335 0
M  V30 12657 C 1201.83 -1.21978 -1.60386 0
M  V30 12658 O 1200.89 -0.946422 -2.34092 0
M  V30 12659 C 1202.2 -3.00287 0.157515 0
M  V30 12660 C 1203.75 -3.12846 0.098287 0
M  V30 12661 C 1204.23 -4.56408 0.38156 0
M  V30 12662 N 1205.72 -4.6202 0.330475 0
M  V30 12663 C 1206.45 -5.71006 0.523397 0
M  V30 12664 N 1205.95 -6.88428 0.777115 0
M  V30 12665 N 1207.74 -5.60238 0.457082 0
M  V30 12666 H 1199.89 -1.78543 1.15048 0
M  V30 12667 H 1202.15 -0.829019 0.459816 0
M  V30 12668 H 1201.86 -3.3187 1.16427 0
M  V30 12669 H 1201.73 -3.73372 -0.536041 0
M  V30 12670 H 1204.12 -2.8107 -0.899085 0
M  V30 12671 H 1204.2 -2.42129 0.825045 0
M  V30 12672 H 1203.85 -4.88897 1.37629 0
M  V30 12673 H 1203.78 -5.25325 -0.366182 0
M  V30 12674 H 1206.27 -3.77636 0.141327 0
M  V30 12675 H 1206.58 -7.67389 0.912911 0
M  V30 12676 H 1204.93 -6.90215 0.814104 0
M  V30 12677 H 1208.12 -4.67382 0.259226 0
M  V30 12678 H 1208.29 -6.45114 0.610848 0
M  V30 12679 N 1201.7 0.070167 -1.57444 0
M  V30 12680 C 1202.63 1.10996 -2.0053 0
M  V30 12681 C 1203.64 1.3489 -0.91151 0
M  V30 12682 O 1204.83 1.33102 -1.18938 0
M  V30 12683 C 1201.93 2.46053 -2.33048 0
M  V30 12684 C 1201.1 2.42092 -3.64294 0
M  V30 12685 C 1200.16 3.5927 -3.84463 0
M  V30 12686 O 1199.19 3.40625 -4.5603 0
M  V30 12687 N 1200.39 4.79677 -3.26941 0
M  V30 12688 H 1203.15 0.743029 -2.90343 0
M  V30 12689 H 1200.72 0.258794 -1.59818 0
M  V30 12690 H 1202.71 3.23089 -2.43712 0
M  V30 12691 H 1201.28 2.74742 -1.49116 0
M  V30 12692 H 1200.5 1.5043 -3.64368 0
M  V30 12693 H 1201.79 2.36548 -4.50469 0
M  V30 12694 H 1201.18 4.97729 -2.68855 0
M  V30 12695 H 1199.74 5.54219 -3.43051 0
M  V30 12696 N 1203.17 1.53854 0.341593 0
M  V30 12697 C 1204.12 1.8268 1.43982 0
M  V30 12698 C 1205.12 0.697415 1.54378 0
M  V30 12699 O 1206.32 0.880785 1.56978 0
M  V30 12700 H 1202.7 0.578788 0.480113 0
M  V30 12701 H 1204.67 2.74556 1.16884 0
M  V30 12702 C 1203.42 2.05496 2.80476 0
M  V30 12703 H 1202.74 2.91852 2.73244 0
M  V30 12704 H 1204.18 2.2963 3.56435 0
M  V30 12705 C 1202.64 0.841061 3.26233 0
M  V30 12706 O 1203.17 0.0414376 4.01679 0
M  V30 12707 N 1201.37 0.657736 2.83059 0
M  V30 12708 H 1200.92 1.30962 2.21826 0
M  V30 12709 H 1200.88 -0.153003 3.14027 0
M  V30 12710 N 1204.65 -0.602709 1.4562 0
M  V30 12711 C 1206.07 -0.923983 1.30133 0
M  V30 12712 C 1206.27 -1.99842 0.25796 0
M  V30 12713 O 1205.32 -2.50112 -0.346414 0
M  V30 12714 C 1206.64 -1.36029 2.68173 0
M  V30 12715 C 1208.18 -1.47423 2.76108 0
M  V30 12716 C 1208.66 -1.94427 4.14683 0
M  V30 12717 N 1210.15 -2.01653 4.17002 0
M  V30 12718 C 1210.89 -2.39255 5.211 0
M  V30 12719 N 1210.38 -2.75791 6.3554 0
M  V30 12720 N 1212.17 -2.39636 5.08459 0
M  V30 12721 H 1204.33 0.107377 2.12128 0
M  V30 12722 H 1206.59 -0.0146216 0.947887 0
M  V30 12723 H 1206.29 -0.644949 3.45736 0
M  V30 12724 H 1206.17 -2.32584 2.96959 0
M  V30 12725 H 1208.56 -2.18047 1.98845 0
M  V30 12726 H 1208.64 -0.4917 2.5103 0
M  V30 12727 H 1208.28 -1.24389 4.92433 0
M  V30 12728 H 1208.21 -2.93603 4.37156 0
M  V30 12729 H 1210.7 -1.75988 3.3442 0
M  V30 12730 H 1211.01 -3.03378 7.10761 0
M  V30 12731 H 1209.36 -2.73475 6.38934 0
M  V30 12732 H 1212.55 -2.10502 4.18098 0
M  V30 12733 H 1212.72 -2.68614 5.89704 0
M  V30 12734 N 1206.13 -1.32992 -0.845635 0
M  V30 12735 C 1207.38 -1.24249 -1.60281 0
M  V30 12736 C 1207.71 0.193049 -1.93238 0
M  V30 12737 O 1206.98 1.1326 -1.58122 0
M  V30 12738 C 1207.27 -2.1111 -2.91727 0
M  V30 12739 C 1207.12 -3.63088 -2.65494 0
M  V30 12740 C 1208.44 -1.97913 -3.93089 0
M  V30 12741 H 1205.56 -0.452698 -0.581578 0
M  V30 12742 H 1208.2 -1.63026 -0.975828 0
M  V30 12743 H 1206.35 -1.78169 -3.45236 0
M  V30 12744 H 1208.02 -4.06287 -2.18469 0
M  V30 12745 H 1206.26 -3.85304 -1.99306 0
M  V30 12746 H 1206.94 -4.19202 -3.59129 0
M  V30 12747 H 1209.41 -2.26788 -3.48864 0
M  V30 12748 H 1208.29 -2.60952 -4.82903 0
M  V30 12749 H 1208.55 -0.949378 -4.31786 0
M  V30 12750 N 1207.61 1.06304 -1.1635 0
M  V30 12751 C 1208.88 1.75916 -0.855166 0
M  V30 12752 C 1209.26 2.0094 0.647024 0
M  V30 12753 O 1208.61 1.63642 1.59479 0
M  V30 12754 C 1208.82 3.06028 -1.67774 0
M  V30 12755 C 1210.17 3.80184 -1.89065 0
M  V30 12756 O 1211.19 3.15868 -1.64639 0
M  V30 12757 O 1210.05 4.95723 -2.30045 0
M  V30 12758 H 1207.15 0.764432 -0.315551 0
M  V30 12759 H 1209.69 1.12574 -1.26985 0
M  V30 12760 H 1208.47 2.83498 -2.69712 0
M  V30 12761 H 1208.09 3.77104 -1.26009 0
M  V30 12762 N 1209.09 0.96196 1.24836 0
M  V30 12763 C 1210.31 0.637709 1.97353 0
M  V30 12764 C 1210.74 -0.784919 1.7094 0
M  V30 12765 O 1210.09 -1.53188 0.969694 0
M  V30 12766 C 1210.14 0.911485 3.4889 0
M  V30 12767 O 1209.25 -0.00601668 4.124 0
M  V30 12768 H 1208.59 0.241685 0.618453 0
M  V30 12769 H 1211.12 1.29055 1.58764 0
M  V30 12770 H 1211.13 0.840702 3.99245 0
M  V30 12771 H 1209.8 1.9483 3.67442 0
M  V30 12772 H 1208.38 0.117597 3.72715 0
M  V30 12773 N 1210.56 -1.39601 0.731392 0
M  V30 12774 C 1211.51 -2.30628 0.0890606 0
M  V30 12775 C 1212.48 -1.49025 -0.73353 0
M  V30 12776 O 1213.67 -1.77722 -0.694234 0
M  V30 12777 C 1210.81 -3.35339 -0.814956 0
M  V30 12778 C 1209.92 -4.31995 0.0198606 0
M  V30 12779 C 1209.05 -5.23774 -0.885095 0
M  V30 12780 C 1208.09 -6.12083 -0.045311 0
M  V30 12781 N 1207.23 -6.9623 -0.906002 0
M  V30 12782 H 1212.07 -2.84988 0.870958 0
M  V30 12783 H 1209.61 -1.40329 0.441166 0
M  V30 12784 H 1211.56 -3.94634 -1.3535 0
M  V30 12785 H 1210.19 -2.82443 -1.56287 0
M  V30 12786 H 1209.25 -3.74349 0.675778 0
M  V30 12787 H 1210.56 -4.94289 0.669346 0
M  V30 12788 H 1209.71 -5.88078 -1.49161 0
M  V30 12789 H 1208.45 -4.61794 -1.56837 0
M  V30 12790 H 1207.46 -5.46795 0.574028 0
M  V30 12791 H 1208.68 -6.76128 0.634692 0
M  V30 12792 H 1206.63 -6.36821 -1.57463 0
M  V30 12793 H 1206.54 -7.55352 -0.312914 0
M  V30 12794 H 1207.81 -7.64967 -1.49819 0
M  V30 12795 N 1212.04 -0.478751 -1.50152 0
M  V30 12796 C 1212.95 0.316554 -2.32455 0
M  V30 12797 C 1213.97 0.98871 -1.4318 0
M  V30 12798 O 1215.14 0.974998 -1.76226 0
M  V30 12799 C 1212.21 1.3799 -3.18056 0
M  V30 12800 C 1211.27 0.723534 -4.23159 0
M  V30 12801 C 1210.5 1.73621 -5.0467 0
M  V30 12802 O 1210.73 2.96362 -4.87366 0
M  V30 12803 O 1209.66 1.30381 -5.87609 0
M  V30 12804 H 1213.49 -0.356491 -3.016 0
M  V30 12805 H 1211.07 -0.24046 -1.47452 0
M  V30 12806 H 1212.95 1.99565 -3.71149 0
M  V30 12807 H 1211.63 2.03627 -2.5163 0
M  V30 12808 H 1210.54 0.0686296 -3.74037 0
M  V30 12809 H 1211.87 0.109979 -4.92077 0
M  V30 12810 N 1213.52 1.56172 -0.211661 0
M  V30 12811 C 1214.75 2.02428 0.427843 0
M  V30 12812 C 1215.16 1.09162 1.54043 0
M  V30 12813 O 1214.52 0.0994249 1.82229 0
M  V30 12814 C 1214.57 3.48279 0.968728 0
M  V30 12815 O 1214.29 4.37987 -0.0994841 0
M  V30 12816 C 1215.79 4.10132 1.68246 0
M  V30 12817 H 1213.01 0.662611 0.10577 0
M  V30 12818 H 1215.56 2.01897 -0.32522 0
M  V30 12819 H 1213.71 3.49456 1.6721 0
M  V30 12820 H 1214.13 5.23609 0.305558 0
M  V30 12821 H 1215.6 5.13985 2.01304 0
M  V30 12822 H 1216.08 3.54552 2.5921 0
M  V30 12823 H 1216.68 4.12775 1.02453 0
M  V30 12824 N 1215 -0.0618163 1.57479 0
M  V30 12825 C 1215.91 -1.09006 2.07738 0
M  V30 12826 C 1216.92 -1.4176 1.00896 0
M  V30 12827 O 1218.1 -1.51737 1.32431 0
M  V30 12828 C 1215.17 -2.38153 2.5196 0
M  V30 12829 C 1214.23 -2.12279 3.73143 0
M  V30 12830 C 1213.46 -3.35269 4.15248 0
M  V30 12831 O 1213.68 -4.44758 3.57137 0
M  V30 12832 O 1212.62 -3.22894 5.0796 0
M  V30 12833 H 1216.44 -0.693059 2.95686 0
M  V30 12834 H 1214.03 -0.276628 1.46817 0
M  V30 12835 H 1215.91 -3.14139 2.80882 0
M  V30 12836 H 1214.58 -2.77213 1.67137 0
M  V30 12837 H 1213.49 -1.33966 3.49291 0
M  V30 12838 H 1214.82 -1.78094 4.5885 0
M  V30 12839 N 1216.48 -1.54033 -0.333429 0
M  V30 12840 C 1217.72 -1.73485 -1.08085 0
M  V30 12841 C 1218.08 -0.492888 -1.85566 0
M  V30 12842 O 1219.28 -0.564596 -2.62804 0
M  V30 12843 C 1217.55 -2.96943 -1.98896 0
M  V30 12844 S 1219.11 -3.37253 -2.80724 0
M  V30 12845 H 1215.93 -0.610131 -0.365049 0
M  V30 12846 H 1218.53 -1.92194 -0.358034 0
M  V30 12847 H 1217.24 -3.85494 -1.40794 0
M  V30 12848 H 1216.77 -2.80729 -2.75599 0
M  V30 12849 H 1218.78 -2.9178 -4.01347 0
M  V30 12850 O 1217.99 0.479395 -1.54221 0
M  V30 12851 H 1218.68 1.13393 -1.5704 0
M  V30 END ATOM
M  V30 BEGIN BOND
M  V30 END BOND
M  V30 END CTAB
M  END
$$$$
