drugbank_target|Q46893 2-C-methyl-D-erythritol 4-phosphate cytidylyltransferase (DB02431; DB03687; DB03854)
 OpenBabel12092119573D

  0  0  0     0  0            999 V3000
M  V30 BEGIN CTAB
M  V30 COUNTS 3609 3646 0 0 0
M  V30 BEGIN ATOM
M  V30 1 H -0.908 1.98254 -0.117106 0
M  V30 2 N 0 1.576 0 0
M  V30 3 C 0.933 2.03868 1.02534 0
M  V30 4 C 1.911 0.928543 1.3348 0
M  V30 5 O 3.095 1.19667 1.45644 0
M  V30 6 C 0.222 2.43627 2.35294 0
M  V30 7 C -0.732 3.65373 2.2001 0
M  V30 8 S 0.101 5.13292 1.52614 0
M  V30 9 C 1.257 5.56322 2.86805 0
M  V30 10 H 1.49 2.90518 0.631377 0
M  V30 11 H -0.977 1.52953 0.210867 0
M  V30 12 H 0.981 2.67203 3.11629 0
M  V30 13 H -0.358 1.57376 2.7183 0
M  V30 14 H -1.165 3.90944 3.18086 0
M  V30 15 H -1.563 3.418 1.51819 0
M  V30 16 H 0.729 5.58782 3.83104 0
M  V30 17 H 1.672 6.56266 2.65933 0
M  V30 18 H 2.08 4.83886 2.90714 0
M  V30 19 N 1.4781 -0.272755 1.55222 0
M  V30 20 C 2.4411 -1.32041 1.87344 0
M  V30 21 C 3.4411 -1.42342 0.74803 0
M  V30 22 O 4.6311 -1.41488 1.0162 0
M  V30 23 C 1.7631 -2.70173 2.07893 0
M  V30 24 H 2.9561 -1.04789 2.80997 0
M  V30 25 H 0.5091 -0.51083 1.47717 0
M  V30 26 H 1.2441 -3.02605 1.16622 0
M  V30 27 H 1.0291 -2.64082 2.89833 0
M  V30 28 H 2.5191 -3.45869 2.34017 0
M  V30 29 N 2.9562 -1.48159 -0.537278 0
M  V30 30 C 4.1842 -1.59454 -1.31841 0
M  V30 31 C 4.5992 -0.252065 -1.8711 0
M  V30 32 O 3.9562 0.757621 -1.66031 0
M  V30 33 C 4.0072 -2.63546 -2.47439 0
M  V30 34 O 3.7282 -3.92583 -1.94449 0
M  V30 35 C 5.2292 -2.85212 -3.39366 0
M  V30 36 H 2.4492 -0.53785 -0.401196 0
M  V30 37 H 4.9932 -1.93932 -0.648891 0
M  V30 38 H 3.1482 -2.31946 -3.1029 0
M  V30 39 H 3.5622 -4.49629 -2.70063 0
M  V30 40 H 5.0362 -3.61863 -4.16844 0
M  V30 41 H 5.5132 -1.93765 -3.94147 0
M  V30 42 H 6.1192 -3.18086 -2.82314 0
M  V30 43 N 4.4343 0.785586 -1.36625 0
M  V30 44 C 5.6623 1.57448 -1.3423 0
M  V30 45 C 6.0773 1.88649 0.0755653 0
M  V30 46 O 5.4343 1.50414 1.03354 0
M  V30 47 C 5.4853 2.89316 -2.16745 0
M  V30 48 O 5.2063 2.59459 -3.53005 0
M  V30 49 C 6.7073 3.83606 -2.22174 0
M  V30 50 H 3.9273 0.488226 -0.4603 0
M  V30 51 H 6.4713 0.974733 -1.79775 0
M  V30 52 H 4.6263 3.4575 -1.74745 0
M  V30 53 H 5.0403 3.43804 -3.96105 0
M  V30 54 H 6.5143 4.73181 -2.8426 0
M  V30 55 H 6.9913 4.21734 -1.22627 0
M  V30 56 H 7.5973 3.33104 -2.64427 0
M  V30 57 N 5.9124 1.20967 1.01018 0
M  V30 58 C 6.8624 0.93182 2.08089 0
M  V30 59 C 7.8464 -0.110898 1.60517 0
M  V30 60 O 9.0384 0.0973392 1.76732 0
M  V30 61 C 6.1674 0.492719 3.39746 0
M  V30 62 C 5.2534 1.56922 3.94 0
M  V30 63 N 5.6444 2.79312 4.21686 0
M  V30 64 C 3.9424 1.43688 4.2222 0
M  V30 65 C 4.6434 3.48797 4.65527 0
M  V30 66 N 3.6194 2.76224 4.68189 0
M  V30 67 H 7.4214 1.86175 2.27412 0
M  V30 68 H 4.9354 1.10463 1.19045 0
M  V30 69 H 6.9324 0.275044 4.15992 0
M  V30 70 H 5.5924 -0.430509 3.21833 0
M  V30 71 H 6.6034 3.15903 4.10397 0
M  V30 72 H 3.2804 0.578548 4.13472 0
M  V30 73 H 4.6704 4.53561 4.95714 0
M  V30 74 N 7.3905 -1.2043 1.01659 0
M  V30 75 C 8.3205 -2.25466 0.607226 0
M  V30 76 C 9.3015 -1.65853 -0.377716 0
M  V30 77 O 10.4865 -1.92409 -0.263149 0
M  V30 78 C 7.6165 -3.47256 -0.0552949 0
M  V30 79 C 6.5705 -4.19462 0.850632 0
M  V30 80 C 5.8965 -5.34673 0.0538859 0
M  V30 81 C 7.1965 -4.75603 2.15868 0
M  V30 82 H 8.8905 -2.59962 1.48526 0
M  V30 83 H 6.4365 -1.2496 0.715605 0
M  V30 84 H 8.3895 -4.19917 -0.353233 0
M  V30 85 H 7.1135 -3.11924 -0.968045 0
M  V30 86 H 5.7725 -3.48667 1.13257 0
M  V30 87 H 5.4205 -4.95585 -0.860514 0
M  V30 88 H 5.1205 -5.83913 0.657192 0
M  V30 89 H 6.6445 -6.10138 -0.237598 0
M  V30 90 H 8.0585 -5.40083 1.92311 0
M  V30 91 H 6.4555 -5.3528 2.71284 0
M  V30 92 H 7.5255 -3.94346 2.82169 0
M  V30 93 N 8.8686 -0.792821 -1.36206 0
M  V30 94 C 10.1456 -0.290627 -1.93429 0
M  V30 95 C 10.5256 1.21773 -1.72437 0
M  V30 96 O 9.8736 2.0108 -1.08531 0
M  V30 97 C 10.0836 -0.686973 -3.42172 0
M  V30 98 C 11.4316 -0.668643 -4.19302 0
M  V30 99 O 12.4556 -0.627658 -3.50626 0
M  V30 100 O 11.3146 -0.714597 -5.41808 0
M  V30 101 H 8.4086 -0.0727927 -0.82379 0
M  V30 102 H 10.9546 -0.875593 -1.45367 0
M  V30 103 H 9.7266 -1.72711 -3.51122 0
M  V30 104 H 9.3496 -0.0760733 -3.97527 0
M  V30 105 N 10.3467 1.47872 -0.545128 0
M  V30 106 C 11.5927 2.02793 -0.0166104 0
M  V30 107 C 11.9257 1.41987 1.32489 0
M  V30 108 O 11.2007 0.571045 1.85928 0
M  V30 109 C 11.4837 3.59989 0.0893294 0
M  V30 110 C 11.3367 4.3125 -1.27841 0
M  V30 111 C 12.6557 4.32606 0.808724 0
M  V30 112 H 9.7747 0.736962 -0.00751035 0
M  V30 113 H 12.4167 1.76433 -0.705085 0
M  V30 114 H 10.5667 3.82579 0.675681 0
M  V30 115 H 12.2387 4.20035 -1.90704 0
M  V30 116 H 10.4817 3.92076 -1.85632 0
M  V30 117 H 11.1527 5.39736 -1.15713 0
M  V30 118 H 13.6287 4.14936 0.310992 0
M  V30 119 H 12.5047 5.42251 0.851782 0
M  V30 120 H 12.7657 4.00963 1.86229 0
M  V30 121 N 11.8248 0.280983 1.55075 0
M  V30 122 C 13.0648 -0.335234 2.01632 0
M  V30 123 C 13.4288 -1.5261 1.16508 0
M  V30 124 O 14.6298 -2.21235 1.52672 0
M  V30 125 C 12.9008 -0.702172 3.50434 0
M  V30 126 S 14.4598 -1.30409 4.18974 0
M  V30 127 H 11.2778 -0.103967 0.703358 0
M  V30 128 H 13.8798 0.404187 1.91276 0
M  V30 129 H 12.5838 0.17333 4.10034 0
M  V30 130 H 12.1148 -1.4729 3.64786 0
M  V30 131 H 14.1298 -2.59253 4.23087 0
M  V30 132 N 13.3029 -1.57598 0.00835791 0
M  V30 133 C 14.2659 -2.07884 -0.965242 0
M  V30 134 C 15.2659 -0.989825 -1.26725 0
M  V30 135 O 16.4559 -1.25218 -1.21104 0
M  V30 136 C 13.5879 -2.52731 -2.28779 0
M  V30 137 H 14.7809 -2.95178 -0.530112 0
M  V30 138 H 12.3339 -1.54458 -0.239283 0
M  V30 139 H 13.0689 -1.68705 -2.76964 0
M  V30 140 H 12.8539 -3.32272 -2.08177 0
M  V30 141 H 14.3439 -2.91933 -2.98605 0
M  V30 142 N 14.781 0.264519 -1.55364 0
M  V30 143 C 16.027 0.99646 -1.76631 0
M  V30 144 C 16.36 1.85632 -0.570478 0
M  V30 145 O 15.635 1.89647 0.43175 0
M  V30 146 C 15.918 1.87187 -3.07625 0
M  V30 147 C 15.771 1.04138 -4.37579 0
M  V30 148 C 17.09 2.85749 -3.34717 0
M  V30 149 H 14.209 0.360841 -0.642622 0
M  V30 150 H 16.851 0.268218 -1.88097 0
M  V30 151 H 15.001 2.49279 -2.9798 0
M  V30 152 H 16.673 0.440517 -4.59192 0
M  V30 153 H 14.916 0.345115 -4.32425 0
M  V30 154 H 15.587 1.68729 -5.2558 0
M  V30 155 H 18.063 2.33793 -3.4421 0
M  V30 156 H 16.939 3.44136 -4.27623 0
M  V30 157 H 17.2 3.61311 -2.54768 0
M  V30 158 N 16.2591 1.48442 0.529413 0
M  V30 159 C 17.5051 1.5672 1.28711 0
M  V30 160 C 17.8381 0.2406 1.92704 0
M  V30 161 O 17.1131 -0.753454 1.79313 0
M  V30 162 C 17.3961 2.70587 2.37603 0
M  V30 163 C 17.2491 4.12953 1.78297 0
M  V30 164 C 18.5681 2.80212 3.39366 0
M  V30 165 H 15.6871 0.570474 0.466613 0
M  V30 166 H 18.3291 1.80617 0.589706 0
M  V30 167 H 16.4791 2.50342 2.97088 0
M  V30 168 H 18.1511 4.44639 1.22858 0
M  V30 169 H 16.3941 4.19927 1.0883 0
M  V30 170 H 17.0651 4.88448 2.57144 0
M  V30 171 H 19.5411 2.98553 2.89836 0
M  V30 172 H 18.4171 3.61611 4.12951 0
M  V30 173 H 18.6781 1.88393 3.99951 0
M  V30 174 N 17.7372 -0.778329 1.37039 0
M  V30 175 C 19.1482 -1.35421 1.28523 0
M  V30 176 C 19.4992 -1.96075 -0.0700901 0
M  V30 177 O 18.6242 -1.93352 -0.971801 0
M  V30 178 C 19.2192 -2.46211 2.32735 0
M  V30 179 C 17.7782 -2.99585 2.27873 0
M  V30 180 C 16.9252 -1.72748 2.16918 0
M  V30 181 H 19.8762 -0.5791 1.47757 0
M  V30 182 H 19.8972 -3.2552 1.9702 0
M  V30 183 H 19.4092 -2.02036 3.31365 0
M  V30 184 H 17.5102 -3.48152 1.32745 0
M  V30 185 H 17.6232 -3.55646 3.21018 0
M  V30 186 H 15.9872 -1.95416 1.63354 0
M  V30 187 H 16.7702 -1.30686 3.17452 0
M  V30 188 N 19.2153 -1.21501 -1.00376 0
M  V30 189 C 20.1783 -0.976927 -2.07337 0
M  V30 190 C 21.1783 0.0525322 -1.60714 0
M  V30 191 O 22.3683 -0.184869 -1.73216 0
M  V30 192 C 19.5003 -0.473423 -3.37597 0
M  V30 193 H 20.6933 -1.92587 -2.29892 0
M  V30 194 H 18.2463 -1.03217 -1.17371 0
M  V30 195 H 18.9813 0.480379 -3.20722 0
M  V30 196 H 18.7663 -1.216 -3.72768 0
M  V30 197 H 20.2563 -0.32675 -4.1632 0
M  V30 198 N 20.6934 1.19889 -1.02296 0
M  V30 199 C 21.6564 2.21116 -0.603351 0
M  V30 200 C 22.6564 1.5738 0.329884 0
M  V30 201 O 23.8464 1.73802 0.117702 0
M  V30 202 C 20.9784 3.40696 0.117992 0
M  V30 203 H 22.1714 2.59754 -1.49893 0
M  V30 204 H 19.7244 1.33463 -0.813468 0
M  V30 205 H 20.4594 3.07569 1.0282 0
M  V30 206 H 20.2444 3.88188 -0.552511 0
M  V30 207 H 21.7344 4.15692 0.398696 0
M  V30 208 N 22.1715 0.800033 1.35784 0
M  V30 209 C 23.4195 0.376597 1.9856 0
M  V30 210 C 23.7405 -1.05812 1.63795 0
M  V30 211 O 23.0105 -1.73103 0.917171 0
M  V30 212 H 21.5905 0.136261 0.734467 0
M  V30 213 H 24.2525 1.02442 1.65806 0
M  V30 214 H 23.3485 0.477002 3.08433 0
M  V30 215 N 23.6496 -1.47581 0.552962 0
M  V30 216 C 24.8966 -2.02482 0.0273243 0
M  V30 217 C 25.2246 -1.42776 -1.32081 0
M  V30 218 O 24.4796 -0.571393 -1.87173 0
M  V30 219 C 24.7786 -3.57199 -0.119728 0
M  V30 220 C 24.4446 -4.35804 1.15697 0
M  V30 221 C 23.1066 -4.57 1.50681 0
M  V30 222 C 25.4586 -4.81167 2.00319 0
M  V30 223 C 22.7866 -5.20807 2.70142 0
M  V30 224 C 25.1386 -5.46293 3.18978 0
M  V30 225 C 23.8026 -5.65722 3.54281 0
M  V30 226 H 23.0726 -0.740933 0.00999866 0
M  V30 227 H 25.7196 -1.77302 0.72362 0
M  V30 228 H 24.0246 -3.81348 -0.89896 0
M  V30 229 H 25.7216 -3.97324 -0.541718 0
M  V30 230 H 22.3116 -4.19582 0.874561 0
M  V30 231 H 26.4956 -4.64574 1.74599 0
M  V30 232 H 21.7516 -5.34045 2.97668 0
M  V30 233 H 25.9256 -5.80407 3.84838 0
M  V30 234 H 23.5526 -6.14936 4.46942 0
M  V30 235 N 25.1277 -0.289203 -1.54924 0
M  V30 236 C 26.3757 0.322879 -1.99504 0
M  V30 237 C 26.6967 1.55313 -1.1791 0
M  V30 238 O 25.9667 1.94001 -0.272097 0
M  V30 239 H 24.5467 0.122291 -0.736922 0
M  V30 240 H 27.2087 -0.397802 -1.90797 0
M  V30 241 H 26.3047 0.603061 -3.06218 0
M  V30 242 N 26.6058 1.57591 -0.0167156 0
M  V30 243 C 28.0218 1.55946 0.339557 0
M  V30 244 C 28.2218 1.02109 1.73713 0
M  V30 245 O 27.2778 0.662303 2.43659 0
M  V30 246 C 28.5908 3.00037 0.199499 0
M  V30 247 C 30.1388 3.11805 0.273193 0
M  V30 248 C 30.6138 4.57713 0.162068 0
M  V30 249 N 32.1048 4.6268 0.219444 0
M  V30 250 C 32.8398 5.73185 0.157054 0
M  V30 251 N 32.3358 6.92786 0.0442936 0
M  V30 252 N 34.1288 5.61707 0.21014 0
M  V30 253 H 26.2798 1.90921 -0.930758 0
M  V30 254 H 28.5428 0.877674 -0.358319 0
M  V30 255 H 28.2488 3.4333 -0.76273 0
M  V30 256 H 28.1228 3.64387 0.974786 0
M  V30 257 H 30.5098 2.68433 1.22587 0
M  V30 258 H 30.5908 2.50201 -0.532256 0
M  V30 259 H 30.2348 5.01763 -0.78714 0
M  V30 260 H 30.1648 5.17283 0.986222 0
M  V30 261 H 32.6558 3.76649 0.307246 0
M  V30 262 H 32.9688 7.728 0.00304069 0
M  V30 263 H 31.3138 6.94999 0.00968457 0
M  V30 264 H 34.5048 4.6716 0.296546 0
M  V30 265 H 34.6778 6.47807 0.158054 0
M  V30 266 N 28.0839 -0.256276 1.55502 0
M  V30 267 C 29.4999 -0.604325 1.47716 0
M  V30 268 C 29.6999 -1.88763 0.705039 0
M  V30 269 O 28.7559 -2.51445 0.230613 0
M  V30 270 C 30.0689 -0.715756 2.92057 0
M  V30 271 C 31.6169 -0.808706 3.02372 0
M  V30 272 C 32.0919 -0.951777 4.48001 0
M  V30 273 N 33.5829 -1.01688 4.519 0
M  V30 274 C 34.3179 -1.14668 5.61817 0
M  V30 275 N 33.8139 -1.24261 6.81565 0
M  V30 276 N 35.6069 -1.1791 5.49594 0
M  V30 277 H 27.7579 0.586291 2.04148 0
M  V30 278 H 30.0209 0.201015 0.926443 0
M  V30 279 H 29.7269 0.157027 3.51349 0
M  V30 280 H 29.6009 -1.59071 3.42018 0
M  V30 281 H 31.9879 -1.67195 2.43166 0
M  V30 282 H 32.0689 0.0912063 2.55637 0
M  V30 283 H 31.7129 -0.0931291 5.07815 0
M  V30 284 H 31.6429 -1.86659 4.92408 0
M  V30 285 H 34.1339 -0.954468 3.65648 0
M  V30 286 H 34.4469 -1.34046 7.61086 0
M  V30 287 H 32.7919 -1.21236 6.84344 0
M  V30 288 H 35.9829 -1.10057 4.54978 0
M  V30 289 H 36.1559 -1.27681 6.35296 0
M  V30 290 N 29.562 -1.4872 -0.521534 0
M  V30 291 C 30.495 -1.58451 -1.64221 0
M  V30 292 C 31.473 -0.434513 -1.56687 0
M  V30 293 O 32.657 -0.647275 -1.77038 0
M  V30 294 C 29.784 -1.52037 -3.02659 0
M  V30 295 C 28.83 -2.71981 -3.28525 0
M  V30 296 S 29.663 -4.33869 -3.13876 0
M  V30 297 C 30.819 -4.30067 -4.54745 0
M  V30 298 H 31.052 -2.53256 -1.55719 0
M  V30 299 H 28.585 -1.37358 -0.705143 0
M  V30 300 H 30.543 -1.49023 -3.82495 0
M  V30 301 H 29.204 -0.585541 -3.08594 0
M  V30 302 H 28.397 -2.63656 -4.29536 0
M  V30 303 H 27.999 -2.72302 -2.56374 0
M  V30 304 H 30.291 -4.00521 -5.46433 0
M  V30 305 H 31.234 -5.31287 -4.68123 0
M  V30 306 H 31.642 -3.60419 -4.34463 0
M  V30 307 N 31.0401 0.771051 -1.3745 0
M  V30 308 C 31.9721 1.89352 -1.29146 0
M  V30 309 C 32.9851 1.61477 -0.207124 0
M  V30 310 O 34.1741 1.72382 -0.463324 0
M  V30 311 C 31.2741 3.24596 -0.974195 0
M  V30 312 C 30.4471 3.80111 -2.16413 0
M  V30 313 C 29.5061 4.93832 -1.81703 0
M  V30 314 O 28.5321 5.09382 -2.54006 0
M  V30 315 N 29.7341 5.75483 -0.761573 0
M  V30 316 H 32.4991 1.96991 -2.25864 0
M  V30 317 H 30.0601 0.950191 -1.31084 0
M  V30 318 H 32.0521 3.98193 -0.722828 0
M  V30 319 H 30.6221 3.12454 -0.0955527 0
M  V30 320 H 29.8421 2.98284 -2.57721 0
M  V30 321 H 31.1301 4.13932 -2.95867 0
M  V30 322 H 30.5281 5.65469 -0.161609 0
M  V30 323 H 29.0851 6.49302 -0.570064 0
M  V30 324 N 32.5182 1.22032 0.997298 0
M  V30 325 C 33.7462 1.06841 1.7718 0
M  V30 326 C 34.1612 -0.381325 1.84909 0
M  V30 327 O 33.5182 -1.26437 1.31605 0
M  V30 328 C 33.5692 1.66814 3.20711 0
M  V30 329 O 33.2902 3.06116 3.13408 0
M  V30 330 C 34.7912 1.56838 4.14628 0
M  V30 331 H 32.0112 0.374782 0.556578 0
M  V30 332 H 34.5552 1.61532 1.2541 0
M  V30 333 H 32.7102 1.16196 3.69564 0
M  V30 334 H 33.1242 3.34926 4.0364 0
M  V30 335 H 34.5982 2.03532 5.13107 0
M  V30 336 H 35.0752 0.524155 4.36061 0
M  V30 337 H 35.6812 2.06741 3.7167 0
M  V30 338 N 33.9963 -1.19345 1.0293 0
M  V30 339 C 34.9063 -2.26245 0.620515 0
M  V30 340 C 35.9223 -1.70486 -0.347928 0
M  V30 341 O 37.0983 -2.00347 -0.205704 0
M  V30 342 C 34.1633 -3.46693 -0.0218957 0
M  V30 343 C 33.2243 -4.17632 0.994102 0
M  V30 344 C 32.4573 -5.32329 0.382253 0
M  V30 345 O 32.6803 -5.64552 -0.814676 0
M  V30 346 O 31.6143 -5.91664 1.10531 0
M  V30 347 H 35.4403 -2.63453 1.51083 0
M  V30 348 H 33.0253 -1.26207 0.799513 0
M  V30 349 H 34.9073 -4.19683 -0.380072 0
M  V30 350 H 33.5823 -3.11333 -0.886209 0
M  V30 351 H 32.4893 -3.4676 1.40387 0
M  V30 352 H 33.8223 -4.56964 1.8288 0
M  V30 353 N 35.4744 -0.807222 -1.35358 0
M  V30 354 C 36.7144 -0.393534 -2.00576 0
M  V30 355 C 37.0784 1.0203 -1.62647 0
M  V30 356 O 38.2794 1.53603 -2.20589 0
M  V30 357 C 36.5504 -0.572017 -3.52793 0
M  V30 358 S 38.1094 -0.248845 -4.38094 0
M  V30 359 H 34.9274 -0.149425 -0.695121 0
M  V30 360 H 37.5294 -1.04961 -1.64935 0
M  V30 361 H 36.2334 -1.60097 -3.77885 0
M  V30 362 H 35.7644 0.099359 -3.93275 0
M  V30 363 H 37.7794 0.943253 -4.87152 0
M  V30 364 N 36.9525 1.47285 -0.560781 0
M  V30 365 C 38.3635 1.86258 -0.128343 0
M  V30 366 C 38.7145 1.46699 1.30284 0
M  V30 367 O 37.8395 0.871698 1.98067 0
M  V30 368 C 38.4345 3.38044 -0.22614 0
M  V30 369 C 36.9935 3.76096 0.151283 0
M  V30 370 C 36.1405 2.71335 -0.572084 0
M  V30 371 H 39.0915 1.38752 -0.770297 0
M  V30 372 H 39.1125 3.76441 0.554322 0
M  V30 373 H 38.6245 3.66806 -1.26788 0
M  V30 374 H 36.7255 3.52951 1.19399 0
M  V30 375 H 36.8385 4.78641 -0.209765 0
M  V30 376 H 35.2025 2.54696 -0.0147653 0
M  V30 377 H 35.9855 3.02938 -1.61504 0
M  V30 378 N 38.4306 0.297415 1.54768 0
M  V30 379 C 39.3776 -0.580276 2.23386 0
M  V30 380 C 40.3476 -1.13238 1.21517 0
M  V30 381 O 41.5326 -1.17757 1.50126 0
M  V30 382 C 38.6726 -1.74801 2.97555 0
M  V30 383 C 37.7856 -1.22764 4.1419 0
M  V30 384 C 36.9206 -2.35895 4.75949 0
M  V30 385 C 35.9596 -1.80974 5.84735 0
M  V30 386 N 35.0966 -2.87664 6.40464 0
M  V30 387 H 39.9366 0.0114833 2.97998 0
M  V30 388 H 37.4736 0.0174361 1.4709 0
M  V30 389 H 39.4316 -2.43475 3.38786 0
M  V30 390 H 38.0616 -2.31145 2.25326 0
M  V30 391 H 37.1136 -0.433271 3.77924 0
M  V30 392 H 38.4256 -0.785551 4.92575 0
M  V30 393 H 37.5796 -3.12523 5.20014 0
M  V30 394 H 36.3186 -2.83429 3.96887 0
M  V30 395 H 35.3236 -1.02834 5.40097 0
M  V30 396 H 36.5486 -1.34348 6.65678 0
M  V30 397 H 34.4946 -3.34538 5.64287 0
M  V30 398 H 34.4116 -2.4794 7.14186 0
M  V30 399 H 35.6796 -3.642 6.89187 0
M  V30 400 N 39.9087 -1.5758 0.0250728 0
M  V30 401 C 40.8407 -2.06869 -0.986796 0
M  V30 402 C 41.8537 -0.991332 -1.29137 0
M  V30 403 O 43.0427 -1.26761 -1.25674 0
M  V30 404 C 40.1427 -2.47486 -2.31525 0
M  V30 405 C 39.3157 -3.78253 -2.19643 0
M  V30 406 C 38.3747 -4.05464 -3.35388 0
M  V30 407 O 37.4007 -4.75774 -3.12454 0
M  V30 408 N 38.6027 -3.55321 -4.59051 0
M  V30 409 H 41.3677 -2.94302 -0.566276 0
M  V30 410 H 38.9287 -1.6109 -0.161776 0
M  V30 411 H 40.9207 -2.62785 -3.07776 0
M  V30 412 H 39.4907 -1.65441 -2.65232 0
M  V30 413 H 38.7107 -3.7279 -1.28144 0
M  V30 414 H 39.9987 -4.63936 -2.08903 0
M  V30 415 H 39.3967 -2.98431 -4.80578 0
M  V30 416 H 37.9537 -3.75905 -5.32483 0
M  V30 417 N 41.3868 0.248026 -1.55636 0
M  V30 418 C 42.6168 0.992367 -1.81206 0
M  V30 419 C 43.0248 1.7949 -0.598324 0
M  V30 420 O 42.3678 1.78292 0.442434 0
M  V30 421 C 42.4298 1.97926 -3.00109 0
M  V30 422 C 42.0938 1.36377 -4.36177 0
M  V30 423 C 43.0908 0.76682 -5.14214 0
M  V30 424 C 40.7758 1.38347 -4.82872 0
M  V30 425 C 42.7698 0.197778 -6.37093 0
M  V30 426 C 40.4568 0.810574 -6.057 0
M  V30 427 C 41.4548 0.218754 -6.8265 0
M  V30 428 O 41.1428 -0.345298 -8.03158 0
M  V30 429 H 40.8748 0.297704 -0.606917 0
M  V30 430 H 43.4288 0.276517 -2.0353 0
M  V30 431 H 41.6588 2.73339 -2.73538 0
M  V30 432 H 43.3478 2.58694 -3.12781 0
M  V30 433 H 44.1138 0.744114 -4.79258 0
M  V30 434 H 39.9928 1.8335 -4.2297 0
M  V30 435 H 43.5368 -0.264788 -6.97097 0
M  V30 436 H 39.4338 0.830604 -6.40134 0
M  V30 437 H 40.2018 -0.237055 -8.18157 0
M  V30 438 N 42.8649 1.48995 0.513639 0
M  V30 439 C 43.7949 1.67636 1.62544 0
M  V30 440 C 44.7759 0.525087 1.61793 0
M  V30 441 O 45.9609 0.759502 1.78732 0
M  V30 442 C 43.0909 1.73114 3.01079 0
M  V30 443 C 42.0449 2.87905 3.16693 0
M  V30 444 C 41.3709 2.78486 4.56453 0
M  V30 445 C 42.6709 4.29005 2.97913 0
M  V30 446 H 44.3649 2.60716 1.47198 0
M  V30 447 H 41.9109 1.25465 0.706714 0
M  V30 448 H 43.8639 1.84742 3.78746 0
M  V30 449 H 42.5879 0.766241 3.17484 0
M  V30 450 H 41.2469 2.75859 2.41448 0
M  V30 451 H 40.8949 1.7993 4.69717 0
M  V30 452 H 40.5949 3.55523 4.67843 0
M  V30 453 H 42.1189 2.92104 5.36197 0
M  V30 454 H 43.5329 4.41798 3.65359 0
M  V30 455 H 41.9299 5.07166 3.20785 0
M  V30 456 H 42.9999 4.44329 1.94165 0
M  V30 457 N 44.343 -0.763751 1.37857 0
M  V30 458 C 45.568 -1.55805 1.36893 0
M  V30 459 C 45.993 -1.88054 -0.0416135 0
M  V30 460 O 45.351 -1.49825 -1.02089 0
M  V30 461 C 45.399 -2.84012 2.22192 0
M  V30 462 O 44.503 -3.78732 1.63204 0
M  V30 463 H 43.844 -0.471638 0.46739 0
M  V30 464 H 46.374 -0.944657 1.81487 0
M  V30 465 H 46.384 -3.33037 2.35691 0
M  V30 466 H 45.059 -2.59869 3.24716 0
M  V30 467 H 43.636 -3.37402 1.58791 0
M  V30 468 N 45.8211 -1.22559 -0.990812 0
M  V30 469 C 47.0701 -1.04553 -1.72486 0
M  V30 470 C 47.3831 0.419349 -1.91052 0
M  V30 471 O 48.5891 0.719121 -2.61803 0
M  V30 472 C 47.0451 -1.82231 -3.10355 0
M  V30 473 C 46.6531 -3.32981 -2.99713 0
M  V30 474 C 48.3971 -1.7268 -3.87791 0
M  V30 475 C 46.3041 -4.03091 -4.32748 0
M  V30 476 H 45.2341 -0.387614 -0.646739 0
M  V30 477 H 47.8851 -1.46429 -1.10593 0
M  V30 478 H 46.2671 -1.33155 -3.72942 0
M  V30 479 H 47.4411 -3.89466 -2.46278 0
M  V30 480 H 45.7561 -3.43231 -2.35758 0
M  V30 481 H 48.3531 -2.22381 -4.86262 0
M  V30 482 H 48.6961 -0.687607 -4.10582 0
M  V30 483 H 49.2291 -2.1931 -3.31885 0
M  V30 484 H 45.9681 -5.07273 -4.15156 0
M  V30 485 H 45.4881 -3.51394 -4.86089 0
M  V30 486 H 47.1671 -4.08804 -5.01486 0
M  V30 487 N 47.2992 1.18797 -1.03562 0
M  V30 488 C 48.5472 1.88278 -0.734569 0
M  V30 489 C 48.8682 1.8043 0.739586 0
M  V30 490 O 48.1382 1.21925 1.53333 0
M  V30 491 H 46.7182 0.696991 -0.268725 0
M  V30 492 H 49.3802 1.44192 -1.31129 0
M  V30 493 H 48.4762 2.94443 -1.03489 0
M  V30 494 N 48.7773 0.814389 1.34928 0
M  V30 495 C 49.7253 0.218424 2.31572 0
M  V30 496 C 50.7193 -0.636128 1.57002 0
M  V30 497 O 51.9253 -0.52842 1.72069 0
M  V30 498 H 48.3003 0.0518799 0.750208 0
M  V30 499 H 50.2713 1.04852 2.79372 0
M  V30 500 C 49.0203 -0.61207 3.4227 0
M  V30 501 H 48.3433 0.0361578 3.99784 0
M  V30 502 H 49.7833 -0.995317 4.12152 0
M  V30 503 C 48.2423 -1.78087 2.85984 0
M  V30 504 O 48.7723 -2.8787 2.80168 0
M  V30 505 N 46.9783 -1.59488 2.42924 0
M  V30 506 H 46.5253 -0.701874 2.47854 0
M  V30 507 H 46.4833 -2.37846 2.05613 0
M  V30 508 N 50.2554 -1.46986 0.568584 0
M  V30 509 C 51.1874 -2.28233 -0.210337 0
M  V30 510 C 52.2004 -1.37682 -0.868767 0
M  V30 511 O 53.3894 -1.62406 -0.740705 0
M  V30 512 C 50.4894 -3.12293 -1.3163 0
M  V30 513 C 49.6624 -4.30878 -0.7525 0
M  V30 514 C 48.7214 -4.96445 -1.74439 0
M  V30 515 O 47.7474 -5.54482 -1.286 0
M  V30 516 N 48.9494 -4.92171 -3.07812 0
M  V30 517 H 51.7144 -2.95723 0.486648 0
M  V30 518 H 49.2754 -1.56742 0.405409 0
M  V30 519 H 51.2674 -3.53022 -1.97883 0
M  V30 520 H 49.8374 -2.46971 -1.91636 0
M  V30 521 H 49.0574 -3.94104 0.0871128 0
M  V30 522 H 50.3454 -5.07558 -0.35536 0
M  V30 523 H 49.7434 -4.46239 -3.47688 0
M  V30 524 H 48.3004 -5.36884 -3.69592 0
M  V30 525 N 51.7335 -0.305618 -1.54608 0
M  V30 526 C 52.9615 0.304775 -2.04643 0
M  V30 527 C 53.3765 1.47167 -1.18268 0
M  V30 528 O 52.7335 1.81296 -0.209328 0
M  V30 529 C 52.7845 0.756564 -3.53495 0
M  V30 530 O 52.5055 -0.36389 -4.36586 0
M  V30 531 C 54.0065 1.43163 -4.19546 0
M  V30 532 H 51.2265 0.0655481 -0.667791 0
M  V30 533 H 53.7705 -0.446592 -1.99564 0
M  V30 534 H 51.9255 1.45794 -3.58919 0
M  V30 535 H 52.3395 -0.0113121 -5.24499 0
M  V30 536 H 53.8135 1.69886 -5.25207 0
M  V30 537 H 54.2905 2.37318 -3.69563 0
M  V30 538 H 54.8965 0.773307 -4.18211 0
M  V30 539 N 53.2116 1.57565 -0.0334293 0
M  V30 540 C 54.4606 1.91155 0.643639 0
M  V30 541 C 54.7736 0.91192 1.73042 0
M  V30 542 O 55.9796 1.13923 2.46442 0
M  V30 543 C 54.4356 3.39443 1.1961 0
M  V30 544 C 54.0436 4.47774 0.142381 0
M  V30 545 C 55.7876 3.82094 1.84944 0
M  V30 546 C 53.6946 5.87162 0.706727 0
M  V30 547 H 52.6246 0.713368 0.244176 0
M  V30 548 H 55.2756 1.8323 -0.0994323 0
M  V30 549 H 53.6576 3.42313 1.99092 0
M  V30 550 H 54.8316 4.56469 -0.630296 0
M  V30 551 H 53.1466 4.14352 -0.412446 0
M  V30 552 H 55.7436 4.83591 2.2813 0
M  V30 553 H 56.0866 3.17386 2.69392 0
M  V30 554 H 56.6196 3.81665 1.12145 0
M  V30 555 H 53.3586 6.55424 -0.0997178 0
M  V30 556 H 52.8786 5.82064 1.44779 0
M  V30 557 H 54.5576 6.35866 1.19514 0
M  V30 558 N 54.6897 -0.239769 1.55765 0
M  V30 559 C 55.6197 -1.30052 1.9393 0
M  V30 560 C 56.6007 -1.49839 0.805132 0
M  V30 561 O 57.7857 -1.62328 1.06599 0
M  V30 562 C 54.9157 -2.65391 2.2402 0
M  V30 563 C 53.8697 -2.60289 3.39755 0
M  V30 564 C 53.1957 -3.99489 3.55405 0
M  V30 565 C 54.4957 -2.16654 4.75246 0
M  V30 566 H 56.1897 -0.983573 2.82783 0
M  V30 567 H 53.7357 -0.471701 1.36055 0
M  V30 568 H 55.6887 -3.3974 2.49308 0
M  V30 569 H 54.4127 -2.98736 1.32 0
M  V30 570 H 53.0717 -1.88398 3.14487 0
M  V30 571 H 52.7197 -4.30112 2.60793 0
M  V30 572 H 52.4197 -3.96962 4.33238 0
M  V30 573 H 53.9437 -4.75528 3.83022 0
M  V30 574 H 55.3577 -2.80737 4.99859 0
M  V30 575 H 53.7547 -2.25223 5.56232 0
M  V30 576 H 54.8247 -1.11835 4.71827 0
M  V30 577 N 56.1678 -1.49265 -0.50573 0
M  V30 578 C 57.0778 -1.68312 -1.63427 0
M  V30 579 C 58.0938 -0.565682 -1.64548 0
M  V30 580 O 59.2698 -0.839801 -1.83055 0
M  V30 581 C 56.3348 -1.74107 -2.99813 0
M  V30 582 C 55.3958 -2.97653 -3.09356 0
M  V30 583 C 54.6288 -3.03163 -4.39236 0
M  V30 584 O 54.8518 -2.16396 -5.27758 0
M  V30 585 O 53.7858 -3.9558 -4.53652 0
M  V30 586 H 57.6118 -2.63907 -1.50289 0
M  V30 587 H 55.1968 -1.32951 -0.681502 0
M  V30 588 H 57.0788 -1.803 -3.80881 0
M  V30 589 H 55.7538 -0.816901 -3.13223 0
M  V30 590 H 54.6608 -2.96981 -2.27493 0
M  V30 591 H 55.9938 -3.89535 -3.00871 0
M  V30 592 N 57.6459 0.756429 -1.3826 0
M  V30 593 C 58.5959 1.86069 -1.31766 0
M  V30 594 C 59.5799 1.59621 -0.202483 0
M  V30 595 O 60.7719 1.7149 -0.438211 0
M  V30 596 C 57.9009 3.23742 -1.1422 0
M  V30 597 C 56.9869 3.56091 -2.30348 0
M  V30 598 N 57.3779 3.59517 -3.55783 0
M  V30 599 C 55.6759 3.86341 -2.22838 0
M  V30 600 C 56.3769 3.89052 -4.32451 0
M  V30 601 N 55.3529 4.05736 -3.61772 0
M  V30 602 H 59.1549 1.86992 -2.26741 0
M  V30 603 H 56.6689 0.953643 -1.31451 0
M  V30 604 H 58.6659 4.02761 -1.07652 0
M  V30 605 H 57.3259 3.24073 -0.201763 0
M  V30 606 H 58.3369 3.41347 -3.89491 0
M  V30 607 H 55.0139 3.94404 -1.36937 0
M  V30 608 H 56.4039 3.98349 -5.4108 0
M  V30 609 N 59.124 1.23083 0.984299 0
M  V30 610 C 60.349 1.088 1.76571 0
M  V30 611 C 60.774 -0.356657 1.84688 0
M  V30 612 O 60.132 -1.25788 1.30565 0
M  V30 613 C 60.18 1.71371 3.17277 0
M  V30 614 O 59.284 0.973213 4.00752 0
M  V30 615 H 58.625 0.381599 0.543395 0
M  V30 616 H 61.155 1.63057 1.23587 0
M  V30 617 H 61.165 1.76449 3.67872 0
M  V30 618 H 59.84 2.76493 3.10684 0
M  V30 619 H 58.417 0.999078 3.59267 0
M  V30 620 N 60.6021 -1.18246 1.0419 0
M  V30 621 C 61.8481 -1.88536 0.747122 0
M  V30 622 C 62.1811 -1.80223 -0.723409 0
M  V30 623 O 61.4561 -1.20337 -1.52804 0
M  V30 624 C 61.7391 -3.38968 1.21544 0
M  V30 625 C 61.5921 -3.56084 2.74816 0
M  V30 626 C 62.9111 -4.32648 0.806482 0
M  V30 627 H 60.0301 -0.684619 0.272883 0
M  V30 628 H 62.6721 -1.39113 1.29413 0
M  V30 629 H 60.8221 -3.8119 0.750081 0
M  V30 630 H 62.4941 -3.22946 3.29399 0
M  V30 631 H 60.7371 -2.98699 3.14582 0
M  V30 632 H 61.4081 -4.61639 3.02644 0
M  V30 633 H 63.8841 -3.98211 1.20695 0
M  V30 634 H 62.7601 -5.36462 1.1619 0
M  V30 635 H 63.0211 -4.41146 -0.29029 0
M  V30 636 N 62.0802 -0.821533 -1.34494 0
M  V30 637 C 63.0302 -0.214793 -2.26986 0
M  V30 638 C 64.0142 0.620125 -1.4847 0
M  V30 639 O 65.2062 0.474933 -1.70509 0
M  V30 640 C 62.3352 0.623566 -3.37589 0
M  V30 641 C 61.4212 -0.221904 -4.23519 0
M  V30 642 N 61.8122 -1.29223 -4.89014 0
M  V30 643 C 60.1102 -0.00600922 -4.46 0
M  V30 644 C 60.8112 -1.80965 -5.52835 0
M  V30 645 N 59.7872 -1.11376 -5.32068 0
M  V30 646 H 63.5892 -1.03354 -2.75128 0
M  V30 647 H 61.1032 -0.6642 -1.48196 0
M  V30 648 H 63.1002 1.0744 -4.02818 0
M  V30 649 H 61.7602 1.44049 -2.90998 0
M  V30 650 H 62.7712 -1.67502 -4.90065 0
M  V30 651 H 59.4482 0.77886 -4.10171 0
M  V30 652 H 60.8382 -2.70502 -6.15043 0
M  V30 653 N 63.5583 1.46682 -0.576371 0
M  V30 654 C 64.5213 2.28707 0.150239 0
M  V30 655 C 65.5213 1.38035 0.824794 0
M  V30 656 O 66.7113 1.60476 0.677719 0
M  V30 657 C 63.8433 3.18248 1.22192 0
M  V30 658 H 65.0363 2.94423 -0.570521 0
M  V30 659 H 62.5893 1.52688 -0.334078 0
M  V30 660 H 63.3243 2.57265 1.97447 0
M  V30 661 H 63.1093 3.85 0.742812 0
M  V30 662 H 64.5993 3.80001 1.73172 0
M  V30 663 N 65.0364 0.313813 1.54444 0
M  V30 664 C 65.9664 -0.549454 2.26943 0
M  V30 665 C 66.9474 -1.12741 1.27372 0
M  V30 666 O 68.1324 -1.15436 1.56167 0
M  V30 667 C 65.2624 -1.71523 3.01989 0
M  V30 668 C 64.2164 -1.26703 4.08816 0
M  V30 669 C 63.5424 -2.51898 4.71647 0
M  V30 670 C 64.8424 -0.388962 5.2085 0
M  V30 671 H 66.5364 0.0552661 2.99349 0
M  V30 672 H 64.0824 0.0280207 1.43973 0
M  V30 673 H 66.0354 -2.32535 3.51433 0
M  V30 674 H 64.7594 -2.34639 2.27183 0
M  V30 675 H 63.4184 -0.679896 3.6024 0
M  V30 676 H 63.0664 -3.13356 3.93468 0
M  V30 677 H 62.7664 -2.22605 5.43802 0
M  V30 678 H 64.2904 -3.1369 5.23861 0
M  V30 679 H 65.7044 -0.905107 5.6611 0
M  V30 680 H 64.1014 -0.18924 5.99802 0
M  V30 681 H 65.1714 0.582699 4.81386 0
M  V30 682 N 66.5145 -1.57545 0.0417849 0
M  V30 683 C 67.4445 -2.14009 -0.933929 0
M  V30 684 C 68.4255 -1.05938 -1.33083 0
M  V30 685 O 69.6105 -1.33833 -1.40721 0
M  V30 686 C 66.7405 -2.67747 -2.21199 0
M  V30 687 C 65.6945 -3.80718 -1.95544 0
M  V30 688 C 65.0205 -4.20935 -3.29724 0
M  V30 689 C 66.3205 -5.06258 -1.28452 0
M  V30 690 H 68.0145 -2.95788 -0.463645 0
M  V30 691 H 65.5605 -1.42285 -0.221573 0
M  V30 692 H 67.5135 -3.05886 -2.89848 0
M  V30 693 H 66.2375 -1.83147 -2.70416 0
M  V30 694 H 64.8965 -3.43037 -1.2931 0
M  V30 695 H 64.5445 -3.33298 -3.76724 0
M  V30 696 H 64.2445 -4.9707 -3.13361 0
M  V30 697 H 65.7685 -4.61666 -3.9962 0
M  V30 698 H 67.1825 -5.41903 -1.8712 0
M  V30 699 H 65.5795 -5.87475 -1.22445 0
M  V30 700 H 66.6495 -4.84207 -0.259219 0
M  V30 701 N 67.9926 0.231505 -1.5589 0
M  V30 702 C 68.9556 1.27028 -1.90779 0
M  V30 703 C 69.9556 1.40308 -0.785507 0
M  V30 704 O 71.1456 1.38744 -1.05336 0
M  V30 705 C 68.2776 2.64566 -2.14983 0
M  V30 706 H 69.4706 0.973017 -2.83677 0
M  V30 707 H 67.0236 0.471486 -1.49019 0
M  V30 708 H 67.7586 2.99406 -1.24604 0
M  V30 709 H 67.5436 2.56305 -2.96732 0
M  V30 710 H 69.0336 3.39543 -2.43105 0
M  V30 711 N 69.4707 1.49531 0.497807 0
M  V30 712 C 70.4207 1.62829 1.59596 0
M  V30 713 C 71.4047 0.483824 1.53453 0
M  V30 714 O 72.5967 0.736937 1.60929 0
M  V30 715 C 69.7257 1.7011 2.98191 0
M  V30 716 C 68.8117 2.90144 3.09317 0
M  V30 717 N 69.2027 4.1418 2.90324 0
M  V30 718 C 67.5007 2.88148 3.40422 0
M  V30 719 C 68.2017 4.94886 3.05717 0
M  V30 720 N 67.1777 4.28314 3.34736 0
M  V30 721 H 70.9797 2.56446 1.4357 0
M  V30 722 H 68.4937 1.46347 0.704001 0
M  V30 723 H 70.4907 1.77735 3.77115 0
M  V30 724 H 69.1507 0.776315 3.15283 0
M  V30 725 H 70.1617 4.44109 2.66436 0
M  V30 726 H 66.8387 2.05061 3.63671 0
M  V30 727 H 68.2287 6.03432 2.95499 0
M  V30 728 N 70.9488 -0.749086 1.3866 0
M  V30 729 C 72.3598 -1.32664 1.31366 0
M  V30 730 C 72.7108 -1.96179 -0.028484 0
M  V30 731 O 71.8358 -1.9537 -0.93057 0
M  V30 732 C 72.4308 -2.41219 2.37905 0
M  V30 733 C 70.9898 -2.94684 2.34176 0
M  V30 734 C 70.1368 -1.68108 2.20533 0
M  V30 735 H 73.0878 -0.547628 1.48952 0
M  V30 736 H 73.1088 -3.21268 2.0388 0
M  V30 737 H 72.6208 -1.94962 3.35576 0
M  V30 738 H 70.7218 -3.45258 1.401 0
M  V30 739 H 70.8348 -3.48757 3.2849 0
M  V30 740 H 69.1988 -1.91907 1.67463 0
M  V30 741 H 69.9818 -1.23923 3.20153 0
M  V30 742 N 72.4269 -1.23603 -0.977757 0
M  V30 743 C 73.8429 -0.999251 -1.24447 0
M  V30 744 C 74.0429 0.298053 -1.99283 0
M  V30 745 O 73.0989 1.01681 -2.31122 0
M  V30 746 C 74.4119 -2.20784 -2.04144 0
M  V30 747 C 75.9599 -2.25303 -2.17273 0
M  V30 748 C 76.4349 -3.45755 -3.00362 0
M  V30 749 N 77.9259 -3.4601 -3.07947 0
M  V30 750 C 78.6609 -4.35868 -3.72568 0
M  V30 751 N 78.1569 -5.35966 -4.38991 0
M  V30 752 N 79.9499 -4.23605 -3.6948 0
M  V30 753 H 72.1009 -2.06986 -0.476483 0
M  V30 754 H 74.3639 -0.907801 -0.273134 0
M  V30 755 H 74.0699 -3.14945 -1.56533 0
M  V30 756 H 73.9439 -2.22085 -3.04891 0
M  V30 757 H 76.3309 -1.3168 -2.64092 0
M  V30 758 H 76.4119 -2.28033 -1.15907 0
M  V30 759 H 76.0559 -4.39687 -2.5424 0
M  V30 760 H 75.9859 -3.40266 -4.01904 0
M  V30 761 H 78.4769 -2.73588 -2.60688 0
M  V30 762 H 78.7899 -6.00783 -4.86086 0
M  V30 763 H 77.1349 -5.39863 -4.37691 0
M  V30 764 H 80.3259 -3.44647 -3.16759 0
M  V30 765 H 80.4989 -4.93836 -4.1956 0
M  V30 766 N 73.905 1.17692 -1.04816 0
M  V30 767 C 75.151 1.88137 -0.75711 0
M  V30 768 C 75.484 1.80604 0.713841 0
M  V30 769 O 74.759 1.21146 1.52164 0
M  V30 770 C 75.042 3.38318 -1.2334 0
M  V30 771 C 74.895 3.54622 -2.76701 0
M  V30 772 C 76.214 4.32214 -0.829415 0
M  V30 773 H 73.333 0.683163 -0.27651 0
M  V30 774 H 75.975 1.38424 -1.30149 0
M  V30 775 H 74.125 3.80787 -0.770286 0
M  V30 776 H 75.797 3.21194 -3.31107 0
M  V30 777 H 74.04 2.97026 -3.16161 0
M  V30 778 H 74.711 4.60028 -3.05088 0
M  V30 779 H 77.187 3.97565 -1.22805 0
M  V30 780 H 76.063 5.35838 -1.19033 0
M  V30 781 H 76.324 4.41294 0.266891 0
M  V30 782 N 75.3831 0.828654 1.34056 0
M  V30 783 C 76.3301 0.252567 2.29414 0
M  V30 784 C 77.3001 -0.62588 1.53857 0
M  V30 785 O 78.4851 -0.566312 1.82202 0
M  V30 786 C 75.6251 -0.574831 3.40279 0
M  V30 787 C 74.7381 0.326499 4.30764 0
M  V30 788 C 73.8731 -0.511016 5.28736 0
M  V30 789 C 72.9121 0.389342 6.1086 0
M  V30 790 N 72.0491 -0.409439 7.00905 0
M  V30 791 H 76.8891 1.07108 2.78086 0
M  V30 792 H 74.4261 0.539677 1.36843 0
M  V30 793 H 76.3841 -1.06992 4.03248 0
M  V30 794 H 75.0141 -1.35841 2.92826 0
M  V30 795 H 74.0661 0.939837 3.68607 0
M  V30 796 H 75.3781 1.01857 4.88289 0
M  V30 797 H 74.5321 -1.07035 5.97184 0
M  V30 798 H 73.2711 -1.23657 4.71763 0
M  V30 799 H 72.2761 0.960769 5.4134 0
M  V30 800 H 73.5011 1.1131 6.69916 0
M  V30 801 H 71.4471 -1.11856 6.46393 0
M  V30 802 H 71.3641 0.224126 7.55668 0
M  V30 803 H 72.6321 -0.951336 7.73673 0
M  V30 804 N 76.8612 -1.46375 0.584142 0
M  V30 805 C 78.2772 -1.57694 0.245929 0
M  V30 806 C 78.4772 -1.57903 -1.25175 0
M  V30 807 O 77.5332 -1.49676 -2.03355 0
M  V30 808 C 78.8462 -2.87028 0.896402 0
M  V30 809 C 80.3942 -3.00662 0.870127 0
M  V30 810 C 80.8692 -4.32734 1.50017 0
M  V30 811 N 82.3602 -4.39436 1.46458 0
M  V30 812 C 83.0952 -5.40248 1.92144 0
M  V30 813 N 82.5912 -6.47726 2.4581 0
M  V30 814 N 84.3842 -5.31459 1.83052 0
M  V30 815 H 76.5352 -1.44483 1.55687 0
M  V30 816 H 78.7982 -0.689291 0.650831 0
M  V30 817 H 78.5042 -2.9269 1.95002 0
M  V30 818 H 78.3782 -3.75014 0.405486 0
M  V30 819 H 80.7652 -2.94581 -0.174871 0
M  V30 820 H 80.8462 -2.14148 1.39908 0
M  V30 821 H 80.4902 -4.39573 2.54437 0
M  V30 822 H 80.4202 -5.18025 0.946432 0
M  V30 823 H 82.9112 -3.62367 1.07231 0
M  V30 824 H 83.2242 -7.20863 2.78525 0
M  V30 825 H 81.5692 -6.48542 2.49836 0
M  V30 826 H 84.7602 -4.46396 1.40883 0
M  V30 827 H 84.9332 -6.09881 2.18973 0
M  V30 828 N 78.3393 -0.321999 -1.54275 0
M  V30 829 C 79.5853 0.281461 -2.00837 0
M  V30 830 C 79.9183 1.51909 -1.20985 0
M  V30 831 O 79.1933 1.923 -0.291733 0
M  V30 832 C 79.4763 0.617162 -3.54772 0
M  V30 833 C 79.3293 -0.631064 -4.45351 0
M  V30 834 C 80.6483 1.43542 -4.16033 0
M  V30 835 H 77.7673 0.100826 -0.730071 0
M  V30 836 H 80.4093 -0.438268 -1.84876 0
M  V30 837 H 78.5593 1.23034 -3.68504 0
M  V30 838 H 80.2313 -1.26934 -4.43492 0
M  V30 839 H 78.4743 -1.26025 -4.15091 0
M  V30 840 H 79.1453 -0.351735 -5.50878 0
M  V30 841 H 81.6213 0.917134 -4.05867 0
M  V30 842 H 80.4973 1.63907 -5.23856 0
M  V30 843 H 80.7583 2.43108 -3.69257 0
M  V30 844 N 79.8174 1.5752 -0.0501392 0
M  V30 845 C 81.0634 1.92936 0.624798 0
M  V30 846 C 81.3964 0.928685 1.70555 0
M  V30 847 O 80.6714 -0.0454779 1.94447 0
M  V30 848 C 80.9544 3.38737 1.22185 0
M  V30 849 C 80.8074 4.49552 0.149218 0
M  V30 850 C 82.1264 3.84913 2.13378 0
M  V30 851 H 79.2454 0.701604 0.225657 0
M  V30 852 H 81.8874 1.89671 -0.111693 0
M  V30 853 H 80.0374 3.4165 1.84953 0
M  V30 854 H 81.7094 4.58768 -0.482648 0
M  V30 855 H 79.9524 4.30638 -0.522841 0
M  V30 856 H 80.6234 5.48653 0.606966 0
M  V30 857 H 83.0994 3.8387 1.60572 0
M  V30 858 H 81.9754 4.87584 2.52097 0
M  V30 859 H 82.2364 3.21611 3.03346 0
M  V30 860 N 81.2955 -0.223234 1.56011 0
M  V30 861 C 82.5445 -0.945912 1.78144 0
M  V30 862 C 82.8575 -1.85567 0.618396 0
M  V30 863 O 84.0635 -2.61688 0.723318 0
M  V30 864 C 82.5195 -1.73216 3.15475 0
M  V30 865 C 82.1275 -0.868619 4.39499 0
M  V30 866 C 83.8715 -2.44615 3.46935 0
M  V30 867 C 81.7785 -1.65212 5.67855 0
M  V30 868 H 80.7085 -0.356929 0.664167 0
M  V30 869 H 83.3595 -0.199845 1.82409 0
M  V30 870 H 81.7415 -2.52107 3.05382 0
M  V30 871 H 82.9155 -0.120366 4.60643 0
M  V30 872 H 81.2305 -0.26683 4.15544 0
M  V30 873 H 83.8275 -3.03732 4.40058 0
M  V30 874 H 84.1705 -3.17417 2.69355 0
M  V30 875 H 84.7035 -1.72715 3.58349 0
M  V30 876 H 81.4425 -0.967407 6.48322 0
M  V30 877 H 80.9625 -2.37503 5.50774 0
M  V30 878 H 82.6415 -2.21322 6.07968 0
M  V30 879 N 82.7736 -1.49793 -0.48987 0
M  V30 880 C 83.7366 -1.66752 -1.57246 0
M  V30 881 C 84.7366 -0.538867 -1.51502 0
M  V30 882 O 85.9266 -0.805545 -1.54456 0
M  V30 883 C 83.0586 -1.67528 -2.96896 0
M  V30 884 H 84.2516 -2.63321 -1.43534 0
M  V30 885 H 81.8046 -1.38992 -0.714914 0
M  V30 886 H 82.5396 -0.725837 -3.16073 0
M  V30 887 H 82.3246 -2.49504 -3.02473 0
M  V30 888 H 83.8146 -1.82667 -3.7553 0
M  V30 889 N 84.2517 0.741722 -1.39055 0
M  V30 890 C 85.5007 1.49656 -1.35225 0
M  V30 891 C 85.8137 1.95533 0.0512708 0
M  V30 892 O 87.0197 2.7067 0.212138 0
M  V30 893 C 85.4757 2.70389 -2.37525 0
M  V30 894 C 85.0837 2.31489 -3.83558 0
M  V30 895 C 86.8277 3.48236 -2.42759 0
M  V30 896 C 84.7347 3.48903 -4.77515 0
M  V30 897 H 83.6647 0.56197 -0.502699 0
M  V30 898 H 86.3157 0.809727 -1.64668 0
M  V30 899 H 84.6977 3.41113 -2.01142 0
M  V30 900 H 85.8717 1.68354 -4.28945 0
M  V30 901 H 84.1867 1.66749 -3.81554 0
M  V30 902 H 86.7837 4.35558 -3.1015 0
M  V30 903 H 87.1267 3.90229 -1.45008 0
M  V30 904 H 87.6597 2.84535 -2.78002 0
M  V30 905 H 84.3987 3.11966 -5.76504 0
M  V30 906 H 83.9187 4.11041 -4.36813 0
M  V30 907 H 85.5977 4.15328 -4.96096 0
M  V30 908 N 85.7298 1.2412 0.971189 0
M  V30 909 C 86.9548 1.10667 1.75407 0
M  V30 910 C 87.3798 -0.337048 1.85056 0
M  V30 911 O 86.7378 -1.24396 1.31892 0
M  V30 912 C 86.7858 1.74726 3.15441 0
M  V30 913 O 85.8898 1.01566 3.99697 0
M  V30 914 H 85.2308 0.387341 0.539317 0
M  V30 915 H 87.7608 1.64358 1.2185 0
M  V30 916 H 87.7708 1.80341 3.6598 0
M  V30 917 H 86.4458 2.79773 3.07734 0
M  V30 918 H 85.0228 1.03713 3.58187 0
M  V30 919 N 87.2079 -1.17134 1.05439 0
M  V30 920 C 88.6189 -1.69084 0.791676 0
M  V30 921 C 88.9699 -1.83822 -0.685839 0
M  V30 922 O 88.0949 -1.52757 -1.53278 0
M  V30 923 C 88.6899 -3.07119 1.4305 0
M  V30 924 C 87.2489 -3.56225 1.21577 0
M  V30 925 C 86.3959 -2.32421 1.51247 0
M  V30 926 H 89.3469 -1.01617 1.219 0
M  V30 927 H 89.3679 -3.71087 0.84112 0
M  V30 928 H 88.8799 -2.9636 2.50584 0
M  V30 929 H 86.9809 -3.72257 0.159787 0
M  V30 930 H 87.0939 -4.38837 1.92246 0
M  V30 931 H 85.4579 -2.3701 0.932653 0
M  V30 932 H 86.2409 -2.24268 2.5992 0
M  V30 933 N 88.686 -0.835752 -1.33615 0
M  V30 934 C 89.934 -0.429109 -1.97492 0
M  V30 935 C 90.255 1.01433 -1.66543 0
M  V30 936 O 89.525 1.70611 -0.962744 0
M  V30 937 H 88.105 -0.155686 -0.730596 0
M  V30 938 H 90.767 -1.06802 -1.63031 0
M  V30 939 H 89.863 -0.55861 -3.0706 0
M  V30 940 N 90.1641 1.46063 -0.591896 0
M  V30 941 C 91.4411 1.95595 -0.0137119 0
M  V30 942 C 91.8211 1.5345 1.4497 0
M  V30 943 O 91.1691 0.789543 2.14426 0
M  V30 944 C 91.3791 3.48453 -0.195373 0
M  V30 945 C 92.7271 4.24546 -0.0679765 0
M  V30 946 O 93.7511 3.55982 -0.124681 0
M  V30 947 O 92.6101 5.46467 0.0600579 0
M  V30 948 H 89.7041 0.825795 0.0446279 0
M  V30 949 H 92.2501 1.56303 -0.660859 0
M  V30 950 H 91.0221 3.72045 -1.21235 0
M  V30 951 H 90.6451 3.94597 0.487775 0
M  V30 952 N 91.6422 0.330177 1.54103 0
M  V30 953 C 92.8672 -0.274893 2.0557 0
M  V30 954 C 93.2922 -1.44487 1.20437 0
M  V30 955 O 92.6502 -1.80021 0.214991 0
M  V30 956 C 92.6982 -0.68079 3.54115 0
M  V30 957 O 91.8022 -1.7824 3.71893 0
M  V30 958 H 91.1432 -0.0483849 0.662235 0
M  V30 959 H 93.6732 0.480508 1.98878 0
M  V30 960 H 93.6832 -0.961635 3.96505 0
M  V30 961 H 92.3582 0.174903 4.15532 0
M  V30 962 H 90.9352 -1.49985 3.41407 0
M  V30 963 N 93.1203 -1.57491 0.0584922 0
M  V30 964 C 94.5363 -1.56792 -0.298091 0
M  V30 965 C 94.7363 -1.06679 -1.70944 0
M  V30 966 O 93.7923 -0.726672 -2.41818 0
M  V30 967 C 95.1053 -3.00461 -0.119879 0
M  V30 968 C 96.6533 -3.1242 -0.190428 0
M  V30 969 C 97.1283 -4.57982 -0.0406567 0
M  V30 970 N 98.6193 -4.63099 -0.0966958 0
M  V30 971 C 99.3543 -5.734 -0.00502943 0
M  V30 972 N 98.8503 -6.9266 0.139402 0
M  V30 973 N 100.643 -5.62067 -0.0611391 0
M  V30 974 H 92.7943 -1.88386 0.98105 0
M  V30 975 H 95.0573 -0.867865 0.381463 0
M  V30 976 H 94.7633 -3.41187 0.85349 0
M  V30 977 H 94.6373 -3.66843 -0.877833 0
M  V30 978 H 97.0243 -2.71589 -1.15427 0
M  V30 979 H 97.1053 -2.48702 0.598405 0
M  V30 980 H 96.7493 -4.995 0.919897 0
M  V30 981 H 96.6793 -5.19715 -0.848727 0
M  V30 982 H 99.1703 -3.77331 -0.207277 0
M  V30 983 H 99.4833 -7.72536 0.201855 0
M  V30 984 H 97.8283 -6.94781 0.174586 0
M  V30 985 H 101.019 -4.67782 -0.172583 0
M  V30 986 H 101.192 -6.47999 0.0137562 0
M  V30 987 N 94.5984 0.214957 -1.56127 0
M  V30 988 C 95.8454 0.938372 -1.79446 0
M  V30 989 C 96.1734 1.8407 -0.628378 0
M  V30 990 O 95.4284 1.91837 0.386925 0
M  V30 991 C 95.7274 1.80314 -3.0858 0
M  V30 992 C 95.3934 1.05349 -4.3842 0
M  V30 993 C 94.0554 0.846435 -4.73697 0
M  V30 994 C 96.4074 0.524588 -5.18553 0
M  V30 995 C 93.7354 0.098683 -5.86617 0
M  V30 996 C 96.0874 -0.209853 -6.32252 0
M  V30 997 C 94.7514 -0.428102 -6.66126 0
M  V30 998 H 94.0214 0.343375 -0.656639 0
M  V30 999 H 96.6684 0.206077 -1.90388 0
M  V30 1000 H 94.9734 2.6035 -2.92789 0
M  V30 1001 H 96.6704 2.36513 -3.23825 0
M  V30 1002 H 93.2604 1.22486 -4.10725 0
M  V30 1003 H 97.4444 0.672008 -4.91729 0
M  V30 1004 H 92.7004 -0.0805753 -6.11347 0
M  V30 1005 H 96.8744 -0.627157 -6.9357 0
M  V30 1006 H 94.5014 -1.00944 -7.53468 0
M  V30 1007 N 96.0765 1.50051 0.48192 0
M  V30 1008 C 97.0395 1.67584 1.5636 0
M  V30 1009 C 98.0395 0.546894 1.51214 0
M  V30 1010 O 99.2295 0.813725 1.54026 0
M  V30 1011 C 96.3615 1.691 2.96003 0
M  V30 1012 H 97.5545 2.64078 1.42136 0
M  V30 1013 H 95.1075 1.39369 0.707533 0
M  V30 1014 H 95.8425 0.742589 3.15684 0
M  V30 1015 H 95.6275 2.51105 3.01146 0
M  V30 1016 H 97.1175 1.84656 3.74556 0
M  V30 1017 N 97.5546 -0.734337 1.39446 0
M  V30 1018 C 98.4866 -1.85861 1.34121 0
M  V30 1019 C 99.4996 -1.60871 0.249864 0
M  V30 1020 O 100.689 -1.71093 0.508865 0
M  V30 1021 C 97.7886 -3.21899 1.05991 0
M  V30 1022 C 96.9616 -3.74239 2.26415 0
M  V30 1023 C 96.0206 -4.88841 1.94733 0
M  V30 1024 O 95.0466 -5.02468 2.67422 0
M  V30 1025 N 96.2486 -5.73261 0.913884 0
M  V30 1026 H 99.0136 -1.90934 2.31007 0
M  V30 1027 H 96.5746 -0.915102 1.33557 0
M  V30 1028 H 98.5666 -3.96136 0.828147 0
M  V30 1029 H 97.1366 -3.12091 0.178361 0
M  V30 1030 H 96.3566 -2.91347 2.65539 0
M  V30 1031 H 97.6446 -4.05942 3.06738 0
M  V30 1032 H 97.0426 -5.64842 0.311476 0
M  V30 1033 H 95.5996 -6.47563 0.742015 0
M  V30 1034 N 99.0327 -1.24633 -0.964593 0
M  V30 1035 C 99.9627 -1.06611 -2.07741 0
M  V30 1036 C 100.944 0.0218666 -1.70086 0
M  V30 1037 O 102.129 -0.145793 -1.93652 0
M  V30 1038 C 99.2587 -0.673444 -3.40708 0
M  V30 1039 C 98.2127 -1.71054 -3.92332 0
M  V30 1040 C 97.5387 -1.17285 -5.21678 0
M  V30 1041 C 98.8387 -3.10718 -4.19824 0
M  V30 1042 H 100.533 -1.99693 -2.23076 0
M  V30 1043 H 98.0787 -0.96152 -1.07195 0
M  V30 1044 H 100.032 -0.534345 -4.17998 0
M  V30 1045 H 98.7557 0.293073 -3.25282 0
M  V30 1046 H 97.4147 -1.83791 -3.17201 0
M  V30 1047 H 97.0627 -0.196847 -5.02615 0
M  V30 1048 H 96.7627 -1.86592 -5.57187 0
M  V30 1049 H 98.2867 -1.04593 -6.01575 0
M  V30 1050 H 99.7007 -3.01192 -4.87808 0
M  V30 1051 H 98.0977 -3.77406 -4.66567 0
M  V30 1052 H 99.1677 -3.58524 -3.26479 0
M  V30 1053 N 100.511 1.16574 -1.06058 0
M  V30 1054 C 101.922 1.68662 -0.800632 0
M  V30 1055 C 102.273 1.84184 0.67608 0
M  V30 1056 O 101.398 1.53568 1.52466 0
M  V30 1057 C 101.993 3.06356 -1.44676 0
M  V30 1058 C 100.552 3.55575 -1.23465 0
M  V30 1059 C 99.6988 2.31616 -1.52477 0
M  V30 1060 H 102.65 1.00969 -1.22438 0
M  V30 1061 H 102.671 3.70636 -0.860788 0
M  V30 1062 H 102.183 2.95027 -2.52152 0
M  V30 1063 H 100.284 3.72167 -0.179527 0
M  V30 1064 H 100.397 4.37812 -1.94571 0
M  V30 1065 H 98.7608 2.36512 -0.945209 0
M  V30 1066 H 99.5438 2.22887 -2.61106 0
M  V30 1067 N 101.989 0.842826 1.3317 0
M  V30 1068 C 102.919 0.294028 2.31641 0
M  V30 1069 C 103.9 -0.600401 1.59151 0
M  V30 1070 O 105.085 -0.523124 1.87022 0
M  V30 1071 C 102.215 -0.528416 3.43257 0
M  V30 1072 C 101.169 0.27056 4.27144 0
M  V30 1073 C 100.495 -0.675881 5.30411 0
M  V30 1074 C 101.795 1.48981 5.00602 0
M  V30 1075 H 103.489 1.11681 2.77791 0
M  V30 1076 H 101.035 0.538478 1.33553 0
M  V30 1077 H 102.988 -0.922674 4.11175 0
M  V30 1078 H 101.712 -1.38445 2.95805 0
M  V30 1079 H 100.371 0.646427 3.60856 0
M  V30 1080 H 100.019 -1.52842 4.79216 0
M  V30 1081 H 99.7189 -0.145374 5.8742 0
M  V30 1082 H 101.243 -1.06757 6.01195 0
M  V30 1083 H 102.657 1.16849 5.61266 0
M  V30 1084 H 101.054 1.95739 5.6728 0
M  V30 1085 H 102.124 2.25746 4.29147 0
M  V30 1086 N 103.467 -1.45747 0.599634 0
M  V30 1087 C 104.43 -2.28917 -0.113835 0
M  V30 1088 C 105.43 -1.3933 -0.802729 0
M  V30 1089 O 106.62 -1.61534 -0.652103 0
M  V30 1090 C 103.752 -3.20152 -1.17114 0
M  V30 1091 H 104.945 -2.93478 0.617289 0
M  V30 1092 H 102.498 -1.52137 0.358327 0
M  V30 1093 H 103.233 -2.60374 -1.93329 0
M  V30 1094 H 103.018 -3.86133 -0.681468 0
M  V30 1095 H 104.508 -3.82708 -1.67105 0
M  V30 1096 N 104.945 -0.338344 -1.53925 0
M  V30 1097 C 105.893 0.536231 -2.26335 0
M  V30 1098 C 106.887 1.1063 -1.28286 0
M  V30 1099 O 108.093 1.05264 -1.46012 0
M  V30 1100 H 104.468 0.191602 -0.727181 0
M  V30 1101 H 106.439 -0.0965747 -2.98244 0
M  V30 1102 C 105.188 1.67803 -3.04528 0
M  V30 1103 H 104.511 1.24864 -3.79801 0
M  V30 1104 H 105.951 2.26526 -3.58416 0
M  V30 1105 C 104.41 2.60439 -2.13712 0
M  V30 1106 O 104.94 3.6255 -1.72975 0
M  V30 1107 N 103.146 2.29006 -1.78898 0
M  V30 1108 H 102.693 1.46011 -2.12223 0
M  V30 1109 H 102.651 2.91248 -1.18416 0
M  V30 1110 N 106.423 1.57458 -0.0668435 0
M  V30 1111 C 107.373 2.0896 0.912119 0
M  V30 1112 C 108.357 0.998186 1.26195 0
M  V30 1113 O 109.549 1.26133 1.24175 0
M  V30 1114 C 106.678 2.6508 2.18145 0
M  V30 1115 C 105.764 3.81218 1.85832 0
M  V30 1116 N 106.155 4.90378 1.23948 0
M  V30 1117 C 104.453 3.9042 2.15612 0
M  V30 1118 C 105.154 5.71279 1.09616 0
M  V30 1119 N 104.13 5.19389 1.60423 0
M  V30 1120 H 107.932 2.90749 0.42924 0
M  V30 1121 H 105.446 1.6182 0.137184 0
M  V30 1122 H 107.443 3.0029 2.89192 0
M  V30 1123 H 106.103 1.84736 2.67025 0
M  V30 1124 H 107.114 5.09847 0.909731 0
M  V30 1125 H 103.791 3.21043 2.66903 0
M  V30 1126 H 105.181 6.69085 0.614425 0
M  V30 1127 N 107.901 -0.206675 1.56239 0
M  V30 1128 C 109.312 -0.772383 1.69974 0
M  V30 1129 C 109.663 -1.84353 0.671436 0
M  V30 1130 O 108.788 -2.15695 -0.174491 0
M  V30 1131 C 109.383 -1.40779 3.08167 0
M  V30 1132 C 107.942 -1.92072 3.23706 0
M  V30 1133 C 107.089 -0.786347 2.65917 0
M  V30 1134 H 110.04 0.0182223 1.5869 0
M  V30 1135 H 110.061 -2.27696 3.04852 0
M  V30 1136 H 109.573 -0.627958 3.82986 0
M  V30 1137 H 107.674 -2.7281 2.53782 0
M  V30 1138 H 107.787 -2.09046 4.31087 0
M  V30 1139 H 106.151 -1.1976 2.24788 0
M  V30 1140 H 106.934 -0.0189416 3.43295 0
M  V30 1141 N 109.379 -1.50304 -0.473955 0
M  V30 1142 C 110.311 -1.65109 -1.58971 0
M  V30 1143 C 111.324 -0.532676 -1.53839 0
M  V30 1144 O 112.513 -0.805751 -1.59279 0
M  V30 1145 C 109.613 -1.61684 -2.97845 0
M  V30 1146 C 108.786 -2.8951 -3.27876 0
M  V30 1147 C 107.845 -2.78768 -4.4629 0
M  V30 1148 O 106.871 -3.52722 -4.46739 0
M  V30 1149 N 108.073 -1.9213 -5.47783 0
M  V30 1150 H 110.838 -2.61347 -1.46689 0
M  V30 1151 H 108.399 -1.47732 -0.662324 0
M  V30 1152 H 110.391 -1.52114 -3.75024 0
M  V30 1153 H 108.961 -0.731925 -3.03911 0
M  V30 1154 H 108.181 -3.13228 -2.39336 0
M  V30 1155 H 109.469 -3.74199 -3.4475 0
M  V30 1156 H 108.867 -1.31353 -5.50239 0
M  V30 1157 H 107.424 -1.88466 -6.23958 0
M  V30 1158 N 110.857 0.726932 -1.39834 0
M  V30 1159 C 112.106 1.48214 -1.36805 0
M  V30 1160 C 112.419 1.95576 0.0305291 0
M  V30 1161 O 113.625 2.7088 0.183417 0
M  V30 1162 C 112.081 2.67854 -2.40379 0
M  V30 1163 C 111.689 2.27408 -3.85992 0
M  V30 1164 C 113.433 3.45641 -2.46439 0
M  V30 1165 C 111.34 3.43819 -4.81189 0
M  V30 1166 H 110.27 0.556606 -0.508631 0
M  V30 1167 H 112.921 0.792216 -1.65518 0
M  V30 1168 H 111.303 3.3896 -2.04749 0
M  V30 1169 H 112.477 1.63795 -4.30706 0
M  V30 1170 H 110.792 1.62692 -3.83302 0
M  V30 1171 H 113.389 4.32244 -3.14753 0
M  V30 1172 H 113.732 3.88669 -1.49139 0
M  V30 1173 H 114.265 2.8157 -2.81004 0
M  V30 1174 H 111.004 3.05834 -5.79781 0
M  V30 1175 H 110.524 4.06385 -4.41148 0
M  V30 1176 H 112.203 4.10043 -5.00474 0
M  V30 1177 N 112.336 1.25143 0.95797 0
M  V30 1178 C 113.564 1.12424 1.73691 0
M  V30 1179 C 113.979 -0.322304 1.86029 0
M  V30 1180 O 113.336 -1.22186 1.35561 0
M  V30 1181 C 113.387 1.76933 3.15241 0
M  V30 1182 O 113.108 3.15932 3.03511 0
M  V30 1183 C 114.609 1.6995 4.09429 0
M  V30 1184 H 111.829 0.3923 0.544373 0
M  V30 1185 H 114.373 1.6544 1.20207 0
M  V30 1186 H 112.528 1.27895 3.6568 0
M  V30 1187 H 112.942 3.47598 3.9278 0
M  V30 1188 H 114.416 2.19753 5.06372 0
M  V30 1189 H 114.893 0.662619 4.34173 0
M  V30 1190 H 115.499 2.18461 3.64904 0
M  V30 1191 N 113.814 -1.1601 1.06675 0
M  V30 1192 C 115.06 -1.86909 0.786945 0
M  V30 1193 C 115.393 -1.81717 -0.685018 0
M  V30 1194 O 114.668 -1.23551 -1.50218 0
M  V30 1195 C 114.951 -3.36313 1.28707 0
M  V30 1196 C 114.804 -3.50175 2.82308 0
M  V30 1197 C 116.123 -4.3084 0.898071 0
M  V30 1198 H 113.242 -0.678677 0.287343 0
M  V30 1199 H 115.884 -1.36336 1.32334 0
M  V30 1200 H 114.034 -3.79513 0.830768 0
M  V30 1201 H 115.706 -3.15886 3.36175 0
M  V30 1202 H 113.949 -2.91959 3.20847 0
M  V30 1203 H 114.62 -4.55116 3.12368 0
M  V30 1204 H 117.096 -3.95561 1.29114 0
M  V30 1205 H 115.972 -5.33876 1.27543 0
M  V30 1206 H 116.233 -4.41662 -0.196651 0
M  V30 1207 N 115.292 -0.849877 -1.32721 0
M  V30 1208 C 116.538 -0.451591 -1.97708 0
M  V30 1209 C 116.871 0.989175 -1.6712 0
M  V30 1210 O 116.146 1.69334 -0.956891 0
M  V30 1211 C 116.429 -0.685598 -3.53513 0
M  V30 1212 C 116.282 -2.17444 -3.93749 0
M  V30 1213 C 117.601 -0.138874 -4.39881 0
M  V30 1214 H 114.72 -0.16555 -0.718166 0
M  V30 1215 H 117.362 -1.06742 -1.57182 0
M  V30 1216 H 115.512 -0.161416 -3.88165 0
M  V30 1217 H 117.184 -2.76433 -3.693 0
M  V30 1218 H 115.427 -2.65476 -3.43081 0
M  V30 1219 H 116.098 -2.28888 -5.02309 0
M  V30 1220 H 118.574 -0.587068 -4.11938 0
M  V30 1221 H 117.45 -0.332213 -5.47894 0
M  V30 1222 H 117.711 0.95806 -4.31594 0
M  V30 1223 N 116.77 1.45427 -0.607355 0
M  V30 1224 C 118.047 1.9557 -0.0344566 0
M  V30 1225 C 118.427 1.54979 1.43334 0
M  V30 1226 O 117.775 0.812241 2.13576 0
M  V30 1227 C 117.985 3.48226 -0.232321 0
M  V30 1228 C 119.333 4.2445 -0.113001 0
M  V30 1229 O 120.357 3.55829 -0.162431 0
M  V30 1230 O 119.216 5.465 0.00209442 0
M  V30 1231 H 116.31 0.826222 0.0358667 0
M  V30 1232 H 118.856 1.55594 -0.6774 0
M  V30 1233 H 117.628 3.70739 -1.25174 0
M  V30 1234 H 117.251 3.95092 0.445896 0
M  V30 1235 N 118.248 0.346503 1.53744 0
M  V30 1236 C 119.496 -0.248612 2.00565 0
M  V30 1237 C 119.817 -1.5083 1.23593 0
M  V30 1238 O 119.087 -1.92858 0.343912 0
M  V30 1239 H 117.667 -0.0948564 0.740953 0
M  V30 1240 H 120.329 0.468341 1.89189 0
M  V30 1241 H 119.425 -0.488994 3.08245 0
M  V30 1242 N 119.726 -1.57421 0.075193 0
M  V30 1243 C 120.974 -1.93236 -0.591974 0
M  V30 1244 C 121.295 -0.956241 -1.69944 0
M  V30 1245 O 120.565 -0.00494792 -1.95899 0
M  V30 1246 H 119.145 -0.713355 -0.22166 0
M  V30 1247 H 121.807 -1.9444 0.133848 0
M  V30 1248 H 120.903 -2.95131 -1.01509 0
M  V30 1249 N 121.204 0.198386 -1.56346 0
M  V30 1250 C 122.481 0.944982 -1.71258 0
M  V30 1251 C 122.861 2.0151 -0.629048 0
M  V30 1252 O 122.209 2.25639 0.360473 0
M  V30 1253 C 122.419 1.5344 -3.1346 0
M  V30 1254 C 123.767 2.01778 -3.73591 0
M  V30 1255 O 124.791 1.63288 -3.16568 0
M  V30 1256 O 123.65 2.72594 -4.73661 0
M  V30 1257 H 120.744 0.442939 -0.69838 0
M  V30 1258 H 123.29 0.188342 -1.68652 0
M  V30 1259 H 122.062 0.762869 -3.83792 0
M  V30 1260 H 121.685 2.35596 -3.20282 0
M  V30 1261 N 122.682 1.50554 0.465978 0
M  V30 1262 C 123.592 1.72585 1.58907 0
M  V30 1263 C 124.608 0.60911 1.6299 0
M  V30 1264 O 125.784 0.88804 1.80765 0
M  V30 1265 C 122.849 1.81995 2.95091 0
M  V30 1266 C 121.91 3.05751 3.01355 0
M  V30 1267 C 121.143 3.14702 4.31043 0
M  V30 1268 O 121.366 2.30313 5.21835 0
M  V30 1269 O 120.3 4.07468 4.43005 0
M  V30 1270 H 124.126 2.67799 1.43239 0
M  V30 1271 H 121.711 1.34711 0.646013 0
M  V30 1272 H 123.593 1.90335 3.75966 0
M  V30 1273 H 122.268 0.899659 3.10947 0
M  V30 1274 H 121.175 3.02908 2.19539 0
M  V30 1275 H 122.508 3.97375 2.90437 0
M  V30 1276 N 124.16 -0.719506 1.40217 0
M  V30 1277 C 125.576 -1.02707 1.22161 0
M  V30 1278 C 125.776 -2.0128 0.0940557 0
M  V30 1279 O 124.832 -2.46452 -0.549318 0
M  V30 1280 C 126.145 -1.57454 2.56181 0
M  V30 1281 C 127.693 -1.69458 2.63159 0
M  V30 1282 C 128.168 -2.27611 3.97438 0
M  V30 1283 N 129.659 -2.35002 3.99159 0
M  V30 1284 C 130.394 -2.80972 4.99842 0
M  V30 1285 N 129.89 -3.26723 6.10921 0
M  V30 1286 N 131.683 -2.80321 4.87213 0
M  V30 1287 H 123.834 -0.0660492 2.12297 0
M  V30 1288 H 126.097 -0.0919077 0.943534 0
M  V30 1289 H 125.803 -0.924873 3.39321 0
M  V30 1290 H 125.677 -2.56036 2.76993 0
M  V30 1291 H 128.064 -2.33543 1.80393 0
M  V30 1292 H 128.145 -0.694867 2.46181 0
M  V30 1293 H 127.789 -1.6415 4.80643 0
M  V30 1294 H 127.719 -3.2829 4.11744 0
M  V30 1295 H 130.21 -2.02685 3.18947 0
M  V30 1296 H 130.523 -3.60355 6.8364 0
M  V30 1297 H 128.868 -3.24692 6.14492 0
M  V30 1298 H 132.059 -2.43912 3.9953 0
M  V30 1299 H 132.232 -3.15831 5.65822 0
M  V30 1300 N 125.638 -1.25649 -0.95132 0
M  V30 1301 C 126.601 -1.06399 -2.03007 0
M  V30 1302 C 127.601 -0.0156794 -1.60792 0
M  V30 1303 O 128.791 -0.25817 -1.72276 0
M  V30 1304 C 125.923 -0.616184 -3.35285 0
M  V30 1305 H 127.116 -2.02164 -2.21517 0
M  V30 1306 H 124.669 -1.08103 -1.12887 0
M  V30 1307 H 125.404 0.343917 -3.22471 0
M  V30 1308 H 125.189 -1.37301 -3.67275 0
M  V30 1309 H 126.679 -0.503032 -4.14559 0
M  V30 1310 N 127.117 1.15442 -1.07289 0
M  V30 1311 C 128.394 1.82306 -0.708792 0
M  V30 1312 C 128.774 1.94991 0.808807 0
M  V30 1313 O 128.122 1.50085 1.72298 0
M  V30 1314 C 128.332 3.18695 -1.42247 0
M  V30 1315 C 129.68 3.94341 -1.57417 0
M  V30 1316 O 130.704 3.28247 -1.38319 0
M  V30 1317 O 129.563 5.12839 -1.88834 0
M  V30 1318 H 126.657 0.787628 -0.252132 0
M  V30 1319 H 129.203 1.22559 -1.17377 0
M  V30 1320 H 127.975 3.04557 -2.45684 0
M  V30 1321 H 127.598 3.86128 -0.948223 0
M  V30 1322 N 128.595 0.856903 1.32268 0
M  V30 1323 C 129.82 0.474569 2.01897 0
M  V30 1324 C 130.245 -0.921766 1.63967 0
M  V30 1325 O 129.603 -1.60589 0.84148 0
M  V30 1326 C 129.651 0.623799 3.55164 0
M  V30 1327 O 128.755 -0.342459 4.10976 0
M  V30 1328 H 128.096 0.190422 0.63611 0
M  V30 1329 H 130.626 1.15672 1.68764 0
M  V30 1330 H 130.636 0.512169 4.04773 0
M  V30 1331 H 129.311 1.64202 3.82113 0
M  V30 1332 H 127.888 -0.18688 3.72431 0
M  V30 1333 N 130.073 -1.45103 0.615059 0
M  V30 1334 C 131.319 -2.02483 0.113347 0
M  V30 1335 C 131.652 -1.48146 -1.25564 0
M  V30 1336 O 130.927 -0.659104 -1.82992 0
M  V30 1337 C 131.21 -3.60005 0.0825278 0
M  V30 1338 C 131.063 -4.2466 1.48271 0
M  V30 1339 C 132.382 -4.35972 -0.601401 0
M  V30 1340 H 129.501 -0.735764 0.0426632 0
M  V30 1341 H 132.143 -1.72868 0.788461 0
M  V30 1342 H 130.293 -3.85367 -0.492378 0
M  V30 1343 H 131.965 -4.10458 2.10527 0
M  V30 1344 H 130.208 -3.82772 2.04127 0
M  V30 1345 H 130.879 -5.336 1.41332 0
M  V30 1346 H 133.355 -4.15947 -0.112666 0
M  V30 1347 H 132.231 -5.45697 -0.592097 0
M  V30 1348 H 132.492 -4.09391 -1.66887 0
M  V30 1349 N 131.551 -0.354651 -1.53558 0
M  V30 1350 C 132.481 0.489091 -2.2832 0
M  V30 1351 C 133.462 1.09324 -1.30316 0
M  V30 1352 O 134.647 1.11255 -1.59173 0
M  V30 1353 C 131.777 1.63456 -3.0643 0
M  V30 1354 C 130.731 1.1582 -4.12031 0
M  V30 1355 C 130.057 2.39305 -4.7816 0
M  V30 1356 C 131.357 0.250731 -5.21698 0
M  V30 1357 H 133.051 -0.134614 -2.99097 0
M  V30 1358 H 130.597 -0.0661826 -1.43848 0
M  V30 1359 H 132.55 2.23136 -3.57475 0
M  V30 1360 H 131.274 2.28533 -2.33325 0
M  V30 1361 H 129.933 0.584146 -3.61916 0
M  V30 1362 H 129.581 3.02814 -4.01637 0
M  V30 1363 H 129.281 2.08109 -5.49513 0
M  V30 1364 H 130.805 2.99691 -5.31994 0
M  V30 1365 H 132.219 0.754695 -5.68311 0
M  V30 1366 H 130.616 0.0301468 -6.00092 0
M  V30 1367 H 131.686 -0.710125 -4.79672 0
M  V30 1368 N 133.029 1.57378 -0.0835403 0
M  V30 1369 C 133.992 2.12252 0.864959 0
M  V30 1370 C 134.992 1.04916 1.21858 0
M  V30 1371 O 136.182 1.30853 1.14991 0
M  V30 1372 C 133.314 2.63358 2.16461 0
M  V30 1373 H 134.507 2.97371 0.388676 0
M  V30 1374 H 132.06 1.55423 0.165317 0
M  V30 1375 H 132.795 1.81727 2.686 0
M  V30 1376 H 132.58 3.41826 1.92087 0
M  V30 1377 H 134.07 3.05847 2.84337 0
M  V30 1378 N 134.507 -0.190092 1.56449 0
M  V30 1379 C 135.755 -0.907908 1.80559 0
M  V30 1380 C 136.076 -1.83583 0.657438 0
M  V30 1381 O 135.346 -1.93203 -0.323924 0
M  V30 1382 H 133.926 -0.338247 0.666032 0
M  V30 1383 H 136.588 -0.194403 1.93928 0
M  V30 1384 H 135.684 -1.49604 2.73907 0
M  V30 1385 N 135.985 -1.50799 -0.457987 0
M  V30 1386 C 136.915 -1.73553 -1.5621 0
M  V30 1387 C 137.896 -0.584774 -1.59732 0
M  V30 1388 O 139.081 -0.825314 -1.7579 0
M  V30 1389 C 136.211 -1.84169 -2.94447 0
M  V30 1390 C 135.165 -2.99461 -3.0579 0
M  V30 1391 C 134.491 -2.95235 -4.45803 0
M  V30 1392 C 135.791 -4.39766 -2.81786 0
M  V30 1393 H 137.485 -2.66 -1.37421 0
M  V30 1394 H 135.031 -1.28002 -0.659662 0
M  V30 1395 H 136.984 -1.98672 -3.71628 0
M  V30 1396 H 135.708 -0.883545 -3.14422 0
M  V30 1397 H 134.367 -2.8463 -2.31044 0
M  V30 1398 H 134.015 -1.97239 -4.62715 0
M  V30 1399 H 133.715 -3.72642 -4.54326 0
M  V30 1400 H 135.239 -3.11803 -5.24987 0
M  V30 1401 H 136.653 -4.55054 -3.4871 0
M  V30 1402 H 135.05 -5.18722 -3.0174 0
M  V30 1403 H 136.12 -4.51229 -1.7754 0
M  V30 1404 N 137.463 0.71206 -1.40597 0
M  V30 1405 C 138.41 1.82613 -1.41142 0
M  V30 1406 C 139.38 1.63925 -0.267903 0
M  V30 1407 O 140.565 1.85009 -0.466495 0
M  V30 1408 C 137.705 3.20354 -1.28324 0
M  V30 1409 C 136.818 3.50589 -2.52411 0
M  V30 1410 C 135.953 4.77855 -2.32009 0
M  V30 1411 C 134.992 5.01005 -3.51654 0
M  V30 1412 N 134.129 6.19487 -3.30425 0
M  V30 1413 H 138.969 1.81482 -2.36365 0
M  V30 1414 H 136.506 0.886475 -1.17388 0
M  V30 1415 H 138.464 3.99899 -1.18899 0
M  V30 1416 H 137.094 3.20705 -0.367189 0
M  V30 1417 H 136.146 2.65573 -2.72351 0
M  V30 1418 H 137.458 3.63604 -3.41458 0
M  V30 1419 H 136.612 5.65424 -2.19956 0
M  V30 1420 H 135.351 4.67056 -1.40392 0
M  V30 1421 H 134.356 4.1189 -3.64179 0
M  V30 1422 H 135.581 5.13674 -4.44202 0
M  V30 1423 H 133.527 6.09932 -2.41494 0
M  V30 1424 H 133.444 6.33194 -4.13039 0
M  V30 1425 H 134.712 7.09834 -3.22113 0
M  V30 1426 N 138.941 1.26152 0.944643 0
M  V30 1427 C 139.904 1.07474 2.0244 0
M  V30 1428 C 140.904 0.0242064 1.60782 0
M  V30 1429 O 142.094 0.267302 1.72137 0
M  V30 1430 C 139.226 0.633956 3.34953 0
M  V30 1431 H 140.419 2.03336 2.20442 0
M  V30 1432 H 137.972 1.087 1.12312 0
M  V30 1433 H 138.707 -0.326811 3.22649 0
M  V30 1434 H 138.492 1.39247 3.66542 0
M  V30 1435 H 139.982 0.52501 4.14287 0
M  V30 1436 N 140.419 -1.14872 1.07899 0
M  V30 1437 C 141.382 -2.17986 0.708161 0
M  V30 1438 C 142.382 -1.58775 -0.25442 0
M  V30 1439 O 143.572 -1.74166 -0.034645 0
M  V30 1440 C 140.704 -3.40871 0.0446929 0
M  V30 1441 H 141.897 -2.52306 1.62116 0
M  V30 1442 H 139.45 -1.2943 0.876218 0
M  V30 1443 H 140.185 -3.12124 -0.880281 0
M  V30 1444 H 139.97 -3.8511 0.737091 0
M  V30 1445 H 141.46 -4.17121 -0.19991 0
M  V30 1446 N 141.898 -0.863906 -1.31812 0
M  V30 1447 C 143.146 -0.470904 -1.96537 0
M  V30 1448 C 143.467 0.978771 -1.68657 0
M  V30 1449 O 142.737 1.6853 -0.998717 0
M  V30 1450 H 141.317 -0.171148 -0.72713 0
M  V30 1451 H 143.979 -1.10236 -1.60729 0
M  V30 1452 H 143.075 -0.623616 -3.05806 0
M  V30 1453 N 143.376 1.44774 -0.622745 0
M  V30 1454 C 144.653 1.95522 -0.0551974 0
M  V30 1455 C 145.033 1.5649 1.41683 0
M  V30 1456 O 144.381 0.834848 2.12703 0
M  V30 1457 C 144.591 3.4796 -0.269242 0
M  V30 1458 C 145.939 4.24306 -0.158014 0
M  V30 1459 O 146.963 3.55637 -0.200162 0
M  V30 1460 O 145.822 5.46471 -0.0558693 0
M  V30 1461 H 142.916 0.826556 0.0271015 0
M  V30 1462 H 145.462 1.54866 -0.693864 0
M  V30 1463 H 144.234 3.6939 -1.29099 0
M  V30 1464 H 143.857 3.95543 0.403966 0
M  V30 1465 N 144.854 0.36279 1.53368 0
M  V30 1466 C 145.817 -0.472679 2.24273 0
M  V30 1467 C 146.817 -1.012 1.24961 0
M  V30 1468 O 148.007 -0.898194 1.49259 0
M  V30 1469 C 145.139 -1.66039 2.97731 0
M  V30 1470 H 146.332 0.14773 2.99536 0
M  V30 1471 H 143.885 0.114434 1.55881 0
M  V30 1472 H 144.62 -2.31896 2.26704 0
M  V30 1473 H 144.405 -1.28066 3.70596 0
M  V30 1474 H 145.895 -2.25252 3.51641 0
M  V30 1475 N 146.332 -1.57332 0.0918853 0
M  V30 1476 C 147.264 -2.10869 -0.898168 0
M  V30 1477 C 148.277 -1.04521 -1.24817 0
M  V30 1478 O 149.466 -1.31977 -1.20184 0
M  V30 1479 C 146.566 -2.57083 -2.2082 0
M  V30 1480 C 145.739 -3.87229 -2.03402 0
M  V30 1481 C 144.798 -4.19324 -3.17889 0
M  V30 1482 O 143.824 -4.88598 -2.91994 0
M  V30 1483 N 145.026 -3.74471 -4.43567 0
M  V30 1484 H 147.791 -2.96439 -0.440943 0
M  V30 1485 H 145.352 -1.61631 -0.0933064 0
M  V30 1486 H 147.344 -2.75602 -2.96354 0
M  V30 1487 H 145.914 -1.76541 -2.57977 0
M  V30 1488 H 145.134 -3.7789 -1.12218 0
M  V30 1489 H 146.422 -4.72379 -1.89038 0
M  V30 1490 H 145.82 -3.18546 -4.67488 0
M  V30 1491 H 144.377 -3.98151 -5.16061 0
M  V30 1492 N 147.81 0.181792 -1.56548 0
M  V30 1493 C 149.056 0.896803 -1.82562 0
M  V30 1494 C 149.411 1.80324 -0.670908 0
M  V30 1495 O 148.704 1.8868 0.333235 0
M  V30 1496 C 148.898 1.73728 -3.12335 0
M  V30 1497 C 148.727 0.913714 -4.4032 0
M  V30 1498 C 147.497 0.592903 -5.01809 0
M  V30 1499 C 149.695 0.260164 -5.13642 0
M  V30 1500 N 147.677 -0.247901 -6.13399 0
M  V30 1501 C 149.048 -0.442256 -6.18421 0
M  V30 1502 C 151.103 0.177253 -4.97584 0
M  V30 1503 C 149.806 -1.21971 -7.08883 0
M  V30 1504 C 151.832 -0.586839 -5.88481 0
M  V30 1505 C 151.194 -1.27766 -6.92716 0
M  V30 1506 H 147.293 0.307122 -0.719166 0
M  V30 1507 H 149.877 0.164535 -1.94004 0
M  V30 1508 H 148.048 2.44105 -3.02105 0
M  V30 1509 H 149.78 2.39279 -3.26386 0
M  V30 1510 H 146.535 0.920502 -4.64568 0
M  V30 1511 H 146.959 -0.658304 -6.73792 0
M  V30 1512 H 151.601 0.696993 -4.17015 0
M  V30 1513 H 149.319 -1.75083 -7.88905 0
M  V30 1514 H 152.905 -0.652522 -5.78129 0
M  V30 1515 H 151.785 -1.85943 -7.61836 0
M  V30 1516 N 149.288 1.51039 0.449983 0
M  V30 1517 C 150.534 1.63322 1.20223 0
M  V30 1518 C 150.867 0.34241 1.91158 0
M  V30 1519 O 150.142 -0.657344 1.83055 0
M  V30 1520 C 150.425 2.82801 2.22925 0
M  V30 1521 C 150.278 4.21823 1.56157 0
M  V30 1522 C 151.597 2.97807 3.24035 0
M  V30 1523 H 148.716 0.594407 0.435718 0
M  V30 1524 H 151.358 1.83489 0.493136 0
M  V30 1525 H 149.508 2.65738 2.834 0
M  V30 1526 H 151.18 4.50526 0.991162 0
M  V30 1527 H 149.423 4.25105 0.864172 0
M  V30 1528 H 150.094 5.01391 2.30891 0
M  V30 1529 H 152.57 3.13497 2.73603 0
M  V30 1530 H 151.446 3.82992 3.93202 0
M  V30 1531 H 151.707 2.09328 3.89402 0
M  V30 1532 N 150.766 -0.704594 1.40972 0
M  V30 1533 C 151.696 -1.83124 1.44872 0
M  V30 1534 C 152.677 -1.67281 0.30838 0
M  V30 1535 O 153.862 -1.87149 0.518556 0
M  V30 1536 C 150.992 -3.21181 1.32136 0
M  V30 1537 C 149.946 -3.51714 2.43888 0
M  V30 1538 C 149.272 -4.89032 2.16222 0
M  V30 1539 C 150.572 -3.516 3.86232 0
M  V30 1540 H 152.266 -1.80117 2.39161 0
M  V30 1541 H 149.812 -0.865145 1.15114 0
M  V30 1542 H 151.765 -3.99702 1.33479 0
M  V30 1543 H 150.489 -3.24791 0.343279 0
M  V30 1544 H 149.148 -2.75539 2.41813 0
M  V30 1545 H 148.796 -4.89256 1.16778 0
M  V30 1546 H 148.496 -5.10426 2.911 0
M  V30 1547 H 150.02 -5.69873 2.19265 0
M  V30 1548 H 151.434 -4.2014 3.9007 0
M  V30 1549 H 149.831 -3.84523 4.60719 0
M  V30 1550 H 150.901 -2.50757 4.15029 0
M  V30 1551 N 152.244 -1.26651 -0.937939 0
M  V30 1552 C 153.49 -1.12553 -1.687 0
M  V30 1553 C 153.823 0.329782 -1.91379 0
M  V30 1554 O 153.098 1.24202 -1.4968 0
M  V30 1555 C 153.381 -1.89862 -3.05981 0
M  V30 1556 C 153.234 -3.43318 -2.90607 0
M  V30 1557 C 154.553 -1.69499 -4.0615 0
M  V30 1558 H 151.672 -0.410257 -0.612257 0
M  V30 1559 H 154.314 -1.55685 -1.08913 0
M  V30 1560 H 152.464 -1.53204 -3.57017 0
M  V30 1561 H 154.136 -3.89747 -2.46769 0
M  V30 1562 H 152.379 -3.70179 -2.26164 0
M  V30 1563 H 153.05 -3.92642 -3.8799 0
M  V30 1564 H 155.526 -2.01442 -3.64088 0
M  V30 1565 H 154.402 -2.26002 -5.00214 0
M  V30 1566 H 154.663 -0.640365 -4.37438 0
M  V30 1567 N 153.722 1.14298 -1.08507 0
M  V30 1568 C 154.672 2.17449 -0.685569 0
M  V30 1569 C 155.656 1.58167 0.295315 0
M  V30 1570 O 156.848 1.76675 0.107172 0
M  V30 1571 C 153.977 3.43161 -0.0975318 0
M  V30 1572 C 153.063 4.09471 -1.10426 0
M  V30 1573 N 153.454 4.51089 -2.28806 0
M  V30 1574 C 151.752 4.35976 -0.940258 0
M  V30 1575 C 152.453 5.02654 -2.9277 0
M  V30 1576 N 151.429 4.96927 -2.20374 0
M  V30 1577 H 155.231 2.47369 -1.587 0
M  V30 1578 H 152.745 1.30992 -0.959936 0
M  V30 1579 H 154.742 4.16388 0.20664 0
M  V30 1580 H 153.402 3.14719 0.798872 0
M  V30 1581 H 154.413 4.44097 -2.66455 0
M  V30 1582 H 151.09 4.17386 -0.0977441 0
M  V30 1583 H 152.48 5.44723 -3.93352 0
M  V30 1584 N 155.201 0.870884 1.31352 0
M  V30 1585 C 156.478 0.402907 1.91405 0
M  V30 1586 C 156.858 -1.11512 1.79244 0
M  V30 1587 O 156.206 -1.94411 1.2007 0
M  V30 1588 C 156.416 0.885301 3.37585 0
M  V30 1589 C 157.764 0.911971 4.14691 0
M  V30 1590 O 158.788 0.831016 3.46371 0
M  V30 1591 O 157.647 1.02927 5.3672 0
M  V30 1592 H 154.741 0.120698 0.818145 0
M  V30 1593 H 157.287 0.958857 1.40014 0
M  V30 1594 H 156.059 1.92889 3.40455 0
M  V30 1595 H 155.682 0.307714 3.96407 0
M  V30 1596 N 156.679 -1.44442 0.630414 0
M  V30 1597 C 157.642 -2.29107 -0.0652523 0
M  V30 1598 C 158.642 -1.41002 -0.772995 0
M  V30 1599 O 159.832 -1.62881 -0.617692 0
M  V30 1600 C 156.964 -3.22564 -1.10296 0
M  V30 1601 H 158.157 -2.92103 0.679401 0
M  V30 1602 H 155.71 -1.51343 0.390517 0
M  V30 1603 H 156.445 -2.64416 -1.87762 0
M  V30 1604 H 156.23 -3.87491 -0.59941 0
M  V30 1605 H 157.72 -3.86167 -1.5895 0
M  V30 1606 N 158.157 -0.370918 -1.53173 0
M  V30 1607 C 159.12 0.460778 -2.24521 0
M  V30 1608 C 160.12 1.00536 -1.25496 0
M  V30 1609 O 161.31 0.890266 -1.49733 0
M  V30 1610 C 158.442 1.64457 -2.98608 0
M  V30 1611 H 159.635 -0.163613 -2.99453 0
M  V30 1612 H 157.188 -0.122699 -1.55818 0
M  V30 1613 H 157.923 2.30691 -2.2793 0
M  V30 1614 H 157.708 1.26099 -3.7127 0
M  V30 1615 H 159.198 2.23384 -3.5283 0
M  V30 1616 N 159.635 1.57281 -0.100228 0
M  V30 1617 C 161.051 1.57527 0.256416 0
M  V30 1618 C 161.251 1.11173 1.68056 0
M  V30 1619 O 160.307 0.79053 2.39806 0
M  V30 1620 C 161.62 3.00673 0.0401747 0
M  V30 1621 C 163.168 3.12815 0.107528 0
M  V30 1622 C 163.643 4.57929 -0.0807834 0
M  V30 1623 N 165.134 4.63193 -0.0261207 0
M  V30 1624 C 165.869 5.73212 -0.146999 0
M  V30 1625 N 165.365 6.92047 -0.322999 0
M  V30 1626 N 167.158 5.62031 -0.0879044 0
M  V30 1627 H 159.309 1.85718 -1.03065 0
M  V30 1628 H 161.572 0.857446 -0.404339 0
M  V30 1629 H 161.278 3.38804 -0.943649 0
M  V30 1630 H 161.152 3.69042 0.780262 0
M  V30 1631 H 163.539 2.74554 1.08186 0
M  V30 1632 H 163.62 2.47028 -0.664134 0
M  V30 1633 H 163.264 4.96886 -1.05201 0
M  V30 1634 H 163.194 5.21783 0.710635 0
M  V30 1635 H 165.685 3.77748 0.107161 0
M  V30 1636 H 165.998 7.7173 -0.406608 0
M  V30 1637 H 164.343 6.94074 -0.358733 0
M  V30 1638 H 167.534 4.68075 0.048498 0
M  V30 1639 H 167.707 6.47734 -0.185557 0
M  V30 1640 N 161.113 -0.173488 1.56642 0
M  V30 1641 C 162.524 -0.736155 1.71574 0
M  V30 1642 C 162.875 -1.82888 0.710389 0
M  V30 1643 O 162 -2.16017 -0.1287 0
M  V30 1644 C 162.595 -1.34211 3.11083 0
M  V30 1645 C 161.154 -1.85162 3.27707 0
M  V30 1646 C 160.301 -0.729765 2.67525 0
M  V30 1647 H 163.252 0.0518786 1.58615 0
M  V30 1648 H 163.273 -2.21178 3.09613 0
M  V30 1649 H 162.785 -0.546579 3.84232 0
M  V30 1650 H 160.886 -2.67366 2.59512 0
M  V30 1651 H 160.999 -1.99855 4.35425 0
M  V30 1652 H 159.363 -1.14965 2.27278 0
M  V30 1653 H 160.146 0.0538806 3.43258 0
M  V30 1654 N 162.591 -1.51276 -0.441967 0
M  V30 1655 C 163.831 -1.65372 -1.20132 0
M  V30 1656 C 164.195 -0.359871 -1.88597 0
M  V30 1657 O 165.396 -0.376551 -2.66149 0
M  V30 1658 C 163.667 -2.8207 -2.1948 0
M  V30 1659 S 165.226 -3.16467 -3.03964 0
M  V30 1660 H 162.044 -0.582669 -0.407453 0
M  V30 1661 H 164.646 -1.89166 -0.493609 0
M  V30 1662 H 163.35 -3.74523 -1.67812 0
M  V30 1663 H 162.881 -2.6045 -2.94838 0
M  V30 1664 H 164.896 -2.62543 -4.21053 0
M  V30 1665 N 164.069 0.697108 -1.41344 0
M  V30 1666 C 164.999 1.82353 -1.45841 0
M  V30 1667 C 165.98 1.67115 -0.317247 0
M  V30 1668 O 167.165 1.86871 -0.528474 0
M  V30 1669 C 164.295 3.20476 -1.33838 0
M  V30 1670 C 163.249 3.50415 -2.4575 0
M  V30 1671 C 162.575 4.87878 -2.18813 0
M  V30 1672 C 163.875 3.49546 -3.88091 0
M  V30 1673 H 165.569 1.78846 -2.40113 0
M  V30 1674 H 163.115 0.859028 -1.15571 0
M  V30 1675 H 165.068 3.98988 -1.35596 0
M  V30 1676 H 163.792 3.24604 -0.360498 0
M  V30 1677 H 162.451 2.74253 -2.43271 0
M  V30 1678 H 162.099 4.8863 -1.19371 0
M  V30 1679 H 161.799 5.08875 -2.93803 0
M  V30 1680 H 163.323 5.68702 -2.22284 0
M  V30 1681 H 164.737 4.18066 -3.92293 0
M  V30 1682 H 163.134 3.82075 -4.62751 0
M  V30 1683 H 164.204 2.48552 -4.16353 0
M  V30 1684 N 165.547 1.27147 0.931209 0
M  V30 1685 C 166.497 1.06227 2.01742 0
M  V30 1686 C 167.481 -0.00859065 1.60898 0
M  V30 1687 O 168.673 0.209537 1.75755 0
M  V30 1688 C 165.802 0.707787 3.35924 0
M  V30 1689 C 164.888 1.81661 3.83223 0
M  V30 1690 N 165.279 3.05564 4.03069 0
M  V30 1691 C 163.577 1.70249 4.12227 0
M  V30 1692 C 164.278 3.77697 4.42403 0
M  V30 1693 N 163.254 3.0544 4.49675 0
M  V30 1694 H 167.056 2.00261 2.15111 0
M  V30 1695 H 164.57 1.1781 1.11779 0
M  V30 1696 H 166.567 0.539043 4.134 0
M  V30 1697 H 165.227 -0.224964 3.2392 0
M  V30 1698 H 166.238 3.41363 3.89476 0
M  V30 1699 H 162.915 0.840329 4.08956 0
M  V30 1700 H 164.305 4.84168 4.65866 0
M  V30 1701 N 167.025 -1.13721 1.09112 0
M  V30 1702 C 167.957 -2.1871 0.685467 0
M  V30 1703 C 168.97 -1.60527 -0.271068 0
M  V30 1704 O 170.159 -1.78407 -0.0576148 0
M  V30 1705 C 167.259 -3.38898 -0.0111255 0
M  V30 1706 C 166.432 -4.26597 0.966131 0
M  V30 1707 C 165.491 -5.25324 0.303539 0
M  V30 1708 O 164.517 -5.61213 0.950177 0
M  V30 1709 N 165.719 -5.72779 -0.943651 0
M  V30 1710 H 168.484 -2.54126 1.58871 0
M  V30 1711 H 166.045 -1.29012 0.978143 0
M  V30 1712 H 168.037 -4.02014 -0.465517 0
M  V30 1713 H 166.607 -3.01747 -0.816565 0
M  V30 1714 H 165.827 -3.60306 1.59917 0
M  V30 1715 H 167.115 -4.82048 1.6281 0
M  V30 1716 H 166.513 -5.45762 -1.48862 0
M  V30 1717 H 165.07 -6.37847 -1.34142 0
M  V30 1718 N 168.503 -0.877838 -1.30888 0
M  V30 1719 C 169.78 -0.413052 -1.91189 0
M  V30 1720 C 170.16 1.1056 -1.79832 0
M  V30 1721 O 169.508 1.93771 -1.21099 0
M  V30 1722 C 169.718 -0.903191 -3.3711 0
M  V30 1723 C 171.066 -0.93395 -4.14201 0
M  V30 1724 O 172.09 -0.849373 -3.45925 0
M  V30 1725 O 170.949 -1.05772 -5.36167 0
M  V30 1726 H 168.043 -0.125035 -0.817493 0
M  V30 1727 H 170.589 -0.966269 -1.39504 0
M  V30 1728 H 169.361 -1.94692 -3.39427 0
M  V30 1729 H 168.984 -0.328732 -3.96239 0
M  V30 1730 N 169.982 1.44106 -0.638065 0
M  V30 1731 C 171.259 1.95453 -0.0759321 0
M  V30 1732 C 171.639 1.57984 1.40015 0
M  V30 1733 O 170.987 0.857361 2.11806 0
M  V30 1734 C 171.197 3.47655 -0.306132 0
M  V30 1735 C 172.545 4.24114 -0.203008 0
M  V30 1736 O 173.569 3.55405 -0.237871 0
M  V30 1737 O 172.428 5.46381 -0.113827 0
M  V30 1738 H 169.522 0.826797 0.0183332 0
M  V30 1739 H 172.068 1.54122 -0.710251 0
M  V30 1740 H 170.84 3.68 -1.3301 0
M  V30 1741 H 170.463 3.95949 0.361991 0
M  V30 1742 N 171.46 0.379036 1.52974 0
M  V30 1743 C 172.39 -0.452706 2.29069 0
M  V30 1744 C 173.371 -1.07237 1.32039 0
M  V30 1745 O 174.556 -1.08708 1.60923 0
M  V30 1746 C 171.686 -1.5856 3.08992 0
M  V30 1747 C 170.64 -1.0925 4.13822 0
M  V30 1748 C 169.966 -2.31668 4.81907 0
M  V30 1749 C 171.266 -0.167702 5.22031 0
M  V30 1750 H 172.96 0.182181 2.98845 0
M  V30 1751 H 170.506 0.0890592 1.43724 0
M  V30 1752 H 172.459 -2.1742 3.6098 0
M  V30 1753 H 171.183 -2.24792 2.36931 0
M  V30 1754 H 169.842 -0.526494 3.628 0
M  V30 1755 H 169.49 -2.96386 4.06404 0
M  V30 1756 H 169.19 -1.9934 5.52754 0
M  V30 1757 H 170.714 -2.91189 5.36695 0
M  V30 1758 H 172.128 -0.664186 5.6944 0
M  V30 1759 H 170.525 0.0653265 6.00064 0
M  V30 1760 H 171.595 0.786347 4.78482 0
M  V30 1761 N 172.938 -1.57226 0.108567 0
M  V30 1762 C 173.901 -2.13602 -0.831082 0
M  V30 1763 C 174.901 -1.06841 -1.20173 0
M  V30 1764 O 176.091 -1.32666 -1.12895 0
M  V30 1765 C 173.223 -2.66769 -2.12243 0
M  V30 1766 H 174.416 -2.97951 -0.341317 0
M  V30 1767 H 171.969 -1.55667 -0.14057 0
M  V30 1768 H 172.704 -1.85977 -2.65675 0
M  V30 1769 H 172.489 -3.44839 -1.86625 0
M  V30 1770 H 173.979 -3.10332 -2.79435 0
M  V30 1771 N 174.416 0.165178 -1.56732 0
M  V30 1772 C 175.832 0.517174 -1.50988 0
M  V30 1773 C 176.032 1.84331 -0.813894 0
M  V30 1774 O 175.088 2.49672 -0.37682 0
M  V30 1775 C 176.401 0.544261 -2.95733 0
M  V30 1776 C 177.949 0.631039 -3.06573 0
M  V30 1777 C 178.424 0.68896 -4.52788 0
M  V30 1778 N 179.915 0.751683 -4.5706 0
M  V30 1779 C 180.65 0.817177 -5.67547 0
M  V30 1780 N 180.146 0.843129 -6.8765 0
M  V30 1781 N 181.939 0.856668 -5.55534 0
M  V30 1782 H 174.09 -0.704318 -2.00382 0
M  V30 1783 H 176.353 -0.254687 -0.913148 0
M  V30 1784 H 176.059 -0.361607 -3.49836 0
M  V30 1785 H 175.933 1.3886 -3.5071 0
M  V30 1786 H 178.32 1.52733 -2.52501 0
M  V30 1787 H 178.401 -0.240095 -2.54671 0
M  V30 1788 H 178.045 -0.2031 -5.07494 0
M  V30 1789 H 177.975 1.57633 -5.02454 0
M  V30 1790 H 180.466 0.739661 -3.70591 0
M  V30 1791 H 180.779 0.894448 -7.67606 0
M  V30 1792 H 179.124 0.811304 -6.90248 0
M  V30 1793 H 182.315 0.833437 -4.60621 0
M  V30 1794 H 182.488 0.904247 -6.4166 0
M  V30 1795 N 175.894 1.51508 0.433938 0
M  V30 1796 C 176.824 1.76016 1.53429 0
M  V30 1797 C 177.805 0.610112 1.58782 0
M  V30 1798 O 178.99 0.853177 1.74455 0
M  V30 1799 C 176.12 1.88831 2.9148 0
M  V30 1800 C 175.074 3.04288 3.00987 0
M  V30 1801 C 174.4 3.0229 4.4105 0
M  V30 1802 C 175.7 4.44193 2.74754 0
M  V30 1803 H 177.394 2.68152 1.33171 0
M  V30 1804 H 174.94 1.29035 0.639214 0
M  V30 1805 H 176.893 2.04559 3.6842 0
M  V30 1806 H 175.617 0.933455 3.12976 0
M  V30 1807 H 174.276 2.8827 2.26486 0
M  V30 1808 H 173.924 2.04576 4.59519 0
M  V30 1809 H 173.624 3.79822 4.4834 0
M  V30 1810 H 175.148 3.20116 5.1996 0
M  V30 1811 H 176.562 4.60544 3.41426 0
M  V30 1812 H 174.959 5.23457 2.9345 0
M  V30 1813 H 176.029 4.53996 1.70339 0
M  V30 1814 N 177.372 -0.689602 1.41712 0
M  V30 1815 C 178.302 -1.81577 1.46806 0
M  V30 1816 C 179.283 -1.66945 0.326105 0
M  V30 1817 O 180.468 -1.86588 0.538377 0
M  V30 1818 C 177.598 -3.19762 1.35535 0
M  V30 1819 C 176.552 -3.49107 2.47605 0
M  V30 1820 C 175.878 -4.86711 2.21397 0
M  V30 1821 C 177.178 -3.47483 3.89939 0
M  V30 1822 H 178.872 -1.7757 2.41058 0
M  V30 1823 H 176.418 -0.852887 1.16025 0
M  V30 1824 H 178.371 -3.98263 1.3771 0
M  V30 1825 H 177.095 -3.24409 0.377708 0
M  V30 1826 H 175.754 -2.72959 2.44722 0
M  V30 1827 H 175.402 -4.8799 1.21961 0
M  V30 1828 H 175.102 -5.0731 2.96497 0
M  V30 1829 H 176.626 -5.67515 2.25297 0
M  V30 1830 H 178.04 -4.1598 3.94505 0
M  V30 1831 H 176.437 -3.79615 4.64771 0
M  V30 1832 H 177.507 -2.46341 4.17665 0
M  V30 1833 N 178.85 -1.27639 -0.924453 0
M  V30 1834 C 179.813 -1.10681 -2.00705 0
M  V30 1835 C 180.813 -0.0497823 -1.60723 0
M  V30 1836 O 182.003 -0.294654 -1.7169 0
M  V30 1837 C 179.135 -0.687164 -3.33902 0
M  V30 1838 H 180.328 -2.06817 -2.17179 0
M  V30 1839 H 177.881 -1.10473 -1.10569 0
M  V30 1840 H 178.616 0.275439 -3.23128 0
M  V30 1841 H 178.401 -1.45061 -3.6428 0
M  V30 1842 H 179.891 -0.590853 -4.13399 0
M  V30 1843 N 180.328 1.1314 -1.09713 0
M  V30 1844 C 181.258 2.20748 -0.761102 0
M  V30 1845 C 182.239 1.68061 0.262566 0
M  V30 1846 O 183.424 1.93765 0.129977 0
M  V30 1847 C 180.554 3.46812 -0.184054 0
M  V30 1848 C 179.508 4.12606 -1.13757 0
M  V30 1849 C 178.834 5.33031 -0.422083 0
M  V30 1850 C 180.134 4.59603 -2.48118 0
M  V30 1851 H 181.828 2.49113 -1.66082 0
M  V30 1852 H 179.374 1.19734 -0.799987 0
M  V30 1853 H 181.327 4.21353 0.0631215 0
M  V30 1854 H 180.051 3.17851 0.750868 0
M  V30 1855 H 178.71 3.40036 -1.37007 0
M  V30 1856 H 178.358 5.00335 0.517072 0
M  V30 1857 H 178.058 5.77999 -1.05788 0
M  V30 1858 H 179.582 6.10325 -0.183277 0
M  V30 1859 H 180.996 5.25552 -2.29059 0
M  V30 1860 H 179.393 5.15321 -3.07514 0
M  V30 1861 H 180.463 3.73971 -3.08665 0
M  V30 1862 N 181.806 0.884767 1.30421 0
M  V30 1863 C 183.031 0.517288 2.00845 0
M  V30 1864 C 183.456 -0.886779 1.65885 0
M  V30 1865 O 182.814 -1.58768 0.875354 0
M  V30 1866 C 182.862 0.698994 3.5376 0
M  V30 1867 O 181.966 -0.255208 4.1161 0
M  V30 1868 H 181.307 0.203872 0.631927 0
M  V30 1869 H 183.837 1.19225 1.66272 0
M  V30 1870 H 183.847 0.597912 4.03595 0
M  V30 1871 H 182.522 1.72271 3.78544 0
M  V30 1872 H 181.099 -0.10784 3.72744 0
M  V30 1873 N 183.284 -1.43765 0.645699 0
M  V30 1874 C 184.194 -2.34544 -0.0512957 0
M  V30 1875 C 185.21 -1.53455 -0.82022 0
M  V30 1876 O 186.386 -1.86133 -0.769176 0
M  V30 1877 C 183.451 -3.31636 -1.01087 0
M  V30 1878 C 182.512 -4.2863 -0.239712 0
M  V30 1879 C 181.745 -5.21084 -1.15358 0
M  V30 1880 O 181.968 -5.1779 -2.39269 0
M  V30 1881 O 180.902 -5.98593 -0.630038 0
M  V30 1882 H 184.728 -2.95624 0.695718 0
M  V30 1883 H 182.313 -1.43781 0.405882 0
M  V30 1884 H 184.195 -3.9136 -1.56254 0
M  V30 1885 H 182.87 -2.73069 -1.73824 0
M  V30 1886 H 181.777 -3.72408 0.355356 0
M  V30 1887 H 183.11 -4.90157 0.447936 0
M  V30 1888 N 184.763 -0.387143 -1.52771 0
M  V30 1889 C 185.991 0.195869 -2.05971 0
M  V30 1890 C 186.406 1.40691 -1.25903 0
M  V30 1891 O 185.763 1.79931 -0.305134 0
M  V30 1892 C 185.814 0.56812 -3.57008 0
M  V30 1893 O 185.535 -0.594803 -4.34043 0
M  V30 1894 C 187.036 1.20723 -4.26545 0
M  V30 1895 H 184.256 0.0300578 -0.670326 0
M  V30 1896 H 186.8 -0.551749 -1.96916 0
M  V30 1897 H 184.955 1.26564 -3.66143 0
M  V30 1898 H 185.369 -0.289322 -5.23701 0
M  V30 1899 H 186.843 1.41807 -5.33474 0
M  V30 1900 H 187.32 2.17395 -3.81623 0
M  V30 1901 H 187.926 0.550535 -4.21722 0
M  V30 1902 N 186.241 1.57166 -0.116904 0
M  V30 1903 C 187.466 1.999 0.55271 0
M  V30 1904 C 187.891 0.996039 1.59564 0
M  V30 1905 O 187.249 -0.032556 1.81271 0
M  V30 1906 C 187.297 3.4152 1.15742 0
M  V30 1907 O 186.401 3.44106 2.27299 0
M  V30 1908 H 185.742 0.649447 0.138258 0
M  V30 1909 H 188.272 2.03573 -0.204759 0
M  V30 1910 H 188.282 3.79684 1.49346 0
M  V30 1911 H 186.957 4.14034 0.393493 0
M  V30 1912 H 185.534 3.17759 1.9515 0
M  V30 1913 N 187.719 -0.156864 1.56817 0
M  V30 1914 C 189.135 -0.50916 1.5126 0
M  V30 1915 C 189.335 -1.83897 0.823658 0
M  V30 1916 O 188.391 -2.49469 0.390055 0
M  V30 1917 C 189.704 -0.52857 2.96018 0
M  V30 1918 C 191.252 -0.614771 3.06903 0
M  V30 1919 C 191.727 -0.664938 4.53147 0
M  V30 1920 N 193.218 -0.727433 4.57452 0
M  V30 1921 C 193.953 -0.787067 5.67973 0
M  V30 1922 N 193.449 -0.806649 6.88088 0
M  V30 1923 N 195.242 -0.827195 5.5598 0
M  V30 1924 H 187.393 0.714935 2.00006 0
M  V30 1925 H 189.656 0.259526 0.911784 0
M  V30 1926 H 189.362 0.380154 3.49639 0
M  V30 1927 H 189.236 -1.36998 3.51442 0
M  V30 1928 H 191.623 -1.51392 2.53307 0
M  V30 1929 H 191.704 0.253597 2.5454 0
M  V30 1930 H 191.348 0.230011 5.07379 0
M  V30 1931 H 191.278 -1.54966 5.03282 0
M  V30 1932 H 193.769 -0.719998 3.70978 0
M  V30 1933 H 194.082 -0.853727 7.6807 0
M  V30 1934 H 192.427 -0.774687 6.90669 0
M  V30 1935 H 195.618 -0.808998 4.61056 0
M  V30 1936 H 195.791 -0.870206 6.4213 0
M  V30 1937 N 189.197 -1.51736 -0.425897 0
M  V30 1938 C 190.425 -1.68794 -1.1965 0
M  V30 1939 C 190.84 -0.390164 -1.84725 0
M  V30 1940 O 190.197 0.632376 -1.71194 0
M  V30 1941 C 190.248 -2.81174 -2.27208 0
M  V30 1942 O 189.969 -4.05925 -1.64793 0
M  V30 1943 C 191.47 -3.09599 -3.17275 0
M  V30 1944 H 188.69 -0.566128 -0.360194 0
M  V30 1945 H 191.234 -1.98211 -0.503249 0
M  V30 1946 H 189.389 -2.54324 -2.9223 0
M  V30 1947 H 189.803 -4.68423 -2.35967 0
M  V30 1948 H 191.277 -3.91786 -3.88854 0
M  V30 1949 H 191.754 -2.22468 -3.78688 0
M  V30 1950 H 192.36 -3.38151 -2.57941 0
M  V30 1951 N 190.675 0.682077 -1.42076 0
M  V30 1952 C 191.923 1.4393 -1.41876 0
M  V30 1953 C 192.244 1.94971 -0.0335599 0
M  V30 1954 O 191.514 1.72591 0.926773 0
M  V30 1955 H 190.094 0.534085 -0.522267 0
M  V30 1956 H 192.756 0.806427 -1.77434 0
M  V30 1957 H 191.852 2.29588 -2.11414 0
M  V30 1958 N 192.153 1.28127 0.917671 0
M  V30 1959 C 193.401 1.14825 1.66312 0
M  V30 1960 C 193.722 -0.304379 1.9261 0
M  V30 1961 O 192.992 -1.21149 1.53947 0
M  V30 1962 H 191.572 0.421953 0.616413 0
M  V30 1963 H 194.234 1.608 1.10134 0
M  V30 1964 H 193.33 1.68489 2.62712 0
M  V30 1965 N 193.631 -1.12557 1.10312 0
M  V30 1966 C 194.88 -1.83395 0.839588 0
M  V30 1967 C 195.193 -1.84939 -0.636929 0
M  V30 1968 O 196.399 -2.51761 -1.01631 0
M  V30 1969 C 194.855 -3.29303 1.45215 0
M  V30 1970 C 194.463 -3.36122 2.96186 0
M  V30 1971 C 196.207 -4.05121 1.26796 0
M  V30 1972 C 194.114 -4.76357 3.50483 0
M  V30 1973 H 193.044 -0.687133 0.310425 0
M  V30 1974 H 195.695 -1.26746 1.32694 0
M  V30 1975 H 194.077 -3.85812 0.892469 0
M  V30 1976 H 195.251 -2.89559 3.58458 0
M  V30 1977 H 193.566 -2.73776 3.13745 0
M  V30 1978 H 196.163 -5.08668 1.64806 0
M  V30 1979 H 196.506 -4.15773 0.209409 0
M  V30 1980 H 197.039 -3.54967 1.79563 0
M  V30 1981 H 193.778 -4.70899 4.55998 0
M  V30 1982 H 193.298 -5.23377 2.92978 0
M  V30 1983 H 194.977 -5.45294 3.48228 0
M  V30 1984 N 195.109 -0.891671 -1.2995 0
M  V30 1985 C 196.039 -0.379797 -2.30391 0
M  V30 1986 C 197.02 0.540919 -1.6127 0
M  V30 1987 O 198.205 0.453352 -1.88834 0
M  V30 1988 C 195.335 0.400654 -3.44981 0
M  V30 1989 C 194.289 -0.428905 -4.25846 0
M  V30 1990 C 193.615 0.478557 -5.32554 0
M  V30 1991 C 194.915 -1.67458 -4.94727 0
M  V30 1992 H 196.609 -1.21914 -2.73454 0
M  V30 1993 H 194.155 -0.587675 -1.31462 0
M  V30 1994 H 196.108 0.769434 -4.14316 0
M  V30 1995 H 194.832 1.27371 -3.0074 0
M  V30 1996 H 193.491 -0.779911 -3.58208 0
M  V30 1997 H 193.139 1.34951 -4.84559 0
M  V30 1998 H 192.839 -0.0727433 -5.87555 0
M  V30 1999 H 194.363 0.843705 -6.04743 0
M  V30 2000 H 195.777 -1.376 -5.56542 0
M  V30 2001 H 194.174 -2.16659 -5.59624 0
M  V30 2002 H 195.244 -2.41518 -4.20473 0
M  V30 2003 N 196.587 1.43421 -0.653314 0
M  V30 2004 C 197.55 2.29182 0.0287951 0
M  V30 2005 C 198.55 1.42213 0.750465 0
M  V30 2006 O 199.74 1.63843 0.591701 0
M  V30 2007 C 196.872 3.24278 1.05151 0
M  V30 2008 H 198.065 2.90985 -0.725786 0
M  V30 2009 H 195.618 1.50702 -0.414545 0
M  V30 2010 H 196.353 2.6737 1.83532 0
M  V30 2011 H 196.138 3.88396 0.537687 0
M  V30 2012 H 197.628 3.88647 1.52786 0
M  V30 2013 N 198.065 0.39524 1.52563 0
M  V30 2014 C 199.028 -0.425001 2.25225 0
M  V30 2015 C 200.028 -0.985266 1.27079 0
M  V30 2016 O 201.218 -0.866332 1.5113 0
M  V30 2017 C 198.35 -1.59686 3.01186 0
M  V30 2018 H 199.543 0.211233 2.99155 0
M  V30 2019 H 197.096 0.147472 1.55603 0
M  V30 2020 H 197.831 -2.27035 2.31572 0
M  V30 2021 H 197.616 -1.20176 3.73229 0
M  V30 2022 H 199.106 -2.17743 3.5634 0
M  V30 2023 N 199.544 -1.57102 0.125237 0
M  V30 2024 C 200.955 -1.82384 -0.399142 0
M  V30 2025 C 201.306 -1.04276 -1.66195 0
M  V30 2026 O 200.431 -0.281269 -2.14564 0
M  V30 2027 C 201.026 -3.30821 -0.730932 0
M  V30 2028 C 199.585 -3.56762 -1.19992 0
M  V30 2029 C 198.732 -2.7649 -0.211792 0
M  V30 2030 H 201.683 -1.54786 0.350277 0
M  V30 2031 H 201.704 -3.4579 -1.58775 0
M  V30 2032 H 201.216 -3.87643 0.188345 0
M  V30 2033 H 199.317 -3.05305 -2.13588 0
M  V30 2034 H 199.43 -4.65317 -1.14093 0
M  V30 2035 H 197.794 -2.4489 -0.700085 0
M  V30 2036 H 198.577 -3.36073 0.700691 0
M  V30 2037 N 201.022 0.148545 -1.56898 0
M  V30 2038 C 202.268 0.862694 -1.83536 0
M  V30 2039 C 202.601 1.80889 -0.706604 0
M  V30 2040 O 201.876 1.92328 0.289885 0
M  V30 2041 C 202.159 1.63853 -3.20662 0
M  V30 2042 C 202.012 0.713925 -4.44098 0
M  V30 2043 C 203.331 2.60133 -3.54991 0
M  V30 2044 H 200.45 0.312179 -0.667618 0
M  V30 2045 H 203.092 0.127953 -1.89569 0
M  V30 2046 H 201.242 2.26489 -3.1565 0
M  V30 2047 H 202.914 0.098686 -4.61194 0
M  V30 2048 H 201.157 0.0234019 -4.33794 0
M  V30 2049 H 201.828 1.29278 -5.36648 0
M  V30 2050 H 204.304 2.07616 -3.60603 0
M  V30 2051 H 203.18 3.11468 -4.51972 0
M  V30 2052 H 203.441 3.41417 -2.80868 0
M  V30 2053 N 202.5 1.5196 0.417844 0
M  V30 2054 C 203.916 1.40569 0.755816 0
M  V30 2055 C 204.116 0.503316 1.95113 0
M  V30 2056 O 203.172 -0.0341925 2.52477 0
M  V30 2057 C 204.485 2.82947 1.01791 0
M  V30 2058 C 206.033 2.92231 1.12116 0
M  V30 2059 C 206.508 4.35559 1.41608 0
M  V30 2060 N 207.999 4.38753 1.48491 0
M  V30 2061 C 208.734 5.46705 1.7292 0
M  V30 2062 N 208.23 6.64788 1.95011 0
M  V30 2063 N 210.023 5.34209 1.74863 0
M  V30 2064 H 202.174 2.09168 -0.369098 0
M  V30 2065 H 204.437 0.942409 -0.102809 0
M  V30 2066 H 204.143 3.5106 0.212081 0
M  V30 2067 H 204.017 3.23462 1.94042 0
M  V30 2068 H 206.404 2.24304 1.9176 0
M  V30 2069 H 206.485 2.55185 0.177225 0
M  V30 2070 H 206.129 5.04042 0.624848 0
M  V30 2071 H 206.059 4.70133 2.37239 0
M  V30 2072 H 208.55 3.5363 1.33244 0
M  V30 2073 H 208.863 7.42845 2.13076 0
M  V30 2074 H 207.208 6.67869 1.92293 0
M  V30 2075 H 210.399 4.40937 1.57137 0
M  V30 2076 H 210.572 6.18415 1.93563 0
M  V30 2077 N 203.978 -0.674533 1.42435 0
M  V30 2078 C 205.255 -1.4305 1.33402 0
M  V30 2079 C 205.635 -2.11081 -0.0284674 0
M  V30 2080 O 204.983 -2.03257 -1.04397 0
M  V30 2081 C 205.193 -2.43272 2.50239 0
M  V30 2082 C 206.541 -3.07907 2.92367 0
M  V30 2083 O 207.565 -2.53599 2.50132 0
M  V30 2084 O 206.424 -4.0632 3.65467 0
M  V30 2085 H 203.518 -0.638076 0.526106 0
M  V30 2086 H 206.064 -0.703235 1.54443 0
M  V30 2087 H 204.836 -1.91803 3.41068 0
M  V30 2088 H 204.459 -3.23479 2.31186 0
M  V30 2089 N 205.456 -1.28612 -0.910864 0
M  V30 2090 C 206.684 -1.18792 -1.69399 0
M  V30 2091 C 207.099 0.253039 -1.87097 0
M  V30 2092 O 206.456 1.17071 -1.40003 0
M  V30 2093 C 206.507 -1.88511 -3.08457 0
M  V30 2094 O 206.228 -3.26979 -2.91576 0
M  V30 2095 C 207.729 -1.85029 -4.02839 0
M  V30 2096 H 204.949 -0.412233 -0.529438 0
M  V30 2097 H 207.493 -1.69788 -1.13984 0
M  V30 2098 H 205.648 -1.41379 -3.60681 0
M  V30 2099 H 206.062 -3.61936 -3.79608 0
M  V30 2100 H 207.536 -2.38395 -4.97867 0
M  V30 2101 H 208.013 -0.823303 -4.31414 0
M  V30 2102 H 208.619 -2.31853 -3.56545 0
M  V30 2103 N 206.934 1.1197 -1.10907 0
M  V30 2104 C 207.867 2.16998 -0.706192 0
M  V30 2105 C 208.845 1.59903 0.294897 0
M  V30 2106 O 210.029 1.87513 0.192636 0
M  V30 2107 C 207.156 3.38673 -0.0427664 0
M  V30 2108 C 206.202 4.14414 -1.00811 0
M  V30 2109 S 207.035 4.72079 -2.52789 0
M  V30 2110 C 208.191 5.97083 -1.87731 0
M  V30 2111 H 208.424 2.50837 -1.59587 0
M  V30 2112 H 205.957 1.23508 -0.926555 0
M  V30 2113 H 207.915 4.09142 0.333668 0
M  V30 2114 H 206.576 3.03105 0.823788 0
M  V30 2115 H 205.769 5.016 -0.491259 0
M  V30 2116 H 205.371 3.49678 -1.3267 0
M  V30 2117 H 207.663 6.66599 -1.21044 0
M  V30 2118 H 208.606 6.53403 -2.72892 0
M  V30 2119 H 209.014 5.4837 -1.33979 0
M  V30 2120 N 208.412 0.89855 1.29475 0
M  V30 2121 C 209.359 0.373819 2.27753 0
M  V30 2122 C 210.329 -0.543444 1.56958 0
M  V30 2123 O 211.514 -0.468934 1.84948 0
M  V30 2124 C 208.654 -0.393648 3.42848 0
M  V30 2125 C 207.767 0.554379 4.28428 0
M  V30 2126 C 206.902 -0.230026 5.30702 0
M  V30 2127 C 205.941 0.712599 6.07938 0
M  V30 2128 N 205.078 -0.0373283 7.0209 0
M  V30 2129 H 209.918 1.21699 2.72017 0
M  V30 2130 H 207.455 0.611456 1.33789 0
M  V30 2131 H 209.413 -0.85466 4.08352 0
M  V30 2132 H 208.043 -1.20128 2.99615 0
M  V30 2133 H 207.095 1.13391 3.63107 0
M  V30 2134 H 208.407 1.27597 4.82204 0
M  V30 2135 H 207.561 -0.752288 6.02018 0
M  V30 2136 H 206.3 -0.984758 4.77654 0
M  V30 2137 H 205.305 1.24637 5.35486 0
M  V30 2138 H 206.53 1.46664 6.63074 0
M  V30 2139 H 204.476 -0.774348 6.51414 0
M  V30 2140 H 204.393 0.624374 7.53417 0
M  V30 2141 H 205.661 -0.539891 7.77628 0
M  V30 2142 N 209.89 -1.43072 0.660911 0
M  V30 2143 C 211.306 -1.56169 0.329173 0
M  V30 2144 C 211.506 -1.64317 -1.16629 0
M  V30 2145 O 210.562 -1.60245 -1.95135 0
M  V30 2146 C 211.875 -2.81873 1.04729 0
M  V30 2147 C 213.423 -2.95627 1.02828 0
M  V30 2148 C 213.898 -4.24174 1.72744 0
M  V30 2149 N 215.389 -4.31055 1.69545 0
M  V30 2150 C 216.124 -5.29304 2.20511 0
M  V30 2151 N 215.62 -6.33786 2.79799 0
M  V30 2152 N 217.413 -5.21008 2.10966 0
M  V30 2153 H 209.564 -1.36027 1.63127 0
M  V30 2154 H 211.827 -0.653823 0.686454 0
M  V30 2155 H 211.533 -2.81942 2.10242 0
M  V30 2156 H 211.407 -3.72338 0.603702 0
M  V30 2157 H 213.794 -2.95094 -0.0184742 0
M  V30 2158 H 213.875 -2.06431 1.51063 0
M  V30 2159 H 213.519 -4.25467 2.7738 0
M  V30 2160 H 213.449 -5.1228 1.2197 0
M  V30 2161 H 215.94 -3.56174 1.26288 0
M  V30 2162 H 216.253 -7.05086 3.16344 0
M  V30 2163 H 214.598 -6.34387 2.83863 0
M  V30 2164 H 217.789 -4.38301 1.64347 0
M  V30 2165 H 217.962 -5.97416 2.50993 0
M  V30 2166 N 211.368 -0.403325 -1.52352 0
M  V30 2167 C 212.331 0.413051 -2.25447 0
M  V30 2168 C 213.331 0.978513 -1.276 0
M  V30 2169 O 214.521 0.858305 -1.51587 0
M  V30 2170 C 211.653 1.58087 -3.02029 0
M  V30 2171 H 212.846 -0.227094 -2.99039 0
M  V30 2172 H 210.399 -0.155722 -1.55522 0
M  V30 2173 H 211.134 2.25804 -2.32772 0
M  V30 2174 H 210.919 1.18195 -3.73861 0
M  V30 2175 H 212.409 2.1585 -3.57489 0
M  V30 2176 N 212.846 1.57033 -0.133567 0
M  V30 2177 C 213.756 2.19632 0.824564 0
M  V30 2178 C 214.772 1.17666 1.28182 0
M  V30 2179 O 215.948 1.50193 1.3418 0
M  V30 2180 C 213.013 2.79499 2.05137 0
M  V30 2181 C 212.074 3.96548 1.64464 0
M  V30 2182 C 211.307 4.5355 2.81297 0
M  V30 2183 O 211.53 4.09438 3.97136 0
M  V30 2184 O 210.464 5.44018 2.57542 0
M  V30 2185 H 214.29 3.01991 0.321766 0
M  V30 2186 H 211.875 1.49112 0.0927889 0
M  V30 2187 H 213.757 3.17602 2.7696 0
M  V30 2188 H 212.432 2.00162 2.54395 0
M  V30 2189 H 211.339 3.63186 0.897048 0
M  V30 2190 H 212.672 4.77364 1.19934 0
M  V30 2191 N 214.325 -0.140222 1.56975 0
M  V30 2192 C 215.736 -0.699596 1.73097 0
M  V30 2193 C 216.087 -1.8134 0.749022 0
M  V30 2194 O 215.212 -2.16241 -0.0828503 0
M  V30 2195 C 215.807 -1.27582 3.1386 0
M  V30 2196 C 214.366 -1.78169 3.31561 0
M  V30 2197 C 213.513 -0.672855 2.69013 0
M  V30 2198 H 216.464 0.0855115 1.58469 0
M  V30 2199 H 216.485 -2.14561 3.14235 0
M  V30 2200 H 215.997 -0.464955 3.85305 0
M  V30 2201 H 214.098 -2.61801 2.65124 0
M  V30 2202 H 214.211 -1.90574 4.39566 0
M  V30 2203 H 212.575 -1.10118 2.29665 0
M  V30 2204 H 213.358 0.126679 3.43066 0
M  V30 2205 N 215.803 -1.52179 -0.40978 0
M  V30 2206 C 217.051 -1.65878 -1.15451 0
M  V30 2207 C 217.372 -0.390771 -1.91044 0
M  V30 2208 O 216.642 0.594323 -1.86667 0
M  V30 2209 H 215.222 -0.611405 -0.429177 0
M  V30 2210 H 217.884 -1.89219 -0.467134 0
M  V30 2211 H 216.98 -2.49954 -1.86894 0
M  V30 2212 N 217.281 0.66697 -1.42791 0
M  V30 2213 C 218.228 1.7803 -1.4688 0
M  V30 2214 C 219.198 1.6299 -0.319919 0
M  V30 2215 O 220.383 1.83432 -0.525118 0
M  V30 2216 C 217.523 3.1611 -1.38451 0
M  V30 2217 C 216.636 3.42381 -2.63437 0
M  V30 2218 C 215.771 4.70232 -2.47094 0
M  V30 2219 C 214.81 4.89564 -3.67415 0
M  V30 2220 N 213.947 6.08661 -3.49966 0
M  V30 2221 H 218.787 1.7387 -2.42019 0
M  V30 2222 H 216.324 0.84868 -1.20149 0
M  V30 2223 H 218.282 3.95914 -1.31561 0
M  V30 2224 H 216.912 3.19374 -0.469033 0
M  V30 2225 H 215.964 2.56774 -2.80662 0
M  V30 2226 H 217.276 3.52557 -3.52853 0
M  V30 2227 H 216.43 5.5814 -2.37834 0
M  V30 2228 H 215.169 4.62353 -1.5518 0
M  V30 2229 H 214.174 4.00096 -3.77099 0
M  V30 2230 H 215.399 4.99282 -4.6032 0
M  V30 2231 H 213.345 6.0194 -2.60776 0
M  V30 2232 H 213.262 6.19733 -4.32975 0
M  V30 2233 H 214.53 6.99226 -3.44532 0
M  V30 2234 N 218.759 1.29093 0.90403 0
M  V30 2235 C 219.707 1.13727 2.02901 0
M  V30 2236 C 220.701 0.0539853 1.69314 0
M  V30 2237 O 221.907 0.213469 1.7873 0
M  V30 2238 H 218.282 0.35117 0.664969 0
M  V30 2239 H 220.253 2.08982 2.13001 0
M  V30 2240 C 219.002 0.826066 3.37745 0
M  V30 2241 H 218.325 1.65164 3.64089 0
M  V30 2242 H 219.765 0.758559 4.17159 0
M  V30 2243 C 218.224 -0.470541 3.33598 0
M  V30 2244 O 218.754 -1.49792 3.72727 0
M  V30 2245 N 216.96 -0.474812 2.86695 0
M  V30 2246 H 216.507 0.361692 2.55048 0
M  V30 2247 H 216.465 -1.34236 2.84303 0
M  V30 2248 N 220.237 -1.11381 1.11499 0
M  V30 2249 C 221.2 -2.15622 0.777153 0
M  V30 2250 C 222.2 -1.59504 -0.203779 0
M  V30 2251 O 223.39 -1.74188 0.020782 0
M  V30 2252 C 220.522 -3.40556 0.153116 0
M  V30 2253 H 221.715 -2.47021 1.70061 0
M  V30 2254 H 219.268 -1.26577 0.916952 0
M  V30 2255 H 220.003 -3.14767 -0.780536 0
M  V30 2256 H 219.788 -3.8257 0.859238 0
M  V30 2257 H 221.278 -4.17546 -0.0671044 0
M  V30 2258 N 221.715 -0.905404 -1.28997 0
M  V30 2259 C 222.964 -0.530191 -1.94607 0
M  V30 2260 C 223.277 0.929185 -1.72121 0
M  V30 2261 O 224.483 1.41218 -2.31883 0
M  V30 2262 C 222.939 -0.897333 -3.48534 0
M  V30 2263 C 222.547 -2.37587 -3.79811 0
M  V30 2264 C 224.291 -0.592304 -4.20347 0
M  V30 2265 C 222.198 -2.68357 -5.27009 0
M  V30 2266 H 221.128 -0.194558 -0.728466 0
M  V30 2267 H 223.779 -1.10318 -1.46636 0
M  V30 2268 H 222.161 -0.253214 -3.9519 0
M  V30 2269 H 223.335 -3.06602 -3.43994 0
M  V30 2270 H 221.65 -2.6505 -3.2115 0
M  V30 2271 H 224.247 -0.798975 -5.28697 0
M  V30 2272 H 224.59 0.469474 -4.13644 0
M  V30 2273 H 225.123 -1.19452 -3.79442 0
M  V30 2274 H 221.862 -3.73355 -5.38782 0
M  V30 2275 H 221.382 -2.03971 -5.64053 0
M  V30 2276 H 223.061 -2.54922 -5.94663 0
M  V30 2277 N 223.193 1.4272 -0.668489 0
M  V30 2278 C 224.156 2.292 0.00448567 0
M  V30 2279 C 225.156 1.43001 0.735339 0
M  V30 2280 O 226.346 1.64461 0.57429 0
M  V30 2281 C 223.478 3.25375 1.01705 0
M  V30 2282 H 224.671 2.90199 -0.756608 0
M  V30 2283 H 222.224 1.50254 -0.430506 0
M  V30 2284 H 222.959 2.69301 1.80686 0
M  V30 2285 H 222.744 3.88944 0.496463 0
M  V30 2286 H 224.234 3.90245 1.48655 0
M  V30 2287 N 224.671 0.411399 1.52136 0
M  V30 2288 C 225.621 -0.430376 2.23901 0
M  V30 2289 C 226.605 -1.0116 1.25121 0
M  V30 2290 O 227.797 -0.934044 1.50348 0
M  V30 2291 C 224.926 -1.54527 3.06556 0
M  V30 2292 C 224.012 -0.9747 4.12747 0
M  V30 2293 N 224.403 -0.130991 5.0563 0
M  V30 2294 C 222.701 -1.24497 4.28271 0
M  V30 2295 C 223.402 0.186689 5.814 0
M  V30 2296 N 222.378 -0.42304 5.41951 0
M  V30 2297 H 226.18 0.220509 2.93072 0
M  V30 2298 H 223.694 0.221952 1.60876 0
M  V30 2299 H 225.691 -2.16093 3.56524 0
M  V30 2300 H 224.351 -2.19875 2.38925 0
M  V30 2301 H 225.362 0.23349 5.17373 0
M  V30 2302 H 222.039 -1.89787 3.7187 0
M  V30 2303 H 223.429 0.871673 6.66222 0
M  V30 2304 N 226.149 -1.5696 0.141893 0
M  V30 2305 C 227.377 -2.00322 -0.517579 0
M  V30 2306 C 227.792 -1.02193 -1.58752 0
M  V30 2307 O 227.149 -0.0181619 -1.82491 0
M  V30 2308 C 227.2 -3.43618 -1.12289 0
M  V30 2309 O 226.921 -4.37995 -0.0956929 0
M  V30 2310 C 228.422 -4.02231 -1.86347 0
M  V30 2311 H 225.642 -0.657243 -0.135177 0
M  V30 2312 H 228.186 -2.03146 0.234973 0
M  V30 2313 H 226.341 -3.41662 -1.82609 0
M  V30 2314 H 226.755 -5.21729 -0.538469 0
M  V30 2315 H 228.229 -5.04509 -2.23997 0
M  V30 2316 H 228.706 -3.42655 -2.74744 0
M  V30 2317 H 229.312 -4.07802 -1.20737 0
M  V30 2318 N 227.627 0.131896 -1.57047 0
M  V30 2319 C 228.873 0.843179 -1.84441 0
M  V30 2320 C 229.206 1.80129 -0.725749 0
M  V30 2321 O 228.481 1.92624 0.269469 0
M  V30 2322 C 228.764 1.60442 -3.22382 0
M  V30 2323 C 228.617 0.666782 -4.4483 0
M  V30 2324 C 229.936 2.56354 -3.5773 0
M  V30 2325 H 227.055 0.305081 -0.670891 0
M  V30 2326 H 229.697 0.107839 -1.89694 0
M  V30 2327 H 227.847 2.23128 -3.18035 0
M  V30 2328 H 229.519 0.0497646 -4.61273 0
M  V30 2329 H 227.762 -0.022609 -4.33794 0
M  V30 2330 H 228.433 1.23579 -5.37989 0
M  V30 2331 H 230.909 2.0378 -3.62785 0
M  V30 2332 H 229.785 3.06657 -4.5525 0
M  V30 2333 H 230.046 3.38419 -2.84473 0
M  V30 2334 N 229.106 1.52395 0.401703 0
M  V30 2335 C 230.383 1.57387 1.16141 0
M  V30 2336 C 230.763 0.359359 2.08019 0
M  V30 2337 O 230.111 -0.65326 2.18963 0
M  V30 2338 C 230.321 2.90631 1.93221 0
M  V30 2339 C 231.669 3.43904 2.49028 0
M  V30 2340 O 232.693 2.92421 2.03393 0
M  V30 2341 O 231.552 4.33823 3.32356 0
M  V30 2342 H 228.646 0.634262 0.530698 0
M  V30 2343 H 231.192 1.64725 0.407883 0
M  V30 2344 H 229.964 3.70473 1.25958 0
M  V30 2345 H 229.587 2.8662 2.75563 0
M  V30 2346 N 230.584 -0.659388 1.43143 0
M  V30 2347 C 232 -0.974337 1.26407 0
M  V30 2348 C 232.2 -2.007 0.179341 0
M  V30 2349 O 231.256 -2.4856 -0.444295 0
M  V30 2350 C 232.569 -1.46447 2.62628 0
M  V30 2351 C 234.117 -1.58144 2.7011 0
M  V30 2352 C 234.592 -2.1055 4.06734 0
M  V30 2353 N 236.083 -2.17861 4.08767 0
M  V30 2354 C 236.818 -2.59519 5.1131 0
M  V30 2355 N 236.314 -3.00518 6.24228 0
M  V30 2356 N 238.107 -2.59404 4.98664 0
M  V30 2357 H 230.258 0.0240528 2.12386 0
M  V30 2358 H 232.521 -0.0518065 0.946583 0
M  V30 2359 H 232.227 -0.780123 3.42939 0
M  V30 2360 H 232.101 -2.44058 2.87603 0
M  V30 2361 H 234.488 -2.25682 1.90136 0
M  V30 2362 H 234.569 -0.589828 2.48907 0
M  V30 2363 H 234.213 -1.43616 4.87172 0
M  V30 2364 H 234.143 -3.10531 4.25298 0
M  V30 2365 H 236.634 -1.88975 3.27257 0
M  V30 2366 H 236.947 -3.31036 6.98309 0
M  V30 2367 H 235.292 -2.98337 6.2771 0
M  V30 2368 H 238.483 -2.26747 4.09516 0
M  V30 2369 H 238.656 -2.91548 5.78709 0
M  V30 2370 N 232.062 -1.29571 -0.897171 0
M  V30 2371 C 233.01 -1.14802 -2.02295 0
M  V30 2372 C 234.004 -0.0629637 -1.69283 0
M  V30 2373 O 235.21 -0.222945 -1.78614 0
M  V30 2374 H 231.585 -0.354692 -0.663097 0
M  V30 2375 H 233.556 -2.10108 -2.11889 0
M  V30 2376 C 232.305 -0.843966 -3.37302 0
M  V30 2377 H 231.628 -1.67093 -3.63208 0
M  V30 2378 H 233.068 -0.780672 -4.16751 0
M  V30 2379 C 231.527 0.452843 -3.33843 0
M  V30 2380 O 232.057 1.47813 -3.73516 0
M  V30 2381 N 230.263 0.459601 -2.86943 0
M  V30 2382 H 229.81 -0.375213 -2.54853 0
M  V30 2383 H 229.768 1.32726 -2.85011 0
M  V30 2384 N 233.54 1.10788 -1.12088 0
M  V30 2385 C 234.788 1.8231 -0.872205 0
M  V30 2386 C 235.109 1.85419 0.603709 0
M  V30 2387 O 234.379 1.32963 1.43867 0
M  V30 2388 H 232.959 0.675137 -0.319686 0
M  V30 2389 H 235.621 1.34068 -1.41463 0
M  V30 2390 H 234.717 2.85955 -1.25045 0
M  V30 2391 N 235.018 0.912232 1.28515 0
M  V30 2392 C 235.948 0.416403 2.29757 0
M  V30 2393 C 236.929 -0.515194 1.6211 0
M  V30 2394 O 238.114 -0.423253 1.89532 0
M  V30 2395 C 235.244 -0.34572 3.45575 0
M  V30 2396 C 234.198 0.496599 4.25109 0
M  V30 2397 C 233.524 -0.393771 5.33248 0
M  V30 2398 C 234.824 1.75307 4.92001 0
M  V30 2399 H 236.518 1.26249 2.7148 0
M  V30 2400 H 234.064 0.608515 1.30511 0
M  V30 2401 H 236.017 -0.703422 4.15488 0
M  V30 2402 H 234.741 -1.2257 3.02728 0
M  V30 2403 H 233.4 0.8368 3.56922 0
M  V30 2404 H 233.048 -1.27225 4.86644 0
M  V30 2405 H 232.748 0.166209 5.87365 0
M  V30 2406 H 234.272 -0.747389 6.06009 0
M  V30 2407 H 235.686 1.46437 5.54283 0
M  V30 2408 H 234.083 2.25534 5.56106 0
M  V30 2409 H 235.153 2.48176 4.16577 0
M  V30 2410 N 236.496 -1.42363 0.676048 0
M  V30 2411 C 237.742 -2.02336 0.207809 0
M  V30 2412 C 238.097 -1.52506 -1.17302 0
M  V30 2413 O 237.39 -0.718048 -1.77636 0
M  V30 2414 C 237.584 -3.56929 0.183431 0
M  V30 2415 C 237.413 -4.21762 1.56036 0
M  V30 2416 C 236.183 -4.56881 2.15842 0
M  V30 2417 C 238.381 -4.49267 2.50327 0
M  V30 2418 N 236.363 -5.069 3.46303 0
M  V30 2419 C 237.734 -5.00851 3.65443 0
M  V30 2420 C 239.789 -4.31257 2.48841 0
M  V30 2421 C 238.492 -5.36317 4.79329 0
M  V30 2422 C 240.518 -4.678 3.61824 0
M  V30 2423 C 239.88 -5.19537 4.75668 0
M  V30 2424 H 235.979 -0.772583 0.120993 0
M  V30 2425 H 238.563 -1.73203 0.889306 0
M  V30 2426 H 236.734 -3.85576 -0.467483 0
M  V30 2427 H 238.466 -4.03603 -0.297808 0
M  V30 2428 H 235.221 -4.4268 1.68319 0
M  V30 2429 H 235.645 -5.36338 4.13123 0
M  V30 2430 H 240.287 -3.90511 1.62051 0
M  V30 2431 H 238.005 -5.75995 5.66794 0
M  V30 2432 H 241.591 -4.55541 3.61903 0
M  V30 2433 H 240.471 -5.47287 5.61646 0
M  V30 2434 N 237.974 -0.419461 -1.51915 0
M  V30 2435 C 238.924 0.418496 -2.24126 0
M  V30 2436 C 239.908 1.00495 -1.25656 0
M  V30 2437 O 241.1 0.926058 -1.50842 0
M  V30 2438 C 238.229 1.52899 -3.07371 0
M  V30 2439 C 237.315 0.952797 -4.13258 0
M  V30 2440 N 237.706 0.104175 -5.05693 0
M  V30 2441 C 236.004 1.22224 -4.28926 0
M  V30 2442 C 236.705 -0.21752 -5.81293 0
M  V30 2443 N 235.681 0.394293 -5.42168 0
M  V30 2444 H 239.483 -0.236048 -2.92951 0
M  V30 2445 H 236.997 -0.230481 -1.60756 0
M  V30 2446 H 238.994 2.14199 -3.57665 0
M  V30 2447 H 237.654 2.18605 -2.40088 0
M  V30 2448 H 238.665 -0.260924 -5.17242 0
M  V30 2449 H 235.342 1.87812 -3.72871 0
M  V30 2450 H 236.732 -0.906992 -6.6575 0
M  V30 2451 N 239.452 1.56882 -0.150215 0
M  V30 2452 C 240.415 2.1573 0.774157 0
M  V30 2453 C 241.415 1.0999 1.17298 0
M  V30 2454 O 242.605 1.35613 1.09338 0
M  V30 2455 C 239.737 2.72302 2.05096 0
M  V30 2456 H 240.93 2.98752 0.262201 0
M  V30 2457 H 238.483 1.55985 0.099248 0
M  V30 2458 H 239.218 1.92956 2.6065 0
M  V30 2459 H 239.003 3.49665 1.77416 0
M  V30 2460 H 240.493 3.17632 2.71109 0
M  V30 2461 N 240.93 -0.123565 1.57115 0
M  V30 2462 C 241.86 -1.15309 2.03042 0
M  V30 2463 C 242.841 -1.43454 0.914061 0
M  V30 2464 O 244.026 -1.53973 1.18347 0
M  V30 2465 C 241.156 -2.48043 2.43089 0
M  V30 2466 C 240.11 -2.3437 3.58127 0
M  V30 2467 C 239.436 -3.72026 3.84059 0
M  V30 2468 C 240.736 -1.80804 4.90007 0
M  V30 2469 H 242.43 -0.771102 2.893 0
M  V30 2470 H 239.976 -0.369479 1.39179 0
M  V30 2471 H 241.929 -3.20311 2.73823 0
M  V30 2472 H 240.653 -2.88122 1.53796 0
M  V30 2473 H 239.312 -1.64551 3.27595 0
M  V30 2474 H 238.96 -4.09582 2.91979 0
M  V30 2475 H 238.66 -3.63732 4.6149 0
M  V30 2476 H 240.184 -4.45806 4.1724 0
M  V30 2477 H 241.598 -2.42886 5.19307 0
M  V30 2478 H 239.995 -1.83343 5.71407 0
M  V30 2479 H 241.065 -0.76528 4.78823 0
M  V30 2480 N 242.408 -1.52605 -0.393616 0
M  V30 2481 C 243.636 -1.71294 -1.16043 0
M  V30 2482 C 244.051 -0.429259 -1.83855 0
M  V30 2483 O 243.408 0.595921 -1.72496 0
M  V30 2484 C 243.459 -2.8593 -2.21193 0
M  V30 2485 O 243.18 -4.09329 -1.56146 0
M  V30 2486 C 244.681 -3.16259 -3.10636 0
M  V30 2487 H 241.901 -0.573641 -0.348104 0
M  V30 2488 H 244.445 -1.99234 -0.461092 0
M  V30 2489 H 242.6 -2.60465 -2.86769 0
M  V30 2490 H 243.014 -4.73323 -2.25978 0
M  V30 2491 H 244.488 -3.99946 -3.80456 0
M  V30 2492 H 244.965 -2.3045 -3.73884 0
M  V30 2493 H 245.571 -3.43547 -2.50711 0
M  V30 2494 N 243.887 0.651787 -1.4349 0
M  V30 2495 C 245.298 1.233 -1.40193 0
M  V30 2496 C 245.649 1.9591 -0.106727 0
M  V30 2497 O 244.774 2.01316 0.793773 0
M  V30 2498 C 245.369 2.24257 -2.53957 0
M  V30 2499 C 243.928 2.77852 -2.5392 0
M  V30 2500 C 243.075 1.52517 -2.3159 0
M  V30 2501 H 246.026 0.443717 -1.52371 0
M  V30 2502 H 246.047 3.0646 -2.25528 0
M  V30 2503 H 245.559 1.71382 -3.4821 0
M  V30 2504 H 243.66 3.34786 -1.63551 0
M  V30 2505 H 243.773 3.25299 -3.51735 0
M  V30 2506 H 242.137 1.79915 -1.80285 0
M  V30 2507 H 242.92 1.01574 -3.27929 0
M  V30 2508 N 245.365 1.30045 0.890287 0
M  V30 2509 C 246.297 1.11786 2.00091 0
M  V30 2510 C 247.31 0.0626307 1.62679 0
M  V30 2511 O 248.499 0.308112 1.75821 0
M  V30 2512 C 245.599 0.681527 3.31977 0
M  V30 2513 C 244.772 1.81735 3.97858 0
M  V30 2514 C 243.831 1.37045 5.08041 0
M  V30 2515 O 242.857 2.07677 5.29961 0
M  V30 2516 N 244.059 0.246525 5.79976 0
M  V30 2517 H 246.824 2.07441 2.16306 0
M  V30 2518 H 244.385 1.2211 1.06305 0
M  V30 2519 H 246.377 0.365675 4.03045 0
M  V30 2520 H 244.947 -0.182828 3.12065 0
M  V30 2521 H 244.167 2.30159 3.20032 0
M  V30 2522 H 245.455 2.57865 4.38615 0
M  V30 2523 H 244.853 -0.34215 5.64664 0
M  V30 2524 H 243.41 -0.00990438 6.51799 0
M  V30 2525 N 246.843 -1.10192 1.12674 0
M  V30 2526 C 248.09 -1.82205 0.883606 0
M  V30 2527 C 248.418 -1.8532 -0.590492 0
M  V30 2528 O 247.673 -1.31137 -1.45264 0
M  V30 2529 C 247.972 -3.28552 1.4067 0
M  V30 2530 C 247.638 -3.45582 2.89627 0
M  V30 2531 C 246.3 -3.49937 3.30299 0
M  V30 2532 C 248.652 -3.50768 3.85501 0
M  V30 2533 C 245.98 -3.57049 4.65546 0
M  V30 2534 C 248.332 -3.59414 5.20581 0
M  V30 2535 C 246.996 -3.62034 5.60792 0
M  V30 2536 H 246.266 -0.666735 0.323334 0
M  V30 2537 H 248.913 -1.29868 1.40736 0
M  V30 2538 H 247.218 -3.83473 0.80347 0
M  V30 2539 H 248.915 -3.82788 1.19475 0
M  V30 2540 H 245.505 -3.42871 2.57172 0
M  V30 2541 H 249.689 -3.46651 3.55171 0
M  V30 2542 H 244.945 -3.57361 4.96088 0
M  V30 2543 H 249.119 -3.62371 5.94693 0
M  V30 2544 H 246.746 -3.67298 6.6558 0
M  V30 2545 N 248.321 -0.919034 -1.28029 0
M  V30 2546 C 249.568 -0.554934 -1.94748 0
M  V30 2547 C 249.896 0.90231 -1.72304 0
M  V30 2548 O 249.151 1.65767 -1.04018 0
M  V30 2549 C 249.45 -0.816855 -3.4794 0
M  V30 2550 C 249.116 -2.25448 -3.90492 0
M  V30 2551 C 247.778 -2.64752 -4.01821 0
M  V30 2552 C 250.13 -3.18977 -4.12193 0
M  V30 2553 C 247.458 -3.96727 -4.32232 0
M  V30 2554 C 249.81 -4.50523 -4.44086 0
M  V30 2555 C 248.474 -4.89673 -4.53626 0
M  V30 2556 H 247.744 -0.203065 -0.712633 0
M  V30 2557 H 250.391 -1.16136 -1.52265 0
M  V30 2558 H 248.696 -0.127677 -3.91592 0
M  V30 2559 H 250.393 -0.514238 -3.97689 0
M  V30 2560 H 246.983 -1.93952 -3.82205 0
M  V30 2561 H 251.167 -2.89817 -4.02889 0
M  V30 2562 H 246.423 -4.26754 -4.37825 0
M  V30 2563 H 250.597 -5.23005 -4.59825 0
M  V30 2564 H 248.224 -5.91969 -4.76946 0
M  V30 2565 N 249.799 1.42003 -0.683588 0
M  V30 2566 C 251.21 1.84501 -0.285736 0
M  V30 2567 C 251.561 1.57213 1.17382 0
M  V30 2568 O 250.686 1.03642 1.89966 0
M  V30 2569 C 251.281 3.34912 -0.511821 0
M  V30 2570 C 249.84 3.76025 -0.168005 0
M  V30 2571 C 248.987 2.6551 -0.799983 0
M  V30 2572 H 251.938 1.31724 -0.885119 0
M  V30 2573 H 251.959 3.79784 0.233292 0
M  V30 2574 H 251.471 3.54741 -1.57418 0
M  V30 2575 H 249.572 3.61801 0.890567 0
M  V30 2576 H 249.685 4.75141 -0.614661 0
M  V30 2577 H 248.049 2.53654 -0.230568 0
M  V30 2578 H 248.832 2.8816 -1.86597 0
M  V30 2579 N 251.277 0.427512 1.51691 0
M  V30 2580 C 252.693 0.0792977 1.59403 0
M  V30 2581 C 252.893 -1.41035 1.43914 0
M  V30 2582 O 251.949 -2.17922 1.27539 0
M  V30 2583 C 253.262 0.590636 2.94842 0
M  V30 2584 C 254.81 0.550215 3.08126 0
M  V30 2585 C 255.285 1.03836 4.46074 0
M  V30 2586 N 256.776 0.995943 4.52366 0
M  V30 2587 C 257.511 1.34463 5.57411 0
M  V30 2588 N 257.007 1.76569 6.69922 0
M  V30 2589 N 258.8 1.26343 5.47717 0
M  V30 2590 H 250.951 1.39687 1.60004 0
M  V30 2591 H 253.214 0.575003 0.753708 0
M  V30 2592 H 252.92 1.63251 3.11516 0
M  V30 2593 H 252.794 0.0102061 3.77199 0
M  V30 2594 H 255.181 -0.482654 2.91126 0
M  V30 2595 H 255.262 1.16693 2.27632 0
M  V30 2596 H 254.906 2.06965 4.63819 0
M  V30 2597 H 254.836 0.398286 5.25092 0
M  V30 2598 H 257.327 0.68661 3.7161 0
M  V30 2599 H 257.64 2.01438 7.46085 0
M  V30 2600 H 255.985 1.80488 6.71155 0
M  V30 2601 H 259.176 0.933209 4.58703 0
M  V30 2602 H 259.349 1.53846 6.29472 0
M  V30 2603 N 252.755 -1.56801 0.158532 0
M  V30 2604 C 253.665 -2.20916 -0.789518 0
M  V30 2605 C 254.681 -1.1969 -1.26294 0
M  V30 2606 O 255.857 -1.52308 -1.31773 0
M  V30 2607 C 252.922 -2.82727 -2.00665 0
M  V30 2608 C 251.983 -3.99114 -1.58134 0
M  V30 2609 C 251.216 -4.57968 -2.74045 0
M  V30 2610 O 251.439 -4.15704 -3.90572 0
M  V30 2611 O 250.373 -5.48047 -2.48855 0
M  V30 2612 H 254.199 -3.02464 -0.273681 0
M  V30 2613 H 251.784 -1.4924 -0.0690548 0
M  V30 2614 H 253.666 -3.21968 -2.71872 0
M  V30 2615 H 252.341 -2.04184 -2.51179 0
M  V30 2616 H 251.248 -3.64567 -0.839155 0
M  V30 2617 H 252.581 -4.79212 -1.12325 0
M  V30 2618 N 254.233 0.115231 -1.57178 0
M  V30 2619 C 255.163 1.1423 -2.03651 0
M  V30 2620 C 256.144 1.42967 -0.921655 0
M  V30 2621 O 257.329 1.53343 -1.19162 0
M  V30 2622 C 254.459 2.4675 -2.44401 0
M  V30 2623 C 253.413 2.32467 -3.59365 0
M  V30 2624 C 252.739 3.69984 -3.86026 0
M  V30 2625 C 254.039 1.78203 -4.90959 0
M  V30 2626 H 255.733 0.755749 -2.89705 0
M  V30 2627 H 253.279 0.362093 -1.39373 0
M  V30 2628 H 255.232 3.18854 -2.75517 0
M  V30 2629 H 253.956 2.87302 -1.55322 0
M  V30 2630 H 252.615 1.62811 -3.28463 0
M  V30 2631 H 252.263 4.08028 -2.94147 0
M  V30 2632 H 251.963 3.61279 -4.63412 0
M  V30 2633 H 253.487 4.43587 -4.19599 0
M  V30 2634 H 254.901 2.40128 -5.20587 0
M  V30 2635 H 253.298 1.8031 -5.72371 0
M  V30 2636 H 254.368 0.739876 -4.79222 0
M  V30 2637 N 255.711 1.52812 0.385517 0
M  V30 2638 C 256.641 1.80808 1.47752 0
M  V30 2639 C 257.622 0.660318 1.5676 0
M  V30 2640 O 258.807 0.908246 1.71652 0
M  V30 2641 C 255.937 1.98008 2.85324 0
M  V30 2642 C 254.891 3.13709 2.91154 0
M  V30 2643 C 254.217 3.16169 4.31209 0
M  V30 2644 C 255.517 4.52709 2.60483 0
M  V30 2645 H 257.211 2.72253 1.24573 0
M  V30 2646 H 254.757 1.31003 0.597839 0
M  V30 2647 H 256.71 2.16176 3.61726 0
M  V30 2648 H 255.434 1.03255 3.09848 0
M  V30 2649 H 254.093 2.95329 2.17201 0
M  V30 2650 H 253.741 2.19092 4.52778 0
M  V30 2651 H 253.441 3.93894 4.36029 0
M  V30 2652 H 254.965 3.36496 5.09512 0
M  V30 2653 H 256.379 4.71173 3.26602 0
M  V30 2654 H 254.776 5.32528 2.76648 0
M  V30 2655 H 255.846 4.59186 1.55809 0
M  V30 2656 N 257.189 -0.644168 1.43834 0
M  V30 2657 C 258.139 -1.7501 1.46135 0
M  V30 2658 C 259.123 -1.57507 0.328685 0
M  V30 2659 O 260.315 -1.67465 0.5731 0
M  V30 2660 C 257.444 -3.13641 1.39585 0
M  V30 2661 C 256.53 -3.3666 2.57916 0
M  V30 2662 N 256.921 -3.30107 3.83227 0
M  V30 2663 C 255.219 -3.67411 2.52834 0
M  V30 2664 C 255.92 -3.53456 4.61999 0
M  V30 2665 N 254.896 -3.75705 3.9287 0
M  V30 2666 H 258.698 -1.68382 2.40883 0
M  V30 2667 H 256.212 -0.846169 1.38614 0
M  V30 2668 H 258.209 -3.92933 1.39317 0
M  V30 2669 H 256.869 -3.21444 0.45865 0
M  V30 2670 H 257.88 -3.09316 4.15384 0
M  V30 2671 H 254.557 -3.82275 1.67845 0
M  V30 2672 H 255.947 -3.54093 5.71024 0
M  V30 2673 N 258.668 -1.30515 -0.883378 0
M  V30 2674 C 259.945 -1.10086 -1.6168 0
M  V30 2675 C 260.325 0.349269 -2.08191 0
M  V30 2676 O 259.673 1.34105 -1.85008 0
M  V30 2677 C 259.883 -2.10315 -2.78511 0
M  V30 2678 C 261.231 -2.42119 -3.48803 0
M  V30 2679 O 262.255 -2.08638 -2.88702 0
M  V30 2680 O 261.114 -2.99396 -4.57192 0
M  V30 2681 H 258.208 -0.422907 -0.710689 0
M  V30 2682 H 260.754 -1.41947 -0.930015 0
M  V30 2683 H 259.526 -3.07917 -2.41459 0
M  V30 2684 H 259.149 -1.79282 -3.54886 0
M  V30 2685 N 260.146 1.09593 -1.13257 0
M  V30 2686 C 261.386 1.83349 -0.903472 0
M  V30 2687 C 261.75 1.83641 0.560351 0
M  V30 2688 O 262.951 2.53037 0.906947 0
M  V30 2689 C 261.222 3.25629 -1.47311 0
M  V30 2690 S 262.781 4.16408 -1.38382 0
M  V30 2691 H 259.599 0.632014 -0.325699 0
M  V30 2692 H 262.201 1.31817 -1.44376 0
M  V30 2693 H 260.905 3.22991 -2.53189 0
M  V30 2694 H 260.436 3.82233 -0.930689 0
M  V30 2695 H 262.451 4.94884 -0.361113 0
M  V30 2696 N 261.624 0.925811 1.2754 0
M  V30 2697 C 262.554 0.440748 2.29303 0
M  V30 2698 C 263.535 -0.497971 1.62648 0
M  V30 2699 O 264.72 -0.403126 1.8997 0
M  V30 2700 C 261.85 -0.309048 3.45922 0
M  V30 2701 C 260.804 0.54166 4.24559 0
M  V30 2702 C 260.13 -0.337191 5.33636 0
M  V30 2703 C 261.43 1.80516 4.90114 0
M  V30 2704 H 263.124 1.29121 2.70126 0
M  V30 2705 H 260.67 0.622323 1.29858 0
M  V30 2706 H 262.623 -0.659315 4.1621 0
M  V30 2707 H 261.347 -1.19352 3.04011 0
M  V30 2708 H 260.006 0.874609 3.56014 0
M  V30 2709 H 259.654 -1.22056 4.87966 0
M  V30 2710 H 259.354 0.228497 5.87156 0
M  V30 2711 H 260.878 -0.683072 6.06767 0
M  V30 2712 H 262.292 1.52307 5.52698 0
M  V30 2713 H 260.689 2.3142 5.53683 0
M  V30 2714 H 261.759 2.52581 4.13921 0
M  V30 2715 N 263.102 -1.41638 0.69111 0
M  V30 2716 C 264.33 -2.05628 0.22909 0
M  V30 2717 C 264.745 -1.51992 -1.11999 0
M  V30 2718 O 264.102 -0.666322 -1.69901 0
M  V30 2719 C 264.153 -3.61084 0.173283 0
M  V30 2720 O 263.874 -4.12735 1.46907 0
M  V30 2721 C 265.375 -4.42213 -0.310266 0
M  V30 2722 H 262.595 -0.662327 0.107534 0
M  V30 2723 H 265.139 -1.81489 0.942438 0
M  V30 2724 H 263.294 -3.84278 -0.490858 0
M  V30 2725 H 263.708 -5.06743 1.35322 0
M  V30 2726 H 265.182 -5.51194 -0.298196 0
M  V30 2727 H 265.659 -4.1799 -1.34838 0
M  V30 2728 H 266.265 -4.24074 0.322716 0
M  V30 2729 N 264.58 -0.43555 -1.51462 0
M  V30 2730 C 265.996 -0.0877501 -1.59359 0
M  V30 2731 C 266.196 1.4027 -1.4466 0
M  V30 2732 O 265.252 2.17243 -1.28693 0
M  V30 2733 C 266.565 -0.606264 -2.94525 0
M  V30 2734 C 268.113 -0.566548 -3.0783 0
M  V30 2735 C 268.588 -1.06201 -4.45517 0
M  V30 2736 N 270.079 -1.01992 -4.51832 0
M  V30 2737 C 270.814 -1.37417 -5.5669 0
M  V30 2738 N 270.31 -1.80119 -6.68976 0
M  V30 2739 N 272.103 -1.29245 -5.47039 0
M  V30 2740 H 264.254 -1.40533 -1.59261 0
M  V30 2741 H 266.517 -0.578992 -0.750648 0
M  V30 2742 H 266.223 -1.64901 -3.10645 0
M  V30 2743 H 266.097 -0.0302097 -3.77188 0
M  V30 2744 H 268.484 0.467208 -2.91378 0
M  V30 2745 H 268.565 -1.17898 -2.2701 0
M  V30 2746 H 268.209 -2.09422 -4.62715 0
M  V30 2747 H 268.139 -0.426127 -5.24873 0
M  V30 2748 H 270.63 -0.706308 -3.71241 0
M  V30 2749 H 270.943 -2.05392 -7.45006 0
M  V30 2750 H 269.288 -1.84044 -6.70189 0
M  V30 2751 H 272.479 -0.957522 -4.58202 0
M  V30 2752 H 272.652 -1.57182 -6.28648 0
M  V30 2753 N 266.058 1.56714 -0.166846 0
M  V30 2754 C 267.021 2.16539 0.751232 0
M  V30 2755 C 268.021 1.11228 1.16125 0
M  V30 2756 O 269.211 1.36765 1.07894 0
M  V30 2757 C 266.343 2.74462 2.02196 0
M  V30 2758 H 267.536 2.99013 0.230499 0
M  V30 2759 H 265.089 1.56081 0.0826982 0
M  V30 2760 H 265.824 1.95709 2.58589 0
M  V30 2761 H 265.609 3.51527 1.73698 0
M  V30 2762 H 267.099 3.20489 2.67725 0
M  V30 2763 N 267.536 -0.106894 1.57237 0
M  V30 2764 C 268.466 -1.13148 2.04254 0
M  V30 2765 C 269.447 -1.42476 0.929224 0
M  V30 2766 O 270.632 -1.52709 1.19973 0
M  V30 2767 C 267.762 -2.4545 2.45706 0
M  V30 2768 C 266.716 -2.30558 3.60592 0
M  V30 2769 C 266.042 -3.67931 3.87983 0
M  V30 2770 C 267.342 -1.75597 4.91897 0
M  V30 2771 H 269.036 -0.740374 2.90101 0
M  V30 2772 H 266.582 -0.354696 1.39563 0
M  V30 2773 H 268.535 -3.17389 2.77205 0
M  V30 2774 H 267.259 -2.86475 1.56843 0
M  V30 2775 H 265.918 -1.61067 3.29322 0
M  V30 2776 H 265.566 -4.06462 2.96306 0
M  V30 2777 H 265.266 -3.58817 4.65322 0
M  V30 2778 H 266.79 -4.41356 4.21945 0
M  V30 2779 H 268.204 -2.37364 5.21854 0
M  V30 2780 H 266.601 -1.77272 5.73319 0
M  V30 2781 H 267.671 -0.714451 4.79608 0
M  V30 2782 N 269.014 -1.53014 -0.377408 0
M  V30 2783 C 269.962 -1.7927 -1.48206 0
M  V30 2784 C 270.956 -0.661195 -1.55963 0
M  V30 2785 O 272.162 -0.843908 -1.58991 0
M  V30 2786 H 268.537 -0.567425 -0.493491 0
M  V30 2787 H 270.508 -2.71753 -1.2326 0
M  V30 2788 C 269.257 -1.98894 -2.85196 0
M  V30 2789 H 268.58 -2.85395 -2.79981 0
M  V30 2790 H 270.02 -2.21249 -3.61698 0
M  V30 2791 C 268.479 -0.764691 -3.28107 0
M  V30 2792 O 269.009 0.0523226 -4.01666 0
M  V30 2793 N 267.215 -0.591493 -2.84517 0
M  V30 2794 H 266.762 -1.25749 -2.24822 0
M  V30 2795 H 266.72 0.226253 -3.13585 0
M  V30 2796 N 270.492 0.636531 -1.44174 0
M  V30 2797 C 271.402 1.77754 -1.53103 0
M  V30 2798 C 272.418 1.68928 -0.417034 0
M  V30 2799 O 273.594 1.89801 -0.6736 0
M  V30 2800 C 270.659 3.14115 -1.46741 0
M  V30 2801 C 269.72 3.34612 -2.68948 0
M  V30 2802 C 268.953 4.64467 -2.6288 0
M  V30 2803 O 269.176 5.44919 -1.68581 0
M  V30 2804 O 268.11 4.87049 -3.53648 0
M  V30 2805 H 271.936 1.73174 -2.49489 0
M  V30 2806 H 269.521 0.79709 -1.2636 0
M  V30 2807 H 271.403 3.95412 -1.45696 0
M  V30 2808 H 270.078 3.19249 -0.534975 0
M  V30 2809 H 268.985 2.53014 -2.75562 0
M  V30 2810 H 270.318 3.34336 -3.61221 0
M  V30 2811 N 271.97 1.30982 0.876444 0
M  V30 2812 C 273.218 1.20058 1.62575 0
M  V30 2813 C 273.539 -0.242947 1.93481 0
M  V30 2814 O 272.809 -1.1619 1.57724 0
M  V30 2815 H 271.389 0.44135 0.602677 0
M  V30 2816 H 274.051 1.64222 1.04962 0
M  V30 2817 H 273.147 1.76762 2.57219 0
M  V30 2818 N 273.449 -1.08991 1.13837 0
M  V30 2819 C 274.412 -2.13925 0.822715 0
M  V30 2820 C 275.412 -1.599 -0.1699 0
M  V30 2821 O 276.602 -1.74104 0.0577251 0
M  V30 2822 C 273.734 -3.40155 0.225318 0
M  V30 2823 H 274.927 -2.43358 1.75262 0
M  V30 2824 H 272.48 -1.24603 0.943594 0
M  V30 2825 H 273.215 -3.16352 -0.713594 0
M  V30 2826 H 273 -3.80661 0.940193 0
M  V30 2827 H 274.49 -4.17594 0.0214784 0
M  V30 2828 N 274.927 -0.932562 -1.27047 0
M  V30 2829 C 276.155 -0.592031 -1.98249 0
M  V30 2830 C 276.57 0.831062 -1.69525 0
M  V30 2831 O 275.927 1.55299 -0.958561 0
M  V30 2832 C 275.978 -0.814279 -3.5221 0
M  V30 2833 O 275.699 -2.18139 -3.7993 0
M  V30 2834 C 277.2 -0.483121 -4.4066 0
M  V30 2835 H 274.42 -0.223896 -0.632544 0
M  V30 2836 H 276.964 -1.25091 -1.61779 0
M  V30 2837 H 275.119 -0.20213 -3.86872 0
M  V30 2838 H 275.533 -2.235 -4.74498 0
M  V30 2839 H 277.007 -0.689298 -5.47679 0
M  V30 2840 H 277.484 0.581546 -4.35333 0
M  V30 2841 H 278.09 -1.07362 -4.11526 0
M  V30 2842 N 276.405 1.4127 -0.698611 0
M  V30 2843 C 277.654 2.00408 -0.227949 0
M  V30 2844 C 277.967 1.55981 1.18023 0
M  V30 2845 O 279.173 2.07699 1.74852 0
M  V30 2846 C 277.629 3.58129 -0.356636 0
M  V30 2847 C 277.237 4.11536 -1.77037 0
M  V30 2848 C 278.981 4.24466 0.0540969 0
M  V30 2849 C 276.888 5.61701 -1.85055 0
M  V30 2850 H 275.818 0.749586 -0.0814657 0
M  V30 2851 H 278.469 1.61713 -0.867249 0
M  V30 2852 H 276.851 3.94442 0.350965 0
M  V30 2853 H 278.025 3.86636 -2.50698 0
M  V30 2854 H 276.34 3.57736 -2.13105 0
M  V30 2855 H 278.937 5.34698 0.0146723 0
M  V30 2856 H 279.28 4.01687 1.09332 0
M  V30 2857 H 279.813 3.93198 -0.603337 0
M  V30 2858 H 276.552 5.89312 -2.8704 0
M  V30 2859 H 276.072 5.88519 -1.15783 0
M  V30 2860 H 277.751 6.26524 -1.61484 0
M  V30 2861 N 277.883 0.443576 1.51229 0
M  V30 2862 C 279.111 -0.11929 2.06556 0
M  V30 2863 C 279.526 -1.35921 1.31038 0
M  V30 2864 O 278.883 -1.78675 0.371704 0
M  V30 2865 C 278.934 -0.435228 3.5887 0
M  V30 2866 O 278.655 0.755486 4.31537 0
M  V30 2867 C 280.156 -1.04808 4.30732 0
M  V30 2868 H 277.376 -0.0051584 0.67098 0
M  V30 2869 H 279.92 0.624453 1.94733 0
M  V30 2870 H 278.075 -1.12887 3.70588 0
M  V30 2871 H 278.489 0.483491 5.22267 0
M  V30 2872 H 279.963 -1.2191 5.3837 0
M  V30 2873 H 280.44 -2.03081 3.89429 0
M  V30 2874 H 281.046 -0.393637 4.23474 0
M  V30 2875 N 279.361 -1.56624 0.175154 0
M  V30 2876 C 280.638 -1.88688 -0.515373 0
M  V30 2877 C 281.018 -1.08564 -1.81044 0
M  V30 2878 O 280.366 -0.180703 -2.27784 0
M  V30 2879 C 280.576 -3.40768 -0.753552 0
M  V30 2880 C 281.924 -4.10587 -1.08184 0
M  V30 2881 O 282.948 -3.46106 -0.841961 0
M  V30 2882 O 281.807 -5.24512 -1.53459 0
M  V30 2883 H 278.901 -0.78301 -0.26613 0
M  V30 2884 H 281.447 -1.68347 0.213877 0
M  V30 2885 H 280.219 -3.90965 0.161829 0
M  V30 2886 H 279.842 -3.66733 -1.53598 0
M  V30 2887 N 280.839 0.0985539 -1.57292 0
M  V30 2888 C 281.749 1.13824 -2.05137 0
M  V30 2889 C 282.765 1.44076 -0.975604 0
M  V30 2890 O 283.941 1.54786 -1.28853 0
M  V30 2891 C 281.006 2.43969 -2.46333 0
M  V30 2892 C 280.067 2.2093 -3.68087 0
M  V30 2893 C 279.3 3.44869 -4.0731 0
M  V30 2894 O 279.523 4.52972 -3.46659 0
M  V30 2895 O 278.457 3.34661 -5.00285 0
M  V30 2896 H 282.283 0.761881 -2.93988 0
M  V30 2897 H 279.868 0.310818 -1.46131 0
M  V30 2898 H 281.75 3.20609 -2.73473 0
M  V30 2899 H 280.425 2.81038 -1.60621 0
M  V30 2900 H 279.332 1.42081 -3.46069 0
M  V30 2901 H 280.665 1.88755 -4.54568 0
M  V30 2902 N 282.317 1.53212 0.369288 0
M  V30 2903 C 283.28 1.7872 1.43498 0
M  V30 2904 C 284.28 0.657554 1.46741 0
M  V30 2905 O 285.47 0.925736 1.47566 0
M  V30 2906 C 282.602 1.90591 2.82645 0
M  V30 2907 H 283.795 2.73894 1.22156 0
M  V30 2908 H 281.348 1.44233 0.602203 0
M  V30 2909 H 282.083 0.974709 3.09306 0
M  V30 2910 H 281.868 2.72751 2.8169 0
M  V30 2911 H 283.358 2.11931 3.59826 0
M  V30 2912 N 283.795 -0.628877 1.44509 0
M  V30 2913 C 285.02 -1.42048 1.5112 0
M  V30 2914 C 285.445 -1.87594 0.137818 0
M  V30 2915 O 284.803 -1.58873 -0.873437 0
M  V30 2916 C 284.851 -2.61541 2.48251 0
M  V30 2917 O 283.955 -3.61453 1.98559 0
M  V30 2918 H 283.296 -0.424942 0.510216 0
M  V30 2919 H 285.826 -0.767374 1.89664 0
M  V30 2920 H 285.836 -3.09057 2.66361 0
M  V30 2921 H 284.511 -2.27736 3.48007 0
M  V30 2922 H 283.088 -3.20731 1.90227 0
M  V30 2923 N 285.273 -1.31445 -0.869486 0
M  V30 2924 C 286.236 -1.19094 -1.9583 0
M  V30 2925 C 287.236 -0.117906 -1.60367 0
M  V30 2926 O 288.426 -0.367208 -1.70286 0
M  V30 2927 C 285.558 -0.828165 -3.30688 0
M  V30 2928 H 286.751 -2.15842 -2.08212 0
M  V30 2929 H 284.304 -1.15063 -1.05784 0
M  V30 2930 H 285.039 0.138142 -3.24006 0
M  V30 2931 H 284.824 -1.6038 -3.578 0
M  V30 2932 H 286.314 -0.765658 -4.10521 0
M  V30 2933 N 286.751 1.08385 -1.14413 0
M  V30 2934 C 287.681 2.17321 -0.854044 0
M  V30 2935 C 288.662 1.69024 0.191049 0
M  V30 2936 O 289.847 1.94141 0.0476779 0
M  V30 2937 C 286.977 3.45719 -0.330983 0
M  V30 2938 C 285.931 4.07409 -1.31155 0
M  V30 2939 C 285.257 5.30762 -0.64778 0
M  V30 2940 C 286.557 4.48665 -2.67388 0
M  V30 2941 H 288.251 2.41845 -1.76498 0
M  V30 2942 H 285.797 1.16233 -0.850051 0
M  V30 2943 H 287.75 4.21241 -0.115645 0
M  V30 2944 H 286.474 3.2075 0.615381 0
M  V30 2945 H 285.133 3.33919 -1.51306 0
M  V30 2946 H 284.781 5.02078 0.304398 0
M  V30 2947 H 284.481 5.72992 -1.30207 0
M  V30 2948 H 286.005 6.08998 -0.441972 0
M  V30 2949 H 287.419 5.15364 -2.51143 0
M  V30 2950 H 285.816 5.01814 -3.29093 0
M  V30 2951 H 286.886 3.60543 -3.24248 0
M  V30 2952 N 288.23 0.939286 1.26551 0
M  V30 2953 C 289.14 0.453432 2.30176 0
M  V30 2954 C 290.156 -0.471649 1.67486 0
M  V30 2955 O 291.332 -0.35164 1.98306 0
M  V30 2956 C 288.397 -0.275326 3.45605 0
M  V30 2957 C 287.458 0.686084 4.23782 0
M  V30 2958 C 286.691 -0.00798994 5.33699 0
M  V30 2959 O 286.914 -1.22528 5.57085 0
M  V30 2960 O 285.848 0.669746 5.98162 0
M  V30 2961 H 289.674 1.31416 2.73795 0
M  V30 2962 H 287.259 0.705095 1.31715 0
M  V30 2963 H 289.141 -0.685911 4.1578 0
M  V30 2964 H 287.816 -1.11147 3.0402 0
M  V30 2965 H 286.723 1.14658 3.56096 0
M  V30 2966 H 288.056 1.48979 4.69112 0
M  V30 2967 N 289.708 -1.40897 0.706093 0
M  V30 2968 C 290.938 -2.05075 0.250523 0
M  V30 2969 C 291.346 -1.53275 -1.10921 0
M  V30 2970 O 290.689 -0.680281 -1.7064 0
M  V30 2971 C 290.751 -3.59219 0.142178 0
M  V30 2972 C 290.415 -4.33864 1.43566 0
M  V30 2973 C 291.412 -4.62448 2.37566 0
M  V30 2974 C 289.097 -4.72946 1.69195 0
M  V30 2975 C 291.091 -5.29088 3.5545 0
M  V30 2976 C 288.778 -5.3932 2.87362 0
M  V30 2977 C 289.776 -5.6732 3.80312 0
M  V30 2978 O 289.464 -6.32325 4.96408 0
M  V30 2979 H 289.196 -0.666645 0.112074 0
M  V30 2980 H 291.75 -1.81467 0.962239 0
M  V30 2981 H 289.98 -3.81609 -0.6254 0
M  V30 2982 H 291.669 -4.0495 -0.277584 0
M  V30 2983 H 292.435 -4.32727 2.19027 0
M  V30 2984 H 288.314 -4.50527 0.977042 0
M  V30 2985 H 291.858 -5.50859 4.28018 0
M  V30 2986 H 287.755 -5.68461 3.05814 0
M  V30 2987 H 288.523 -6.50821 4.9636 0
M  V30 2988 N 291.186 -0.45159 -1.50991 0
M  V30 2989 C 292.426 0.109066 -2.04109 0
M  V30 2990 C 292.79 1.38716 -1.32747 0
M  V30 2991 O 293.991 2.02896 -1.76314 0
M  V30 2992 C 292.262 0.308354 -3.56067 0
M  V30 2993 S 293.821 0.830369 -4.30872 0
M  V30 2994 H 290.639 0.0251531 -0.710555 0
M  V30 2995 H 293.241 -0.614264 -1.85599 0
M  V30 2996 H 291.945 -0.627962 -4.05567 0
M  V30 2997 H 291.476 1.05836 -3.78896 0
M  V30 2998 H 293.491 2.10626 -4.49279 0
M  V30 2999 N 292.664 1.56529 -0.183458 0
M  V30 3000 C 293.912 1.96855 0.457452 0
M  V30 3001 C 294.233 1.07104 1.62953 0
M  V30 3002 O 293.503 0.139887 1.954 0
M  V30 3003 H 292.083 0.72693 0.171992 0
M  V30 3004 H 294.745 1.93056 -0.267476 0
M  V30 3005 H 293.841 3.01423 0.809368 0
M  V30 3006 N 294.142 -0.090211 1.57342 0
M  V30 3007 C 295.389 -0.792807 1.86335 0
M  V30 3008 C 295.717 -1.78494 0.772662 0
M  V30 3009 O 294.972 -1.94305 -0.233258 0
M  V30 3010 C 295.271 -1.55222 3.21933 0
M  V30 3011 C 294.937 -0.701765 4.45406 0
M  V30 3012 C 293.599 -0.467334 4.78925 0
M  V30 3013 C 295.951 -0.11086 5.21082 0
M  V30 3014 C 293.279 0.367785 5.85546 0
M  V30 3015 C 295.631 0.711609 6.28585 0
M  V30 3016 C 294.295 0.956086 6.60617 0
M  V30 3017 H 293.565 -0.290109 0.681849 0
M  V30 3018 H 296.212 -0.0541332 1.91423 0
M  V30 3019 H 294.517 -2.3626 3.12551 0
M  V30 3020 H 296.214 -2.10032 3.41595 0
M  V30 3021 H 292.804 -0.894598 4.1916 0
M  V30 3022 H 296.988 -0.279129 4.95514 0
M  V30 3023 H 292.244 0.566128 6.08773 0
M  V30 3024 H 296.418 1.17632 6.86393 0
M  V30 3025 H 294.045 1.60499 7.43064 0
M  V30 3026 N 295.62 -1.53406 -0.361157 0
M  V30 3027 C 296.57 -1.76536 -1.44287 0
M  V30 3028 C 297.554 -0.620019 -1.48474 0
M  V30 3029 O 298.746 -0.878834 -1.53641 0
M  V30 3030 C 295.875 -1.96266 -2.81664 0
M  V30 3031 C 294.961 -3.16815 -2.81938 0
M  V30 3032 N 295.352 -4.38637 -2.51855 0
M  V30 3033 C 293.65 -3.17627 -3.13096 0
M  V30 3034 C 294.351 -5.20401 -2.59919 0
M  V30 3035 N 293.327 -4.56712 -2.94814 0
M  V30 3036 H 297.129 -2.68331 -1.19899 0
M  V30 3037 H 294.643 -1.52091 -0.56938 0
M  V30 3038 H 296.64 -2.10966 -3.59582 0
M  V30 3039 H 295.3 -1.05702 -3.07013 0
M  V30 3040 H 296.311 -4.66293 -2.25369 0
M  V30 3041 H 292.988 -2.36971 -3.43731 0
M  V30 3042 H 294.378 -6.27586 -2.39969 0
M  V30 3043 N 297.098 0.621204 -1.44841 0
M  V30 3044 C 298.509 1.20298 -1.42777 0
M  V30 3045 C 298.86 1.95639 -0.148259 0
M  V30 3046 O 297.985 2.02955 0.750892 0
M  V30 3047 C 298.58 2.1882 -2.58657 0
M  V30 3048 C 297.139 2.72403 -2.59756 0
M  V30 3049 C 296.286 1.4757 -2.34773 0
M  V30 3050 H 299.237 0.411297 -1.53278 0
M  V30 3051 H 299.258 3.01607 -2.31977 0
M  V30 3052 H 298.77 1.63957 -3.51766 0
M  V30 3053 H 296.871 3.31242 -1.70615 0
M  V30 3054 H 296.984 3.17765 -3.58556 0
M  V30 3055 H 295.348 1.76051 -1.8406 0
M  V30 3056 H 296.131 0.945954 -3.3001 0
M  V30 3057 N 298.576 1.31904 0.862503 0
M  V30 3058 C 299.508 1.16005 1.97675 0
M  V30 3059 C 300.521 0.0971234 1.6251 0
M  V30 3060 O 301.71 0.345337 1.75128 0
M  V30 3061 C 298.81 0.751791 3.30456 0
M  V30 3062 C 297.983 1.90133 3.93914 0
M  V30 3063 C 297.042 1.4779 5.05019 0
M  V30 3064 O 296.068 2.18872 5.25437 0
M  V30 3065 N 297.27 0.369491 5.79323 0
M  V30 3066 H 300.035 2.11982 2.11857 0
M  V30 3067 H 297.596 1.24337 1.03691 0
M  V30 3068 H 299.588 0.451084 4.02178 0
M  V30 3069 H 298.158 -0.116593 3.12382 0
M  V30 3070 H 297.378 2.36896 3.15078 0
M  V30 3071 H 298.666 2.67111 4.33047 0
M  V30 3072 H 298.064 -0.222299 5.65263 0
M  V30 3073 H 296.621 0.128354 6.51674 0
M  V30 3074 N 300.054 -1.07777 1.14986 0
M  V30 3075 C 300.984 -2.16865 0.865557 0
M  V30 3076 C 301.965 -1.69123 -0.182083 0
M  V30 3077 O 303.15 -1.94164 -0.0373815 0
M  V30 3078 C 300.28 -3.45539 0.349313 0
M  V30 3079 C 299.234 -4.06708 1.33313 0
M  V30 3080 C 298.56 -5.30411 0.675918 0
M  V30 3081 C 299.86 -4.47241 2.69764 0
M  V30 3082 H 301.554 -2.40905 1.77778 0
M  V30 3083 H 299.1 -1.15781 0.856203 0
M  V30 3084 H 301.053 -4.21174 0.137983 0
M  V30 3085 H 299.777 -3.21072 -0.598362 0
M  V30 3086 H 298.436 -3.33112 1.53075 0
M  V30 3087 H 298.084 -5.02232 -0.277767 0
M  V30 3088 H 297.784 -5.72293 1.33244 0
M  V30 3089 H 299.308 -6.08755 0.474262 0
M  V30 3090 H 300.722 -5.14025 2.53873 0
M  V30 3091 H 299.119 -5.00062 3.3175 0
M  V30 3092 H 300.189 -3.58818 3.26156 0
M  V30 3093 N 301.532 -0.945985 -1.26051 0
M  V30 3094 C 302.778 -0.597002 -1.93814 0
M  V30 3095 C 303.111 0.862484 -1.73997 0
M  V30 3096 O 302.386 1.61769 -1.07986 0
M  V30 3097 C 302.669 -0.945937 -3.47454 0
M  V30 3098 C 302.522 -2.46052 -3.76535 0
M  V30 3099 C 303.841 -0.464785 -4.37639 0
M  V30 3100 H 300.96 -0.218366 -0.703907 0
M  V30 3101 H 303.602 -1.18107 -1.48831 0
M  V30 3102 H 301.752 -0.448902 -3.85898 0
M  V30 3103 H 303.424 -3.03065 -3.47778 0
M  V30 3104 H 301.667 -2.90194 -3.22444 0
M  V30 3105 H 302.338 -2.65517 -4.83947 0
M  V30 3106 H 304.814 -0.891016 -4.06448 0
M  V30 3107 H 303.69 -0.737712 -5.4392 0
M  V30 3108 H 303.951 0.635274 -4.37512 0
M  V30 3109 N 303.011 1.40521 -0.713556 0
M  V30 3110 C 303.921 2.34522 -0.0606667 0
M  V30 3111 C 304.937 1.57193 0.74607 0
M  V30 3112 O 306.113 1.89591 0.679493 0
M  V30 3113 C 303.178 3.36081 0.851491 0
M  V30 3114 C 302.239 4.29286 0.0349339 0
M  V30 3115 C 301.472 5.25994 0.903649 0
M  V30 3116 O 301.695 5.28616 2.14292 0
M  V30 3117 O 300.629 6.00918 0.343723 0
M  V30 3118 H 304.455 2.91968 -0.835972 0
M  V30 3119 H 302.04 1.41681 -0.47402 0
M  V30 3120 H 303.922 3.98369 1.37404 0
M  V30 3121 H 302.597 2.81052 1.60598 0
M  V30 3122 H 301.504 3.70289 -0.532633 0
M  V30 3123 H 302.837 4.87462 -0.681287 0
M  V30 3124 N 304.489 0.459591 1.5075 0
M  V30 3125 C 305.737 -0.0991532 2.01857 0
M  V30 3126 C 306.058 -1.41247 1.34441 0
M  V30 3127 O 305.328 -1.89775 0.486022 0
M  V30 3128 H 303.908 -0.039633 0.745948 0
M  V30 3129 H 306.57 0.607387 1.85194 0
M  V30 3130 H 305.666 -0.258998 3.11023 0
M  V30 3131 N 305.967 -1.56429 0.191757 0
M  V30 3132 C 307.383 -1.58754 -0.164137 0
M  V30 3133 C 307.583 -1.20782 -1.61288 0
M  V30 3134 O 306.639 -0.928999 -2.34789 0
M  V30 3135 C 307.952 -3.00396 0.135195 0
M  V30 3136 C 309.5 -3.1291 0.0750351 0
M  V30 3137 C 309.975 -4.56679 0.347632 0
M  V30 3138 N 311.466 -4.62252 0.296131 0
M  V30 3139 C 312.201 -5.71379 0.480948 0
M  V30 3140 N 311.697 -6.88986 0.725933 0
M  V30 3141 N 313.49 -5.60563 0.415435 0
M  V30 3142 H 305.641 -1.79393 1.13718 0
M  V30 3143 H 307.904 -0.832414 0.453643 0
M  V30 3144 H 307.61 -3.32726 1.13958 0
M  V30 3145 H 307.484 -3.72963 -0.563773 0
M  V30 3146 H 309.871 -2.80394 -0.919948 0
M  V30 3147 H 309.952 -2.42736 0.807029 0
M  V30 3148 H 309.596 -4.89907 1.33992 0
M  V30 3149 H 309.526 -5.25039 -0.405212 0
M  V30 3150 H 312.017 -3.7773 0.113259 0
M  V30 3151 H 312.33 -7.68046 0.855857 0
M  V30 3152 H 310.675 -6.90801 0.762788 0
M  V30 3153 H 313.866 -4.67561 0.224486 0
M  V30 3154 H 314.039 -6.45551 0.562889 0
M  V30 3155 N 307.445 0.0818655 -1.57387 0
M  V30 3156 C 308.408 1.08265 -2.02018 0
M  V30 3157 C 309.408 1.32183 -0.915664 0
M  V30 3158 O 310.598 1.28073 -1.18081 0
M  V30 3159 C 307.73 2.42871 -2.39221 0
M  V30 3160 H 308.923 0.698204 -2.91659 0
M  V30 3161 H 306.476 0.327303 -1.52835 0
M  V30 3162 H 307.211 2.86167 -1.52575 0
M  V30 3163 H 306.996 2.26855 -3.19811 0
M  V30 3164 H 308.486 3.14826 -2.74362 0
M  V30 3165 N 308.923 1.53595 0.353017 0
M  V30 3166 C 310.2 1.61002 1.11075 0
M  V30 3167 C 310.58 0.425356 2.0677 0
M  V30 3168 O 309.928 -0.583267 2.2093 0
M  V30 3169 C 310.138 2.96631 1.83877 0
M  V30 3170 C 311.486 3.51653 2.37961 0
M  V30 3171 O 312.51 2.98743 1.93987 0
M  V30 3172 O 311.369 4.44177 3.18386 0
M  V30 3173 H 308.463 0.650825 0.510251 0
M  V30 3174 H 311.009 1.6594 0.35527 0
M  V30 3175 H 309.781 3.74293 1.14108 0
M  V30 3176 H 309.404 2.95242 2.66304 0
M  V30 3177 N 310.401 -0.613514 1.45168 0
M  V30 3178 C 311.349 -1.74572 1.53712 0
M  V30 3179 C 312.343 -1.64426 0.407505 0
M  V30 3180 O 313.549 -1.70291 0.583176 0
M  V30 3181 H 309.924 -0.576641 0.48269 0
M  V30 3182 H 311.895 -1.64492 2.48968 0
M  V30 3183 C 310.644 -3.12943 1.51532 0
M  V30 3184 H 309.967 -3.21407 2.37776 0
M  V30 3185 H 311.407 -3.9201 1.61569 0
M  V30 3186 C 309.866 -3.36053 0.238798 0
M  V30 3187 O 310.396 -3.95837 -0.6838 0
M  V30 3188 N 308.602 -2.9028 0.136359 0
M  V30 3189 H 308.149 -2.41811 0.887999 0
M  V30 3190 H 308.107 -3.06116 -0.716944 0
M  V30 3191 N 311.879 -1.3236 -0.855495 0
M  V30 3192 C 313.128 -1.22226 -1.60448 0
M  V30 3193 C 313.441 0.214733 -1.94418 0
M  V30 3194 O 314.647 0.437917 -2.67945 0
M  V30 3195 C 313.103 -2.14063 -2.89318 0
M  V30 3196 C 312.711 -3.62839 -2.62777 0
M  V30 3197 C 314.455 -2.12764 -3.67331 0
M  V30 3198 C 312.362 -4.4664 -3.87643 0
M  V30 3199 H 311.292 -0.453904 -0.602069 0
M  V30 3200 H 313.943 -1.57314 -0.944698 0
M  V30 3201 H 312.325 -1.71889 -3.5675 0
M  V30 3202 H 313.499 -4.1335 -2.03662 0
M  V30 3203 H 311.814 -3.66261 -1.98096 0
M  V30 3204 H 314.411 -2.72611 -4.59987 0
M  V30 3205 H 314.754 -1.11841 -4.00995 0
M  V30 3206 H 315.287 -2.53214 -3.06802 0
M  V30 3207 H 312.026 -5.48373 -3.5912 0
M  V30 3208 H 311.546 -4.0088 -4.46156 0
M  V30 3209 H 313.225 -4.59597 -4.55389 0
M  V30 3210 N 313.357 1.07166 -1.15556 0
M  V30 3211 C 314.304 2.14417 -0.854055 0
M  V30 3212 C 315.274 1.64965 0.193806 0
M  V30 3213 O 316.459 1.90703 0.0609443 0
M  V30 3214 C 313.599 3.43304 -0.351574 0
M  V30 3215 C 312.712 4.06537 -1.46123 0
M  V30 3216 C 311.847 5.23266 -0.914677 0
M  V30 3217 C 310.886 5.78464 -2.00114 0
M  V30 3218 N 310.023 6.86521 -1.47083 0
M  V30 3219 H 314.863 2.39548 -1.77259 0
M  V30 3220 H 312.4 1.17543 -0.884425 0
M  V30 3221 H 314.358 4.17179 -0.0419409 0
M  V30 3222 H 312.988 3.18419 0.530037 0
M  V30 3223 H 312.04 3.30297 -1.88701 0
M  V30 3224 H 313.352 4.43567 -2.28144 0
M  V30 3225 H 312.506 6.04131 -0.557698 0
M  V30 3226 H 311.245 4.87658 -0.0636583 0
M  V30 3227 H 310.25 4.96243 -2.36692 0
M  V30 3228 H 311.475 6.16126 -2.85597 0
M  V30 3229 H 309.421 6.52849 -0.642198 0
M  V30 3230 H 309.338 7.22446 -2.22729 0
M  V30 3231 H 310.606 7.71087 -1.14215 0
M  V30 3232 N 314.835 0.952656 1.25548 0
M  V30 3233 C 316.081 0.607272 1.93494 0
M  V30 3234 C 316.414 -0.853245 1.74452 0
M  V30 3235 O 315.689 -1.61194 1.08843 0
M  V30 3236 C 315.972 0.96435 3.46947 0
M  V30 3237 C 315.825 2.48045 3.75225 0
M  V30 3238 C 317.144 0.487987 4.37386 0
M  V30 3239 H 314.263 0.222096 0.702739 0
M  V30 3240 H 316.905 1.18895 1.48203 0
M  V30 3241 H 315.055 0.469361 3.85654 0
M  V30 3242 H 316.727 3.04905 3.46166 0
M  V30 3243 H 314.97 2.919 3.209 0
M  V30 3244 H 315.641 2.6808 4.82532 0
M  V30 3245 H 318.117 0.912558 4.0597 0
M  V30 3246 H 316.993 0.766547 5.43521 0
M  V30 3247 H 317.254 -0.612063 4.37843 0
M  V30 3248 N 316.313 -1.40141 0.720998 0
M  V30 3249 C 317.541 -2.05096 0.272656 0
M  V30 3250 C 317.956 -1.54334 -1.0875 0
M  V30 3251 O 317.313 -0.702211 -1.6845 0
M  V30 3252 C 317.364 -3.60636 0.249835 0
M  V30 3253 O 317.085 -4.09526 1.55629 0
M  V30 3254 C 318.586 -4.42772 -0.216396 0
M  V30 3255 H 315.806 -0.659897 0.121558 0
M  V30 3256 H 318.35 -1.79449 0.980723 0
M  V30 3257 H 316.505 -3.85232 -0.409237 0
M  V30 3258 H 316.919 -5.03758 1.4604 0
M  V30 3259 H 318.393 -5.51702 -0.181212 0
M  V30 3260 H 318.87 -4.20756 -1.25941 0
M  V30 3261 H 319.476 -4.23294 0.412596 0
M  V30 3262 N 317.792 -0.46758 -1.50504 0
M  V30 3263 C 319.208 -0.121533 -1.59137 0
M  V30 3264 C 319.408 1.3717 -1.47603 0
M  V30 3265 O 318.464 2.14464 -1.33272 0
M  V30 3266 C 319.777 -0.6686 -2.93173 0
M  V30 3267 C 321.325 -0.631716 -3.06559 0
M  V30 3268 C 321.8 -1.15627 -4.43164 0
M  V30 3269 N 323.291 -1.11553 -4.49567 0
M  V30 3270 C 324.026 -1.49195 -5.5365 0
M  V30 3271 N 323.522 -1.94269 -6.65005 0
M  V30 3272 N 325.315 -1.4082 -5.44175 0
M  V30 3273 H 317.466 -1.4388 -1.56245 0
M  V30 3274 H 319.729 -0.594784 -0.738198 0
M  V30 3275 H 319.435 -1.71453 -3.07078 0
M  V30 3276 H 319.309 -0.11021 -3.77039 0
M  V30 3277 H 321.696 0.405297 -2.92304 0
M  V30 3278 H 321.777 -1.22687 -2.24458 0
M  V30 3279 H 321.421 -2.1919 -4.58168 0
M  V30 3280 H 321.351 -0.537365 -5.23851 0
M  V30 3281 H 323.842 -0.784895 -3.69659 0
M  V30 3282 H 324.155 -2.21148 -7.40482 0
M  V30 3283 H 322.5 -1.98219 -6.66134 0
M  V30 3284 H 325.691 -1.0545 -4.56068 0
M  V30 3285 H 325.864 -1.70481 -6.25172 0
M  V30 3286 N 319.27 1.56325 -0.20005 0
M  V30 3287 C 320.681 1.8408 0.31167 0
M  V30 3288 C 321.032 1.12087 1.61031 0
M  V30 3289 O 320.157 0.38332 2.12978 0
M  V30 3290 C 320.752 3.33932 0.57226 0
M  V30 3291 C 319.311 3.6208 1.02834 0
M  V30 3292 C 318.458 2.77186 0.079634 0
M  V30 3293 H 321.409 1.52939 -0.423729 0
M  V30 3294 H 321.43 3.52971 1.42096 0
M  V30 3295 H 320.942 3.86303 -0.37308 0
M  V30 3296 H 319.043 3.15147 1.98778 0
M  V30 3297 H 319.156 4.7023 0.917624 0
M  V30 3298 H 317.52 2.47951 0.582448 0
M  V30 3299 H 318.303 3.32347 -0.860238 0
M  V30 3300 N 320.748 -0.0735177 1.57428 0
M  V30 3301 C 321.658 -1.10547 2.06922 0
M  V30 3302 C 322.674 -1.42506 0.998402 0
M  V30 3303 O 323.85 -1.52717 1.31299 0
M  V30 3304 C 320.915 -2.40019 2.50184 0
M  V30 3305 C 319.976 -2.15046 3.71556 0
M  V30 3306 C 319.209 -3.38345 4.12745 0
M  V30 3307 O 319.432 -4.47399 3.53822 0
M  V30 3308 O 318.366 -3.2666 5.05546 0
M  V30 3309 H 322.192 -0.715013 2.95163 0
M  V30 3310 H 319.777 -0.287531 1.46607 0
M  V30 3311 H 321.659 -3.16218 2.78539 0
M  V30 3312 H 320.334 -2.78447 1.65072 0
M  V30 3313 H 319.241 -1.36558 3.48285 0
M  V30 3314 H 320.574 -1.81499 4.57514 0
M  V30 3315 N 322.226 -1.5378 -0.344866 0
M  V30 3316 C 323.503 -1.61589 -1.10219 0
M  V30 3317 C 323.883 -0.436316 -2.06542 0
M  V30 3318 O 323.231 0.571543 -2.21237 0
M  V30 3319 C 323.441 -2.97602 -1.82301 0
M  V30 3320 C 324.789 -3.5291 -2.36093 0
M  V30 3321 O 325.813 -2.99768 -1.924 0
M  V30 3322 O 324.672 -4.45859 -3.16026 0
M  V30 3323 H 321.766 -0.653522 -0.506792 0
M  V30 3324 H 324.312 -1.66126 -0.346465 0
M  V30 3325 H 323.084 -3.74893 -1.12121 0
M  V30 3326 H 322.707 -2.9665 -2.64735 0
M  V30 3327 N 323.704 0.605807 -1.45491 0
M  V30 3328 C 324.634 1.72709 -1.57143 0
M  V30 3329 C 325.615 1.6476 -0.422884 0
M  V30 3330 O 326.8 1.83132 -0.646247 0
M  V30 3331 C 323.93 3.11316 -1.53948 0
M  V30 3332 C 322.884 3.34077 -2.67537 0
M  V30 3333 C 322.21 4.72975 -2.49397 0
M  V30 3334 C 323.51 3.24158 -4.09535 0
M  V30 3335 H 325.204 1.63214 -2.51001 0
M  V30 3336 H 322.75 0.78379 -1.208 0
M  V30 3337 H 324.703 3.89557 -1.60696 0
M  V30 3338 H 323.427 3.21655 -0.566205 0
M  V30 3339 H 322.086 2.58227 -2.6022 0
M  V30 3340 H 321.734 4.8005 -1.50205 0
M  V30 3341 H 321.434 4.8916 -3.25571 0
M  V30 3342 H 322.958 5.53414 -2.58002 0
M  V30 3343 H 324.372 3.92271 -4.18086 0
M  V30 3344 H 322.769 3.51872 -4.86113 0
M  V30 3345 H 323.839 2.2157 -4.31317 0
M  V30 3346 N 325.182 1.32811 0.848464 0
M  V30 3347 C 326.145 1.22194 1.9391 0
M  V30 3348 C 327.145 0.143404 1.60159 0
M  V30 3349 O 328.335 0.394253 1.6968 0
M  V30 3350 C 325.467 0.88067 3.29328 0
M  V30 3351 H 326.66 2.19127 2.04752 0
M  V30 3352 H 324.213 1.16731 1.0394 0
M  V30 3353 H 324.948 -0.0865776 3.24184 0
M  V30 3354 H 324.733 1.66052 3.55203 0
M  V30 3355 H 326.223 0.830871 4.09251 0
M  V30 3356 N 326.66 -1.06551 1.16123 0
M  V30 3357 C 327.59 -2.15935 0.88851 0
M  V30 3358 C 328.571 -1.69306 -0.164135 0
M  V30 3359 O 329.756 -1.94193 -0.0167857 0
M  V30 3360 C 326.886 -3.45149 0.385942 0
M  V30 3361 C 325.84 -4.05271 1.3762 0
M  V30 3362 C 325.166 -5.29664 0.732137 0
M  V30 3363 C 326.466 -4.44355 2.74493 0
M  V30 3364 H 328.16 -2.39006 1.80323 0
M  V30 3365 H 325.706 -1.14866 0.868435 0
M  V30 3366 H 327.659 -4.21004 0.182647 0
M  V30 3367 H 326.383 -3.21689 -0.564274 0
M  V30 3368 H 325.042 -3.3147 1.56599 0
M  V30 3369 H 324.69 -5.02499 -0.224483 0
M  V30 3370 H 324.39 -5.70848 1.39307 0
M  V30 3371 H 325.914 -6.08218 0.538802 0
M  V30 3372 H 327.328 -5.11303 2.59311 0
M  V30 3373 H 325.725 -4.96515 3.37035 0
M  V30 3374 H 326.795 -3.55339 3.29943 0
M  V30 3375 N 328.138 -0.959301 -1.25041 0
M  V30 3376 C 329.101 -0.487677 -2.23952 0
M  V30 3377 C 330.101 0.41119 -1.55454 0
M  V30 3378 O 331.291 0.207825 -1.72956 0
M  V30 3379 C 328.423 0.294807 -3.39623 0
M  V30 3380 H 329.616 -1.36198 -2.67189 0
M  V30 3381 H 327.169 -0.743042 -1.37508 0
M  V30 3382 H 327.904 1.18658 -3.01813 0
M  V30 3383 H 327.689 -0.35012 -3.90534 0
M  V30 3384 H 329.179 0.614089 -4.1306 0
M  V30 3385 N 329.616 1.39756 -0.72842 0
M  V30 3386 C 330.526 2.34444 -0.0855374 0
M  V30 3387 C 331.542 1.57976 0.729356 0
M  V30 3388 O 332.718 1.90301 0.659346 0
M  V30 3389 C 329.783 3.36965 0.815798 0
M  V30 3390 C 328.844 4.29299 -0.0105996 0
M  V30 3391 C 328.077 5.26923 0.84781 0
M  V30 3392 O 328.3 5.30859 2.08673 0
M  V30 3393 O 327.234 6.01249 0.279969 0
M  V30 3394 H 331.06 2.91065 -0.866892 0
M  V30 3395 H 328.645 1.4117 -0.48902 0
M  V30 3396 H 330.527 3.99804 1.33171 0
M  V30 3397 H 329.202 2.82739 1.57608 0
M  V30 3398 H 328.109 3.69703 -0.571877 0
M  V30 3399 H 329.442 4.86712 -0.73295 0
M  V30 3400 N 331.094 0.475555 1.50254 0
M  V30 3401 C 332.341 -0.0778919 2.0235 0
M  V30 3402 C 332.669 -1.39319 1.35722 0
M  V30 3403 O 331.924 -1.89888 0.473395 0
M  V30 3404 C 332.223 -0.305114 3.56095 0
M  V30 3405 C 331.889 0.92903 4.41225 0
M  V30 3406 C 330.551 1.26739 4.6421 0
M  V30 3407 C 332.903 1.75054 4.90923 0
M  V30 3408 C 330.231 2.42724 5.34137 0
M  V30 3409 C 332.583 2.9017 5.62125 0
M  V30 3410 C 331.247 3.24416 5.83362 0
M  V30 3411 H 330.517 -0.0285027 0.740452 0
M  V30 3412 H 333.164 0.630543 1.80821 0
M  V30 3413 H 331.469 -1.09584 3.76163 0
M  V30 3414 H 333.166 -0.747377 3.93974 0
M  V30 3415 H 329.756 0.655428 4.23559 0
M  V30 3416 H 333.94 1.50231 4.73016 0
M  V30 3417 H 329.196 2.69525 5.48786 0
M  V30 3418 H 333.37 3.54169 5.99614 0
M  V30 3419 H 330.997 4.14396 6.37323 0
M  V30 3420 N 332.573 -1.56217 0.208337 0
M  V30 3421 C 333.803 -2.02043 -0.431523 0
M  V30 3422 C 334.211 -1.08755 -1.54819 0
M  V30 3423 O 333.554 -0.0870009 -1.83494 0
M  V30 3424 C 333.616 -3.44239 -1.03633 0
M  V30 3425 C 333.28 -4.56965 -0.0567502 0
M  V30 3426 C 334.277 -5.14624 0.738773 0
M  V30 3427 C 331.962 -5.02266 0.0581736 0
M  V30 3428 C 333.956 -6.16045 1.63605 0
M  V30 3429 C 331.643 -6.03528 0.959001 0
M  V30 3430 C 332.641 -6.60293 1.7465 0
M  V30 3431 O 332.329 -7.59586 2.6322 0
M  V30 3432 H 332.061 -0.666772 -0.111313 0
M  V30 3433 H 334.615 -2.02919 0.318277 0
M  V30 3434 H 332.845 -3.40391 -1.83497 0
M  V30 3435 H 334.534 -3.73793 -1.58221 0
M  V30 3436 H 335.3 -4.80483 0.660364 0
M  V30 3437 H 331.179 -4.57771 -0.544633 0
M  V30 3438 H 334.723 -6.60279 2.25116 0
M  V30 3439 H 330.62 -6.37092 1.03848 0
M  V30 3440 H 331.388 -7.77057 2.57148 0
M  V30 3441 N 334.051 0.0651679 -1.57465 0
M  V30 3442 C 334.981 1.07693 -2.07182 0
M  V30 3443 C 335.962 1.39962 -0.966673 0
M  V30 3444 O 337.147 1.49475 -1.2398 0
M  V30 3445 C 334.277 2.3885 -2.52127 0
M  V30 3446 C 333.231 2.20917 -3.66579 0
M  V30 3447 C 332.557 3.57515 -3.97601 0
M  V30 3448 C 333.857 1.62493 -4.9638 0
M  V30 3449 H 335.551 0.663199 -2.91962 0
M  V30 3450 H 333.097 0.317569 -1.40455 0
M  V30 3451 H 335.05 3.09928 -2.85522 0
M  V30 3452 H 333.774 2.82215 -1.64384 0
M  V30 3453 H 332.433 1.52279 -3.33477 0
M  V30 3454 H 332.081 3.98463 -3.06979 0
M  V30 3455 H 331.781 3.46353 -4.74672 0
M  V30 3456 H 333.305 4.30013 -4.33499 0
M  V30 3457 H 334.719 2.23445 -5.27963 0
M  V30 3458 H 333.116 1.62009 -5.77818 0
M  V30 3459 H 334.186 0.587041 -4.81333 0
M  V30 3460 N 335.529 1.53961 0.336706 0
M  V30 3461 C 336.757 1.75483 1.09605 0
M  V30 3462 C 337.172 0.4972 1.82136 0
M  V30 3463 O 336.529 -0.53149 1.74589 0
M  V30 3464 C 336.58 2.93943 2.10428 0
M  V30 3465 O 336.301 4.14842 1.40846 0
M  V30 3466 C 337.802 3.27571 2.98684 0
M  V30 3467 H 335.022 0.586166 0.326574 0
M  V30 3468 H 337.566 2.00808 0.38683 0
M  V30 3469 H 335.721 2.70929 2.76905 0
M  V30 3470 H 336.135 4.81383 2.08255 0
M  V30 3471 H 337.609 4.13791 3.6535 0
M  V30 3472 H 338.086 2.44168 3.65074 0
M  V30 3473 H 338.692 3.52615 2.37787 0
M  V30 3474 N 337.007 -0.598083 1.45811 0
M  V30 3475 C 338.423 -0.919847 1.30426 0
M  V30 3476 C 338.623 -1.99759 0.264303 0
M  V30 3477 O 337.679 -2.50221 -0.338472 0
M  V30 3478 C 338.992 -1.35176 2.68603 0
M  V30 3479 C 340.54 -1.46546 2.76574 0
M  V30 3480 C 341.015 -1.9311 4.15298 0
M  V30 3481 N 342.506 -2.00328 4.1764 0
M  V30 3482 C 343.241 -2.37599 5.21856 0
M  V30 3483 N 342.737 -2.73771 6.36413 0
M  V30 3484 N 344.53 -2.38021 5.09218 0
M  V30 3485 H 336.681 0.114111 2.12093 0
M  V30 3486 H 338.944 -0.0116121 0.947929 0
M  V30 3487 H 338.65 -0.633969 3.45939 0
M  V30 3488 H 338.524 -2.3164 2.97696 0
M  V30 3489 H 340.911 -2.17415 1.99537 0
M  V30 3490 H 340.992 -0.483727 2.51185 0
M  V30 3491 H 340.636 -1.22824 4.92825 0
M  V30 3492 H 340.566 -2.92213 4.38086 0
M  V30 3493 H 343.057 -1.74925 3.34977 0
M  V30 3494 H 343.37 -3.0112 7.11721 0
M  V30 3495 H 341.715 -2.71445 6.39799 0
M  V30 3496 H 344.906 -2.09174 4.18765 0
M  V30 3497 H 345.079 -2.66741 5.90554 0
M  V30 3498 N 338.485 -1.33259 -0.841409 0
M  V30 3499 C 339.713 -1.27605 -1.62864 0
M  V30 3500 C 340.128 0.153507 -1.88175 0
M  V30 3501 O 339.485 1.09485 -1.46011 0
M  V30 3502 C 339.536 -2.04596 -2.98031 0
M  V30 3503 O 339.257 -3.41975 -2.73834 0
M  V30 3504 C 340.758 -2.06122 -3.92465 0
M  V30 3505 H 337.978 -0.439718 -0.506842 0
M  V30 3506 H 340.522 -1.75591 -1.04824 0
M  V30 3507 H 338.677 -1.60299 -3.5268 0
M  V30 3508 H 339.091 -3.81549 -3.59889 0
M  V30 3509 H 340.565 -2.64451 -4.84531 0
M  V30 3510 H 341.042 -1.05083 -4.26444 0
M  V30 3511 H 341.648 -2.50427 -3.43753 0
M  V30 3512 N 339.963 1.05934 -1.16686 0
M  V30 3513 C 341.212 1.78188 -0.945085 0
M  V30 3514 C 341.525 1.88338 0.528021 0
M  V30 3515 O 342.731 2.57258 0.867799 0
M  V30 3516 C 341.187 3.20277 -1.64167 0
M  V30 3517 C 340.795 3.18281 -3.15279 0
M  V30 3518 C 342.539 3.97039 -1.502 0
M  V30 3519 C 340.446 4.55112 -3.7766 0
M  V30 3520 H 339.376 0.667866 -0.349959 0
M  V30 3521 H 342.027 1.18794 -1.39858 0
M  V30 3522 H 340.409 3.79952 -1.11589 0
M  V30 3523 H 341.583 2.68167 -3.74731 0
M  V30 3524 H 339.898 2.55018 -3.29173 0
M  V30 3525 H 342.495 4.98194 -1.94183 0
M  V30 3526 H 342.838 4.13845 -0.451461 0
M  V30 3527 H 343.371 3.43894 -1.99954 0
M  V30 3528 H 340.11 4.43512 -4.82677 0
M  V30 3529 H 339.63 5.05406 -3.22994 0
M  V30 3530 H 341.309 5.24064 -3.79428 0
M  V30 3531 N 341.441 0.965919 1.2453 0
M  V30 3532 C 342.391 0.465731 2.23193 0
M  V30 3533 C 343.375 -0.451277 1.54442 0
M  V30 3534 O 344.567 -0.282489 1.74731 0
M  V30 3535 C 341.696 -0.244511 3.42428 0
M  V30 3536 C 340.782 0.691222 4.18429 0
M  V30 3537 N 341.173 1.82771 4.71623 0
M  V30 3538 C 339.471 0.501649 4.4317 0
M  V30 3539 C 340.172 2.41285 5.29298 0
M  V30 3540 N 339.148 1.69819 5.16394 0
M  V30 3541 H 342.95 1.33291 2.61937 0
M  V30 3542 H 340.464 0.824789 1.39896 0
M  V30 3543 H 342.461 -0.620056 4.12263 0
M  V30 3544 H 341.121 -1.10815 3.05205 0
M  V30 3545 H 342.132 2.20929 4.68413 0
M  V30 3546 H 338.809 -0.318177 4.16286 0
M  V30 3547 H 340.199 3.37181 5.8117 0
M  V30 3548 N 342.919 -1.39368 0.735821 0
M  V30 3549 C 343.851 -2.2913 0.0567723 0
M  V30 3550 C 344.864 -1.46859 -0.702589 0
M  V30 3551 O 346.053 -1.69925 -0.546616 0
M  V30 3552 C 343.153 -3.25492 -0.943823 0
M  V30 3553 C 342.326 -4.36709 -0.24581 0
M  V30 3554 C 341.385 -5.13376 -1.15463 0
M  V30 3555 O 340.411 -5.65683 -0.631803 0
M  V30 3556 N 341.613 -5.24656 -2.48427 0
M  V30 3557 H 344.378 -2.88047 0.827582 0
M  V30 3558 H 341.939 -1.50957 0.585112 0
M  V30 3559 H 343.931 -3.73657 -1.55443 0
M  V30 3560 H 342.501 -2.676 -1.61583 0
M  V30 3561 H 341.721 -3.9041 0.545286 0
M  V30 3562 H 343.009 -5.08244 0.237891 0
M  V30 3563 H 342.407 -4.83679 -2.93379 0
M  V30 3564 H 340.964 -5.76258 -3.04582 0
M  V30 3565 N 344.397 -0.483516 -1.5 0
M  V30 3566 C 345.307 0.309172 -2.32554 0
M  V30 3567 C 346.323 0.984159 -1.43493 0
M  V30 3568 O 347.499 0.969399 -1.76535 0
M  V30 3569 C 344.564 1.36979 -3.18493 0
M  V30 3570 C 343.625 0.710095 -4.23387 0
M  V30 3571 C 342.858 1.72018 -5.05218 0
M  V30 3572 O 343.081 2.94813 -4.88305 0
M  V30 3573 O 342.015 1.28515 -5.8802 0
M  V30 3574 H 345.841 -0.366064 -3.01486 0
M  V30 3575 H 343.426 -0.24514 -1.47375 0
M  V30 3576 H 345.308 1.98385 -3.71781 0
M  V30 3577 H 343.983 2.02828 -2.52275 0
M  V30 3578 H 342.89 0.0567539 -3.74057 0
M  V30 3579 H 344.223 0.0943557 -4.9211 0
M  V30 3580 N 345.875 1.56104 -0.216619 0
M  V30 3581 C 346.823 2.21434 0.712036 0
M  V30 3582 C 347.817 1.19218 1.20348 0
M  V30 3583 O 349.023 1.3731 1.16387 0
M  V30 3584 H 345.398 0.70992 0.248026 0
M  V30 3585 H 347.369 2.98083 0.137558 0
M  V30 3586 C 346.118 2.90434 1.91163 0
M  V30 3587 H 345.441 3.68842 1.54258 0
M  V30 3588 H 346.881 3.39552 2.5393 0
M  V30 3589 C 345.34 1.92635 2.76394 0
M  V30 3590 O 345.87 1.44017 3.74996 0
M  V30 3591 N 344.076 1.60392 2.42328 0
M  V30 3592 H 343.623 2.00122 1.622 0
M  V30 3593 H 343.581 0.952159 2.99635 0
M  V30 3594 N 347.353 -0.0568162 1.57498 0
M  V30 3595 C 348.581 -0.765626 1.92213 0
M  V30 3596 C 348.996 -1.70353 0.813961 0
M  V30 3597 O 348.353 -1.81268 -0.211701 0
M  V30 3598 C 348.404 -1.5465 3.2675 0
M  V30 3599 O 348.125 -0.646278 4.33307 0
M  V30 3600 C 349.626 -2.35497 3.75574 0
M  V30 3601 H 346.846 -0.216835 0.634999 0
M  V30 3602 H 349.39 -0.0226146 2.04487 0
M  V30 3603 H 347.545 -2.24165 3.15957 0
M  V30 3604 H 347.959 -1.19093 5.108 0
M  V30 3605 H 349.433 -2.85722 4.72299 0
M  V30 3606 H 349.91 -3.15692 3.05344 0
M  V30 3607 H 350.516 -1.7111 3.8936 0
M  V30 3608 O 348.87 -1.60255 -0.200168 0
M  V30 3609 H 349.561 -1.74563 -0.839496 0
M  V30 END ATOM
M  V30 BEGIN BOND
M  V30 END BOND
M  V30 END CTAB
M  END
$$$$
