drugbank_target|P50750 Cyclin-dependent kinase 9 (DB03496; DB06195)
 OpenBabel12092120073D

  0  0  0     0  0            999 V3000
M  V30 BEGIN CTAB
M  V30 COUNTS 6059 6122 0 0 0
M  V30 BEGIN ATOM
M  V30 1 H -0.908 1.98254 -0.117106 0
M  V30 2 N 0 1.576 0 0
M  V30 3 C 0.933 2.03868 1.02534 0
M  V30 4 C 1.911 0.928543 1.3348 0
M  V30 5 O 3.095 1.19667 1.45644 0
M  V30 6 C 0.222 2.43627 2.35294 0
M  V30 7 C -0.732 3.65373 2.2001 0
M  V30 8 S 0.101 5.13292 1.52614 0
M  V30 9 C 1.257 5.56322 2.86805 0
M  V30 10 H 1.49 2.90518 0.631377 0
M  V30 11 H -0.977 1.52953 0.210867 0
M  V30 12 H 0.981 2.67203 3.11629 0
M  V30 13 H -0.358 1.57376 2.7183 0
M  V30 14 H -1.165 3.90944 3.18086 0
M  V30 15 H -1.563 3.418 1.51819 0
M  V30 16 H 0.729 5.58782 3.83104 0
M  V30 17 H 1.672 6.56266 2.65933 0
M  V30 18 H 2.08 4.83886 2.90714 0
M  V30 19 N 1.4781 -0.272755 1.55222 0
M  V30 20 C 2.4411 -1.32041 1.87344 0
M  V30 21 C 3.4411 -1.42342 0.74803 0
M  V30 22 O 4.6311 -1.41488 1.0162 0
M  V30 23 C 1.7631 -2.70173 2.07893 0
M  V30 24 H 2.9561 -1.04789 2.80997 0
M  V30 25 H 0.5091 -0.51083 1.47717 0
M  V30 26 H 1.2441 -3.02605 1.16622 0
M  V30 27 H 1.0291 -2.64082 2.89833 0
M  V30 28 H 2.5191 -3.45869 2.34017 0
M  V30 29 N 2.9562 -1.48159 -0.537278 0
M  V30 30 C 3.9032 -1.62138 -1.64256 0
M  V30 31 C 4.8732 -0.463668 -1.59497 0
M  V30 32 O 6.0582 -0.686241 -1.78032 0
M  V30 33 C 3.1982 -1.66028 -3.02537 0
M  V30 34 C 2.3112 -2.92855 -3.17585 0
M  V30 35 C 1.4462 -2.87952 -4.46382 0
M  V30 36 C 0.4852 -4.09516 -4.54932 0
M  V30 37 N -0.3778 -4.02733 -5.75109 0
M  V30 38 H 4.4622 -2.56529 -1.51647 0
M  V30 39 H 1.9992 -1.27224 -0.738414 0
M  V30 40 H 3.9572 -1.66265 -3.82638 0
M  V30 41 H 2.5872 -0.751331 -3.13934 0
M  V30 42 H 1.6392 -3.02395 -2.30784 0
M  V30 43 H 2.9512 -3.82822 -3.19764 0
M  V30 44 H 2.1052 -2.8655 -5.34765 0
M  V30 45 H 0.8442 -1.95702 -4.46712 0
M  V30 46 H -0.1508 -4.11201 -3.64957 0
M  V30 47 H 1.0742 -5.02917 -4.56346 0
M  V30 48 H -0.9798 -3.13299 -5.76351 0
M  V30 49 H -1.0628 -4.86397 -5.78752 0
M  V30 50 H 0.2052 -4.05379 -6.65799 0
M  V30 51 N 4.4343 0.785586 -1.36625 0
M  V30 52 C 5.3663 1.90711 -1.2713 0
M  V30 53 C 6.3793 1.61688 -0.189986 0
M  V30 54 O 7.5683 1.72864 -0.445014 0
M  V30 55 C 4.6683 3.25611 -0.939713 0
M  V30 56 C 3.8413 3.82385 -2.12369 0
M  V30 57 C 2.9003 4.95732 -1.76456 0
M  V30 58 O 1.9263 5.12047 -2.48589 0
M  V30 59 N 3.1283 5.76258 -0.700492 0
M  V30 60 H 5.8933 1.99376 -2.23762 0
M  V30 61 H 3.4543 0.964041 -1.30069 0
M  V30 62 H 5.4463 3.98937 -0.680554 0
M  V30 63 H 4.0163 3.12538 -0.0624074 0
M  V30 64 H 3.2363 3.01001 -2.54543 0
M  V30 65 H 4.5243 4.17047 -2.9146 0
M  V30 66 H 3.9223 5.65609 -0.101624 0
M  V30 67 H 2.4793 6.4987 -0.501165 0
M  V30 68 N 5.9124 1.20967 1.01018 0
M  V30 69 C 7.1424 1.04803 1.78044 0
M  V30 70 C 7.5504 -0.405462 1.84804 0
M  V30 71 O 6.8934 -1.2932 1.30468 0
M  V30 72 C 6.9554 1.56377 3.23707 0
M  V30 73 C 6.6194 3.04767 3.40538 0
M  V30 74 C 7.6164 4.02366 3.29239 0
M  V30 75 C 5.3014 3.43862 3.66147 0
M  V30 76 C 7.2954 5.37049 3.43304 0
M  V30 77 C 4.9824 4.78699 3.79855 0
M  V30 78 C 5.9804 5.75101 3.68439 0
M  V30 79 O 5.6684 7.07493 3.81719 0
M  V30 80 H 5.4004 0.368778 0.56655 0
M  V30 81 H 7.9544 1.60642 1.27997 0
M  V30 82 H 6.1844 0.949297 3.74867 0
M  V30 83 H 7.8734 1.36136 3.8239 0
M  V30 84 H 8.6394 3.73506 3.09384 0
M  V30 85 H 4.5184 2.69364 3.74118 0
M  V30 86 H 8.0624 6.12277 3.34309 0
M  V30 87 H 3.9594 5.07247 3.99213 0
M  V30 88 H 4.7274 7.1483 3.98697 0
M  V30 89 N 7.3905 -1.2043 1.01659 0
M  V30 90 C 8.6675 -1.8548 0.621004 0
M  V30 91 C 9.0475 -1.9091 -0.900919 0
M  V30 92 O 8.3955 -1.41694 -1.79263 0
M  V30 93 C 8.6055 -3.25119 1.2688 0
M  V30 94 C 9.9535 -4.01403 1.38423 0
M  V30 95 O 10.9775 -3.34473 1.22501 0
M  V30 96 O 9.8365 -5.21265 1.64151 0
M  V30 97 H 6.9305 -0.798761 0.214266 0
M  V30 98 H 9.4765 -1.28019 1.11396 0
M  V30 99 H 8.2485 -3.15932 2.30873 0
M  V30 100 H 7.8715 -3.90212 0.762917 0
M  V30 101 N 8.8686 -0.792821 -1.36206 0
M  V30 102 C 10.0936 -0.377701 -2.03932 0
M  V30 103 C 10.5186 0.998947 -1.59382 0
M  V30 104 O 9.8766 1.64421 -0.763903 0
M  V30 105 C 9.9246 -0.453635 -3.57735 0
M  V30 106 O 9.0286 0.538151 -4.08874 0
M  V30 107 H 8.3696 -0.159855 -0.644471 0
M  V30 108 H 10.8996 -1.07488 -1.7409 0
M  V30 109 H 10.9096 -0.318464 -4.06755 0
M  V30 110 H 9.5846 -1.45784 -3.89512 0
M  V30 111 H 8.1616 0.364359 -3.71116 0
M  V30 112 N 10.3467 1.47872 -0.545128 0
M  V30 113 C 11.5927 2.02793 -0.0166104 0
M  V30 114 C 11.9257 1.41987 1.32489 0
M  V30 115 O 11.2007 0.571045 1.85928 0
M  V30 116 C 11.4837 3.59989 0.0893294 0
M  V30 117 C 11.3367 4.3125 -1.27841 0
M  V30 118 C 12.6557 4.32606 0.808724 0
M  V30 119 H 9.7747 0.736962 -0.00751035 0
M  V30 120 H 12.4167 1.76433 -0.705085 0
M  V30 121 H 10.5667 3.82579 0.675681 0
M  V30 122 H 12.2387 4.20035 -1.90704 0
M  V30 123 H 10.4817 3.92076 -1.85632 0
M  V30 124 H 11.1527 5.39736 -1.15713 0
M  V30 125 H 13.6287 4.14936 0.310992 0
M  V30 126 H 12.5047 5.42251 0.851782 0
M  V30 127 H 12.7657 4.00963 1.86229 0
M  V30 128 N 11.8248 0.280983 1.55075 0
M  V30 129 C 12.7348 -0.61388 2.26426 0
M  V30 130 C 13.7508 -1.16521 1.29224 0
M  V30 131 O 14.9268 -1.19426 1.62171 0
M  V30 132 C 11.9918 -1.7788 2.9759 0
M  V30 133 C 11.0528 -1.26355 4.10284 0
M  V30 134 C 10.2858 -2.37295 4.78045 0
M  V30 135 O 10.5088 -3.56777 4.45047 0
M  V30 136 O 9.4428 -2.05119 5.65871 0
M  V30 137 H 13.2688 -0.0356932 3.03679 0
M  V30 138 H 10.8538 0.0481686 1.49322 0
M  V30 139 H 12.7358 -2.45791 3.42293 0
M  V30 140 H 11.4108 -2.34397 2.23249 0
M  V30 141 H 10.3178 -0.550735 3.70024 0
M  V30 142 H 11.6508 -0.744065 4.86543 0
M  V30 143 N 13.3029 -1.57598 0.00835791 0
M  V30 144 C 14.5429 -1.92788 -0.679136 0
M  V30 145 C 14.9069 -0.883378 -1.70471 0
M  V30 146 O 16.1079 -1.12079 -2.44319 0
M  V30 147 C 14.3789 -3.32994 -1.29807 0
M  V30 148 S 15.9379 -3.90082 -2.00952 0
M  V30 149 H 12.7559 -0.67475 -0.224127 0
M  V30 150 H 15.3579 -1.95385 0.0670497 0
M  V30 151 H 14.0619 -4.06846 -0.538922 0
M  V30 152 H 13.5929 -3.33791 -2.082 0
M  V30 153 H 15.6079 -3.71834 -3.28563 0
M  V30 154 N 14.781 0.264519 -1.55364 0
M  V30 155 C 16.192 0.834936 -1.6699 0
M  V30 156 C 16.543 1.86718 -0.602552 0
M  V30 157 O 15.668 2.14899 0.254425 0
M  V30 158 C 16.263 1.5212 -3.02729 0
M  V30 159 C 14.822 2.03954 -3.16354 0
M  V30 160 C 13.969 0.884498 -2.62815 0
M  V30 161 H 16.92 0.0406869 -1.58648 0
M  V30 162 H 16.941 2.38853 -2.96191 0
M  V30 163 H 16.453 0.769668 -3.80392 0
M  V30 164 H 14.554 2.82041 -2.43482 0
M  V30 165 H 14.667 2.24902 -4.23032 0
M  V30 166 H 13.031 1.2802 -2.20188 0
M  V30 167 H 13.814 0.14634 -3.42988 0
M  V30 168 N 16.2591 1.48442 0.529413 0
M  V30 169 C 17.5061 1.56488 1.28521 0
M  V30 170 C 17.8341 0.239042 1.93025 0
M  V30 171 O 17.0891 -0.770713 1.79885 0
M  V30 172 C 17.3881 2.6523 2.39558 0
M  V30 173 C 17.0541 4.07648 1.92702 0
M  V30 174 C 15.7161 4.46411 1.79641 0
M  V30 175 C 18.0681 4.96896 1.573 0
M  V30 176 C 15.3961 5.72226 1.29514 0
M  V30 177 C 17.7481 6.23202 1.08636 0
M  V30 178 C 16.4121 6.60821 0.941919 0
M  V30 179 H 15.6821 0.572631 0.470292 0
M  V30 180 H 18.3291 1.82161 0.59072 0
M  V30 181 H 16.6341 2.33419 3.14679 0
M  V30 182 H 18.3311 2.68671 2.97686 0
M  V30 183 H 14.9211 3.77036 2.03819 0
M  V30 184 H 19.1051 4.67626 1.66251 0
M  V30 185 H 14.3611 6.00097 1.17019 0
M  V30 186 H 18.5351 6.91753 0.803136 0
M  V30 187 H 16.1621 7.58198 0.5513 0
M  V30 188 N 17.7372 -0.778329 1.37039 0
M  V30 189 C 18.9772 -1.54973 1.33276 0
M  V30 190 C 19.3412 -1.91816 -0.0839376 0
M  V30 191 O 20.5422 -2.6767 -0.246228 0
M  V30 192 C 18.8132 -2.78517 2.23971 0
M  V30 193 S 20.3722 -3.6865 2.37997 0
M  V30 194 H 17.1902 -0.530639 0.473226 0
M  V30 195 H 19.7922 -0.915806 1.72723 0
M  V30 196 H 18.4962 -2.4952 3.25835 0
M  V30 197 H 18.0272 -3.46875 1.85584 0
M  V30 198 H 20.0422 -4.70182 1.58567 0
M  V30 199 N 19.2153 -1.21501 -1.00376 0
M  V30 200 C 20.4923 -0.941745 -1.71437 0
M  V30 201 C 20.8723 0.546114 -2.03914 0
M  V30 202 O 20.2203 1.51128 -1.71384 0
M  V30 203 C 20.4303 -1.82812 -2.97289 0
M  V30 204 C 21.7783 -2.07771 -3.70292 0
M  V30 205 O 22.8023 -1.80171 -3.07273 0
M  V30 206 O 21.6613 -2.54456 -4.83647 0
M  V30 207 H 18.7553 -0.353243 -0.747762 0
M  V30 208 H 21.3013 -1.32436 -1.06108 0
M  V30 209 H 20.0733 -2.83501 -2.69709 0
M  V30 210 H 19.6963 -1.4464 -3.70358 0
M  V30 211 N 20.6934 1.19889 -1.02296 0
M  V30 212 C 21.6034 2.26571 -0.608508 0
M  V30 213 C 22.6194 1.70299 0.356964 0
M  V30 214 O 23.7954 2.00235 0.216326 0
M  V30 215 C 20.8604 3.46677 0.0402814 0
M  V30 216 C 19.9214 4.18153 -0.97194 0
M  V30 217 C 19.1544 5.32525 -0.354016 0
M  V30 218 O 19.3774 5.64112 0.844604 0
M  V30 219 O 18.3114 5.92242 -1.07391 0
M  V30 220 H 22.1374 2.64251 -1.49684 0
M  V30 221 H 19.7224 1.26629 -0.792809 0
M  V30 222 H 21.6044 4.19475 0.402324 0
M  V30 223 H 20.2794 3.10858 0.902707 0
M  V30 224 H 19.1864 3.47499 -1.38546 0
M  V30 225 H 20.5194 4.57927 -1.80454 0
M  V30 226 N 22.1715 0.800033 1.35784 0
M  V30 227 C 23.4175 0.377901 1.99248 0
M  V30 228 C 23.7505 -1.05052 1.63333 0
M  V30 229 O 23.0255 -1.72768 0.893385 0
M  V30 230 C 23.3085 0.553922 3.55814 0
M  V30 231 C 23.1615 2.0268 4.01548 0
M  V30 232 C 24.4805 -0.0244802 4.40093 0
M  V30 233 H 21.5995 0.138782 0.723815 0
M  V30 234 H 24.2415 1.00835 1.61035 0
M  V30 235 H 22.3915 0.0172398 3.88496 0
M  V30 236 H 24.0635 2.62536 3.79305 0
M  V30 237 H 22.3065 2.5256 3.52698 0
M  V30 238 H 22.9775 2.10087 5.10458 0
M  V30 239 H 25.4535 0.433775 4.13833 0
M  V30 240 H 24.3295 0.128637 5.48749 0
M  V30 241 H 24.5905 -1.11758 4.27741 0
M  V30 242 N 23.6496 -1.47581 0.552962 0
M  V30 243 C 24.8746 -2.07378 0.0300593 0
M  V30 244 C 25.2996 -1.40355 -1.25229 0
M  V30 245 O 24.6576 -0.477099 -1.7491 0
M  V30 246 C 24.7056 -3.60274 -0.153231 0
M  V30 247 O 23.8096 -3.94041 -1.21678 0
M  V30 248 H 23.1506 -0.662158 0.0494182 0
M  V30 249 H 25.6806 -1.89662 0.767434 0
M  V30 250 H 25.6906 -4.0633 -0.368761 0
M  V30 251 H 24.3656 -4.08455 0.783397 0
M  V30 252 H 22.9426 -3.59735 -0.982079 0
M  V30 253 N 25.1277 -0.289203 -1.54924 0
M  V30 254 C 26.0747 0.592115 -2.23075 0
M  V30 255 C 27.0447 1.13881 -1.20915 0
M  V30 256 O 28.2297 1.18551 -1.495 0
M  V30 257 C 25.3697 1.76376 -2.96623 0
M  V30 258 C 24.4827 1.24959 -4.13533 0
M  V30 259 C 23.6177 2.38416 -4.74691 0
M  V30 260 C 22.6567 1.84072 -5.83767 0
M  V30 261 N 21.7937 2.91057 -6.38929 0
M  V30 262 H 26.6337 0.00432038 -2.98 0
M  V30 263 H 24.1707 -0.00963529 -1.47097 0
M  V30 264 H 26.1287 2.45268 -3.3749 0
M  V30 265 H 24.7587 2.32337 -2.24097 0
M  V30 266 H 23.8107 0.453307 -3.77689 0
M  V30 267 H 25.1227 0.811662 -4.92152 0
M  V30 268 H 24.2767 3.15276 -5.18349 0
M  V30 269 H 23.0157 2.8553 -3.95378 0
M  V30 270 H 22.0207 1.05697 -5.39545 0
M  V30 271 H 23.2457 1.37877 -6.64956 0
M  V30 272 H 21.1917 3.37526 -5.62505 0
M  V30 273 H 21.1087 2.51724 -7.12861 0
M  V30 274 H 22.3767 3.6785 -6.87246 0
M  V30 275 N 26.6058 1.57591 -0.0167156 0
M  V30 276 C 27.8358 1.95292 0.674149 0
M  V30 277 C 28.2438 0.891097 1.66901 0
M  V30 278 O 27.5868 -0.136908 1.83189 0
M  V30 279 C 27.6488 3.29072 1.44747 0
M  V30 280 C 27.3128 4.52879 0.612331 0
M  V30 281 C 28.3098 5.1979 -0.107126 0
M  V30 282 C 25.9948 4.99242 0.553381 0
M  V30 283 C 27.9888 6.31375 -0.874339 0
M  V30 284 C 25.6758 6.10713 -0.217546 0
M  V30 285 C 26.6738 6.76637 -0.930123 0
M  V30 286 O 26.3618 7.85969 -1.68844 0
M  V30 287 H 26.0938 0.648275 0.191615 0
M  V30 288 H 28.6478 2.05284 -0.0690148 0
M  V30 289 H 26.8778 3.15535 2.2355 0
M  V30 290 H 28.5668 3.51764 2.02526 0
M  V30 291 H 29.3328 4.84948 -0.0708392 0
M  V30 292 H 25.2118 4.47744 1.09757 0
M  V30 293 H 28.7558 6.82764 -1.43106 0
M  V30 294 H 24.6528 6.44994 -0.255593 0
M  V30 295 H 25.4208 8.02571 -1.6069 0
M  V30 296 N 28.0839 -0.256276 1.55502 0
M  V30 297 C 28.9939 -1.33882 1.92647 0
M  V30 298 C 30.0099 -1.53159 0.825727 0
M  V30 299 O 31.1859 -1.66963 1.12629 0
M  V30 300 C 28.2509 -2.6751 2.20543 0
M  V30 301 C 27.3119 -2.56836 3.43997 0
M  V30 302 C 26.5449 -3.84092 3.70553 0
M  V30 303 O 26.7679 -4.85545 2.99336 0
M  V30 304 O 25.7019 -3.83288 4.64084 0
M  V30 305 H 29.5279 -1.05374 2.84833 0
M  V30 306 H 27.1129 -0.456237 1.42263 0
M  V30 307 H 28.9949 -3.46492 2.39835 0
M  V30 308 H 27.6699 -2.9577 1.31536 0
M  V30 309 H 26.5769 -1.76172 3.30021 0
M  V30 310 H 27.9099 -2.33523 4.33275 0
M  V30 311 N 29.562 -1.4872 -0.521534 0
M  V30 312 C 30.509 -1.63871 -1.62527 0
M  V30 313 C 31.479 -0.480559 -1.58996 0
M  V30 314 O 32.664 -0.705085 -1.77294 0
M  V30 315 C 29.804 -1.69227 -3.00759 0
M  V30 316 C 28.917 -2.96207 -3.14461 0
M  V30 317 C 28.052 -2.92671 -4.43303 0
M  V30 318 C 27.091 -4.14318 -4.50563 0
M  V30 319 N 26.228 -4.0881 -5.70805 0
M  V30 320 H 31.068 -2.58123 -1.48918 0
M  V30 321 H 28.605 -1.28 -0.724878 0
M  V30 322 H 30.563 -1.70314 -3.80853 0
M  V30 323 H 29.193 -0.784586 -3.1312 0
M  V30 324 H 28.245 -3.04826 -2.27564 0
M  V30 325 H 29.557 -3.86192 -3.15686 0
M  V30 326 H 28.711 -2.92206 -5.31696 0
M  V30 327 H 27.45 -2.00429 -4.44612 0
M  V30 328 H 26.455 -4.15049 -3.60575 0
M  V30 329 H 27.68 -5.07729 -4.50986 0
M  V30 330 H 25.626 -3.19394 -5.72995 0
M  V30 331 H 25.543 -4.92509 -5.7356 0
M  V30 332 H 26.811 -4.12418 -6.61462 0
M  V30 333 N 31.0401 0.771051 -1.3745 0
M  V30 334 C 31.9701 1.89827 -1.3597 0
M  V30 335 C 32.9511 1.68562 -0.228216 0
M  V30 336 O 34.1361 1.8941 -0.428675 0
M  V30 337 C 31.2661 3.2712 -1.16662 0
M  V30 338 C 30.2201 3.6295 -2.2683 0
M  V30 339 C 29.5461 4.98791 -1.92644 0
M  V30 340 C 30.8461 3.69627 -3.69017 0
M  V30 341 H 32.5401 1.91323 -2.30295 0
M  V30 342 H 30.0861 0.919082 -1.10855 0
M  V30 343 H 32.0391 4.05615 -1.14256 0
M  V30 344 H 30.7631 3.26059 -0.187926 0
M  V30 345 H 29.4221 2.86763 -2.28392 0
M  V30 346 H 29.0701 4.94271 -0.933021 0
M  V30 347 H 28.7701 5.23733 -2.66416 0
M  V30 348 H 30.2941 5.79685 -1.91826 0
M  V30 349 H 31.7081 4.38273 -3.69581 0
M  V30 350 H 30.1051 4.06067 -4.41848 0
M  V30 351 H 31.1751 2.70273 -4.02592 0
M  V30 352 N 32.5182 1.22032 0.997298 0
M  V30 353 C 33.4812 0.987909 2.06816 0
M  V30 354 C 34.4812 -0.0440084 1.6074 0
M  V30 355 O 35.6712 0.194053 1.73116 0
M  V30 356 C 32.8032 0.49132 3.37341 0
M  V30 357 H 33.9962 1.93803 2.28868 0
M  V30 358 H 31.5492 1.03838 1.16822 0
M  V30 359 H 32.2842 -0.463364 3.20973 0
M  V30 360 H 32.0692 1.23575 3.72118 0
M  V30 361 H 33.5592 0.348824 4.16141 0
M  V30 362 N 33.9963 -1.19345 1.0293 0
M  V30 363 C 34.9433 -2.2258 0.610464 0
M  V30 364 C 35.9133 -1.6179 -0.375946 0
M  V30 365 O 37.0983 -1.88844 -0.272511 0
M  V30 366 C 34.2383 -3.45085 -0.0321473 0
M  V30 367 C 33.3513 -4.20258 1.00035 0
M  V30 368 C 32.4863 -5.3019 0.32746 0
M  V30 369 C 31.5253 -5.97121 1.34584 0
M  V30 370 N 30.6623 -6.98615 0.698726 0
M  V30 371 H 35.5023 -2.57764 1.49538 0
M  V30 372 H 33.0393 -1.26644 0.748311 0
M  V30 373 H 34.9973 -4.15061 -0.421966 0
M  V30 374 H 33.6273 -3.10555 -0.88064 0
M  V30 375 H 32.6793 -3.49223 1.50823 0
M  V30 376 H 33.9913 -4.66175 1.77433 0
M  V30 377 H 33.1453 -6.06587 -0.11718 0
M  V30 378 H 31.8843 -4.85345 -0.478713 0
M  V30 379 H 30.8893 -5.19474 1.80074 0
M  V30 380 H 32.1143 -6.4405 2.15352 0
M  V30 381 H 30.0603 -6.55942 -0.0873471 0
M  V30 382 H 29.9773 -7.42724 1.41058 0
M  V30 383 H 31.2453 -7.79004 0.278102 0
M  V30 384 N 35.4744 -0.807222 -1.35358 0
M  V30 385 C 36.7234 -0.384376 -1.98004 0
M  V30 386 C 37.0364 1.0543 -1.64754 0
M  V30 387 O 38.2424 1.58029 -2.20769 0
M  V30 388 C 36.6984 -0.636326 -3.5423 0
M  V30 389 C 36.3064 -2.08759 -3.96388 0
M  V30 390 C 38.0504 -0.278869 -4.23583 0
M  V30 391 C 35.9574 -2.28525 -5.45463 0
M  V30 392 H 34.8874 -0.139986 -0.740891 0
M  V30 393 H 37.5384 -0.991369 -1.54415 0
M  V30 394 H 35.9204 0.0406256 -3.95979 0
M  V30 395 H 37.0944 -2.8024 -3.6579 0
M  V30 396 H 35.4094 -2.40497 -3.39926 0
M  V30 397 H 38.0064 -0.404599 -5.33167 0
M  V30 398 H 38.3494 0.775012 -4.09022 0
M  V30 399 H 38.8824 -0.909764 -3.87257 0
M  V30 400 H 35.6214 -3.32361 -5.64992 0
M  V30 401 H 35.1414 -1.61569 -5.77629 0
M  V30 402 H 36.8204 -2.10109 -6.11934 0
M  V30 403 N 36.9525 1.47285 -0.560781 0
M  V30 404 C 38.2005 2.02064 -0.0379868 0
M  V30 405 C 38.5215 1.43711 1.31803 0
M  V30 406 O 37.7915 0.61362 1.86042 0
M  V30 407 H 36.3715 0.746918 -0.0110531 0
M  V30 408 H 39.0335 1.80648 -0.731598 0
M  V30 409 H 38.1295 3.12064 0.0474463 0
M  V30 410 N 38.4306 0.297415 1.54768 0
M  V30 411 C 39.3626 -0.613881 2.20826 0
M  V30 412 C 40.3756 -1.10032 1.19987 0
M  V30 413 O 41.5646 -1.01839 1.46598 0
M  V30 414 C 38.6646 -1.852 2.83821 0
M  V30 415 C 37.8376 -1.50865 4.10559 0
M  V30 416 C 36.8966 -2.60154 4.57391 0
M  V30 417 O 35.9226 -2.25398 5.2267 0
M  V30 418 N 37.1246 -3.90629 4.29406 0
M  V30 419 H 39.8896 -0.048389 2.99661 0
M  V30 420 H 37.4506 0.11946 1.61459 0
M  V30 421 H 39.4426 -2.57652 3.12086 0
M  V30 422 H 38.0126 -2.32597 2.08847 0
M  V30 423 H 37.2326 -0.616925 3.89343 0
M  V30 424 H 38.5206 -1.25458 4.9309 0
M  V30 425 H 37.9186 -4.21677 3.77101 0
M  V30 426 H 36.4756 -4.59391 4.62388 0
M  V30 427 N 39.9087 -1.5758 0.0250728 0
M  V30 428 C 41.1567 -1.91255 -0.653151 0
M  V30 429 C 41.4777 -0.901691 -1.729 0
M  V30 430 O 40.7477 0.0573785 -1.95816 0
M  V30 431 H 39.3277 -0.705942 -0.244243 0
M  V30 432 H 41.9897 -1.94767 0.0719209 0
M  V30 433 H 41.0857 -2.91752 -1.10847 0
M  V30 434 N 41.3868 0.248026 -1.55636 0
M  V30 435 C 42.6148 0.993808 -1.81469 0
M  V30 436 C 43.0298 1.78991 -0.60064 0
M  V30 437 O 42.3868 1.77345 0.430682 0
M  V30 438 C 42.4378 1.93258 -3.05506 0
M  V30 439 O 42.1588 1.16869 -4.22224 0
M  V30 440 C 43.6598 2.79444 -3.4413 0
M  V30 441 H 40.8798 0.292486 -0.603898 0
M  V30 442 H 43.4238 0.271253 -2.02693 0
M  V30 443 H 41.5788 2.60943 -2.86335 0
M  V30 444 H 41.9928 1.80359 -4.92515 0
M  V30 445 H 43.4668 3.41066 -4.34026 0
M  V30 446 H 43.9438 3.50499 -2.64665 0
M  V30 447 H 44.5498 2.17214 -3.65648 0
M  V30 448 N 42.8649 1.48995 0.513639 0
M  V30 449 C 44.1119 1.57843 1.26854 0
M  V30 450 C 44.4399 0.259501 1.92761 0
M  V30 451 O 43.6949 -0.75159 1.80692 0
M  V30 452 C 43.9939 2.67756 2.36731 0
M  V30 453 C 43.6599 4.09669 1.88368 0
M  V30 454 C 42.3219 4.48291 1.74896 0
M  V30 455 C 44.6739 4.98537 1.52021 0
M  V30 456 C 42.0019 5.73568 1.23438 0
M  V30 457 C 44.3539 6.24319 1.0202 0
M  V30 458 C 43.0179 6.61783 0.871778 0
M  V30 459 H 42.2879 0.577587 0.464192 0
M  V30 460 H 44.9349 1.82778 0.571366 0
M  V30 461 H 43.2399 2.36743 3.12185 0
M  V30 462 H 44.9369 2.71813 2.9482 0
M  V30 463 H 41.5269 3.79176 1.99808 0
M  V30 464 H 45.7109 4.69363 1.61281 0
M  V30 465 H 40.9669 6.01304 1.10648 0
M  V30 466 H 45.1409 6.92566 0.729722 0
M  V30 467 H 42.7679 7.5874 0.470852 0
M  V30 468 N 44.343 -0.763751 1.37857 0
M  V30 469 C 45.591 -1.51957 1.33243 0
M  V30 470 C 45.912 -1.94835 -0.0801709 0
M  V30 471 O 45.182 -1.66894 -1.02582 0
M  V30 472 H 43.762 -0.563626 0.49024 0
M  V30 473 H 46.424 -0.908504 1.7243 0
M  V30 474 H 45.52 -2.41523 1.97669 0
M  V30 475 N 45.8211 -1.22559 -0.990812 0
M  V30 476 C 46.7311 -1.01394 -2.11557 0
M  V30 477 C 47.7471 0.0383962 -1.73958 0
M  V30 478 O 48.9231 -0.154787 -2.00804 0
M  V30 479 C 45.9881 -0.596569 -3.41529 0
M  V30 480 C 45.0491 -1.72276 -3.93217 0
M  V30 481 C 44.2821 -1.32521 -5.16985 0
M  V30 482 O 44.5051 -0.204909 -5.70032 0
M  V30 483 O 43.4391 -2.14247 -5.62478 0
M  V30 484 H 47.2651 -1.95633 -2.32296 0
M  V30 485 H 44.8501 -1.01172 -1.0993 0
M  V30 486 H 46.7321 -0.374263 -4.19735 0
M  V30 487 H 45.4071 0.316939 -3.22145 0
M  V30 488 H 44.3141 -1.99961 -3.16174 0
M  V30 489 H 45.6471 -2.61421 -4.17037 0
M  V30 490 N 47.2992 1.18797 -1.03562 0
M  V30 491 C 48.5452 1.8893 -0.737113 0
M  V30 492 C 48.8782 1.79837 0.732956 0
M  V30 493 O 48.1532 1.19525 1.5344 0
M  V30 494 C 48.4362 3.39607 -1.19745 0
M  V30 495 C 48.2892 3.57537 -2.72924 0
M  V30 496 C 49.6082 4.33069 -0.783526 0
M  V30 497 H 46.7272 0.686057 -0.269249 0
M  V30 498 H 49.3692 1.39797 -1.28673 0
M  V30 499 H 47.5192 3.81583 -0.729855 0
M  V30 500 H 49.1912 3.24688 -3.27682 0
M  V30 501 H 47.4342 3.00363 -3.12993 0
M  V30 502 H 48.1052 4.63238 -3.00191 0
M  V30 503 H 50.5812 3.98846 -1.18581 0
M  V30 504 H 49.4572 5.3707 -1.13343 0
M  V30 505 H 49.7182 4.40986 0.313681 0
M  V30 506 N 48.7773 0.814389 1.34928 0
M  V30 507 C 50.0243 0.398423 1.98542 0
M  V30 508 C 50.3523 -1.03638 1.64589 0
M  V30 509 O 49.6073 -1.73509 0.90516 0
M  V30 510 C 49.9063 0.537781 3.53331 0
M  V30 511 C 49.5723 1.93704 4.07172 0
M  V30 512 C 48.2343 2.31984 4.21589 0
M  V30 513 C 50.5863 2.85213 4.36237 0
M  V30 514 C 47.9143 3.61125 4.62391 0
M  V30 515 C 50.2663 4.13809 4.78482 0
M  V30 516 C 48.9303 4.52077 4.91104 0
M  V30 517 H 48.2003 0.145793 0.726516 0
M  V30 518 H 50.8473 1.03669 1.61012 0
M  V30 519 H 49.1523 -0.183906 3.91368 0
M  V30 520 H 50.8493 0.196588 4.00518 0
M  V30 521 H 47.4393 1.62966 3.96409 0
M  V30 522 H 51.6233 2.56885 4.24645 0
M  V30 523 H 46.8793 3.90612 4.70353 0
M  V30 524 H 51.0533 4.84811 4.99932 0
M  V30 525 H 48.6803 5.52196 5.22478 0
M  V30 526 N 50.2554 -1.46986 0.568584 0
M  V30 527 C 51.2024 -2.30153 -0.172707 0
M  V30 528 C 52.1724 -1.39759 -0.897586 0
M  V30 529 O 53.3574 -1.68716 -0.891044 0
M  V30 530 C 50.4974 -3.23952 -1.1895 0
M  V30 531 C 49.6104 -4.29441 -0.469517 0
M  V30 532 C 48.7454 -5.1038 -1.47259 0
M  V30 533 C 47.7844 -6.07632 -0.738225 0
M  V30 534 N 46.9214 -6.8149 -1.68868 0
M  V30 535 H 51.7614 -2.93019 0.542596 0
M  V30 536 H 49.2984 -1.44422 0.279401 0
M  V30 537 H 51.2564 -3.76767 -1.79173 0
M  V30 538 H 49.8864 -2.62926 -1.87269 0
M  V30 539 H 48.9384 -3.79594 0.247467 0
M  V30 540 H 50.2504 -4.98689 0.105241 0
M  V30 541 H 49.4044 -5.67402 -2.14803 0
M  V30 542 H 48.1434 -4.4106 -2.08128 0
M  V30 543 H 47.1484 -5.49778 -0.0489293 0
M  V30 544 H 48.3734 -6.78966 -0.135129 0
M  V30 545 H 46.3194 -6.14891 -2.28573 0
M  V30 546 H 46.2364 -7.46948 -1.16636 0
M  V30 547 H 47.5044 -7.43078 -2.3549 0
M  V30 548 N 51.7335 -0.305618 -1.54608 0
M  V30 549 C 52.6965 0.555591 -2.22364 0
M  V30 550 C 53.6965 1.05768 -1.21119 0
M  V30 551 O 54.8865 0.952972 -1.45822 0
M  V30 552 C 52.0185 1.76974 -2.91364 0
M  V30 553 H 53.2115 -0.0364572 -2.99878 0
M  V30 554 H 50.7645 -0.0565007 -1.56198 0
M  V30 555 H 51.4995 2.40151 -2.17941 0
M  V30 556 H 51.2845 1.41732 -3.65588 0
M  V30 557 H 52.7745 2.38148 -3.43038 0
M  V30 558 N 53.2116 1.57565 -0.0334293 0
M  V30 559 C 54.6276 1.56297 0.322997 0
M  V30 560 C 54.8276 1.03945 1.7262 0
M  V30 561 O 53.8836 0.688109 2.42943 0
M  V30 562 C 55.1966 3.00232 0.167664 0
M  V30 563 C 56.7446 3.12078 0.240107 0
M  V30 564 C 57.2196 4.57859 0.113513 0
M  V30 565 N 58.7106 4.62887 0.170359 0
M  V30 566 C 59.4456 5.73319 0.0962517 0
M  V30 567 N 58.9416 6.92794 -0.0291881 0
M  V30 568 N 60.7346 5.61898 0.150551 0
M  V30 569 H 52.8856 1.89923 -0.950956 0
M  V30 570 H 55.1486 0.873824 -0.367608 0
M  V30 571 H 54.8546 3.42501 -0.799102 0
M  V30 572 H 54.7286 3.654 0.936083 0
M  V30 573 H 57.1156 2.69718 1.19733 0
M  V30 574 H 57.1966 2.49623 -0.558763 0
M  V30 575 H 56.8406 5.009 -0.840314 0
M  V30 576 H 56.7706 5.18299 0.931302 0
M  V30 577 H 59.2616 3.76954 0.26728 0
M  V30 578 H 59.5746 7.7276 -0.0789252 0
M  V30 579 H 57.9196 6.94971 -0.0640299 0
M  V30 580 H 61.1106 4.67448 0.246981 0
M  V30 581 H 61.2836 6.47938 0.0893365 0
M  V30 582 N 54.6897 -0.239769 1.55765 0
M  V30 583 C 55.6397 -1.30002 1.87306 0
M  V30 584 C 56.6237 -1.43156 0.73452 0
M  V30 585 O 57.8157 -1.46277 0.99659 0
M  V30 586 C 54.9447 -2.65409 2.17745 0
M  V30 587 C 54.0307 -2.56231 3.37945 0
M  V30 588 N 54.4217 -2.16689 4.57033 0
M  V30 589 C 52.7197 -2.87229 3.41197 0
M  V30 590 C 53.4207 -2.18318 5.39177 0
M  V30 591 N 52.3967 -2.58098 4.78421 0
M  V30 592 H 56.1987 -0.984912 2.76906 0
M  V30 593 H 53.7127 -0.448381 1.56087 0
M  V30 594 H 55.7097 -3.41934 2.38509 0
M  V30 595 H 54.3697 -2.97781 1.29448 0
M  V30 596 H 55.3807 -1.88116 4.82528 0
M  V30 597 H 52.0577 -3.24094 2.63191 0
M  V30 598 H 53.4477 -1.90025 6.44469 0
M  V30 599 N 56.1678 -1.49265 -0.50573 0
M  V30 600 C 57.5838 -1.35923 -0.836486 0
M  V30 601 C 57.7838 -0.388704 -1.97715 0
M  V30 602 O 56.8398 0.181336 -2.51848 0
M  V30 603 C 58.1528 -2.76531 -1.18115 0
M  V30 604 C 59.7008 -2.85197 -1.28964 0
M  V30 605 C 60.1758 -4.26561 -1.66761 0
M  V30 606 N 61.6668 -4.2935 -1.73819 0
M  V30 607 C 62.4018 -5.35693 -2.045 0
M  V30 608 N 61.8978 -6.52287 -2.33438 0
M  V30 609 N 63.6908 -5.23105 -2.05711 0
M  V30 610 H 55.8418 -2.10965 0.246519 0
M  V30 611 H 58.1048 -0.9468 0.0476887 0
M  V30 612 H 57.8108 -3.49226 -0.416398 0
M  V30 613 H 57.6848 -3.11599 -2.1257 0
M  V30 614 H 60.0718 -2.12742 -2.04511 0
M  V30 615 H 60.1528 -2.53718 -0.325704 0
M  V30 616 H 59.7968 -4.99541 -0.917656 0
M  V30 617 H 59.7268 -4.55502 -2.64246 0
M  V30 618 H 62.2178 -3.4526 -1.53635 0
M  V30 619 H 62.5308 -7.29158 -2.56024 0
M  V30 620 H 60.8758 -6.55521 -2.30905 0
M  V30 621 H 64.0668 -4.31026 -1.82577 0
M  V30 622 H 64.2398 -6.06078 -2.29289 0
M  V30 623 N 57.6459 0.756429 -1.3826 0
M  V30 624 C 58.5929 1.87011 -1.35261 0
M  V30 625 C 59.5629 1.64695 -0.215616 0
M  V30 626 O 60.7479 1.864 -0.407399 0
M  V30 627 C 57.8879 3.24275 -1.18068 0
M  V30 628 C 57.0009 3.58442 -2.41129 0
M  V30 629 C 56.1359 4.84994 -2.16689 0
M  V30 630 C 55.1749 5.11939 -3.35537 0
M  V30 631 N 54.3119 6.29685 -3.10549 0
M  V30 632 H 59.1519 1.8891 -2.30472 0
M  V30 633 H 56.6889 0.923373 -1.14509 0
M  V30 634 H 58.6469 4.03479 -1.06116 0
M  V30 635 H 57.2769 3.21711 -0.264973 0
M  V30 636 H 56.3289 2.74103 -2.63764 0
M  V30 637 H 57.6409 3.74283 -3.29717 0
M  V30 638 H 56.7949 5.72135 -2.01857 0
M  V30 639 H 55.5339 4.71286 -1.25462 0
M  V30 640 H 54.5389 4.23268 -3.50891 0
M  V30 641 H 55.7639 5.27546 -4.27635 0
M  V30 642 H 53.7099 6.17306 -2.21967 0
M  V30 643 H 53.6269 6.46014 -3.92686 0
M  V30 644 H 54.8949 7.19722 -2.99367 0
M  V30 645 N 59.124 1.23083 0.984299 0
M  V30 646 C 60.352 1.08714 1.76037 0
M  V30 647 C 60.767 -0.361691 1.85303 0
M  V30 648 O 60.124 -1.25034 1.32939 0
M  V30 649 C 60.175 1.70206 3.18923 0
M  V30 650 O 59.896 3.09423 3.10144 0
M  V30 651 C 61.397 1.61227 4.12941 0
M  V30 652 H 58.617 0.380664 0.552572 0
M  V30 653 H 61.161 1.62853 1.23689 0
M  V30 654 H 59.316 1.20109 3.6831 0
M  V30 655 H 59.73 3.39188 4.00065 0
M  V30 656 H 61.204 2.08962 5.10919 0
M  V30 657 H 61.681 0.570375 4.35481 0
M  V30 658 H 62.287 2.10671 3.69456 0
M  V30 659 N 60.6021 -1.18246 1.0419 0
M  V30 660 C 61.8501 -1.87886 0.744543 0
M  V30 661 C 62.1711 -1.8082 -0.730006 0
M  V30 662 O 61.4411 -1.22736 -1.52685 0
M  V30 663 H 60.0211 -0.695556 0.272417 0
M  V30 664 H 62.6831 -1.43494 1.31892 0
M  V30 665 H 61.7791 -2.9389 1.05049 0
M  V30 666 N 62.0802 -0.821533 -1.34494 0
M  V30 667 C 63.0122 -0.199946 -2.28326 0
M  V30 668 C 64.0252 0.609377 -1.50965 0
M  V30 669 O 65.2142 0.439285 -1.7301 0
M  V30 670 C 62.3142 0.738431 -3.30757 0
M  V30 671 C 61.4872 -0.0277632 -4.37391 0
M  V30 672 C 60.5462 0.831332 -5.19591 0
M  V30 673 O 59.5722 0.276822 -5.68526 0
M  V30 674 N 60.7742 2.15132 -5.39165 0
M  V30 675 H 63.5392 -1.00609 -2.82308 0
M  V30 676 H 61.1002 -0.678366 -1.47003 0
M  V30 677 H 63.0922 1.31773 -3.82646 0
M  V30 678 H 61.6622 1.44533 -2.7718 0
M  V30 679 H 60.8822 -0.788359 -3.86236 0
M  V30 680 H 62.1702 -0.555251 -5.05761 0
M  V30 681 H 61.5682 2.62559 -5.01078 0
M  V30 682 H 60.1252 2.6795 -5.94177 0
M  V30 683 N 63.5583 1.46682 -0.576371 0
M  V30 684 C 64.5053 2.30241 0.160499 0
M  V30 685 C 65.4753 1.40233 0.890162 0
M  V30 686 O 66.6603 1.69186 0.882084 0
M  V30 687 C 63.8003 3.24578 1.1723 0
M  V30 688 C 62.9133 4.29684 0.446736 0
M  V30 689 C 62.0483 5.11154 1.44551 0
M  V30 690 C 61.0873 6.08015 0.70599 0
M  V30 691 N 60.2243 6.82376 1.65251 0
M  V30 692 H 65.0643 2.92727 -0.558127 0
M  V30 693 H 62.6013 1.44272 -0.287056 0
M  V30 694 H 64.5593 3.77711 1.77172 0
M  V30 695 H 63.1893 2.63916 1.85872 0
M  V30 696 H 62.2413 3.79458 -0.267594 0
M  V30 697 H 63.5533 4.98626 -0.131686 0
M  V30 698 H 62.7073 5.68533 2.11791 0
M  V30 699 H 61.4463 4.42158 2.05786 0
M  V30 700 H 60.4513 5.49796 0.0197725 0
M  V30 701 H 61.6763 6.79028 0.09912 0
M  V30 702 H 59.6223 6.16094 2.25308 0
M  V30 703 H 59.5393 7.47556 1.12673 0
M  V30 704 H 60.8073 7.44316 2.31546 0
M  V30 705 N 65.0364 0.313813 1.54444 0
M  V30 706 C 66.2824 -0.292108 2.00685 0
M  V30 707 C 66.6154 -1.52548 1.20177 0
M  V30 708 O 65.8904 -1.92452 0.281531 0
M  V30 709 C 66.1734 -0.635968 3.5444 0
M  V30 710 C 66.0264 0.607437 4.4568 0
M  V30 711 C 67.3454 -1.45747 4.15266 0
M  V30 712 H 64.4644 -0.104697 0.729526 0
M  V30 713 H 67.1064 0.428457 1.85106 0
M  V30 714 H 65.2564 -1.24986 3.67846 0
M  V30 715 H 66.9284 1.24581 4.44159 0
M  V30 716 H 65.1714 1.23822 4.15753 0
M  V30 717 H 65.8424 0.322515 5.51057 0
M  V30 718 H 68.3184 -0.938645 4.05375 0
M  V30 719 H 67.1944 -1.66683 5.2298 0
M  V30 720 H 67.4554 -2.45063 3.67963 0
M  V30 721 N 66.5145 -1.57545 0.0417849 0
M  V30 722 C 67.4775 -2.09885 -0.92093 0
M  V30 723 C 68.4775 -1.01648 -1.24596 0
M  V30 724 O 69.6675 -1.27759 -1.1842 0
M  V30 725 C 66.7995 -2.57527 -2.23367 0
M  V30 726 H 67.9925 -2.96236 -0.467382 0
M  V30 727 H 65.5455 -1.5493 -0.206467 0
M  V30 728 H 66.2805 -1.74542 -2.73323 0
M  V30 729 H 66.0655 -3.36613 -2.01083 0
M  V30 730 H 67.5555 -2.98201 -2.92346 0
M  V30 731 N 67.9926 0.231505 -1.5589 0
M  V30 732 C 68.9226 1.29022 -1.94617 0
M  V30 733 C 69.9036 1.4941 -0.813067 0
M  V30 734 O 71.0886 1.6176 -1.07459 0
M  V30 735 C 68.2186 2.64199 -2.25424 0
M  V30 736 C 67.1726 2.58484 -3.41131 0
M  V30 737 C 66.4986 3.97599 -3.57518 0
M  V30 738 C 67.7986 2.1413 -4.76388 0
M  V30 739 H 69.4926 0.968563 -2.83301 0
M  V30 740 H 67.0386 0.464479 -1.36303 0
M  V30 741 H 68.9916 3.38413 -2.51107 0
M  V30 742 H 67.7156 2.98032 -1.33583 0
M  V30 743 H 66.3746 1.86727 -3.15481 0
M  V30 744 H 66.0226 4.28723 -2.6307 0
M  V30 745 H 65.7226 3.94659 -4.35337 0
M  V30 746 H 67.2466 4.7349 -3.85538 0
M  V30 747 H 68.6606 2.78083 -5.01341 0
M  V30 748 H 67.0576 2.2227 -5.57419 0
M  V30 749 H 68.1276 1.09331 -4.72414 0
M  V30 750 N 69.4707 1.49531 0.497807 0
M  V30 751 C 70.4177 1.66436 1.59899 0
M  V30 752 C 71.3877 0.505793 1.58212 0
M  V30 753 O 72.5727 0.733202 1.7615 0
M  V30 754 C 69.7127 1.7399 2.98029 0
M  V30 755 C 68.8257 3.01172 3.09708 0
M  V30 756 C 67.9607 2.99686 4.38591 0
M  V30 757 C 66.9997 4.21434 4.43914 0
M  V30 758 N 66.1367 4.1784 5.64229 0
M  V30 759 H 70.9767 2.60459 1.44793 0
M  V30 760 H 68.5137 1.29137 0.704423 0
M  V30 761 H 70.4717 1.76352 3.78095 0
M  V30 762 H 69.1017 0.834301 3.11832 0
M  V30 763 H 68.1537 3.08408 2.22685 0
M  V30 764 H 69.4657 3.91165 3.09502 0
M  V30 765 H 68.6197 3.00628 5.2698 0
M  V30 766 H 67.3587 2.07477 4.41367 0
M  V30 767 H 66.3637 4.20733 3.53926 0
M  V30 768 H 67.5887 5.14839 4.42851 0
M  V30 769 H 65.5347 3.28469 5.67841 0
M  V30 770 H 65.4517 5.01571 5.65652 0
M  V30 771 H 66.7197 4.22889 6.54817 0
M  V30 772 N 70.9488 -0.749086 1.3866 0
M  V30 773 C 71.8958 -1.86291 1.36251 0
M  V30 774 C 72.8658 -1.64578 0.224347 0
M  V30 775 O 74.0508 -1.86181 0.417279 0
M  V30 776 C 71.1908 -3.23644 1.19786 0
M  V30 777 C 70.3038 -3.57158 2.43027 0
M  V30 778 C 69.4388 -4.83838 2.19258 0
M  V30 779 C 68.4778 -5.10152 3.38247 0
M  V30 780 N 67.6148 -6.28029 3.13884 0
M  V30 781 H 72.4548 -1.87685 2.3147 0
M  V30 782 H 69.9918 -0.917287 1.14997 0
M  V30 783 H 71.9498 -4.0291 1.08254 0
M  V30 784 H 70.5798 -3.21566 0.282031 0
M  V30 785 H 69.6318 -2.72701 2.65214 0
M  V30 786 H 70.9438 -3.7253 3.31697 0
M  V30 787 H 70.0978 -5.71057 2.04888 0
M  V30 788 H 68.8368 -4.70614 1.2796 0
M  V30 789 H 67.8418 -4.21401 3.53131 0
M  V30 790 H 69.0668 -5.25271 4.30427 0
M  V30 791 H 67.0128 -6.1612 2.25238 0
M  V30 792 H 66.9298 -6.43922 3.96106 0
M  V30 793 H 68.1978 -7.18124 3.03179 0
M  V30 794 N 72.4269 -1.23603 -0.977757 0
M  V30 795 C 73.6729 -1.07129 -1.72195 0
M  V30 796 C 74.0059 0.390501 -1.90233 0
M  V30 797 O 73.2809 1.28902 -1.45653 0
M  V30 798 C 73.5639 -1.80031 -3.11867 0
M  V30 799 C 73.4169 -3.33899 -3.01383 0
M  V30 800 C 74.7359 -1.56492 -4.11337 0
M  V30 801 H 71.8549 -0.390571 -0.624999 0
M  V30 802 H 74.4969 -1.52142 -1.13811 0
M  V30 803 H 72.6469 -1.41768 -3.6171 0
M  V30 804 H 74.3189 -3.81699 -2.59043 0
M  V30 805 H 72.5619 -3.62796 -2.37827 0
M  V30 806 H 73.2329 -3.801 -4.00285 0
M  V30 807 H 75.7089 -1.89757 -3.70313 0
M  V30 808 H 74.5849 -2.09973 -5.07151 0
M  V30 809 H 74.8459 -0.500874 -4.39254 0
M  V30 810 N 73.905 1.17692 -1.04816 0
M  V30 811 C 74.835 2.23777 -0.666791 0
M  V30 812 C 75.816 1.66796 0.33361 0
M  V30 813 O 77.001 1.93039 0.212042 0
M  V30 814 C 74.131 3.47281 -0.0367933 0
M  V30 815 C 73.085 4.17059 -0.961546 0
M  V30 816 C 72.411 5.34342 -0.195626 0
M  V30 817 C 73.711 4.69713 -2.28402 0
M  V30 818 H 75.405 2.55933 -1.55367 0
M  V30 819 H 72.951 1.23019 -0.748484 0
M  V30 820 H 74.904 4.20706 0.241775 0
M  V30 821 H 73.628 3.14381 0.885004 0
M  V30 822 H 72.287 3.45541 -1.22462 0
M  V30 823 H 71.935 4.97692 0.728816 0
M  V30 824 H 71.635 5.81966 -0.811775 0
M  V30 825 H 73.159 6.10553 0.0757473 0
M  V30 826 H 74.573 5.34794 -2.06563 0
M  V30 827 H 72.97 5.279 -2.8538 0
M  V30 828 H 74.04 3.86726 -2.92525 0
M  V30 829 N 75.3831 0.828654 1.34056 0
M  V30 830 C 76.3161 0.199763 2.27324 0
M  V30 831 C 77.2941 -0.647168 1.49166 0
M  V30 832 O 78.4781 -0.609661 1.78369 0
M  V30 833 C 75.6051 -0.720455 3.30949 0
M  V30 834 C 74.6511 0.0496888 4.26471 0
M  V30 835 S 75.4841 1.40072 5.16856 0
M  V30 836 C 76.6401 0.485527 6.24014 0
M  V30 837 H 76.8731 0.990478 2.80316 0
M  V30 838 H 74.4061 0.624857 1.41191 0
M  V30 839 H 76.3641 -1.24581 3.91139 0
M  V30 840 H 75.0251 -1.48474 2.76793 0
M  V30 841 H 74.2181 -0.650104 4.9979 0
M  V30 842 H 73.8201 0.505779 3.70564 0
M  V30 843 H 76.1121 -0.320672 6.76741 0
M  V30 844 H 77.0551 1.18856 6.98054 0
M  V30 845 H 77.4631 0.0714109 5.64455 0
M  V30 846 N 76.8612 -1.46375 0.584142 0
M  V30 847 C 77.7712 -2.34115 -0.150728 0
M  V30 848 C 78.7872 -1.49838 -0.884567 0
M  V30 849 O 79.9632 -1.82704 -0.847429 0
M  V30 850 C 77.0282 -3.2705 -1.15062 0
M  V30 851 C 76.0892 -4.27228 -0.421293 0
M  V30 852 C 75.3222 -5.15722 -1.37355 0
M  V30 853 O 75.5452 -5.07176 -2.61014 0
M  V30 854 O 74.4792 -5.95383 -0.883355 0
M  V30 855 H 78.3052 -2.98309 0.569708 0
M  V30 856 H 75.8902 -1.45373 0.344535 0
M  V30 857 H 77.7722 -3.84381 -1.72712 0
M  V30 858 H 76.4472 -2.65451 -1.8525 0
M  V30 859 H 75.3542 -3.7358 0.197085 0
M  V30 860 H 76.6872 -4.91616 0.239641 0
M  V30 861 N 78.3393 -0.321999 -1.54275 0
M  V30 862 C 79.2873 0.560206 -2.25753 0
M  V30 863 C 80.2813 1.11984 -1.27106 0
M  V30 864 O 81.4873 1.06806 -1.44888 0
M  V30 865 H 77.8623 0.199304 -0.725108 0
M  V30 866 H 79.8333 -0.0649365 -2.98329 0
M  V30 867 C 78.5823 1.71023 -3.02731 0
M  V30 868 H 77.9053 1.28885 -3.78456 0
M  V30 869 H 79.3453 2.30314 -3.55993 0
M  V30 870 C 77.8043 2.62692 -2.10938 0
M  V30 871 O 78.3343 3.64364 -1.6912 0
M  V30 872 N 76.5403 2.30891 -1.76459 0
M  V30 873 H 76.0873 1.48253 -2.10663 0
M  V30 874 H 76.0453 2.92487 -1.1532 0
M  V30 875 N 79.8174 1.5752 -0.0501392 0
M  V30 876 C 80.7274 2.14952 0.939827 0
M  V30 877 C 81.7434 1.10706 1.34239 0
M  V30 878 O 82.9194 1.42869 1.41952 0
M  V30 879 C 79.9844 2.68232 2.19665 0
M  V30 880 C 79.0454 3.87272 1.85253 0
M  V30 881 C 78.2784 4.38002 3.04943 0
M  V30 882 O 78.5014 3.87811 4.18281 0
M  V30 883 O 77.4354 5.29602 2.86017 0
M  V30 884 H 81.2614 2.9986 0.481392 0
M  V30 885 H 78.8464 1.4841 0.171699 0
M  V30 886 H 80.7284 3.02475 2.93406 0
M  V30 887 H 79.4034 1.86395 2.64648 0
M  V30 888 H 78.3104 3.5792 1.0883 0
M  V30 889 H 79.6434 4.70336 1.4507 0
M  V30 890 N 81.2955 -0.223234 1.56011 0
M  V30 891 C 82.2425 -1.27664 1.92277 0
M  V30 892 C 83.2125 -1.46659 0.779763 0
M  V30 893 O 84.3975 -1.60256 1.03551 0
M  V30 894 C 81.5375 -2.62234 2.24338 0
M  V30 895 C 80.6505 -2.51051 3.51564 0
M  V30 896 C 79.7855 -3.78133 3.7308 0
M  V30 897 C 78.8245 -3.61665 4.93827 0
M  V30 898 N 77.9615 -4.80693 5.11741 0
M  V30 899 H 82.8015 -0.960358 2.82101 0
M  V30 900 H 80.3385 -0.462901 1.39627 0
M  V30 901 H 82.2965 -3.40596 2.40936 0
M  V30 902 H 80.9265 -2.91961 1.3769 0
M  V30 903 H 79.9785 -1.64132 3.43169 0
M  V30 904 H 81.2905 -2.34803 4.40079 0
M  V30 905 H 80.4445 -4.64938 3.89766 0
M  V30 906 H 79.1835 -3.97304 2.82844 0
M  V30 907 H 78.1885 -2.73244 4.77093 0
M  V30 908 H 79.4135 -3.43966 5.85546 0
M  V30 909 H 77.3595 -5.00181 4.24446 0
M  V30 910 H 77.2765 -4.67165 5.94384 0
M  V30 911 H 78.5445 -5.6893 5.3286 0
M  V30 912 N 82.7736 -1.49793 -0.48987 0
M  V30 913 C 83.6836 -1.70036 -1.61632 0
M  V30 914 C 84.6996 -0.583102 -1.63939 0
M  V30 915 O 85.8756 -0.859169 -1.82154 0
M  V30 916 C 82.9406 -1.77277 -2.97949 0
M  V30 917 C 82.0016 -3.00918 -3.06181 0
M  V30 918 C 81.2346 -3.07804 -4.35996 0
M  V30 919 O 81.4576 -2.21982 -5.25433 0
M  V30 920 O 80.3916 -4.00369 -4.49431 0
M  V30 921 H 84.2176 -2.65486 -1.47482 0
M  V30 922 H 81.8026 -1.33666 -0.667362 0
M  V30 923 H 83.6846 -1.84329 -3.78947 0
M  V30 924 H 82.3596 -0.850076 -3.12339 0
M  V30 925 H 81.2666 -2.99377 -2.2433 0
M  V30 926 H 82.5996 -3.92704 -2.96723 0
M  V30 927 N 84.2517 0.741722 -1.39055 0
M  V30 928 C 85.4997 1.49818 -1.35643 0
M  V30 929 C 85.8207 1.94938 0.0491642 0
M  V30 930 O 85.0907 1.68505 0.999141 0
M  V30 931 H 83.6707 0.555755 -0.499144 0
M  V30 932 H 86.3327 0.880957 -1.73854 0
M  V30 933 H 85.4287 2.38348 -2.01486 0
M  V30 934 N 85.7298 1.2412 0.971189 0
M  V30 935 C 86.9768 1.07881 1.71371 0
M  V30 936 C 87.3048 -0.382901 1.90694 0
M  V30 937 O 86.5598 -1.29945 1.46331 0
M  V30 938 C 86.8588 1.75983 3.11071 0
M  V30 939 C 86.5248 3.25909 3.11599 0
M  V30 940 C 85.1868 3.66813 3.11451 0
M  V30 941 C 87.5388 4.21771 3.062 0
M  V30 942 C 84.8668 5.02021 3.03631 0
M  V30 943 C 87.2188 5.56982 2.99923 0
M  V30 944 C 85.8828 5.97237 2.98102 0
M  V30 945 H 85.1528 0.394764 0.62709 0
M  V30 946 H 87.7998 1.54176 1.13587 0
M  V30 947 H 86.1048 1.22072 3.72298 0
M  V30 948 H 87.8018 1.60887 3.6731 0
M  V30 949 H 84.3918 2.93353 3.12477 0
M  V30 950 H 88.5758 3.91172 3.05447 0
M  V30 951 H 83.8318 5.32411 3.0058 0
M  V30 952 H 88.0058 6.30969 2.94704 0
M  V30 953 H 85.6328 7.01967 2.91798 0
M  V30 954 N 87.2079 -1.17134 1.05439 0
M  V30 955 C 88.6189 -1.69084 0.791676 0
M  V30 956 C 88.9699 -1.83822 -0.685839 0
M  V30 957 O 88.0949 -1.52757 -1.53278 0
M  V30 958 C 88.6899 -3.07119 1.4305 0
M  V30 959 C 87.2489 -3.56225 1.21577 0
M  V30 960 C 86.3959 -2.32421 1.51247 0
M  V30 961 H 89.3469 -1.01617 1.219 0
M  V30 962 H 89.3679 -3.71087 0.84112 0
M  V30 963 H 88.8799 -2.9636 2.50584 0
M  V30 964 H 86.9809 -3.72257 0.159787 0
M  V30 965 H 87.0939 -4.38837 1.92246 0
M  V30 966 H 85.4579 -2.3701 0.932653 0
M  V30 967 H 86.2409 -2.24268 2.5992 0
M  V30 968 N 88.686 -0.835752 -1.33615 0
M  V30 969 C 89.935 -0.426289 -1.97144 0
M  V30 970 C 90.248 1.01912 -1.66953 0
M  V30 971 O 91.454 1.53311 -2.24072 0
M  V30 972 C 89.91 -0.711321 -3.52801 0
M  V30 973 C 89.518 -2.1712 -3.91871 0
M  V30 974 C 91.262 -0.368654 -4.22896 0
M  V30 975 C 89.169 -2.40044 -5.40493 0
M  V30 976 H 88.099 -0.15567 -0.737755 0
M  V30 977 H 90.75 -1.0239 -1.52278 0
M  V30 978 H 89.132 -0.0433766 -3.95976 0
M  V30 979 H 90.306 -2.87936 -3.59763 0
M  V30 980 H 88.621 -2.47654 -3.34749 0
M  V30 981 H 91.218 -0.517601 -5.32189 0
M  V30 982 H 91.561 0.688078 -4.10574 0
M  V30 983 H 92.094 -0.991702 -3.8524 0
M  V30 984 H 88.833 -3.44271 -5.57815 0
M  V30 985 H 88.353 -1.73785 -5.74072 0
M  V30 986 H 90.032 -2.23042 -6.0734 0
M  V30 987 N 90.1641 1.46063 -0.591896 0
M  V30 988 C 91.3921 2.06717 -0.0868936 0
M  V30 989 C 91.8071 1.43916 1.22203 0
M  V30 990 O 91.1641 0.547698 1.74088 0
M  V30 991 C 91.2151 3.6142 0.0758725 0
M  V30 992 O 90.9361 4.21874 -1.18126 0
M  V30 993 C 92.4371 4.39025 0.61416 0
M  V30 994 H 89.6571 0.668162 -0.0616518 0
M  V30 995 H 92.2011 1.8755 -0.815175 0
M  V30 996 H 90.3561 3.79983 0.754413 0
M  V30 997 H 90.7701 5.14861 -1.00092 0
M  V30 998 H 92.2441 5.4783 0.677193 0
M  V30 999 H 92.7211 4.07708 1.63312 0
M  V30 1000 H 93.3271 4.2529 -0.0298142 0
M  V30 1001 N 91.6422 0.330177 1.54103 0
M  V30 1002 C 92.6052 -0.520144 2.2322 0
M  V30 1003 C 93.6052 -1.03828 1.22786 0
M  V30 1004 O 94.7952 -0.929652 1.4732 0
M  V30 1005 C 91.9272 -1.72317 2.94142 0
M  V30 1006 H 93.1202 0.0841605 2.99782 0
M  V30 1007 H 90.6732 0.0813433 1.56088 0
M  V30 1008 H 91.4082 -2.36653 2.21734 0
M  V30 1009 H 91.1932 -1.35898 3.67796 0
M  V30 1010 H 92.6832 -2.3266 3.46784 0
M  V30 1011 N 93.1203 -1.57491 0.0584922 0
M  V30 1012 C 94.0503 -2.14988 -0.911178 0
M  V30 1013 C 95.0313 -1.07343 -1.31952 0
M  V30 1014 O 96.2163 -1.35318 -1.39294 0
M  V30 1015 C 93.3463 -2.70078 -2.18347 0
M  V30 1016 C 92.3003 -3.82771 -1.91495 0
M  V30 1017 C 91.6263 -4.24408 -3.25241 0
M  V30 1018 C 92.9263 -5.07592 -1.23075 0
M  V30 1019 H 94.6203 -2.96263 -0.432246 0
M  V30 1020 H 92.1663 -1.42512 -0.206469 0
M  V30 1021 H 94.1193 -3.08943 -2.86587 0
M  V30 1022 H 92.8433 -1.86005 -2.68458 0
M  V30 1023 H 91.5023 -3.44389 -1.25664 0
M  V30 1024 H 91.1503 -3.37275 -3.73168 0
M  V30 1025 H 90.8503 -5.00366 -3.08071 0
M  V30 1026 H 92.3743 -4.65879 -3.94701 0
M  V30 1027 H 93.7883 -5.43857 -1.81362 0
M  V30 1028 H 92.1853 -5.88741 -1.16207 0
M  V30 1029 H 93.2553 -4.84454 -0.207847 0
M  V30 1030 N 94.5984 0.214957 -1.56127 0
M  V30 1031 C 96.0144 0.564948 -1.49267 0
M  V30 1032 C 96.2144 1.86827 -0.754838 0
M  V30 1033 O 95.2704 2.50745 -0.297198 0
M  V30 1034 C 96.5834 0.638071 -2.93852 0
M  V30 1035 C 98.1314 0.728253 -3.0441 0
M  V30 1036 C 98.6064 0.832663 -4.50367 0
M  V30 1037 N 100.097 0.896712 -4.54437 0
M  V30 1038 C 100.832 0.997324 -5.6466 0
M  V30 1039 N 100.328 1.06147 -6.8462 0
M  V30 1040 N 102.121 1.03297 -5.52527 0
M  V30 1041 H 94.2724 -0.640211 -2.02522 0
M  V30 1042 H 96.5354 -0.225507 -0.920788 0
M  V30 1043 H 96.2414 -0.250126 -3.50809 0
M  V30 1044 H 96.1154 1.49947 -3.46115 0
M  V30 1045 H 98.5024 1.60689 -2.47514 0
M  V30 1046 H 98.5834 -0.158952 -2.55306 0
M  V30 1047 H 98.2274 -0.0415417 -5.07883 0
M  V30 1048 H 98.1574 1.73538 -4.97184 0
M  V30 1049 H 100.648 0.857188 -3.6805 0
M  V30 1050 H 100.961 1.1382 -7.64372 0
M  V30 1051 H 99.3064 1.03049 -6.87318 0
M  V30 1052 H 102.497 0.979558 -4.57736 0
M  V30 1053 H 102.67 1.10793 -6.38458 0
M  V30 1054 N 96.0765 1.50051 0.48192 0
M  V30 1055 C 96.9865 1.7089 1.60728 0
M  V30 1056 C 98.0025 0.591788 1.63627 0
M  V30 1057 O 99.1785 0.868817 1.81696 0
M  V30 1058 C 96.2435 1.78855 2.97005 0
M  V30 1059 C 95.3045 3.02537 3.04581 0
M  V30 1060 C 94.5375 3.10112 4.34357 0
M  V30 1061 O 94.7605 2.24765 5.24249 0
M  V30 1062 O 93.6945 4.02747 4.47301 0
M  V30 1063 H 97.5205 2.66264 1.46072 0
M  V30 1064 H 95.1055 1.34018 0.660264 0
M  V30 1065 H 96.9875 1.86336 3.77964 0
M  V30 1066 H 95.6625 0.866628 3.11883 0
M  V30 1067 H 94.5695 3.00563 2.22739 0
M  V30 1068 H 95.9025 3.94272 2.94636 0
M  V30 1069 N 97.5546 -0.734337 1.39446 0
M  V30 1070 C 98.8036 -1.48937 1.36017 0
M  V30 1071 C 99.1166 -1.95557 -0.0409005 0
M  V30 1072 O 100.323 -2.70779 -0.19778 0
M  V30 1073 C 98.7786 -2.69125 2.38955 0
M  V30 1074 C 98.3866 -2.29452 3.8478 0
M  V30 1075 C 100.131 -3.46944 2.44603 0
M  V30 1076 C 98.0376 -3.46366 4.79358 0
M  V30 1077 H 96.9676 -0.559296 0.505672 0
M  V30 1078 H 99.6186 -0.800983 1.65095 0
M  V30 1079 H 98.0006 -3.40041 2.02948 0
M  V30 1080 H 99.1746 -1.66077 4.29831 0
M  V30 1081 H 97.4896 -1.64723 3.82433 0
M  V30 1082 H 100.087 -4.33907 3.12456 0
M  V30 1083 H 100.43 -3.89454 1.47076 0
M  V30 1084 H 100.963 -2.83056 2.79507 0
M  V30 1085 H 97.7016 -3.08905 5.78151 0
M  V30 1086 H 97.2216 -4.08719 4.38986 0
M  V30 1087 H 98.9006 -4.12691 4.98292 0
M  V30 1088 N 99.0327 -1.24633 -0.964593 0
M  V30 1089 C 99.9797 -1.04144 -2.05968 0
M  V30 1090 C 100.95 0.046262 -1.66036 0
M  V30 1091 O 102.135 -0.108972 -1.90489 0
M  V30 1092 C 99.2747 -0.65563 -3.38815 0
M  V30 1093 C 98.3877 -1.81714 -3.91923 0
M  V30 1094 C 97.5227 -1.37662 -5.13052 0
M  V30 1095 C 96.5617 -2.50788 -5.58365 0
M  V30 1096 N 95.6987 -2.07582 -6.70712 0
M  V30 1097 H 100.539 -1.9787 -2.22827 0
M  V30 1098 H 98.0757 -0.9855 -1.09208 0
M  V30 1099 H 100.034 -0.412954 -4.15151 0
M  V30 1100 H 98.6637 0.244627 -3.21872 0
M  V30 1101 H 97.7157 -2.1734 -3.12198 0
M  V30 1102 H 99.0277 -2.66705 -4.21509 0
M  V30 1103 H 98.1817 -1.093 -5.96773 0
M  V30 1104 H 96.9207 -0.497293 -4.85158 0
M  V30 1105 H 95.9257 -2.79906 -4.73215 0
M  V30 1106 H 97.1507 -3.39283 -5.88272 0
M  V30 1107 H 95.0967 -1.22051 -6.44546 0
M  V30 1108 H 95.0137 -2.86125 -6.99763 0
M  V30 1109 H 96.2817 -1.82369 -7.57867 0
M  V30 1110 N 100.511 1.16574 -1.06058 0
M  V30 1111 C 101.76 1.86385 -0.770944 0
M  V30 1112 C 102.073 1.82448 0.705129 0
M  V30 1113 O 103.279 2.47815 1.10905 0
M  V30 1114 C 101.735 3.34466 -1.32893 0
M  V30 1115 C 101.343 3.46883 -2.83507 0
M  V30 1116 C 103.087 4.09548 -1.11672 0
M  V30 1117 C 100.994 4.89036 -3.32562 0
M  V30 1118 H 99.9238 0.698181 -0.284709 0
M  V30 1119 H 102.575 1.31583 -1.27899 0
M  V30 1120 H 100.957 3.88859 -0.748662 0
M  V30 1121 H 102.131 3.02663 -3.47465 0
M  V30 1122 H 100.446 2.85232 -3.03368 0
M  V30 1123 H 103.043 5.14434 -1.45814 0
M  V30 1124 H 103.386 4.16264 -0.0549535 0
M  V30 1125 H 103.919 3.61387 -1.66265 0
M  V30 1126 H 100.658 4.87499 -4.38207 0
M  V30 1127 H 100.178 5.3389 -2.73351 0
M  V30 1128 H 101.857 5.57843 -3.2775 0
M  V30 1129 N 101.989 0.842826 1.3317 0
M  V30 1130 C 102.919 0.294028 2.31641 0
M  V30 1131 C 103.9 -0.600401 1.59151 0
M  V30 1132 O 105.085 -0.523124 1.87022 0
M  V30 1133 C 102.215 -0.528416 3.43257 0
M  V30 1134 C 101.169 0.27056 4.27144 0
M  V30 1135 C 100.495 -0.675881 5.30411 0
M  V30 1136 C 101.795 1.48981 5.00602 0
M  V30 1137 H 103.489 1.11681 2.77791 0
M  V30 1138 H 101.035 0.538478 1.33553 0
M  V30 1139 H 102.988 -0.922674 4.11175 0
M  V30 1140 H 101.712 -1.38445 2.95805 0
M  V30 1141 H 100.371 0.646427 3.60856 0
M  V30 1142 H 100.019 -1.52842 4.79216 0
M  V30 1143 H 99.7189 -0.145374 5.8742 0
M  V30 1144 H 101.243 -1.06757 6.01195 0
M  V30 1145 H 102.657 1.16849 5.61266 0
M  V30 1146 H 101.054 1.95739 5.6728 0
M  V30 1147 H 102.124 2.25746 4.29147 0
M  V30 1148 N 103.467 -1.45747 0.599634 0
M  V30 1149 C 104.399 -2.28628 -0.161879 0
M  V30 1150 C 105.412 -1.39494 -0.839367 0
M  V30 1151 O 106.601 -1.63941 -0.706089 0
M  V30 1152 C 103.701 -3.15014 -1.24976 0
M  V30 1153 C 102.874 -4.32378 -0.660935 0
M  V30 1154 C 101.933 -5.00033 -1.63869 0
M  V30 1155 O 100.959 -5.57085 -1.1681 0
M  V30 1156 N 102.161 -4.98589 -2.97303 0
M  V30 1157 H 104.926 -2.94624 0.549265 0
M  V30 1158 H 102.487 -1.55847 0.438565 0
M  V30 1159 H 104.479 -3.5714 -1.9035 0
M  V30 1160 H 103.049 -2.5098 -1.86354 0
M  V30 1161 H 102.269 -3.9383 0.170688 0
M  V30 1162 H 103.557 -5.08197 -0.247619 0
M  V30 1163 H 102.955 -4.53514 -3.38145 0
M  V30 1164 H 101.512 -5.44603 -3.58121 0
M  V30 1165 N 104.945 -0.338344 -1.53925 0
M  V30 1166 C 105.875 0.51328 -2.27789 0
M  V30 1167 C 106.856 1.107 -1.29149 0
M  V30 1168 O 108.041 1.12937 -1.57984 0
M  V30 1169 C 105.171 1.66697 -3.04679 0
M  V30 1170 C 104.125 1.20183 -4.1078 0
M  V30 1171 C 103.451 2.44363 -4.75595 0
M  V30 1172 C 104.751 0.30605 -5.21403 0
M  V30 1173 H 106.445 -0.102883 -2.99223 0
M  V30 1174 H 103.991 -0.0509219 -1.4391 0
M  V30 1175 H 105.944 2.26915 -3.55088 0
M  V30 1176 H 104.668 2.30995 -2.30887 0
M  V30 1177 H 103.327 0.622499 -3.61276 0
M  V30 1178 H 102.975 3.07057 -3.98403 0
M  V30 1179 H 102.675 2.13925 -5.47275 0
M  V30 1180 H 104.199 3.05317 -5.28786 0
M  V30 1181 H 105.613 0.814929 -5.67478 0
M  V30 1182 H 104.01 0.0937929 -6.00027 0
M  V30 1183 H 105.08 -0.65921 -4.80398 0
M  V30 1184 N 106.423 1.57458 -0.0668435 0
M  V30 1185 C 107.353 2.15468 0.899764 0
M  V30 1186 C 108.334 1.08042 1.31381 0
M  V30 1187 O 109.519 1.36054 1.38574 0
M  V30 1188 C 106.649 2.71232 2.16911 0
M  V30 1189 C 105.603 3.83781 1.89463 0
M  V30 1190 C 104.929 4.26127 3.22986 0
M  V30 1191 C 106.229 5.08238 1.20381 0
M  V30 1192 H 107.923 2.96488 0.416529 0
M  V30 1193 H 105.469 1.4262 0.198908 0
M  V30 1194 H 107.422 3.10458 2.84945 0
M  V30 1195 H 106.146 1.87426 2.67468 0
M  V30 1196 H 104.805 3.45051 1.23836 0
M  V30 1197 H 104.453 3.39249 3.71374 0
M  V30 1198 H 104.153 5.01993 3.05413 0
M  V30 1199 H 105.677 4.67966 3.92225 0
M  V30 1200 H 107.091 5.44811 1.78475 0
M  V30 1201 H 105.488 5.89349 1.13083 0
M  V30 1202 H 106.558 4.84558 0.182153 0
M  V30 1203 N 107.901 -0.206675 1.56239 0
M  V30 1204 C 108.848 -1.25617 1.93621 0
M  V30 1205 C 109.818 -1.45824 0.795274 0
M  V30 1206 O 111.003 -1.59148 1.05245 0
M  V30 1207 C 108.143 -2.59839 2.27107 0
M  V30 1208 C 107.256 -2.47308 3.54207 0
M  V30 1209 C 106.391 -3.74155 3.7707 0
M  V30 1210 C 105.43 -3.56407 4.97635 0
M  V30 1211 N 104.567 -4.75238 5.1681 0
M  V30 1212 H 109.407 -0.930383 2.83104 0
M  V30 1213 H 106.944 -0.448065 1.4011 0
M  V30 1214 H 108.902 -3.38021 2.44535 0
M  V30 1215 H 107.532 -2.90485 1.40778 0
M  V30 1216 H 106.584 -1.60483 3.4489 0
M  V30 1217 H 107.896 -2.30122 4.42544 0
M  V30 1218 H 107.05 -4.60778 3.94675 0
M  V30 1219 H 105.789 -3.94282 2.87042 0
M  V30 1220 H 104.794 -2.68168 4.79964 0
M  V30 1221 H 106.019 -3.37736 5.89161 0
M  V30 1222 H 103.965 -4.95651 4.29728 0
M  V30 1223 H 103.882 -4.60835 5.99306 0
M  V30 1224 H 105.15 -5.63246 5.38864 0
M  V30 1225 N 109.379 -1.50304 -0.473955 0
M  V30 1226 C 110.329 -1.65347 -1.56985 0
M  V30 1227 C 111.313 -0.508176 -1.52664 0
M  V30 1228 O 112.505 -0.762446 -1.59737 0
M  V30 1229 C 109.634 -1.74832 -2.95447 0
M  V30 1230 C 108.72 -2.95028 -3.04662 0
M  V30 1231 N 109.111 -4.18747 -2.83698 0
M  V30 1232 C 107.409 -2.93527 -3.35795 0
M  V30 1233 C 108.11 -4.99687 -2.97805 0
M  V30 1234 N 107.086 -4.33585 -3.2788 0
M  V30 1235 H 110.888 -2.58698 -1.39472 0
M  V30 1236 H 108.402 -1.47449 -0.680629 0
M  V30 1237 H 110.399 -1.83712 -3.7424 0
M  V30 1238 H 109.059 -0.826376 -3.14008 0
M  V30 1239 H 110.07 -4.48291 -2.59337 0
M  V30 1240 H 106.747 -2.10821 -3.60362 0
M  V30 1241 H 108.137 -6.08057 -2.85861 0
M  V30 1242 N 110.857 0.726932 -1.39834 0
M  V30 1243 C 111.767 1.87131 -1.41489 0
M  V30 1244 C 112.783 1.71239 -0.308757 0
M  V30 1245 O 113.959 1.93701 -0.551529 0
M  V30 1246 C 111.024 3.22811 -1.26468 0
M  V30 1247 C 110.085 3.51039 -2.47124 0
M  V30 1248 C 109.318 4.80245 -2.3281 0
M  V30 1249 O 109.541 5.54537 -1.33585 0
M  V30 1250 O 108.475 5.08554 -3.21957 0
M  V30 1251 H 112.301 1.8869 -2.3797 0
M  V30 1252 H 109.886 0.875837 -1.21035 0
M  V30 1253 H 111.768 4.03877 -1.20255 0
M  V30 1254 H 110.443 3.22005 -0.330862 0
M  V30 1255 H 109.35 2.70027 -2.58914 0
M  V30 1256 H 110.683 3.56632 -3.39227 0
M  V30 1257 N 112.336 1.25143 0.95797 0
M  V30 1258 C 113.284 1.05019 2.07542 0
M  V30 1259 C 114.278 -0.0178751 1.69391 0
M  V30 1260 O 115.484 0.137472 1.79474 0
M  V30 1261 H 111.859 0.32265 0.679265 0
M  V30 1262 H 113.83 1.99759 2.21673 0
M  V30 1263 C 112.579 0.682074 3.40944 0
M  V30 1264 H 111.902 1.49573 3.70767 0
M  V30 1265 H 113.342 0.580945 4.20001 0
M  V30 1266 C 111.801 -0.611608 3.31302 0
M  V30 1267 O 112.331 -1.65465 3.66038 0
M  V30 1268 N 110.537 -0.595982 2.84423 0
M  V30 1269 H 110.084 0.253192 2.56353 0
M  V30 1270 H 110.042 -1.46173 2.78354 0
M  V30 1271 N 113.814 -1.1601 1.06675 0
M  V30 1272 C 115.06 -1.86909 0.786945 0
M  V30 1273 C 115.393 -1.81717 -0.685018 0
M  V30 1274 O 114.668 -1.23551 -1.50218 0
M  V30 1275 C 114.951 -3.36313 1.28707 0
M  V30 1276 C 114.804 -3.50175 2.82308 0
M  V30 1277 C 116.123 -4.3084 0.898071 0
M  V30 1278 H 113.242 -0.678677 0.287343 0
M  V30 1279 H 115.884 -1.36336 1.32334 0
M  V30 1280 H 114.034 -3.79513 0.830768 0
M  V30 1281 H 115.706 -3.15886 3.36175 0
M  V30 1282 H 113.949 -2.91959 3.20847 0
M  V30 1283 H 114.62 -4.55116 3.12368 0
M  V30 1284 H 117.096 -3.95561 1.29114 0
M  V30 1285 H 115.972 -5.33876 1.27543 0
M  V30 1286 H 116.233 -4.41662 -0.196651 0
M  V30 1287 N 115.292 -0.849877 -1.32721 0
M  V30 1288 C 116.538 -0.451591 -1.97708 0
M  V30 1289 C 116.871 0.989175 -1.6712 0
M  V30 1290 O 116.146 1.69334 -0.956891 0
M  V30 1291 C 116.429 -0.685598 -3.53513 0
M  V30 1292 C 116.282 -2.17444 -3.93749 0
M  V30 1293 C 117.601 -0.138874 -4.39881 0
M  V30 1294 H 114.72 -0.16555 -0.718166 0
M  V30 1295 H 117.362 -1.06742 -1.57182 0
M  V30 1296 H 115.512 -0.161416 -3.88165 0
M  V30 1297 H 117.184 -2.76433 -3.693 0
M  V30 1298 H 115.427 -2.65476 -3.43081 0
M  V30 1299 H 116.098 -2.28888 -5.02309 0
M  V30 1300 H 118.574 -0.587068 -4.11938 0
M  V30 1301 H 117.45 -0.332213 -5.47894 0
M  V30 1302 H 117.711 0.95806 -4.31594 0
M  V30 1303 N 116.77 1.45427 -0.607355 0
M  V30 1304 C 117.718 2.32269 0.12411 0
M  V30 1305 C 118.712 1.45955 0.859854 0
M  V30 1306 O 119.918 1.6244 0.775447 0
M  V30 1307 H 116.293 0.749691 0.0588839 0
M  V30 1308 H 118.264 2.91743 -0.626762 0
M  V30 1309 C 117.013 3.29567 1.1082 0
M  V30 1310 H 116.336 3.95978 0.551492 0
M  V30 1311 H 117.776 3.93061 1.58995 0
M  V30 1312 C 116.235 2.56722 2.18164 0
M  V30 1313 O 116.765 2.34842 3.25902 0
M  V30 1314 N 114.971 2.16861 1.93442 0
M  V30 1315 H 114.518 2.34855 1.05834 0
M  V30 1316 H 114.476 1.68444 2.65469 0
M  V30 1317 N 118.248 0.346503 1.53744 0
M  V30 1318 C 119.178 -0.501193 2.28058 0
M  V30 1319 C 120.159 -1.10014 1.29734 0
M  V30 1320 O 121.344 -1.12097 1.58581 0
M  V30 1321 C 118.474 -1.65078 3.05559 0
M  V30 1322 C 117.428 -1.18003 4.11411 0
M  V30 1323 C 116.754 -2.41837 4.76884 0
M  V30 1324 C 118.054 -0.278394 5.21558 0
M  V30 1325 H 119.748 0.11875 2.99164 0
M  V30 1326 H 117.294 0.0585531 1.43881 0
M  V30 1327 H 119.247 -2.25028 3.56287 0
M  V30 1328 H 117.971 -2.29767 2.32109 0
M  V30 1329 H 116.63 -0.603331 3.61601 0
M  V30 1330 H 116.278 -3.0494 4.00026 0
M  V30 1331 H 115.978 -2.1102 5.48402 0
M  V30 1332 H 117.502 -3.02508 5.30397 0
M  V30 1333 H 118.916 -0.784823 5.67903 0
M  V30 1334 H 117.313 -0.0619707 6.00068 0
M  V30 1335 H 118.383 0.684677 4.80042 0
M  V30 1336 N 119.726 -1.57421 0.075193 0
M  V30 1337 C 120.975 -1.92794 -0.592731 0
M  V30 1338 C 121.288 -0.957478 -1.70563 0
M  V30 1339 O 122.494 -1.20417 -2.43335 0
M  V30 1340 C 120.95 -3.42495 -1.10569 0
M  V30 1341 C 120.558 -4.47994 -0.0236121 0
M  V30 1342 C 122.302 -3.86864 -1.74748 0
M  V30 1343 C 120.209 -5.88829 -0.550803 0
M  V30 1344 H 119.139 -0.719591 -0.225177 0
M  V30 1345 H 121.79 -1.82902 0.147978 0
M  V30 1346 H 120.172 -3.47471 -1.89947 0
M  V30 1347 H 121.346 -4.54637 0.751099 0
M  V30 1348 H 119.661 -4.13113 0.522159 0
M  V30 1349 H 122.258 -4.8947 -2.15229 0
M  V30 1350 H 122.601 -3.24417 -2.60882 0
M  V30 1351 H 123.134 -3.84504 -1.01986 0
M  V30 1352 H 119.873 -6.54929 0.273457 0
M  V30 1353 H 119.393 -5.85698 -1.29296 0
M  V30 1354 H 121.072 -6.38811 -1.02613 0
M  V30 1355 N 121.204 0.198386 -1.56346 0
M  V30 1356 C 122.114 1.2664 -1.97483 0
M  V30 1357 C 123.13 1.49989 -0.882002 0
M  V30 1358 O 124.306 1.62668 -1.18748 0
M  V30 1359 C 121.371 2.59141 -2.30319 0
M  V30 1360 C 120.432 2.43892 -3.53292 0
M  V30 1361 C 119.665 3.70074 -3.84553 0
M  V30 1362 O 119.888 4.74101 -3.1715 0
M  V30 1363 O 118.822 3.658 -4.7799 0
M  V30 1364 H 122.648 0.947304 -2.88548 0
M  V30 1365 H 120.233 0.403123 -1.43859 0
M  V30 1366 H 122.115 3.37352 -2.5253 0
M  V30 1367 H 120.79 2.90684 -1.42423 0
M  V30 1368 H 119.697 1.63803 -3.36332 0
M  V30 1369 H 121.03 2.17282 -4.41644 0
M  V30 1370 N 122.682 1.50554 0.465978 0
M  V30 1371 C 123.931 1.61038 1.21448 0
M  V30 1372 C 124.244 0.31865 1.92987 0
M  V30 1373 O 125.45 0.302469 2.6981 0
M  V30 1374 C 123.906 2.84283 2.20706 0
M  V30 1375 C 123.514 4.20352 1.54946 0
M  V30 1376 C 125.258 3.04115 2.96166 0
M  V30 1377 C 123.165 5.34778 2.5252 0
M  V30 1378 H 122.095 0.599718 0.457005 0
M  V30 1379 H 124.746 1.7699 0.484424 0
M  V30 1380 H 123.128 2.61901 2.97025 0
M  V30 1381 H 124.302 4.53008 0.843811 0
M  V30 1382 H 122.617 4.06167 0.917475 0
M  V30 1383 H 125.214 3.86774 3.69202 0
M  V30 1384 H 125.557 2.16045 3.55852 0
M  V30 1385 H 126.09 3.26702 2.26959 0
M  V30 1386 H 122.829 6.25018 1.97566 0
M  V30 1387 H 122.349 5.06534 3.21222 0
M  V30 1388 H 124.028 5.65561 3.14245 0
M  V30 1389 N 124.16 -0.719506 1.40217 0
M  V30 1390 C 125.4 -1.49181 1.39729 0
M  V30 1391 C 125.764 -1.92 -0.00250614 0
M  V30 1392 O 126.965 -2.68473 -0.132479 0
M  V30 1393 C 125.236 -2.68767 2.35582 0
M  V30 1394 S 126.795 -3.58224 2.53418 0
M  V30 1395 H 123.613 -0.510091 0.495307 0
M  V30 1396 H 126.215 -0.841724 1.76452 0
M  V30 1397 H 124.919 -2.35475 3.36124 0
M  V30 1398 H 124.45 -3.38691 2.0013 0
M  V30 1399 H 126.465 -4.63033 1.78367 0
M  V30 1400 N 125.638 -1.25649 -0.95132 0
M  V30 1401 C 127.054 -1.02542 -1.223 0
M  V30 1402 C 127.254 0.255715 -1.99871 0
M  V30 1403 O 126.31 0.967558 -2.33226 0
M  V30 1404 C 127.623 -2.25065 -1.99415 0
M  V30 1405 C 129.171 -2.29861 -2.12446 0
M  V30 1406 C 129.646 -3.52048 -2.92961 0
M  V30 1407 N 131.137 -3.52465 -3.00538 0
M  V30 1408 C 131.872 -4.43672 -3.63239 0
M  V30 1409 N 131.368 -5.45157 -4.27523 0
M  V30 1410 N 133.161 -4.31346 -3.60412 0
M  V30 1411 H 125.312 -2.07951 -0.432471 0
M  V30 1412 H 127.575 -0.91339 -0.253816 0
M  V30 1413 H 127.281 -3.18194 -1.49817 0
M  V30 1414 H 127.155 -2.28502 -3.00111 0
M  V30 1415 H 129.542 -1.37252 -2.61239 0
M  V30 1416 H 129.623 -2.3044 -1.11044 0
M  V30 1417 H 129.267 -4.44981 -2.44856 0
M  V30 1418 H 129.197 -3.48715 -3.94596 0
M  V30 1419 H 131.688 -2.79056 -2.54826 0
M  V30 1420 H 132.001 -6.10958 -4.73234 0
M  V30 1421 H 130.346 -5.49025 -4.26141 0
M  V30 1422 H 133.537 -3.51288 -3.09377 0
M  V30 1423 H 133.71 -5.02624 -4.0899 0
M  V30 1424 N 127.117 1.15442 -1.07289 0
M  V30 1425 C 128.345 1.90096 -0.81676 0
M  V30 1426 C 128.76 1.7798 0.629966 0
M  V30 1427 O 128.117 1.1313 1.43206 0
M  V30 1428 C 128.168 3.40466 -1.21512 0
M  V30 1429 O 127.889 3.52232 -2.60508 0
M  V30 1430 C 129.39 4.32145 -0.988198 0
M  V30 1431 H 126.61 0.602495 -0.295366 0
M  V30 1432 H 129.154 1.4627 -1.42918 0
M  V30 1433 H 127.309 3.81958 -0.647039 0
M  V30 1434 H 127.723 4.45549 -2.76742 0
M  V30 1435 H 129.197 5.36072 -1.31645 0
M  V30 1436 H 129.674 4.39135 0.0755063 0
M  V30 1437 H 130.28 3.96395 -1.54115 0
M  V30 1438 N 128.595 0.856903 1.32268 0
M  V30 1439 C 129.542 0.301172 2.28827 0
M  V30 1440 C 130.512 -0.593104 1.5515 0
M  V30 1441 O 131.697 -0.527537 1.83362 0
M  V30 1442 C 128.837 -0.502523 3.41422 0
M  V30 1443 C 127.95 0.417797 4.29975 0
M  V30 1444 C 127.085 -0.398749 5.29701 0
M  V30 1445 C 126.124 0.518827 6.09897 0
M  V30 1446 N 125.261 -0.260674 7.01616 0
M  V30 1447 H 130.101 1.12983 2.75751 0
M  V30 1448 H 127.638 0.568582 1.35667 0
M  V30 1449 H 129.596 -0.984141 4.05426 0
M  V30 1450 H 128.226 -1.29599 2.95642 0
M  V30 1451 H 127.278 1.01781 3.66531 0
M  V30 1452 H 128.59 1.12191 4.86019 0
M  V30 1453 H 127.744 -0.943435 5.9932 0
M  V30 1454 H 126.483 -1.13622 4.7428 0
M  V30 1455 H 125.488 1.07538 5.39181 0
M  V30 1456 H 126.713 1.25495 6.67404 0
M  V30 1457 H 124.659 -0.981198 6.4862 0
M  V30 1458 H 124.576 0.384364 7.55022 0
M  V30 1459 H 125.844 -0.787014 7.75517 0
M  V30 1460 N 130.073 -1.45103 0.615059 0
M  V30 1461 C 131.036 -2.29025 -0.0895485 0
M  V30 1462 C 132.036 -1.40174 -0.787906 0
M  V30 1463 O 133.226 -1.62217 -0.634933 0
M  V30 1464 C 130.358 -3.21376 -1.13711 0
M  V30 1465 H 131.551 -2.92807 0.648382 0
M  V30 1466 H 129.104 -1.51749 0.374444 0
M  V30 1467 H 129.839 -2.6241 -1.90556 0
M  V30 1468 H 129.624 -3.86834 -0.640475 0
M  V30 1469 H 131.114 -3.84459 -1.63036 0
M  V30 1470 N 131.551 -0.354651 -1.53558 0
M  V30 1471 C 132.776 0.242153 -2.05981 0
M  V30 1472 C 133.201 1.42553 -1.2272 0
M  V30 1473 O 132.559 1.79656 -0.243604 0
M  V30 1474 C 132.607 0.624367 -3.55154 0
M  V30 1475 O 131.711 1.72301 -3.74681 0
M  V30 1476 H 131.052 0.0378432 -0.662921 0
M  V30 1477 H 133.582 -0.512087 -1.98088 0
M  V30 1478 H 133.592 0.898433 -3.97985 0
M  V30 1479 H 132.267 -0.240989 -4.15201 0
M  V30 1480 H 130.844 1.44535 -3.4375 0
M  V30 1481 N 133.029 1.57378 -0.0835403 0
M  V30 1482 C 134.44 1.81261 0.447358 0
M  V30 1483 C 134.791 0.998331 1.68902 0
M  V30 1484 O 133.916 0.224282 2.15235 0
M  V30 1485 C 134.511 3.28767 0.818386 0
M  V30 1486 C 133.07 3.53455 1.29409 0
M  V30 1487 C 132.217 2.75831 0.285024 0
M  V30 1488 H 135.168 1.5566 -0.309115 0
M  V30 1489 H 135.189 3.41459 1.67887 0
M  V30 1490 H 134.701 3.88006 -0.0855019 0
M  V30 1491 H 132.802 2.99534 2.21608 0
M  V30 1492 H 132.915 4.62128 1.2639 0
M  V30 1493 H 131.279 2.42947 0.764767 0
M  V30 1494 H 132.062 3.37813 -0.611341 0
M  V30 1495 N 134.507 -0.190092 1.56449 0
M  V30 1496 C 135.737 -0.92443 1.84764 0
M  V30 1497 C 136.145 -1.77146 0.664529 0
M  V30 1498 O 135.488 -1.79812 -0.375957 0
M  V30 1499 C 135.55 -1.86651 3.07248 0
M  V30 1500 C 135.214 -1.20094 4.40938 0
M  V30 1501 C 136.211 -0.575445 5.16706 0
M  V30 1502 C 133.896 -1.2033 4.87674 0
M  V30 1503 C 135.89 0.0388111 6.37388 0
M  V30 1504 C 133.577 -0.585214 6.08291 0
M  V30 1505 C 134.575 0.0347578 6.82991 0
M  V30 1506 O 134.263 0.643147 8.01323 0
M  V30 1507 H 133.995 -0.274974 0.617548 0
M  V30 1508 H 136.549 -0.200788 2.04416 0
M  V30 1509 H 134.779 -2.62998 2.83494 0
M  V30 1510 H 136.468 -2.46907 3.22167 0
M  V30 1511 H 137.234 -0.565728 4.81689 0
M  V30 1512 H 133.113 -1.67526 4.29484 0
M  V30 1513 H 136.657 0.523329 6.95634 0
M  V30 1514 H 132.554 -0.592451 6.42775 0
M  V30 1515 H 133.322 0.540545 8.16713 0
M  V30 1516 N 135.985 -1.50799 -0.457987 0
M  V30 1517 C 136.933 -1.71162 -1.575 0
M  V30 1518 C 137.927 -0.577592 -1.59249 0
M  V30 1519 O 139.133 -0.758443 -1.63241 0
M  V30 1520 H 135.508 -0.540468 -0.522875 0
M  V30 1521 H 137.479 -2.64837 -1.37492 0
M  V30 1522 C 136.228 -1.83496 -2.95338 0
M  V30 1523 H 135.551 -2.70153 -2.94716 0
M  V30 1524 H 136.991 -2.01765 -3.72917 0
M  V30 1525 C 135.45 -0.589694 -3.31699 0
M  V30 1526 O 135.98 0.265163 -4.00824 0
M  V30 1527 N 134.186 -0.439845 -2.87252 0
M  V30 1528 H 133.733 -1.13655 -2.31172 0
M  V30 1529 H 133.691 0.392159 -3.11945 0
M  V30 1530 N 137.463 0.71206 -1.40597 0
M  V30 1531 C 138.879 1.02058 -1.22704 0
M  V30 1532 C 139.079 2.01228 -0.104729 0
M  V30 1533 O 138.135 2.4674 0.53624 0
M  V30 1534 C 139.448 1.56094 -2.57012 0
M  V30 1535 C 140.996 1.6806 -2.64054 0
M  V30 1536 C 141.471 2.25501 -3.9864 0
M  V30 1537 N 142.962 2.32882 -4.004 0
M  V30 1538 C 143.697 2.78317 -5.01325 0
M  V30 1539 N 143.193 3.23478 -6.12645 0
M  V30 1540 N 144.986 2.77733 -4.88693 0
M  V30 1541 H 137.137 0.0547896 -2.12329 0
M  V30 1542 H 139.4 0.0869027 -0.944008 0
M  V30 1543 H 139.106 0.906865 -3.39807 0
M  V30 1544 H 138.98 2.54564 -2.78347 0
M  V30 1545 H 141.367 2.32583 -1.81629 0
M  V30 1546 H 141.448 0.681802 -2.46546 0
M  V30 1547 H 141.092 1.61598 -4.81506 0
M  V30 1548 H 141.022 3.26102 -4.13479 0
M  V30 1549 H 143.513 2.00991 -3.20017 0
M  V30 1550 H 143.826 3.56725 -6.85542 0
M  V30 1551 H 142.171 3.21429 -6.16205 0
M  V30 1552 H 145.362 2.4179 -4.00818 0
M  V30 1553 H 145.535 3.12826 -5.67489 0
M  V30 1554 N 138.941 1.26152 0.944643 0
M  V30 1555 C 140.181 1.12708 1.70517 0
M  V30 1556 C 140.545 -0.324727 1.89234 0
M  V30 1557 O 141.746 -0.581211 2.62441 0
M  V30 1558 C 140.017 1.8713 3.04495 0
M  V30 1559 S 141.576 1.89698 3.95677 0
M  V30 1560 H 138.394 0.402665 0.585988 0
M  V30 1561 H 140.996 1.59821 1.12594 0
M  V30 1562 H 139.7 2.91833 2.88551 0
M  V30 1563 H 139.231 1.40444 3.67477 0
M  V30 1564 H 141.246 0.981198 4.86402 0
M  V30 1565 N 140.419 -1.14872 1.07899 0
M  V30 1566 C 141.366 -2.19791 0.704319 0
M  V30 1567 C 142.336 -1.63238 -0.306987 0
M  V30 1568 O 143.521 -1.8983 -0.192171 0
M  V30 1569 C 140.661 -3.44911 0.114244 0
M  V30 1570 C 139.774 -4.15637 1.1777 0
M  V30 1571 C 138.909 -5.28324 0.552037 0
M  V30 1572 C 137.948 -5.90875 1.59789 0
M  V30 1573 N 137.085 -6.95022 0.994404 0
M  V30 1574 H 141.925 -2.5119 1.60336 0
M  V30 1575 H 139.462 -1.23356 0.801352 0
M  V30 1576 H 141.42 -4.16477 -0.245544 0
M  V30 1577 H 140.05 -3.14011 -0.74813 0
M  V30 1578 H 139.102 -3.42512 1.65499 0
M  V30 1579 H 140.414 -4.5823 1.97046 0
M  V30 1580 H 139.568 -6.06538 0.1402 0
M  V30 1581 H 138.307 -4.86939 -0.272431 0
M  V30 1582 H 137.312 -5.11369 2.01945 0
M  V30 1583 H 138.537 -6.34337 2.42474 0
M  V30 1584 H 136.483 -6.55722 0.190939 0
M  V30 1585 H 136.4 -7.36073 1.72432 0
M  V30 1586 H 137.668 -7.77123 0.608253 0
M  V30 1587 N 141.898 -0.863906 -1.31812 0
M  V30 1588 C 143.146 -0.470904 -1.96537 0
M  V30 1589 C 143.467 0.978771 -1.68657 0
M  V30 1590 O 142.737 1.6853 -0.998717 0
M  V30 1591 H 141.317 -0.171148 -0.72713 0
M  V30 1592 H 143.979 -1.10236 -1.60729 0
M  V30 1593 H 143.075 -0.623616 -3.05806 0
M  V30 1594 N 143.376 1.44774 -0.622745 0
M  V30 1595 C 144.601 2.06999 -0.128968 0
M  V30 1596 C 145.026 1.4617 1.1839 0
M  V30 1597 O 144.384 0.560007 1.72434 0
M  V30 1598 C 144.432 3.60595 -0.0188351 0
M  V30 1599 O 143.536 3.99398 1.02739 0
M  V30 1600 H 142.877 0.659047 -0.0809544 0
M  V30 1601 H 145.407 1.85784 -0.85705 0
M  V30 1602 H 145.417 4.07627 0.174476 0
M  V30 1603 H 144.092 4.04252 -0.977384 0
M  V30 1604 H 142.669 3.64011 0.809326 0
M  V30 1605 N 144.854 0.36279 1.53368 0
M  V30 1606 C 146.103 -0.22888 2.00397 0
M  V30 1607 C 146.416 -1.50096 1.25421 0
M  V30 1608 O 147.622 -2.17106 1.63025 0
M  V30 1609 C 146.078 -0.458417 3.56969 0
M  V30 1610 C 145.686 0.798877 4.4082 0
M  V30 1611 C 147.43 -1.00789 4.12361 0
M  V30 1612 C 145.337 0.539078 5.88938 0
M  V30 1613 H 144.267 -0.089305 0.748693 0
M  V30 1614 H 146.918 0.481099 1.77081 0
M  V30 1615 H 145.3 -1.22959 3.76427 0
M  V30 1616 H 146.474 1.57262 4.33134 0
M  V30 1617 H 144.789 1.27137 3.96516 0
M  V30 1618 H 147.386 -1.21754 5.20653 0
M  V30 1619 H 147.729 -1.9692 3.66781 0
M  V30 1620 H 148.262 -0.296961 3.9669 0
M  V30 1621 H 145.001 1.47064 6.3879 0
M  V30 1622 H 144.521 -0.196222 5.99479 0
M  V30 1623 H 146.2 0.163542 6.46793 0
M  V30 1624 N 146.332 -1.57332 0.0918853 0
M  V30 1625 C 147.562 -1.98286 -0.580205 0
M  V30 1626 C 147.97 -0.969713 -1.6246 0
M  V30 1627 O 147.313 0.0493501 -1.83634 0
M  V30 1628 C 147.375 -3.35603 -1.28882 0
M  V30 1629 C 147.039 -4.55285 -0.395559 0
M  V30 1630 C 148.036 -5.18687 0.355002 0
M  V30 1631 C 145.721 -5.01314 -0.314556 0
M  V30 1632 C 147.715 -6.26484 1.17458 0
M  V30 1633 C 145.402 -6.08979 0.508677 0
M  V30 1634 C 146.4 -6.71429 1.2519 0
M  V30 1635 O 146.088 -7.77018 2.06151 0
M  V30 1636 H 145.82 -0.656678 -0.160466 0
M  V30 1637 H 148.374 -2.04721 0.16688 0
M  V30 1638 H 146.604 -3.25842 -2.08241 0
M  V30 1639 H 148.293 -3.61026 -1.85512 0
M  V30 1640 H 149.059 -4.84058 0.302134 0
M  V30 1641 H 144.938 -4.5247 -0.882697 0
M  V30 1642 H 148.482 -6.75159 1.75518 0
M  V30 1643 H 144.379 -6.4304 0.563037 0
M  V30 1644 H 145.147 -7.93991 1.98799 0
M  V30 1645 N 147.81 0.181792 -1.56548 0
M  V30 1646 C 148.74 1.22765 -1.98623 0
M  V30 1647 C 149.721 1.46747 -0.860189 0
M  V30 1648 O 150.906 1.58259 -1.12551 0
M  V30 1649 C 148.036 2.56894 -2.33715 0
M  V30 1650 C 146.99 2.475 -3.49182 0
M  V30 1651 C 146.316 3.86023 -3.69986 0
M  V30 1652 C 147.616 1.98866 -4.82959 0
M  V30 1653 H 149.31 0.877942 -2.86239 0
M  V30 1654 H 146.856 0.42088 -1.37712 0
M  V30 1655 H 148.809 3.30253 -2.61746 0
M  V30 1656 H 147.533 2.93632 -1.42997 0
M  V30 1657 H 146.192 1.76596 -3.21262 0
M  V30 1658 H 145.84 4.20136 -2.76576 0
M  V30 1659 H 145.54 3.80609 -4.47672 0
M  V30 1660 H 147.064 4.60984 -4.00407 0
M  V30 1661 H 148.478 2.61992 -5.09934 0
M  V30 1662 H 146.875 2.04424 -5.64208 0
M  V30 1663 H 147.945 0.942465 -4.75653 0
M  V30 1664 N 149.288 1.51039 0.449983 0
M  V30 1665 C 150.534 1.63322 1.20223 0
M  V30 1666 C 150.867 0.34241 1.91158 0
M  V30 1667 O 150.142 -0.657344 1.83055 0
M  V30 1668 C 150.425 2.82801 2.22925 0
M  V30 1669 C 150.278 4.21823 1.56157 0
M  V30 1670 C 151.597 2.97807 3.24035 0
M  V30 1671 H 148.716 0.594407 0.435718 0
M  V30 1672 H 151.358 1.83489 0.493136 0
M  V30 1673 H 149.508 2.65738 2.834 0
M  V30 1674 H 151.18 4.50526 0.991162 0
M  V30 1675 H 149.423 4.25105 0.864172 0
M  V30 1676 H 150.094 5.01391 2.30891 0
M  V30 1677 H 152.57 3.13497 2.73603 0
M  V30 1678 H 151.446 3.82992 3.93202 0
M  V30 1679 H 151.707 2.09328 3.89402 0
M  V30 1680 N 150.766 -0.704594 1.40972 0
M  V30 1681 C 152.013 -1.46458 1.39844 0
M  V30 1682 C 152.341 -1.94499 0.00447594 0
M  V30 1683 O 151.596 -1.69275 -0.982057 0
M  V30 1684 C 151.895 -2.698 2.34399 0
M  V30 1685 C 151.561 -2.40464 3.81429 0
M  V30 1686 C 150.223 -2.32174 4.21484 0
M  V30 1687 C 152.575 -2.16086 4.74296 0
M  V30 1688 C 149.903 -1.97589 5.52427 0
M  V30 1689 C 152.255 -1.83011 6.05549 0
M  V30 1690 C 150.919 -1.7321 6.44635 0
M  V30 1691 H 150.189 -0.535927 0.511725 0
M  V30 1692 H 152.836 -0.806124 1.73706 0
M  V30 1693 H 151.141 -3.40536 1.93759 0
M  V30 1694 H 152.838 -3.27919 2.30804 0
M  V30 1695 H 149.428 -2.47808 3.49699 0
M  V30 1696 H 153.612 -2.2144 4.4416 0
M  V30 1697 H 148.868 -1.88547 5.81601 0
M  V30 1698 H 153.042 -1.63164 6.77016 0
M  V30 1699 H 150.669 -1.46179 7.46013 0
M  V30 1700 N 152.244 -1.26651 -0.937939 0
M  V30 1701 C 153.521 -1.0313 -1.66204 0
M  V30 1702 C 153.901 0.437256 -2.06522 0
M  V30 1703 O 153.249 1.41831 -1.79154 0
M  V30 1704 C 153.459 -1.98314 -2.87181 0
M  V30 1705 C 154.807 -2.27107 -3.58758 0
M  V30 1706 O 155.831 -1.96205 -2.97291 0
M  V30 1707 O 154.69 -2.79736 -4.69479 0
M  V30 1708 H 151.784 -0.392384 -0.727986 0
M  V30 1709 H 154.33 -1.37874 -0.989382 0
M  V30 1710 H 153.102 -2.97399 -2.54302 0
M  V30 1711 H 152.725 -1.64068 -3.6217 0
M  V30 1712 N 153.722 1.14298 -1.08507 0
M  V30 1713 C 154.969 1.85359 -0.815373 0
M  V30 1714 C 155.297 1.83001 0.658865 0
M  V30 1715 O 154.552 1.25655 1.50031 0
M  V30 1716 C 154.851 3.33547 -1.28379 0
M  V30 1717 C 154.517 3.56093 -2.76602 0
M  V30 1718 C 153.179 3.61955 -3.17084 0
M  V30 1719 C 155.531 3.64834 -3.72217 0
M  V30 1720 C 152.859 3.74082 -4.51973 0
M  V30 1721 C 155.211 3.78487 -5.06883 0
M  V30 1722 C 153.875 3.82598 -5.46969 0
M  V30 1723 H 153.145 0.678276 -0.298366 0
M  V30 1724 H 155.792 1.35002 -1.35819 0
M  V30 1725 H 154.097 3.86191 -0.660593 0
M  V30 1726 H 155.794 3.86959 -1.05186 0
M  V30 1727 H 152.384 3.52179 -2.4427 0
M  V30 1728 H 156.568 3.59595 -3.42061 0
M  V30 1729 H 151.824 3.75527 -4.82483 0
M  V30 1730 H 155.998 3.84193 -5.80834 0
M  V30 1731 H 153.625 3.91747 -6.51489 0
M  V30 1732 N 155.201 0.870884 1.31352 0
M  V30 1733 C 156.441 0.488783 1.9847 0
M  V30 1734 C 156.805 -0.941536 1.67329 0
M  V30 1735 O 158.006 -1.42903 2.27667 0
M  V30 1736 C 156.277 0.739688 3.49662 0
M  V30 1737 S 157.836 0.457582 4.36408 0
M  V30 1738 H 154.654 0.18242 0.6872 0
M  V30 1739 H 157.256 1.12711 1.59739 0
M  V30 1740 H 155.96 1.77944 3.69816 0
M  V30 1741 H 155.491 0.0883905 3.93301 0
M  V30 1742 H 157.506 -0.709752 4.91098 0
M  V30 1743 N 156.679 -1.44442 0.630414 0
M  V30 1744 C 157.589 -2.34476 -0.0761693 0
M  V30 1745 C 158.605 -1.52576 -0.836449 0
M  V30 1746 O 159.781 -1.85307 -0.788874 0
M  V30 1747 C 156.846 -3.30545 -1.04599 0
M  V30 1748 C 155.907 -4.28352 -0.28516 0
M  V30 1749 C 155.14 -5.19831 -1.20878 0
M  V30 1750 O 155.363 -5.15223 -2.44747 0
M  V30 1751 O 154.297 -5.97892 -0.693491 0
M  V30 1752 H 158.123 -2.96345 0.664324 0
M  V30 1753 H 155.708 -1.44203 0.39061 0
M  V30 1754 H 157.59 -3.89681 -1.60396 0
M  V30 1755 H 156.265 -2.7121 -1.76711 0
M  V30 1756 H 155.172 -3.72764 0.315837 0
M  V30 1757 H 156.505 -4.90605 0.395924 0
M  V30 1758 N 158.157 -0.370918 -1.53173 0
M  V30 1759 C 159.107 0.489588 -2.22681 0
M  V30 1760 C 160.091 1.04442 -1.22395 0
M  V30 1761 O 161.283 0.973578 -1.47819 0
M  V30 1762 C 158.412 1.626 -3.02351 0
M  V30 1763 C 157.498 1.08379 -4.10018 0
M  V30 1764 N 157.889 0.265004 -5.05105 0
M  V30 1765 C 156.187 1.35809 -4.2482 0
M  V30 1766 C 156.888 -0.0324755 -5.81691 0
M  V30 1767 N 155.864 0.566581 -5.40639 0
M  V30 1768 H 159.666 -0.142729 -2.93553 0
M  V30 1769 H 157.18 -0.179221 -1.61408 0
M  V30 1770 H 159.177 2.2547 -3.50669 0
M  V30 1771 H 157.837 2.26132 -2.33011 0
M  V30 1772 H 158.848 -0.0962352 -5.17811 0
M  V30 1773 H 155.525 1.9958 -3.66707 0
M  V30 1774 H 156.915 -0.69473 -6.68299 0
M  V30 1775 N 159.635 1.57281 -0.100228 0
M  V30 1776 C 160.912 1.86014 0.604812 0
M  V30 1777 C 161.292 0.998025 1.86018 0
M  V30 1778 O 160.64 0.0718184 2.28387 0
M  V30 1779 C 160.85 3.36784 0.915278 0
M  V30 1780 C 162.198 4.04957 1.27651 0
M  V30 1781 O 163.222 3.41695 1.00613 0
M  V30 1782 O 162.081 5.16593 1.7831 0
M  V30 1783 H 159.175 0.76942 0.303185 0
M  V30 1784 H 161.721 1.69176 -0.133313 0
M  V30 1785 H 160.493 3.91292 0.0248896 0
M  V30 1786 H 160.116 3.58987 1.70921 0
M  V30 1787 N 161.113 -0.173488 1.56642 0
M  V30 1788 C 162.043 -1.2171 1.99271 0
M  V30 1789 C 163.024 -1.46289 0.867959 0
M  V30 1790 O 164.209 -1.5766 1.13388 0
M  V30 1791 C 161.339 -2.55651 2.35074 0
M  V30 1792 C 160.293 -2.45645 3.50489 0
M  V30 1793 C 159.619 -3.84056 3.72028 0
M  V30 1794 C 160.919 -1.96302 4.84007 0
M  V30 1795 H 162.613 -0.86275 2.867 0
M  V30 1796 H 160.159 -0.413571 1.37933 0
M  V30 1797 H 162.112 -3.2886 2.63494 0
M  V30 1798 H 160.836 -2.92869 1.44552 0
M  V30 1799 H 159.495 -1.7489 3.22194 0
M  V30 1800 H 159.143 -4.18664 2.788 0
M  V30 1801 H 158.843 -3.7823 4.49684 0
M  V30 1802 H 160.367 -4.58854 4.02846 0
M  V30 1803 H 161.781 -2.59284 5.11317 0
M  V30 1804 H 160.178 -2.01429 5.65284 0
M  V30 1805 H 161.248 -0.917226 4.76146 0
M  V30 1806 N 162.591 -1.51276 -0.441967 0
M  V30 1807 C 163.554 -1.7167 -1.51862 0
M  V30 1808 C 164.554 -0.586793 -1.49711 0
M  V30 1809 O 165.744 -0.854276 -1.51815 0
M  V30 1810 C 162.876 -1.76889 -2.91416 0
M  V30 1811 H 164.069 -2.67754 -1.35084 0
M  V30 1812 H 161.622 -1.41196 -0.670333 0
M  V30 1813 H 162.357 -0.826026 -3.13604 0
M  V30 1814 H 162.142 -2.59001 -2.94382 0
M  V30 1815 H 163.632 -1.94522 -3.69528 0
M  V30 1816 N 164.069 0.697108 -1.41344 0
M  V30 1817 C 165.317 1.45426 -1.40341 0
M  V30 1818 C 165.638 1.94996 -0.0128787 0
M  V30 1819 O 164.908 1.71599 0.945027 0
M  V30 1820 H 163.488 0.539594 -0.516573 0
M  V30 1821 H 166.15 0.825201 -1.76569 0
M  V30 1822 H 165.246 2.31817 -2.08967 0
M  V30 1823 N 165.547 1.27147 0.931209 0
M  V30 1824 C 166.477 1.12081 2.04842 0
M  V30 1825 C 167.458 0.0232364 1.70084 0
M  V30 1826 O 168.643 0.197085 1.93197 0
M  V30 1827 C 165.773 0.76354 3.38803 0
M  V30 1828 C 164.727 1.81396 3.87659 0
M  V30 1829 C 164.053 1.31075 5.18385 0
M  V30 1830 C 165.353 3.21739 4.11438 0
M  V30 1831 H 167.047 2.05537 2.17703 0
M  V30 1832 H 164.593 0.989603 1.04608 0
M  V30 1833 H 166.546 0.644982 4.16435 0
M  V30 1834 H 165.27 -0.206727 3.25945 0
M  V30 1835 H 163.929 1.92136 3.12217 0
M  V30 1836 H 163.577 0.330037 5.01916 0
M  V30 1837 H 163.277 2.013 5.52044 0
M  V30 1838 H 164.801 1.20506 5.98591 0
M  V30 1839 H 166.215 3.14019 4.79651 0
M  V30 1840 H 164.612 3.89644 4.56397 0
M  V30 1841 H 165.682 3.67054 3.16859 0
M  V30 1842 N 167.025 -1.13721 1.09112 0
M  V30 1843 C 167.955 -2.21148 0.749385 0
M  V30 1844 C 168.936 -1.6792 -0.271475 0
M  V30 1845 O 170.121 -1.93693 -0.140251 0
M  V30 1846 C 167.251 -3.46905 0.165659 0
M  V30 1847 C 166.205 -4.13203 1.11567 0
M  V30 1848 C 165.531 -5.33248 0.393809 0
M  V30 1849 C 166.831 -4.60912 2.45678 0
M  V30 1850 H 168.525 -2.4999 1.64758 0
M  V30 1851 H 166.071 -1.20156 0.793626 0
M  V30 1852 H 168.024 -4.21313 -0.085466 0
M  V30 1853 H 166.748 -3.17449 -0.767714 0
M  V30 1854 H 165.407 -3.40758 1.35202 0
M  V30 1855 H 165.055 -5.00054 -0.543599 0
M  V30 1856 H 164.755 -5.78552 1.02721 0
M  V30 1857 H 166.279 -6.10413 0.150908 0
M  V30 1858 H 167.693 -5.26759 2.26269 0
M  V30 1859 H 166.09 -5.16944 3.04776 0
M  V30 1860 H 167.16 -3.75603 3.06677 0
M  V30 1861 N 168.503 -0.877838 -1.30888 0
M  V30 1862 C 169.728 -0.506629 -2.01117 0
M  V30 1863 C 170.153 0.895564 -1.65412 0
M  V30 1864 O 169.511 1.5923 -0.866922 0
M  V30 1865 C 169.559 -0.680223 -3.54126 0
M  V30 1866 O 168.663 0.277033 -4.11468 0
M  V30 1867 H 168.004 -0.200518 -0.633 0
M  V30 1868 H 170.534 -1.18342 -1.66902 0
M  V30 1869 H 170.544 -0.5765 -4.03907 0
M  V30 1870 H 169.219 -1.70261 -3.79452 0
M  V30 1871 H 167.796 0.127606 -3.72682 0
M  V30 1872 N 169.982 1.44106 -0.638065 0
M  V30 1873 C 170.93 2.3248 0.0748149 0
M  V30 1874 C 171.924 1.47746 0.828702 0
M  V30 1875 O 173.13 1.64049 0.740816 0
M  V30 1876 H 169.505 0.750771 0.0429686 0
M  V30 1877 H 171.476 2.90348 -0.688504 0
M  V30 1878 C 170.225 3.31843 1.03805 0
M  V30 1879 H 169.548 3.97059 0.467375 0
M  V30 1880 H 170.988 3.96345 1.50622 0
M  V30 1881 C 169.447 2.61291 2.1267 0
M  V30 1882 O 169.977 2.41702 3.20847 0
M  V30 1883 N 168.183 2.20915 1.88798 0
M  V30 1884 H 167.73 2.37047 1.00829 0
M  V30 1885 H 167.688 1.74038 2.61836 0
M  V30 1886 N 171.46 0.379036 1.52974 0
M  V30 1887 C 172.706 -0.206727 2.01744 0
M  V30 1888 C 173.039 -1.47314 1.26539 0
M  V30 1889 O 172.314 -1.91084 0.362903 0
M  V30 1890 C 172.597 -0.485066 3.56818 0
M  V30 1891 C 172.45 0.795919 4.42702 0
M  V30 1892 C 173.769 -1.28003 4.21074 0
M  V30 1893 H 170.888 -0.0736607 0.73331 0
M  V30 1894 H 173.53 0.506581 1.83122 0
M  V30 1895 H 171.68 -1.09272 3.72816 0
M  V30 1896 H 173.352 1.43307 4.38476 0
M  V30 1897 H 171.595 1.41344 4.10127 0
M  V30 1898 H 172.266 0.555947 5.49193 0
M  V30 1899 H 174.742 -0.765867 4.08991 0
M  V30 1900 H 173.618 -1.44352 5.29579 0
M  V30 1901 H 173.879 -2.29236 3.78026 0
M  V30 1902 N 172.938 -1.57226 0.108567 0
M  V30 1903 C 173.868 -2.17778 -0.84232 0
M  V30 1904 C 174.849 -1.11487 -1.2847 0
M  V30 1905 O 176.034 -1.39681 -1.34918 0
M  V30 1906 C 173.164 -2.76888 -2.09644 0
M  V30 1907 C 172.118 -3.88669 -1.79221 0
M  V30 1908 C 171.444 -4.34541 -3.11574 0
M  V30 1909 C 172.744 -5.11251 -1.06864 0
M  V30 1910 H 174.438 -2.97489 -0.337774 0
M  V30 1911 H 171.984 -1.43097 -0.161025 0
M  V30 1912 H 173.937 -3.17904 -2.76614 0
M  V30 1913 H 172.661 -1.94451 -2.62405 0
M  V30 1914 H 171.32 -3.48213 -1.14644 0
M  V30 1915 H 170.968 -3.48977 -3.62249 0
M  V30 1916 H 170.668 -5.09914 -2.91996 0
M  V30 1917 H 172.192 -4.782 -3.7968 0
M  V30 1918 H 173.606 -5.49352 -1.63968 0
M  V30 1919 H 172.003 -5.9214 -0.974178 0
M  V30 1920 H 173.073 -4.8487 -0.0536168 0
M  V30 1921 N 174.416 0.165178 -1.56732 0
M  V30 1922 C 175.662 0.882112 -1.82611 0
M  V30 1923 C 175.995 1.81628 -0.687378 0
M  V30 1924 O 175.27 1.92009 0.310267 0
M  V30 1925 C 175.553 1.67245 -3.18906 0
M  V30 1926 C 175.406 0.760987 -4.43316 0
M  V30 1927 C 176.725 2.63884 -3.52212 0
M  V30 1928 H 173.844 0.319242 -0.664269 0
M  V30 1929 H 176.486 0.148052 -1.89422 0
M  V30 1930 H 174.636 2.29824 -3.1323 0
M  V30 1931 H 176.308 0.147596 -4.61064 0
M  V30 1932 H 174.551 0.0694102 -4.33744 0
M  V30 1933 H 175.222 1.34962 -5.35247 0
M  V30 1934 H 177.698 2.11429 -3.58381 0
M  V30 1935 H 176.574 3.16245 -4.48643 0
M  V30 1936 H 176.835 3.44377 -2.77231 0
M  V30 1937 N 175.894 1.51508 0.433938 0
M  V30 1938 C 176.841 1.73068 1.52696 0
M  V30 1939 C 177.811 0.572441 1.55924 0
M  V30 1940 O 178.996 0.807253 1.72882 0
M  V30 1941 C 176.136 1.86474 2.90381 0
M  V30 1942 C 175.249 3.14037 2.96656 0
M  V30 1943 C 174.384 3.18019 4.25485 0
M  V30 1944 C 173.423 4.39882 4.2564 0
M  V30 1945 N 172.56 4.41394 5.45999 0
M  V30 1946 H 177.4 2.66366 1.33615 0
M  V30 1947 H 174.937 1.32008 0.649018 0
M  V30 1948 H 176.895 1.92229 3.70275 0
M  V30 1949 H 175.525 0.965809 3.08013 0
M  V30 1950 H 174.577 3.17575 2.09404 0
M  V30 1951 H 175.889 4.0394 2.92633 0
M  V30 1952 H 175.043 3.22708 5.13755 0
M  V30 1953 H 173.782 2.2601 4.3217 0
M  V30 1954 H 172.787 4.35366 3.35763 0
M  V30 1955 H 174.012 5.33159 4.20617 0
M  V30 1956 H 171.958 3.52258 5.53399 0
M  V30 1957 H 171.875 5.25111 5.4387 0
M  V30 1958 H 173.143 4.50281 6.36292 0
M  V30 1959 N 177.372 -0.689602 1.41712 0
M  V30 1960 C 178.619 -1.44966 1.4139 0
M  V30 1961 C 178.947 -1.94484 0.025105 0
M  V30 1962 O 178.202 -1.70307 -0.964048 0
M  V30 1963 C 178.501 -2.67298 2.37247 0
M  V30 1964 C 178.167 -2.36405 3.83958 0
M  V30 1965 C 176.829 -2.27691 4.23923 0
M  V30 1966 C 179.181 -2.11043 4.76561 0
M  V30 1967 C 176.509 -1.91719 5.54492 0
M  V30 1968 C 178.861 -1.76578 6.07456 0
M  V30 1969 C 177.525 -1.66363 6.46436 0
M  V30 1970 H 176.795 -0.53047 0.517381 0
M  V30 1971 H 179.442 -0.787655 1.74552 0
M  V30 1972 H 177.747 -3.38461 1.9736 0
M  V30 1973 H 179.444 -3.25452 2.34269 0
M  V30 1974 H 176.034 -2.44085 3.52308 0
M  V30 1975 H 180.218 -2.16717 4.46483 0
M  V30 1976 H 175.474 -1.82367 5.83568 0
M  V30 1977 H 179.648 -1.55974 6.78708 0
M  V30 1978 H 177.275 -1.38258 7.47522 0
M  V30 1979 N 178.85 -1.27639 -0.924453 0
M  V30 1980 C 180.078 -1.16989 -1.70649 0
M  V30 1981 C 180.493 0.272869 -1.86818 0
M  V30 1982 O 179.85 1.18549 -1.38753 0
M  V30 1983 C 179.901 -1.85229 -3.10439 0
M  V30 1984 O 179.622 -3.23868 -2.95028 0
M  V30 1985 C 181.123 -1.80746 -4.04779 0
M  V30 1986 H 178.343 -0.406595 -0.53378 0
M  V30 1987 H 180.887 -1.68569 -1.15778 0
M  V30 1988 H 179.042 -1.37545 -3.6216 0
M  V30 1989 H 179.456 -3.57889 -3.83426 0
M  V30 1990 H 180.93 -2.33101 -5.00368 0
M  V30 1991 H 181.407 -0.777499 -4.32263 0
M  V30 1992 H 182.013 -2.28059 -3.58984 0
M  V30 1993 N 180.328 1.1314 -1.09713 0
M  V30 1994 C 181.258 2.20748 -0.761102 0
M  V30 1995 C 182.239 1.68061 0.262566 0
M  V30 1996 O 183.424 1.93765 0.129977 0
M  V30 1997 C 180.554 3.46812 -0.184054 0
M  V30 1998 C 179.508 4.12606 -1.13757 0
M  V30 1999 C 178.834 5.33031 -0.422083 0
M  V30 2000 C 180.134 4.59603 -2.48118 0
M  V30 2001 H 181.828 2.49113 -1.66082 0
M  V30 2002 H 179.374 1.19734 -0.799987 0
M  V30 2003 H 181.327 4.21353 0.0631215 0
M  V30 2004 H 180.051 3.17851 0.750868 0
M  V30 2005 H 178.71 3.40036 -1.37007 0
M  V30 2006 H 178.358 5.00335 0.517072 0
M  V30 2007 H 178.058 5.77999 -1.05788 0
M  V30 2008 H 179.582 6.10325 -0.183277 0
M  V30 2009 H 180.996 5.25552 -2.29059 0
M  V30 2010 H 179.393 5.15321 -3.07514 0
M  V30 2011 H 180.463 3.73971 -3.08665 0
M  V30 2012 N 181.806 0.884767 1.30421 0
M  V30 2013 C 183.031 0.517288 2.00845 0
M  V30 2014 C 183.456 -0.886779 1.65885 0
M  V30 2015 O 182.814 -1.58768 0.875354 0
M  V30 2016 C 182.862 0.698994 3.5376 0
M  V30 2017 O 181.966 -0.255208 4.1161 0
M  V30 2018 H 181.307 0.203872 0.631927 0
M  V30 2019 H 183.837 1.19225 1.66272 0
M  V30 2020 H 183.847 0.597912 4.03595 0
M  V30 2021 H 182.522 1.72271 3.78544 0
M  V30 2022 H 181.099 -0.10784 3.72744 0
M  V30 2023 N 183.284 -1.43765 0.645699 0
M  V30 2024 C 184.194 -2.34544 -0.0512957 0
M  V30 2025 C 185.21 -1.53455 -0.82022 0
M  V30 2026 O 186.386 -1.86133 -0.769176 0
M  V30 2027 C 183.451 -3.31636 -1.01087 0
M  V30 2028 C 182.512 -4.2863 -0.239712 0
M  V30 2029 C 181.745 -5.21084 -1.15358 0
M  V30 2030 O 181.968 -5.1779 -2.39269 0
M  V30 2031 O 180.902 -5.98593 -0.630038 0
M  V30 2032 H 184.728 -2.95624 0.695718 0
M  V30 2033 H 182.313 -1.43781 0.405882 0
M  V30 2034 H 184.195 -3.9136 -1.56254 0
M  V30 2035 H 182.87 -2.73069 -1.73824 0
M  V30 2036 H 181.777 -3.72408 0.355356 0
M  V30 2037 H 183.11 -4.90157 0.447936 0
M  V30 2038 N 184.763 -0.387143 -1.52771 0
M  V30 2039 C 186.012 0.19697 -2.00736 0
M  V30 2040 C 186.325 1.48082 -1.27793 0
M  V30 2041 O 187.531 2.14485 -1.66458 0
M  V30 2042 C 185.987 0.401568 -3.57653 0
M  V30 2043 C 185.595 -0.868907 -4.39493 0
M  V30 2044 C 187.339 0.942164 -4.13912 0
M  V30 2045 C 185.246 -0.632705 -5.88006 0
M  V30 2046 H 184.176 0.0773827 -0.750019 0
M  V30 2047 H 186.827 -0.50921 -1.76293 0
M  V30 2048 H 185.209 1.16954 -3.78335 0
M  V30 2049 H 186.383 -1.64133 -4.30577 0
M  V30 2050 H 184.698 -1.33429 -3.94443 0
M  V30 2051 H 187.295 1.13455 -5.22525 0
M  V30 2052 H 187.638 1.9106 -3.69867 0
M  V30 2053 H 188.171 0.233814 -3.97112 0
M  V30 2054 H 184.91 -1.57208 -6.36369 0
M  V30 2055 H 184.43 0.100825 -5.99715 0
M  V30 2056 H 186.109 -0.26642 -6.46451 0
M  V30 2057 N 186.241 1.57166 -0.116904 0
M  V30 2058 C 187.188 2.15202 0.83408 0
M  V30 2059 C 188.158 1.07644 1.26499 0
M  V30 2060 O 189.343 1.35541 1.34288 0
M  V30 2061 C 186.483 2.75405 2.07957 0
M  V30 2062 C 185.596 3.97264 1.69721 0
M  V30 2063 C 184.731 4.45561 2.89221 0
M  V30 2064 C 183.77 5.59956 2.47215 0
M  V30 2065 N 182.907 6.03006 3.59622 0
M  V30 2066 H 187.747 2.96141 0.332335 0
M  V30 2067 H 185.284 1.46309 0.152349 0
M  V30 2068 H 187.242 3.08439 2.80929 0
M  V30 2069 H 185.872 1.97159 2.55594 0
M  V30 2070 H 184.924 3.70404 0.866316 0
M  V30 2071 H 186.236 4.80226 1.34849 0
M  V30 2072 H 185.39 4.80493 3.7042 0
M  V30 2073 H 184.129 3.61544 3.27318 0
M  V30 2074 H 183.134 5.2463 1.64448 0
M  V30 2075 H 184.359 6.45738 2.10238 0
M  V30 2076 H 182.305 5.21931 3.97396 0
M  V30 2077 H 182.222 6.80819 3.28667 0
M  V30 2078 H 183.49 6.42576 4.41267 0
M  V30 2079 N 187.719 -0.156864 1.56817 0
M  V30 2080 C 189.135 -0.50916 1.5126 0
M  V30 2081 C 189.335 -1.83897 0.823658 0
M  V30 2082 O 188.391 -2.49469 0.390055 0
M  V30 2083 C 189.704 -0.52857 2.96018 0
M  V30 2084 C 191.252 -0.614771 3.06903 0
M  V30 2085 C 191.727 -0.664938 4.53147 0
M  V30 2086 N 193.218 -0.727433 4.57452 0
M  V30 2087 C 193.953 -0.787067 5.67973 0
M  V30 2088 N 193.449 -0.806649 6.88088 0
M  V30 2089 N 195.242 -0.827195 5.5598 0
M  V30 2090 H 187.393 0.714935 2.00006 0
M  V30 2091 H 189.656 0.259526 0.911784 0
M  V30 2092 H 189.362 0.380154 3.49639 0
M  V30 2093 H 189.236 -1.36998 3.51442 0
M  V30 2094 H 191.623 -1.51392 2.53307 0
M  V30 2095 H 191.704 0.253597 2.5454 0
M  V30 2096 H 191.348 0.230011 5.07379 0
M  V30 2097 H 191.278 -1.54966 5.03282 0
M  V30 2098 H 193.769 -0.719998 3.70978 0
M  V30 2099 H 194.082 -0.853727 7.6807 0
M  V30 2100 H 192.427 -0.774687 6.90669 0
M  V30 2101 H 195.618 -0.808998 4.61056 0
M  V30 2102 H 195.791 -0.870206 6.4213 0
M  V30 2103 N 189.197 -1.51736 -0.425897 0
M  V30 2104 C 190.443 -1.65214 -1.1761 0
M  V30 2105 C 190.776 -0.372778 -1.90589 0
M  V30 2106 O 190.051 0.628139 -1.84078 0
M  V30 2107 C 190.334 -2.86312 -2.18398 0
M  V30 2108 C 190.187 -4.24254 -1.49426 0
M  V30 2109 C 191.506 -3.02925 -3.19256 0
M  V30 2110 H 188.625 -0.601263 -0.426206 0
M  V30 2111 H 191.267 -1.8425 -0.463882 0
M  V30 2112 H 189.417 -2.70213 -2.79137 0
M  V30 2113 H 191.089 -4.52046 -0.919362 0
M  V30 2114 H 189.332 -4.26426 -0.796432 0
M  V30 2115 H 190.003 -5.05001 -2.22885 0
M  V30 2116 H 192.479 -3.1781 -2.68581 0
M  V30 2117 H 191.355 -3.89199 -3.8706 0
M  V30 2118 H 191.616 -2.15497 -3.86023 0
M  V30 2119 N 190.675 0.682077 -1.42076 0
M  V30 2120 C 191.608 1.80666 -1.3941 0
M  V30 2121 C 192.586 1.60518 -0.25939 0
M  V30 2122 O 193.77 1.83088 -0.448456 0
M  V30 2123 C 190.897 3.17556 -1.17796 0
M  V30 2124 C 189.943 3.56468 -2.34164 0
M  V30 2125 S 190.776 3.59729 -3.96681 0
M  V30 2126 C 191.932 4.99323 -3.77395 0
M  V30 2127 H 192.165 1.82652 -2.34575 0
M  V30 2128 H 189.698 0.852062 -1.2876 0
M  V30 2129 H 191.656 3.96575 -1.06012 0
M  V30 2130 H 190.317 3.13164 -0.242279 0
M  V30 2131 H 189.51 4.5595 -2.1477 0
M  V30 2132 H 189.112 2.84792 -2.42425 0
M  V30 2133 H 191.404 5.87202 -3.37935 0
M  V30 2134 H 192.347 5.23763 -4.76527 0
M  V30 2135 H 192.755 4.71498 -3.10403 0
M  V30 2136 N 192.153 1.28127 0.917671 0
M  V30 2137 C 193.085 1.07517 2.02417 0
M  V30 2138 C 194.098 0.0281099 1.62776 0
M  V30 2139 O 195.287 0.270748 1.76435 0
M  V30 2140 C 192.387 0.610957 3.33347 0
M  V30 2141 C 191.56 1.73255 4.01624 0
M  V30 2142 C 190.619 1.26238 5.10833 0
M  V30 2143 O 189.645 1.96389 5.34247 0
M  V30 2144 N 190.847 0.123448 5.80369 0
M  V30 2145 H 193.612 2.02806 2.20658 0
M  V30 2146 H 191.173 1.19827 1.08871 0
M  V30 2147 H 193.165 0.280101 4.0373 0
M  V30 2148 H 191.735 -0.24898 3.11607 0
M  V30 2149 H 190.955 2.23319 3.24842 0
M  V30 2150 H 192.243 2.48503 4.43986 0
M  V30 2151 H 191.641 -0.461847 5.63812 0
M  V30 2152 H 190.198 -0.148158 6.51632 0
M  V30 2153 N 193.631 -1.12557 1.10312 0
M  V30 2154 C 194.564 -2.1737 0.694674 0
M  V30 2155 C 195.542 -1.59745 -0.303373 0
M  V30 2156 O 196.726 -1.87408 -0.202578 0
M  V30 2157 C 193.853 -3.38691 0.0248052 0
M  V30 2158 C 192.899 -4.14943 0.986121 0
M  V30 2159 S 193.732 -4.73413 2.50281 0
M  V30 2160 C 194.888 -5.9807 1.84562 0
M  V30 2161 H 195.121 -2.5168 1.58255 0
M  V30 2162 H 192.654 -1.23998 0.919992 0
M  V30 2163 H 194.612 -4.08959 -0.355361 0
M  V30 2164 H 193.273 -3.02664 -0.839851 0
M  V30 2165 H 192.466 -5.01854 0.464651 0
M  V30 2166 H 192.068 -3.50377 1.30813 0
M  V30 2167 H 194.36 -6.67232 1.17507 0
M  V30 2168 H 195.303 -6.54841 2.69423 0
M  V30 2169 H 195.711 -5.49073 1.31069 0
M  V30 2170 N 195.109 -0.891671 -1.2995 0
M  V30 2171 C 196.039 -0.379797 -2.30391 0
M  V30 2172 C 197.02 0.540919 -1.6127 0
M  V30 2173 O 198.205 0.453352 -1.88834 0
M  V30 2174 C 195.335 0.400654 -3.44981 0
M  V30 2175 C 194.289 -0.428905 -4.25846 0
M  V30 2176 C 193.615 0.478557 -5.32554 0
M  V30 2177 C 194.915 -1.67458 -4.94727 0
M  V30 2178 H 196.609 -1.21914 -2.73454 0
M  V30 2179 H 194.155 -0.587675 -1.31462 0
M  V30 2180 H 196.108 0.769434 -4.14316 0
M  V30 2181 H 194.832 1.27371 -3.0074 0
M  V30 2182 H 193.491 -0.779911 -3.58208 0
M  V30 2183 H 193.139 1.34951 -4.84559 0
M  V30 2184 H 192.839 -0.0727433 -5.87555 0
M  V30 2185 H 194.363 0.843705 -6.04743 0
M  V30 2186 H 195.777 -1.376 -5.56542 0
M  V30 2187 H 194.174 -2.16659 -5.59624 0
M  V30 2188 H 195.244 -2.41518 -4.20473 0
M  V30 2189 N 196.587 1.43421 -0.653314 0
M  V30 2190 C 197.517 2.33487 0.0246656 0
M  V30 2191 C 198.498 1.49475 0.811863 0
M  V30 2192 O 199.683 1.78139 0.773322 0
M  V30 2193 C 196.813 3.32841 0.99166 0
M  V30 2194 C 195.767 4.26842 0.314568 0
M  V30 2195 C 195.093 5.16236 1.39302 0
M  V30 2196 C 196.393 5.16243 -0.793095 0
M  V30 2197 H 198.087 2.90427 -0.727481 0
M  V30 2198 H 195.633 1.39649 -0.351287 0
M  V30 2199 H 197.586 3.94747 1.47487 0
M  V30 2200 H 196.31 2.74158 1.77497 0
M  V30 2201 H 194.969 3.663 -0.148199 0
M  V30 2202 H 194.617 4.53891 2.16776 0
M  V30 2203 H 194.317 5.79948 0.945223 0
M  V30 2204 H 195.841 5.81015 1.87759 0
M  V30 2205 H 197.255 5.71958 -0.392039 0
M  V30 2206 H 195.652 5.88676 -1.16536 0
M  V30 2207 H 196.722 4.55927 -1.65103 0
M  V30 2208 N 198.065 0.39524 1.52563 0
M  V30 2209 C 199.013 -0.451859 2.28169 0
M  V30 2210 C 200.007 -1.05792 1.32304 0
M  V30 2211 O 201.213 -0.997718 1.49818 0
M  V30 2212 H 197.588 -0.164481 0.733792 0
M  V30 2213 H 199.559 0.207199 2.9768 0
M  V30 2214 C 198.308 -1.56385 3.10546 0
M  V30 2215 H 197.631 -1.10682 3.84174 0
M  V30 2216 H 199.071 -2.13067 3.66577 0
M  V30 2217 C 197.53 -2.52328 2.23231 0
M  V30 2218 O 198.06 -3.5588 1.86312 0
M  V30 2219 N 196.266 -2.22209 1.87274 0
M  V30 2220 H 195.813 -1.38033 2.17496 0
M  V30 2221 H 195.771 -2.86652 1.29143 0
M  V30 2222 N 199.544 -1.57102 0.125237 0
M  V30 2223 C 200.792 -1.95021 -0.530198 0
M  V30 2224 C 201.113 -1.00982 -1.66816 0
M  V30 2225 O 200.383 -0.0672693 -1.95784 0
M  V30 2226 H 198.963 -0.720046 -0.198853 0
M  V30 2227 H 201.625 -1.93916 0.19564 0
M  V30 2228 H 200.721 -2.98211 -0.920681 0
M  V30 2229 N 201.022 0.148545 -1.56898 0
M  V30 2230 C 201.952 1.18524 -2.01182 0
M  V30 2231 C 202.933 1.4489 -0.891123 0
M  V30 2232 O 204.118 1.55836 -1.15882 0
M  V30 2233 C 201.248 2.51879 -2.39112 0
M  V30 2234 C 200.202 2.40038 -3.54353 0
M  V30 2235 C 199.528 3.78089 -3.78091 0
M  V30 2236 C 200.828 1.88577 -4.87069 0
M  V30 2237 H 202.522 0.817029 -2.88036 0
M  V30 2238 H 200.068 0.391575 -1.38574 0
M  V30 2239 H 202.021 3.24627 -2.68692 0
M  V30 2240 H 200.745 2.90532 -1.49193 0
M  V30 2241 H 199.404 1.69742 -3.24936 0
M  V30 2242 H 199.052 4.14175 -2.85426 0
M  V30 2243 H 198.752 3.71028 -4.55645 0
M  V30 2244 H 200.276 4.52387 -4.10095 0
M  V30 2245 H 201.69 2.51117 -5.15377 0
M  V30 2246 H 200.087 1.9241 -5.68417 0
M  V30 2247 H 201.157 0.84136 -4.77545 0
M  V30 2248 N 202.5 1.5196 0.417844 0
M  V30 2249 C 203.73 1.69181 1.18581 0
M  V30 2250 C 204.138 0.397104 1.84986 0
M  V30 2251 O 203.481 -0.636011 1.72339 0
M  V30 2252 C 203.543 2.76497 2.29759 0
M  V30 2253 C 203.207 4.18514 1.83563 0
M  V30 2254 C 204.204 5.02648 1.32821 0
M  V30 2255 C 201.889 4.64708 1.90661 0
M  V30 2256 C 203.883 6.31044 0.897894 0
M  V30 2257 C 201.57 5.93096 1.47241 0
M  V30 2258 C 202.568 6.76093 0.968891 0
M  V30 2259 O 202.256 8.02078 0.540924 0
M  V30 2260 H 201.988 0.570457 0.362705 0
M  V30 2261 H 204.542 1.99249 0.498885 0
M  V30 2262 H 202.772 2.41786 3.01789 0
M  V30 2263 H 204.461 2.82403 2.91553 0
M  V30 2264 H 205.227 4.68154 1.26716 0
M  V30 2265 H 201.106 4.00216 2.28797 0
M  V30 2266 H 204.65 6.95776 0.504192 0
M  V30 2267 H 200.547 6.271 1.53022 0
M  V30 2268 H 201.315 8.15794 0.66502 0
M  V30 2269 N 203.978 -0.674533 1.42435 0
M  V30 2270 C 205.208 -1.46071 1.46105 0
M  V30 2271 C 205.616 -1.89067 0.0709605 0
M  V30 2272 O 204.959 -1.58731 -0.924677 0
M  V30 2273 C 205.021 -2.74145 2.32561 0
M  V30 2274 C 204.685 -2.53224 3.8043 0
M  V30 2275 C 205.682 -2.17809 4.72075 0
M  V30 2276 C 203.367 -2.6821 4.24698 0
M  V30 2277 C 205.361 -1.97648 6.05982 0
M  V30 2278 C 203.048 -2.47665 5.58664 0
M  V30 2279 C 204.046 -2.12437 6.49122 0
M  V30 2280 O 203.734 -1.9209 7.80613 0
M  V30 2281 H 203.466 -0.455959 0.499076 0
M  V30 2282 H 206.02 -0.836193 1.87609 0
M  V30 2283 H 204.25 -3.3908 1.85908 0
M  V30 2284 H 205.939 -3.36028 2.27683 0
M  V30 2285 H 206.705 -2.05826 4.39159 0
M  V30 2286 H 202.584 -2.94609 3.54579 0
M  V30 2287 H 206.128 -1.70075 6.7655 0
M  V30 2288 H 202.025 -2.59244 5.91154 0
M  V30 2289 H 202.793 -2.06686 7.91974 0
M  V30 2290 N 205.456 -1.28612 -0.910864 0
M  V30 2291 C 206.705 -1.15311 -1.65488 0
M  V30 2292 C 207.018 0.296999 -1.93332 0
M  V30 2293 O 208.224 0.551168 -2.65847 0
M  V30 2294 C 206.68 -2.01599 -2.98137 0
M  V30 2295 C 206.288 -3.51367 -2.7793 0
M  V30 2296 C 208.032 -1.96993 -3.76024 0
M  V30 2297 C 205.939 -4.29797 -4.06237 0
M  V30 2298 H 204.869 -0.42796 -0.620779 0
M  V30 2299 H 207.52 -1.53166 -1.01057 0
M  V30 2300 H 205.902 -1.56603 -3.63719 0
M  V30 2301 H 207.076 -4.0434 -2.21011 0
M  V30 2302 H 205.391 -3.57529 -2.13452 0
M  V30 2303 H 207.988 -2.52856 -4.71135 0
M  V30 2304 H 208.331 -0.94733 -4.05378 0
M  V30 2305 H 208.864 -2.39973 -3.17266 0
M  V30 2306 H 205.603 -5.32648 -3.82055 0
M  V30 2307 H 205.123 -3.81596 -4.62757 0
M  V30 2308 H 206.802 -4.39869 -4.74473 0
M  V30 2309 N 206.934 1.1197 -1.10907 0
M  V30 2310 C 207.884 2.15946 -0.731538 0
M  V30 2311 C 208.868 1.58758 0.261699 0
M  V30 2312 O 210.06 1.76863 0.0696722 0
M  V30 2313 C 207.189 3.42877 -0.170299 0
M  V30 2314 C 206.275 4.07037 -1.19087 0
M  V30 2315 N 206.666 4.46135 -2.38322 0
M  V30 2316 C 204.964 4.33884 -1.03252 0
M  V30 2317 C 205.665 4.96331 -3.03366 0
M  V30 2318 N 204.641 4.9214 -2.30865 0
M  V30 2319 H 208.443 2.43947 -1.63912 0
M  V30 2320 H 205.957 1.28927 -0.987505 0
M  V30 2321 H 207.954 4.16732 0.118271 0
M  V30 2322 H 206.614 3.16343 0.731935 0
M  V30 2323 H 207.625 4.38345 -2.75815 0
M  V30 2324 H 204.302 4.17084 -0.186256 0
M  V30 2325 H 205.692 5.36257 -4.04818 0
M  V30 2326 N 208.412 0.89855 1.29475 0
M  V30 2327 C 209.828 0.594483 1.48115 0
M  V30 2328 C 210.028 -0.86431 1.82022 0
M  V30 2329 O 209.084 -1.64457 1.91599 0
M  V30 2330 C 210.397 1.51932 2.59494 0
M  V30 2331 C 211.945 1.5244 2.7337 0
M  V30 2332 C 212.42 2.43548 3.87877 0
M  V30 2333 N 213.911 2.41589 3.95208 0
M  V30 2334 C 214.646 3.08789 4.83153 0
M  V30 2335 N 214.142 3.85265 5.75798 0
M  V30 2336 N 215.935 2.97952 4.76635 0
M  V30 2337 H 208.086 1.84207 1.05742 0
M  V30 2338 H 210.349 0.789251 0.525154 0
M  V30 2339 H 210.055 2.55865 2.41301 0
M  V30 2340 H 209.929 1.23899 3.56271 0
M  V30 2341 H 212.316 0.492518 2.90961 0
M  V30 2342 H 212.397 1.8451 1.77172 0
M  V30 2343 H 212.041 3.46829 3.71041 0
M  V30 2344 H 211.971 2.08788 4.83441 0
M  V30 2345 H 214.462 1.86025 3.28943 0
M  V30 2346 H 214.775 4.33598 6.39697 0
M  V30 2347 H 213.12 3.89371 5.75687 0
M  V30 2348 H 216.311 2.37723 4.03244 0
M  V30 2349 H 216.484 3.50599 5.44962 0
M  V30 2350 N 209.89 -1.43072 0.660911 0
M  V30 2351 C 210.838 -2.32569 -0.0378199 0
M  V30 2352 C 211.832 -1.49046 -0.805092 0
M  V30 2353 O 213.038 -1.65206 -0.714624 0
M  V30 2354 H 209.413 -0.75136 -0.031019 0
M  V30 2355 H 211.384 -2.89216 0.734609 0
M  V30 2356 C 210.133 -3.33453 -0.985124 0
M  V30 2357 H 209.456 -3.97752 -0.404147 0
M  V30 2358 H 210.896 -3.98691 -1.44297 0
M  V30 2359 C 209.355 -2.64642 -2.08486 0
M  V30 2360 O 209.885 -2.46776 -3.16961 0
M  V30 2361 N 208.091 -2.23891 -1.8526 0
M  V30 2362 H 207.638 -2.38621 -0.970449 0
M  V30 2363 H 207.596 -1.78181 -2.59034 0
M  V30 2364 N 211.368 -0.403325 -1.52352 0
M  V30 2365 C 212.315 0.425011 -2.26853 0
M  V30 2366 C 213.285 1.04598 -1.29029 0
M  V30 2367 O 214.47 1.07135 -1.57882 0
M  V30 2368 C 211.61 1.53888 -3.08889 0
M  V30 2369 C 210.723 0.939396 -4.21663 0
M  V30 2370 C 209.858 2.02547 -4.91068 0
M  V30 2371 C 208.897 1.40263 -5.95813 0
M  V30 2372 N 208.034 2.4286 -6.58759 0
M  V30 2373 H 212.874 -0.21674 -2.97211 0
M  V30 2374 H 210.411 -0.118722 -1.4662 0
M  V30 2375 H 212.369 2.19558 -3.54753 0
M  V30 2376 H 210.999 2.15074 -2.40714 0
M  V30 2377 H 210.051 0.171898 -3.80011 0
M  V30 2378 H 211.363 0.44436 -4.96817 0
M  V30 2379 H 210.517 2.75958 -5.40308 0
M  V30 2380 H 209.256 2.55415 -4.15469 0
M  V30 2381 H 208.261 0.653833 -5.45898 0
M  V30 2382 H 209.486 0.881719 -6.73352 0
M  V30 2383 H 207.432 2.94871 -5.85992 0
M  V30 2384 H 207.349 1.98152 -7.2957 0
M  V30 2385 H 208.617 3.15858 -7.12639 0
M  V30 2386 N 212.846 1.57033 -0.133567 0
M  V30 2387 C 214.095 1.94861 0.520768 0
M  V30 2388 C 214.408 1.02012 1.66892 0
M  V30 2389 O 215.614 1.29365 2.38699 0
M  V30 2390 C 214.07 3.46362 0.977809 0
M  V30 2391 C 213.678 4.47773 -0.142674 0
M  V30 2392 C 215.422 3.93083 1.60269 0
M  V30 2393 C 213.329 5.90468 0.331883 0
M  V30 2394 H 212.259 0.727453 0.198315 0
M  V30 2395 H 214.91 1.82227 -0.215759 0
M  V30 2396 H 213.292 3.54282 1.7692 0
M  V30 2397 H 214.466 4.51536 -0.919317 0
M  V30 2398 H 212.781 4.10891 -0.675124 0
M  V30 2399 H 215.378 4.97121 1.96914 0
M  V30 2400 H 215.721 3.33876 2.48662 0
M  V30 2401 H 216.254 3.88025 0.876453 0
M  V30 2402 H 212.993 6.53463 -0.516341 0
M  V30 2403 H 212.513 5.90094 1.07469 0
M  V30 2404 H 214.192 6.42179 0.788332 0
M  V30 2405 N 214.325 -0.140222 1.56975 0
M  V30 2406 C 215.255 -1.17456 2.01808 0
M  V30 2407 C 216.236 -1.44415 0.898794 0
M  V30 2408 O 217.421 -1.5522 1.16707 0
M  V30 2409 C 214.551 -2.50607 2.40444 0
M  V30 2410 C 213.505 -2.38155 3.55621 0
M  V30 2411 C 212.831 -3.76078 3.80091 0
M  V30 2412 C 214.131 -1.85991 4.88062 0
M  V30 2413 H 215.825 -0.801743 2.88466 0
M  V30 2414 H 213.371 -0.38422 1.38779 0
M  V30 2415 H 215.324 -3.23197 2.7041 0
M  V30 2416 H 214.048 -2.89737 1.50732 0
M  V30 2417 H 212.707 -1.68016 3.25832 0
M  V30 2418 H 212.355 -4.12656 2.87618 0
M  V30 2419 H 212.055 -3.68606 4.57606 0
M  V30 2420 H 213.579 -4.50206 4.12488 0
M  V30 2421 H 214.993 -2.4838 5.16701 0
M  V30 2422 H 213.39 -1.89393 5.6943 0
M  V30 2423 H 214.46 -0.816023 4.77984 0
M  V30 2424 N 215.803 -1.52179 -0.40978 0
M  V30 2425 C 216.753 -1.71857 -1.49831 0
M  V30 2426 C 217.737 -0.572469 -1.50372 0
M  V30 2427 O 218.929 -0.829509 -1.56359 0
M  V30 2428 C 216.058 -1.87206 -2.87765 0
M  V30 2429 C 215.144 -3.07685 -2.91875 0
M  V30 2430 N 215.535 -4.30403 -2.65683 0
M  V30 2431 C 213.833 -3.07505 -3.23043 0
M  V30 2432 C 214.534 -5.11868 -2.76344 0
M  V30 2433 N 213.51 -4.47101 -3.09195 0
M  V30 2434 H 217.312 -2.64381 -1.28375 0
M  V30 2435 H 214.826 -1.50203 -0.617479 0
M  V30 2436 H 216.823 -1.99419 -3.66111 0
M  V30 2437 H 215.483 -0.958814 -3.10221 0
M  V30 2438 H 216.494 -4.58887 -2.4009 0
M  V30 2439 H 213.171 -2.25915 -3.51096 0
M  V30 2440 H 214.561 -6.19634 -2.59814 0
M  V30 2441 N 217.281 0.66697 -1.42791 0
M  V30 2442 C 218.697 0.981027 -1.25889 0
M  V30 2443 C 218.897 2.00793 -0.168695 0
M  V30 2444 O 217.953 2.48321 0.45747 0
M  V30 2445 C 219.266 1.47838 -2.61848 0
M  V30 2446 C 220.814 1.59575 -2.69267 0
M  V30 2447 C 221.289 2.12704 -4.05612 0
M  V30 2448 N 222.78 2.20026 -4.07606 0
M  V30 2449 C 223.515 2.62227 -5.09926 0
M  V30 2450 N 223.011 3.03824 -6.22626 0
M  V30 2451 N 224.804 2.62045 -4.97281 0
M  V30 2452 H 216.955 -0.0127891 -2.12396 0
M  V30 2453 H 219.218 0.0568258 -0.946295 0
M  V30 2454 H 218.924 0.798299 -3.4252 0
M  V30 2455 H 218.798 2.45579 -2.86305 0
M  V30 2456 H 221.185 2.26687 -1.88936 0
M  V30 2457 H 221.266 0.60302 -2.48591 0
M  V30 2458 H 220.91 1.46198 -4.86404 0
M  V30 2459 H 220.84 3.12782 -4.23645 0
M  V30 2460 H 223.331 1.90708 -3.2625 0
M  V30 2461 H 223.644 3.34734 -6.96544 0
M  V30 2462 H 221.989 3.01662 -6.26119 0
M  V30 2463 H 225.18 2.28916 -4.08308 0
M  V30 2464 H 225.353 2.94613 -5.77154 0
M  V30 2465 N 218.759 1.29093 0.90403 0
M  V30 2466 C 220.036 1.075 1.63411 0
M  V30 2467 C 220.416 -0.382346 2.07609 0
M  V30 2468 O 219.764 -1.37031 1.82851 0
M  V30 2469 C 219.974 2.05858 2.81822 0
M  V30 2470 C 221.322 2.36539 3.52611 0
M  V30 2471 O 222.346 2.04019 2.91984 0
M  V30 2472 O 221.205 2.92085 4.61897 0
M  V30 2473 H 218.299 0.411547 0.717327 0
M  V30 2474 H 220.845 1.40449 0.952479 0
M  V30 2475 H 219.617 3.04037 2.46327 0
M  V30 2476 H 219.24 1.73613 3.57693 0
M  V30 2477 N 220.237 -1.11381 1.11499 0
M  V30 2478 C 221.17 -2.16621 0.71769 0
M  V30 2479 C 222.148 -1.60058 -0.286413 0
M  V30 2480 O 223.332 -1.87613 -0.182689 0
M  V30 2481 C 220.459 -3.38646 0.0607265 0
M  V30 2482 C 219.505 -4.13874 1.03008 0
M  V30 2483 S 220.338 -4.70731 2.55289 0
M  V30 2484 C 221.494 -5.96079 1.90895 0
M  V30 2485 H 221.727 -2.49987 1.60915 0
M  V30 2486 H 219.26 -1.23015 0.933092 0
M  V30 2487 H 221.218 -4.09313 -0.311965 0
M  V30 2488 H 219.879 -3.03537 -0.807702 0
M  V30 2489 H 219.072 -5.01333 0.517853 0
M  V30 2490 H 218.674 -3.4897 1.34522 0
M  V30 2491 H 220.966 -6.65948 1.24577 0
M  V30 2492 H 221.909 -6.51946 2.76354 0
M  V30 2493 H 222.317 -5.47652 1.36885 0
M  V30 2494 N 221.715 -0.905404 -1.28997 0
M  V30 2495 C 222.662 -0.385892 -2.27551 0
M  V30 2496 C 223.632 0.535113 -1.57244 0
M  V30 2497 O 224.817 0.459119 -1.85194 0
M  V30 2498 C 221.957 0.375461 -3.43051 0
M  V30 2499 C 221.07 -0.577092 -4.28128 0
M  V30 2500 C 220.205 0.201879 -5.30816 0
M  V30 2501 C 219.244 -0.744829 -6.07551 0
M  V30 2502 N 218.381 9.42587e-05 -7.021 0
M  V30 2503 H 223.221 -1.23139 -2.71368 0
M  V30 2504 H 220.758 -0.618542 -1.33463 0
M  V30 2505 H 222.716 0.832992 -4.088 0
M  V30 2506 H 221.346 1.18537 -3.00248 0
M  V30 2507 H 220.398 -1.15315 -3.62501 0
M  V30 2508 H 221.71 -1.30152 -4.8152 0
M  V30 2509 H 220.864 0.720351 -6.02408 0
M  V30 2510 H 219.603 0.959413 -4.7817 0
M  V30 2511 H 218.608 -1.27475 -5.34818 0
M  V30 2512 H 219.833 -1.50178 -6.62286 0
M  V30 2513 H 217.779 0.739791 -6.51815 0
M  V30 2514 H 217.696 -0.664321 -7.53076 0
M  V30 2515 H 218.964 0.498644 -7.77903 0
M  V30 2516 N 223.193 1.4272 -0.668489 0
M  V30 2517 C 224.156 2.292 0.00448567 0
M  V30 2518 C 225.156 1.43001 0.735339 0
M  V30 2519 O 226.346 1.64461 0.57429 0
M  V30 2520 C 223.478 3.25375 1.01705 0
M  V30 2521 H 224.671 2.90199 -0.756608 0
M  V30 2522 H 222.224 1.50254 -0.430506 0
M  V30 2523 H 222.959 2.69301 1.80686 0
M  V30 2524 H 222.744 3.88944 0.496463 0
M  V30 2525 H 224.234 3.90245 1.48655 0
M  V30 2526 N 224.671 0.411399 1.52136 0
M  V30 2527 C 225.634 -0.401089 2.25663 0
M  V30 2528 C 226.634 -0.971732 1.28117 0
M  V30 2529 O 227.824 -0.850254 1.52041 0
M  V30 2530 C 224.956 -1.56483 3.02863 0
M  V30 2531 H 226.149 0.24295 2.98914 0
M  V30 2532 H 223.702 0.163968 1.55438 0
M  V30 2533 H 224.437 -2.24567 2.33967 0
M  V30 2534 H 224.222 -1.16211 3.74483 0
M  V30 2535 H 225.712 -2.13951 3.58629 0
M  V30 2536 N 226.149 -1.5696 0.141893 0
M  V30 2537 C 227.097 -2.17784 -0.816874 0
M  V30 2538 C 228.091 -1.1334 -1.25899 0
M  V30 2539 O 229.297 -1.316 -1.22806 0
M  V30 2540 H 225.672 -0.697278 -0.281615 0
M  V30 2541 H 227.643 -2.97087 -0.279621 0
M  V30 2542 C 226.392 -2.80983 -2.04802 0
M  V30 2543 H 225.715 -3.61062 -1.7168 0
M  V30 2544 H 227.155 -3.2705 -2.69841 0
M  V30 2545 C 225.614 -1.79228 -2.8527 0
M  V30 2546 O 226.144 -1.25962 -3.8144 0
M  V30 2547 N 224.35 -1.48647 -2.49704 0
M  V30 2548 H 223.897 -1.92155 -1.71564 0
M  V30 2549 H 223.855 -0.808115 -3.03837 0
M  V30 2550 N 227.627 0.131896 -1.57047 0
M  V30 2551 C 228.873 0.843179 -1.84441 0
M  V30 2552 C 229.206 1.80129 -0.725749 0
M  V30 2553 O 228.481 1.92624 0.269469 0
M  V30 2554 C 228.764 1.60442 -3.22382 0
M  V30 2555 C 228.617 0.666782 -4.4483 0
M  V30 2556 C 229.936 2.56354 -3.5773 0
M  V30 2557 H 227.055 0.305081 -0.670891 0
M  V30 2558 H 229.697 0.107839 -1.89694 0
M  V30 2559 H 227.847 2.23128 -3.18035 0
M  V30 2560 H 229.519 0.0497646 -4.61273 0
M  V30 2561 H 227.762 -0.022609 -4.33794 0
M  V30 2562 H 228.433 1.23579 -5.37989 0
M  V30 2563 H 230.909 2.0378 -3.62785 0
M  V30 2564 H 229.785 3.06657 -4.5525 0
M  V30 2565 H 230.046 3.38419 -2.84473 0
M  V30 2566 N 229.106 1.52395 0.401703 0
M  V30 2567 C 230.036 1.79231 1.49661 0
M  V30 2568 C 231.017 0.643654 1.57452 0
M  V30 2569 O 232.202 0.889989 1.72606 0
M  V30 2570 C 229.332 1.94971 2.87409 0
M  V30 2571 C 228.286 3.10604 2.94465 0
M  V30 2572 C 227.612 3.11577 4.34538 0
M  V30 2573 C 228.912 4.49921 2.6527 0
M  V30 2574 H 230.606 2.70917 1.27454 0
M  V30 2575 H 228.152 1.30362 0.6117 0
M  V30 2576 H 230.105 2.12328 3.63999 0
M  V30 2577 H 228.829 0.999632 3.10926 0
M  V30 2578 H 227.488 2.93009 2.20321 0
M  V30 2579 H 227.136 2.14277 4.55076 0
M  V30 2580 H 226.836 3.89247 4.40183 0
M  V30 2581 H 228.36 3.31073 5.13053 0
M  V30 2582 H 229.774 4.67683 3.31581 0
M  V30 2583 H 228.171 5.29564 2.82281 0
M  V30 2584 H 229.241 4.57507 1.60671 0
M  V30 2585 N 230.584 -0.659388 1.43143 0
M  V30 2586 C 231.833 -1.41518 1.43721 0
M  V30 2587 C 232.146 -1.95499 0.0628176 0
M  V30 2588 O 233.352 -2.71446 -0.0539683 0
M  V30 2589 C 231.808 -2.5608 2.52885 0
M  V30 2590 C 231.416 -2.08733 3.96402 0
M  V30 2591 C 233.16 -3.3349 2.62649 0
M  V30 2592 C 231.067 -3.20469 4.97045 0
M  V30 2593 H 229.997 -0.531705 0.534608 0
M  V30 2594 H 232.648 -0.712343 1.69109 0
M  V30 2595 H 231.03 -3.28805 2.20688 0
M  V30 2596 H 232.204 -1.43059 4.3803 0
M  V30 2597 H 230.519 -1.44219 3.90627 0
M  V30 2598 H 233.116 -4.16734 3.35017 0
M  V30 2599 H 233.459 -3.8111 1.67513 0
M  V30 2600 H 233.992 -2.67842 2.94118 0
M  V30 2601 H 230.731 -2.77824 5.93712 0
M  V30 2602 H 230.251 -3.84874 4.60034 0
M  V30 2603 H 231.93 -3.85698 5.19467 0
M  V30 2604 N 232.062 -1.29571 -0.897171 0
M  V30 2605 C 233.29 -1.20583 -1.68129 0
M  V30 2606 C 233.705 0.233181 -1.87354 0
M  V30 2607 O 233.062 1.15579 -1.41236 0
M  V30 2608 C 233.113 -1.91772 -3.06441 0
M  V30 2609 O 232.834 -3.30053 -2.88091 0
M  V30 2610 C 234.335 -1.89291 -4.00854 0
M  V30 2611 H 231.555 -0.417826 -0.525036 0
M  V30 2612 H 234.099 -1.70987 -1.12177 0
M  V30 2613 H 232.254 -1.45196 -3.59161 0
M  V30 2614 H 232.668 -3.65942 -3.75748 0
M  V30 2615 H 234.142 -2.43662 -4.95311 0
M  V30 2616 H 234.619 -0.869014 -4.30517 0
M  V30 2617 H 235.225 -2.35622 -3.54066 0
M  V30 2618 N 233.54 1.10788 -1.12088 0
M  V30 2619 C 234.956 1.34691 -0.856186 0
M  V30 2620 C 235.156 1.94791 0.515615 0
M  V30 2621 O 234.212 2.18524 1.26505 0
M  V30 2622 C 235.525 2.27208 -1.9697 0
M  V30 2623 C 237.073 2.40755 -2.00016 0
M  V30 2624 C 237.548 3.36598 -3.1059 0
M  V30 2625 N 239.039 3.44164 -3.10008 0
M  V30 2626 C 239.774 4.18284 -3.92206 0
M  V30 2627 N 239.27 4.95322 -4.84384 0
M  V30 2628 N 241.063 4.13865 -3.80357 0
M  V30 2629 H 233.214 0.70144 -2.00483 0
M  V30 2630 H 235.477 0.371405 -0.872217 0
M  V30 2631 H 235.183 1.90251 -2.958 0
M  V30 2632 H 235.057 3.27485 -1.87172 0
M  V30 2633 H 237.444 2.76982 -1.01808 0
M  V30 2634 H 237.525 1.40305 -2.13888 0
M  V30 2635 H 237.169 3.01096 -4.09028 0
M  V30 2636 H 237.099 4.36918 -2.93956 0
M  V30 2637 H 239.59 2.8922 -2.43228 0
M  V30 2638 H 239.903 5.49267 -5.43623 0
M  V30 2639 H 238.248 4.94459 -4.884 0
M  V30 2640 H 241.439 3.52773 -3.07683 0
M  V30 2641 H 241.612 4.71372 -4.44649 0
M  V30 2642 N 235.018 0.912232 1.28515 0
M  V30 2643 C 236.295 0.463597 1.90027 0
M  V30 2644 C 236.675 -1.05753 1.82701 0
M  V30 2645 O 236.023 -1.90492 1.26194 0
M  V30 2646 C 236.233 0.992253 3.34597 0
M  V30 2647 C 237.581 1.04344 4.11579 0
M  V30 2648 O 238.605 0.94079 3.43551 0
M  V30 2649 O 237.464 1.1995 5.33174 0
M  V30 2650 H 234.558 0.146666 0.813891 0
M  V30 2651 H 237.104 1.00292 1.36893 0
M  V30 2652 H 235.876 2.03623 3.34146 0
M  V30 2653 H 235.499 0.433672 3.95228 0
M  V30 2654 N 236.496 -1.42363 0.676048 0
M  V30 2655 C 237.744 -2.01123 0.198437 0
M  V30 2656 C 238.065 -1.53731 -1.19966 0
M  V30 2657 O 237.335 -0.759518 -1.80577 0
M  V30 2658 H 235.915 -0.743678 0.0703721 0
M  V30 2659 H 238.577 -1.74263 0.872837 0
M  V30 2660 H 237.673 -3.11454 0.200686 0
M  V30 2661 N 237.974 -0.419461 -1.51915 0
M  V30 2662 C 239.22 0.153166 -2.02221 0
M  V30 2663 C 239.553 1.43907 -1.30401 0
M  V30 2664 O 238.828 1.90055 -0.413438 0
M  V30 2665 C 239.111 0.390291 -3.57979 0
M  V30 2666 C 238.964 -0.913014 -4.40436 0
M  V30 2667 C 240.283 1.16794 -4.2432 0
M  V30 2668 H 237.402 0.0541924 -0.735005 0
M  V30 2669 H 240.044 -0.554955 -1.81715 0
M  V30 2670 H 238.194 0.993491 -3.75582 0
M  V30 2671 H 239.866 -1.54882 -4.34522 0
M  V30 2672 H 238.109 -1.52168 -4.06236 0
M  V30 2673 H 238.78 -0.701361 -5.47526 0
M  V30 2674 H 241.256 0.657161 -4.10878 0
M  V30 2675 H 240.132 1.3026 -5.3322 0
M  V30 2676 H 240.393 2.19132 -3.83971 0
M  V30 2677 N 239.452 1.56882 -0.150215 0
M  V30 2678 C 240.382 2.19935 0.784284 0
M  V30 2679 C 241.363 1.14854 1.25469 0
M  V30 2680 O 242.548 1.43209 1.31168 0
M  V30 2681 C 239.678 2.82349 2.02229 0
M  V30 2682 C 238.632 3.93285 1.68853 0
M  V30 2683 C 237.958 4.42649 2.99944 0
M  V30 2684 C 239.258 5.13904 0.932714 0
M  V30 2685 H 240.952 2.9828 0.258781 0
M  V30 2686 H 238.498 1.43473 0.123029 0
M  V30 2687 H 240.451 3.25126 2.68088 0
M  V30 2688 H 239.175 2.0134 2.57157 0
M  V30 2689 H 237.834 3.5113 1.05371 0
M  V30 2690 H 237.482 3.58458 3.52869 0
M  V30 2691 H 237.182 5.17476 2.78374 0
M  V30 2692 H 238.706 4.88099 3.66868 0
M  V30 2693 H 240.12 5.53506 1.49345 0
M  V30 2694 H 238.517 5.94515 0.81684 0
M  V30 2695 H 239.587 4.84842 -0.0749568 0
M  V30 2696 N 240.93 -0.123565 1.57115 0
M  V30 2697 C 241.877 -1.15177 2.00007 0
M  V30 2698 C 242.847 -1.41403 0.871454 0
M  V30 2699 O 244.032 -1.53346 1.13533 0
M  V30 2700 C 241.172 -2.47436 2.40561 0
M  V30 2701 C 240.285 -2.28184 3.66819 0
M  V30 2702 C 239.42 -3.53641 3.96373 0
M  V30 2703 C 238.459 -3.29528 5.15827 0
M  V30 2704 N 237.596 -4.47175 5.41275 0
M  V30 2705 H 242.436 -0.779008 2.87638 0
M  V30 2706 H 239.973 -0.373166 1.42288 0
M  V30 2707 H 241.931 -3.24584 2.62109 0
M  V30 2708 H 240.561 -2.82614 1.55978 0
M  V30 2709 H 239.613 -1.41976 3.52912 0
M  V30 2710 H 240.925 -2.0634 4.5412 0
M  V30 2711 H 240.079 -4.39209 4.18545 0
M  V30 2712 H 238.818 -3.78512 3.07538 0
M  V30 2713 H 237.823 -2.42349 4.93505 0
M  V30 2714 H 239.048 -3.06031 6.06236 0
M  V30 2715 H 236.994 -4.72175 4.55397 0
M  V30 2716 H 236.911 -4.28419 6.22891 0
M  V30 2717 H 238.179 -5.3389 5.67963 0
M  V30 2718 N 242.408 -1.52605 -0.393616 0
M  V30 2719 C 243.338 -1.80022 -1.48709 0
M  V30 2720 C 244.319 -0.651995 -1.57108 0
M  V30 2721 O 245.504 -0.89913 -1.72132 0
M  V30 2722 C 242.634 -1.96492 -2.86371 0
M  V30 2723 C 241.588 -3.12161 -2.92813 0
M  V30 2724 C 240.914 -3.13877 -4.3288 0
M  V30 2725 C 242.214 -4.51322 -2.6288 0
M  V30 2726 H 243.908 -2.71589 -1.26015 0
M  V30 2727 H 241.454 -1.30684 -0.604778 0
M  V30 2728 H 243.407 -2.14255 -3.62867 0
M  V30 2729 H 242.131 -1.01611 -3.10391 0
M  V30 2730 H 240.79 -2.94173 -2.18764 0
M  V30 2731 H 240.438 -2.16687 -4.53933 0
M  V30 2732 H 240.138 -3.91576 -4.38112 0
M  V30 2733 H 241.662 -3.33789 -5.1129 0
M  V30 2734 H 243.076 -4.69435 -3.29096 0
M  V30 2735 H 241.473 -5.31053 -2.79468 0
M  V30 2736 H 242.543 -4.58353 -1.58242 0
M  V30 2737 N 243.887 0.651787 -1.4349 0
M  V30 2738 C 244.85 1.74647 -1.48429 0
M  V30 2739 C 245.85 1.56513 -0.368817 0
M  V30 2740 O 247.04 1.62385 -0.630623 0
M  V30 2741 C 244.172 3.13533 -1.33827 0
M  V30 2742 H 245.365 1.71649 -2.4592 0
M  V30 2743 H 242.918 0.863573 -1.30277 0
M  V30 2744 H 243.653 3.22142 -0.37349 0
M  V30 2745 H 243.438 3.28101 -2.14691 0
M  V30 2746 H 244.928 3.93356 -1.40218 0
M  V30 2747 N 245.365 1.30045 0.890287 0
M  V30 2748 C 246.642 1.09227 1.62262 0
M  V30 2749 C 247.022 -0.360305 2.08002 0
M  V30 2750 O 246.37 -1.35084 1.84295 0
M  V30 2751 C 246.58 2.08835 2.79623 0
M  V30 2752 C 247.928 2.40266 3.50082 0
M  V30 2753 O 248.952 2.07104 2.89804 0
M  V30 2754 O 247.811 2.96967 4.58773 0
M  V30 2755 H 244.905 0.419132 0.712922 0
M  V30 2756 H 247.451 1.41451 0.937529 0
M  V30 2757 H 246.223 3.06633 2.43089 0
M  V30 2758 H 245.846 1.77397 3.55832 0
M  V30 2759 N 246.843 -1.10192 1.12674 0
M  V30 2760 C 248.09 -1.82205 0.883606 0
M  V30 2761 C 248.418 -1.8532 -0.590492 0
M  V30 2762 O 247.673 -1.31137 -1.45264 0
M  V30 2763 C 247.972 -3.28552 1.4067 0
M  V30 2764 C 247.638 -3.45582 2.89627 0
M  V30 2765 C 246.3 -3.49937 3.30299 0
M  V30 2766 C 248.652 -3.50768 3.85501 0
M  V30 2767 C 245.98 -3.57049 4.65546 0
M  V30 2768 C 248.332 -3.59414 5.20581 0
M  V30 2769 C 246.996 -3.62034 5.60792 0
M  V30 2770 H 246.266 -0.666735 0.323334 0
M  V30 2771 H 248.913 -1.29868 1.40736 0
M  V30 2772 H 247.218 -3.83473 0.80347 0
M  V30 2773 H 248.915 -3.82788 1.19475 0
M  V30 2774 H 245.505 -3.42871 2.57172 0
M  V30 2775 H 249.689 -3.46651 3.55171 0
M  V30 2776 H 244.945 -3.57361 4.96088 0
M  V30 2777 H 249.119 -3.62371 5.94693 0
M  V30 2778 H 246.746 -3.67298 6.6558 0
M  V30 2779 N 248.321 -0.919034 -1.28029 0
M  V30 2780 C 249.569 -0.553838 -1.94363 0
M  V30 2781 C 249.89 0.906357 -1.72656 0
M  V30 2782 O 249.16 1.64143 -1.0693 0
M  V30 2783 H 247.74 -0.201834 -0.719216 0
M  V30 2784 H 250.402 -1.16954 -1.55909 0
M  V30 2785 H 249.498 -0.752758 -3.02886 0
M  V30 2786 N 249.799 1.42003 -0.683588 0
M  V30 2787 C 250.729 2.33487 -0.024866 0
M  V30 2788 C 251.71 1.51163 0.779975 0
M  V30 2789 O 252.895 1.79739 0.735362 0
M  V30 2790 C 250.025 3.3487 0.920836 0
M  V30 2791 C 248.979 4.27414 0.223958 0
M  V30 2792 C 248.305 5.19074 1.2832 0
M  V30 2793 C 249.605 5.14445 -0.90242 0
M  V30 2794 H 251.299 2.88819 -0.788921 0
M  V30 2795 H 248.845 1.38873 -0.38083 0
M  V30 2796 H 250.798 3.97787 1.39081 0
M  V30 2797 H 249.522 2.77861 1.71642 0
M  V30 2798 H 248.181 3.65904 -0.225864 0
M  V30 2799 H 247.829 4.58387 2.071 0
M  V30 2800 H 247.529 5.81822 0.821995 0
M  V30 2801 H 249.053 5.84867 1.75392 0
M  V30 2802 H 250.467 5.70998 -0.513272 0
M  V30 2803 H 248.864 5.86072 -1.28997 0
M  V30 2804 H 249.934 4.52322 -1.74737 0
M  V30 2805 N 251.277 0.427512 1.51691 0
M  V30 2806 C 252.24 -0.377132 2.26076 0
M  V30 2807 C 253.24 -0.958089 1.29141 0
M  V30 2808 O 254.43 -0.83408 1.52934 0
M  V30 2809 C 251.562 -1.53262 3.04506 0
M  V30 2810 H 252.755 0.27464 2.9864 0
M  V30 2811 H 250.308 0.180445 1.55255 0
M  V30 2812 H 251.043 -2.22072 2.36335 0
M  V30 2813 H 250.828 -1.12232 3.75694 0
M  V30 2814 H 252.318 -2.10135 3.60878 0
M  V30 2815 N 252.755 -1.56801 0.158532 0
M  V30 2816 C 254.171 -1.5837 -0.197774 0
M  V30 2817 C 254.371 -1.17334 -1.63814 0
M  V30 2818 O 253.427 -0.878988 -2.36707 0
M  V30 2819 C 254.74 -3.00615 0.0714459 0
M  V30 2820 C 256.288 -3.12999 0.00864533 0
M  V30 2821 C 256.763 -4.57313 0.250685 0
M  V30 2822 N 258.254 -4.62777 0.198014 0
M  V30 2823 C 258.989 -5.72271 0.359642 0
M  V30 2824 N 258.485 -6.90371 0.579625 0
M  V30 2825 N 260.278 -5.61318 0.296438 0
M  V30 2826 H 252.429 -1.81765 1.09887 0
M  V30 2827 H 254.692 -0.841849 0.435884 0
M  V30 2828 H 254.398 -3.35068 1.06874 0
M  V30 2829 H 254.272 -3.71683 -0.642757 0
M  V30 2830 H 256.659 -2.7838 -0.979217 0
M  V30 2831 H 256.74 -2.44393 0.755359 0
M  V30 2832 H 256.384 -4.92639 1.2357 0
M  V30 2833 H 256.314 -5.24061 -0.516489 0
M  V30 2834 H 258.805 -3.77885 0.0331115 0
M  V30 2835 H 259.118 -7.69689 0.69275 0
M  V30 2836 H 257.463 -6.92264 0.616087 0
M  V30 2837 H 260.654 -4.67932 0.125258 0
M  V30 2838 H 260.827 -6.46599 0.425831 0
M  V30 2839 N 254.233 0.115231 -1.57178 0
M  V30 2840 C 255.196 1.12526 -1.99676 0
M  V30 2841 C 256.196 1.34095 -0.88742 0
M  V30 2842 O 257.386 1.30548 -1.15337 0
M  V30 2843 C 254.518 2.4789 -2.34015 0
M  V30 2844 H 255.711 0.759912 -2.90113 0
M  V30 2845 H 253.264 0.359648 -1.52106 0
M  V30 2846 H 253.999 2.89339 -1.4647 0
M  V30 2847 H 253.784 2.33588 -3.14927 0
M  V30 2848 H 255.274 3.20575 -2.67622 0
M  V30 2849 N 255.711 1.52812 0.385517 0
M  V30 2850 C 256.958 1.68026 1.1302 0
M  V30 2851 C 257.286 0.421934 1.89868 0
M  V30 2852 O 256.541 -0.595749 1.86412 0
M  V30 2853 C 256.84 2.86856 2.13187 0
M  V30 2854 C 256.506 4.24159 1.5297 0
M  V30 2855 C 255.168 4.61501 1.36274 0
M  V30 2856 C 257.52 5.09627 1.09223 0
M  V30 2857 C 254.848 5.81966 0.743837 0
M  V30 2858 C 257.2 6.30719 0.487411 0
M  V30 2859 C 255.864 6.6679 0.307777 0
M  V30 2860 H 255.134 0.614849 0.413571 0
M  V30 2861 H 257.781 1.86962 0.414405 0
M  V30 2862 H 256.086 2.6235 2.90998 0
M  V30 2863 H 257.783 2.95821 2.70722 0
M  V30 2864 H 254.373 3.94746 1.66954 0
M  V30 2865 H 258.557 4.81343 1.20922 0
M  V30 2866 H 253.813 6.08519 0.592891 0
M  V30 2867 H 257.987 6.96259 0.140143 0
M  V30 2868 H 255.614 7.60001 -0.173879 0
M  V30 2869 N 257.189 -0.644168 1.43834 0
M  V30 2870 C 258.414 -1.43642 1.49605 0
M  V30 2871 C 258.839 -1.8773 0.117913 0
M  V30 2872 O 258.197 -1.57938 -0.890239 0
M  V30 2873 C 258.245 -2.6416 2.45463 0
M  V30 2874 O 257.349 -3.63538 1.94714 0
M  V30 2875 H 256.69 -0.430329 0.50568 0
M  V30 2876 H 259.22 -0.787448 1.8884 0
M  V30 2877 H 259.23 -3.11864 2.63068 0
M  V30 2878 H 257.905 -2.31414 3.45572 0
M  V30 2879 H 256.482 -3.2273 1.86814 0
M  V30 2880 N 258.668 -1.30515 -0.883378 0
M  V30 2881 C 259.598 -1.19607 -2.00541 0
M  V30 2882 C 260.579 -0.086346 -1.69881 0
M  V30 2883 O 261.764 -0.268654 -1.92333 0
M  V30 2884 C 258.894 -0.888758 -3.35736 0
M  V30 2885 C 257.848 -1.95659 -3.8066 0
M  V30 2886 C 257.174 -1.50224 -5.13164 0
M  V30 2887 C 258.474 -3.36788 -3.99213 0
M  V30 2888 H 260.168 -2.13476 -2.09925 0
M  V30 2889 H 257.714 -1.02775 -1.00863 0
M  V30 2890 H 259.667 -0.799094 -4.13754 0
M  V30 2891 H 258.391 0.0856125 -3.26488 0
M  V30 2892 H 257.05 -2.03591 -3.04871 0
M  V30 2893 H 256.698 -0.516092 -5.00345 0
M  V30 2894 H 256.398 -2.2165 -5.44192 0
M  V30 2895 H 257.922 -1.42639 -5.93706 0
M  V30 2896 H 259.336 -3.31605 -4.67665 0
M  V30 2897 H 257.733 -4.06314 -4.41621 0
M  V30 2898 H 258.803 -3.78561 -3.03017 0
M  V30 2899 N 260.146 1.09593 -1.13257 0
M  V30 2900 C 261.109 2.14359 -0.811358 0
M  V30 2901 C 262.109 1.59808 0.178377 0
M  V30 2902 O 263.299 1.74132 -0.0484911 0
M  V30 2903 C 260.431 3.40269 -0.207276 0
M  V30 2904 H 261.624 2.44284 -1.73969 0
M  V30 2905 H 259.177 1.25102 -0.936973 0
M  V30 2906 H 259.912 3.15969 0.73036 0
M  V30 2907 H 259.697 3.81154 -0.919992 0
M  V30 2908 H 261.187 4.176 0.000667944 0
M  V30 2909 N 261.624 0.925811 1.2754 0
M  V30 2910 C 262.571 0.422045 2.26908 0
M  V30 2911 C 263.541 -0.510029 1.58076 0
M  V30 2912 O 264.726 -0.429599 1.85901 0
M  V30 2913 C 261.866 -0.320837 3.43605 0
M  V30 2914 C 260.979 0.64513 4.27156 0
M  V30 2915 C 260.114 -0.117405 5.3107 0
M  V30 2916 C 259.153 0.841391 6.0629 0
M  V30 2917 N 258.29 0.111604 7.02011 0
M  V30 2918 H 263.13 1.27441 2.69375 0
M  V30 2919 H 260.667 0.639697 1.32462 0
M  V30 2920 H 262.625 -0.76785 4.10073 0
M  V30 2921 H 261.255 -1.13745 3.02096 0
M  V30 2922 H 260.307 1.21067 3.6062 0
M  V30 2923 H 261.619 1.37797 4.79389 0
M  V30 2924 H 260.773 -0.624422 6.03478 0
M  V30 2925 H 259.512 -0.883219 4.79636 0
M  V30 2926 H 258.517 1.35967 5.32722 0
M  V30 2927 H 259.742 1.60696 6.59813 0
M  V30 2928 H 257.688 -0.635999 6.5291 0
M  V30 2929 H 257.605 0.784044 7.51923 0
M  V30 2930 H 258.873 -0.374823 7.78598 0
M  V30 2931 N 263.102 -1.41638 0.69111 0
M  V30 2932 C 264.05 -2.32597 0.0115199 0
M  V30 2933 C 265.044 -1.5072 -0.773296 0
M  V30 2934 O 266.25 -1.66685 -0.67942 0
M  V30 2935 H 262.625 -0.751849 -0.0150746 0
M  V30 2936 H 264.596 -2.87593 0.795791 0
M  V30 2937 C 263.345 -3.35467 -0.914172 0
M  V30 2938 H 262.668 -3.9852 -0.319687 0
M  V30 2939 H 264.108 -4.01662 -1.35808 0
M  V30 2940 C 262.567 -2.69004 -2.02826 0
M  V30 2941 O 263.097 -2.53444 -3.11655 0
M  V30 2942 N 261.303 -2.2777 -1.80469 0
M  V30 2943 H 260.85 -2.40626 -0.919615 0
M  V30 2944 H 260.808 -1.83635 -2.55197 0
M  V30 2945 N 264.58 -0.43555 -1.51462 0
M  V30 2946 C 265.805 0.132627 -2.06976 0
M  V30 2947 C 266.23 1.35848 -1.30104 0
M  V30 2948 O 265.588 1.78112 -0.338493 0
M  V30 2949 C 265.636 0.43523 -3.57964 0
M  V30 2950 O 264.74 1.52198 -3.83288 0
M  V30 2951 H 264.081 0.00265 -0.663995 0
M  V30 2952 H 266.611 -0.616369 -1.95095 0
M  V30 2953 H 266.621 0.686206 -4.02188 0
M  V30 2954 H 265.296 -0.460739 -4.1334 0
M  V30 2955 H 263.873 1.2611 -3.50928 0
M  V30 2956 N 266.058 1.56714 -0.166846 0
M  V30 2957 C 266.99 2.14914 0.796537 0
M  V30 2958 C 268.003 1.10357 1.19688 0
M  V30 2959 O 269.192 1.37561 1.13751 0
M  V30 2960 C 266.292 2.67326 2.08303 0
M  V30 2961 C 265.465 3.96493 1.84696 0
M  V30 2962 C 264.524 4.34014 2.97521 0
M  V30 2963 O 263.55 5.01973 2.6835 0
M  V30 2964 N 264.752 3.95208 4.25196 0
M  V30 2965 H 267.517 2.98205 0.299006 0
M  V30 2966 H 265.078 1.61892 0.0160839 0
M  V30 2967 H 267.07 2.89428 2.82867 0
M  V30 2968 H 265.64 1.88649 2.4926 0
M  V30 2969 H 264.86 3.82814 0.940602 0
M  V30 2970 H 266.148 4.8086 1.66285 0
M  V30 2971 H 265.546 3.40487 4.51758 0
M  V30 2972 H 264.103 4.2232 4.96477 0
M  V30 2973 N 267.536 -0.106894 1.57237 0
M  V30 2974 C 268.947 -0.662723 1.74542 0
M  V30 2975 C 269.298 -1.7971 0.787319 0
M  V30 2976 O 268.423 -2.16368 -0.0369636 0
M  V30 2977 C 269.018 -1.20896 3.16496 0
M  V30 2978 C 267.577 -1.71096 3.35266 0
M  V30 2979 C 266.724 -0.615642 2.7038 0
M  V30 2980 H 269.675 0.119106 1.58252 0
M  V30 2981 H 269.696 -2.07847 3.18716 0
M  V30 2982 H 269.208 -0.383122 3.86204 0
M  V30 2983 H 267.309 -2.56119 2.70618 0
M  V30 2984 H 267.422 -1.81208 4.43509 0
M  V30 2985 H 265.786 -1.05222 2.31949 0
M  V30 2986 H 266.569 0.199419 3.4272 0
M  V30 2987 N 269.014 -1.53014 -0.377408 0
M  V30 2988 C 269.962 -1.7927 -1.48206 0
M  V30 2989 C 270.956 -0.661195 -1.55963 0
M  V30 2990 O 272.162 -0.843908 -1.58991 0
M  V30 2991 H 268.537 -0.567425 -0.493491 0
M  V30 2992 H 270.508 -2.71753 -1.2326 0
M  V30 2993 C 269.257 -1.98894 -2.85196 0
M  V30 2994 H 268.58 -2.85395 -2.79981 0
M  V30 2995 H 270.02 -2.21249 -3.61698 0
M  V30 2996 C 268.479 -0.764691 -3.28107 0
M  V30 2997 O 269.009 0.0523226 -4.01666 0
M  V30 2998 N 267.215 -0.591493 -2.84517 0
M  V30 2999 H 266.762 -1.25749 -2.24822 0
M  V30 3000 H 266.72 0.226253 -3.13585 0
M  V30 3001 N 270.492 0.636531 -1.44174 0
M  V30 3002 C 271.908 0.954104 -1.27941 0
M  V30 3003 C 272.108 2.0039 -0.211248 0
M  V30 3004 O 271.164 2.49236 0.404695 0
M  V30 3005 C 272.477 1.4225 -2.64925 0
M  V30 3006 C 274.025 1.53827 -2.72592 0
M  V30 3007 C 274.5 2.04053 -4.10032 0
M  V30 3008 N 275.991 2.11331 -4.12182 0
M  V30 3009 C 276.726 2.51352 -5.15374 0
M  V30 3010 N 276.222 2.90549 -6.2893 0
M  V30 3011 N 278.015 2.51438 -5.02728 0
M  V30 3012 H 270.166 -0.0578386 -2.12321 0
M  V30 3013 H 272.429 0.0367406 -0.947288 0
M  V30 3014 H 272.135 0.725466 -3.44136 0
M  V30 3015 H 272.009 2.39451 -2.9145 0
M  V30 3016 H 274.396 2.22628 -1.93702 0
M  V30 3017 H 274.477 0.550154 -2.49814 0
M  V30 3018 H 274.121 1.35848 -4.89395 0
M  V30 3019 H 274.051 3.03726 -4.30184 0
M  V30 3020 H 276.542 1.83745 -3.30222 0
M  V30 3021 H 276.855 3.19884 -7.03487 0
M  V30 3022 H 275.2 2.88313 -6.32377 0
M  V30 3023 H 278.391 2.20203 -4.13072 0
M  V30 3024 H 278.564 2.82304 -5.83274 0
M  V30 3025 N 271.97 1.30982 0.876444 0
M  V30 3026 C 273.2 1.23063 1.65949 0
M  V30 3027 C 273.608 -0.207537 1.88058 0
M  V30 3028 O 272.951 -1.14781 1.43426 0
M  V30 3029 C 273.013 1.89768 3.05333 0
M  V30 3030 C 272.677 3.39106 3.0636 0
M  V30 3031 C 273.674 4.3496 2.84791 0
M  V30 3032 C 271.359 3.80693 3.27686 0
M  V30 3033 C 273.353 5.70375 2.84519 0
M  V30 3034 C 271.04 5.16223 3.27043 0
M  V30 3035 C 272.038 6.10875 3.05485 0
M  V30 3036 O 271.726 7.43928 3.04674 0
M  V30 3037 H 271.458 0.426685 0.524324 0
M  V30 3038 H 274.012 1.7329 1.10271 0
M  V30 3039 H 272.242 1.34082 3.6271 0
M  V30 3040 H 273.931 1.75853 3.65829 0
M  V30 3041 H 274.697 4.0416 2.68103 0
M  V30 3042 H 270.576 3.07457 3.43499 0
M  V30 3043 H 274.12 6.44228 2.67611 0
M  V30 3044 H 270.017 5.4666 3.43269 0
M  V30 3045 H 270.785 7.53022 3.2078 0
M  V30 3046 N 273.449 -1.08991 1.13837 0
M  V30 3047 C 274.677 -1.85011 0.926202 0
M  V30 3048 C 275.092 -1.8135 -0.525127 0
M  V30 3049 O 274.449 -1.21287 -1.36366 0
M  V30 3050 C 274.5 -3.32802 1.41155 0
M  V30 3051 O 274.221 -3.36444 2.80601 0
M  V30 3052 C 275.722 -4.25649 1.23847 0
M  V30 3053 H 272.942 -0.584249 0.32999 0
M  V30 3054 H 275.486 -1.37688 1.51202 0
M  V30 3055 H 273.641 -3.77536 0.868631 0
M  V30 3056 H 274.055 -4.28657 3.02248 0
M  V30 3057 H 275.529 -5.27485 1.62675 0
M  V30 3058 H 276.006 -4.38828 0.18065 0
M  V30 3059 H 276.612 -3.86735 1.76964 0
M  V30 3060 N 274.927 -0.932562 -1.27047 0
M  V30 3061 C 275.875 -0.42603 -2.28665 0
M  V30 3062 C 276.869 0.49219 -1.62092 0
M  V30 3063 O 278.075 0.371355 -1.76128 0
M  V30 3064 H 274.45 -0.119213 -0.742491 0
M  V30 3065 H 276.421 -1.29579 -2.68797 0
M  V30 3066 C 275.17 0.301426 -3.46391 0
M  V30 3067 H 274.493 -0.39595 -3.97834 0
M  V30 3068 H 275.933 0.6202 -4.1944 0
M  V30 3069 C 274.392 1.51616 -3.00856 0
M  V30 3070 O 274.922 2.61476 -3.04948 0
M  V30 3071 N 273.128 1.36969 -2.56296 0
M  V30 3072 H 272.675 0.475873 -2.53166 0
M  V30 3073 H 272.633 2.18368 -2.26192 0
M  V30 3074 N 276.405 1.4127 -0.698611 0
M  V30 3075 C 277.821 1.55241 -0.370462 0
M  V30 3076 C 278.021 1.67351 1.12231 0
M  V30 3077 O 277.077 1.65363 1.90818 0
M  V30 3078 C 278.39 2.78997 -1.12165 0
M  V30 3079 C 279.938 2.92797 -1.1063 0
M  V30 3080 C 280.413 4.19445 -1.8393 0
M  V30 3081 N 281.904 4.26409 -1.80914 0
M  V30 3082 C 282.639 5.23271 -2.34467 0
M  V30 3083 N 282.135 6.26145 -2.96504 0
M  V30 3084 N 283.928 5.15232 -2.24706 0
M  V30 3085 H 276.079 1.31654 -1.66676 0
M  V30 3086 H 278.342 0.635393 -0.703548 0
M  V30 3087 H 278.048 2.76268 -2.17644 0
M  V30 3088 H 277.922 3.70606 -0.702209 0
M  V30 3089 H 280.309 2.95039 -0.0597713 0
M  V30 3090 H 280.39 2.02353 -1.56483 0
M  V30 3091 H 280.034 4.17964 -2.88563 0
M  V30 3092 H 279.964 5.08866 -1.35509 0
M  V30 3093 H 282.455 3.527 -1.35687 0
M  V30 3094 H 282.768 6.96451 -3.34927 0
M  V30 3095 H 281.113 6.26638 -3.00583 0
M  V30 3096 H 284.304 4.33789 -1.7591 0
M  V30 3097 H 284.477 5.90552 -2.66745 0
M  V30 3098 N 277.883 0.443576 1.51229 0
M  V30 3099 C 279.129 -0.120975 2.02439 0
M  V30 3100 C 279.462 -1.41815 1.32674 0
M  V30 3101 O 278.737 -1.89373 0.443622 0
M  V30 3102 C 279.02 -0.333291 3.58554 0
M  V30 3103 C 278.873 0.982968 4.38928 0
M  V30 3104 C 280.192 -1.10028 4.26124 0
M  V30 3105 H 277.311 -0.0424923 0.735774 0
M  V30 3106 H 279.953 0.583794 1.80809 0
M  V30 3107 H 278.103 -0.933614 3.77115 0
M  V30 3108 H 279.775 1.61775 4.32003 0
M  V30 3109 H 278.018 1.58611 4.03763 0
M  V30 3110 H 278.689 0.788379 5.46341 0
M  V30 3111 H 281.165 -0.591711 4.11871 0
M  V30 3112 H 280.041 -1.21761 5.35225 0
M  V30 3113 H 280.302 -2.12996 3.87408 0
M  V30 3114 N 279.361 -1.56624 0.175154 0
M  V30 3115 C 280.607 -1.9729 -0.469506 0
M  V30 3116 C 280.94 -1.06128 -1.62636 0
M  V30 3117 O 280.215 -0.109183 -1.94193 0
M  V30 3118 C 280.498 -3.47375 -0.948804 0
M  V30 3119 C 280.351 -4.49317 0.208491 0
M  V30 3120 C 281.67 -4.00652 -1.82116 0
M  V30 3121 H 278.789 -0.717317 -0.16919 0
M  V30 3122 H 281.431 -1.88184 0.262062 0
M  V30 3123 H 279.581 -3.55267 -1.57219 0
M  V30 3124 H 281.253 -4.53482 0.845682 0
M  V30 3125 H 279.496 -4.25121 0.863395 0
M  V30 3126 H 280.167 -5.51741 -0.169059 0
M  V30 3127 H 282.643 -3.95416 -1.2956 0
M  V30 3128 H 281.519 -5.06075 -2.12554 0
M  V30 3129 H 281.78 -3.44699 -2.7683 0
M  V30 3130 N 280.839 0.0985539 -1.57292 0
M  V30 3131 C 282.067 0.816318 -1.90115 0
M  V30 3132 C 282.482 1.72451 -0.768509 0
M  V30 3133 O 281.839 1.80643 0.259687 0
M  V30 3134 C 281.89 1.63259 -3.22535 0
M  V30 3135 O 281.611 0.760934 -4.31441 0
M  V30 3136 C 283.112 2.45372 -3.69199 0
M  V30 3137 H 280.332 0.233595 -0.629027 0
M  V30 3138 H 282.876 0.0768229 -2.04356 0
M  V30 3139 H 281.031 2.32463 -3.09903 0
M  V30 3140 H 281.445 1.32595 -5.07463 0
M  V30 3141 H 282.919 2.98144 -4.64558 0
M  V30 3142 H 283.396 3.23677 -2.96867 0
M  V30 3143 H 284.002 1.81373 -3.84687 0
M  V30 3144 N 282.317 1.53212 0.369288 0
M  V30 3145 C 283.247 1.82365 1.45826 0
M  V30 3146 C 284.228 0.676907 1.56051 0
M  V30 3147 O 285.413 0.926401 1.70679 0
M  V30 3148 C 282.543 2.01023 2.83208 0
M  V30 3149 C 281.497 3.1678 2.8781 0
M  V30 3150 C 280.823 3.20724 4.27832 0
M  V30 3151 C 282.123 4.55447 2.55667 0
M  V30 3152 H 283.817 2.73559 1.21678 0
M  V30 3153 H 281.363 1.3163 0.583911 0
M  V30 3154 H 283.316 2.20001 3.59413 0
M  V30 3155 H 282.04 1.06536 3.08736 0
M  V30 3156 H 280.699 2.97616 2.14056 0
M  V30 3157 H 280.347 2.23882 4.50429 0
M  V30 3158 H 280.047 3.98496 4.31827 0
M  V30 3159 H 281.571 3.41881 5.05915 0
M  V30 3160 H 282.985 4.74611 3.21586 0
M  V30 3161 H 281.382 5.35432 2.70984 0
M  V30 3162 H 282.452 4.60812 1.5093 0
M  V30 3163 N 283.795 -0.628877 1.44509 0
M  V30 3164 C 285.041 -1.38863 1.48623 0
M  V30 3165 C 285.396 -1.92038 0.117933 0
M  V30 3166 O 284.689 -1.70853 -0.86716 0
M  V30 3167 C 284.883 -2.56995 2.48371 0
M  V30 3168 C 284.712 -2.15385 3.94765 0
M  V30 3169 C 283.482 -2.02558 4.62924 0
M  V30 3170 C 285.68 -1.74158 4.83915 0
M  V30 3171 N 283.662 -1.54534 5.94132 0
M  V30 3172 C 285.033 -1.37396 6.04584 0
M  V30 3173 C 287.088 -1.61559 4.7096 0
M  V30 3174 C 285.791 -0.892948 7.13736 0
M  V30 3175 C 287.817 -1.14862 5.80139 0
M  V30 3176 C 287.179 -0.790516 6.9995 0
M  V30 3177 H 283.278 -0.502858 0.59888 0
M  V30 3178 H 285.862 -0.72121 1.8085 0
M  V30 3179 H 284.033 -3.21362 2.1813 0
M  V30 3180 H 285.765 -3.23801 2.42766 0
M  V30 3181 H 282.52 -2.23082 4.1777 0
M  V30 3182 H 282.944 -1.32815 6.63844 0
M  V30 3183 H 287.586 -1.87876 3.78764 0
M  V30 3184 H 285.304 -0.617291 8.05739 0
M  V30 3185 H 288.89 -1.05569 5.72142 0
M  V30 3186 H 287.77 -0.434713 7.82994 0
M  V30 3187 N 285.273 -1.31445 -0.869486 0
M  V30 3188 C 286.503 -1.23942 -1.65294 0
M  V30 3189 C 286.911 0.197561 -1.88166 0
M  V30 3190 O 286.254 1.14019 -1.44033 0
M  V30 3191 C 286.316 -1.91385 -3.04322 0
M  V30 3192 C 285.98 -3.40726 -3.04557 0
M  V30 3193 C 286.977 -4.36464 -2.82481 0
M  V30 3194 C 284.662 -3.82425 -3.25663 0
M  V30 3195 C 286.656 -5.71876 -2.8149 0
M  V30 3196 C 284.343 -5.1795 -3.243 0
M  V30 3197 C 285.341 -6.12486 -3.02241 0
M  V30 3198 O 285.029 -7.45534 -3.00724 0
M  V30 3199 H 284.761 -0.429459 -0.522054 0
M  V30 3200 H 287.315 -1.73873 -1.0935 0
M  V30 3201 H 285.545 -1.36004 -3.61994 0
M  V30 3202 H 287.234 -1.77791 -3.64891 0
M  V30 3203 H 288 -4.05576 -2.65956 0
M  V30 3204 H 283.879 -3.09274 -3.41863 0
M  V30 3205 H 287.423 -6.45638 -2.64191 0
M  V30 3206 H 283.32 -5.48473 -3.40365 0
M  V30 3207 H 284.088 -7.54713 -3.16782 0
M  V30 3208 N 286.751 1.08385 -1.14413 0
M  V30 3209 C 288.167 1.32844 -0.884563 0
M  V30 3210 C 288.367 1.95841 0.474181 0
M  V30 3211 O 287.423 2.21158 1.21842 0
M  V30 3212 C 288.736 2.22978 -2.01745 0
M  V30 3213 C 290.284 2.36458 -2.05077 0
M  V30 3214 C 290.759 3.29934 -3.1766 0
M  V30 3215 N 292.25 3.37511 -3.17239 0
M  V30 3216 C 292.985 4.09871 -4.0099 0
M  V30 3217 N 292.481 4.84936 -4.94781 0
M  V30 3218 N 294.274 4.05704 -3.89051 0
M  V30 3219 H 286.425 0.658756 -2.01926 0
M  V30 3220 H 288.688 0.352821 -0.879899 0
M  V30 3221 H 288.394 1.83934 -2.99769 0
M  V30 3222 H 288.268 3.23441 -1.94077 0
M  V30 3223 H 290.655 2.7476 -1.0766 0
M  V30 3224 H 290.736 1.35736 -2.16816 0
M  V30 3225 H 290.38 2.92352 -4.15322 0
M  V30 3226 H 290.31 4.30584 -3.03158 0
M  V30 3227 H 292.801 2.83996 -2.49308 0
M  V30 3228 H 293.114 5.37612 -5.55151 0
M  V30 3229 H 291.459 4.83988 -4.98779 0
M  V30 3230 H 294.65 3.46167 -3.15097 0
M  V30 3231 H 294.823 4.61834 -4.54547 0
M  V30 3232 N 288.23 0.939286 1.26551 0
M  V30 3233 C 289.641 0.628782 1.75793 0
M  V30 3234 C 289.992 -0.856046 1.7654 0
M  V30 3235 O 289.117 -1.66994 1.3763 0
M  V30 3236 C 289.712 1.13465 3.19235 0
M  V30 3237 C 288.271 0.874601 3.66098 0
M  V30 3238 C 287.418 1.28667 2.45642 0
M  V30 3239 H 290.369 1.1178 1.12654 0
M  V30 3240 H 290.39 0.487609 3.77363 0
M  V30 3241 H 289.902 2.21535 3.1866 0
M  V30 3242 H 288.003 -0.191793 3.72106 0
M  V30 3243 H 288.116 1.50028 4.55004 0
M  V30 3244 H 286.48 0.705109 2.44745 0
M  V30 3245 H 287.263 2.37625 2.47769 0
M  V30 3246 N 289.708 -1.40897 0.706093 0
M  V30 3247 C 291.119 -1.84023 0.315052 0
M  V30 3248 C 291.47 -1.5906 -1.14866 0
M  V30 3249 O 290.595 -1.06651 -1.88293 0
M  V30 3250 C 291.19 -3.34055 0.565038 0
M  V30 3251 C 289.749 -3.7571 0.227806 0
M  V30 3252 C 288.896 -2.64204 0.842122 0
M  V30 3253 H 291.847 -1.303 0.905963 0
M  V30 3254 H 291.868 -3.80107 -0.172843 0
M  V30 3255 H 291.38 -3.52192 1.63042 0
M  V30 3256 H 289.481 -3.63172 -0.832895 0
M  V30 3257 H 289.594 -4.74103 0.690174 0
M  V30 3258 H 287.958 -2.53255 0.270893 0
M  V30 3259 H 288.741 -2.85155 1.91158 0
M  V30 3260 N 291.186 -0.45159 -1.50991 0
M  V30 3261 C 292.096 0.358431 -2.31846 0
M  V30 3262 C 293.112 1.01438 -1.41373 0
M  V30 3263 O 294.288 1.00663 -1.74439 0
M  V30 3264 C 291.353 1.43704 -3.15515 0
M  V30 3265 C 290.414 0.799742 -4.21785 0
M  V30 3266 C 289.647 1.82696 -5.01456 0
M  V30 3267 O 289.87 3.05105 -4.81941 0
M  V30 3268 O 288.804 1.40958 -5.85162 0
M  V30 3269 H 292.63 -0.302032 -3.02194 0
M  V30 3270 H 290.215 -0.213825 -1.47862 0
M  V30 3271 H 292.097 2.06227 -3.67489 0
M  V30 3272 H 290.772 2.08133 -2.47916 0
M  V30 3273 H 289.679 0.136084 -3.73852 0
M  V30 3274 H 291.012 0.198718 -4.91799 0
M  V30 3275 N 292.664 1.56529 -0.183458 0
M  V30 3276 C 293.594 2.21549 0.737456 0
M  V30 3277 C 294.575 1.17489 1.23005 0
M  V30 3278 O 295.76 1.45959 1.281 0
M  V30 3279 C 292.89 2.86575 1.96194 0
M  V30 3280 C 291.844 3.96778 1.60473 0
M  V30 3281 C 291.17 4.48911 2.90487 0
M  V30 3282 C 292.47 5.15767 0.823497 0
M  V30 3283 H 294.164 2.98761 0.195453 0
M  V30 3284 H 291.71 1.43702 0.0925686 0
M  V30 3285 H 293.663 3.30739 2.61131 0
M  V30 3286 H 292.387 2.06749 2.52828 0
M  V30 3287 H 291.046 3.53286 0.978997 0
M  V30 3288 H 290.694 3.65862 3.45186 0
M  V30 3289 H 290.394 5.23265 2.67335 0
M  V30 3290 H 291.918 4.95771 3.56432 0
M  V30 3291 H 293.332 5.56549 1.37571 0
M  V30 3292 H 291.729 5.96114 0.690551 0
M  V30 3293 H 292.799 4.84574 -0.177782 0
M  V30 3294 N 294.142 -0.090211 1.57342 0
M  V30 3295 C 295.072 -1.10976 2.05443 0
M  V30 3296 C 296.053 -1.41482 0.944284 0
M  V30 3297 O 297.238 -1.51428 1.21586 0
M  V30 3298 C 294.368 -2.42831 2.48295 0
M  V30 3299 C 293.322 -2.26721 3.63018 0
M  V30 3300 C 292.648 -3.63796 3.91863 0
M  V30 3301 C 293.948 -1.7037 4.93732 0
M  V30 3302 H 295.642 -0.709564 2.9087 0
M  V30 3303 H 293.188 -0.339874 1.39932 0
M  V30 3304 H 295.141 -3.14431 2.80555 0
M  V30 3305 H 293.865 -2.84795 1.59873 0
M  V30 3306 H 292.524 -1.57565 3.31012 0
M  V30 3307 H 292.172 -4.03297 3.00601 0
M  V30 3308 H 291.872 -3.53861 4.69101 0
M  V30 3309 H 293.396 -4.36855 4.26603 0
M  V30 3310 H 294.81 -2.31816 5.24342 0
M  V30 3311 H 293.207 -1.71181 5.75167 0
M  V30 3312 H 294.277 -0.663542 4.80339 0
M  V30 3313 N 295.62 -1.53406 -0.361157 0
M  V30 3314 C 296.55 -1.83136 -1.44857 0
M  V30 3315 C 297.531 -0.685174 -1.5569 0
M  V30 3316 O 298.716 -0.93544 -1.70186 0
M  V30 3317 C 295.846 -2.02522 -2.82138 0
M  V30 3318 C 294.8 -3.18302 -2.86126 0
M  V30 3319 C 294.126 -3.22989 -4.26125 0
M  V30 3320 C 295.426 -4.56796 -2.53248 0
M  V30 3321 H 297.12 -2.74201 -1.20226 0
M  V30 3322 H 294.666 -1.31938 -0.576922 0
M  V30 3323 H 296.619 -2.21904 -3.58241 0
M  V30 3324 H 295.343 -1.08172 -3.08166 0
M  V30 3325 H 294.002 -2.98747 -2.12475 0
M  V30 3326 H 293.65 -2.26267 -4.49235 0
M  V30 3327 H 293.35 -4.00781 -4.29708 0
M  V30 3328 H 294.874 -3.44559 -5.04094 0
M  V30 3329 H 296.288 -4.7631 -3.19064 0
M  V30 3330 H 294.685 -5.36862 -2.68141 0
M  V30 3331 H 295.755 -4.61606 -1.48484 0
M  V30 3332 N 297.098 0.621204 -1.44841 0
M  V30 3333 C 298.346 1.37783 -1.47852 0
M  V30 3334 C 298.667 1.94653 -0.116224 0
M  V30 3335 O 297.937 1.76367 0.852737 0
M  V30 3336 H 296.517 0.511453 -0.544449 0
M  V30 3337 H 299.179 0.730446 -1.80694 0
M  V30 3338 H 298.275 2.20414 -2.20961 0
M  V30 3339 N 298.576 1.31904 0.862503 0
M  V30 3340 C 299.486 1.22161 2.00285 0
M  V30 3341 C 300.502 0.136785 1.73462 0
M  V30 3342 O 301.678 0.355994 1.98229 0
M  V30 3343 C 298.743 0.937093 3.33796 0
M  V30 3344 C 297.804 2.10957 3.73893 0
M  V30 3345 C 297.037 1.83853 5.01033 0
M  V30 3346 O 297.26 0.777274 5.65079 0
M  V30 3347 O 296.194 2.69741 5.38074 0
M  V30 3348 H 300.02 2.18008 2.11439 0
M  V30 3349 H 297.605 1.11716 0.991957 0
M  V30 3350 H 299.487 0.794583 4.13841 0
M  V30 3351 H 298.162 0.00871894 3.23699 0
M  V30 3352 H 297.069 2.30752 2.94456 0
M  V30 3353 H 298.402 3.02046 3.88625 0
M  V30 3354 N 300.054 -1.07777 1.14986 0
M  V30 3355 C 301.47 -1.32373 0.891596 0
M  V30 3356 C 301.67 -1.9609 -0.463788 0
M  V30 3357 O 300.726 -2.21801 -1.20667 0
M  V30 3358 C 302.039 -2.21905 2.02925 0
M  V30 3359 C 303.587 -2.35367 2.06329 0
M  V30 3360 C 304.062 -3.28245 3.19405 0
M  V30 3361 N 305.553 -3.35824 3.19024 0
M  V30 3362 C 306.288 -4.07739 4.03158 0
M  V30 3363 N 305.784 -4.82306 4.97346 0
M  V30 3364 N 307.577 -4.03635 3.91197 0
M  V30 3365 H 299.728 -0.648039 2.02273 0
M  V30 3366 H 301.991 -0.348149 0.881757 0
M  V30 3367 H 301.697 -1.82342 3.0074 0
M  V30 3368 H 301.571 -3.22407 1.95789 0
M  V30 3369 H 303.958 -2.74186 1.09116 0
M  V30 3370 H 304.039 -1.34585 2.17533 0
M  V30 3371 H 303.683 -2.90146 4.16867 0
M  V30 3372 H 303.613 -4.28971 3.05437 0
M  V30 3373 H 306.104 -2.8267 2.50811 0
M  V30 3374 H 306.417 -5.34661 5.57994 0
M  V30 3375 H 304.762 -4.81337 5.01338 0
M  V30 3376 H 307.953 -3.44491 3.16928 0
M  V30 3377 H 308.126 -4.59417 4.5699 0
M  V30 3378 N 301.532 -0.945985 -1.26051 0
M  V30 3379 C 302.809 -0.513816 -1.88731 0
M  V30 3380 C 303.189 1.00872 -1.8544 0
M  V30 3381 O 302.537 1.8708 -1.312 0
M  V30 3382 C 302.747 -1.08062 -3.31849 0
M  V30 3383 C 304.095 -1.1522 -4.08668 0
M  V30 3384 O 305.119 -1.03155 -3.40936 0
M  V30 3385 O 303.978 -1.34044 -5.29806 0
M  V30 3386 H 301.072 -0.168193 -0.809716 0
M  V30 3387 H 303.618 -1.03886 -1.34186 0
M  V30 3388 H 302.39 -2.1241 -3.2863 0
M  V30 3389 H 302.013 -0.538307 -3.93939 0
M  V30 3390 N 303.011 1.40521 -0.713556 0
M  V30 3391 C 304.241 2.0494 -0.261395 0
M  V30 3392 C 304.649 1.53861 1.10107 0
M  V30 3393 O 303.992 0.689321 1.70276 0
M  V30 3394 C 304.054 3.59138 -0.161227 0
M  V30 3395 C 303.718 4.33096 -1.45865 0
M  V30 3396 C 304.715 4.61182 -2.40016 0
M  V30 3397 C 302.4 4.72043 -1.71701 0
M  V30 3398 C 304.394 5.27196 -3.58251 0
M  V30 3399 C 302.081 5.37789 -2.90218 0
M  V30 3400 C 303.079 5.65295 -3.83315 0
M  V30 3401 O 302.767 6.29683 -4.99754 0
M  V30 3402 H 302.499 0.666041 -0.115608 0
M  V30 3403 H 305.053 1.80954 -0.971849 0
M  V30 3404 H 303.283 3.81936 0.605153 0
M  V30 3405 H 304.972 4.05091 0.256105 0
M  V30 3406 H 305.738 4.31559 -2.21318 0
M  V30 3407 H 301.617 4.50003 -1.00092 0
M  V30 3408 H 305.161 5.48582 -4.30934 0
M  V30 3409 H 301.058 5.66831 -3.08825 0
M  V30 3410 H 301.826 6.4818 -4.99805 0
M  V30 3411 N 304.489 0.459591 1.5075 0
M  V30 3412 C 305.737 -0.0991532 2.01857 0
M  V30 3413 C 306.058 -1.41247 1.34441 0
M  V30 3414 O 305.328 -1.89775 0.486022 0
M  V30 3415 H 303.908 -0.039633 0.745948 0
M  V30 3416 H 306.57 0.607387 1.85194 0
M  V30 3417 H 305.666 -0.258998 3.11023 0
M  V30 3418 N 305.967 -1.56429 0.191757 0
M  V30 3419 C 307.378 -1.83912 -0.321428 0
M  V30 3420 C 307.729 -1.11231 -1.61623 0
M  V30 3421 O 306.854 -0.37202 -2.13178 0
M  V30 3422 C 307.449 -3.33624 -0.589961 0
M  V30 3423 C 306.008 -3.6153 -1.04753 0
M  V30 3424 C 305.155 -2.7714 -0.0943327 0
M  V30 3425 H 308.106 -1.53161 0.415612 0
M  V30 3426 H 308.127 -3.52213 -1.43966 0
M  V30 3427 H 307.639 -3.86495 0.352588 0
M  V30 3428 H 305.74 -3.14089 -2.00447 0
M  V30 3429 H 305.853 -4.69737 -0.942549 0
M  V30 3430 H 304.217 -2.47638 -0.595589 0
M  V30 3431 H 305 -3.32799 0.842601 0
M  V30 3432 N 307.445 0.0818655 -1.57387 0
M  V30 3433 C 308.856 0.634871 -1.75574 0
M  V30 3434 C 309.207 1.78435 -0.815809 0
M  V30 3435 O 308.332 2.164 0.0025366 0
M  V30 3436 C 308.927 1.15845 -3.18379 0
M  V30 3437 C 307.486 1.65741 -3.37945 0
M  V30 3438 C 306.633 0.572549 -2.71325 0
M  V30 3439 H 309.584 -0.144268 -1.58043 0
M  V30 3440 H 309.605 2.02751 -3.21982 0
M  V30 3441 H 309.117 0.321631 -3.86765 0
M  V30 3442 H 307.218 2.51781 -2.74658 0
M  V30 3443 H 307.331 1.74129 -4.46336 0
M  V30 3444 H 305.695 1.01518 -2.33594 0
M  V30 3445 H 306.478 -0.253918 -3.4236 0
M  V30 3446 N 308.923 1.53595 0.353017 0
M  V30 3447 C 310.172 1.69603 1.09168 0
M  V30 3448 C 310.485 0.460925 1.90092 0
M  V30 3449 O 311.691 0.501774 2.66823 0
M  V30 3450 C 310.147 2.99872 1.9901 0
M  V30 3451 C 309.755 4.30687 1.23339 0
M  V30 3452 C 311.499 3.25246 2.72792 0
M  V30 3453 C 309.406 5.52036 2.12156 0
M  V30 3454 H 308.336 0.631966 0.411261 0
M  V30 3455 H 310.987 1.80096 0.351802 0
M  V30 3456 H 309.369 2.83212 2.7678 0
M  V30 3457 H 310.543 4.58019 0.505456 0
M  V30 3458 H 308.858 4.11853 0.613663 0
M  V30 3459 H 311.455 4.13095 3.39495 0
M  V30 3460 H 311.798 2.41846 3.38846 0
M  V30 3461 H 312.331 3.42638 2.021 0
M  V30 3462 H 309.07 6.37951 1.50659 0
M  V30 3463 H 308.59 5.28966 2.82764 0
M  V30 3464 H 310.269 5.87313 2.71427 0
M  V30 3465 N 310.401 -0.613514 1.45168 0
M  V30 3466 C 311.678 -1.37263 1.39349 0
M  V30 3467 C 312.058 -2.11012 0.0610848 0
M  V30 3468 O 311.406 -2.07502 -0.956825 0
M  V30 3469 C 311.616 -2.3244 2.60332 0
M  V30 3470 C 312.964 -2.9523 3.05163 0
M  V30 3471 O 313.988 -2.42762 2.60663 0
M  V30 3472 O 312.847 -3.90454 3.82372 0
M  V30 3473 H 309.941 -0.615188 0.552696 0
M  V30 3474 H 312.487 -0.637097 1.57287 0
M  V30 3475 H 311.259 -1.77164 3.48896 0
M  V30 3476 H 310.882 -3.13383 2.44698 0
M  V30 3477 N 311.879 -1.3236 -0.855495 0
M  V30 3478 C 312.809 -1.23833 -1.97958 0
M  V30 3479 C 313.79 -0.122361 -1.69659 0
M  V30 3480 O 314.975 -0.30939 -1.9172 0
M  V30 3481 C 312.105 -0.959772 -3.33775 0
M  V30 3482 C 311.059 -2.03689 -3.76424 0
M  V30 3483 C 310.385 -1.61075 -5.09862 0
M  V30 3484 C 311.685 -3.4518 -3.9198 0
M  V30 3485 H 313.379 -2.1788 -2.0535 0
M  V30 3486 H 310.925 -1.04891 -0.986605 0
M  V30 3487 H 312.878 -0.886678 -4.11966 0
M  V30 3488 H 311.602 0.0163404 -3.26596 0
M  V30 3489 H 310.261 -2.10012 -3.00484 0
M  V30 3490 H 309.909 -0.622107 -4.99138 0
M  V30 3491 H 309.609 -2.33143 -5.39368 0
M  V30 3492 H 311.133 -1.55201 -5.90546 0
M  V30 3493 H 312.547 -3.4145 -4.60526 0
M  V30 3494 H 310.944 -4.1559 -4.32903 0
M  V30 3495 H 312.014 -3.84903 -2.94919 0
M  V30 3496 N 313.357 1.07166 -1.15556 0
M  V30 3497 C 314.603 1.80222 -0.942961 0
M  V30 3498 C 314.958 1.85121 0.524209 0
M  V30 3499 O 314.251 1.32531 1.38369 0
M  V30 3500 C 314.445 3.24707 -1.49332 0
M  V30 3501 C 314.274 3.33887 -3.01247 0
M  V30 3502 C 313.044 3.44337 -3.69811 0
M  V30 3503 C 315.242 3.24484 -3.99017 0
M  V30 3504 N 313.224 3.42439 -5.09518 0
M  V30 3505 C 314.595 3.29726 -5.25053 0
M  V30 3506 C 316.65 3.08307 -3.90962 0
M  V30 3507 C 315.353 3.20455 -6.43973 0
M  V30 3508 C 317.379 3.00371 -5.09442 0
M  V30 3509 C 316.741 3.06227 -6.34354 0
M  V30 3510 H 312.84 0.672709 -0.398731 0
M  V30 3511 H 315.424 1.27905 -1.46794 0
M  V30 3512 H 313.595 3.7544 -0.994946 0
M  V30 3513 H 315.327 3.85894 -1.21935 0
M  V30 3514 H 312.082 3.48762 -3.20409 0
M  V30 3515 H 312.506 3.45013 -5.8249 0
M  V30 3516 H 317.148 3.02633 -2.95251 0
M  V30 3517 H 314.866 3.24888 -7.39914 0
M  V30 3518 H 318.452 2.88955 -5.04971 0
M  V30 3519 H 317.332 3.00132 -7.24493 0
M  V30 3520 N 314.835 0.952656 1.25548 0
M  V30 3521 C 316.083 0.605176 1.92826 0
M  V30 3522 C 316.404 -0.860261 1.74999 0
M  V30 3523 O 315.674 -1.6125 1.11244 0
M  V30 3524 H 314.254 0.220832 0.713612 0
M  V30 3525 H 316.916 1.21047 1.52754 0
M  V30 3526 H 316.012 0.832798 3.00784 0
M  V30 3527 N 316.313 -1.40141 0.720998 0
M  V30 3528 C 317.276 -2.29058 0.0805834 0
M  V30 3529 C 318.276 -1.45632 -0.681758 0
M  V30 3530 O 319.466 -1.6648 -0.512856 0
M  V30 3531 C 316.598 -3.28925 -0.895593 0
M  V30 3532 H 317.791 -2.87191 0.863793 0
M  V30 3533 H 315.344 -1.48553 0.485975 0
M  V30 3534 H 316.079 -2.75822 -1.70566 0
M  V30 3535 H 315.864 -3.90519 -0.351766 0
M  V30 3536 H 317.354 -3.95494 -1.34069 0
M  V30 3537 N 317.792 -0.46758 -1.50504 0
M  V30 3538 C 319.04 0.0884469 -2.01906 0
M  V30 3539 C 319.361 1.40532 -1.35188 0
M  V30 3540 O 318.631 1.89515 -0.496079 0
M  V30 3541 H 317.211 0.0356765 -0.746148 0
M  V30 3542 H 319.873 -0.6172 -1.84869 0
M  V30 3543 H 318.969 0.2425 -3.11156 0
M  V30 3544 N 319.27 1.56325 -0.20005 0
M  V30 3545 C 320.51 1.99619 0.439519 0
M  V30 3546 C 320.874 1.08423 1.58456 0
M  V30 3547 O 322.075 1.40973 2.28867 0
M  V30 3548 C 320.346 3.46314 0.883258 0
M  V30 3549 S 321.905 4.11634 1.51997 0
M  V30 3550 H 318.723 0.697007 0.140363 0
M  V30 3551 H 321.325 1.93118 -0.304282 0
M  V30 3552 H 320.029 4.10381 0.0398967 0
M  V30 3553 H 319.56 3.56643 1.6604 0
M  V30 3554 H 321.575 4.09049 2.8088 0
M  V30 3555 N 320.748 -0.0735177 1.57428 0
M  V30 3556 C 321.997 -0.771809 1.86349 0
M  V30 3557 C 322.31 -1.78828 0.792452 0
M  V30 3558 O 323.516 -2.53602 0.96945 0
M  V30 3559 C 321.972 -1.42358 3.30548 0
M  V30 3560 C 321.58 -0.445761 4.45777 0
M  V30 3561 C 323.324 -2.10434 3.6867 0
M  V30 3562 C 321.231 -1.10335 5.81016 0
M  V30 3563 H 320.161 -0.291999 0.695164 0
M  V30 3564 H 322.812 -0.0250749 1.83483 0
M  V30 3565 H 321.194 -2.21852 3.28021 0
M  V30 3566 H 322.368 0.319239 4.59693 0
M  V30 3567 H 320.683 0.130457 4.16196 0
M  V30 3568 H 323.28 -2.60405 4.67004 0
M  V30 3569 H 323.623 -2.90298 2.98383 0
M  V30 3570 H 324.156 -1.37773 3.7318 0
M  V30 3571 H 320.895 -0.345061 6.54591 0
M  V30 3572 H 320.415 -1.83925 5.70904 0
M  V30 3573 H 322.094 -1.62367 6.26295 0
M  V30 3574 N 322.226 -1.5378 -0.344866 0
M  V30 3575 C 323.159 -1.7649 -1.4466 0
M  V30 3576 C 324.137 -0.613954 -1.50563 0
M  V30 3577 O 325.321 -0.84896 -1.683 0
M  V30 3578 C 322.448 -1.86235 -2.82903 0
M  V30 3579 C 321.494 -3.08375 -2.94631 0
M  V30 3580 S 322.327 -4.67457 -2.61236 0
M  V30 3581 C 323.483 -4.80079 -4.0159 0
M  V30 3582 H 323.716 -2.69661 -1.2518 0
M  V30 3583 H 321.249 -1.44632 -0.540455 0
M  V30 3584 H 323.207 -1.92535 -3.62547 0
M  V30 3585 H 321.868 -0.940786 -2.9968 0
M  V30 3586 H 321.061 -3.11865 -3.95925 0
M  V30 3587 H 320.663 -3.00294 -2.22934 0
M  V30 3588 H 322.955 -4.61407 -4.96094 0
M  V30 3589 H 323.898 -5.82168 -4.03095 0
M  V30 3590 H 324.306 -4.08544 -3.89554 0
M  V30 3591 N 323.704 0.605807 -1.45491 0
M  V30 3592 C 324.667 1.69836 -1.5391 0
M  V30 3593 C 325.667 1.55261 -0.418424 0
M  V30 3594 O 326.857 1.60296 -0.681965 0
M  V30 3595 C 323.989 3.09117 -1.43734 0
M  V30 3596 H 325.182 1.63738 -2.51257 0
M  V30 3597 H 322.735 0.821689 -1.32959 0
M  V30 3598 H 323.47 3.20791 -0.475788 0
M  V30 3599 H 323.255 3.21104 -2.25021 0
M  V30 3600 H 324.745 3.88696 -1.52661 0
M  V30 3601 N 325.182 1.32811 0.848464 0
M  V30 3602 C 326.092 1.24278 1.98978 0
M  V30 3603 C 327.108 0.155176 1.73307 0
M  V30 3604 O 328.284 0.376999 1.9784 0
M  V30 3605 C 325.349 0.972444 3.32783 0
M  V30 3606 C 324.41 2.14911 3.71634 0
M  V30 3607 C 323.643 1.89157 4.99054 0
M  V30 3608 O 323.866 0.837165 5.64223 0
M  V30 3609 O 322.8 2.75433 5.35183 0
M  V30 3610 H 326.626 2.20238 2.09115 0
M  V30 3611 H 324.211 1.12762 0.980052 0
M  V30 3612 H 326.093 0.838432 4.12975 0
M  V30 3613 H 324.768 0.043051 3.23671 0
M  V30 3614 H 323.675 2.33862 2.91992 0
M  V30 3615 H 325.008 3.06151 3.85399 0
M  V30 3616 N 326.66 -1.06551 1.16123 0
M  V30 3617 C 327.593 -2.13382 0.80892 0
M  V30 3618 C 328.571 -1.61128 -0.21827 0
M  V30 3619 O 329.755 -1.88219 -0.102952 0
M  V30 3620 C 326.882 -3.38083 0.204303 0
M  V30 3621 C 325.928 -4.09133 1.20469 0
M  V30 3622 S 326.761 -4.5948 2.75024 0
M  V30 3623 C 327.917 -5.87446 2.16005 0
M  V30 3624 H 328.15 -2.42937 1.71373 0
M  V30 3625 H 325.683 -1.18947 0.984428 0
M  V30 3626 H 327.641 -4.10268 -0.138081 0
M  V30 3627 H 326.302 -3.0669 -0.678234 0
M  V30 3628 H 325.495 -4.98685 0.730019 0
M  V30 3629 H 325.097 -3.4295 1.49202 0
M  V30 3630 H 327.389 -6.60065 1.5271 0
M  V30 3631 H 328.332 -6.39639 3.03756 0
M  V30 3632 H 328.74 -5.41354 1.59989 0
M  V30 3633 N 328.138 -0.959301 -1.25041 0
M  V30 3634 C 329.384 -0.627096 -1.93492 0
M  V30 3635 C 329.739 0.827484 -1.73696 0
M  V30 3636 O 329.032 1.58651 -1.07427 0
M  V30 3637 C 329.226 -0.927136 -3.45165 0
M  V30 3638 C 329.055 -2.40933 -3.79712 0
M  V30 3639 C 327.825 -3.0677 -4.01522 0
M  V30 3640 C 330.023 -3.38894 -3.86853 0
M  V30 3641 N 328.005 -4.44815 -4.231 0
M  V30 3642 C 329.376 -4.62263 -4.13174 0
M  V30 3643 C 331.431 -3.33668 -3.69554 0
M  V30 3644 C 330.134 -5.81052 -4.23995 0
M  V30 3645 C 332.16 -4.518 -3.81616 0
M  V30 3646 C 331.522 -5.73957 -4.08354 0
M  V30 3647 H 327.621 -0.280166 -0.73009 0
M  V30 3648 H 330.205 -1.23244 -1.50729 0
M  V30 3649 H 328.376 -0.350685 -3.86814 0
M  V30 3650 H 330.108 -0.554361 -4.00885 0
M  V30 3651 H 326.863 -2.57327 -3.97593 0
M  V30 3652 H 327.287 -5.16319 -4.37885 0
M  V30 3653 H 331.929 -2.40268 -3.47895 0
M  V30 3654 H 329.647 -6.74888 -4.44468 0
M  V30 3655 H 333.233 -4.49309 -3.69612 0
M  V30 3656 H 332.113 -6.6384 -4.17475 0
M  V30 3657 N 329.616 1.39756 -0.72842 0
M  V30 3658 C 330.844 2.04948 -0.283528 0
M  V30 3659 C 331.259 1.54908 1.0793 0
M  V30 3660 O 330.616 0.711135 1.68075 0
M  V30 3661 C 330.667 3.60498 -0.268957 0
M  V30 3662 O 330.388 4.08695 -1.57798 0
M  V30 3663 C 331.889 4.4288 0.192912 0
M  V30 3664 H 329.109 0.659243 -0.125056 0
M  V30 3665 H 331.653 1.78927 -0.990226 0
M  V30 3666 H 329.808 3.85444 0.388801 0
M  V30 3667 H 330.222 5.02977 -1.48709 0
M  V30 3668 H 331.696 5.51791 0.151952 0
M  V30 3669 H 332.173 4.21418 1.23708 0
M  V30 3670 H 332.779 4.23069 -0.435039 0
M  V30 3671 N 331.094 0.475555 1.50254 0
M  V30 3672 C 332.51 0.12997 1.5907 0
M  V30 3673 C 332.71 -1.36385 1.48328 0
M  V30 3674 O 331.766 -2.13754 1.34407 0
M  V30 3675 C 333.079 0.684139 2.92814 0
M  V30 3676 C 334.627 0.647965 3.0622 0
M  V30 3677 C 335.102 1.17975 4.42545 0
M  V30 3678 N 336.593 1.13936 4.48969 0
M  V30 3679 C 337.328 1.52129 5.52851 0
M  V30 3680 N 336.824 1.97793 6.63965 0
M  V30 3681 N 338.617 1.43704 5.4342 0
M  V30 3682 H 330.768 1.44706 1.55479 0
M  V30 3683 H 333.031 0.598691 0.735033 0
M  V30 3684 H 332.737 1.73079 3.06164 0
M  V30 3685 H 332.611 0.130204 3.76975 0
M  V30 3686 H 334.998 -0.38979 2.92514 0
M  V30 3687 H 335.079 1.23876 2.23805 0
M  V30 3688 H 334.723 2.21616 4.57 0
M  V30 3689 H 334.653 0.565138 5.23559 0
M  V30 3690 H 337.144 0.804488 3.69238 0
M  V30 3691 H 337.457 2.25072 7.39299 0
M  V30 3692 H 335.802 2.01749 6.65073 0
M  V30 3693 H 338.993 1.07867 4.55502 0
M  V30 3694 H 339.166 1.73794 6.24259 0
M  V30 3695 N 332.573 -1.56217 0.208337 0
M  V30 3696 C 333.798 -2.02782 -0.435222 0
M  V30 3697 C 334.223 -1.08738 -1.53485 0
M  V30 3698 O 333.581 -0.0731855 -1.81152 0
M  V30 3699 C 333.629 -3.47687 -0.956335 0
M  V30 3700 O 332.733 -3.56773 -2.06849 0
M  V30 3701 H 332.074 -0.656403 -0.100158 0
M  V30 3702 H 334.604 -2.02033 0.3231 0
M  V30 3703 H 334.614 -3.87745 -1.26955 0
M  V30 3704 H 333.289 -4.15624 -0.15143 0
M  V30 3705 H 331.866 -3.28597 -1.76292 0
M  V30 3706 N 334.051 0.0651679 -1.57465 0
M  V30 3707 C 335.462 0.616213 -1.76238 0
M  V30 3708 C 335.813 1.7756 -0.834689 0
M  V30 3709 O 334.938 2.1639 -0.0204156 0
M  V30 3710 C 335.533 1.12462 -3.1959 0
M  V30 3711 C 334.092 1.62147 -3.39684 0
M  V30 3712 C 333.239 0.543739 -2.71917 0
M  V30 3713 H 336.19 -0.161022 -1.57881 0
M  V30 3714 H 336.211 1.99324 -3.24114 0
M  V30 3715 H 335.723 0.280592 -3.87084 0
M  V30 3716 H 333.824 2.48854 -2.77313 0
M  V30 3717 H 333.937 1.69385 -4.48158 0
M  V30 3718 H 332.301 0.990352 -2.34657 0
M  V30 3719 H 333.084 -0.290216 -3.42071 0
M  V30 3720 N 335.529 1.53961 0.336706 0
M  V30 3721 C 336.778 1.70751 1.07363 0
M  V30 3722 C 337.091 0.481061 1.89592 0
M  V30 3723 O 338.297 0.530046 2.66276 0
M  V30 3724 C 336.753 3.01965 1.95818 0
M  V30 3725 C 336.361 4.31971 1.18764 0
M  V30 3726 C 338.105 3.28121 2.69327 0
M  V30 3727 C 336.012 5.54255 2.06289 0
M  V30 3728 H 334.942 0.636292 0.404535 0
M  V30 3729 H 337.593 1.80459 0.332681 0
M  V30 3730 H 335.975 2.86132 2.7376 0
M  V30 3731 H 337.149 4.5853 0.456849 0
M  V30 3732 H 335.464 4.12481 0.569946 0
M  V30 3733 H 338.061 4.16673 3.35094 0
M  V30 3734 H 338.404 2.45426 3.36261 0
M  V30 3735 H 338.937 3.44762 1.98454 0
M  V30 3736 H 335.676 6.39513 1.43885 0
M  V30 3737 H 335.196 5.31935 2.77138 0
M  V30 3738 H 336.875 5.90159 2.65182 0
M  V30 3739 N 337.007 -0.598083 1.45811 0
M  V30 3740 C 337.94 -1.7223 1.49706 0
M  V30 3741 C 338.918 -1.58732 0.352535 0
M  V30 3742 O 340.102 -1.80162 0.554438 0
M  V30 3743 C 337.229 -3.10148 1.3611 0
M  V30 3744 C 336.275 -3.42209 2.54549 0
M  V30 3745 S 337.108 -3.35989 4.16979 0
M  V30 3746 C 338.264 -4.76471 4.05865 0
M  V30 3747 H 338.497 -1.68665 2.44826 0
M  V30 3748 H 336.03 -0.775541 1.33509 0
M  V30 3749 H 337.988 -3.8972 1.28953 0
M  V30 3750 H 336.649 -3.11219 0.424451 0
M  V30 3751 H 335.842 -4.42652 2.40988 0
M  V30 3752 H 335.444 -2.70173 2.58617 0
M  V30 3753 H 337.736 -5.665 3.71596 0
M  V30 3754 H 338.679 -4.95089 5.06253 0
M  V30 3755 H 339.087 -4.52599 3.37364 0
M  V30 3756 N 338.485 -1.33259 -0.841409 0
M  V30 3757 C 339.417 -1.19136 -1.95804 0
M  V30 3758 C 340.43 -0.122965 -1.62335 0
M  V30 3759 O 341.619 -0.373154 -1.74556 0
M  V30 3760 C 338.719 -0.804268 -3.29218 0
M  V30 3761 C 337.892 -1.96376 -3.90839 0
M  V30 3762 C 336.951 -1.55806 -5.02604 0
M  V30 3763 O 335.977 -2.27203 -5.21888 0
M  V30 3764 N 337.179 -0.461609 -5.78662 0
M  V30 3765 H 339.944 -2.15326 -2.08458 0
M  V30 3766 H 337.505 -1.25971 -1.017 0
M  V30 3767 H 339.497 -0.51501 -4.0141 0
M  V30 3768 H 338.067 0.0668809 -3.12528 0
M  V30 3769 H 337.287 -2.41879 -3.11269 0
M  V30 3770 H 338.575 -2.73966 -4.28742 0
M  V30 3771 H 337.973 0.132343 -5.65545 0
M  V30 3772 H 336.53 -0.232013 -6.51387 0
M  V30 3773 N 339.963 1.05934 -1.16686 0
M  V30 3774 C 341.211 1.78447 -0.948744 0
M  V30 3775 C 341.532 1.87813 0.524523 0
M  V30 3776 O 340.802 1.38945 1.38098 0
M  V30 3777 H 339.382 0.660971 -0.348033 0
M  V30 3778 H 342.044 1.27947 -1.47022 0
M  V30 3779 H 341.14 2.80394 -1.37061 0
M  V30 3780 N 341.441 0.965919 1.2453 0
M  V30 3781 C 342.389 0.486506 2.27455 0
M  V30 3782 C 343.383 -0.449041 1.6334 0
M  V30 3783 O 344.589 -0.324527 1.7705 0
M  V30 3784 H 340.964 0.138857 0.739069 0
M  V30 3785 H 342.935 1.3666 2.65267 0
M  V30 3786 C 341.684 -0.209481 3.47068 0
M  V30 3787 H 341.007 0.50129 3.96645 0
M  V30 3788 H 342.447 -0.508775 4.20936 0
M  V30 3789 C 340.906 -1.43586 3.0477 0
M  V30 3790 O 341.436 -2.53299 3.11773 0
M  V30 3791 N 339.642 -1.30126 2.59838 0
M  V30 3792 H 339.189 -0.408583 2.54339 0
M  V30 3793 H 339.147 -2.12294 2.31902 0
M  V30 3794 N 342.919 -1.39368 0.735821 0
M  V30 3795 C 344.147 -2.04795 0.294393 0
M  V30 3796 C 344.562 -1.55478 -1.07107 0
M  V30 3797 O 343.919 -0.720038 -1.67695 0
M  V30 3798 C 343.97 -3.6035 0.288071 0
M  V30 3799 O 343.691 -4.07852 1.59963 0
M  V30 3800 C 345.192 -4.42976 -0.169422 0
M  V30 3801 H 342.412 -0.658571 0.128551 0
M  V30 3802 H 344.956 -1.78399 0.999701 0
M  V30 3803 H 343.111 -3.85645 -0.368355 0
M  V30 3804 H 343.525 -5.02181 1.51375 0
M  V30 3805 H 344.999 -5.51864 -0.122687 0
M  V30 3806 H 345.476 -4.22068 -1.21472 0
M  V30 3807 H 346.082 -4.22832 0.457469 0
M  V30 3808 N 344.397 -0.483516 -1.5 0
M  V30 3809 C 345.307 0.309172 -2.32554 0
M  V30 3810 C 346.323 0.984159 -1.43493 0
M  V30 3811 O 347.499 0.969399 -1.76535 0
M  V30 3812 C 344.564 1.36979 -3.18493 0
M  V30 3813 C 343.625 0.710095 -4.23387 0
M  V30 3814 C 342.858 1.72018 -5.05218 0
M  V30 3815 O 343.081 2.94813 -4.88305 0
M  V30 3816 O 342.015 1.28515 -5.8802 0
M  V30 3817 H 345.841 -0.366064 -3.01486 0
M  V30 3818 H 343.426 -0.24514 -1.47375 0
M  V30 3819 H 345.308 1.98385 -3.71781 0
M  V30 3820 H 343.983 2.02828 -2.52275 0
M  V30 3821 H 342.89 0.0567539 -3.74057 0
M  V30 3822 H 344.223 0.0943557 -4.9211 0
M  V30 3823 N 345.875 1.56104 -0.216619 0
M  V30 3824 C 346.807 2.17339 0.72776 0
M  V30 3825 C 347.82 1.14109 1.16116 0
M  V30 3826 O 349.009 1.4111 1.09317 0
M  V30 3827 C 346.109 2.73818 1.99693 0
M  V30 3828 C 345.282 4.02168 1.71988 0
M  V30 3829 C 344.341 4.43259 2.83562 0
M  V30 3830 O 343.367 5.10257 2.52244 0
M  V30 3831 N 344.569 4.08535 4.12407 0
M  V30 3832 H 347.334 2.99005 0.203983 0
M  V30 3833 H 344.895 1.61861 -0.0354289 0
M  V30 3834 H 346.887 2.9828 2.73516 0
M  V30 3835 H 345.457 1.96483 2.43132 0
M  V30 3836 H 344.677 3.85612 0.818337 0
M  V30 3837 H 345.965 4.85907 1.50903 0
M  V30 3838 H 345.363 3.54687 4.40696 0
M  V30 3839 H 343.92 4.37901 4.8279 0
M  V30 3840 N 347.353 -0.0568162 1.57498 0
M  V30 3841 C 348.303 -1.07315 2.01166 0
M  V30 3842 C 349.287 -1.33632 0.896171 0
M  V30 3843 O 350.479 -1.33682 1.16009 0
M  V30 3844 C 347.608 -2.38257 2.47161 0
M  V30 3845 C 346.694 -2.1515 3.65474 0
M  V30 3846 N 347.085 -1.62014 4.7915 0
M  V30 3847 C 345.383 -2.45559 3.72313 0
M  V30 3848 C 346.084 -1.54069 5.60926 0
M  V30 3849 N 345.06 -2.00652 5.05213 0
M  V30 3850 H 348.862 -0.655878 2.86488 0
M  V30 3851 H 346.376 -0.263635 1.60246 0
M  V30 3852 H 348.373 -3.11845 2.76691 0
M  V30 3853 H 347.033 -2.80687 1.63232 0
M  V30 3854 H 348.044 -1.30667 5.01145 0
M  V30 3855 H 344.721 -2.91253 2.99129 0
M  V30 3856 H 346.111 -1.13712 6.62208 0
M  V30 3857 N 348.832 -1.54138 -0.328536 0
M  V30 3858 C 349.764 -1.79509 -1.4251 0
M  V30 3859 C 350.777 -0.67688 -1.48061 0
M  V30 3860 O 351.966 -0.953898 -1.50874 0
M  V30 3861 C 349.066 -1.89337 -2.81078 0
M  V30 3862 C 348.239 -3.19443 -2.98789 0
M  V30 3863 C 347.298 -3.20036 -4.17688 0
M  V30 3864 O 346.324 -3.93697 -4.11086 0
M  V30 3865 N 347.526 -2.43467 -5.26976 0
M  V30 3866 H 350.291 -2.74139 -1.21111 0
M  V30 3867 H 347.852 -1.53373 -0.518499 0
M  V30 3868 H 349.844 -1.87167 -3.58818 0
M  V30 3869 H 348.414 -1.01826 -2.95551 0
M  V30 3870 H 347.634 -3.34614 -2.08391 0
M  V30 3871 H 348.922 -4.05354 -3.07515 0
M  V30 3872 H 348.32 -1.83201 -5.35214 0
M  V30 3873 H 346.877 -2.4708 -6.03154 0
M  V30 3874 N 350.31 0.590341 -1.46126 0
M  V30 3875 C 351.24 1.71032 -1.58966 0
M  V30 3876 C 352.221 1.64302 -0.440335 0
M  V30 3877 O 353.406 1.82436 -0.665634 0
M  V30 3878 C 350.536 3.09665 -1.57241 0
M  V30 3879 C 349.49 3.31221 -2.71066 0
M  V30 3880 C 348.816 4.70303 -2.54399 0
M  V30 3881 C 350.116 3.19796 -4.1295 0
M  V30 3882 H 351.81 1.60543 -2.52718 0
M  V30 3883 H 349.356 0.770933 -1.21625 0
M  V30 3884 H 351.309 3.87831 -1.64819 0
M  V30 3885 H 350.033 3.21036 -0.600289 0
M  V30 3886 H 348.692 2.55452 -2.62944 0
M  V30 3887 H 348.34 4.78429 -1.55288 0
M  V30 3888 H 348.04 4.85679 -3.30741 0
M  V30 3889 H 349.564 5.50647 -2.63857 0
M  V30 3890 H 350.978 3.87815 -4.22223 0
M  V30 3891 H 349.375 3.46696 -4.89818 0
M  V30 3892 H 350.445 2.16983 -4.33643 0
M  V30 3893 N 351.788 1.33704 0.83433 0
M  V30 3894 C 352.751 1.24244 1.92603 0
M  V30 3895 C 353.751 0.160383 1.59998 0
M  V30 3896 O 354.941 0.412228 1.69252 0
M  V30 3897 C 352.073 0.91555 3.28376 0
M  V30 3898 H 353.266 2.21287 2.02416 0
M  V30 3899 H 350.819 1.17827 1.02696 0
M  V30 3900 H 351.554 -0.0521886 3.24258 0
M  V30 3901 H 351.339 1.69811 3.53422 0
M  V30 3902 H 352.829 0.874231 4.08347 0
M  V30 3903 N 353.266 -1.05314 1.17247 0
M  V30 3904 C 354.196 -2.1498 0.911362 0
M  V30 3905 C 355.177 -1.69471 -0.146169 0
M  V30 3906 O 356.362 -1.942 0.003812 0
M  V30 3907 C 353.492 -3.4472 0.422528 0
M  V30 3908 C 352.446 -4.03789 1.4191 0
M  V30 3909 C 351.772 -5.28858 0.788274 0
M  V30 3910 C 353.072 -4.41418 2.7919 0
M  V30 3911 H 354.766 -2.3708 1.82848 0
M  V30 3912 H 352.312 -1.13938 0.880569 0
M  V30 3913 H 354.265 -4.20787 0.227289 0
M  V30 3914 H 352.989 -3.22269 -0.530123 0
M  V30 3915 H 351.648 -3.2979 1.60106 0
M  V30 3916 H 351.296 -5.02709 -0.171173 0
M  V30 3917 H 350.996 -5.69338 1.45353 0
M  V30 3918 H 352.52 -6.07612 0.603282 0
M  V30 3919 H 353.934 -5.08524 2.64719 0
M  V30 3920 H 352.331 -4.92913 3.42282 0
M  V30 3921 H 353.401 -3.51819 3.33693 0
M  V30 3922 N 354.744 -0.972509 -1.24016 0
M  V30 3923 C 355.993 -0.632603 -1.91523 0
M  V30 3924 C 356.306 0.836641 -1.76804 0
M  V30 3925 O 357.512 1.28728 -2.39043 0
M  V30 3926 C 355.968 -1.08082 -3.43287 0
M  V30 3927 C 355.576 -2.57386 -3.66683 0
M  V30 3928 C 357.32 -0.814288 -4.16617 0
M  V30 3929 C 355.227 -2.95915 -5.12043 0
M  V30 3930 H 354.157 -0.232898 -0.717129 0
M  V30 3931 H 356.808 -1.17936 -1.40582 0
M  V30 3932 H 355.19 -0.462339 -3.93292 0
M  V30 3933 H 356.364 -3.24405 -3.27258 0
M  V30 3934 H 354.679 -2.81701 -3.06649 0
M  V30 3935 H 357.276 -1.0781 -5.23718 0
M  V30 3936 H 357.619 0.24955 -4.15551 0
M  V30 3937 H 358.152 -1.39397 -3.72577 0
M  V30 3938 H 354.891 -4.0139 -5.18234 0
M  V30 3939 H 354.411 -2.33584 -5.52448 0
M  V30 3940 H 356.09 -2.86086 -5.80314 0
M  V30 3941 N 356.222 1.38976 -0.743202 0
M  V30 3942 C 357.447 2.05161 -0.303936 0
M  V30 3943 C 357.872 1.55677 1.05576 0
M  V30 3944 O 357.23 0.704131 1.67068 0
M  V30 3945 C 357.278 3.59138 -0.324373 0
M  V30 3946 O 356.382 4.06668 0.685204 0
M  V30 3947 H 355.723 0.649815 -0.136518 0
M  V30 3948 H 358.253 1.77852 -1.01142 0
M  V30 3949 H 358.263 4.07639 -0.171618 0
M  V30 3950 H 356.938 3.94515 -1.31647 0
M  V30 3951 H 355.515 3.69561 0.497913 0
M  V30 3952 N 357.7 0.491464 1.49741 0
M  V30 3953 C 358.632 -0.328609 2.26832 0
M  V30 3954 C 359.645 -0.939113 1.32983 0
M  V30 3955 O 360.834 -0.824067 1.58339 0
M  V30 3956 C 357.934 -1.47675 3.05033 0
M  V30 3957 C 357.107 -0.975305 4.26388 0
M  V30 3958 C 356.166 -1.99991 4.86714 0
M  V30 3959 O 355.192 -1.57229 5.47054 0
M  V30 3960 N 356.394 -3.32962 4.75517 0
M  V30 3961 H 359.159 0.332377 2.97851 0
M  V30 3962 H 356.72 0.323441 1.58636 0
M  V30 3963 H 358.712 -2.15954 3.42266 0
M  V30 3964 H 357.282 -2.04206 2.36683 0
M  V30 3965 H 356.502 -0.117723 3.94024 0
M  V30 3966 H 357.79 -0.618531 5.05026 0
M  V30 3967 H 357.188 -3.70399 4.27576 0
M  V30 3968 H 355.745 -3.96982 5.16961 0
M  V30 3969 N 359.178 -1.55987 0.224894 0
M  V30 3970 C 360.108 -2.23426 -0.678457 0
M  V30 3971 C 361.089 -1.20709 -1.19847 0
M  V30 3972 O 362.274 -1.49304 -1.24186 0
M  V30 3973 C 359.404 -2.91676 -1.88527 0
M  V30 3974 C 358.358 -4.00893 -1.49896 0
M  V30 3975 C 357.684 -4.56455 -2.78483 0
M  V30 3976 C 358.984 -5.17769 -0.686461 0
M  V30 3977 H 360.678 -2.99175 -0.116173 0
M  V30 3978 H 358.224 -1.43897 -0.054436 0
M  V30 3979 H 360.177 -3.37547 -2.5227 0
M  V30 3980 H 358.901 -2.1338 -2.47258 0
M  V30 3981 H 357.56 -3.55758 -0.884985 0
M  V30 3982 H 357.208 -3.74886 -3.35365 0
M  V30 3983 H 356.908 -5.30169 -2.53368 0
M  V30 3984 H 358.432 -5.05047 -3.43162 0
M  V30 3985 H 359.846 -5.60001 -1.22767 0
M  V30 3986 H 358.243 -5.97735 -0.532259 0
M  V30 3987 H 359.313 -4.83932 0.306196 0
M  V30 3988 N 360.656 0.0484629 -1.57525 0
M  V30 3989 C 361.896 0.748196 -1.90214 0
M  V30 3990 C 362.26 1.73545 -0.821347 0
M  V30 3991 O 363.461 2.48201 -1.03198 0
M  V30 3992 C 361.732 1.41727 -3.28098 0
M  V30 3993 S 363.291 2.14884 -3.82584 0
M  V30 3994 H 360.109 0.248307 -0.666232 0
M  V30 3995 H 362.711 0.00343188 -1.955 0
M  V30 3996 H 361.415 0.685244 -4.04639 0
M  V30 3997 H 360.946 2.20099 -3.26068 0
M  V30 3998 H 362.961 3.41755 -3.59747 0
M  V30 3999 N 362.134 1.5431 0.320358 0
M  V30 4000 C 363.382 1.72327 1.05583 0
M  V30 4001 C 363.703 0.50149 1.88441 0
M  V30 4002 O 362.973 -0.48448 1.89815 0
M  V30 4003 H 361.553 0.635387 0.3928 0
M  V30 4004 H 364.215 1.91621 0.356019 0
M  V30 4005 H 363.311 2.60426 1.72003 0
M  V30 4006 N 363.613 -0.582584 1.46437 0
M  V30 4007 C 364.838 -1.37168 1.55563 0
M  V30 4008 C 365.263 -1.87061 0.19743 0
M  V30 4009 O 364.621 -1.61572 -0.822451 0
M  V30 4010 C 364.669 -2.53511 2.56446 0
M  V30 4011 O 363.773 -3.54953 2.09958 0
M  V30 4012 H 363.114 -0.408494 0.523477 0
M  V30 4013 H 365.644 -0.706646 1.9201 0
M  V30 4014 H 365.654 -3.00426 2.76058 0
M  V30 4015 H 364.329 -2.16549 3.55076 0
M  V30 4016 H 362.906 -3.14516 2.00334 0
M  V30 4017 N 365.091 -1.34144 -0.827227 0
M  V30 4018 C 366.34 -1.25602 -1.5782 0
M  V30 4019 C 366.653 0.173445 -1.94829 0
M  V30 4020 O 367.859 0.380984 -2.68814 0
M  V30 4021 C 366.315 -2.20151 -2.84713 0
M  V30 4022 C 365.923 -3.68331 -2.55021 0
M  V30 4023 C 367.667 -2.20508 -3.62735 0
M  V30 4024 C 365.574 -4.54762 -3.78082 0
M  V30 4025 H 364.504 -0.466573 -0.592306 0
M  V30 4026 H 367.155 -1.59283 -0.911116 0
M  V30 4027 H 365.537 -1.79417 -3.53023 0
M  V30 4028 H 366.711 -4.17577 -1.94849 0
M  V30 4029 H 365.026 -3.7038 -1.90283 0
M  V30 4030 H 367.623 -2.82306 -4.54101 0
M  V30 4031 H 367.966 -1.20322 -3.98533 0
M  V30 4032 H 368.499 -2.59664 -3.01362 0
M  V30 4033 H 365.238 -5.55867 -3.47407 0
M  V30 4034 H 364.758 -4.10254 -4.37552 0
M  V30 4035 H 366.437 -4.69153 -4.45538 0
M  V30 4036 N 366.569 1.04691 -1.17803 0
M  V30 4037 C 367.797 1.81446 -0.99423 0
M  V30 4038 C 368.212 1.83174 0.457459 0
M  V30 4039 O 367.569 1.26265 1.31771 0
M  V30 4040 C 367.62 3.27334 -1.5341 0
M  V30 4041 O 367.341 3.25798 -2.92895 0
M  V30 4042 C 368.842 4.20759 -1.39559 0
M  V30 4043 H 366.062 0.571599 -0.351447 0
M  V30 4044 H 368.606 1.31982 -1.56208 0
M  V30 4045 H 366.761 3.74052 -1.00815 0
M  V30 4046 H 367.175 4.17144 -3.17949 0
M  V30 4047 H 368.649 5.21084 -1.82141 0
M  V30 4048 H 369.126 4.37856 -0.343394 0
M  V30 4049 H 369.732 3.79901 -1.91195 0
M  V30 4050 N 368.047 0.979072 1.23499 0
M  V30 4051 C 369.458 0.684391 1.73704 0
M  V30 4052 C 369.809 -0.799448 1.79174 0
M  V30 4053 O 368.934 -1.62531 1.42873 0
M  V30 4054 C 369.529 1.23564 3.15464 0
M  V30 4055 C 368.088 0.99063 3.6313 0
M  V30 4056 C 367.235 1.36416 2.41425 0
M  V30 4057 H 370.186 1.15307 1.09041 0
M  V30 4058 H 370.207 0.607417 3.7562 0
M  V30 4059 H 369.719 2.31561 3.1145 0
M  V30 4060 H 367.82 -0.0733136 3.72528 0
M  V30 4061 H 367.933 1.64427 4.5 0
M  V30 4062 H 366.297 0.782616 2.42378 0
M  V30 4063 H 367.08 2.45387 2.40083 0
M  V30 4064 N 369.525 -1.3858 0.750561 0
M  V30 4065 C 370.435 -2.34278 0.122825 0
M  V30 4066 C 371.451 -1.59116 -0.704131 0
M  V30 4067 O 372.627 -1.91326 -0.628987 0
M  V30 4068 C 369.692 -3.38221 -0.762086 0
M  V30 4069 C 368.753 -4.29227 0.078896 0
M  V30 4070 C 367.986 -5.28205 -0.763874 0
M  V30 4071 O 368.209 -5.34112 -2.00201 0
M  V30 4072 O 367.143 -6.01618 -0.18428 0
M  V30 4073 H 370.969 -2.89649 0.913088 0
M  V30 4074 H 368.554 -1.40374 0.511417 0
M  V30 4075 H 370.436 -4.01872 -1.26793 0
M  V30 4076 H 369.111 -2.85211 -1.5309 0
M  V30 4077 H 368.018 -3.68747 0.630621 0
M  V30 4078 H 369.351 -4.85484 0.810289 0
M  V30 4079 N 371.003 -0.499398 -1.49478 0
M  V30 4080 C 372.249 0.0457576 -2.02748 0
M  V30 4081 C 372.582 1.36793 -1.37846 0
M  V30 4082 O 371.857 1.87596 -0.513601 0
M  V30 4083 C 372.14 0.199986 -3.59544 0
M  V30 4084 C 371.993 -1.1452 -4.34977 0
M  V30 4085 C 373.312 0.94137 -4.29914 0
M  V30 4086 H 370.431 0.0151552 -0.736844 0
M  V30 4087 H 373.073 -0.650498 -1.78518 0
M  V30 4088 H 371.223 0.793007 -3.8032 0
M  V30 4089 H 372.895 -1.77697 -4.25701 0
M  V30 4090 H 371.138 -1.73488 -3.97598 0
M  V30 4091 H 371.809 -0.990607 -5.43039 0
M  V30 4092 H 374.285 0.43844 -4.13784 0
M  V30 4093 H 373.161 1.01812 -5.39375 0
M  V30 4094 H 373.422 1.98471 -3.95046 0
M  V30 4095 N 372.481 1.55866 -0.233164 0
M  V30 4096 C 373.727 1.99643 0.389148 0
M  V30 4097 C 374.082 1.11836 1.56558 0
M  V30 4098 O 373.375 0.170848 1.90837 0
M  V30 4099 C 373.569 3.46856 0.861724 0
M  V30 4100 C 373.398 4.48904 -0.267376 0
M  V30 4101 C 372.168 4.99888 -0.737577 0
M  V30 4102 C 374.366 5.02624 -1.08966 0
M  V30 4103 N 372.348 5.8566 -1.84052 0
M  V30 4104 C 373.719 5.85434 -2.04125 0
M  V30 4105 C 375.774 4.84959 -1.12779 0
M  V30 4106 C 374.477 6.52466 -3.02789 0
M  V30 4107 C 376.503 5.52759 -2.10266 0
M  V30 4108 C 375.865 6.35346 -3.04162 0
M  V30 4109 H 371.964 0.774402 0.108742 0
M  V30 4110 H 374.548 1.91572 -0.347596 0
M  V30 4111 H 372.719 3.55352 1.5678 0
M  V30 4112 H 374.451 3.77531 1.45783 0
M  V30 4113 H 371.206 4.7249 -0.324122 0
M  V30 4114 H 371.63 6.33246 -2.39434 0
M  V30 4115 H 376.272 4.20751 -0.415749 0
M  V30 4116 H 373.99 7.15849 -3.74948 0
M  V30 4117 H 377.576 5.41051 -2.13905 0
M  V30 4118 H 376.456 6.86883 -3.78366 0
M  V30 4119 N 373.959 -0.0401083 1.57549 0
M  V30 4120 C 375.37 -0.588097 1.77196 0
M  V30 4121 C 375.721 -1.76209 0.862832 0
M  V30 4122 O 374.846 -2.16331 0.0548389 0
M  V30 4123 C 375.441 -1.07363 3.21339 0
M  V30 4124 C 374 -1.56723 3.42221 0
M  V30 4125 C 373.147 -0.50041 2.72747 0
M  V30 4126 H 376.098 0.186119 1.57605 0
M  V30 4127 H 376.119 -1.94143 3.27244 0
M  V30 4128 H 375.631 -0.218975 3.87482 0
M  V30 4129 H 373.732 -2.4441 2.81237 0
M  V30 4130 H 373.845 -1.62234 4.50796 0
M  V30 4131 H 372.209 -0.952894 2.36203 0
M  V30 4132 H 372.992 0.344599 3.41566 0
M  V30 4133 N 375.437 -1.54477 -0.31217 0
M  V30 4134 C 376.385 -1.85395 -1.40469 0
M  V30 4135 C 377.379 -0.726749 -1.53019 0
M  V30 4136 O 378.585 -0.910582 -1.55269 0
M  V30 4137 H 374.96 -0.587845 -0.46898 0
M  V30 4138 H 376.931 -2.76736 -1.11623 0
M  V30 4139 C 375.68 -2.10811 -2.76503 0
M  V30 4140 H 375.003 -2.97014 -2.67625 0
M  V30 4141 H 376.443 -2.3639 -3.51988 0
M  V30 4142 C 374.902 -0.903165 -3.24568 0
M  V30 4143 O 375.432 -0.118085 -4.01526 0
M  V30 4144 N 373.638 -0.711634 -2.81752 0
M  V30 4145 H 373.185 -1.35171 -2.19286 0
M  V30 4146 H 373.143 0.0930473 -3.14262 0
M  V30 4147 N 376.915 0.57481 -1.46744 0
M  V30 4148 C 378.161 1.3347 -1.52688 0
M  V30 4149 C 378.494 1.93353 -0.181229 0
M  V30 4150 O 377.769 1.76912 0.808237 0
M  V30 4151 C 378.052 2.45811 -2.63152 0
M  V30 4152 C 377.905 1.90912 -4.07275 0
M  V30 4153 C 379.224 3.47822 -2.69644 0
M  V30 4154 H 376.343 0.483935 -0.555856 0
M  V30 4155 H 378.985 0.644968 -1.78718 0
M  V30 4156 H 377.135 3.04646 -2.41088 0
M  V30 4157 H 378.807 1.36473 -4.4065 0
M  V30 4158 H 377.05 1.21691 -4.16382 0
M  V30 4159 H 377.721 2.72042 -4.80309 0
M  V30 4160 H 380.197 2.9888 -2.895 0
M  V30 4161 H 379.073 4.23876 -3.48742 0
M  V30 4162 H 379.334 4.05555 -1.76005 0
M  V30 4163 N 378.394 1.34581 0.820102 0
M  V30 4164 C 379.671 1.17675 1.56244 0
M  V30 4165 C 380.051 -0.249541 2.0962 0
M  V30 4166 O 379.399 -1.25125 1.91196 0
M  V30 4167 C 379.609 2.23364 2.6816 0
M  V30 4168 C 380.957 2.58485 3.36854 0
M  V30 4169 O 381.981 2.22175 2.78418 0
M  V30 4170 O 380.84 3.20868 4.42386 0
M  V30 4171 H 377.934 0.456333 0.689702 0
M  V30 4172 H 380.48 1.46222 0.861231 0
M  V30 4173 H 379.252 3.19087 2.26493 0
M  V30 4174 H 378.875 1.96009 3.45928 0
M  V30 4175 N 379.872 -1.04064 1.18357 0
M  V30 4176 C 380.82 -2.14187 0.907007 0
M  V30 4177 C 381.814 -1.68879 -0.132725 0
M  V30 4178 O 383.02 -1.79993 0.0154248 0
M  V30 4179 H 379.395 -0.699585 0.275835 0
M  V30 4180 H 381.366 -2.34711 1.84264 0
M  V30 4181 C 380.115 -3.44785 0.449254 0
M  V30 4182 H 379.438 -3.80058 1.24081 0
M  V30 4183 H 380.878 -4.22974 0.294737 0
M  V30 4184 C 379.337 -3.26391 -0.834909 0
M  V30 4185 O 379.867 -3.53973 -1.89911 0
M  V30 4186 N 378.073 -2.79726 -0.787523 0
M  V30 4187 H 377.62 -2.5748 0.0787347 0
M  V30 4188 H 377.578 -2.67798 -1.64716 0
M  V30 4189 N 381.35 -0.985608 -1.22978 0
M  V30 4190 C 382.58 -0.674603 -1.95276 0
M  V30 4191 C 382.988 0.763483 -1.73111 0
M  V30 4192 O 382.331 1.52601 -1.02268 0
M  V30 4193 C 382.393 -0.891597 -3.48268 0
M  V30 4194 C 382.057 -2.31275 -3.94158 0
M  V30 4195 C 383.054 -3.29179 -4.02415 0
M  V30 4196 C 380.739 -2.64524 -4.27004 0
M  V30 4197 C 382.733 -4.58407 -4.42879 0
M  V30 4198 C 380.42 -3.93974 -4.67149 0
M  V30 4199 C 381.418 -4.90727 -4.75053 0
M  V30 4200 O 381.106 -6.17865 -5.14294 0
M  V30 4201 H 380.838 -0.249251 -0.628371 0
M  V30 4202 H 383.392 -1.32106 -1.5728 0
M  V30 4203 H 381.622 -0.187962 -3.86243 0
M  V30 4204 H 383.311 -0.576957 -4.01779 0
M  V30 4205 H 384.077 -3.04823 -3.77237 0
M  V30 4206 H 379.956 -1.89923 -4.2006 0
M  V30 4207 H 383.5 -5.33926 -4.48964 0
M  V30 4208 H 379.397 -4.18122 -4.91777 0
M  V30 4209 H 380.165 -6.21694 -5.32389 0
M  V30 4210 N 382.828 1.3818 -0.7579 0
M  V30 4211 C 383.738 2.3421 -0.135247 0
M  V30 4212 C 384.754 1.59487 0.695683 0
M  V30 4213 O 385.93 1.91657 0.618832 0
M  V30 4214 C 382.995 3.3862 0.744139 0
M  V30 4215 C 382.056 4.2918 -0.101658 0
M  V30 4216 C 381.289 5.28603 0.735851 0
M  V30 4217 O 381.512 5.35166 1.97366 0
M  V30 4218 O 380.446 6.01707 0.152372 0
M  V30 4219 H 384.272 2.8916 -0.928436 0
M  V30 4220 H 381.857 1.40101 -0.518855 0
M  V30 4221 H 383.739 4.02539 1.2466 0
M  V30 4222 H 382.414 2.86019 1.51575 0
M  V30 4223 H 381.321 3.68407 -0.650167 0
M  V30 4224 H 382.654 4.85048 -0.836024 0
M  V30 4225 N 384.306 0.507319 1.49211 0
M  V30 4226 C 385.236 -0.256939 2.32082 0
M  V30 4227 C 386.217 -0.956609 1.40652 0
M  V30 4228 O 387.402 -0.946788 1.69557 0
M  V30 4229 C 384.532 -1.31802 3.21318 0
M  V30 4230 C 383.486 -0.737855 4.21592 0
M  V30 4231 C 382.812 -1.89992 4.99807 0
M  V30 4232 C 384.112 0.275325 5.21574 0
M  V30 4233 H 385.806 0.434798 2.96226 0
M  V30 4234 H 383.352 0.210546 1.42452 0
M  V30 4235 H 385.305 -1.86045 3.78107 0
M  V30 4236 H 384.029 -2.03903 2.5513 0
M  V30 4237 H 382.688 -0.217126 3.65956 0
M  V30 4238 H 382.336 -2.60877 4.30061 0
M  V30 4239 H 382.036 -1.51777 5.6766 0
M  V30 4240 H 383.56 -2.44657 5.59442 0
M  V30 4241 H 384.974 -0.179193 5.7302 0
M  V30 4242 H 383.371 0.573649 5.97352 0
M  V30 4243 H 384.441 1.18903 4.70096 0
M  V30 4244 N 385.784 -1.5574 0.241426 0
M  V30 4245 C 387.014 -2.02913 -0.38857 0
M  V30 4246 C 387.422 -1.12014 -1.52478 0
M  V30 4247 O 386.765 -0.125903 -1.83268 0
M  V30 4248 C 386.827 -3.4636 -0.963075 0
M  V30 4249 C 386.491 -4.56982 0.0401916 0
M  V30 4250 C 387.488 -5.12941 0.847766 0
M  V30 4251 C 385.173 -5.0203 0.164699 0
M  V30 4252 C 387.167 -6.12437 1.76636 0
M  V30 4253 C 384.854 -6.01358 1.0868 0
M  V30 4254 C 385.852 -6.5644 1.88616 0
M  V30 4255 O 385.54 -7.53831 2.79273 0
M  V30 4256 H 385.272 -0.668983 -0.0971452 0
M  V30 4257 H 387.826 -2.02198 0.361248 0
M  V30 4258 H 386.056 -3.44206 -1.76235 0
M  V30 4259 H 387.745 -3.77065 -1.50257 0
M  V30 4260 H 388.511 -4.78974 0.762133 0
M  V30 4261 H 384.39 -4.58824 -0.447411 0
M  V30 4262 H 387.934 -6.55355 2.39071 0
M  V30 4263 H 383.831 -6.34746 1.17338 0
M  V30 4264 H 384.599 -7.71428 2.73572 0
M  V30 4265 N 387.262 0.0317525 -1.57568 0
M  V30 4266 C 388.172 1.05021 -2.0978 0
M  V30 4267 C 389.188 1.39809 -1.03583 0
M  V30 4268 O 390.364 1.49182 -1.35302 0
M  V30 4269 C 387.429 2.33301 -2.56459 0
M  V30 4270 C 386.49 2.0512 -3.77127 0
M  V30 4271 C 385.723 3.27283 -4.2157 0
M  V30 4272 O 385.946 4.37861 -3.65559 0
M  V30 4273 O 384.88 3.13141 -5.14029 0
M  V30 4274 H 388.706 0.636505 -2.96955 0
M  V30 4275 H 386.291 0.248559 -1.47318 0
M  V30 4276 H 388.173 3.08722 -2.86825 0
M  V30 4277 H 386.848 2.73973 -1.72397 0
M  V30 4278 H 385.755 1.27276 -3.51784 0
M  V30 4279 H 387.088 1.69305 -4.62165 0
M  V30 4280 N 388.74 1.54641 0.303973 0
M  V30 4281 C 389.687 1.85386 1.37479 0
M  V30 4282 C 390.657 0.702528 1.50512 0
M  V30 4283 O 391.842 0.950867 1.65418 0
M  V30 4284 C 388.982 2.10413 2.73533 0
M  V30 4285 C 388.095 3.38049 2.68974 0
M  V30 4286 C 387.23 3.52934 3.97002 0
M  V30 4287 C 386.269 4.74373 3.86829 0
M  V30 4288 N 385.406 4.8608 5.06627 0
M  V30 4289 H 390.246 2.76732 1.1056 0
M  V30 4290 H 387.783 1.37034 0.534805 0
M  V30 4291 H 389.741 2.22919 3.52652 0
M  V30 4292 H 388.371 1.22338 2.98719 0
M  V30 4293 H 387.423 3.3418 1.81736 0
M  V30 4294 H 388.735 4.27288 2.57346 0
M  V30 4295 H 387.889 3.65088 4.84557 0
M  V30 4296 H 386.628 2.61824 4.1146 0
M  V30 4297 H 385.633 4.62255 2.97658 0
M  V30 4298 H 386.858 5.66888 3.73918 0
M  V30 4299 H 384.804 3.97891 5.21554 0
M  V30 4300 H 384.721 5.69315 4.9741 0
M  V30 4301 H 385.989 5.02587 5.95841 0
M  V30 4302 N 390.218 -0.567019 1.47046 0
M  V30 4303 C 391.148 -1.68482 1.61667 0
M  V30 4304 C 392.129 -1.6358 0.466418 0
M  V30 4305 O 393.314 -1.81354 0.694574 0
M  V30 4306 C 390.444 -3.07124 1.62148 0
M  V30 4307 C 389.398 -3.26867 2.76301 0
M  V30 4308 C 388.724 -4.66196 2.61849 0
M  V30 4309 C 390.024 -3.13186 4.17986 0
M  V30 4310 H 391.718 -1.56502 2.5524 0
M  V30 4311 H 389.264 -0.751486 1.22836 0
M  V30 4312 H 391.217 -3.8516 1.70968 0
M  V30 4313 H 389.941 -3.2004 0.651287 0
M  V30 4314 H 388.6 -2.51237 2.66975 0
M  V30 4315 H 388.248 -4.75898 1.62879 0
M  V30 4316 H 387.948 -4.80356 3.38425 0
M  V30 4317 H 389.472 -5.46379 2.72584 0
M  V30 4318 H 390.886 -3.81049 4.2834 0
M  V30 4319 H 389.283 -3.3886 4.95272 0
M  V30 4320 H 390.353 -2.10057 4.3704 0
M  V30 4321 N 391.696 -1.35014 -0.812953 0
M  V30 4322 C 392.606 -1.2951 -1.95613 0
M  V30 4323 C 393.622 -0.20107 -1.72834 0
M  V30 4324 O 394.798 -0.42932 -1.96771 0
M  V30 4325 C 391.863 -1.06033 -3.30088 0
M  V30 4326 C 390.924 -2.24688 -3.65805 0
M  V30 4327 C 390.157 -2.02322 -4.93864 0
M  V30 4328 O 390.38 -0.986464 -5.61805 0
M  V30 4329 O 389.314 -2.89525 -5.27692 0
M  V30 4330 H 393.14 -2.25705 -2.03202 0
M  V30 4331 H 390.725 -1.15321 -0.949811 0
M  V30 4332 H 392.607 -0.94763 -4.10607 0
M  V30 4333 H 391.282 -0.128852 -3.23443 0
M  V30 4334 H 390.189 -2.41521 -2.85689 0
M  V30 4335 H 391.522 -3.16261 -3.77147 0
M  V30 4336 N 393.175 1.03435 -1.18907 0
M  V30 4337 C 394.105 2.13503 -0.945448 0
M  V30 4338 C 395.086 1.69682 0.119189 0
M  V30 4339 O 396.271 1.94169 -0.034707 0
M  V30 4340 C 393.401 3.44004 -0.477316 0
M  V30 4341 C 392.355 4.0148 -1.48316 0
M  V30 4342 C 391.681 5.27537 -0.872311 0
M  V30 4343 C 392.981 4.36921 -2.86177 0
M  V30 4344 H 394.675 2.34141 -1.86597 0
M  V30 4345 H 392.221 1.12523 -0.898584 0
M  V30 4346 H 394.174 4.20372 -0.294204 0
M  V30 4347 H 392.898 3.23072 0.478786 0
M  V30 4348 H 391.557 3.27201 -1.65332 0
M  V30 4349 H 391.205 5.02917 0.0911752 0
M  V30 4350 H 390.905 5.66954 -1.54393 0
M  V30 4351 H 392.429 6.06576 -0.699871 0
M  V30 4352 H 393.843 5.04248 -2.72776 0
M  V30 4353 H 392.24 4.87405 -3.50081 0
M  V30 4354 H 393.31 3.46466 -3.39248 0
M  V30 4355 N 394.653 0.992116 1.22453 0
M  V30 4356 C 395.899 0.668523 1.91464 0
M  V30 4357 C 396.232 -0.797313 1.77078 0
M  V30 4358 O 395.507 -1.5765 1.13916 0
M  V30 4359 C 395.79 1.07424 3.43703 0
M  V30 4360 C 395.643 2.59857 3.67143 0
M  V30 4361 C 396.962 0.626891 4.35612 0
M  V30 4362 H 394.081 0.244341 0.695318 0
M  V30 4363 H 396.723 1.2355 1.44345 0
M  V30 4364 H 394.873 0.591816 3.83966 0
M  V30 4365 H 396.545 3.15764 3.3629 0
M  V30 4366 H 394.788 3.01961 3.11451 0
M  V30 4367 H 395.459 2.83296 4.73759 0
M  V30 4368 H 397.935 1.04125 4.02861 0
M  V30 4369 H 396.811 0.939076 5.40807 0
M  V30 4370 H 397.072 -0.472457 4.39568 0
M  V30 4371 N 396.131 -1.37776 0.765217 0
M  V30 4372 C 397.078 -2.30342 0.145274 0
M  V30 4373 C 398.048 -1.5077 -0.696971 0
M  V30 4374 O 399.233 -1.79362 -0.650689 0
M  V30 4375 C 396.373 -3.37227 -0.732939 0
M  V30 4376 C 395.486 -4.31819 0.125199 0
M  V30 4377 C 394.621 -5.25777 -0.757107 0
M  V30 4378 C 393.66 -6.12012 0.103963 0
M  V30 4379 N 392.797 -6.98232 -0.735953 0
M  V30 4380 H 397.637 -2.8278 0.940195 0
M  V30 4381 H 395.174 -1.39211 0.475255 0
M  V30 4382 H 397.132 -3.97818 -1.25686 0
M  V30 4383 H 395.762 -2.86171 -1.49353 0
M  V30 4384 H 394.814 -3.7259 0.766865 0
M  V30 4385 H 396.126 -4.92509 0.789683 0
M  V30 4386 H 395.28 -5.91541 -1.34776 0
M  V30 4387 H 394.019 -4.65481 -1.45529 0
M  V30 4388 H 393.024 -5.45233 0.707197 0
M  V30 4389 H 394.249 -6.74379 0.799381 0
M  V30 4390 H 392.195 -6.40472 -1.41887 0
M  V30 4391 H 392.112 -7.55891 -0.128624 0
M  V30 4392 H 393.38 -7.68393 -1.31121 0
M  V30 4393 N 397.609 -0.515225 -1.4894 0
M  V30 4394 C 398.857 0.0241671 -2.02086 0
M  V30 4395 C 399.178 1.3616 -1.3959 0
M  V30 4396 O 398.448 1.87841 -0.556121 0
M  V30 4397 H 397.028 0.0119203 -0.746905 0
M  V30 4398 H 399.69 -0.675702 -1.82812 0
M  V30 4399 H 398.786 0.143385 -3.1177 0
M  V30 4400 N 399.087 1.5561 -0.249682 0
M  V30 4401 C 400.019 2.18834 0.681496 0
M  V30 4402 C 401.032 1.16546 1.1367 0
M  V30 4403 O 402.221 1.43397 1.06299 0
M  V30 4404 C 399.321 2.77992 1.9384 0
M  V30 4405 C 398.494 4.05725 1.63419 0
M  V30 4406 C 397.553 4.49174 2.74096 0
M  V30 4407 O 396.579 5.15492 2.41364 0
M  V30 4408 N 397.781 4.17191 4.03649 0
M  V30 4409 H 400.546 2.9937 0.140514 0
M  V30 4410 H 398.107 1.6175 -0.0697541 0
M  V30 4411 H 400.099 3.04015 2.67127 0
M  V30 4412 H 398.669 2.01596 2.38909 0
M  V30 4413 H 397.889 3.87261 0.736358 0
M  V30 4414 H 399.177 4.88999 1.40562 0
M  V30 4415 H 398.575 3.63955 4.33074 0
M  V30 4416 H 397.132 4.48043 4.73393 0
M  V30 4417 N 400.565 -0.0233959 1.57583 0
M  V30 4418 C 401.512 -1.02224 2.06927 0
M  V30 4419 C 402.482 -1.35575 0.959617 0
M  V30 4420 O 403.667 -1.45815 1.23055 0
M  V30 4421 C 400.807 -2.31636 2.5581 0
M  V30 4422 C 399.92 -2.04394 3.80588 0
M  V30 4423 C 399.055 -3.27717 4.18061 0
M  V30 4424 C 398.094 -2.96056 5.3574 0
M  V30 4425 N 397.231 -4.11847 5.68618 0
M  V30 4426 H 402.071 -0.594504 2.9201 0
M  V30 4427 H 399.608 -0.281921 1.44373 0
M  V30 4428 H 401.566 -3.07258 2.82221 0
M  V30 4429 H 400.196 -2.72122 1.73636 0
M  V30 4430 H 399.248 -1.19244 3.61227 0
M  V30 4431 H 400.56 -1.77042 4.66323 0
M  V30 4432 H 399.714 -4.11702 4.4563 0
M  V30 4433 H 398.453 -3.58188 3.30988 0
M  V30 4434 H 397.458 -2.10474 5.07918 0
M  V30 4435 H 398.683 -2.66857 6.24471 0
M  V30 4436 H 396.629 -4.42258 4.84504 0
M  V30 4437 H 396.546 -3.87938 6.48876 0
M  V30 4438 H 397.814 -4.96689 6.00766 0
M  V30 4439 N 402.043 -1.548 -0.295768 0
M  V30 4440 C 403.459 -1.4613 -0.641722 0
M  V30 4441 C 403.659 -0.656771 -1.90496 0
M  V30 4442 O 402.715 -0.166547 -2.5195 0
M  V30 4443 C 404.028 -2.90141 -0.789852 0
M  V30 4444 C 405.576 -3.00216 -0.885396 0
M  V30 4445 C 406.051 -4.45434 -1.06548 0
M  V30 4446 N 407.542 -4.49166 -1.13156 0
M  V30 4447 C 408.277 -5.58717 -1.28929 0
M  V30 4448 N 407.773 -6.78182 -1.41567 0
M  V30 4449 N 409.566 -5.46415 -1.31859 0
M  V30 4450 H 401.717 -2.05574 0.534147 0
M  V30 4451 H 403.98 -0.931259 0.177372 0
M  V30 4452 H 403.686 -3.51635 0.0675598 0
M  V30 4453 H 403.56 -3.37859 -1.67724 0
M  V30 4454 H 405.947 -2.38833 -1.73329 0
M  V30 4455 H 406.028 -2.55787 0.0261185 0
M  V30 4456 H 405.672 -5.07413 -0.222335 0
M  V30 4457 H 405.602 -4.87499 -1.9913 0
M  V30 4458 H 408.093 -3.631 -1.04721 0
M  V30 4459 H 408.406 -7.57428 -1.53372 0
M  V30 4460 H 406.751 -6.81037 -1.38613 0
M  V30 4461 H 409.942 -4.5203 -1.21601 0
M  V30 4462 H 410.115 -6.31841 -1.43808 0
M  V30 4463 N 403.521 0.559213 -1.47345 0
M  V30 4464 C 404.468 1.66645 -1.59682 0
M  V30 4465 C 405.438 1.60168 -0.43994 0
M  V30 4466 O 406.623 1.79031 -0.659736 0
M  V30 4467 C 403.763 3.04969 -1.61518 0
M  V30 4468 C 402.876 3.21897 -2.88108 0
M  V30 4469 C 402.011 4.50608 -2.81294 0
M  V30 4470 C 401.05 4.60961 -4.02717 0
M  V30 4471 N 400.187 5.81024 -3.94151 0
M  V30 4472 H 405.027 1.55439 -2.54249 0
M  V30 4473 H 402.564 0.757219 -1.26113 0
M  V30 4474 H 404.522 3.85064 -1.60566 0
M  V30 4475 H 403.152 3.15015 -0.704645 0
M  V30 4476 H 402.204 2.35248 -2.98936 0
M  V30 4477 H 403.516 3.25412 -3.78032 0
M  V30 4478 H 402.67 5.3896 -2.7858 0
M  V30 4479 H 401.409 4.49568 -1.89049 0
M  V30 4480 H 400.414 3.71021 -4.05738 0
M  V30 4481 H 401.639 4.63761 -4.96087 0
M  V30 4482 H 399.585 5.80938 -3.04708 0
M  V30 4483 H 399.502 5.85909 -4.77752 0
M  V30 4484 H 400.77 6.71744 -3.9545 0
M  V30 4485 N 404.999 1.35443 0.805782 0
M  V30 4486 C 406.245 1.28952 1.56522 0
M  V30 4487 C 406.578 -0.135597 1.93726 0
M  V30 4488 O 405.853 -1.08516 1.61414 0
M  V30 4489 C 406.136 2.19678 2.85331 0
M  V30 4490 C 405.989 3.7081 2.54598 0
M  V30 4491 C 407.308 2.09495 3.8704 0
M  V30 4492 H 404.427 0.469764 0.567883 0
M  V30 4493 H 407.069 1.65851 0.927001 0
M  V30 4494 H 405.219 1.8834 3.39795 0
M  V30 4495 H 406.891 4.12593 2.06312 0
M  V30 4496 H 405.134 3.91051 1.8778 0
M  V30 4497 H 405.805 4.29679 3.46525 0
M  V30 4498 H 408.281 2.37045 3.41978 0
M  V30 4499 H 407.157 2.75173 4.74943 0
M  V30 4500 H 407.418 1.07714 4.28777 0
M  V30 4501 N 406.477 -1.02803 1.19454 0
M  V30 4502 C 407.424 -2.11099 0.933046 0
M  V30 4503 C 408.394 -1.65571 -0.132447 0
M  V30 4504 O 409.579 -1.90797 0.00987576 0
M  V30 4505 C 406.719 -3.41763 0.478747 0
M  V30 4506 C 405.832 -4.00833 1.6111 0
M  V30 4507 C 404.967 -5.19511 1.10825 0
M  V30 4508 C 404.006 -5.70639 2.21445 0
M  V30 4509 N 403.143 -6.80589 1.72461 0
M  V30 4510 H 407.983 -2.32804 1.86028 0
M  V30 4511 H 405.52 -1.14179 0.927441 0
M  V30 4512 H 407.478 -4.16736 0.196745 0
M  V30 4513 H 406.108 -3.20166 -0.411493 0
M  V30 4514 H 405.16 -3.23066 2.00829 0
M  V30 4515 H 406.472 -4.34794 2.4445 0
M  V30 4516 H 405.626 -6.01645 0.781533 0
M  V30 4517 H 404.365 -4.87086 0.244606 0
M  V30 4518 H 403.37 -4.87116 2.54947 0
M  V30 4519 H 404.595 -6.05102 3.08267 0
M  V30 4520 H 402.541 -6.50016 0.884056 0
M  V30 4521 H 402.458 -7.13681 2.49389 0
M  V30 4522 H 403.726 -7.66317 1.42755 0
M  V30 4523 N 407.956 -0.998596 -1.21925 0
M  V30 4524 C 409.233 -0.593401 -1.86382 0
M  V30 4525 C 409.613 0.92916 -1.89552 0
M  V30 4526 O 408.961 1.81347 -1.39017 0
M  V30 4527 C 409.171 -1.22039 -3.26967 0
M  V30 4528 C 410.519 -1.32449 -4.03413 0
M  V30 4529 O 411.543 -1.17522 -3.36254 0
M  V30 4530 O 410.402 -1.56395 -5.23644 0
M  V30 4531 H 407.496 -0.202385 -0.801854 0
M  V30 4532 H 410.042 -1.09484 -1.29659 0
M  V30 4533 H 408.814 -2.26158 -3.19325 0
M  V30 4534 H 408.437 -0.704906 -3.91301 0
M  V30 4535 N 409.434 1.37368 -0.772513 0
M  V30 4536 C 410.85 1.53059 -0.452231 0
M  V30 4537 C 411.05 1.73065 1.03203 0
M  V30 4538 O 410.106 1.75245 1.81784 0
M  V30 4539 C 411.419 2.72659 -1.26797 0
M  V30 4540 C 412.967 2.86521 -1.25995 0
M  V30 4541 C 413.442 4.09105 -2.05905 0
M  V30 4542 N 414.933 4.16219 -2.03263 0
M  V30 4543 C 415.668 5.10107 -2.61875 0
M  V30 4544 N 415.164 6.09547 -3.29278 0
M  V30 4545 N 416.957 5.02596 -2.51701 0
M  V30 4546 H 409.108 1.22634 -1.7342 0
M  V30 4547 H 411.371 0.597206 -0.736239 0
M  V30 4548 H 411.077 2.64343 -2.31982 0
M  V30 4549 H 410.951 3.66363 -0.897672 0
M  V30 4550 H 413.338 2.94308 -0.216081 0
M  V30 4551 H 413.419 1.93774 -1.66989 0
M  V30 4552 H 413.063 4.0208 -3.10313 0
M  V30 4553 H 412.993 5.00968 -1.62292 0
M  V30 4554 H 415.484 3.45012 -1.54192 0
M  V30 4555 H 415.797 6.77718 -3.71374 0
M  V30 4556 H 414.142 6.09824 -3.33377 0
M  V30 4557 H 417.333 4.23855 -1.98657 0
M  V30 4558 H 417.506 5.75582 -2.97673 0
M  V30 4559 N 410.912 0.523116 1.48665 0
M  V30 4560 C 411.842 -0.23231 2.32342 0
M  V30 4561 C 412.823 -0.941637 1.41659 0
M  V30 4562 O 414.008 -0.928751 1.70552 0
M  V30 4563 C 411.138 -1.28387 3.22698 0
M  V30 4564 C 410.092 -0.693098 4.22351 0
M  V30 4565 C 409.418 -1.8468 5.01794 0
M  V30 4566 C 410.718 0.33063 5.21252 0
M  V30 4567 H 412.412 0.466192 2.95748 0
M  V30 4568 H 409.958 0.225643 1.42221 0
M  V30 4569 H 411.911 -1.82024 3.80059 0
M  V30 4570 H 410.635 -2.01186 2.57278 0
M  V30 4571 H 409.294 -0.178299 3.66166 0
M  V30 4572 H 408.942 -2.56301 4.32804 0
M  V30 4573 H 408.642 -1.45747 5.69238 0
M  V30 4574 H 410.166 -2.38709 5.62006 0
M  V30 4575 H 411.58 -0.118407 5.73178 0
M  V30 4576 H 409.977 0.636974 5.9671 0
M  V30 4577 H 411.047 1.23883 4.68808 0
M  V30 4578 N 412.39 -1.55475 0.257931 0
M  V30 4579 C 413.337 -2.21837 -0.636939 0
M  V30 4580 C 414.307 -1.18596 -1.16294 0
M  V30 4581 O 415.492 -1.47081 -1.21539 0
M  V30 4582 C 412.632 -2.9301 -1.82317 0
M  V30 4583 C 411.745 -4.10931 -1.33265 0
M  V30 4584 C 410.88 -4.69791 -2.47931 0
M  V30 4585 C 409.919 -5.7994 -1.95796 0
M  V30 4586 N 409.056 -6.32935 -3.0387 0
M  V30 4587 H 413.896 -2.9793 -0.0643591 0
M  V30 4588 H 411.433 -1.47086 -0.0200031 0
M  V30 4589 H 413.391 -3.3248 -2.52018 0
M  V30 4590 H 412.021 -2.1937 -2.36805 0
M  V30 4591 H 411.073 -3.76699 -0.52931 0
M  V30 4592 H 412.385 -4.90417 -0.910654 0
M  V30 4593 H 411.539 -5.11892 -3.25656 0
M  V30 4594 H 410.278 -3.89545 -2.93438 0
M  V30 4595 H 409.283 -5.37305 -1.16546 0
M  V30 4596 H 410.508 -6.62043 -1.51246 0
M  V30 4597 H 408.454 -5.55591 -3.48791 0
M  V30 4598 H 408.371 -7.07645 -2.66035 0
M  V30 4599 H 409.639 -6.79695 -3.81621 0
M  V30 4600 N 413.868 0.0150385 -1.57593 0
M  V30 4601 C 414.831 0.995996 -2.06428 0
M  V30 4602 C 415.831 1.2818 -0.970903 0
M  V30 4603 O 417.021 1.22949 -1.23406 0
M  V30 4604 C 414.153 2.32506 -2.49307 0
M  V30 4605 H 415.346 0.573873 -2.94358 0
M  V30 4606 H 412.899 0.262186 -1.54085 0
M  V30 4607 H 413.634 2.79438 -1.64575 0
M  V30 4608 H 413.419 2.13087 -3.29145 0
M  V30 4609 H 414.909 3.02906 -2.87468 0
M  V30 4610 N 415.346 1.54954 0.287554 0
M  V30 4611 C 416.576 1.78622 1.03816 0
M  V30 4612 C 416.984 0.552451 1.80955 0
M  V30 4613 O 416.327 -0.487665 1.77109 0
M  V30 4614 C 416.389 2.94975 2.055 0
M  V30 4615 C 416.053 4.32565 1.47433 0
M  V30 4616 C 417.05 5.12096 0.897436 0
M  V30 4617 C 414.735 4.79195 1.50591 0
M  V30 4618 C 416.729 6.36383 0.359851 0
M  V30 4619 C 414.416 6.03441 0.964459 0
M  V30 4620 C 415.414 6.81872 0.392413 0
M  V30 4621 O 415.102 8.03777 -0.140788 0
M  V30 4622 H 414.834 0.599144 0.313053 0
M  V30 4623 H 417.388 2.02761 0.328225 0
M  V30 4624 H 415.618 2.66493 2.80211 0
M  V30 4625 H 417.307 3.06097 2.6657 0
M  V30 4626 H 418.073 4.77209 0.865841 0
M  V30 4627 H 413.952 4.18167 1.94055 0
M  V30 4628 H 417.496 6.97545 -0.0872951 0
M  V30 4629 H 413.393 6.37813 0.993246 0
M  V30 4630 H 414.161 8.18495 -0.0287617 0
M  V30 4631 N 416.824 -0.551391 1.4764 0
M  V30 4632 C 418.07 -1.31024 1.54792 0
M  V30 4633 C 418.403 -1.9304 0.211967 0
M  V30 4634 O 417.678 -1.78175 -0.77999 0
M  V30 4635 C 417.961 -2.41593 2.67029 0
M  V30 4636 C 417.814 -1.84408 4.10261 0
M  V30 4637 C 419.133 -3.43488 2.75143 0
M  V30 4638 H 416.252 -0.475031 0.563485 0
M  V30 4639 H 418.894 -0.616454 1.79722 0
M  V30 4640 H 417.044 -3.00772 2.45904 0
M  V30 4641 H 418.716 -1.29445 4.42766 0
M  V30 4642 H 416.959 -1.15051 4.18265 0
M  V30 4643 H 417.63 -2.64367 4.84576 0
M  V30 4644 H 420.106 -2.94236 2.94218 0
M  V30 4645 H 418.982 -4.18274 3.55441 0
M  V30 4646 H 419.243 -4.02703 1.82435 0
M  V30 4647 N 418.302 -1.35869 -0.798587 0
M  V30 4648 C 419.718 -1.16082 -1.09532 0
M  V30 4649 C 419.918 0.0213124 -2.01489 0
M  V30 4650 O 418.974 0.689488 -2.42904 0
M  V30 4651 C 420.287 -2.46748 -1.7186 0
M  V30 4652 C 421.835 -2.53028 -1.84244 0
M  V30 4653 C 422.31 -3.83758 -2.49988 0
M  V30 4654 N 423.801 -3.85053 -2.57465 0
M  V30 4655 C 424.536 -4.8294 -3.09122 0
M  V30 4656 N 424.032 -5.91217 -3.61157 0
M  V30 4657 N 425.825 -4.70369 -3.0775 0
M  V30 4658 H 417.976 -2.11571 -0.187461 0
M  V30 4659 H 420.239 -0.936726 -0.145765 0
M  V30 4660 H 419.945 -3.33471 -1.11759 0
M  V30 4661 H 419.819 -2.61883 -2.71472 0
M  V30 4662 H 422.206 -1.66729 -2.43486 0
M  V30 4663 H 422.287 -2.418 -0.834643 0
M  V30 4664 H 421.931 -4.70459 -1.91393 0
M  V30 4665 H 421.861 -3.92278 -3.5132 0
M  V30 4666 H 424.352 -3.06822 -2.20609 0
M  V30 4667 H 424.665 -6.61892 -3.98896 0
M  V30 4668 H 423.01 -5.94899 -3.59333 0
M  V30 4669 H 426.201 -3.84914 -2.66381 0
M  V30 4670 H 426.374 -5.46816 -3.47701 0
M  V30 4671 N 419.78 1.02168 -1.19998 0
M  V30 4672 C 421.057 1.72816 -0.916191 0
M  V30 4673 C 421.437 2.03081 0.576325 0
M  V30 4674 O 420.785 1.69122 1.53656 0
M  V30 4675 C 420.995 2.9997 -1.78378 0
M  V30 4676 C 422.343 3.73336 -2.02251 0
M  V30 4677 O 423.367 3.09914 -1.75589 0
M  V30 4678 O 422.226 4.87371 -2.47249 0
M  V30 4679 H 419.32 0.752924 -0.342103 0
M  V30 4680 H 421.866 1.08062 -1.30846 0
M  V30 4681 H 420.638 2.73888 -2.79466 0
M  V30 4682 H 420.261 3.72464 -1.39126 0
M  V30 4683 N 421.258 1.00505 1.21394 0
M  V30 4684 C 422.669 0.721082 1.72213 0
M  V30 4685 C 423.02 -0.761263 1.80829 0
M  V30 4686 O 422.145 -1.59464 1.46288 0
M  V30 4687 C 422.74 1.30228 3.12772 0
M  V30 4688 C 421.299 1.06743 3.60947 0
M  V30 4689 C 420.446 1.41507 2.38477 0
M  V30 4690 H 423.397 1.17594 1.06571 0
M  V30 4691 H 423.418 0.686955 3.74247 0
M  V30 4692 H 422.93 2.38115 3.06468 0
M  V30 4693 H 421.031 0.00572162 3.726 0
M  V30 4694 H 421.144 1.73936 4.46411 0
M  V30 4695 H 419.508 0.833852 2.40664 0
M  V30 4696 H 420.291 2.50424 2.34824 0
M  V30 4697 N 422.737 -1.36956 0.779787 0
M  V30 4698 C 423.967 -2.03459 0.358877 0
M  V30 4699 C 424.375 -1.58939 -1.02641 0
M  V30 4700 O 423.718 -0.769777 -1.66794 0
M  V30 4701 C 423.78 -3.5796 0.332393 0
M  V30 4702 C 423.444 -4.25644 1.66362 0
M  V30 4703 C 424.441 -4.49205 2.61746 0
M  V30 4704 C 422.126 -4.63313 1.94027 0
M  V30 4705 C 424.12 -5.09503 3.82996 0
M  V30 4706 C 421.807 -5.2333 3.15546 0
M  V30 4707 C 422.805 -5.46363 4.0985 0
M  V30 4708 O 422.493 -6.05122 5.29228 0
M  V30 4709 H 422.225 -0.659767 0.147254 0
M  V30 4710 H 424.779 -1.76111 1.05708 0
M  V30 4711 H 423.009 -3.84388 -0.422237 0
M  V30 4712 H 424.698 -4.05852 -0.0625389 0
M  V30 4713 H 425.464 -4.20508 2.41657 0
M  V30 4714 H 421.343 -4.44715 1.21448 0
M  V30 4715 H 424.887 -5.27397 4.56617 0
M  V30 4716 H 420.784 -5.51451 3.35517 0
M  V30 4717 H 421.552 -6.23595 5.30161 0
M  V30 4718 N 424.215 -0.530993 -1.48385 0
M  V30 4719 C 425.178 0.220497 -2.28137 0
M  V30 4720 C 426.178 0.866851 -1.35434 0
M  V30 4721 O 427.368 0.726746 -1.58316 0
M  V30 4722 C 424.5 1.31921 -3.1434 0
M  V30 4723 H 425.693 -0.479714 -2.96038 0
M  V30 4724 H 423.246 -0.286968 -1.53643 0
M  V30 4725 H 423.981 2.05264 -2.51072 0
M  V30 4726 H 423.766 0.86085 -3.82533 0
M  V30 4727 H 425.256 1.84776 -3.74497 0
M  V30 4728 N 425.693 1.55336 -0.266172 0
M  V30 4729 C 426.623 2.25146 0.618981 0
M  V30 4730 C 427.604 1.23845 1.16604 0
M  V30 4731 O 428.789 1.52544 1.20183 0
M  V30 4732 C 425.919 2.96572 1.80728 0
M  V30 4733 C 424.873 4.04726 1.39215 0
M  V30 4734 C 424.199 4.63678 2.66283 0
M  V30 4735 C 425.499 5.19407 0.548942 0
M  V30 4736 H 427.193 2.99377 0.0368116 0
M  V30 4737 H 424.739 1.43991 0.0162651 0
M  V30 4738 H 426.692 3.44116 2.43232 0
M  V30 4739 H 425.416 2.19861 2.41514 0
M  V30 4740 H 424.075 3.57979 0.790351 0
M  V30 4741 H 423.723 3.83646 3.25308 0
M  V30 4742 H 423.423 5.367 2.39222 0
M  V30 4743 H 424.947 5.13967 3.29651 0
M  V30 4744 H 426.361 5.63059 1.07876 0
M  V30 4745 H 424.758 5.98936 0.373593 0
M  V30 4746 H 425.828 4.8295 -0.434394 0
M  V30 4747 N 427.171 -0.0066808 1.57599 0
M  V30 4748 C 428.448 -0.729586 1.81484 0
M  V30 4749 C 428.828 -1.92359 0.869558 0
M  V30 4750 O 428.176 -2.28348 -0.0832533 0
M  V30 4751 C 428.386 -1.1416 3.29801 0
M  V30 4752 C 429.734 -1.54823 3.95367 0
M  V30 4753 O 430.758 -1.23558 3.34084 0
M  V30 4754 O 429.617 -2.12937 5.03309 0
M  V30 4755 H 426.711 -0.354674 0.747085 0
M  V30 4756 H 429.257 0.0182609 1.6969 0
M  V30 4757 H 428.029 -0.290231 3.90222 0
M  V30 4758 H 427.652 -1.94876 3.46568 0
M  V30 4759 N 428.649 -1.55105 -0.279332 0
M  V30 4760 C 429.579 -1.90557 -1.34945 0
M  V30 4761 C 430.56 -0.766738 -1.51839 0
M  V30 4762 O 431.745 -1.02434 -1.64988 0
M  V30 4763 C 428.875 -2.17193 -2.71006 0
M  V30 4764 C 427.829 -3.33021 -2.68851 0
M  V30 4765 C 427.155 -3.45123 -4.08405 0
M  V30 4766 C 428.455 -4.69578 -2.28678 0
M  V30 4767 H 430.149 -2.80188 -1.05522 0
M  V30 4768 H 427.695 -1.34811 -0.506173 0
M  V30 4769 H 429.648 -2.40581 -3.45975 0
M  V30 4770 H 428.372 -1.24355 -3.01999 0
M  V30 4771 H 427.031 -3.0959 -1.9634 0
M  V30 4772 H 426.679 -2.49762 -4.3661 0
M  V30 4773 H 426.379 -4.22995 -4.07859 0
M  V30 4774 H 427.903 -3.70796 -4.85121 0
M  V30 4775 H 429.317 -4.92553 -2.93368 0
M  V30 4776 H 427.714 -5.5032 -2.39306 0
M  V30 4777 H 428.784 -4.68828 -1.23807 0
M  V30 4778 N 430.127 0.543554 -1.4793 0
M  V30 4779 C 431.376 1.29649 -1.54512 0
M  V30 4780 C 431.689 1.94382 -0.217973 0
M  V30 4781 O 432.895 2.71017 -0.161908 0
M  V30 4782 C 431.351 2.35175 -2.72435 0
M  V30 4783 C 430.959 1.76572 -4.11736 0
M  V30 4784 C 432.703 3.11564 -2.8832 0
M  V30 4785 C 430.61 2.79958 -5.20939 0
M  V30 4786 H 429.54 0.487541 -0.57517 0
M  V30 4787 H 432.191 0.575708 -1.74235 0
M  V30 4788 H 430.573 3.10229 -2.46118 0
M  V30 4789 H 431.747 1.07799 -4.48013 0
M  V30 4790 H 430.062 1.12722 -4.00852 0
M  V30 4791 H 432.659 3.88794 -3.67074 0
M  V30 4792 H 433.002 3.66594 -1.97268 0
M  V30 4793 H 433.535 2.43623 -3.14472 0
M  V30 4794 H 430.274 2.29766 -6.13912 0
M  V30 4795 H 429.794 3.47101 -4.89164 0
M  V30 4796 H 431.473 3.43198 -5.48474 0
M  V30 4797 N 431.605 1.3629 0.791371 0
M  V30 4798 C 432.882 1.20962 1.53712 0
M  V30 4799 C 433.262 -0.205021 2.10102 0
M  V30 4800 O 432.61 -1.21042 1.93807 0
M  V30 4801 C 432.82 2.29002 2.63361 0
M  V30 4802 C 434.168 2.65572 3.31295 0
M  V30 4803 O 435.192 2.2803 2.73643 0
M  V30 4804 O 434.051 3.3018 4.35481 0
M  V30 4805 H 431.145 0.47086 0.679867 0
M  V30 4806 H 433.691 1.48016 0.830021 0
M  V30 4807 H 432.463 3.2382 2.19674 0
M  V30 4808 H 432.086 2.03303 3.41692 0
M  V30 4809 N 433.083 -1.0153 1.20538 0
M  V30 4810 C 434.03 -2.10098 0.955383 0
M  V30 4811 C 435 -1.65702 -0.114878 0
M  V30 4812 O 436.185 -1.90776 0.0301118 0
M  V30 4813 C 433.325 -3.41236 0.514969 0
M  V30 4814 C 432.438 -3.99102 1.65353 0
M  V30 4815 C 431.573 -5.18306 1.16329 0
M  V30 4816 C 430.612 -5.68258 2.27485 0
M  V30 4817 N 429.749 -6.78722 1.7967 0
M  V30 4818 H 434.589 -2.30818 1.88486 0
M  V30 4819 H 432.126 -1.13189 0.939499 0
M  V30 4820 H 434.084 -4.16504 0.240935 0
M  V30 4821 H 432.714 -3.20585 -0.377512 0
M  V30 4822 H 431.766 -3.20918 2.04245 0
M  V30 4823 H 433.078 -4.32177 2.49047 0
M  V30 4824 H 432.232 -6.00782 0.845302 0
M  V30 4825 H 430.971 -4.86799 0.296254 0
M  V30 4826 H 429.976 -4.84385 2.60099 0
M  V30 4827 H 431.201 -6.01798 3.14667 0
M  V30 4828 H 429.147 -6.49042 0.95295 0
M  V30 4829 H 429.064 -7.10996 2.56944 0
M  V30 4830 H 430.332 -7.64759 1.50875 0
M  V30 4831 N 434.561 -1.01147 -1.20859 0
M  V30 4832 C 435.491 -0.597663 -2.25722 0
M  V30 4833 C 436.472 0.384744 -1.65692 0
M  V30 4834 O 437.657 0.271303 -1.92296 0
M  V30 4835 C 434.787 0.0700149 -3.47229 0
M  V30 4836 C 433.741 -0.832843 -4.19819 0
M  V30 4837 C 433.067 -0.0312202 -5.34691 0
M  V30 4838 C 434.367 -2.1385 -4.76514 0
M  V30 4839 H 436.061 -1.47423 -2.60589 0
M  V30 4840 H 433.607 -0.710301 -1.25263 0
M  V30 4841 H 435.56 0.37103 -4.19763 0
M  V30 4842 H 434.284 0.981259 -3.11511 0
M  V30 4843 H 432.943 -1.11778 -3.49144 0
M  V30 4844 H 432.591 0.881515 -4.95215 0
M  V30 4845 H 432.291 -0.632434 -5.84187 0
M  V30 4846 H 433.815 0.26346 -6.10031 0
M  V30 4847 H 435.229 -1.9002 -5.40893 0
M  V30 4848 H 433.626 -2.69012 -5.36426 0
M  V30 4849 H 434.696 -2.80495 -3.95538 0
M  V30 4850 N 436.039 1.36541 -0.78704 0
M  V30 4851 C 436.969 2.32659 -0.197992 0
M  V30 4852 C 437.95 1.56533 0.665697 0
M  V30 4853 O 439.135 1.84698 0.60001 0
M  V30 4854 C 436.265 3.40778 0.669901 0
M  V30 4855 C 435.219 4.27897 -0.0937039 0
M  V30 4856 C 434.545 5.27163 0.894629 0
M  V30 4857 C 435.845 5.06334 -1.28154 0
M  V30 4858 H 437.539 2.82171 -1.00099 0
M  V30 4859 H 435.085 1.35665 -0.482793 0
M  V30 4860 H 437.038 4.07008 1.09191 0
M  V30 4861 H 435.762 2.89827 1.50558 0
M  V30 4862 H 434.421 3.6322 -0.49666 0
M  V30 4863 H 434.069 4.72486 1.72527 0
M  V30 4864 H 433.769 5.86317 0.388149 0
M  V30 4865 H 435.293 5.96266 1.31525 0
M  V30 4866 H 436.707 5.65617 -0.93541 0
M  V30 4867 H 435.104 5.74888 -1.72115 0
M  V30 4868 H 436.174 4.38114 -2.07807 0
M  V30 4869 N 437.518 0.538854 1.48102 0
M  V30 4870 C 438.764 0.00801365 2.02798 0
M  V30 4871 C 439.097 -1.3309 1.41424 0
M  V30 4872 O 438.372 -1.86169 0.563158 0
M  V30 4873 C 438.655 -0.104589 3.59948 0
M  V30 4874 C 438.508 1.26012 4.31788 0
M  V30 4875 C 439.827 -0.827055 4.32259 0
M  V30 4876 H 436.946 0.00438624 0.736987 0
M  V30 4877 H 439.588 0.6976 1.7673 0
M  V30 4878 H 437.738 -0.691893 3.82289 0
M  V30 4879 H 439.41 1.88922 4.2084 0
M  V30 4880 H 437.653 1.83968 3.92859 0
M  V30 4881 H 438.324 1.13424 5.40221 0
M  V30 4882 H 440.8 -0.328578 4.14801 0
M  V30 4883 H 439.676 -0.87476 5.41885 0
M  V30 4884 H 439.937 -1.87927 4.0017 0
M  V30 4885 N 438.996 -1.55193 0.274407 0
M  V30 4886 C 439.926 -2.25471 -0.607032 0
M  V30 4887 C 440.907 -1.24461 -1.15946 0
M  V30 4888 O 442.092 -1.53179 -1.19373 0
M  V30 4889 C 439.222 -2.97526 -1.79153 0
M  V30 4890 C 438.176 -4.05459 -1.37067 0
M  V30 4891 C 437.502 -4.65084 -2.6382 0
M  V30 4892 C 438.802 -5.19691 -0.521389 0
M  V30 4893 H 440.496 -2.99393 -0.0209343 0
M  V30 4894 H 438.042 -1.43997 -0.00862866 0
M  V30 4895 H 439.995 -3.45402 -2.41404 0
M  V30 4896 H 438.719 -2.21138 -2.40344 0
M  V30 4897 H 437.378 -3.58393 -0.771355 0
M  V30 4898 H 437.026 -3.85365 -3.23268 0
M  V30 4899 H 436.726 -5.37961 -2.36372 0
M  V30 4900 H 438.25 -5.15708 -3.26921 0
M  V30 4901 H 439.664 -5.63623 -1.04889 0
M  V30 4902 H 438.061 -5.99126 -0.341825 0
M  V30 4903 H 439.131 -4.82713 0.46 0
M  V30 4904 N 440.474 -0.00167713 -1.576 0
M  V30 4905 C 441.751 0.719951 -1.81868 0
M  V30 4906 C 442.131 1.91895 -0.879747 0
M  V30 4907 O 441.479 2.28389 0.0711423 0
M  V30 4908 C 441.689 1.12409 -3.30402 0
M  V30 4909 C 443.037 1.52724 -3.96182 0
M  V30 4910 O 444.061 1.21784 -3.34734 0
M  V30 4911 O 442.92 2.10265 -5.04431 0
M  V30 4912 H 440.014 0.350707 -0.748955 0
M  V30 4913 H 442.56 -0.0272597 -1.69678 0
M  V30 4914 H 441.332 0.269532 -3.90371 0
M  V30 4915 H 440.955 1.93035 -3.47596 0
M  V30 4916 N 441.952 1.55251 0.271103 0
M  V30 4917 C 443.363 1.66635 0.842007 0
M  V30 4918 C 443.714 0.594631 1.86972 0
M  V30 4919 O 442.839 -0.263532 2.14789 0
M  V30 4920 C 443.434 3.02082 1.53401 0
M  V30 4921 C 441.993 3.15487 2.05293 0
M  V30 4922 C 441.14 2.62438 0.895631 0
M  V30 4923 H 444.091 1.58629 0.0474117 0
M  V30 4924 H 444.112 2.95176 2.40107 0
M  V30 4925 H 443.624 3.80062 0.785786 0
M  V30 4926 H 441.725 2.42284 2.83071 0
M  V30 4927 H 441.838 4.22075 2.26693 0
M  V30 4928 H 440.202 2.19644 1.28953 0
M  V30 4929 H 440.985 3.42923 0.160878 0
M  V30 4930 N 443.43 -0.535701 1.48216 0
M  V30 4931 C 444.393 -1.623 1.61838 0
M  V30 4932 C 445.393 -1.53087 0.492024 0
M  V30 4933 O 446.583 -1.5686 0.757668 0
M  V30 4934 C 443.715 -3.01907 1.58319 0
M  V30 4935 H 444.908 -1.51564 2.58783 0
M  V30 4936 H 442.461 -0.757317 1.36727 0
M  V30 4937 H 443.196 -3.18155 0.628299 0
M  V30 4938 H 442.981 -3.10003 2.40085 0
M  V30 4939 H 444.471 -3.80969 1.71033 0
M  V30 4940 N 444.908 -1.36708 -0.784132 0
M  V30 4941 C 445.84 -1.27333 -1.90575 0
M  V30 4942 C 446.853 -0.191706 -1.61667 0
M  V30 4943 O 448.042 -0.446854 -1.72816 0
M  V30 4944 C 445.142 -0.943177 -3.25511 0
M  V30 4945 C 444.315 -2.12776 -3.82158 0
M  V30 4946 C 443.374 -1.76983 -4.95544 0
M  V30 4947 O 442.4 -2.49134 -5.11782 0
M  V30 4948 N 443.602 -0.706624 -5.76183 0
M  V30 4949 H 446.367 -2.23974 -1.99138 0
M  V30 4950 H 443.928 -1.30171 -0.962656 0
M  V30 4951 H 445.92 -0.684799 -3.98864 0
M  V30 4952 H 444.49 -0.0657333 -3.12531 0
M  V30 4953 H 443.71 -2.54863 -3.0073 0
M  V30 4954 H 444.998 -2.91904 -4.16737 0
M  V30 4955 H 444.396 -0.107643 -5.65598 0
M  V30 4956 H 442.953 -0.50808 -6.49817 0
M  V30 4957 N 446.386 1.0089 -1.21074 0
M  V30 4958 C 447.802 1.2695 -0.967257 0
M  V30 4959 C 448.002 1.9846 0.348673 0
M  V30 4960 O 447.058 2.28459 1.0753 0
M  V30 4961 C 448.371 2.09697 -2.15517 0
M  V30 4962 C 449.919 2.22937 -2.197 0
M  V30 4963 C 450.394 3.09064 -3.37999 0
M  V30 4964 N 451.885 3.16653 -3.38061 0
M  V30 4965 C 452.62 3.8354 -4.26245 0
M  V30 4966 N 452.116 4.52488 -5.2462 0
M  V30 4967 N 453.909 3.80141 -4.14064 0
M  V30 4968 H 446.06 0.529005 -2.05707 0
M  V30 4969 H 448.323 0.296148 -0.900556 0
M  V30 4970 H 448.029 1.64497 -3.10859 0
M  V30 4971 H 447.903 3.10444 -2.14253 0
M  V30 4972 H 450.29 2.67357 -1.24916 0
M  V30 4973 H 450.371 1.21673 -2.2501 0
M  V30 4974 H 450.015 2.65347 -4.33074 0
M  V30 4975 H 449.945 4.10433 -3.29928 0
M  V30 4976 H 452.436 2.67566 -2.66865 0
M  V30 4977 H 452.749 5.01219 -5.88217 0
M  V30 4978 H 451.094 4.51288 -5.28549 0
M  V30 4979 H 454.285 3.25427 -3.36474 0
M  V30 4980 H 454.458 4.31992 -4.82998 0
M  V30 4981 N 447.864 1.01787 1.20321 0
M  V30 4982 C 449.113 0.703249 1.89043 0
M  V30 4983 C 449.426 -0.770445 1.79787 0
M  V30 4984 O 450.632 -1.19767 2.43656 0
M  V30 4985 C 449.088 1.20749 3.3904 0
M  V30 4986 C 448.696 2.70817 3.56878 0
M  V30 4987 C 450.44 0.968352 4.13308 0
M  V30 4988 C 448.347 3.14716 5.00708 0
M  V30 4989 H 447.277 0.259354 0.707991 0
M  V30 4990 H 449.928 1.23072 1.36108 0
M  V30 4991 H 448.31 0.607989 3.91305 0
M  V30 4992 H 449.484 3.36327 3.14993 0
M  V30 4993 H 447.799 2.92888 2.95983 0
M  V30 4994 H 450.396 1.27173 5.19356 0
M  V30 4995 H 450.739 -0.095149 4.16191 0
M  V30 4996 H 451.272 1.53129 3.67146 0
M  V30 4997 H 448.011 4.20347 5.02979 0
M  V30 4998 H 447.531 2.53927 5.43398 0
M  V30 4999 H 449.21 3.07426 5.69296 0
M  V30 5000 N 449.342 -1.36122 0.79427 0
M  V30 5001 C 450.619 -1.93398 0.292685 0
M  V30 5002 C 450.999 -1.72567 -1.21589 0
M  V30 5003 O 450.347 -1.08745 -2.00965 0
M  V30 5004 C 450.557 -3.42099 0.690614 0
M  V30 5005 C 451.905 -4.19231 0.673105 0
M  V30 5006 O 452.929 -3.50559 0.631389 0
M  V30 5007 O 451.788 -5.41732 0.720362 0
M  V30 5008 H 448.882 -0.823712 0.0736693 0
M  V30 5009 H 451.428 -1.45273 0.87714 0
M  V30 5010 H 450.2 -3.50938 1.73085 0
M  V30 5011 H 449.823 -3.97519 0.0803036 0
M  V30 5012 N 450.82 -0.546701 -1.47814 0
M  V30 5013 C 452.045 -0.021268 -2.07389 0
M  V30 5014 C 452.47 1.25822 -1.39822 0
M  V30 5015 O 451.828 1.75111 -0.46968 0
M  V30 5016 C 451.876 0.168502 -3.60206 0
M  V30 5017 O 450.98 1.23347 -3.93522 0
M  V30 5018 H 450.321 -0.0466108 -0.662362 0
M  V30 5019 H 452.851 -0.759387 -1.89985 0
M  V30 5020 H 452.861 0.385982 -4.0617 0
M  V30 5021 H 451.536 -0.766075 -4.08784 0
M  V30 5022 H 450.113 0.997319 -3.59316 0
M  V30 5023 N 452.299 1.55045 -0.282633 0
M  V30 5024 C 453.576 1.9179 0.384166 0
M  V30 5025 C 453.956 1.20778 1.73136 0
M  V30 5026 O 453.304 0.33719 2.25998 0
M  V30 5027 C 453.514 3.45149 0.517014 0
M  V30 5028 C 454.862 4.17064 0.796427 0
M  V30 5029 O 455.886 3.51084 0.601535 0
M  V30 5030 O 454.745 5.33837 1.16962 0
M  V30 5031 H 451.839 0.799483 0.211558 0
M  V30 5032 H 454.385 1.66474 -0.32934 0
M  V30 5033 H 453.157 3.88922 -0.430772 0
M  V30 5034 H 452.78 3.76443 1.2797 0
M  V30 5035 N 453.777 0.010035 1.57597 0
M  V30 5036 C 455.054 -0.710296 1.82248 0
M  V30 5037 C 455.434 -1.91426 0.889911 0
M  V30 5038 O 454.782 -2.28424 -0.0590292 0
M  V30 5039 C 454.992 -1.10655 3.30993 0
M  V30 5040 C 456.34 -1.50621 3.96987 0
M  V30 5041 O 457.364 -1.20007 3.35375 0
M  V30 5042 O 456.223 -2.07587 5.05539 0
M  V30 5043 H 453.317 -0.34673 0.750804 0
M  V30 5044 H 455.863 0.0362578 1.69661 0
M  V30 5045 H 454.635 -0.248826 3.90508 0
M  V30 5046 H 454.258 -1.91189 3.48615 0
M  V30 5047 N 455.255 -1.55392 -0.262866 0
M  V30 5048 C 456.218 -1.88181 -1.30846 0
M  V30 5049 C 457.218 -0.757079 -1.41862 0
M  V30 5050 O 458.408 -1.02519 -1.40838 0
M  V30 5051 C 455.54 -2.09609 -2.68844 0
M  V30 5052 H 456.733 -2.81659 -1.02997 0
M  V30 5053 H 454.286 -1.48039 -0.501414 0
M  V30 5054 H 455.021 -1.18547 -3.01856 0
M  V30 5055 H 454.806 -2.91508 -2.62231 0
M  V30 5056 H 456.296 -2.36215 -3.44372 0
M  V30 5057 N 456.733 0.527833 -1.48498 0
M  V30 5058 C 457.663 1.64136 -1.66077 0
M  V30 5059 C 458.644 1.62286 -0.509625 0
M  V30 5060 O 459.829 1.79449 -0.742413 0
M  V30 5061 C 456.959 3.02717 -1.70234 0
M  V30 5062 C 455.913 3.19426 -2.8487 0
M  V30 5063 C 455.239 4.5909 -2.74118 0
M  V30 5064 C 456.539 3.01993 -4.26142 0
M  V30 5065 H 458.233 1.4968 -2.593 0
M  V30 5066 H 455.779 0.718654 -1.24785 0
M  V30 5067 H 457.732 3.80491 -1.8112 0
M  V30 5068 H 456.456 3.18201 -0.735911 0
M  V30 5069 H 455.115 2.4407 -2.73542 0
M  V30 5070 H 454.763 4.71413 -1.7544 0
M  V30 5071 H 454.463 4.71214 -3.51042 0
M  V30 5072 H 455.987 5.3896 -2.86974 0
M  V30 5073 H 457.401 3.69558 -4.38292 0
M  V30 5074 H 455.798 3.2561 -5.04082 0
M  V30 5075 H 456.868 1.98396 -4.42456 0
M  V30 5076 N 458.211 1.37122 0.776871 0
M  V30 5077 C 459.159 1.32549 1.91138 0
M  V30 5078 C 460.153 0.215119 1.68029 0
M  V30 5079 O 461.359 0.382852 1.75881 0
M  V30 5080 H 457.734 0.412952 0.62847 0
M  V30 5081 H 459.705 2.28332 1.92112 0
M  V30 5082 C 458.454 1.14422 3.28333 0
M  V30 5083 H 457.777 1.99115 3.46689 0
M  V30 5084 H 459.217 1.15272 4.0803 0
M  V30 5085 C 457.676 -0.150434 3.36564 0
M  V30 5086 O 458.206 -1.13584 3.85307 0
M  V30 5087 N 456.412 -0.19939 2.89915 0
M  V30 5088 H 455.959 0.603142 2.5044 0
M  V30 5089 H 455.917 -1.06526 2.95803 0
M  V30 5090 N 459.689 -1.00246 1.21608 0
M  V30 5091 C 460.639 -2.07492 0.945051 0
M  V30 5092 C 461.623 -1.60585 -0.100675 0
M  V30 5093 O 462.815 -1.76667 0.10859 0
M  V30 5094 C 459.944 -3.39425 0.514342 0
M  V30 5095 C 459.03 -3.92993 1.59428 0
M  V30 5096 N 459.421 -4.19898 2.81991 0
M  V30 5097 C 457.719 -4.21297 1.46374 0
M  V30 5098 C 458.42 -4.63297 3.51754 0
M  V30 5099 N 457.396 -4.66421 2.79199 0
M  V30 5100 H 461.198 -2.26222 1.87619 0
M  V30 5101 H 458.712 -1.18339 1.11219 0
M  V30 5102 H 460.709 -4.15808 0.301527 0
M  V30 5103 H 459.369 -3.22101 -0.410008 0
M  V30 5104 H 460.38 -4.08377 3.1851 0
M  V30 5105 H 457.057 -4.13095 0.604863 0
M  V30 5106 H 458.447 -4.92816 4.56708 0
M  V30 5107 N 461.167 -1.02423 -1.1978 0
M  V30 5108 C 462.444 -0.632802 -1.85081 0
M  V30 5109 C 462.824 0.888745 -1.9148 0
M  V30 5110 O 462.172 1.78357 -1.42832 0
M  V30 5111 C 462.382 -1.28947 -3.24305 0
M  V30 5112 C 463.73 -1.40976 -4.00513 0
M  V30 5113 O 464.754 -1.24628 -3.33686 0
M  V30 5114 O 463.613 -1.67467 -5.20209 0
M  V30 5115 H 460.707 -0.219348 -0.79738 0
M  V30 5116 H 463.253 -1.12209 -1.27307 0
M  V30 5117 H 462.025 -2.3288 -3.14456 0
M  V30 5118 H 461.648 -0.787748 -3.89718 0
M  V30 5119 N 462.645 1.35699 -0.801477 0
M  V30 5120 C 463.892 1.98913 -0.379459 0
M  V30 5121 C 464.22 1.63592 1.05204 0
M  V30 5122 O 463.475 0.888563 1.74365 0
M  V30 5123 C 463.774 3.53828 -0.504041 0
M  V30 5124 C 463.44 4.09002 -1.8981 0
M  V30 5125 C 462.102 4.23783 -2.27951 0
M  V30 5126 C 464.454 4.38939 -2.81038 0
M  V30 5127 C 461.782 4.65816 -3.56696 0
M  V30 5128 C 464.134 4.82409 -4.09224 0
M  V30 5129 C 462.798 4.95395 -4.4737 0
M  V30 5130 H 462.068 0.727874 -0.138854 0
M  V30 5131 H 464.715 1.61994 -1.02128 0
M  V30 5132 H 463.02 3.91175 0.221242 0
M  V30 5133 H 464.717 4.00687 -0.158361 0
M  V30 5134 H 461.307 3.97946 -1.59176 0
M  V30 5135 H 465.491 4.27077 -2.52821 0
M  V30 5136 H 460.747 4.74059 -3.86106 0
M  V30 5137 H 464.921 5.04535 -4.80018 0
M  V30 5138 H 462.548 5.27724 -5.47185 0
M  V30 5139 N 464.123 0.554532 1.47522 0
M  V30 5140 C 465.37 0.029479 2.02479 0
M  V30 5141 C 465.698 -1.31929 1.42916 0
M  V30 5142 O 464.953 -1.87112 0.573385 0
M  V30 5143 C 465.252 -0.115927 3.57212 0
M  V30 5144 C 464.918 1.16161 4.3568 0
M  V30 5145 C 463.58 1.51168 4.56839 0
M  V30 5146 C 465.932 2.0083 4.80954 0
M  V30 5147 C 463.26 2.70696 5.2052 0
M  V30 5148 C 465.612 3.19559 5.45953 0
M  V30 5149 C 464.276 3.54882 5.65345 0
M  V30 5150 H 463.546 0.0107871 0.740921 0
M  V30 5151 H 466.193 0.725506 1.77225 0
M  V30 5152 H 464.498 -0.894902 3.81443 0
M  V30 5153 H 466.195 -0.53749 3.97381 0
M  V30 5154 H 462.785 0.879026 4.19489 0
M  V30 5155 H 466.969 1.75093 4.64388 0
M  V30 5156 H 462.225 2.98236 5.33728 0
M  V30 5157 H 466.399 3.85456 5.79997 0
M  V30 5158 H 464.026 4.47596 6.1446 0
M  V30 5159 N 465.601 -1.54893 0.290851 0
M  V30 5160 C 466.847 -2.00949 -0.314784 0
M  V30 5161 C 467.202 -1.1757 -1.52299 0
M  V30 5162 O 466.495 -0.241558 -1.90071 0
M  V30 5163 C 466.689 -3.49815 -0.732397 0
M  V30 5164 C 466.518 -4.47603 0.433799 0
M  V30 5165 C 465.288 -4.96806 0.922599 0
M  V30 5166 C 467.486 -4.98233 1.27546 0
M  V30 5167 N 465.468 -5.78426 2.05662 0
M  V30 5168 C 466.839 -5.77455 2.25712 0
M  V30 5169 C 468.894 -4.80439 1.307 0
M  V30 5170 C 467.597 -6.40778 3.26796 0
M  V30 5171 C 469.623 -5.44574 2.30637 0
M  V30 5172 C 468.985 -6.23619 3.27533 0
M  V30 5173 H 465.084 -0.777905 -0.0799257 0
M  V30 5174 H 467.668 -1.9015 0.418458 0
M  V30 5175 H 465.839 -3.60925 -1.43483 0
M  V30 5176 H 467.571 -3.82681 -1.31671 0
M  V30 5177 H 464.326 -4.70961 0.49926 0
M  V30 5178 H 464.75 -6.23923 2.62772 0
M  V30 5179 H 469.392 -4.18918 0.571622 0
M  V30 5180 H 467.11 -7.01439 4.01258 0
M  V30 5181 H 470.696 -5.32739 2.33838 0
M  V30 5182 H 469.576 -6.72367 4.03599 0
M  V30 5183 N 467.08 -0.0183926 -1.57589 0
M  V30 5184 C 468.305 0.676634 -1.96052 0
M  V30 5185 C 468.73 1.6548 -0.894307 0
M  V30 5186 O 468.088 1.80712 0.145849 0
M  V30 5187 C 468.136 1.36872 -3.33614 0
M  V30 5188 O 467.24 2.48372 -3.29219 0
M  V30 5189 H 466.581 0.1786 -0.63953 0
M  V30 5190 H 469.111 -0.077056 -2.04455 0
M  V30 5191 H 469.121 1.72797 -3.69601 0
M  V30 5192 H 467.796 0.651636 -4.10763 0
M  V30 5193 H 466.373 2.14639 -3.04934 0
M  V30 5194 N 468.558 1.5553 0.254621 0
M  V30 5195 C 469.835 1.6774 1.00611 0
M  V30 5196 C 470.215 0.555993 2.03647 0
M  V30 5197 O 469.563 -0.441583 2.24193 0
M  V30 5198 C 469.773 3.07725 1.6464 0
M  V30 5199 C 471.121 3.66074 2.15116 0
M  V30 5200 O 472.145 3.10476 1.74595 0
M  V30 5201 O 471.004 4.63526 2.89493 0
M  V30 5202 H 468.098 0.681958 0.467828 0
M  V30 5203 H 470.644 1.67863 0.24902 0
M  V30 5204 H 469.416 3.80792 0.900734 0
M  V30 5205 H 469.039 3.1158 2.46989 0
M  V30 5206 N 470.036 -0.519951 1.48776 0
M  V30 5207 C 471.447 -1.10177 1.50725 0
M  V30 5208 C 471.798 -1.94153 0.282678 0
M  V30 5209 O 470.923 -2.07645 -0.609298 0
M  V30 5210 C 471.518 -2.00482 2.73116 0
M  V30 5211 C 470.077 -2.53862 2.77905 0
M  V30 5212 C 469.224 -1.31047 2.44381 0
M  V30 5213 H 472.175 -0.30473 1.55747 0
M  V30 5214 H 472.196 -2.8491 2.52203 0
M  V30 5215 H 471.708 -1.39335 3.62225 0
M  V30 5216 H 469.809 -3.18702 1.93029 0
M  V30 5217 H 469.922 -2.9231 3.79594 0
M  V30 5218 H 468.286 -1.62953 1.95751 0
M  V30 5219 H 469.069 -0.71637 3.35743 0
M  V30 5220 N 471.514 -1.37532 -0.769588 0
M  V30 5221 C 472.447 -1.27839 -1.8903 0
M  V30 5222 C 473.425 -0.158504 -1.61826 0
M  V30 5223 O 474.609 -0.333086 -1.85534 0
M  V30 5224 C 471.736 -0.977072 -3.24301 0
M  V30 5225 C 470.782 -2.11414 -3.70414 0
M  V30 5226 S 471.615 -3.73409 -3.83831 0
M  V30 5227 C 472.771 -3.45432 -5.21946 0
M  V30 5228 H 473.004 -2.22694 -1.96963 0
M  V30 5229 H 470.537 -1.2318 -0.930914 0
M  V30 5230 H 472.495 -0.810049 -4.02428 0
M  V30 5231 H 471.156 -0.0459701 -3.14066 0
M  V30 5232 H 470.349 -1.85837 -4.68488 0
M  V30 5233 H 469.951 -2.24141 -2.99394 0
M  V30 5234 H 472.243 -3.00554 -6.07185 0
M  V30 5235 H 473.186 -4.42841 -5.52537 0
M  V30 5236 H 473.594 -2.80311 -4.89986 0
M  V30 5237 N 472.992 0.995999 -1.22138 0
M  V30 5238 C 474.403 1.54961 -1.04135 0
M  V30 5239 C 474.754 1.92159 0.396147 0
M  V30 5240 O 473.879 1.74435 1.28069 0
M  V30 5241 C 474.474 2.81581 -1.88408 0
M  V30 5242 C 473.033 3.33396 -1.74712 0
M  V30 5243 C 472.18 2.06509 -1.85066 0
M  V30 5244 H 475.131 0.817436 -1.36028 0
M  V30 5245 H 475.152 3.53822 -1.39966 0
M  V30 5246 H 474.664 2.54476 -2.93025 0
M  V30 5247 H 472.765 3.65416 -0.728159 0
M  V30 5248 H 472.878 4.04208 -2.57202 0
M  V30 5249 H 471.242 2.19925 -1.28472 0
M  V30 5250 H 472.025 1.81804 -2.91208 0
M  V30 5251 N 474.47 1.03057 1.19235 0
M  V30 5252 C 475.695 0.74757 1.93458 0
M  V30 5253 C 476.12 -0.687648 1.7508 0
M  V30 5254 O 475.478 -1.47499 1.05422 0
M  V30 5255 C 475.526 1.10604 3.43219 0
M  V30 5256 O 474.63 0.225671 4.11782 0
M  V30 5257 H 473.971 0.276047 0.603899 0
M  V30 5258 H 476.501 1.3777 1.51263 0
M  V30 5259 H 476.511 1.06366 3.93891 0
M  V30 5260 H 475.186 2.15165 3.55917 0
M  V30 5261 H 473.763 0.326795 3.71465 0
M  V30 5262 N 475.948 -1.35272 0.808662 0
M  V30 5263 C 477.225 -1.93077 0.313181 0
M  V30 5264 C 477.605 -1.73847 -1.19752 0
M  V30 5265 O 476.953 -1.1087 -1.998 0
M  V30 5266 C 477.163 -3.41347 0.726859 0
M  V30 5267 C 478.511 -4.18493 0.717532 0
M  V30 5268 O 479.535 -3.4987 0.668535 0
M  V30 5269 O 478.394 -5.40937 0.777779 0
M  V30 5270 H 475.488 -0.822885 0.0824018 0
M  V30 5271 H 478.034 -1.44335 0.892499 0
M  V30 5272 H 476.806 -3.49082 1.76797 0
M  V30 5273 H 476.429 -3.97411 0.122461 0
M  V30 5274 N 477.426 -0.562348 -1.47226 0
M  V30 5275 C 478.356 0.170627 -2.32876 0
M  V30 5276 C 479.337 0.903748 -1.44106 0
M  V30 5277 O 480.522 0.883206 -1.72954 0
M  V30 5278 C 477.652 1.19786 -3.25989 0
M  V30 5279 C 476.606 0.580875 -4.2404 0
M  V30 5280 C 475.932 1.71311 -5.06514 0
M  V30 5281 C 477.232 -0.468714 -5.20193 0
M  V30 5282 H 478.926 -0.544441 -2.94408 0
M  V30 5283 H 476.472 -0.263271 -1.41573 0
M  V30 5284 H 478.425 1.71884 -3.84752 0
M  V30 5285 H 477.149 1.94294 -2.62521 0
M  V30 5286 H 475.808 0.0811538 -3.6651 0
M  V30 5287 H 475.456 2.44736 -4.39447 0
M  V30 5288 H 475.156 1.30604 -5.72902 0
M  V30 5289 H 476.68 2.23725 -5.68137 0
M  V30 5290 H 478.094 -0.0336028 -5.7329 0
M  V30 5291 H 476.491 -0.794957 -5.94811 0
M  V30 5292 H 477.561 -1.36269 -4.65359 0
M  V30 5293 N 478.904 1.54736 -0.299062 0
M  V30 5294 C 479.851 2.23448 0.577899 0
M  V30 5295 C 480.821 1.21637 1.13109 0
M  V30 5296 O 482.006 1.50252 1.17597 0
M  V30 5297 C 479.146 2.9774 1.74484 0
M  V30 5298 C 478.259 4.1432 1.22323 0
M  V30 5299 C 477.394 4.76199 2.35388 0
M  V30 5300 C 476.433 5.84927 1.80351 0
M  V30 5301 N 475.57 6.4077 2.86982 0
M  V30 5302 H 480.41 2.97996 -0.0146545 0
M  V30 5303 H 477.947 1.47088 -0.0190013 0
M  V30 5304 H 479.905 3.39045 2.43114 0
M  V30 5305 H 478.535 2.25572 2.30905 0
M  V30 5306 H 477.587 3.7797 0.429249 0
M  V30 5307 H 478.899 4.92659 0.780309 0
M  V30 5308 H 478.053 5.20346 3.11969 0
M  V30 5309 H 476.792 3.97188 2.83006 0
M  V30 5310 H 475.797 5.40207 1.02259 0
M  V30 5311 H 477.022 6.65821 1.3364 0
M  V30 5312 H 474.968 5.64643 3.33938 0
M  V30 5313 H 474.885 7.1445 2.4718 0
M  V30 5314 H 476.153 6.89574 3.63466 0
M  V30 5315 N 480.382 0.0267497 1.57577 0
M  V30 5316 C 481.63 -0.651116 1.91324 0
M  V30 5317 C 481.951 -1.72804 0.90353 0
M  V30 5318 O 481.221 -1.95822 -0.0552946 0
M  V30 5319 H 479.801 -0.243491 0.706202 0
M  V30 5320 H 482.463 0.0739935 1.94759 0
M  V30 5321 H 481.559 -1.10536 2.9187 0
M  V30 5322 N 481.861 -1.55662 -0.24637 0
M  V30 5323 C 482.794 -1.85332 -1.33143 0
M  V30 5324 C 483.772 -0.708464 -1.46354 0
M  V30 5325 O 484.956 -0.954274 -1.6256 0
M  V30 5326 C 482.083 -2.0385 -2.70487 0
M  V30 5327 C 481.129 -3.26488 -2.74423 0
M  V30 5328 S 481.962 -4.83124 -2.30979 0
M  V30 5329 C 483.118 -5.04647 -3.70246 0
M  V30 5330 H 483.351 -2.77077 -1.07777 0
M  V30 5331 H 480.884 -1.47776 -0.44738 0
M  V30 5332 H 482.842 -2.15202 -3.49569 0
M  V30 5333 H 481.503 -1.12947 -2.9309 0
M  V30 5334 H 480.696 -3.36413 -3.7529 0
M  V30 5335 H 480.298 -3.13864 -2.03385 0
M  V30 5336 H 482.59 -4.92023 -4.65746 0
M  V30 5337 H 483.533 -6.06625 -3.65255 0
M  V30 5338 H 483.941 -4.32491 -3.62784 0
M  V30 5339 N 483.339 0.512053 -1.4905 0
M  V30 5340 C 484.269 1.62365 -1.67809 0
M  V30 5341 C 485.25 1.61737 -0.526809 0
M  V30 5342 O 486.435 1.78651 -0.761404 0
M  V30 5343 C 483.565 3.00895 -1.73435 0
M  V30 5344 C 482.519 3.16387 -2.88242 0
M  V30 5345 C 481.845 4.56157 -2.78971 0
M  V30 5346 C 483.145 2.97457 -4.29321 0
M  V30 5347 H 484.839 1.46921 -2.60873 0
M  V30 5348 H 482.385 0.705379 -1.2554 0
M  V30 5349 H 484.338 3.78549 -1.85145 0
M  V30 5350 H 483.062 3.17403 -0.769619 0
M  V30 5351 H 481.721 2.41155 -2.76116 0
M  V30 5352 H 481.369 4.69525 -1.8043 0
M  V30 5353 H 481.069 4.67465 -3.5602 0
M  V30 5354 H 482.593 5.35886 -2.92675 0
M  V30 5355 H 484.007 3.64888 -4.42187 0
M  V30 5356 H 482.404 3.20245 -5.07507 0
M  V30 5357 H 483.474 1.93692 -4.44535 0
M  V30 5358 N 484.817 1.37938 0.762283 0
M  V30 5359 C 486.042 1.37059 1.55659 0
M  V30 5360 C 486.467 -0.0396123 1.88058 0
M  V30 5361 O 485.825 -1.01929 1.49934 0
M  V30 5362 C 485.873 2.22494 2.83776 0
M  V30 5363 O 484.977 1.63607 3.78559 0
M  V30 5364 H 484.318 0.467892 0.47114 0
M  V30 5365 H 486.848 1.81587 0.942725 0
M  V30 5366 H 486.858 2.36045 3.32786 0
M  V30 5367 H 485.533 3.24993 2.59524 0
M  V30 5368 H 484.11 1.5915 3.37233 0
M  V30 5369 N 486.295 -0.989507 1.22664 0
M  V30 5370 C 487.523 -1.76496 1.07967 0
M  V30 5371 C 487.938 -1.85148 -0.369543 0
M  V30 5372 O 487.295 -1.32408 -1.25596 0
M  V30 5373 C 487.346 -3.19642 1.68853 0
M  V30 5374 O 487.067 -3.11453 3.08105 0
M  V30 5375 C 488.568 -4.13621 1.59475 0
M  V30 5376 H 485.788 -0.55418 0.378319 0
M  V30 5377 H 488.332 -1.24378 1.62328 0
M  V30 5378 H 486.487 -3.68816 1.18547 0
M  V30 5379 H 486.901 -4.01499 3.37489 0
M  V30 5380 H 488.375 -5.11801 2.06795 0
M  V30 5381 H 488.852 -4.35718 0.55191 0
M  V30 5382 H 489.458 -3.70346 2.09103 0
M  V30 5383 N 487.773 -1.03688 -1.18687 0
M  V30 5384 C 488.723 -0.595067 -2.20098 0
M  V30 5385 C 489.707 0.360465 -1.5681 0
M  V30 5386 O 490.899 0.180136 -1.76081 0
M  V30 5387 C 488.028 0.0444495 -3.43271 0
M  V30 5388 C 487.114 -0.934002 -4.13687 0
M  V30 5389 N 487.505 -2.09957 -4.60165 0
M  V30 5390 C 485.803 -0.759177 -4.39491 0
M  V30 5391 C 486.504 -2.71735 -5.1433 0
M  V30 5392 N 485.48 -1.99638 -5.05614 0
M  V30 5393 H 489.282 -1.48336 -2.5372 0
M  V30 5394 H 486.796 -0.904949 -1.3485 0
M  V30 5395 H 488.793 0.37864 -4.15177 0
M  V30 5396 H 487.453 0.928325 -3.11147 0
M  V30 5397 H 488.464 -2.47863 -4.54735 0
M  V30 5398 H 485.141 0.0749292 -4.17433 0
M  V30 5399 H 486.531 -3.70492 -5.60523 0
M  V30 5400 N 489.251 1.34841 -0.815825 0
M  V30 5401 C 490.181 2.32187 -0.247298 0
M  V30 5402 C 491.162 1.5791 0.632344 0
M  V30 5403 O 492.347 1.8593 0.560698 0
M  V30 5404 C 489.477 3.42122 0.597466 0
M  V30 5405 C 488.431 4.27602 -0.184446 0
M  V30 5406 C 487.757 5.28942 0.782609 0
M  V30 5407 C 489.057 5.03502 -1.38865 0
M  V30 5408 H 490.751 2.79985 -1.06061 0
M  V30 5409 H 488.297 1.34611 -0.511461 0
M  V30 5410 H 490.25 4.09232 1.00533 0
M  V30 5411 H 488.974 2.92956 1.44376 0
M  V30 5412 H 487.633 3.62085 -0.573592 0
M  V30 5413 H 487.281 4.7604 1.62466 0
M  V30 5414 H 486.981 5.87008 0.263695 0
M  V30 5415 H 488.505 5.98922 1.18848 0
M  V30 5416 H 489.919 5.63506 -1.05518 0
M  V30 5417 H 488.316 5.71108 -1.8427 0
M  V30 5418 H 489.386 4.33608 -2.17054 0
M  V30 5419 N 490.729 0.570148 1.46925 0
M  V30 5420 C 491.957 0.0561966 2.06824 0
M  V30 5421 C 492.372 -1.24326 1.42086 0
M  V30 5422 O 491.729 -1.74882 0.521794 0
M  V30 5423 C 491.78 -0.129517 3.61268 0
M  V30 5424 O 491.501 1.1185 4.23581 0
M  V30 5425 C 493.002 -0.679266 4.38065 0
M  V30 5426 H 490.222 0.0517261 0.669003 0
M  V30 5427 H 492.766 0.787243 1.8874 0
M  V30 5428 H 490.921 -0.810739 3.78822 0
M  V30 5429 H 491.335 0.924375 5.1629 0
M  V30 5430 H 492.809 -0.758445 5.46765 0
M  V30 5431 H 493.286 -1.69346 4.05239 0
M  V30 5432 H 493.892 -0.0333237 4.25287 0
M  V30 5433 N 492.207 -1.54576 0.307264 0
M  V30 5434 C 493.432 -2.05139 -0.305379 0
M  V30 5435 C 493.857 -1.18278 -1.46259 0
M  V30 5436 O 493.215 -0.188243 -1.8032 0
M  V30 5437 C 493.263 -3.53066 -0.733283 0
M  V30 5438 O 492.367 -3.69206 -1.83741 0
M  V30 5439 H 491.708 -0.661444 -0.0582105 0
M  V30 5440 H 494.238 -1.99569 0.450931 0
M  V30 5441 H 494.248 -3.95034 -1.02039 0
M  V30 5442 H 492.923 -4.15746 0.113198 0
M  V30 5443 H 491.5 -3.39143 -1.55037 0
M  V30 5444 N 493.685 -0.035106 -1.57561 0
M  V30 5445 C 494.618 0.979673 -2.06101 0
M  V30 5446 C 495.596 1.31378 -0.958046 0
M  V30 5447 O 496.78 1.42942 -1.22881 0
M  V30 5448 C 493.907 2.29809 -2.48808 0
M  V30 5449 C 492.953 2.11817 -3.70184 0
M  V30 5450 S 493.786 1.41143 -5.16565 0
M  V30 5451 C 494.942 2.74341 -5.62572 0
M  V30 5452 H 495.175 0.566506 -2.91853 0
M  V30 5453 H 492.708 0.176744 -1.53385 0
M  V30 5454 H 494.666 3.056 -2.74078 0
M  V30 5455 H 493.327 2.68257 -1.63392 0
M  V30 5456 H 492.52 3.09299 -3.97933 0
M  V30 5457 H 492.122 1.44168 -3.45097 0
M  V30 5458 H 494.414 3.70562 -5.67177 0
M  V30 5459 H 495.357 2.51249 -6.62027 0
M  V30 5460 H 495.765 2.79863 -4.90242 0
M  V30 5461 N 495.163 1.55791 0.238111 0
M  V30 5462 C 496.41 1.78033 0.964907 0
M  V30 5463 C 496.738 0.600984 1.84982 0
M  V30 5464 O 495.993 -0.41536 1.91241 0
M  V30 5465 C 496.292 3.05869 1.84875 0
M  V30 5466 C 495.958 4.36808 1.11846 0
M  V30 5467 C 494.62 4.72388 0.916662 0
M  V30 5468 C 496.972 5.17717 0.60151 0
M  V30 5469 C 494.3 5.86406 0.185756 0
M  V30 5470 C 496.652 6.32494 -0.115972 0
M  V30 5471 C 495.316 6.66688 -0.329168 0
M  V30 5472 H 494.586 0.651469 0.353085 0
M  V30 5473 H 497.233 1.90061 0.234318 0
M  V30 5474 H 495.538 2.88891 2.64668 0
M  V30 5475 H 497.235 3.20278 2.41294 0
M  V30 5476 H 493.825 4.08862 1.28569 0
M  V30 5477 H 498.009 4.90678 0.744932 0
M  V30 5478 H 493.265 6.11399 0.0101886 0
M  V30 5479 H 497.439 6.94425 -0.524127 0
M  V30 5480 H 495.066 7.54884 -0.897474 0
M  V30 5481 N 496.642 -0.504142 1.49319 0
M  V30 5482 C 497.552 -1.63248 1.68486 0
M  V30 5483 C 498.568 -1.64488 0.567432 0
M  V30 5484 O 499.744 -1.82966 0.841749 0
M  V30 5485 C 496.809 -2.99627 1.74426 0
M  V30 5486 C 495.87 -3.09039 2.97982 0
M  V30 5487 C 495.103 -4.38913 3.0363 0
M  V30 5488 O 495.326 -5.27528 2.16958 0
M  V30 5489 O 494.26 -4.53231 3.96062 0
M  V30 5490 H 498.086 -1.50008 2.64067 0
M  V30 5491 H 495.671 -0.680086 1.33023 0
M  V30 5492 H 497.553 -3.80689 1.80705 0
M  V30 5493 H 496.228 -3.13136 0.820233 0
M  V30 5494 H 495.135 -2.27177 2.97223 0
M  V30 5495 H 496.468 -3.00456 3.89855 0
M  V30 5496 N 498.12 -1.38341 -0.754957 0
M  V30 5497 C 499.35 -1.37504 -1.54195 0
M  V30 5498 C 499.758 0.0373787 -1.89163 0
M  V30 5499 O 499.101 1.01402 -1.53178 0
M  V30 5500 C 499.163 -2.16488 -2.87008 0
M  V30 5501 C 498.827 -3.65311 -2.74585 0
M  V30 5502 C 499.824 -4.58834 -2.44474 0
M  V30 5503 C 497.509 -4.08649 -2.9208 0
M  V30 5504 C 499.503 -5.93675 -2.32011 0
M  V30 5505 C 497.19 -5.43571 -2.79237 0
M  V30 5506 C 498.188 -6.35898 -2.49245 0
M  V30 5507 O 497.876 -7.68338 -2.36458 0
M  V30 5508 H 497.608 -0.472159 -0.483779 0
M  V30 5509 H 500.162 -1.82515 -0.94221 0
M  V30 5510 H 498.392 -1.66194 -3.49166 0
M  V30 5511 H 500.081 -2.08076 -3.4851 0
M  V30 5512 H 500.847 -4.26657 -2.30627 0
M  V30 5513 H 496.726 -3.37134 -3.14422 0
M  V30 5514 H 500.27 -6.65706 -2.08522 0
M  V30 5515 H 496.167 -5.75345 -2.92657 0
M  V30 5516 H 496.935 -7.78845 -2.5168 0
M  V30 5517 N 499.598 0.982988 -1.23187 0
M  V30 5518 C 500.528 2.09301 -1.03515 0
M  V30 5519 C 501.509 1.70035 0.0471136 0
M  V30 5520 O 502.694 1.93847 -0.117029 0
M  V30 5521 C 499.824 3.4167 -0.622791 0
M  V30 5522 C 498.778 3.94828 -1.65211 0
M  V30 5523 C 498.104 5.23362 -1.09527 0
M  V30 5524 C 499.404 4.2439 -3.04451 0
M  V30 5525 H 501.098 2.26016 -1.96359 0
M  V30 5526 H 498.644 1.08611 -0.945501 0
M  V30 5527 H 500.597 4.18746 -0.472233 0
M  V30 5528 H 499.321 3.24811 0.341329 0
M  V30 5529 H 497.98 3.19895 -1.79061 0
M  V30 5530 H 497.628 5.02852 -0.122211 0
M  V30 5531 H 497.328 5.59895 -1.783 0
M  V30 5532 H 498.852 6.03062 -0.956511 0
M  V30 5533 H 500.266 4.92225 -2.93917 0
M  V30 5534 H 498.663 4.72118 -3.70438 0
M  V30 5535 H 499.733 3.31765 -3.53638 0
M  V30 5536 N 501.076 1.04316 1.18135 0
M  V30 5537 C 502.039 0.640794 2.2006 0
M  V30 5538 C 503.039 -0.303124 1.57917 0
M  V30 5539 O 504.229 -0.0881855 1.73977 0
M  V30 5540 C 501.361 -0.060148 3.40847 0
M  V30 5541 H 502.554 1.54281 2.57172 0
M  V30 5542 H 500.107 0.836004 1.32063 0
M  V30 5543 H 500.842 -0.975845 3.0927 0
M  V30 5544 H 500.627 0.618319 3.87194 0
M  V30 5545 H 502.117 -0.328082 4.16309 0
M  V30 5546 N 502.554 -1.34406 0.822964 0
M  V30 5547 C 503.965 -1.8069 0.469879 0
M  V30 5548 C 504.316 -1.68223 -1.00972 0
M  V30 5549 O 503.441 -1.22226 -1.78577 0
M  V30 5550 C 504.036 -3.28064 0.846118 0
M  V30 5551 C 502.595 -3.72428 0.545402 0
M  V30 5552 C 501.742 -2.56116 1.06301 0
M  V30 5553 H 504.693 -1.22153 1.01313 0
M  V30 5554 H 504.714 -3.80205 0.149922 0
M  V30 5555 H 504.226 -3.37107 1.92304 0
M  V30 5556 H 502.327 -3.68924 -0.522109 0
M  V30 5557 H 502.44 -4.66548 1.0895 0
M  V30 5558 H 500.804 -2.50048 0.484554 0
M  V30 5559 H 501.587 -2.67928 2.14638 0
M  V30 5560 N 504.032 -0.577932 -1.46621 0
M  V30 5561 C 505.443 -0.150071 -1.86096 0
M  V30 5562 C 505.794 1.28563 -1.48209 0
M  V30 5563 O 504.919 1.97036 -0.894754 0
M  V30 5564 C 505.514 -0.265576 -3.37758 0
M  V30 5565 C 504.073 0.10738 -3.76247 0
M  V30 5566 C 503.22 -0.603711 -2.70649 0
M  V30 5567 H 506.171 -0.786438 -1.37844 0
M  V30 5568 H 506.192 0.510352 -3.77062 0
M  V30 5569 H 505.704 -1.3106 -3.65301 0
M  V30 5570 H 503.805 1.15272 -3.54321 0
M  V30 5571 H 503.918 -0.26561 -4.78363 0
M  V30 5572 H 502.282 -0.0444884 -2.54661 0
M  V30 5573 H 503.065 -1.65029 -3.01032 0
M  V30 5574 N 505.51 1.54411 -0.315457 0
M  V30 5575 C 506.926 1.59556 0.037464 0
M  V30 5576 C 507.126 1.33217 1.5118 0
M  V30 5577 O 506.182 1.11264 2.26664 0
M  V30 5578 C 507.495 2.98372 -0.373477 0
M  V30 5579 C 509.043 3.11324 -0.323452 0
M  V30 5580 C 509.518 4.52472 -0.709433 0
M  V30 5581 N 511.009 4.58437 -0.662524 0
M  V30 5582 C 511.744 5.65751 -0.933474 0
M  V30 5583 N 511.24 6.81039 -1.27114 0
M  V30 5584 N 513.033 5.55489 -0.859573 0
M  V30 5585 H 505.184 1.6979 -1.27614 0
M  V30 5586 H 507.447 0.793732 -0.518356 0
M  V30 5587 H 507.153 3.22618 -1.40037 0
M  V30 5588 H 507.027 3.76264 0.265615 0
M  V30 5589 H 509.414 2.86818 0.694223 0
M  V30 5590 H 509.495 2.35555 -0.997367 0
M  V30 5591 H 509.139 4.7771 -1.72498 0
M  V30 5592 H 509.069 5.26598 -0.0132923 0
M  V30 5593 H 511.56 3.75636 -0.413065 0
M  V30 5594 H 511.873 7.58816 -1.46348 0
M  V30 5595 H 510.218 6.82555 -1.30932 0
M  V30 5596 H 513.409 4.64299 -0.595324 0
M  V30 5597 H 513.582 6.39036 -1.0741 0
M  V30 5598 N 506.988 0.0434614 1.5754 0
M  V30 5599 C 508.404 -0.313039 1.565 0
M  V30 5600 C 508.604 -1.71954 1.05043 0
M  V30 5601 O 507.66 -2.425 0.703564 0
M  V30 5602 C 508.973 -0.148544 3.00333 0
M  V30 5603 C 510.521 -0.220231 3.12224 0
M  V30 5604 C 510.996 -0.0843565 4.57922 0
M  V30 5605 N 512.487 -0.140881 4.62986 0
M  V30 5606 C 513.222 -0.0597443 5.73369 0
M  V30 5607 N 512.718 0.0733004 6.92761 0
M  V30 5608 N 514.511 -0.11477 5.61983 0
M  V30 5609 H 506.662 0.96303 1.89313 0
M  V30 5610 H 508.925 0.373164 0.871466 0
M  V30 5611 H 508.631 0.820894 3.41986 0
M  V30 5612 H 508.505 -0.912798 3.65989 0
M  V30 5613 H 510.892 -1.18014 2.70475 0
M  V30 5614 H 510.973 0.574646 2.49262 0
M  V30 5615 H 510.617 0.872192 5.00355 0
M  V30 5616 H 510.547 -0.898281 5.18882 0
M  V30 5617 H 513.038 -0.243273 3.77116 0
M  V30 5618 H 513.351 0.128128 7.72694 0
M  V30 5619 H 511.696 0.10828 6.94916 0
M  V30 5620 H 514.887 -0.217212 4.67596 0
M  V30 5621 H 515.06 -0.0480779 6.47982 0
M  V30 5622 N 508.466 -1.55915 -0.229846 0
M  V30 5623 C 509.413 -1.91734 -1.28478 0
M  V30 5624 C 510.383 -0.773539 -1.46988 0
M  V30 5625 O 511.568 -1.02871 -1.60693 0
M  V30 5626 C 508.708 -2.23224 -2.63182 0
M  V30 5627 C 507.821 -3.50497 -2.52539 0
M  V30 5628 C 506.956 -3.71474 -3.79711 0
M  V30 5629 C 505.995 -4.92289 -3.63755 0
M  V30 5630 N 505.132 -5.09698 -4.82858 0
M  V30 5631 H 509.972 -2.81692 -0.972308 0
M  V30 5632 H 507.509 -1.39429 -0.468815 0
M  V30 5633 H 509.467 -2.3949 -3.41614 0
M  V30 5634 H 508.097 -1.36451 -2.92542 0
M  V30 5635 H 507.149 -3.4247 -1.65585 0
M  V30 5636 H 508.461 -4.39079 -2.36666 0
M  V30 5637 H 507.615 -3.87791 -4.66586 0
M  V30 5638 H 506.354 -2.81157 -3.985 0
M  V30 5639 H 505.359 -4.7593 -2.75264 0
M  V30 5640 H 506.584 -5.84083 -3.46445 0
M  V30 5641 H 504.53 -4.22322 -5.01976 0
M  V30 5642 H 504.447 -5.92399 -4.69681 0
M  V30 5643 H 505.715 -5.30443 -5.71183 0
M  V30 5644 N 509.944 0.496216 -1.49584 0
M  V30 5645 C 511.192 1.24756 -1.58998 0
M  V30 5646 C 511.513 1.92968 -0.280775 0
M  V30 5647 O 510.783 1.82959 0.700198 0
M  V30 5648 H 509.363 0.463471 -0.585836 0
M  V30 5649 H 512.025 0.574678 -1.86235 0
M  V30 5650 H 511.121 2.00895 -2.38847 0
M  V30 5651 N 511.423 1.38739 0.74761 0
M  V30 5652 C 512.648 1.38702 1.54197 0
M  V30 5653 C 513.073 -0.019664 1.8809 0
M  V30 5654 O 512.431 -1.00333 1.51006 0
M  V30 5655 C 512.479 2.25492 2.814 0
M  V30 5656 O 511.583 1.67613 3.76802 0
M  V30 5657 H 510.924 0.472863 0.466151 0
M  V30 5658 H 513.454 1.82577 0.923413 0
M  V30 5659 H 513.464 2.39561 3.30264 0
M  V30 5660 H 512.139 3.27727 2.56062 0
M  V30 5661 H 510.716 1.62718 3.35526 0
M  V30 5662 N 512.901 -0.976442 1.23707 0
M  V30 5663 C 513.833 -2.07212 0.979574 0
M  V30 5664 C 514.846 -1.6273 -0.0478528 0
M  V30 5665 O 516.035 -1.77506 0.18815 0
M  V30 5666 C 513.135 -3.35835 0.45479 0
M  V30 5667 C 512.308 -4.09268 1.54331 0
M  V30 5668 C 511.367 -5.16166 1.02271 0
M  V30 5669 O 510.393 -5.42827 1.71254 0
M  V30 5670 N 511.595 -5.80313 -0.147419 0
M  V30 5671 H 514.36 -2.29878 1.92292 0
M  V30 5672 H 511.921 -1.14343 1.14618 0
M  V30 5673 H 513.913 -4.04597 0.0914631 0
M  V30 5674 H 512.483 -3.10106 -0.394068 0
M  V30 5675 H 511.703 -3.34906 2.07923 0
M  V30 5676 H 512.991 -4.55095 2.27522 0
M  V30 5677 H 512.389 -5.61043 -0.724353 0
M  V30 5678 H 510.946 -6.50231 -0.451972 0
M  V30 5679 N 514.379 -1.04941 -1.1758 0
M  V30 5680 C 515.628 -0.753124 -1.87112 0
M  V30 5681 C 515.941 0.722507 -1.81767 0
M  V30 5682 O 517.147 1.13265 -2.46746 0
M  V30 5683 C 515.603 -1.29695 -3.35719 0
M  V30 5684 C 515.211 -2.80184 -3.49572 0
M  V30 5685 C 516.955 -1.07759 -4.10595 0
M  V30 5686 C 514.862 -3.2788 -4.92187 0
M  V30 5687 H 513.792 -0.278034 -0.700866 0
M  V30 5688 H 516.443 -1.26637 -1.32798 0
M  V30 5689 H 514.825 -0.711522 -3.89555 0
M  V30 5690 H 515.999 -3.44561 -3.05965 0
M  V30 5691 H 514.314 -3.00632 -2.88113 0
M  V30 5692 H 516.911 -1.40899 -5.15802 0
M  V30 5693 H 517.254 -0.0152302 -4.16297 0
M  V30 5694 H 517.787 -1.62809 -3.62957 0
M  V30 5695 H 514.526 -4.33535 -4.91658 0
M  V30 5696 H 514.046 -2.68245 -5.36475 0
M  V30 5697 H 515.725 -3.22412 -5.60945 0
M  V30 5698 N 515.857 1.33968 -0.830081 0
M  V30 5699 C 517.085 2.0228 -0.434773 0
M  V30 5700 C 517.5 1.62487 0.961419 0
M  V30 5701 O 516.857 0.833849 1.62337 0
M  V30 5702 C 516.908 3.5751 -0.535625 0
M  V30 5703 O 516.629 3.95864 -1.87679 0
M  V30 5704 C 518.13 4.43091 -0.136137 0
M  V30 5705 H 515.35 0.648151 -0.173613 0
M  V30 5706 H 517.894 1.71089 -1.12022 0
M  V30 5707 H 516.049 3.87266 0.101817 0
M  V30 5708 H 516.463 4.9056 -1.85609 0
M  V30 5709 H 517.937 5.51398 -0.257772 0
M  V30 5710 H 518.414 4.29433 0.921076 0
M  V30 5711 H 519.02 4.18677 -0.747662 0
M  V30 5712 N 517.335 0.585699 1.46312 0
M  V30 5713 C 518.267 -0.183687 2.28463 0
M  V30 5714 C 519.28 -0.85264 1.38686 0
M  V30 5715 O 520.469 -0.721701 1.6326 0
M  V30 5716 C 517.569 -1.27977 3.13808 0
M  V30 5717 C 516.742 -0.702164 4.31727 0
M  V30 5718 C 515.801 -1.68633 4.98447 0
M  V30 5719 O 514.827 -1.22121 5.55945 0
M  V30 5720 N 516.029 -3.02047 4.95729 0
M  V30 5721 H 518.794 0.521127 2.95134 0
M  V30 5722 H 516.355 0.423673 1.56258 0
M  V30 5723 H 518.347 -1.9375 3.55307 0
M  V30 5724 H 516.917 -1.8874 2.4919 0
M  V30 5725 H 516.137 0.1331 3.93975 0
M  V30 5726 H 517.425 -0.296101 5.07938 0
M  V30 5727 H 516.823 -3.42457 4.50266 0
M  V30 5728 H 515.38 -3.63301 5.41161 0
M  V30 5729 N 518.813 -1.54241 0.323641 0
M  V30 5730 C 519.745 -2.21836 -0.576311 0
M  V30 5731 C 520.758 -1.21837 -1.07979 0
M  V30 5732 O 521.947 -1.48306 -0.99336 0
M  V30 5733 C 519.047 -2.86923 -1.80356 0
M  V30 5734 C 518.22 -4.1306 -1.43875 0
M  V30 5735 C 517.279 -4.6174 -2.52353 0
M  V30 5736 O 516.305 -5.26421 -2.16494 0
M  V30 5737 N 517.507 -4.35974 -3.83284 0
M  V30 5738 H 520.272 -2.997 0.00247987 0
M  V30 5739 H 517.833 -1.61233 0.146848 0
M  V30 5740 H 519.825 -3.16414 -2.52318 0
M  V30 5741 H 518.395 -2.12765 -2.29019 0
M  V30 5742 H 517.615 -3.90334 -0.550752 0
M  V30 5743 H 518.903 -4.95148 -1.17071 0
M  V30 5744 H 518.301 -3.84203 -4.15216 0
M  V30 5745 H 516.858 -4.70119 -4.51477 0
M  V30 5746 N 520.291 -0.0518155 -1.57515 0
M  V30 5747 C 521.516 0.634896 -1.97443 0
M  V30 5748 C 521.941 1.63546 -0.929207 0
M  V30 5749 O 521.299 1.80981 0.107484 0
M  V30 5750 C 521.347 1.29765 -3.36442 0
M  V30 5751 O 520.451 2.41333 -3.34413 0
M  V30 5752 H 519.792 0.164994 -0.643174 0
M  V30 5753 H 522.322 -0.120407 -2.04245 0
M  V30 5754 H 522.332 1.64918 -3.73184 0
M  V30 5755 H 521.007 0.564361 -4.12053 0
M  V30 5756 H 519.584 2.08122 -3.09418 0
M  V30 5757 N 521.769 1.56035 0.221574 0
M  V30 5758 C 522.997 1.8313 0.962864 0
M  V30 5759 C 523.412 0.630934 1.77946 0
M  V30 5760 O 522.769 -0.400519 1.78051 0
M  V30 5761 C 522.82 3.08742 1.88045 0
M  V30 5762 O 522.541 4.24147 1.09686 0
M  V30 5763 C 524.042 3.48824 2.73563 0
M  V30 5764 H 521.262 0.608775 0.282194 0
M  V30 5765 H 523.806 2.03124 0.23681 0
M  V30 5766 H 521.961 2.90723 2.56045 0
M  V30 5767 H 522.375 4.95505 1.71974 0
M  V30 5768 H 523.849 4.39752 3.3365 0
M  V30 5769 H 524.326 2.70575 3.45956 0
M  V30 5770 H 524.932 3.69282 2.10976 0
M  V30 5771 N 523.247 -0.488276 1.49845 0
M  V30 5772 C 524.195 -1.60917 1.67954 0
M  V30 5773 C 525.189 -1.6038 0.54539 0
M  V30 5774 O 526.395 -1.64736 0.7254 0
M  V30 5775 H 522.77 -0.533658 0.529824 0
M  V30 5776 H 524.741 -1.428 2.62013 0
M  V30 5777 C 523.49 -2.98975 1.77509 0
M  V30 5778 H 522.813 -3.00099 2.6416 0
M  V30 5779 H 524.253 -3.76906 1.9421 0
M  V30 5780 C 522.712 -3.3282 0.522745 0
M  V30 5781 O 523.242 -4.00208 -0.345866 0
M  V30 5782 N 521.448 -2.8808 0.381882 0
M  V30 5783 H 520.995 -2.33415 1.08974 0
M  V30 5784 H 520.953 -3.11091 -0.454929 0
M  V30 5785 N 524.725 -1.39134 -0.740242 0
M  V30 5786 C 525.657 -1.33332 -1.86428 0
M  V30 5787 C 526.67 -0.243042 -1.60976 0
M  V30 5788 O 527.859 -0.501608 -1.71307 0
M  V30 5789 C 524.959 -1.04626 -3.22346 0
M  V30 5790 C 524.132 -2.24826 -3.75196 0
M  V30 5791 C 523.191 -1.92659 -4.89662 0
M  V30 5792 O 522.217 -2.6529 -5.03597 0
M  V30 5793 N 523.419 -0.889575 -5.73643 0
M  V30 5794 H 526.184 -2.30196 -1.91911 0
M  V30 5795 H 523.745 -1.33168 -0.920756 0
M  V30 5796 H 525.737 -0.811347 -3.96484 0
M  V30 5797 H 524.307 -0.165129 -3.12164 0
M  V30 5798 H 523.527 -2.64301 -2.9247 0
M  V30 5799 H 524.815 -3.05015 -4.07239 0
M  V30 5800 H 524.213 -0.287529 -5.64969 0
M  V30 5801 H 522.77 -0.714557 -6.47871 0
M  V30 5802 N 526.204 0.969867 -1.24223 0
M  V30 5803 C 527.429 1.75289 -1.10853 0
M  V30 5804 C 527.854 1.85091 0.335079 0
M  V30 5805 O 527.212 1.32024 1.24255 0
M  V30 5806 C 527.26 3.15255 -1.75062 0
M  V30 5807 O 526.364 3.99589 -1.01992 0
M  V30 5808 H 525.705 0.538904 -0.387915 0
M  V30 5809 H 528.235 1.21675 -1.64488 0
M  V30 5810 H 528.245 3.65787 -1.80731 0
M  V30 5811 H 526.92 3.07436 -2.801 0
M  V30 5812 H 525.497 3.58077 -1.04094 0
M  V30 5813 N 527.682 1.05563 1.17022 0
M  V30 5814 C 529.098 0.777684 1.39371 0
M  V30 5815 C 529.298 -0.626269 1.91521 0
M  V30 5816 O 528.354 -1.38806 2.10924 0
M  V30 5817 C 529.667 1.83642 2.3811 0
M  V30 5818 C 531.215 1.85907 2.51809 0
M  V30 5819 C 531.69 2.90813 3.53824 0
M  V30 5820 N 533.181 2.898 3.61345 0
M  V30 5821 C 533.916 3.6762 4.40049 0
M  V30 5822 N 533.412 4.55237 5.22237 0
M  V30 5823 N 535.205 3.56044 4.34959 0
M  V30 5824 H 527.356 1.9614 0.815047 0
M  V30 5825 H 529.619 0.849527 0.420722 0
M  V30 5826 H 529.325 2.84425 2.06871 0
M  V30 5827 H 529.199 1.6812 3.37662 0
M  V30 5828 H 531.586 0.857865 2.82356 0
M  V30 5829 H 531.667 2.05506 1.52318 0
M  V30 5830 H 531.311 3.91122 3.24015 0
M  V30 5831 H 531.241 2.68465 4.53028 0
M  V30 5832 H 533.732 2.26274 3.02669 0
M  V30 5833 H 534.045 5.11291 5.79484 0
M  V30 5834 H 532.39 4.59296 5.21605 0
M  V30 5835 H 535.581 2.86986 3.69806 0
M  V30 5836 H 535.754 4.16938 4.96051 0
M  V30 5837 N 529.16 -1.33526 0.837174 0
M  V30 5838 C 530.108 -2.31168 0.257698 0
M  V30 5839 C 531.102 -1.5806 -0.609388 0
M  V30 5840 O 532.308 -1.72941 -0.499139 0
M  V30 5841 H 528.683 -0.74922 0.0646058 0
M  V30 5842 H 530.654 -2.77552 1.09578 0
M  V30 5843 C 529.403 -3.4326 -0.553887 0
M  V30 5844 H 528.726 -3.99665 0.104008 0
M  V30 5845 H 530.166 -4.13782 -0.925219 0
M  V30 5846 C 528.625 -2.88965 -1.73207 0
M  V30 5847 O 529.155 -2.85013 -2.83073 0
M  V30 5848 N 527.361 -2.45596 -1.55342 0
M  V30 5849 H 526.908 -2.49009 -0.659705 0
M  V30 5850 H 526.866 -2.0962 -2.34322 0
M  V30 5851 N 530.638 -0.59345 -1.46 0
M  V30 5852 C 532.049 -0.169801 -1.85926 0
M  V30 5853 C 532.4 1.26984 -1.49565 0
M  V30 5854 O 531.525 1.96076 -0.915602 0
M  V30 5855 C 532.12 -0.301385 -3.37457 0
M  V30 5856 C 530.679 0.0674684 -3.7634 0
M  V30 5857 C 529.826 -0.632383 -2.69993 0
M  V30 5858 H 532.777 -0.801014 -1.37002 0
M  V30 5859 H 532.798 0.470331 -3.77582 0
M  V30 5860 H 532.31 -1.34927 -3.63891 0
M  V30 5861 H 530.411 1.11507 -3.55523 0
M  V30 5862 H 530.524 -0.316332 -4.78055 0
M  V30 5863 H 528.888 -0.0714961 -2.546 0
M  V30 5864 H 529.671 -1.68212 -2.99265 0
M  V30 5865 N 532.116 1.54067 -0.331816 0
M  V30 5866 C 533.079 2.23275 0.517768 0
M  V30 5867 C 534.079 1.22897 1.03697 0
M  V30 5868 O 535.269 1.47419 0.928084 0
M  V30 5869 C 532.401 2.94326 1.72004 0
M  V30 5870 H 533.594 2.99773 -0.0873507 0
M  V30 5871 H 531.147 1.56079 -0.0830042 0
M  V30 5872 H 531.882 2.21986 2.36417 0
M  V30 5873 H 531.667 3.67941 1.35507 0
M  V30 5874 H 533.157 3.47031 2.32291 0
M  V30 5875 N 533.594 0.0601682 1.57485 0
M  V30 5876 C 534.822 -0.620937 1.97363 0
M  V30 5877 C 535.237 -1.63846 0.938082 0
M  V30 5878 O 534.594 -1.82339 -0.0766578 0
M  V30 5879 C 534.645 -1.29987 3.37321 0
M  V30 5880 O 534.366 -0.323081 4.36907 0
M  V30 5881 C 535.867 -2.06989 3.92008 0
M  V30 5882 H 533.087 -0.169135 0.649334 0
M  V30 5883 H 535.631 0.129132 2.04092 0
M  V30 5884 H 533.786 -2.0011 3.31715 0
M  V30 5885 H 534.2 -0.808754 5.18227 0
M  V30 5886 H 535.674 -2.49901 4.92192 0
M  V30 5887 H 536.151 -2.92173 3.2792 0
M  V30 5888 H 536.757 -1.41757 4.0098 0
M  V30 5889 N 535.072 -1.5615 -0.213296 0
M  V30 5890 C 536.3 -1.83638 -0.953139 0
M  V30 5891 C 536.715 -0.640362 -1.77609 0
M  V30 5892 O 536.072 0.391071 -1.78261 0
M  V30 5893 C 536.123 -3.09735 -1.86405 0
M  V30 5894 O 535.844 -4.24723 -1.07435 0
M  V30 5895 C 537.345 -3.5027 -2.71709 0
M  V30 5896 H 534.565 -0.610263 -0.278962 0
M  V30 5897 H 537.109 -2.03247 -0.226035 0
M  V30 5898 H 535.264 -2.92077 -2.545 0
M  V30 5899 H 535.678 -4.9641 -1.69343 0
M  V30 5900 H 537.152 -4.41515 -3.31313 0
M  V30 5901 H 537.629 -2.72406 -3.44516 0
M  V30 5902 H 538.235 -3.70396 -2.09015 0
M  V30 5903 N 536.55 0.480323 -1.50102 0
M  V30 5904 C 537.498 1.60024 -1.68805 0
M  V30 5905 C 538.492 1.60089 -0.553888 0
M  V30 5906 O 539.698 1.64349 -0.734127 0
M  V30 5907 H 536.073 0.530841 -0.532646 0
M  V30 5908 H 538.044 1.41408 -2.62767 0
M  V30 5909 C 536.793 2.98029 -1.79092 0
M  V30 5910 H 536.116 2.98694 -2.65748 0
M  V30 5911 H 537.556 3.75871 -1.96206 0
M  V30 5912 C 536.015 3.32538 -0.540388 0
M  V30 5913 O 536.545 4.00386 0.324637 0
M  V30 5914 N 534.751 2.87873 -0.397154 0
M  V30 5915 H 534.298 2.32834 -1.1021 0
M  V30 5916 H 534.256 3.11328 0.438425 0
M  V30 5917 N 538.028 1.39524 0.732853 0
M  V30 5918 C 538.96 1.34318 1.85718 0
M  V30 5919 C 539.973 0.251576 1.60844 0
M  V30 5920 O 541.162 0.510685 1.71039 0
M  V30 5921 C 538.262 1.06334 3.21786 0
M  V30 5922 C 537.435 2.26813 3.73998 0
M  V30 5923 C 536.494 1.95253 4.88634 0
M  V30 5924 O 535.52 2.67957 5.02183 0
M  V30 5925 N 536.722 0.919984 5.73164 0
M  V30 5926 H 539.487 2.3121 1.90688 0
M  V30 5927 H 537.048 1.33654 0.91368 0
M  V30 5928 H 539.04 0.832363 3.96048 0
M  V30 5929 H 537.61 0.181682 3.12072 0
M  V30 5930 H 536.83 2.65849 2.91064 0
M  V30 5931 H 538.118 3.0717 4.05616 0
M  V30 5932 H 537.516 0.317487 5.64808 0
M  V30 5933 H 536.073 0.748905 6.47483 0
M  V30 5934 N 539.506 -0.963266 1.24736 0
M  V30 5935 C 540.734 -1.74166 1.11686 0
M  V30 5936 C 541.149 -1.8589 -0.330187 0
M  V30 5937 O 540.506 -1.35042 -1.2276 0
M  V30 5938 C 540.557 -3.15989 1.75595 0
M  V30 5939 O 540.278 -3.04847 3.14642 0
M  V30 5940 C 541.779 -4.10145 1.68213 0
M  V30 5941 H 538.999 -0.546031 0.389989 0
M  V30 5942 H 541.543 -1.20907 1.64929 0
M  V30 5943 H 539.698 -3.66219 1.26343 0
M  V30 5944 H 540.112 -3.9425 3.4593 0
M  V30 5945 H 541.586 -5.07299 2.17604 0
M  V30 5946 H 542.063 -4.3445 0.644208 0
M  V30 5947 H 542.669 -3.65827 2.16912 0
M  V30 5948 N 540.985 -1.06182 -1.16461 0
M  V30 5949 C 541.895 -0.682671 -2.24448 0
M  V30 5950 C 542.911 0.30078 -1.71381 0
M  V30 5951 O 544.087 0.150376 -2.00838 0
M  V30 5952 C 541.152 -0.0737202 -3.46622 0
M  V30 5953 C 540.213 -1.10889 -4.14731 0
M  V30 5954 C 539.446 -0.528908 -5.31073 0
M  V30 5955 O 539.669 0.65868 -5.66584 0
M  V30 5956 O 538.603 -1.26805 -5.88391 0
M  V30 5957 H 542.429 -1.58291 -2.59187 0
M  V30 5958 H 540.014 -0.834013 -1.23954 0
M  V30 5959 H 541.896 0.264192 -4.20571 0
M  V30 5960 H 540.571 0.800015 -3.13658 0
M  V30 5961 H 539.478 -1.49896 -3.42756 0
M  V30 5962 H 540.811 -1.95412 -4.51747 0
M  V30 5963 N 542.463 1.3308 -0.844243 0
M  V30 5964 C 543.71 1.97605 -0.44255 0
M  V30 5965 C 544.038 1.66856 0.999458 0
M  V30 5966 O 543.293 0.943586 1.7145 0
M  V30 5967 C 543.592 3.52045 -0.616354 0
M  V30 5968 C 543.258 4.02757 -2.02726 0
M  V30 5969 C 541.92 4.16316 -2.41317 0
M  V30 5970 C 544.272 4.29776 -2.9486 0
M  V30 5971 C 541.6 4.54232 -3.71335 0
M  V30 5972 C 543.952 4.69146 -4.24364 0
M  V30 5973 C 542.616 4.80911 -4.62904 0
M  V30 5974 H 541.886 0.723088 -0.161941 0
M  V30 5975 H 544.533 1.58663 -1.0723 0
M  V30 5976 H 542.838 3.91681 0.0966812 0
M  V30 5977 H 544.535 3.99981 -0.285756 0
M  V30 5978 H 541.125 3.9268 -1.71756 0
M  V30 5979 H 545.309 4.18818 -2.6628 0
M  V30 5980 H 540.565 4.61535 -4.00993 0
M  V30 5981 H 544.739 4.89008 -4.95827 0
M  V30 5982 H 542.366 5.10048 -5.63698 0
M  V30 5983 N 543.941 0.601185 1.45683 0
M  V30 5984 C 544.851 -0.123395 2.34275 0
M  V30 5985 C 545.867 -0.86702 1.5086 0
M  V30 5986 O 547.043 -0.826049 1.8368 0
M  V30 5987 C 544.108 -1.11237 3.2837 0
M  V30 5988 C 543.169 -0.371405 4.2769 0
M  V30 5989 C 542.402 -1.31327 5.1729 0
M  V30 5990 O 542.625 -2.55078 5.10188 0
M  V30 5991 O 541.559 -0.813811 5.96373 0
M  V30 5992 H 545.385 0.604483 2.97623 0
M  V30 5993 H 542.97 0.361477 1.44961 0
M  V30 5994 H 544.852 -1.68214 3.8637 0
M  V30 5995 H 543.527 -1.82139 2.67595 0
M  V30 5996 H 542.434 0.24067 3.73325 0
M  V30 5997 H 543.767 0.296998 4.91303 0
M  V30 5998 N 545.419 -1.53889 0.339982 0
M  V30 5999 C 546.835 -1.59595 -0.0120752 0
M  V30 6000 C 547.035 -1.35605 -1.49042 0
M  V30 6001 O 546.091 -1.14856 -2.24865 0
M  V30 6002 C 547.404 -2.9774 0.420898 0
M  V30 6003 C 548.952 -3.1077 0.37294 0
M  V30 6004 C 549.427 -4.51286 0.781327 0
M  V30 6005 N 550.918 -4.57325 0.735374 0
M  V30 6006 C 551.653 -5.64194 1.02336 0
M  V30 6007 N 551.149 -6.7893 1.37933 0
M  V30 6008 N 552.942 -5.54051 0.947838 0
M  V30 6009 H 545.093 -1.67738 1.30299 0
M  V30 6010 H 547.356 -0.785385 0.530918 0
M  V30 6011 H 547.062 -3.20349 1.45152 0
M  V30 6012 H 546.936 -3.76639 -0.205721 0
M  V30 6013 H 549.323 -2.87886 -0.648505 0
M  V30 6014 H 549.404 -2.33939 1.03472 0
M  V30 6015 H 549.048 -4.74905 1.80077 0
M  V30 6016 H 548.978 -5.26511 0.0970679 0
M  V30 6017 H 551.469 -3.74931 0.472773 0
M  V30 6018 H 551.782 -7.56392 1.58402 0
M  V30 6019 H 550.127 -6.80386 1.41774 0
M  V30 6020 H 553.318 -4.63293 0.669115 0
M  V30 6021 H 553.491 -6.37246 1.17563 0
M  V30 6022 N 546.897 -0.0685191 -1.57451 0
M  V30 6023 C 548.143 0.602239 -1.93652 0
M  V30 6024 C 548.476 1.6946 -0.948526 0
M  V30 6025 O 547.751 1.94487 0.022782 0
M  V30 6026 C 548.034 1.18223 -3.4014 0
M  V30 6027 C 547.887 0.0967431 -4.49696 0
M  V30 6028 C 549.206 2.08872 -3.87377 0
M  V30 6029 H 546.325 0.217453 -0.70419 0
M  V30 6030 H 548.967 -0.133821 -1.89528 0
M  V30 6031 H 547.117 1.80953 -3.43785 0
M  V30 6032 H 548.789 -0.536155 -4.58174 0
M  V30 6033 H 547.032 -0.573063 -4.29998 0
M  V30 6034 H 547.703 0.542894 -5.49324 0
M  V30 6035 H 550.179 1.56081 -3.85717 0
M  V30 6036 H 549.055 2.46389 -4.90493 0
M  V30 6037 H 549.316 2.99572 -3.25129 0
M  V30 6038 N 548.375 1.56261 0.205012 0
M  V30 6039 C 549.622 1.8004 0.926927 0
M  V30 6040 C 549.95 0.640086 1.83666 0
M  V30 6041 O 549.205 -0.374702 1.92079 0
M  V30 6042 C 549.504 3.09722 1.78345 0
M  V30 6043 C 549.17 4.39082 1.02555 0
M  V30 6044 C 547.832 4.74226 0.816256 0
M  V30 6045 C 550.184 5.18877 0.491559 0
M  V30 6046 C 547.512 5.86668 0.0613287 0
M  V30 6047 C 549.864 6.32105 -0.250107 0
M  V30 6048 C 548.528 6.6584 -0.470508 0
M  V30 6049 H 547.798 0.658812 0.339187 0
M  V30 6050 H 550.445 1.90515 0.19395 0
M  V30 6051 H 548.75 2.9444 2.5848 0
M  V30 6052 H 550.447 3.25324 2.34446 0
M  V30 6053 H 547.037 4.11497 1.19868 0
M  V30 6054 H 551.221 4.92147 0.640684 0
M  V30 6055 H 546.477 6.11283 -0.119501 0
M  V30 6056 H 550.651 6.93157 -0.671307 0
M  V30 6057 H 548.278 7.5281 -1.05739 0
M  V30 6058 O 549.892 -0.350324 1.57655 0
M  V30 6059 H 550.583 -1.00029 1.65873 0
M  V30 END ATOM
M  V30 BEGIN BOND
M  V30 END BOND
M  V30 END CTAB
M  END
$$$$
