drugbank_target|P14642 Tubulin alpha chain (DB11638)
 OpenBabel12092121103D

  0  0  0     0  0            999 V3000
M  V30 BEGIN CTAB
M  V30 COUNTS 6930 7005 0 0 0
M  V30 BEGIN ATOM
M  V30 1 H -0.908 1.98254 -0.117106 0
M  V30 2 N 0 1.576 0 0
M  V30 3 C 0.933 2.03868 1.02534 0
M  V30 4 C 1.911 0.928543 1.3348 0
M  V30 5 O 3.095 1.19667 1.45644 0
M  V30 6 C 0.222 2.43627 2.35294 0
M  V30 7 C -0.732 3.65373 2.2001 0
M  V30 8 S 0.101 5.13292 1.52614 0
M  V30 9 C 1.257 5.56322 2.86805 0
M  V30 10 H 1.49 2.90518 0.631377 0
M  V30 11 H -0.977 1.52953 0.210867 0
M  V30 12 H 0.981 2.67203 3.11629 0
M  V30 13 H -0.358 1.57376 2.7183 0
M  V30 14 H -1.165 3.90944 3.18086 0
M  V30 15 H -1.563 3.418 1.51819 0
M  V30 16 H 0.729 5.58782 3.83104 0
M  V30 17 H 1.672 6.56266 2.65933 0
M  V30 18 H 2.08 4.83886 2.90714 0
M  V30 19 N 1.4781 -0.272755 1.55222 0
M  V30 20 C 2.8941 -0.619959 1.47067 0
M  V30 21 C 3.0941 -1.895 0.684978 0
M  V30 22 O 2.1501 -2.51675 0.203931 0
M  V30 23 C 3.4631 -0.746693 2.91282 0
M  V30 24 C 5.0111 -0.840731 3.01497 0
M  V30 25 C 5.4861 -0.99924 4.46967 0
M  V30 26 N 6.9771 -1.06476 4.50796 0
M  V30 27 C 7.7121 -1.20621 5.6057 0
M  V30 28 N 7.2081 -1.31483 6.80209 0
M  V30 29 N 9.0011 -1.23733 5.48312 0
M  V30 30 H 1.1521 0.564606 2.04758 0
M  V30 31 H 3.4151 0.191177 0.928523 0
M  V30 32 H 3.1211 0.119753 3.51496 0
M  V30 33 H 2.9951 -1.6269 3.40311 0
M  V30 34 H 5.3821 -1.69764 2.41379 0
M  V30 35 H 5.4631 0.0640874 2.5572 0
M  V30 36 H 5.1071 -0.146984 5.07687 0
M  V30 37 H 5.0371 -1.91871 4.90401 0
M  V30 38 H 7.5281 -0.993196 3.64615 0
M  V30 39 H 7.8411 -1.42111 7.59621 0
M  V30 40 H 6.1861 -1.28487 6.8302 0
M  V30 41 H 9.3771 -1.14877 4.53785 0
M  V30 42 H 9.5501 -1.34412 6.33906 0
M  V30 43 N 2.9562 -1.48159 -0.537278 0
M  V30 44 C 3.8662 -1.64807 -1.6696 0
M  V30 45 C 4.8822 -0.530651 -1.65711 0
M  V30 46 O 6.0582 -0.800784 -1.84796 0
M  V30 47 C 3.1232 -1.67708 -3.03438 0
M  V30 48 C 2.1842 -2.91025 -3.156 0
M  V30 49 C 1.4172 -2.93778 -4.45567 0
M  V30 50 O 1.6402 -2.05153 -5.3223 0
M  V30 51 O 0.5742 -3.85868 -4.61941 0
M  V30 52 H 4.4002 -2.6066 -1.55853 0
M  V30 53 H 1.9852 -1.31475 -0.709549 0
M  V30 54 H 3.8672 -1.7218 -3.84619 0
M  V30 55 H 2.5422 -0.750278 -3.14885 0
M  V30 56 H 1.4492 -2.92089 -2.33741 0
M  V30 57 H 2.7822 -3.83065 -3.09066 0
M  V30 58 N 4.4343 0.785586 -1.36625 0
M  V30 59 C 5.6803 1.54591 -1.31261 0
M  V30 60 C 6.0133 1.93906 0.106823 0
M  V30 61 O 5.2883 1.63007 1.06108 0
M  V30 62 C 5.5713 2.82038 -2.23889 0
M  V30 63 C 5.4243 2.49066 -3.74548 0
M  V30 64 C 6.7433 3.83887 -2.15217 0
M  V30 65 H 3.8623 0.560846 -0.478143 0
M  V30 66 H 6.5043 0.902278 -1.67209 0
M  V30 67 H 4.6543 3.36961 -1.93363 0
M  V30 68 H 6.3263 2.00164 -4.15611 0
M  V30 69 H 4.5693 1.81954 -3.93796 0
M  V30 70 H 5.2403 3.40109 -4.34776 0
M  V30 71 H 7.7163 3.38421 -2.42096 0
M  V30 72 H 6.5923 4.70806 -2.82193 0
M  V30 73 H 6.8533 4.27131 -1.14068 0
M  V30 74 N 5.9124 1.20967 1.01018 0
M  V30 75 C 7.1614 1.01796 1.74128 0
M  V30 76 C 7.4744 -0.449691 1.90361 0
M  V30 77 O 8.6804 -0.76068 2.60626 0
M  V30 78 C 7.1364 1.7727 3.13215 0
M  V30 79 C 6.7444 3.28171 3.04972 0
M  V30 80 C 8.4884 1.66489 3.90489 0
M  V30 81 C 6.3954 3.96156 4.39107 0
M  V30 82 H 5.3254 0.377276 0.652824 0
M  V30 83 H 7.9764 1.44651 1.12909 0
M  V30 84 H 6.3584 1.27205 3.75013 0
M  V30 85 H 7.5324 3.85499 2.52443 0
M  V30 86 H 5.8474 3.39437 2.41188 0
M  V30 87 H 8.4444 2.14617 4.89738 0
M  V30 88 H 8.7874 0.6222 4.11624 0
M  V30 89 H 9.3204 2.14003 3.35332 0
M  V30 90 H 6.0594 5.00604 4.23174 0
M  V30 91 H 5.5794 3.43617 4.91617 0
M  V30 92 H 7.2584 4.00774 5.07926 0
M  V30 93 N 7.3905 -1.2043 1.01659 0
M  V30 94 C 8.6155 -1.94318 0.724942 0
M  V30 95 C 9.0405 -1.74266 -0.708034 0
M  V30 96 O 8.3985 -1.03694 -1.48719 0
M  V30 97 C 8.4465 -3.44486 1.06591 0
M  V30 98 O 7.5505 -4.12017 0.177599 0
M  V30 99 H 6.8915 -0.60708 0.26898 0
M  V30 100 H 9.4215 -1.52861 1.35995 0
M  V30 101 H 9.4315 -3.95106 1.01762 0
M  V30 102 H 8.1065 -3.58404 2.10997 0
M  V30 103 H 6.6835 -3.71821 0.283421 0
M  V30 104 N 8.8686 -0.792821 -1.36206 0
M  V30 105 C 10.1176 -0.363353 -1.984 0
M  V30 106 C 10.4306 1.07172 -1.63626 0
M  V30 107 O 11.6366 1.60362 -2.19081 0
M  V30 108 C 10.0926 -0.59872 -3.54885 0
M  V30 109 C 9.7006 -2.04543 -3.9858 0
M  V30 110 C 11.4446 -0.233926 -4.23855 0
M  V30 111 C 9.3516 -2.22727 -5.47856 0
M  V30 112 H 8.2816 -0.13212 -0.742334 0
M  V30 113 H 10.9326 -0.974935 -1.55458 0
M  V30 114 H 9.3146 0.0826222 -3.95914 0
M  V30 115 H 10.4886 -2.76345 -3.68741 0
M  V30 116 H 8.8036 -2.36879 -3.42458 0
M  V30 117 H 11.4006 -0.348027 -5.33566 0
M  V30 118 H 11.7436 0.818351 -4.08177 0
M  V30 119 H 12.2766 -0.868639 -3.882 0
M  V30 120 H 9.0156 -3.2635 -5.68486 0
M  V30 121 H 8.5356 -1.55434 -5.7931 0
M  V30 122 H 10.2146 -2.03607 -6.14128 0
M  V30 123 N 10.3467 1.47872 -0.545128 0
M  V30 124 C 11.2967 2.26842 0.229456 0
M  V30 125 C 12.2807 1.33626 0.896267 0
M  V30 126 O 13.4727 1.58063 0.79657 0
M  V30 127 C 10.6017 3.19089 1.26638 0
M  V30 128 C 9.6877 4.19783 0.603598 0
M  V30 129 N 10.0787 5.0479 -0.319405 0
M  V30 130 C 8.3767 4.3765 0.858989 0
M  V30 131 C 9.0777 5.77433 -0.703241 0
M  V30 132 N 8.0537 5.43566 -0.0608309 0
M  V30 133 H 11.8557 2.89947 -0.480391 0
M  V30 134 H 9.3697 1.58263 -0.364209 0
M  V30 135 H 11.3667 3.74337 1.83515 0
M  V30 136 H 10.0267 2.5754 1.97745 0
M  V30 137 H 11.0377 5.13244 -0.692889 0
M  V30 138 H 7.7147 3.87281 1.55948 0
M  V30 139 H 9.1047 6.55824 -1.46098 0
M  V30 140 N 11.8248 0.280983 1.55075 0
M  V30 141 C 13.0708 -0.33461 2.00021 0
M  V30 142 C 13.4038 -1.55063 1.16915 0
M  V30 143 O 12.6788 -1.93006 0.240646 0
M  V30 144 C 12.9618 -0.711007 3.53011 0
M  V30 145 C 12.8148 0.512766 4.46868 0
M  V30 146 C 14.1338 -1.54522 4.12081 0
M  V30 147 H 11.2528 -0.120147 0.727141 0
M  V30 148 H 13.8948 0.389097 1.85973 0
M  V30 149 H 12.0448 -1.32761 3.65112 0
M  V30 150 H 13.7168 1.15131 4.46702 0
M  V30 151 H 11.9598 1.14975 4.18286 0
M  V30 152 H 12.6308 0.205556 5.51617 0
M  V30 153 H 15.1068 -1.02442 4.03293 0
M  V30 154 H 13.9828 -1.77739 5.19327 0
M  V30 155 H 14.2438 -2.52813 3.62682 0
M  V30 156 N 13.3029 -1.57598 0.00835791 0
M  V30 157 C 14.5509 -1.90551 -0.6734 0
M  V30 158 C 14.8719 -0.883301 -1.73847 0
M  V30 159 O 14.1419 0.0781442 -1.95744 0
M  V30 160 H 12.7219 -0.703312 -0.251717 0
M  V30 161 H 15.3839 -1.94833 0.0512592 0
M  V30 162 H 14.4799 -2.9056 -1.13935 0
M  V30 163 N 14.781 0.264519 -1.55364 0
M  V30 164 C 15.713 1.34965 -1.85248 0
M  V30 165 C 16.726 1.45136 -0.737525 0
M  V30 166 O 17.915 1.46801 -1.01547 0
M  V30 167 C 15.015 2.73008 -2.00797 0
M  V30 168 C 14.188 2.85324 -3.31525 0
M  V30 169 C 13.247 4.04097 -3.37034 0
M  V30 170 O 12.273 3.94455 -4.10358 0
M  V30 171 N 13.475 5.16458 -2.65049 0
M  V30 172 H 16.24 1.09672 -2.78913 0
M  V30 173 H 13.801 0.454635 -1.55386 0
M  V30 174 H 15.793 3.50772 -2.01844 0
M  V30 175 H 14.363 2.91087 -1.1396 0
M  V30 176 H 13.583 1.94377 -3.42945 0
M  V30 177 H 14.871 2.9049 -4.17724 0
M  V30 178 H 14.269 5.27181 -2.05175 0
M  V30 179 H 12.826 5.92422 -2.71809 0
M  V30 180 N 16.2591 1.48442 0.529413 0
M  V30 181 C 17.2221 1.62524 1.61612 0
M  V30 182 C 18.2221 0.498509 1.52877 0
M  V30 183 O 19.4121 0.76431 1.56537 0
M  V30 184 C 16.5441 1.59597 3.01233 0
M  V30 185 H 17.7371 2.59423 1.50465 0
M  V30 186 H 15.2901 1.37047 0.751514 0
M  V30 187 H 16.0251 0.641781 3.17886 0
M  V30 188 H 15.8101 2.41397 3.08982 0
M  V30 189 H 17.3001 1.72646 3.80241 0
M  V30 190 N 17.7372 -0.778329 1.37039 0
M  V30 191 C 18.9852 -1.53361 1.31623 0
M  V30 192 C 19.3062 -1.94739 -0.100831 0
M  V30 193 O 18.5762 -1.65797 -1.04347 0
M  V30 194 H 17.1562 -0.568794 0.484234 0
M  V30 195 H 19.8182 -0.926742 1.71457 0
M  V30 196 H 18.9142 -2.43606 1.95096 0
M  V30 197 N 19.2153 -1.21501 -1.00376 0
M  V30 198 C 20.4643 -1.02718 -1.73586 0
M  V30 199 C 20.7773 0.439589 -1.90596 0
M  V30 200 O 21.9833 0.746848 -2.61026 0
M  V30 201 C 20.4393 -1.78929 -3.1227 0
M  V30 202 C 20.0473 -3.29783 -3.03228 0
M  V30 203 C 21.7913 -1.68557 -3.89601 0
M  V30 204 C 19.6983 -3.98479 -4.36999 0
M  V30 205 H 18.6283 -0.380733 -0.650814 0
M  V30 206 H 21.2793 -1.45248 -1.1214 0
M  V30 207 H 19.6613 -1.29192 -3.74333 0
M  V30 208 H 20.8353 -3.86832 -2.50395 0
M  V30 209 H 19.1503 -3.40711 -2.39385 0
M  V30 210 H 21.7473 -2.17211 -4.88593 0
M  V30 211 H 22.0903 -0.644021 -4.11288 0
M  V30 212 H 22.6233 -2.15778 -3.34193 0
M  V30 213 H 19.3623 -5.02841 -4.20513 0
M  V30 214 H 18.8823 -3.46219 -4.89788 0
M  V30 215 H 20.5613 -4.03462 -5.05794 0
M  V30 216 N 20.6934 1.19889 -1.02296 0
M  V30 217 C 21.6254 2.22334 -0.556787 0
M  V30 218 C 22.6384 1.58674 0.364199 0
M  V30 219 O 23.8274 1.77768 0.161533 0
M  V30 220 C 20.9274 3.38257 0.208694 0
M  V30 221 C 20.1004 4.31504 -0.71577 0
M  V30 222 C 19.1594 5.262 0.00325597 0
M  V30 223 O 18.1854 5.65798 -0.621357 0
M  V30 224 N 19.3874 5.66303 1.27599 0
M  V30 225 H 22.1524 2.62957 -1.43784 0
M  V30 226 H 19.7134 1.34495 -0.901261 0
M  V30 227 H 21.7054 3.98616 0.699111 0
M  V30 228 H 20.2754 2.96472 0.991102 0
M  V30 229 H 19.4954 3.69016 -1.38638 0
M  V30 230 H 20.7834 4.9072 -1.34428 0
M  V30 231 H 20.1814 5.36155 1.80429 0
M  V30 232 H 18.7384 6.28942 1.71102 0
M  V30 233 N 22.1715 0.800033 1.35784 0
M  V30 234 C 23.4175 0.377901 1.99248 0
M  V30 235 C 23.7505 -1.05052 1.63333 0
M  V30 236 O 23.0255 -1.72768 0.893385 0
M  V30 237 C 23.3085 0.553922 3.55814 0
M  V30 238 C 23.1615 2.0268 4.01548 0
M  V30 239 C 24.4805 -0.0244802 4.40093 0
M  V30 240 H 21.5995 0.138782 0.723815 0
M  V30 241 H 24.2415 1.00835 1.61035 0
M  V30 242 H 22.3915 0.0172398 3.88496 0
M  V30 243 H 24.0635 2.62536 3.79305 0
M  V30 244 H 22.3065 2.5256 3.52698 0
M  V30 245 H 22.9775 2.10087 5.10458 0
M  V30 246 H 25.4535 0.433775 4.13833 0
M  V30 247 H 24.3295 0.128637 5.48749 0
M  V30 248 H 24.5905 -1.11758 4.27741 0
M  V30 249 N 23.6496 -1.47581 0.552962 0
M  V30 250 C 24.8976 -2.02082 0.0272703 0
M  V30 251 C 25.2186 -1.4301 -1.32563 0
M  V30 252 O 24.4886 -0.603745 -1.86365 0
M  V30 253 H 23.0686 -0.746966 0.00709182 0
M  V30 254 H 25.7306 -1.81033 0.722008 0
M  V30 255 H 24.8266 -3.12034 -0.0639951 0
M  V30 256 N 25.1277 -0.289203 -1.54924 0
M  V30 257 C 26.0757 0.607966 -2.24514 0
M  V30 258 C 27.0697 1.14655 -1.24702 0
M  V30 259 O 28.2757 1.09856 -1.4259 0
M  V30 260 H 24.6507 0.21464 -0.720718 0
M  V30 261 H 26.6217 -0.00164182 -2.984 0
M  V30 262 C 25.3707 1.77406 -2.99036 0
M  V30 263 H 24.6937 1.36884 -3.75637 0
M  V30 264 H 26.1337 2.37814 -3.51028 0
M  V30 265 C 24.5927 2.67107 -2.05318 0
M  V30 266 O 25.1227 3.6787 -1.61353 0
M  V30 267 N 23.3287 2.34582 -1.71521 0
M  V30 268 H 22.8757 1.52688 -2.07471 0
M  V30 269 H 22.8337 2.94867 -1.0909 0
M  V30 270 N 26.6058 1.57591 -0.0167156 0
M  V30 271 C 27.5688 2.08393 0.954204 0
M  V30 272 C 28.5688 0.996531 1.26198 0
M  V30 273 O 29.7588 1.25858 1.20438 0
M  V30 274 C 26.8908 2.5394 2.27436 0
M  V30 275 H 28.0838 2.95455 0.514451 0
M  V30 276 H 25.6368 1.54582 0.231089 0
M  V30 277 H 26.3718 1.70171 2.76066 0
M  V30 278 H 26.1568 3.33371 2.06412 0
M  V30 279 H 27.6468 2.93512 2.97053 0
M  V30 280 N 28.0839 -0.256276 1.55502 0
M  V30 281 C 29.3239 -0.993081 1.78654 0
M  V30 282 C 29.6879 -1.8288 0.584724 0
M  V30 283 O 30.8889 -2.59665 0.694822 0
M  V30 284 C 29.1599 -1.83856 3.06483 0
M  V30 285 S 30.7189 -2.63573 3.5082 0
M  V30 286 H 27.5369 -0.334199 0.62756 0
M  V30 287 H 30.1389 -0.26184 1.93739 0
M  V30 288 H 28.8429 -1.21414 3.92029 0
M  V30 289 H 28.3739 -2.61271 2.94111 0
M  V30 290 H 30.3889 -3.86312 3.11412 0
M  V30 291 N 29.562 -1.4872 -0.521534 0
M  V30 292 C 30.808 -1.58378 -1.27624 0
M  V30 293 C 31.163 -0.258028 -1.90662 0
M  V30 294 O 30.456 0.739917 -1.76736 0
M  V30 295 C 30.65 -2.66497 -2.38148 0
M  V30 296 C 30.479 -4.09456 -1.85945 0
M  V30 297 C 29.249 -4.76495 -1.68168 0
M  V30 298 C 31.447 -4.95353 -1.3831 0
M  V30 299 N 29.429 -6.0384 -1.1068 0
M  V30 300 C 30.8 -6.13012 -0.928238 0
M  V30 301 C 32.855 -4.81512 -1.26692 0
M  V30 302 C 31.558 -7.18354 -0.368701 0
M  V30 303 C 33.584 -5.86984 -0.721368 0
M  V30 304 C 32.946 -7.03857 -0.276623 0
M  V30 305 H 29.045 -0.634045 -0.457724 0
M  V30 306 H 31.629 -1.85639 -0.587049 0
M  V30 307 H 29.8 -2.41043 -3.04553 0
M  V30 308 H 31.532 -2.65791 -3.05184 0
M  V30 309 H 28.287 -4.32962 -1.91939 0
M  V30 310 H 28.711 -6.71778 -0.839217 0
M  V30 311 H 33.353 -3.91487 -1.5968 0
M  V30 312 H 31.071 -8.08096 -0.0265122 0
M  V30 313 H 34.657 -5.78329 -0.634531 0
M  V30 314 H 33.537 -7.84077 0.138947 0
M  V30 315 N 31.0401 0.771051 -1.3745 0
M  V30 316 C 31.9501 1.91538 -1.35464 0
M  V30 317 C 32.9661 1.72134 -0.254123 0
M  V30 318 O 34.1421 1.95358 -0.489626 0
M  V30 319 C 31.2071 3.26671 -1.16134 0
M  V30 320 C 30.2681 3.58723 -2.35831 0
M  V30 321 C 29.5011 4.87409 -2.17413 0
M  V30 322 O 29.7241 5.58506 -1.15876 0
M  V30 323 O 28.6581 5.18539 -3.05615 0
M  V30 324 H 32.4841 1.96165 -2.31847 0
M  V30 325 H 30.0691 0.9139 -1.18187 0
M  V30 326 H 31.9511 4.07499 -1.07345 0
M  V30 327 H 30.6261 3.22894 -0.228251 0
M  V30 328 H 29.5331 2.78127 -2.50192 0
M  V30 329 H 30.8661 3.67243 -3.27709 0
M  V30 330 N 32.5182 1.22032 0.997298 0
M  V30 331 C 33.4482 1.01065 2.10495 0
M  V30 332 C 34.4292 -0.0669542 1.69968 0
M  V30 333 O 35.6142 0.0943987 1.9397 0
M  V30 334 C 32.7442 0.582874 3.42374 0
M  V30 335 C 31.6982 1.60592 3.96729 0
M  V30 336 C 31.0242 1.03412 5.24605 0
M  V30 337 C 32.3242 2.99478 4.27914 0
M  V30 338 H 34.0182 1.93708 2.28292 0
M  V30 339 H 31.5642 0.932761 1.09707 0
M  V30 340 H 33.5172 0.423332 4.19268 0
M  V30 341 H 32.2412 -0.379213 3.24391 0
M  V30 342 H 30.9002 1.75316 3.21963 0
M  V30 343 H 30.5482 0.063518 5.0296 0
M  V30 344 H 30.2482 1.71754 5.61938 0
M  V30 345 H 31.7722 0.886066 6.04137 0
M  V30 346 H 33.1862 2.88153 4.95622 0
M  V30 347 H 31.5832 3.64903 4.76409 0
M  V30 348 H 32.6532 3.49742 3.3587 0
M  V30 349 N 33.9963 -1.19345 1.0293 0
M  V30 350 C 35.2433 -1.89038 0.726008 0
M  V30 351 C 35.5713 -1.79649 -0.745427 0
M  V30 352 O 34.8263 -1.18354 -1.55855 0
M  V30 353 C 35.1253 -3.39292 1.12319 0
M  V30 354 C 34.7913 -3.68885 2.59297 0
M  V30 355 C 33.4533 -3.76671 2.99453 0
M  V30 356 C 35.8053 -3.82178 3.54386 0
M  V30 357 C 33.1333 -3.9522 4.33611 0
M  V30 358 C 35.4853 -4.0224 4.88248 0
M  V30 359 C 34.1493 -4.08259 5.28092 0
M  V30 360 H 33.4193 -0.691739 0.265665 0
M  V30 361 H 36.0663 -1.41328 1.29223 0
M  V30 362 H 34.3713 -3.88903 0.475584 0
M  V30 363 H 36.0683 -3.91536 0.866037 0
M  V30 364 H 32.6583 -3.63433 2.27189 0
M  V30 365 H 36.8423 -3.75505 3.24514 0
M  V30 366 H 32.0983 -3.98119 4.64016 0
M  V30 367 H 36.2723 -4.11468 5.61843 0
M  V30 368 H 33.8993 -4.22384 6.32057 0
M  V30 369 N 35.4744 -0.807222 -1.35358 0
M  V30 370 C 36.7144 -0.393534 -2.00576 0
M  V30 371 C 37.0784 1.0203 -1.62647 0
M  V30 372 O 38.2794 1.53603 -2.20589 0
M  V30 373 C 36.5504 -0.572017 -3.52793 0
M  V30 374 S 38.1094 -0.248845 -4.38094 0
M  V30 375 H 34.9274 -0.149425 -0.695121 0
M  V30 376 H 37.5294 -1.04961 -1.64935 0
M  V30 377 H 36.2334 -1.60097 -3.77885 0
M  V30 378 H 35.7644 0.099359 -3.93275 0
M  V30 379 H 37.7794 0.943253 -4.87152 0
M  V30 380 N 36.9525 1.47285 -0.560781 0
M  V30 381 C 37.8825 2.32857 0.173105 0
M  V30 382 C 38.8635 1.44009 0.905281 0
M  V30 383 O 40.0485 1.7286 0.885046 0
M  V30 384 C 37.1785 3.25861 1.20133 0
M  V30 385 C 36.1325 4.23978 0.585388 0
M  V30 386 C 35.4585 5.06332 1.7185 0
M  V30 387 C 36.7585 5.20242 -0.463178 0
M  V30 388 H 38.4525 2.94466 -0.541307 0
M  V30 389 H 35.9985 1.41601 -0.261764 0
M  V30 390 H 37.9515 3.84569 1.72293 0
M  V30 391 H 36.6755 2.62315 1.94573 0
M  V30 392 H 35.3345 3.66501 0.085054 0
M  V30 393 H 34.9825 4.39186 2.45203 0
M  V30 394 H 34.6825 5.72762 1.31213 0
M  V30 395 H 36.2065 5.67899 2.24329 0
M  V30 396 H 37.6205 5.73293 -0.027502 0
M  V30 397 H 36.0175 5.94896 -0.788627 0
M  V30 398 H 37.0875 4.65504 -1.35773 0
M  V30 399 N 38.4306 0.297415 1.54768 0
M  V30 400 C 39.3406 -0.58983 2.27064 0
M  V30 401 C 40.3566 -1.15144 1.30453 0
M  V30 402 O 41.5326 -1.17699 1.63428 0
M  V30 403 C 38.5976 -1.74714 2.9946 0
M  V30 404 C 37.6586 -1.21997 4.11601 0
M  V30 405 C 36.8916 -2.32212 4.80535 0
M  V30 406 O 37.1146 -3.52036 4.48806 0
M  V30 407 O 36.0486 -1.99106 5.68014 0
M  V30 408 H 39.8746 -0.00348199 3.037 0
M  V30 409 H 37.4596 0.0640035 1.49263 0
M  V30 410 H 39.3416 -2.42147 3.44881 0
M  V30 411 H 38.0166 -2.32016 2.25722 0
M  V30 412 H 36.9236 -0.511458 3.70587 0
M  V30 413 H 38.2566 -0.692419 4.87305 0
M  V30 414 N 39.9087 -1.5758 0.0250728 0
M  V30 415 C 40.8587 -2.06468 -0.967201 0
M  V30 416 C 41.8427 -0.964376 -1.28797 0
M  V30 417 O 43.0347 -1.22797 -1.27475 0
M  V30 418 C 40.1637 -2.59203 -2.25097 0
M  V30 419 C 39.2497 -3.76157 -1.95874 0
M  V30 420 N 39.6407 -4.86919 -1.36905 0
M  V30 421 C 37.9387 -3.84566 -2.25887 0
M  V30 422 C 38.6397 -5.68172 -1.24724 0
M  V30 423 N 37.6157 -5.14953 -1.74138 0
M  V30 424 H 41.4177 -2.89508 -0.506176 0
M  V30 425 H 38.9317 -1.61399 -0.18004 0
M  V30 426 H 40.9287 -2.92517 -2.97052 0
M  V30 427 H 39.5887 -1.77592 -2.71829 0
M  V30 428 H 40.5997 -5.07256 -1.04459 0
M  V30 429 H 37.2767 -3.13854 -2.75321 0
M  V30 430 H 38.6667 -6.67221 -0.791605 0
M  V30 431 N 41.3868 0.248026 -1.55636 0
M  V30 432 C 42.6348 0.974295 -1.77065 0
M  V30 433 C 42.9558 1.85897 -0.588849 0
M  V30 434 O 42.2258 1.91868 0.395407 0
M  V30 435 H 40.8058 0.362733 -0.653019 0
M  V30 436 H 43.4678 0.266244 -1.93073 0
M  V30 437 H 42.5638 1.59667 -2.68166 0
M  V30 438 N 42.8649 1.48995 0.513639 0
M  V30 439 C 44.1139 1.57093 1.2651 0
M  V30 440 C 44.4269 0.257091 1.93903 0
M  V30 441 O 45.6329 0.216478 2.70636 0
M  V30 442 C 44.0889 2.77118 2.29638 0
M  V30 443 C 43.6969 4.15209 1.68241 0
M  V30 444 C 45.4409 2.94538 3.05692 0
M  V30 445 C 43.3479 5.26474 2.69406 0
M  V30 446 H 42.2779 0.584876 0.475854 0
M  V30 447 H 44.9289 1.7536 0.540487 0
M  V30 448 H 43.3109 2.52319 3.05207 0
M  V30 449 H 44.4849 4.50094 0.987505 0
M  V30 450 H 42.7999 4.03042 1.04623 0
M  V30 451 H 45.3969 3.74832 3.8132 0
M  V30 452 H 45.7399 2.04614 3.62545 0
M  V30 453 H 46.2729 3.19316 2.37238 0
M  V30 454 H 43.0119 6.18417 2.17351 0
M  V30 455 H 42.5319 4.96058 3.37175 0
M  V30 456 H 44.2109 5.55277 3.32078 0
M  V30 457 N 44.343 -0.763751 1.37857 0
M  V30 458 C 45.275 -1.88664 1.30148 0
M  V30 459 C 46.288 -1.61365 0.215685 0
M  V30 460 O 47.477 -1.72134 0.472459 0
M  V30 461 C 44.577 -3.24075 0.991396 0
M  V30 462 C 43.75 -3.78958 2.18426 0
M  V30 463 C 42.809 -4.92862 1.8432 0
M  V30 464 O 41.835 -5.08027 2.56704 0
M  V30 465 N 43.037 -5.75071 0.792081 0
M  V30 466 H 45.802 -1.95791 2.26905 0
M  V30 467 H 43.363 -0.943226 1.31586 0
M  V30 468 H 45.355 -3.97804 0.743935 0
M  V30 469 H 43.925 -3.12399 0.112122 0
M  V30 470 H 43.145 -2.96913 2.59299 0
M  V30 471 H 44.433 -4.12357 2.98058 0
M  V30 472 H 43.831 -5.65375 0.191595 0
M  V30 473 H 42.388 -6.48991 0.60449 0
M  V30 474 N 45.8211 -1.22559 -0.990812 0
M  V30 475 C 47.2321 -1.04791 -1.54518 0
M  V30 476 C 47.5831 0.387998 -1.92325 0
M  V30 477 O 46.7081 1.27328 -1.74976 0
M  V30 478 C 47.3031 -1.896 -2.80779 0
M  V30 479 C 45.8621 -1.76124 -3.32652 0
M  V30 480 C 45.0091 -1.8594 -2.05722 0
M  V30 481 H 47.9601 -1.36374 -0.811662 0
M  V30 482 H 47.9811 -1.41464 -3.53225 0
M  V30 483 H 47.4931 -2.94101 -2.53231 0
M  V30 484 H 45.5941 -0.743643 -3.65104 0
M  V30 485 H 45.7071 -2.58913 -4.03114 0
M  V30 486 H 44.0711 -1.29403 -2.19379 0
M  V30 487 H 44.8541 -2.91976 -1.80568 0
M  V30 488 N 47.2992 1.18797 -1.03562 0
M  V30 489 C 48.5762 1.84469 -0.650434 0
M  V30 490 C 48.9562 1.92319 0.870433 0
M  V30 491 O 48.3042 1.44528 1.76986 0
M  V30 492 C 48.5142 3.2306 -1.32036 0
M  V30 493 C 49.8622 3.9915 -1.44792 0
M  V30 494 O 50.8862 3.32481 -1.27806 0
M  V30 495 O 49.7452 5.18587 -1.72423 0
M  V30 496 H 46.8392 0.795251 -0.226946 0
M  V30 497 H 49.3852 1.26231 -1.13419 0
M  V30 498 H 48.1572 3.1222 -2.3587 0
M  V30 499 H 47.7802 3.88949 -0.8249 0
M  V30 500 N 48.7773 0.814389 1.34928 0
M  V30 501 C 50.0253 0.397636 1.9815 0
M  V30 502 C 50.3463 -1.04069 1.64908 0
M  V30 503 O 49.6163 -1.72121 0.93548 0
M  V30 504 H 48.1963 0.144043 0.732981 0
M  V30 505 H 50.8583 1.04195 1.6471 0
M  V30 506 H 49.9543 0.509688 3.0791 0
M  V30 507 N 50.2554 -1.46986 0.568584 0
M  V30 508 C 51.1874 -2.28233 -0.210337 0
M  V30 509 C 52.2004 -1.37682 -0.868767 0
M  V30 510 O 53.3894 -1.62406 -0.740705 0
M  V30 511 C 50.4894 -3.12293 -1.3163 0
M  V30 512 C 49.6624 -4.30878 -0.7525 0
M  V30 513 C 48.7214 -4.96445 -1.74439 0
M  V30 514 O 47.7474 -5.54482 -1.286 0
M  V30 515 N 48.9494 -4.92171 -3.07812 0
M  V30 516 H 51.7144 -2.95723 0.486648 0
M  V30 517 H 49.2754 -1.56742 0.405409 0
M  V30 518 H 51.2674 -3.53022 -1.97883 0
M  V30 519 H 49.8374 -2.46971 -1.91636 0
M  V30 520 H 49.0574 -3.94104 0.0871128 0
M  V30 521 H 50.3454 -5.07558 -0.35536 0
M  V30 522 H 49.7434 -4.46239 -3.47688 0
M  V30 523 H 48.3004 -5.36884 -3.69592 0
M  V30 524 N 51.7335 -0.305618 -1.54608 0
M  V30 525 C 52.6665 0.610536 -2.19881 0
M  V30 526 C 53.6445 1.1294 -1.16976 0
M  V30 527 O 54.8285 1.19673 -1.45638 0
M  V30 528 C 51.9555 1.83583 -2.84631 0
M  V30 529 C 51.0015 1.4498 -4.01102 0
M  V30 530 S 51.8345 0.501793 -5.33144 0
M  V30 531 C 52.9905 1.73478 -6.01379 0
M  V30 532 H 53.2235 0.0560177 -2.97247 0
M  V30 533 H 50.7565 -0.0897434 -1.54139 0
M  V30 534 H 52.7145 2.53898 -3.22562 0
M  V30 535 H 51.3755 2.36152 -2.07102 0
M  V30 536 H 50.5685 2.36236 -4.45206 0
M  V30 537 H 50.1705 0.826553 -3.64752 0
M  V30 538 H 52.4625 2.67473 -6.22467 0
M  V30 539 H 53.4055 1.33622 -6.95378 0
M  V30 540 H 53.8135 1.9136 -5.31076 0
M  V30 541 N 53.2116 1.57565 -0.0334293 0
M  V30 542 C 54.6226 1.79746 0.504798 0
M  V30 543 C 54.9736 0.944091 1.71992 0
M  V30 544 O 54.0986 0.155694 2.15839 0
M  V30 545 C 54.6936 3.25997 0.922567 0
M  V30 546 C 53.2526 3.49159 1.40588 0
M  V30 547 C 52.3996 2.74785 0.372633 0
M  V30 548 H 55.3506 1.56565 -0.259436 0
M  V30 549 H 55.3716 3.35945 1.78666 0
M  V30 550 H 54.8836 3.88081 0.0379825 0
M  V30 551 H 52.9846 2.92332 2.31025 0
M  V30 552 H 53.0976 4.57873 1.41028 0
M  V30 553 H 51.4616 2.40391 0.841672 0
M  V30 554 H 52.2446 3.39587 -0.503559 0
M  V30 555 N 54.6897 -0.239769 1.55765 0
M  V30 556 C 55.9147 -0.988373 1.82335 0
M  V30 557 C 56.3397 -1.77886 0.611421 0
M  V30 558 O 55.6977 -1.75889 -0.439639 0
M  V30 559 C 55.7457 -1.89627 3.06715 0
M  V30 560 O 54.8497 -2.98904 2.84131 0
M  V30 561 H 54.1907 -0.280858 0.601677 0
M  V30 562 H 56.7207 -0.258597 2.02959 0
M  V30 563 H 56.7307 -2.30957 3.36338 0
M  V30 564 H 55.4057 -1.31511 3.9456 0
M  V30 565 H 53.9827 -2.61651 2.65694 0
M  V30 566 N 56.1678 -1.49265 -0.50573 0
M  V30 567 C 57.4448 -1.49012 -1.26707 0
M  V30 568 C 57.8248 -0.215205 -2.1 0
M  V30 569 O 57.1728 0.802547 -2.13943 0
M  V30 570 C 57.3828 -2.7663 -2.12783 0
M  V30 571 C 58.7308 -3.25932 -2.72127 0
M  V30 572 O 59.7548 -2.77715 -2.23054 0
M  V30 573 O 58.6138 -4.09897 -3.61451 0
M  V30 574 H 55.7078 -0.596197 -0.57313 0
M  V30 575 H 58.2538 -1.61524 -0.52039 0
M  V30 576 H 57.0258 -3.60916 -1.5118 0
M  V30 577 H 56.6488 -2.66956 -2.94653 0
M  V30 578 N 57.6459 0.756429 -1.3826 0
M  V30 579 C 58.5929 1.87011 -1.35261 0
M  V30 580 C 59.5629 1.64695 -0.215616 0
M  V30 581 O 60.7479 1.864 -0.407399 0
M  V30 582 C 57.8879 3.24275 -1.18068 0
M  V30 583 C 57.0009 3.58442 -2.41129 0
M  V30 584 C 56.1359 4.84994 -2.16689 0
M  V30 585 C 55.1749 5.11939 -3.35537 0
M  V30 586 N 54.3119 6.29685 -3.10549 0
M  V30 587 H 59.1519 1.8891 -2.30472 0
M  V30 588 H 56.6889 0.923373 -1.14509 0
M  V30 589 H 58.6469 4.03479 -1.06116 0
M  V30 590 H 57.2769 3.21711 -0.264973 0
M  V30 591 H 56.3289 2.74103 -2.63764 0
M  V30 592 H 57.6409 3.74283 -3.29717 0
M  V30 593 H 56.7949 5.72135 -2.01857 0
M  V30 594 H 55.5339 4.71286 -1.25462 0
M  V30 595 H 54.5389 4.23268 -3.50891 0
M  V30 596 H 55.7639 5.27546 -4.27635 0
M  V30 597 H 53.7099 6.17306 -2.21967 0
M  V30 598 H 53.6269 6.46014 -3.92686 0
M  V30 599 H 54.8949 7.19722 -2.99367 0
M  V30 600 N 59.124 1.23083 0.984299 0
M  V30 601 C 60.087 1.00979 2.05757 0
M  V30 602 C 61.087 -0.0269573 1.60777 0
M  V30 603 O 62.277 0.212403 1.729 0
M  V30 604 C 59.409 0.527072 3.36801 0
M  V30 605 H 60.602 1.9622 2.26799 0
M  V30 606 H 58.155 1.05072 1.15714 0
M  V30 607 H 58.89 -0.429294 3.21446 0
M  V30 608 H 58.675 1.27515 3.70786 0
M  V30 609 H 60.165 0.392942 4.15747 0
M  V30 610 N 60.6021 -1.18246 1.0419 0
M  V30 611 C 61.8271 -1.92736 0.765996 0
M  V30 612 C 62.2521 -1.75728 -0.67091 0
M  V30 613 O 61.6101 -1.06825 -1.46486 0
M  V30 614 C 61.6581 -3.42148 1.13875 0
M  V30 615 O 60.7621 -4.11548 0.264954 0
M  V30 616 H 60.1031 -0.601238 0.281797 0
M  V30 617 H 62.6331 -1.49942 1.39207 0
M  V30 618 H 62.6431 -3.92858 1.1012 0
M  V30 619 H 61.3181 -3.53848 2.18551 0
M  V30 620 H 59.8951 -3.71137 0.362226 0
M  V30 621 N 62.0802 -0.821533 -1.34494 0
M  V30 622 C 63.4962 -0.507117 -1.51329 0
M  V30 623 C 63.6962 0.968964 -1.76673 0
M  V30 624 O 62.7522 1.75348 -1.81685 0
M  V30 625 C 64.0652 -1.36544 -2.67911 0
M  V30 626 C 65.6132 -1.36242 -2.81793 0
M  V30 627 C 66.0882 -2.2052 -4.01416 0
M  V30 628 N 67.5792 -2.18136 -4.08621 0
M  V30 629 C 68.3142 -2.80095 -5.00334 0
M  V30 630 N 67.8102 -3.51039 -5.9728 0
M  V30 631 N 69.6032 -2.69656 -4.93196 0
M  V30 632 H 61.7542 -1.77729 -1.16302 0
M  V30 633 H 64.0172 -0.757291 -0.570276 0
M  V30 634 H 63.7232 -2.41361 -2.55808 0
M  V30 635 H 63.5972 -1.02917 -3.62888 0
M  V30 636 H 65.9842 -0.322041 -2.93338 0
M  V30 637 H 66.0652 -1.73866 -1.87628 0
M  V30 638 H 65.7092 -3.24607 -3.90631 0
M  V30 639 H 65.6392 -1.80247 -4.94791 0
M  V30 640 H 68.1302 -1.6653 -3.39229 0
M  V30 641 H 68.4432 -3.95565 -6.63889 0
M  V30 642 H 66.7882 -3.55145 -5.97409 0
M  V30 643 H 69.9792 -2.13808 -4.16418 0
M  V30 644 H 70.1522 -3.1823 -5.64476 0
M  V30 645 N 63.5583 1.46682 -0.576371 0
M  V30 646 C 64.5213 2.28707 0.150239 0
M  V30 647 C 65.5213 1.38035 0.824794 0
M  V30 648 O 66.7113 1.60476 0.677719 0
M  V30 649 C 63.8433 3.18248 1.22192 0
M  V30 650 H 65.0363 2.94423 -0.570521 0
M  V30 651 H 62.5893 1.52688 -0.334078 0
M  V30 652 H 63.3243 2.57265 1.97447 0
M  V30 653 H 63.1093 3.85 0.742812 0
M  V30 654 H 64.5993 3.80001 1.73172 0
M  V30 655 N 65.0364 0.313813 1.54444 0
M  V30 656 C 65.9844 -0.572171 2.25453 0
M  V30 657 C 66.9784 -1.12657 1.2651 0
M  V30 658 O 68.1844 -1.07573 1.44319 0
M  V30 659 H 64.5594 -0.203146 0.724041 0
M  V30 660 H 66.5304 0.0491145 2.9836 0
M  V30 661 C 65.2794 -1.72626 3.0182 0
M  V30 662 H 64.6024 -1.30891 3.77767 0
M  V30 663 H 66.0424 -2.32199 3.54767 0
M  V30 664 C 64.5014 -2.63806 2.09542 0
M  V30 665 O 65.0314 -3.65256 1.67185 0
M  V30 666 N 63.2374 -2.31824 1.75232 0
M  V30 667 H 62.7844 -1.49368 2.09873 0
M  V30 668 H 62.7424 -2.93095 1.13767 0
M  V30 669 N 66.5145 -1.57545 0.0417849 0
M  V30 670 C 67.7915 -1.83642 -0.673433 0
M  V30 671 C 68.1715 -0.928298 -1.89594 0
M  V30 672 O 67.5195 0.0129955 -2.28496 0
M  V30 673 C 67.7295 -3.33155 -1.03964 0
M  V30 674 C 69.0775 -3.99941 -1.42592 0
M  V30 675 O 70.1015 -3.37725 -1.13226 0
M  V30 676 O 68.9605 -5.09619 -1.9736 0
M  V30 677 H 66.0545 -0.757638 -0.331533 0
M  V30 678 H 68.6005 -1.69554 0.070433 0
M  V30 679 H 67.3725 -3.9093 -0.170098 0
M  V30 680 H 66.9955 -3.52396 -1.84126 0
M  V30 681 N 67.9926 0.231505 -1.5589 0
M  V30 682 C 69.2696 0.981096 -1.69215 0
M  V30 683 C 69.6496 2.02799 -0.586164 0
M  V30 684 O 68.9976 2.24823 0.408253 0
M  V30 685 C 69.2076 1.60054 -3.10135 0
M  V30 686 C 70.5556 2.09658 -3.69227 0
M  V30 687 O 71.5796 1.69967 -3.13033 0
M  V30 688 O 70.4386 2.8258 -4.67772 0
M  V30 689 H 67.5326 0.457653 -0.688827 0
M  V30 690 H 70.0786 0.224073 -1.68214 0
M  V30 691 H 68.8506 0.844105 -3.82087 0
M  V30 692 H 68.4736 2.42336 -3.15212 0
M  V30 693 N 69.4707 1.49531 0.497807 0
M  V30 694 C 70.4337 1.65916 1.58128 0
M  V30 695 C 71.4337 0.530825 1.51786 0
M  V30 696 O 72.6237 0.797342 1.54881 0
M  V30 697 C 69.7557 1.65951 2.9778 0
M  V30 698 H 70.9487 2.62556 1.44929 0
M  V30 699 H 68.5017 1.38611 0.722275 0
M  V30 700 H 69.2367 0.709065 3.16453 0
M  V30 701 H 69.0217 2.47897 3.03792 0
M  V30 702 H 70.5117 1.80673 3.76493 0
M  V30 703 N 70.9488 -0.749086 1.3866 0
M  V30 704 C 72.1958 -1.50833 1.35114 0
M  V30 705 C 72.5238 -1.94415 -0.0574049 0
M  V30 706 O 71.7788 -1.66065 -1.03541 0
M  V30 707 C 72.0778 -2.7712 2.25697 0
M  V30 708 C 71.7438 -2.52477 3.73585 0
M  V30 709 C 70.4058 -2.45466 4.13884 0
M  V30 710 C 72.7578 -2.31066 4.67181 0
M  V30 711 C 70.0858 -2.15064 5.45861 0
M  V30 712 C 72.4378 -2.02183 5.9942 0
M  V30 713 C 71.1018 -1.93631 6.38798 0
M  V30 714 H 70.3718 -0.551936 0.494416 0
M  V30 715 H 73.0188 -0.860979 1.71054 0
M  V30 716 H 71.3238 -3.46528 1.82827 0
M  V30 717 H 73.0208 -3.35096 2.20254 0
M  V30 718 H 69.6108 -2.58807 3.41638 0
M  V30 719 H 73.7948 -2.35459 4.3689 0
M  V30 720 H 69.0508 -2.06954 5.75308 0
M  V30 721 H 73.2248 -1.8462 6.71482 0
M  V30 722 H 70.8518 -1.69839 7.40985 0
M  V30 723 N 72.4269 -1.23603 -0.977757 0
M  V30 724 C 73.3749 -1.01704 -2.09187 0
M  V30 725 C 74.3689 0.0448214 -1.69341 0
M  V30 726 O 75.5749 -0.108902 -1.7967 0
M  V30 727 H 71.9499 -0.311803 -0.684312 0
M  V30 728 H 73.9209 -1.96207 -2.24823 0
M  V30 729 C 72.6699 -0.627746 -3.41986 0
M  V30 730 H 71.9929 -1.43656 -3.73099 0
M  V30 731 H 73.4329 -0.514053 -4.20872 0
M  V30 732 C 71.8919 0.664238 -3.30287 0
M  V30 733 O 72.4219 1.71268 -3.6336 0
M  V30 734 N 70.6279 0.641156 -2.83439 0
M  V30 735 H 70.1749 -0.212376 -2.56723 0
M  V30 736 H 70.1329 1.50583 -2.75993 0
M  V30 737 N 73.905 1.17692 -1.04816 0
M  V30 738 C 75.133 1.91786 -0.776254 0
M  V30 739 C 75.548 1.76604 0.667577 0
M  V30 740 O 74.905 1.10067 1.45573 0
M  V30 741 C 74.956 3.42967 -1.14263 0
M  V30 742 O 74.677 3.57678 -2.52978 0
M  V30 743 C 76.178 4.34144 -0.896311 0
M  V30 744 H 73.398 0.608624 -0.282519 0
M  V30 745 H 75.942 1.49268 -1.39783 0
M  V30 746 H 74.097 3.83245 -0.565874 0
M  V30 747 H 74.511 4.51319 -2.67229 0
M  V30 748 H 75.985 5.38744 -1.20244 0
M  V30 749 H 76.462 4.38876 0.168636 0
M  V30 750 H 77.068 3.99574 -1.45672 0
M  V30 751 N 75.3831 0.828654 1.34056 0
M  V30 752 C 76.6301 0.419458 1.98108 0
M  V30 753 C 76.9581 -1.01886 1.65679 0
M  V30 754 O 76.2131 -1.72539 0.923512 0
M  V30 755 C 76.5121 0.575226 3.52741 0
M  V30 756 C 76.1781 1.98012 4.05095 0
M  V30 757 C 74.8401 2.36442 4.19104 0
M  V30 758 C 77.1921 2.89824 4.33188 0
M  V30 759 C 74.5201 3.66009 4.58535 0
M  V30 760 C 76.8721 4.1886 4.74066 0
M  V30 761 C 75.5361 4.5726 4.86281 0
M  V30 762 H 74.8061 0.153491 0.724929 0
M  V30 763 H 77.4531 1.05371 1.59904 0
M  V30 764 H 75.7581 -0.142385 3.91541 0
M  V30 765 H 77.4551 0.239057 4.00287 0
M  V30 766 H 74.0451 1.67162 3.94658 0
M  V30 767 H 78.2291 2.61375 4.21897 0
M  V30 768 H 73.4851 3.95579 4.66184 0
M  V30 769 H 77.6591 4.90086 4.94761 0
M  V30 770 H 75.2861 5.57707 5.16592 0
M  V30 771 N 76.8612 -1.46375 0.584142 0
M  V30 772 C 78.1082 -2.02378 0.0702675 0
M  V30 773 C 78.4362 -1.45545 -1.29023 0
M  V30 774 O 77.6912 -0.610967 -1.85918 0
M  V30 775 C 77.9902 -3.57373 -0.0439342 0
M  V30 776 C 77.6562 -4.33252 1.24915 0
M  V30 777 C 76.3182 -4.53701 1.60341 0
M  V30 778 C 78.6702 -4.7681 2.1048 0
M  V30 779 C 75.9982 -5.1496 2.81128 0
M  V30 780 C 78.3502 -5.39404 3.30494 0
M  V30 781 C 77.0142 -5.5808 3.66201 0
M  V30 782 H 76.2842 -0.740554 0.0257127 0
M  V30 783 H 78.9312 -1.75727 0.761065 0
M  V30 784 H 77.2362 -3.83169 -0.817869 0
M  V30 785 H 78.9332 -3.98384 -0.457318 0
M  V30 786 H 75.5232 -4.17633 0.963364 0
M  V30 787 H 79.7072 -4.60766 1.84414 0
M  V30 788 H 74.9632 -5.27611 3.08928 0
M  V30 789 H 79.1372 -5.72114 3.97063 0
M  V30 790 H 76.7642 -6.05318 4.59885 0
M  V30 791 N 78.3393 -0.321999 -1.54275 0
M  V30 792 C 79.5643 0.285791 -2.05422 0
M  V30 793 C 79.9893 1.45124 -1.19669 0
M  V30 794 O 79.3473 1.80132 -0.205441 0
M  V30 795 C 79.3953 0.69956 -3.53749 0
M  V30 796 O 78.4993 1.8021 -3.70942 0
M  V30 797 H 77.8403 0.0518962 -0.661969 0
M  V30 798 H 80.3703 -0.469954 -1.9913 0
M  V30 799 H 80.3803 0.982649 -3.9599 0
M  V30 800 H 79.0553 -0.152864 -4.15619 0
M  V30 801 H 77.6323 1.51794 -3.40607 0
M  V30 802 N 79.8174 1.5752 -0.0501392 0
M  V30 803 C 80.7274 2.14952 0.939827 0
M  V30 804 C 81.7434 1.10706 1.34239 0
M  V30 805 O 82.9194 1.42869 1.41952 0
M  V30 806 C 79.9844 2.68232 2.19665 0
M  V30 807 C 79.0454 3.87272 1.85253 0
M  V30 808 C 78.2784 4.38002 3.04943 0
M  V30 809 O 78.5014 3.87811 4.18281 0
M  V30 810 O 77.4354 5.29602 2.86017 0
M  V30 811 H 81.2614 2.9986 0.481392 0
M  V30 812 H 78.8464 1.4841 0.171699 0
M  V30 813 H 80.7284 3.02475 2.93406 0
M  V30 814 H 79.4034 1.86395 2.64648 0
M  V30 815 H 78.3104 3.5792 1.0883 0
M  V30 816 H 79.6434 4.70336 1.4507 0
M  V30 817 N 81.2955 -0.223234 1.56011 0
M  V30 818 C 82.5235 -0.964812 1.83027 0
M  V30 819 C 82.9385 -1.78013 0.62904 0
M  V30 820 O 82.2955 -1.78008 -0.402414 0
M  V30 821 C 82.3465 -1.88373 3.08542 0
M  V30 822 O 82.0675 -1.10137 4.2403 0
M  V30 823 C 83.5685 -2.73934 3.48533 0
M  V30 824 H 80.7885 -0.282842 0.608475 0
M  V30 825 H 83.3325 -0.238971 2.03099 0
M  V30 826 H 81.4875 -2.56354 2.9045 0
M  V30 827 H 81.9015 -1.72501 4.95322 0
M  V30 828 H 83.3755 -3.34117 4.39397 0
M  V30 829 H 83.8525 -3.46244 2.70207 0
M  V30 830 H 84.4585 -2.11369 3.69057 0
M  V30 831 N 82.7736 -1.49793 -0.48987 0
M  V30 832 C 84.0216 -1.59525 -1.24081 0
M  V30 833 C 84.3426 -0.288953 -1.92847 0
M  V30 834 O 83.6126 0.692436 -1.83254 0
M  V30 835 H 82.1926 -0.587796 -0.460983 0
M  V30 836 H 84.8546 -1.86477 -0.566778 0
M  V30 837 H 83.9506 -2.39696 -1.99881 0
M  V30 838 N 84.2517 0.741722 -1.39055 0
M  V30 839 C 85.2147 1.83733 -1.37021 0
M  V30 840 C 86.2147 1.58542 -0.268534 0
M  V30 841 O 87.4047 1.66067 -0.526076 0
M  V30 842 C 84.5367 3.2141 -1.13617 0
M  V30 843 H 85.7297 1.86941 -2.34506 0
M  V30 844 H 83.2827 0.944676 -1.24521 0
M  V30 845 H 84.0177 3.23865 -0.167863 0
M  V30 846 H 83.8027 3.4109 -1.93391 0
M  V30 847 H 85.2927 4.01477 -1.14918 0
M  V30 848 N 85.7298 1.2412 0.971189 0
M  V30 849 C 86.9778 1.07668 1.71032 0
M  V30 850 C 87.2988 -0.385797 1.91146 0
M  V30 851 O 86.5688 -1.27569 1.4867 0
M  V30 852 H 85.1488 0.395429 0.633755 0
M  V30 853 H 87.8108 1.55984 1.16855 0
M  V30 854 H 86.9068 1.57195 2.69622 0
M  V30 855 N 87.2079 -1.17134 1.05439 0
M  V30 856 C 88.1549 -2.21235 0.657539 0
M  V30 857 C 89.1249 -1.62551 -0.341543 0
M  V30 858 O 90.3099 -1.89379 -0.232393 0
M  V30 859 C 87.4499 -3.45076 0.0410575 0
M  V30 860 C 86.5629 -4.18042 1.08927 0
M  V30 861 C 85.6979 -5.29376 0.439848 0
M  V30 862 C 84.7369 -5.94132 1.4722 0
M  V30 863 N 83.8739 -6.96975 0.846756 0
M  V30 864 H 88.7139 -2.54534 1.54972 0
M  V30 865 H 86.2509 -1.25028 0.775006 0
M  V30 866 H 88.2089 -4.15862 -0.33383 0
M  V30 867 H 86.8389 -3.12353 -0.814568 0
M  V30 868 H 85.8909 -3.45945 1.58196 0
M  V30 869 H 87.2029 -4.62306 1.87282 0
M  V30 870 H 86.3569 -6.06699 0.0115125 0
M  V30 871 H 85.0959 -4.86251 -0.375656 0
M  V30 872 H 84.1009 -5.15538 1.91052 0
M  V30 873 H 85.3259 -6.39337 2.28965 0
M  V30 874 H 83.2719 -6.5598 0.0518075 0
M  V30 875 H 83.1889 -7.39565 1.5678 0
M  V30 876 H 84.4569 -7.78239 0.443277 0
M  V30 877 N 88.686 -0.835752 -1.33615 0
M  V30 878 C 89.636 -0.238856 -2.26745 0
M  V30 879 C 90.62 0.604343 -1.49119 0
M  V30 880 O 91.812 0.456822 -1.71003 0
M  V30 881 C 88.941 0.587725 -3.38232 0
M  V30 882 C 88.027 -0.266811 -4.2326 0
M  V30 883 N 88.418 -1.34403 -4.87616 0
M  V30 884 C 86.716 -0.0533131 -4.45968 0
M  V30 885 C 87.417 -1.86819 -5.50884 0
M  V30 886 N 86.393 -1.17013 -5.30857 0
M  V30 887 H 90.195 -1.06266 -2.74016 0
M  V30 888 H 87.709 -0.679881 -1.47483 0
M  V30 889 H 89.706 1.03161 -4.03935 0
M  V30 890 H 88.366 1.40954 -2.9251 0
M  V30 891 H 89.377 -1.7269 -4.88261 0
M  V30 892 H 86.054 0.735312 -4.10974 0
M  V30 893 H 87.444 -2.7701 -6.1214 0
M  V30 894 N 90.1641 1.46063 -0.591896 0
M  V30 895 C 91.4101 2.02638 -0.0811191 0
M  V30 896 C 91.7431 1.4613 1.27905 0
M  V30 897 O 91.0181 0.629908 1.84017 0
M  V30 898 C 91.3011 3.60091 -0.0252436 0
M  V30 899 C 91.1541 4.26965 -1.41496 0
M  V30 900 C 92.4731 4.3496 0.670685 0
M  V30 901 H 89.5921 0.73635 -0.0309524 0
M  V30 902 H 92.2341 1.741 -0.760859 0
M  V30 903 H 90.3841 3.84535 0.553624 0
M  V30 904 H 92.0561 4.13756 -2.0397 0
M  V30 905 H 90.2991 3.85971 -1.98011 0
M  V30 906 H 90.9701 5.35781 -1.32825 0
M  V30 907 H 93.4461 4.15716 0.178825 0
M  V30 908 H 92.3221 5.44686 0.678837 0
M  V30 909 H 92.5831 4.06685 1.73379 0
M  V30 910 N 91.6422 0.330177 1.54103 0
M  V30 911 C 93.0532 -0.15652 1.86043 0
M  V30 912 C 93.4042 -1.51086 1.2517 0
M  V30 913 O 92.5292 -2.09023 0.560217 0
M  V30 914 C 93.1242 -0.290784 3.3755 0
M  V30 915 C 91.6832 -0.721705 3.69416 0
M  V30 916 C 90.8302 0.152622 2.7688 0
M  V30 917 H 93.7812 0.550237 1.48856 0
M  V30 918 H 93.8022 -1.12058 3.63625 0
M  V30 919 H 93.3142 0.695068 3.81825 0
M  V30 920 H 91.4152 -1.71706 3.30678 0
M  V30 921 H 91.5282 -0.520869 4.7626 0
M  V30 922 H 89.8922 -0.372894 2.51956 0
M  V30 923 H 90.6752 1.13536 3.23982 0
M  V30 924 N 93.1203 -1.57491 0.0584922 0
M  V30 925 C 94.5363 -1.56792 -0.298091 0
M  V30 926 C 94.7363 -1.06679 -1.70944 0
M  V30 927 O 93.7923 -0.726672 -2.41818 0
M  V30 928 C 95.1053 -3.00461 -0.119879 0
M  V30 929 C 96.6533 -3.1242 -0.190428 0
M  V30 930 C 97.1283 -4.57982 -0.0406567 0
M  V30 931 N 98.6193 -4.63099 -0.0966958 0
M  V30 932 C 99.3543 -5.734 -0.00502943 0
M  V30 933 N 98.8503 -6.9266 0.139402 0
M  V30 934 N 100.643 -5.62067 -0.0611391 0
M  V30 935 H 92.7943 -1.88386 0.98105 0
M  V30 936 H 95.0573 -0.867865 0.381463 0
M  V30 937 H 94.7633 -3.41187 0.85349 0
M  V30 938 H 94.6373 -3.66843 -0.877833 0
M  V30 939 H 97.0243 -2.71589 -1.15427 0
M  V30 940 H 97.1053 -2.48702 0.598405 0
M  V30 941 H 96.7493 -4.995 0.919897 0
M  V30 942 H 96.6793 -5.19715 -0.848727 0
M  V30 943 H 99.1703 -3.77331 -0.207277 0
M  V30 944 H 99.4833 -7.72536 0.201855 0
M  V30 945 H 97.8283 -6.94781 0.174586 0
M  V30 946 H 101.019 -4.67782 -0.172583 0
M  V30 947 H 101.192 -6.47999 0.0137562 0
M  V30 948 N 94.5984 0.214957 -1.56127 0
M  V30 949 C 95.8384 0.945364 -1.81224 0
M  V30 950 C 96.2024 1.81265 -0.633005 0
M  V30 951 O 97.4034 2.57731 -0.763423 0
M  V30 952 C 95.6744 1.75665 -3.1125 0
M  V30 953 S 97.2334 2.54179 -3.57685 0
M  V30 954 H 94.0514 0.317443 -0.6362 0
M  V30 955 H 96.6534 0.210381 -1.94365 0
M  V30 956 H 95.3574 1.10977 -3.9511 0
M  V30 957 H 94.8884 2.53381 -3.00934 0
M  V30 958 H 96.9034 3.7792 -3.21545 0
M  V30 959 N 96.0765 1.50051 0.48192 0
M  V30 960 C 97.3225 1.60736 1.2366 0
M  V30 961 C 97.6555 0.301786 1.91841 0
M  V30 962 O 96.9305 -0.696025 1.8162 0
M  V30 963 C 97.2135 2.78009 2.28874 0
M  V30 964 C 97.0665 4.18416 1.65069 0
M  V30 965 C 98.3855 2.90867 3.30279 0
M  V30 966 H 95.5045 0.585031 0.448228 0
M  V30 967 H 98.1465 1.82402 0.531946 0
M  V30 968 H 96.2965 2.59667 2.88973 0
M  V30 969 H 97.9685 4.48322 1.0865 0
M  V30 970 H 96.2115 4.23177 0.954148 0
M  V30 971 H 96.8825 4.96381 2.41474 0
M  V30 972 H 99.3585 3.07623 2.80191 0
M  V30 973 H 98.2345 3.74566 4.01238 0
M  V30 974 H 98.4955 2.01021 3.93755 0
M  V30 975 N 97.5546 -0.734337 1.39446 0
M  V30 976 C 98.8016 -1.49391 1.36706 0
M  V30 977 C 99.1296 -1.94465 -0.0367813 0
M  V30 978 O 98.3846 -1.67154 -1.01774 0
M  V30 979 C 98.6836 -2.74711 2.28623 0
M  V30 980 C 98.3496 -2.48501 3.76242 0
M  V30 981 C 97.0116 -2.41062 4.16464 0
M  V30 982 C 99.3636 -2.26098 4.69606 0
M  V30 983 C 96.6916 -2.09262 5.48112 0
M  V30 984 C 99.0436 -1.95814 6.01531 0
M  V30 985 C 97.7076 -1.86845 6.40816 0
M  V30 986 H 96.9776 -0.546661 0.500243 0
M  V30 987 H 99.6246 -0.842788 1.71957 0
M  V30 988 H 97.9296 -3.44569 1.86492 0
M  V30 989 H 99.6266 -3.32741 2.23796 0
M  V30 990 H 96.2166 -2.55169 3.44364 0
M  V30 991 H 100.401 -2.30812 4.39363 0
M  V30 992 H 95.6566 -2.00841 5.77471 0
M  V30 993 H 99.8306 -1.77488 6.73403 0
M  V30 994 H 97.4576 -1.6197 7.42745 0
M  V30 995 N 99.0327 -1.24633 -0.964593 0
M  V30 996 C 100.279 -1.08949 -1.71049 0
M  V30 997 C 100.612 0.370302 -1.90637 0
M  V30 998 O 99.8867 1.27349 -1.47011 0
M  V30 999 C 100.17 -1.83329 -3.0994 0
M  V30 1000 C 100.023 -3.37077 -2.97824 0
M  V30 1001 C 101.342 -1.60846 -4.09654 0
M  V30 1002 H 98.4607 -0.397178 -0.620821 0
M  V30 1003 H 101.103 -1.5334 -1.12191 0
M  V30 1004 H 99.2527 -1.45597 -3.60186 0
M  V30 1005 H 100.925 -3.84425 -2.5498 0
M  V30 1006 H 99.1677 -3.65298 -2.33965 0
M  V30 1007 H 99.8387 -3.84324 -3.96231 0
M  V30 1008 H 102.315 -1.93674 -3.68279 0
M  V30 1009 H 101.191 -2.1534 -5.04896 0
M  V30 1010 H 101.452 -0.547434 -4.38698 0
M  V30 1011 N 100.511 1.16574 -1.06058 0
M  V30 1012 C 101.788 1.83048 -0.689416 0
M  V30 1013 C 102.168 1.94122 0.829443 0
M  V30 1014 O 101.516 1.48249 1.7388 0
M  V30 1015 C 101.726 3.20186 -1.38859 0
M  V30 1016 C 103.074 3.95989 -1.53226 0
M  V30 1017 O 104.098 3.29696 -1.3483 0
M  V30 1018 O 102.957 5.14813 -1.83384 0
M  V30 1019 H 100.051 0.790258 -0.243764 0
M  V30 1020 H 102.597 1.23797 -1.16071 0
M  V30 1021 H 101.369 3.07146 -2.4244 0
M  V30 1022 H 100.992 3.87112 -0.907216 0
M  V30 1023 N 101.989 0.842826 1.3317 0
M  V30 1024 C 102.919 0.294028 2.31641 0
M  V30 1025 C 103.9 -0.600401 1.59151 0
M  V30 1026 O 105.085 -0.523124 1.87022 0
M  V30 1027 C 102.215 -0.528416 3.43257 0
M  V30 1028 C 101.169 0.27056 4.27144 0
M  V30 1029 C 100.495 -0.675881 5.30411 0
M  V30 1030 C 101.795 1.48981 5.00602 0
M  V30 1031 H 103.489 1.11681 2.77791 0
M  V30 1032 H 101.035 0.538478 1.33553 0
M  V30 1033 H 102.988 -0.922674 4.11175 0
M  V30 1034 H 101.712 -1.38445 2.95805 0
M  V30 1035 H 100.371 0.646427 3.60856 0
M  V30 1036 H 100.019 -1.52842 4.79216 0
M  V30 1037 H 99.7189 -0.145374 5.8742 0
M  V30 1038 H 101.243 -1.06757 6.01195 0
M  V30 1039 H 102.657 1.16849 5.61266 0
M  V30 1040 H 101.054 1.95739 5.6728 0
M  V30 1041 H 102.124 2.25746 4.29147 0
M  V30 1042 N 103.467 -1.45747 0.599634 0
M  V30 1043 C 104.377 -2.34262 -0.125888 0
M  V30 1044 C 105.393 -1.50768 -0.868625 0
M  V30 1045 O 106.569 -1.83592 -0.828003 0
M  V30 1046 C 103.634 -3.28252 -1.11587 0
M  V30 1047 C 102.695 -4.27651 -0.375956 0
M  V30 1048 C 101.928 -5.1715 -1.31877 0
M  V30 1049 O 102.151 -5.09916 -2.55621 0
M  V30 1050 O 101.085 -5.96286 -0.820157 0
M  V30 1051 H 104.911 -2.97688 0.601315 0
M  V30 1052 H 102.496 -1.44999 0.359934 0
M  V30 1053 H 104.378 -3.86191 -1.68626 0
M  V30 1054 H 103.053 -2.67401 -1.82424 0
M  V30 1055 H 101.96 -3.7335 0.236698 0
M  V30 1056 H 103.293 -4.91334 0.29177 0
M  V30 1057 N 104.945 -0.338344 -1.53925 0
M  V30 1058 C 106.356 0.146651 -1.86123 0
M  V30 1059 C 106.707 1.5042 -1.2597 0
M  V30 1060 O 105.832 2.08723 -0.571294 0
M  V30 1061 C 106.427 0.272879 -3.37699 0
M  V30 1062 C 104.986 0.702103 -3.69794 0
M  V30 1063 C 104.133 -0.167304 -2.76795 0
M  V30 1064 H 107.084 -0.558123 -1.48562 0
M  V30 1065 H 107.105 1.10128 -3.64214 0
M  V30 1066 H 106.617 -0.715307 -3.81451 0
M  V30 1067 H 104.718 1.6995 -3.31584 0
M  V30 1068 H 104.831 0.495604 -4.7653 0
M  V30 1069 H 103.195 0.359527 -2.5215 0
M  V30 1070 H 103.978 -1.15253 -3.23375 0
M  V30 1071 N 106.423 1.57458 -0.0668435 0
M  V30 1072 C 107.651 1.97624 0.612565 0
M  V30 1073 C 108.066 0.94502 1.63447 0
M  V30 1074 O 107.423 -0.0689276 1.8237 0
M  V30 1075 C 107.474 3.37869 1.28555 0
M  V30 1076 O 107.195 4.3704 0.304557 0
M  V30 1077 C 108.696 3.92882 2.05325 0
M  V30 1078 H 105.916 0.650045 0.166381 0
M  V30 1079 H 108.46 2.04035 -0.137782 0
M  V30 1080 H 106.615 3.3256 1.98702 0
M  V30 1081 H 107.029 5.18565 0.786779 0
M  V30 1082 H 108.503 4.93247 2.47812 0
M  V30 1083 H 108.98 3.29156 2.9078 0
M  V30 1084 H 109.586 4.01577 1.40056 0
M  V30 1085 N 107.901 -0.206675 1.56239 0
M  V30 1086 C 109.147 -0.930218 1.80208 0
M  V30 1087 C 109.48 -1.83387 0.638981 0
M  V30 1088 O 108.755 -1.91119 -0.361066 0
M  V30 1089 C 109.038 -1.75641 3.1436 0
M  V30 1090 C 108.891 -0.878257 4.41142 0
M  V30 1091 C 110.21 -2.73129 3.45092 0
M  V30 1092 H 107.329 -0.336742 0.655571 0
M  V30 1093 H 109.971 -0.198222 1.88963 0
M  V30 1094 H 108.121 -2.38048 3.07027 0
M  V30 1095 H 109.793 -0.269787 4.6051 0
M  V30 1096 H 108.036 -0.184385 4.33408 0
M  V30 1097 H 108.707 -1.49106 5.3148 0
M  V30 1098 H 111.183 -2.20856 3.52649 0
M  V30 1099 H 110.059 -3.28028 4.40101 0
M  V30 1100 H 110.32 -3.51606 2.68003 0
M  V30 1101 N 109.379 -1.50304 -0.473955 0
M  V30 1102 C 110.625 -1.61389 -1.22806 0
M  V30 1103 C 110.958 -0.311955 -1.91678 0
M  V30 1104 O 110.233 0.686384 -1.81986 0
M  V30 1105 C 110.516 -2.79219 -2.27396 0
M  V30 1106 C 110.369 -4.19286 -1.62848 0
M  V30 1107 C 111.688 -2.92614 -3.28732 0
M  V30 1108 H 108.807 -0.587399 -0.445119 0
M  V30 1109 H 111.449 -1.82681 -0.522265 0
M  V30 1110 H 109.599 -2.61195 -2.87592 0
M  V30 1111 H 111.271 -4.48892 -1.06271 0
M  V30 1112 H 109.514 -4.23677 -0.931693 0
M  V30 1113 H 110.185 -4.97655 -2.38838 0
M  V30 1114 H 112.661 -3.09105 -2.78556 0
M  V30 1115 H 111.537 -3.76688 -3.99246 0
M  V30 1116 H 111.798 -2.03107 -3.92683 0
M  V30 1117 N 110.857 0.726932 -1.39834 0
M  V30 1118 C 112.134 1.47902 -1.28001 0
M  V30 1119 C 112.514 2.1083 0.106789 0
M  V30 1120 O 111.862 1.99242 1.11869 0
M  V30 1121 C 112.072 2.52392 -2.41038 0
M  V30 1122 C 113.42 3.18546 -2.80737 0
M  V30 1123 O 114.444 2.62708 -2.40547 0
M  V30 1124 O 113.303 4.19604 -3.50135 0
M  V30 1125 H 110.397 0.657163 -0.502062 0
M  V30 1126 H 112.943 0.760071 -1.51727 0
M  V30 1127 H 111.715 2.04329 -3.33715 0
M  V30 1128 H 111.338 3.31837 -2.19021 0
M  V30 1129 N 112.336 1.25143 0.95797 0
M  V30 1130 C 113.246 1.06968 2.08794 0
M  V30 1131 C 114.262 0.00773911 1.73998 0
M  V30 1132 O 115.438 0.207972 2.00323 0
M  V30 1133 C 112.503 0.68691 3.39827 0
M  V30 1134 C 111.564 1.82641 3.88511 0
M  V30 1135 C 110.797 1.46181 5.1329 0
M  V30 1136 O 111.02 0.355971 5.69288 0
M  V30 1137 O 109.954 2.29085 5.566 0
M  V30 1138 H 113.78 2.01723 2.27027 0
M  V30 1139 H 111.365 1.04051 1.07209 0
M  V30 1140 H 113.247 0.485417 4.18595 0
M  V30 1141 H 111.922 -0.231417 3.22872 0
M  V30 1142 H 110.829 2.08274 3.10762 0
M  V30 1143 H 112.162 2.72386 4.09959 0
M  V30 1144 N 113.814 -1.1601 1.06675 0
M  V30 1145 C 115.06 -1.86909 0.786945 0
M  V30 1146 C 115.393 -1.81717 -0.685018 0
M  V30 1147 O 114.668 -1.23551 -1.50218 0
M  V30 1148 C 114.951 -3.36313 1.28707 0
M  V30 1149 C 114.804 -3.50175 2.82308 0
M  V30 1150 C 116.123 -4.3084 0.898071 0
M  V30 1151 H 113.242 -0.678677 0.287343 0
M  V30 1152 H 115.884 -1.36336 1.32334 0
M  V30 1153 H 114.034 -3.79513 0.830768 0
M  V30 1154 H 115.706 -3.15886 3.36175 0
M  V30 1155 H 113.949 -2.91959 3.20847 0
M  V30 1156 H 114.62 -4.55116 3.12368 0
M  V30 1157 H 117.096 -3.95561 1.29114 0
M  V30 1158 H 115.972 -5.33876 1.27543 0
M  V30 1159 H 116.233 -4.41662 -0.196651 0
M  V30 1160 N 115.292 -0.849877 -1.32721 0
M  V30 1161 C 116.708 -0.539102 -1.50219 0
M  V30 1162 C 116.908 0.931271 -1.78689 0
M  V30 1163 O 115.964 1.71455 -1.85363 0
M  V30 1164 C 117.277 -1.42196 -2.64954 0
M  V30 1165 C 118.825 -1.42189 -2.78839 0
M  V30 1166 C 119.3 -2.28985 -3.96648 0
M  V30 1167 N 120.791 -2.26754 -4.03902 0
M  V30 1168 C 121.526 -2.90644 -4.94281 0
M  V30 1169 N 121.022 -3.63629 -5.897 0
M  V30 1170 N 122.815 -2.80057 -4.87365 0
M  V30 1171 H 114.966 -1.80156 -1.12506 0
M  V30 1172 H 117.229 -0.769217 -0.554085 0
M  V30 1173 H 116.935 -2.46733 -2.50631 0
M  V30 1174 H 116.809 -1.10591 -3.60624 0
M  V30 1175 H 119.196 -0.38419 -2.92588 0
M  V30 1176 H 119.277 -1.77807 -1.83898 0
M  V30 1177 H 118.921 -3.32819 -3.83658 0
M  V30 1178 H 118.851 -1.90702 -4.90857 0
M  V30 1179 H 121.342 -1.73688 -3.3562 0
M  V30 1180 H 121.655 -4.09558 -6.55349 0
M  V30 1181 H 120 -3.67737 -5.89741 0
M  V30 1182 H 123.191 -2.22593 -4.11789 0
M  V30 1183 H 123.364 -3.30132 -5.57599 0
M  V30 1184 N 116.77 1.45427 -0.607355 0
M  V30 1185 C 117.998 2.06614 -0.108814 0
M  V30 1186 C 118.413 1.45204 1.2067 0
M  V30 1187 O 117.77 0.566132 1.73497 0
M  V30 1188 C 117.821 3.61481 0.0375347 0
M  V30 1189 O 117.542 4.20598 -1.22593 0
M  V30 1190 C 119.043 4.39652 0.567561 0
M  V30 1191 H 116.263 0.66747 -0.0687351 0
M  V30 1192 H 118.807 1.86675 -0.835022 0
M  V30 1193 H 116.962 3.80762 0.714068 0
M  V30 1194 H 117.376 5.1377 -1.05547 0
M  V30 1195 H 118.85 5.48518 0.61905 0
M  V30 1196 H 119.327 4.09417 1.58978 0
M  V30 1197 H 119.933 4.25234 -0.0749202 0
M  V30 1198 N 118.248 0.346503 1.53744 0
M  V30 1199 C 119.496 -0.248612 2.00565 0
M  V30 1200 C 119.817 -1.5083 1.23593 0
M  V30 1201 O 119.087 -1.92858 0.343912 0
M  V30 1202 H 117.667 -0.0948564 0.740953 0
M  V30 1203 H 120.329 0.468341 1.89189 0
M  V30 1204 H 119.425 -0.488994 3.08245 0
M  V30 1205 N 119.726 -1.57421 0.075193 0
M  V30 1206 C 120.954 -1.97946 -0.602076 0
M  V30 1207 C 121.369 -0.953674 -1.62943 0
M  V30 1208 O 120.726 0.0592551 -1.82404 0
M  V30 1209 C 120.777 -3.38546 -1.26762 0
M  V30 1210 O 120.498 -4.37195 -0.281376 0
M  V30 1211 C 121.999 -3.93966 -2.03239 0
M  V30 1212 H 119.219 -0.650918 -0.162931 0
M  V30 1213 H 121.763 -2.03959 0.148601 0
M  V30 1214 H 119.918 -3.33609 -1.96936 0
M  V30 1215 H 120.332 -5.18975 -0.759267 0
M  V30 1216 H 121.806 -4.94555 -2.45193 0
M  V30 1217 H 122.283 -3.30693 -2.8903 0
M  V30 1218 H 122.889 -4.02315 -1.37924 0
M  V30 1219 N 121.204 0.198386 -1.56346 0
M  V30 1220 C 122.434 0.934215 -1.84271 0
M  V30 1221 C 122.842 1.77496 -0.655125 0
M  V30 1222 O 122.185 1.7961 0.385488 0
M  V30 1223 C 122.247 1.88278 -3.06254 0
M  V30 1224 C 121.911 1.22431 -4.40295 0
M  V30 1225 C 122.908 0.602839 -5.16393 0
M  V30 1226 C 120.593 1.22915 -4.87029 0
M  V30 1227 C 122.587 -0.0050083 -6.374 0
M  V30 1228 C 120.274 0.617465 -6.07973 0
M  V30 1229 C 121.272 0.00146341 -6.83 0
M  V30 1230 O 120.96 -0.600642 -8.01653 0
M  V30 1231 H 120.692 0.278245 -0.616081 0
M  V30 1232 H 123.246 0.211626 -2.04307 0
M  V30 1233 H 121.476 2.64498 -2.82095 0
M  V30 1234 H 123.165 2.48612 -3.20853 0
M  V30 1235 H 123.931 0.591265 -4.81382 0
M  V30 1236 H 119.81 1.69801 -4.28589 0
M  V30 1237 H 123.354 -0.48643 -6.95902 0
M  V30 1238 H 119.251 0.62653 -6.42452 0
M  V30 1239 H 120.019 -0.497225 -8.16988 0
M  V30 1240 N 122.682 1.50554 0.465978 0
M  V30 1241 C 124.098 1.38093 0.800154 0
M  V30 1242 C 124.298 0.440988 1.96615 0
M  V30 1243 O 123.354 -0.114499 2.5224 0
M  V30 1244 C 124.667 2.79565 1.10742 0
M  V30 1245 C 126.215 2.88516 1.21357 0
M  V30 1246 C 126.69 4.30833 1.55393 0
M  V30 1247 N 128.181 4.33807 1.62375 0
M  V30 1248 C 128.916 5.40927 1.90225 0
M  V30 1249 N 128.412 6.58247 2.16062 0
M  V30 1250 N 130.205 5.28376 1.9177 0
M  V30 1251 H 122.356 2.10237 -0.302366 0
M  V30 1252 H 124.619 0.945203 -0.0727746 0
M  V30 1253 H 124.325 3.50208 0.323661 0
M  V30 1254 H 124.199 3.17125 2.04234 0
M  V30 1255 H 126.586 2.1809 1.98799 0
M  V30 1256 H 126.667 2.54492 0.258321 0
M  V30 1257 H 126.311 5.01799 0.784889 0
M  V30 1258 H 126.241 4.62347 2.52076 0
M  V30 1259 H 128.732 3.49212 1.44427 0
M  V30 1260 H 129.045 7.3569 2.36601 0
M  V30 1261 H 127.39 6.61413 2.13444 0
M  V30 1262 H 130.581 4.35715 1.71085 0
M  V30 1263 H 130.754 6.11944 2.13139 0
M  V30 1264 N 124.16 -0.719506 1.40217 0
M  V30 1265 C 125.092 -1.84428 1.36084 0
M  V30 1266 C 126.105 -1.60597 0.266913 0
M  V30 1267 O 127.294 -1.70544 0.526983 0
M  V30 1268 C 124.394 -3.20757 1.094 0
M  V30 1269 C 123.567 -3.71817 2.30372 0
M  V30 1270 C 122.626 -4.86748 1.99907 0
M  V30 1271 O 121.652 -4.99603 2.72737 0
M  V30 1272 N 122.854 -5.7226 0.974635 0
M  V30 1273 H 125.619 -1.88473 2.33019 0
M  V30 1274 H 123.18 -0.900885 1.3452 0
M  V30 1275 H 125.172 -3.95235 0.870116 0
M  V30 1276 H 123.742 -3.11884 0.211452 0
M  V30 1277 H 122.962 -2.88514 2.68614 0
M  V30 1278 H 124.25 -4.02666 3.11026 0
M  V30 1279 H 123.648 -5.6448 0.371368 0
M  V30 1280 H 122.205 -6.46739 0.810656 0
M  V30 1281 N 125.638 -1.25649 -0.95132 0
M  V30 1282 C 126.568 -1.08808 -2.06599 0
M  V30 1283 C 127.549 0.00382547 -1.701 0
M  V30 1284 O 128.734 -0.166325 -1.93486 0
M  V30 1285 C 125.864 -0.709542 -3.39975 0
M  V30 1286 C 124.818 -1.75206 -3.90496 0
M  V30 1287 C 124.144 -1.22811 -5.20405 0
M  V30 1288 C 125.444 -3.15153 -4.16504 0
M  V30 1289 H 127.138 -2.02048 -2.20946 0
M  V30 1290 H 124.684 -0.972835 -1.06169 0
M  V30 1291 H 126.637 -0.578649 -4.17408 0
M  V30 1292 H 125.361 0.258556 -3.25575 0
M  V30 1293 H 124.02 -1.87145 -3.15234 0
M  V30 1294 H 123.668 -0.250145 -5.02378 0
M  V30 1295 H 123.368 -1.92492 -5.55176 0
M  V30 1296 H 124.892 -1.10968 -6.00432 0
M  V30 1297 H 126.306 -3.06349 -4.84586 0
M  V30 1298 H 124.703 -3.82333 -4.62538 0
M  V30 1299 H 125.773 -3.61966 -3.22658 0
M  V30 1300 N 127.117 1.15442 -1.07289 0
M  V30 1301 C 128.364 1.86213 -0.795668 0
M  V30 1302 C 128.692 1.82291 0.678238 0
M  V30 1303 O 127.947 1.24057 1.51355 0
M  V30 1304 C 128.246 3.3489 -1.24834 0
M  V30 1305 C 127.912 3.59007 -2.72809 0
M  V30 1306 C 126.574 3.65298 -3.13227 0
M  V30 1307 C 128.926 3.68762 -3.68326 0
M  V30 1308 C 126.254 3.78854 -4.4798 0
M  V30 1309 C 128.606 3.83842 -5.0284 0
M  V30 1310 C 127.27 3.88378 -5.4288 0
M  V30 1311 H 126.54 0.681403 -0.291155 0
M  V30 1312 H 129.187 1.36435 -1.34379 0
M  V30 1313 H 127.492 3.8687 -0.619595 0
M  V30 1314 H 129.189 3.88052 -1.01076 0
M  V30 1315 H 125.779 3.5475 -2.40521 0
M  V30 1316 H 129.963 3.63202 -3.38227 0
M  V30 1317 H 125.219 3.80623 -4.78472 0
M  V30 1318 H 129.393 3.90332 -5.76727 0
M  V30 1319 H 127.02 3.98635 -6.47298 0
M  V30 1320 N 128.595 0.856903 1.32268 0
M  V30 1321 C 129.545 0.274899 2.26337 0
M  V30 1322 C 130.529 -0.580543 1.50062 0
M  V30 1323 O 131.721 -0.429559 1.71708 0
M  V30 1324 C 128.85 -0.533841 3.39124 0
M  V30 1325 C 127.936 0.334114 4.22782 0
M  V30 1326 N 128.327 1.42143 4.85416 0
M  V30 1327 C 126.625 0.124256 4.45827 0
M  V30 1328 C 127.326 1.95559 5.47843 0
M  V30 1329 N 126.302 1.25444 5.28928 0
M  V30 1330 H 130.104 1.10612 2.72291 0
M  V30 1331 H 127.618 0.703258 1.46383 0
M  V30 1332 H 129.615 -0.96722 4.05525 0
M  V30 1333 H 128.275 -1.36283 2.94715 0
M  V30 1334 H 129.286 1.80436 4.85451 0
M  V30 1335 H 125.963 -0.669837 4.12092 0
M  V30 1336 H 127.353 2.86714 6.07655 0
M  V30 1337 N 130.073 -1.45103 0.615059 0
M  V30 1338 C 131.484 -1.85654 0.197383 0
M  V30 1339 C 131.835 -1.51433 -1.24749 0
M  V30 1340 O 130.96 -0.944608 -1.94695 0
M  V30 1341 C 131.555 -3.36972 0.351448 0
M  V30 1342 C 130.114 -3.76398 -0.011593 0
M  V30 1343 C 129.261 -2.69024 0.672394 0
M  V30 1344 H 132.212 -1.35797 0.821263 0
M  V30 1345 H 132.233 -3.78239 -0.414227 0
M  V30 1346 H 131.745 -3.61847 1.40314 0
M  V30 1347 H 129.846 -3.5714 -1.06217 0
M  V30 1348 H 129.959 -4.77532 0.387265 0
M  V30 1349 H 128.323 -2.54465 0.109284 0
M  V30 1350 H 129.106 -2.96735 1.72636 0
M  V30 1351 N 131.551 -0.354651 -1.53558 0
M  V30 1352 C 132.461 0.50515 -2.29097 0
M  V30 1353 C 133.477 1.10223 -1.34636 0
M  V30 1354 O 134.653 1.11553 -1.67684 0
M  V30 1355 C 131.718 1.63479 -3.05738 0
M  V30 1356 C 130.779 1.06636 -4.15845 0
M  V30 1357 C 130.012 2.14217 -4.88822 0
M  V30 1358 O 130.235 3.35137 -4.61562 0
M  V30 1359 O 129.169 1.77887 -5.75013 0
M  V30 1360 H 132.995 -0.109237 -3.03503 0
M  V30 1361 H 130.58 -0.119357 -1.48922 0
M  V30 1362 H 132.462 2.2918 -3.5363 0
M  V30 1363 H 131.137 2.23478 -2.34178 0
M  V30 1364 H 130.044 0.373565 -3.7223 0
M  V30 1365 H 131.377 0.511081 -4.89539 0
M  V30 1366 N 133.029 1.57378 -0.0835403 0
M  V30 1367 C 133.961 2.10389 0.909338 0
M  V30 1368 C 134.974 1.03858 1.25369 0
M  V30 1369 O 136.163 1.31338 1.20882 0
M  V30 1370 C 133.263 2.55908 2.2218 0
M  V30 1371 C 132.436 3.86145 2.05453 0
M  V30 1372 C 131.495 4.17633 3.20108 0
M  V30 1373 O 130.521 4.87043 2.94581 0
M  V30 1374 N 131.723 3.72113 4.45547 0
M  V30 1375 H 134.488 2.962 0.456657 0
M  V30 1376 H 132.049 1.61579 0.101877 0
M  V30 1377 H 134.041 2.74027 2.97811 0
M  V30 1378 H 132.611 1.75171 2.58909 0
M  V30 1379 H 131.831 3.7729 1.1422 0
M  V30 1380 H 133.119 4.7137 1.91541 0
M  V30 1381 H 132.517 3.16062 4.69171 0
M  V30 1382 H 131.074 3.95409 5.18165 0
M  V30 1383 N 134.507 -0.190092 1.56449 0
M  V30 1384 C 135.437 -1.23816 1.97969 0
M  V30 1385 C 136.418 -1.47201 0.852395 0
M  V30 1386 O 137.603 -1.58854 1.1171 0
M  V30 1387 C 134.733 -2.5813 2.3235 0
M  V30 1388 C 133.687 -2.49348 3.47864 0
M  V30 1389 C 133.013 -3.8798 3.67934 0
M  V30 1390 C 134.313 -2.01424 4.81898 0
M  V30 1391 H 136.007 -0.89311 2.85769 0
M  V30 1392 H 133.553 -0.428177 1.37487 0
M  V30 1393 H 135.506 -3.31637 2.59991 0
M  V30 1394 H 134.23 -2.94386 1.41438 0
M  V30 1395 H 132.889 -1.78297 3.20321 0
M  V30 1396 H 132.537 -4.21597 2.74344 0
M  V30 1397 H 132.237 -3.82978 4.45648 0
M  V30 1398 H 133.761 -4.63101 3.97957 0
M  V30 1399 H 135.175 -2.64693 5.08538 0
M  V30 1400 H 133.572 -2.07413 5.63116 0
M  V30 1401 H 134.642 -0.967677 4.75146 0
M  V30 1402 N 135.985 -1.50799 -0.457987 0
M  V30 1403 C 137.234 -1.6168 -1.20593 0
M  V30 1404 C 137.547 -0.32888 -1.92815 0
M  V30 1405 O 138.753 -0.316773 -2.69646 0
M  V30 1406 C 137.209 -2.8545 -2.19195 0
M  V30 1407 C 136.817 -4.21168 -1.52715 0
M  V30 1408 C 138.561 -3.05681 -2.94549 0
M  V30 1409 C 136.468 -5.3611 -2.4968 0
M  V30 1410 H 135.398 -0.602134 -0.453818 0
M  V30 1411 H 138.049 -1.77245 -0.475031 0
M  V30 1412 H 136.431 -2.63472 -2.95632 0
M  V30 1413 H 137.605 -4.53449 -0.819775 0
M  V30 1414 H 135.92 -4.06648 -0.895922 0
M  V30 1415 H 138.517 -3.88727 -3.67145 0
M  V30 1416 H 138.86 -2.17929 -3.54701 0
M  V30 1417 H 139.393 -3.27901 -2.25223 0
M  V30 1418 H 136.132 -6.26057 -1.94249 0
M  V30 1419 H 135.652 -5.0823 -3.18532 0
M  V30 1420 H 137.331 -5.6722 -3.11241 0
M  V30 1421 N 137.463 0.71206 -1.40597 0
M  V30 1422 C 138.688 1.50617 -1.42581 0
M  V30 1423 C 139.113 1.88079 -0.0282102 0
M  V30 1424 O 138.471 1.53511 0.964579 0
M  V30 1425 C 138.519 2.7557 -2.3258 0
M  V30 1426 O 137.623 3.72414 -1.77148 0
M  V30 1427 H 136.964 0.453966 -0.484573 0
M  V30 1428 H 139.494 0.876649 -1.84868 0
M  V30 1429 H 139.504 3.2406 -2.47889 0
M  V30 1430 H 138.179 2.47639 -3.34138 0
M  V30 1431 H 136.756 3.31276 -1.71204 0
M  V30 1432 N 138.941 1.26152 0.944643 0
M  V30 1433 C 140.189 1.11271 1.6871 0
M  V30 1434 C 140.51 -0.345166 1.91921 0
M  V30 1435 O 139.78 -1.24387 1.51343 0
M  V30 1436 H 138.36 0.408783 0.625224 0
M  V30 1437 H 141.022 1.58427 1.1352 0
M  V30 1438 H 140.118 1.62879 2.66227 0
M  V30 1439 N 140.419 -1.14872 1.07899 0
M  V30 1440 C 141.366 -2.19791 0.704319 0
M  V30 1441 C 142.336 -1.63238 -0.306987 0
M  V30 1442 O 143.521 -1.8983 -0.192171 0
M  V30 1443 C 140.661 -3.44911 0.114244 0
M  V30 1444 C 139.774 -4.15637 1.1777 0
M  V30 1445 C 138.909 -5.28324 0.552037 0
M  V30 1446 C 137.948 -5.90875 1.59789 0
M  V30 1447 N 137.085 -6.95022 0.994404 0
M  V30 1448 H 141.925 -2.5119 1.60336 0
M  V30 1449 H 139.462 -1.23356 0.801352 0
M  V30 1450 H 141.42 -4.16477 -0.245544 0
M  V30 1451 H 140.05 -3.14011 -0.74813 0
M  V30 1452 H 139.102 -3.42512 1.65499 0
M  V30 1453 H 140.414 -4.5823 1.97046 0
M  V30 1454 H 139.568 -6.06538 0.1402 0
M  V30 1455 H 138.307 -4.86939 -0.272431 0
M  V30 1456 H 137.312 -5.11369 2.01945 0
M  V30 1457 H 138.537 -6.34337 2.42474 0
M  V30 1458 H 136.483 -6.55722 0.190939 0
M  V30 1459 H 136.4 -7.36073 1.72432 0
M  V30 1460 H 137.668 -7.77123 0.608253 0
M  V30 1461 N 141.898 -0.863906 -1.31812 0
M  V30 1462 C 142.808 -0.318461 -2.32428 0
M  V30 1463 C 143.824 0.568496 -1.64451 0
M  V30 1464 O 145 0.46666 -1.95919 0
M  V30 1465 C 142.065 0.476355 -3.43412 0
M  V30 1466 C 141.126 -0.43784 -4.27061 0
M  V30 1467 C 140.359 0.319138 -5.32745 0
M  V30 1468 O 140.582 1.54799 -5.48993 0
M  V30 1469 O 139.516 -0.319861 -6.01049 0
M  V30 1470 H 143.342 -1.15229 -2.80991 0
M  V30 1471 H 140.927 -0.627103 -1.35602 0
M  V30 1472 H 142.809 0.927156 -4.11074 0
M  V30 1473 H 141.484 1.28683 -2.97022 0
M  V30 1474 H 140.391 -0.937013 -3.62175 0
M  V30 1475 H 141.724 -1.21375 -4.77 0
M  V30 1476 N 143.376 1.44774 -0.622745 0
M  V30 1477 C 144.653 1.95522 -0.0551974 0
M  V30 1478 C 145.033 1.5649 1.41683 0
M  V30 1479 O 144.381 0.834848 2.12703 0
M  V30 1480 C 144.591 3.4796 -0.269242 0
M  V30 1481 C 145.939 4.24306 -0.158014 0
M  V30 1482 O 146.963 3.55637 -0.200162 0
M  V30 1483 O 145.822 5.46471 -0.0558693 0
M  V30 1484 H 142.916 0.826556 0.0271015 0
M  V30 1485 H 145.462 1.54866 -0.693864 0
M  V30 1486 H 144.234 3.6939 -1.29099 0
M  V30 1487 H 143.857 3.95543 0.403966 0
M  V30 1488 N 144.854 0.36279 1.53368 0
M  V30 1489 C 145.817 -0.472679 2.24273 0
M  V30 1490 C 146.817 -1.012 1.24961 0
M  V30 1491 O 148.007 -0.898194 1.49259 0
M  V30 1492 C 145.139 -1.66039 2.97731 0
M  V30 1493 H 146.332 0.14773 2.99536 0
M  V30 1494 H 143.885 0.114434 1.55881 0
M  V30 1495 H 144.62 -2.31896 2.26704 0
M  V30 1496 H 144.405 -1.28066 3.70596 0
M  V30 1497 H 145.895 -2.25252 3.51641 0
M  V30 1498 N 146.332 -1.57332 0.0918853 0
M  V30 1499 C 147.295 -2.12708 -0.85369 0
M  V30 1500 C 148.295 -1.05561 -1.213 0
M  V30 1501 O 149.485 -1.31461 -1.14296 0
M  V30 1502 C 146.617 -2.64503 -2.15061 0
M  V30 1503 H 147.81 -2.97573 -0.3729 0
M  V30 1504 H 145.363 -1.55509 -0.157072 0
M  V30 1505 H 146.098 -1.83149 -2.67632 0
M  V30 1506 H 145.883 -3.4284 -1.90272 0
M  V30 1507 H 147.373 -3.07351 -2.82711 0
M  V30 1508 N 147.81 0.181792 -1.56548 0
M  V30 1509 C 148.758 1.24461 -1.965 0
M  V30 1510 C 149.752 1.464 -0.852261 0
M  V30 1511 O 150.958 1.47103 -1.03733 0
M  V30 1512 H 147.333 0.418138 -0.625031 0
M  V30 1513 H 149.304 0.880714 -2.85107 0
M  V30 1514 C 148.053 2.57891 -2.33212 0
M  V30 1515 H 147.376 2.41829 -3.18369 0
M  V30 1516 H 148.816 3.3097 -2.65019 0
M  V30 1517 C 147.275 3.15871 -1.17163 0
M  V30 1518 O 147.805 3.9913 -0.453708 0
M  V30 1519 N 146.011 2.74808 -0.944936 0
M  V30 1520 H 145.558 2.07205 -1.53049 0
M  V30 1521 H 145.516 3.13939 -0.170286 0
M  V30 1522 N 149.288 1.51039 0.449983 0
M  V30 1523 C 150.236 1.71995 1.5659 0
M  V30 1524 C 151.23 0.586029 1.5894 0
M  V30 1525 O 152.436 0.76709 1.62837 0
M  V30 1526 H 148.811 0.543233 0.520001 0
M  V30 1527 H 150.782 2.65562 1.36085 0
M  V30 1528 C 149.531 1.8506 2.9436 0
M  V30 1529 H 148.854 2.71712 2.93279 0
M  V30 1530 H 150.294 2.0374 3.71842 0
M  V30 1531 C 148.753 0.607277 3.31382 0
M  V30 1532 O 149.283 -0.243903 4.00959 0
M  V30 1533 N 147.489 0.455073 2.87015 0
M  V30 1534 H 147.036 1.14879 2.30566 0
M  V30 1535 H 146.994 -0.375611 3.12148 0
M  V30 1536 N 150.766 -0.704594 1.40972 0
M  V30 1537 C 152.013 -1.46458 1.39844 0
M  V30 1538 C 152.341 -1.94499 0.00447594 0
M  V30 1539 O 151.596 -1.69275 -0.982057 0
M  V30 1540 C 151.895 -2.698 2.34399 0
M  V30 1541 C 151.561 -2.40464 3.81429 0
M  V30 1542 C 150.223 -2.32174 4.21484 0
M  V30 1543 C 152.575 -2.16086 4.74296 0
M  V30 1544 C 149.903 -1.97589 5.52427 0
M  V30 1545 C 152.255 -1.83011 6.05549 0
M  V30 1546 C 150.919 -1.7321 6.44635 0
M  V30 1547 H 150.189 -0.535927 0.511725 0
M  V30 1548 H 152.836 -0.806124 1.73706 0
M  V30 1549 H 151.141 -3.40536 1.93759 0
M  V30 1550 H 152.838 -3.27919 2.30804 0
M  V30 1551 H 149.428 -2.47808 3.49699 0
M  V30 1552 H 153.612 -2.2144 4.4416 0
M  V30 1553 H 148.868 -1.88547 5.81601 0
M  V30 1554 H 153.042 -1.63164 6.77016 0
M  V30 1555 H 150.669 -1.46179 7.46013 0
M  V30 1556 N 152.244 -1.26651 -0.937939 0
M  V30 1557 C 153.207 -1.08546 -2.01867 0
M  V30 1558 C 154.207 -0.0327327 -1.60767 0
M  V30 1559 O 155.397 -0.276427 -1.71993 0
M  V30 1560 C 152.529 -0.651711 -3.34613 0
M  V30 1561 H 153.722 -2.04502 -2.1936 0
M  V30 1562 H 151.275 -1.09294 -1.11734 0
M  V30 1563 H 152.01 0.309696 -3.22818 0
M  V30 1564 H 151.795 -1.41189 -3.65798 0
M  V30 1565 H 153.285 -0.546973 -4.14002 0
M  V30 1566 N 153.722 1.14298 -1.08507 0
M  V30 1567 C 155.138 1.37347 -0.812901 0
M  V30 1568 C 155.338 1.93052 0.577325 0
M  V30 1569 O 154.394 2.14389 1.33393 0
M  V30 1570 C 155.707 2.33359 -1.89642 0
M  V30 1571 C 157.255 2.46996 -1.92255 0
M  V30 1572 C 157.73 3.46309 -2.99724 0
M  V30 1573 N 159.221 3.53853 -2.98902 0
M  V30 1574 C 159.956 4.3055 -3.787 0
M  V30 1575 N 159.452 5.10482 -4.6838 0
M  V30 1576 N 161.245 4.25757 -3.66998 0
M  V30 1577 H 153.396 0.764867 -1.9815 0
M  V30 1578 H 155.659 0.398966 -0.859959 0
M  V30 1579 H 155.365 1.99565 -2.89597 0
M  V30 1580 H 155.239 3.33274 -1.76659 0
M  V30 1581 H 157.626 2.80081 -0.929445 0
M  V30 1582 H 157.707 1.47039 -2.09316 0
M  V30 1583 H 157.351 3.13957 -3.99241 0
M  V30 1584 H 157.281 4.46049 -2.79907 0
M  V30 1585 H 159.772 2.96812 -2.33904 0
M  V30 1586 H 160.085 5.66284 -5.25873 0
M  V30 1587 H 158.43 5.09747 -4.72422 0
M  V30 1588 H 161.621 3.62383 -2.96304 0
M  V30 1589 H 161.794 4.85279 -4.29427 0
M  V30 1590 N 155.201 0.870884 1.31352 0
M  V30 1591 C 156.449 0.48132 1.96285 0
M  V30 1592 C 156.77 -0.969813 1.69173 0
M  V30 1593 O 156.04 -1.67998 1.00764 0
M  V30 1594 H 154.62 0.175002 0.726212 0
M  V30 1595 H 157.282 1.11087 1.60143 0
M  V30 1596 H 156.378 0.639825 3.05471 0
M  V30 1597 N 156.679 -1.44442 0.630414 0
M  V30 1598 C 157.629 -2.27794 -0.0968103 0
M  V30 1599 C 158.613 -1.38624 -0.816834 0
M  V30 1600 O 159.805 -1.62438 -0.70306 0
M  V30 1601 C 156.934 -3.25929 -1.07819 0
M  V30 1602 C 156.02 -4.22588 -0.357826 0
M  V30 1603 N 156.411 -5.0207 0.613169 0
M  V30 1604 C 154.709 -4.41914 -0.602365 0
M  V30 1605 C 155.41 -5.72351 1.03871 0
M  V30 1606 N 154.386 -5.42287 0.377642 0
M  V30 1607 H 158.188 -2.86653 0.648621 0
M  V30 1608 H 155.702 -1.55871 0.455862 0
M  V30 1609 H 157.699 -3.84399 -1.61378 0
M  V30 1610 H 156.359 -2.68631 -1.82393 0
M  V30 1611 H 157.37 -5.08331 0.990947 0
M  V30 1612 H 154.047 -3.95714 -1.33103 0
M  V30 1613 H 155.437 -6.4619 1.84086 0
M  V30 1614 N 158.157 -0.370918 -1.53173 0
M  V30 1615 C 159.387 0.217389 -2.05453 0
M  V30 1616 C 159.795 1.42568 -1.24382 0
M  V30 1617 O 159.138 1.81571 -0.278839 0
M  V30 1618 C 159.2 0.669827 -3.53205 0
M  V30 1619 C 158.864 -0.4225 -4.55043 0
M  V30 1620 C 159.861 -1.27407 -5.04047 0
M  V30 1621 C 157.546 -0.58427 -4.9889 0
M  V30 1622 C 159.54 -2.27271 -5.95505 0
M  V30 1623 C 157.227 -1.58627 -5.90153 0
M  V30 1624 C 158.225 -2.42892 -6.38351 0
M  V30 1625 O 157.913 -3.41382 -7.27814 0
M  V30 1626 H 157.645 0.0408171 -0.674767 0
M  V30 1627 H 160.199 -0.5292 -1.98466 0
M  V30 1628 H 158.429 1.4681 -3.57748 0
M  V30 1629 H 160.118 1.18173 -3.88317 0
M  V30 1630 H 160.884 -1.16031 -4.70916 0
M  V30 1631 H 156.763 0.061851 -4.60959 0
M  V30 1632 H 160.307 -2.93079 -6.33049 0
M  V30 1633 H 156.204 -1.70048 -6.22699 0
M  V30 1634 H 156.972 -3.37173 -7.45826 0
M  V30 1635 N 159.635 1.57281 -0.100228 0
M  V30 1636 C 160.863 1.98879 0.570509 0
M  V30 1637 C 161.278 0.979476 1.61405 0
M  V30 1638 O 160.635 -0.0302288 1.82475 0
M  V30 1639 C 160.686 3.4052 1.2136 0
M  V30 1640 O 160.407 4.37588 0.211786 0
M  V30 1641 C 161.908 3.97149 1.96945 0
M  V30 1642 H 159.128 0.653428 0.152555 0
M  V30 1643 H 161.672 2.03697 -0.18103 0
M  V30 1644 H 159.827 3.367 1.91603 0
M  V30 1645 H 160.241 5.20118 0.676607 0
M  V30 1646 H 161.715 4.98393 2.37294 0
M  V30 1647 H 162.192 3.3525 2.83733 0
M  V30 1648 H 162.798 4.04458 1.31506 0
M  V30 1649 N 161.113 -0.173488 1.56642 0
M  V30 1650 C 162.362 -0.888758 1.81063 0
M  V30 1651 C 162.675 -1.83506 0.67712 0
M  V30 1652 O 163.881 -2.59254 0.806206 0
M  V30 1653 C 162.337 -1.63091 3.20826 0
M  V30 1654 C 161.945 -0.728357 4.4204 0
M  V30 1655 C 163.689 -2.33454 3.54541 0
M  V30 1656 C 161.596 -1.47062 5.72823 0
M  V30 1657 H 160.526 -0.335618 0.675186 0
M  V30 1658 H 163.177 -0.141712 1.82952 0
M  V30 1659 H 161.559 -2.42263 3.13248 0
M  V30 1660 H 162.733 0.0262449 4.60793 0
M  V30 1661 H 161.048 -0.134492 4.16183 0
M  V30 1662 H 163.645 -2.89578 4.49498 0
M  V30 1663 H 163.988 -3.08687 2.79317 0
M  V30 1664 H 164.521 -1.61227 3.63663 0
M  V30 1665 H 161.26 -0.760658 6.51072 0
M  V30 1666 H 160.78 -2.1986 5.58052 0
M  V30 1667 H 162.459 -2.01868 6.14702 0
M  V30 1668 N 162.591 -1.51276 -0.441967 0
M  V30 1669 C 163.839 -1.63392 -1.18943 0
M  V30 1670 C 164.16 -0.350159 -1.9183 0
M  V30 1671 O 163.43 0.633784 -1.85364 0
M  V30 1672 H 162.01 -0.602164 -0.442049 0
M  V30 1673 H 164.672 -1.88186 -0.507165 0
M  V30 1674 H 163.768 -2.45934 -1.92154 0
M  V30 1675 N 164.069 0.697108 -1.41344 0
M  V30 1676 C 165.016 1.81106 -1.43071 0
M  V30 1677 C 165.986 1.63632 -0.285275 0
M  V30 1678 O 167.171 1.84504 -0.486091 0
M  V30 1679 C 164.311 3.18975 -1.31715 0
M  V30 1680 C 163.424 3.47892 -2.56115 0
M  V30 1681 C 162.559 4.75367 -2.37064 0
M  V30 1682 C 161.598 4.97247 -3.56948 0
M  V30 1683 N 160.735 6.15947 -3.36977 0
M  V30 1684 H 165.575 1.78965 -2.38276 0
M  V30 1685 H 163.112 0.873975 -1.18322 0
M  V30 1686 H 165.07 3.98615 -1.23133 0
M  V30 1687 H 163.7 3.20297 -0.401183 0
M  V30 1688 H 162.752 2.62669 -2.75153 0
M  V30 1689 H 164.064 3.59962 -3.45295 0
M  V30 1690 H 163.218 5.63059 -2.25941 0
M  V30 1691 H 161.957 4.65541 -1.45338 0
M  V30 1692 H 160.962 4.08004 -3.68527 0
M  V30 1693 H 162.187 5.08934 -4.49626 0
M  V30 1694 H 160.133 6.07336 -2.47949 0
M  V30 1695 H 160.05 6.28777 -4.19732 0
M  V30 1696 H 161.318 7.06377 -3.29623 0
M  V30 1697 N 165.547 1.27147 0.931209 0
M  V30 1698 C 166.457 1.11372 2.06478 0
M  V30 1699 C 167.473 0.044645 1.73943 0
M  V30 1700 O 168.649 0.250417 1.99837 0
M  V30 1701 C 165.714 0.758838 3.38294 0
M  V30 1702 C 164.775 1.90841 3.84549 0
M  V30 1703 C 164.008 1.57036 5.10074 0
M  V30 1704 O 164.231 0.476645 5.68405 0
M  V30 1705 O 163.165 2.40839 5.51616 0
M  V30 1706 H 166.991 2.06493 2.22698 0
M  V30 1707 H 164.576 1.06301 1.04978 0
M  V30 1708 H 166.458 0.574098 4.17471 0
M  V30 1709 H 165.133 -0.162879 3.2329 0
M  V30 1710 H 164.04 2.14819 3.06274 0
M  V30 1711 H 165.373 2.81021 4.04089 0
M  V30 1712 N 167.025 -1.13721 1.09112 0
M  V30 1713 C 168.271 -1.85198 0.826414 0
M  V30 1714 C 168.604 -1.83129 -0.646319 0
M  V30 1715 O 167.879 -1.2671 -1.47563 0
M  V30 1716 C 168.162 -3.33507 1.35812 0
M  V30 1717 C 168.015 -3.44108 2.89672 0
M  V30 1718 C 169.334 -4.28838 0.989256 0
M  V30 1719 H 166.453 -0.67243 0.301675 0
M  V30 1720 H 169.095 -1.33499 1.35197 0
M  V30 1721 H 167.245 -3.77666 0.911082 0
M  V30 1722 H 168.917 -3.08684 3.428 0
M  V30 1723 H 167.16 -2.85087 3.26967 0
M  V30 1724 H 167.831 -4.48388 3.21951 0
M  V30 1725 H 170.307 -3.92734 1.37475 0
M  V30 1726 H 169.183 -5.31051 1.38838 0
M  V30 1727 H 169.444 -4.4198 -0.102924 0
M  V30 1728 N 168.503 -0.877838 -1.30888 0
M  V30 1729 C 169.752 -0.488793 -1.95688 0
M  V30 1730 C 170.065 0.965485 -1.70111 0
M  V30 1731 O 171.271 1.46104 -2.28836 0
M  V30 1732 C 169.727 -0.823201 -3.50359 0
M  V30 1733 C 169.335 -2.29477 -3.84765 0
M  V30 1734 C 171.079 -0.503009 -4.21509 0
M  V30 1735 C 168.986 -2.57118 -5.32583 0
M  V30 1736 H 167.916 -0.179062 -0.732429 0
M  V30 1737 H 170.567 -1.07183 -1.48943 0
M  V30 1738 H 168.949 -0.169331 -3.95638 0
M  V30 1739 H 170.123 -2.99236 -3.5042 0
M  V30 1740 H 168.438 -2.58178 -3.267 0
M  V30 1741 H 171.035 -0.68665 -5.30273 0
M  V30 1742 H 171.378 0.557109 -4.12555 0
M  V30 1743 H 171.911 -1.11376 -3.8189 0
M  V30 1744 H 168.65 -3.61843 -5.4658 0
M  V30 1745 H 168.17 -1.91961 -5.68253 0
M  V30 1746 H 169.849 -2.42251 -5.99936 0
M  V30 1747 N 169.982 1.44106 -0.638065 0
M  V30 1748 C 171.259 1.95453 -0.0759321 0
M  V30 1749 C 171.639 1.57984 1.40015 0
M  V30 1750 O 170.987 0.857361 2.11806 0
M  V30 1751 C 171.197 3.47655 -0.306132 0
M  V30 1752 C 172.545 4.24114 -0.203008 0
M  V30 1753 O 173.569 3.55405 -0.237871 0
M  V30 1754 O 172.428 5.46381 -0.113827 0
M  V30 1755 H 169.522 0.826797 0.0183332 0
M  V30 1756 H 172.068 1.54122 -0.710251 0
M  V30 1757 H 170.84 3.68 -1.3301 0
M  V30 1758 H 170.463 3.95949 0.361991 0
M  V30 1759 N 171.46 0.379036 1.52974 0
M  V30 1760 C 172.706 -0.206727 2.01744 0
M  V30 1761 C 173.039 -1.47314 1.26539 0
M  V30 1762 O 172.314 -1.91084 0.362903 0
M  V30 1763 C 172.597 -0.485066 3.56818 0
M  V30 1764 C 172.45 0.795919 4.42702 0
M  V30 1765 C 173.769 -1.28003 4.21074 0
M  V30 1766 H 170.888 -0.0736607 0.73331 0
M  V30 1767 H 173.53 0.506581 1.83122 0
M  V30 1768 H 171.68 -1.09272 3.72816 0
M  V30 1769 H 173.352 1.43307 4.38476 0
M  V30 1770 H 171.595 1.41344 4.10127 0
M  V30 1771 H 172.266 0.555947 5.49193 0
M  V30 1772 H 174.742 -0.765867 4.08991 0
M  V30 1773 H 173.618 -1.44352 5.29579 0
M  V30 1774 H 173.879 -2.29236 3.78026 0
M  V30 1775 N 172.938 -1.57226 0.108567 0
M  V30 1776 C 174.178 -1.96717 -0.555155 0
M  V30 1777 C 174.542 -0.990003 -1.64508 0
M  V30 1778 O 175.743 -1.2739 -2.36696 0
M  V30 1779 C 174.014 -3.40575 -1.08367 0
M  V30 1780 S 175.573 -4.02072 -1.75737 0
M  V30 1781 H 172.391 -0.687638 -0.180762 0
M  V30 1782 H 174.993 -1.94563 0.191172 0
M  V30 1783 H 173.697 -4.0945 -0.279092 0
M  V30 1784 H 173.228 -3.46356 -1.86551 0
M  V30 1785 H 175.243 -3.91977 -3.04251 0
M  V30 1786 N 174.416 0.165178 -1.56732 0
M  V30 1787 C 175.346 1.20651 -1.99914 0
M  V30 1788 C 176.327 1.45827 -0.875705 0
M  V30 1789 O 177.512 1.57057 -1.14223 0
M  V30 1790 C 174.642 2.54401 -2.36427 0
M  V30 1791 C 173.596 2.43782 -3.51787 0
M  V30 1792 C 172.922 3.82078 -3.7406 0
M  V30 1793 C 174.222 1.93732 -4.85041 0
M  V30 1794 H 175.916 0.847534 -2.87154 0
M  V30 1795 H 173.462 0.40625 -1.38151 0
M  V30 1796 H 175.415 3.27458 -2.65234 0
M  V30 1797 H 174.139 2.92098 -1.46103 0
M  V30 1798 H 172.798 1.73178 -3.23117 0
M  V30 1799 H 172.446 4.17179 -2.81017 0
M  V30 1800 H 172.146 3.7584 -4.51684 0
M  V30 1801 H 173.67 4.56712 -4.05274 0
M  V30 1802 H 175.084 2.56569 -5.12684 0
M  V30 1803 H 173.481 1.98428 -5.66345 0
M  V30 1804 H 174.551 0.891962 -4.76626 0
M  V30 1805 N 175.894 1.51508 0.433938 0
M  V30 1806 C 177.171 1.54888 1.19453 0
M  V30 1807 C 177.551 0.315154 2.08734 0
M  V30 1808 O 176.899 -0.699558 2.17528 0
M  V30 1809 C 177.109 2.86467 1.99342 0
M  V30 1810 C 178.457 3.38545 2.56267 0
M  V30 1811 O 179.481 2.88041 2.0955 0
M  V30 1812 O 178.34 4.26675 3.41483 0
M  V30 1813 H 175.434 0.622863 0.544032 0
M  V30 1814 H 177.98 1.63823 0.442732 0
M  V30 1815 H 176.752 3.67718 1.33788 0
M  V30 1816 H 176.375 2.8071 2.8158 0
M  V30 1817 N 177.372 -0.689602 1.41712 0
M  V30 1818 C 178.788 -1.00093 1.24312 0
M  V30 1819 C 178.988 -2.01036 0.136729 0
M  V30 1820 O 178.044 -2.47562 -0.496918 0
M  V30 1821 C 179.357 -1.51985 2.59463 0
M  V30 1822 C 180.905 -1.63838 2.66695 0
M  V30 1823 C 181.38 -2.1913 4.02177 0
M  V30 1824 N 182.871 -2.26483 4.04054 0
M  V30 1825 C 183.606 -2.70306 5.0569 0
M  V30 1826 N 183.102 -3.13691 6.17713 0
M  V30 1827 N 184.895 -2.69923 4.9305 0
M  V30 1828 H 177.046 -0.0210029 2.1239 0
M  V30 1829 H 179.309 -0.0718733 0.945272 0
M  V30 1830 H 179.015 -0.85269 3.41207 0
M  V30 1831 H 178.889 -2.50103 2.82362 0
M  V30 1832 H 181.276 -2.29664 1.85306 0
M  V30 1833 H 181.357 -0.642492 2.476 0
M  V30 1834 H 181.001 -1.53918 4.84016 0
M  V30 1835 H 180.931 -3.19482 4.18615 0
M  V30 1836 H 183.422 -1.95874 3.23174 0
M  V30 1837 H 183.735 -3.45773 6.9113 0
M  V30 1838 H 182.08 -3.11585 6.21241 0
M  V30 1839 H 185.271 -2.35382 4.04614 0
M  V30 1840 H 185.444 -3.03758 5.72394 0
M  V30 1841 N 178.85 -1.27639 -0.924453 0
M  V30 1842 C 180.099 -1.13549 -1.66702 0
M  V30 1843 C 180.412 0.317487 -1.93006 0
M  V30 1844 O 181.618 0.579333 -2.65247 0
M  V30 1845 C 180.074 -1.98426 -3.00259 0
M  V30 1846 C 179.682 -3.484 -2.81641 0
M  V30 1847 C 181.426 -1.92993 -3.78092 0
M  V30 1848 C 179.333 -4.25464 -4.10773 0
M  V30 1849 H 178.263 -0.421351 -0.625283 0
M  V30 1850 H 180.914 -1.52085 -1.02676 0
M  V30 1851 H 179.296 -1.52736 -3.6536 0
M  V30 1852 H 180.47 -4.01973 -2.25287 0
M  V30 1853 H 178.785 -3.55245 -2.17232 0
M  V30 1854 H 181.382 -2.47844 -4.7379 0
M  V30 1855 H 181.725 -0.904281 -4.0636 0
M  V30 1856 H 182.258 -2.36595 -3.19793 0
M  V30 1857 H 178.997 -5.28566 -3.87683 0
M  V30 1858 H 178.517 -3.76667 -4.66779 0
M  V30 1859 H 180.196 -4.34812 -4.79111 0
M  V30 1860 N 180.328 1.1314 -1.09713 0
M  V30 1861 C 181.744 1.36477 -0.827423 0
M  V30 1862 C 181.944 1.93654 0.556817 0
M  V30 1863 O 181 2.15791 1.31112 0
M  V30 1864 C 182.313 2.31334 -1.92106 0
M  V30 1865 C 183.861 2.44943 -1.94864 0
M  V30 1866 C 184.336 3.4311 -3.0338 0
M  V30 1867 N 185.827 3.50662 -3.02639 0
M  V30 1868 C 186.562 4.2651 -3.83246 0
M  V30 1869 N 186.058 5.05485 -4.73768 0
M  V30 1870 N 187.851 4.2184 -3.71493 0
M  V30 1871 H 180.002 0.743807 -1.9895 0
M  V30 1872 H 182.265 0.389823 -0.864143 0
M  V30 1873 H 181.971 1.96483 -2.91698 0
M  V30 1874 H 181.845 3.31381 -1.80184 0
M  V30 1875 H 184.232 2.79079 -0.959099 0
M  V30 1876 H 184.313 1.4481 -2.10864 0
M  V30 1877 H 183.957 3.09704 -4.02549 0
M  V30 1878 H 183.887 4.43055 -2.84622 0
M  V30 1879 H 186.378 2.94315 -2.37039 0
M  V30 1880 H 186.691 5.60675 -5.3185 0
M  V30 1881 H 185.036 5.04708 -4.77802 0
M  V30 1882 H 188.227 3.5922 -3.00131 0
M  V30 1883 H 188.4 4.80697 -4.3455 0
M  V30 1884 N 181.806 0.884767 1.30421 0
M  V30 1885 C 182.753 0.349642 2.28136 0
M  V30 1886 C 183.723 -0.560061 1.56373 0
M  V30 1887 O 184.908 -0.488524 1.8444 0
M  V30 1888 C 182.048 -0.42999 3.42411 0
M  V30 1889 C 181.161 0.508907 4.28992 0
M  V30 1890 C 180.296 -0.286301 5.30428 0
M  V30 1891 C 179.335 0.648079 6.08659 0
M  V30 1892 N 178.472 -0.111792 7.02011 0
M  V30 1893 H 183.312 1.18807 2.73293 0
M  V30 1894 H 180.849 0.597231 1.3443 0
M  V30 1895 H 182.807 -0.897923 4.07423 0
M  V30 1896 H 181.437 -1.23299 2.98324 0
M  V30 1897 H 180.489 1.09533 3.64289 0
M  V30 1898 H 181.801 1.22475 4.8353 0
M  V30 1899 H 180.955 -0.816098 6.01186 0
M  V30 1900 H 179.694 -1.03536 4.76583 0
M  V30 1901 H 178.699 1.18951 5.36778 0
M  V30 1902 H 179.924 1.39623 6.64592 0
M  V30 1903 H 177.87 -0.843395 6.50556 0
M  V30 1904 H 177.787 0.544429 7.54037 0
M  V30 1905 H 179.055 -0.622339 7.77012 0
M  V30 1906 N 183.284 -1.43765 0.645699 0
M  V30 1907 C 184.214 -2.33471 -0.0370477 0
M  V30 1908 C 185.195 -1.49042 -0.819779 0
M  V30 1909 O 186.38 -1.77726 -0.782758 0
M  V30 1910 C 183.51 -3.32311 -1.0093 0
M  V30 1911 C 182.464 -4.2667 -0.337201 0
M  V30 1912 C 181.79 -5.1549 -1.42037 0
M  V30 1913 C 183.09 -5.16657 0.765706 0
M  V30 1914 H 184.784 -2.90809 0.712069 0
M  V30 1915 H 182.33 -1.39834 0.343876 0
M  V30 1916 H 184.283 -3.9396 -1.49578 0
M  V30 1917 H 183.007 -2.73213 -1.78948 0
M  V30 1918 H 181.666 -3.66374 0.128771 0
M  V30 1919 H 181.314 -4.52735 -2.1918 0
M  V30 1920 H 181.014 -5.79438 -0.975966 0
M  V30 1921 H 182.538 -5.80012 -1.90838 0
M  V30 1922 H 183.952 -5.72158 0.361702 0
M  V30 1923 H 182.349 -5.89286 1.13413 0
M  V30 1924 H 183.419 -4.56796 1.62683 0
M  V30 1925 N 184.763 -0.387143 -1.52771 0
M  V30 1926 C 185.726 0.436939 -2.24997 0
M  V30 1927 C 186.726 0.991991 -1.26555 0
M  V30 1928 O 187.916 0.874335 -1.50669 0
M  V30 1929 C 185.048 1.61281 -3.00335 0
M  V30 1930 H 186.241 -0.195365 -2.99263 0
M  V30 1931 H 183.794 -0.139218 -1.55679 0
M  V30 1932 H 184.529 2.2826 -2.30364 0
M  V30 1933 H 184.314 1.22154 -3.72587 0
M  V30 1934 H 185.804 2.19629 -3.5518 0
M  V30 1935 N 186.241 1.57166 -0.116904 0
M  V30 1936 C 187.518 1.86645 0.585049 0
M  V30 1937 C 187.898 1.0177 1.84949 0
M  V30 1938 O 187.246 0.0960379 2.28298 0
M  V30 1939 C 187.456 3.37736 0.879507 0
M  V30 1940 C 188.804 4.06289 1.23348 0
M  V30 1941 O 189.828 3.42743 0.969836 0
M  V30 1942 O 188.687 5.18455 1.7282 0
M  V30 1943 H 185.781 0.772593 0.295007 0
M  V30 1944 H 188.327 1.69025 -0.151249 0
M  V30 1945 H 187.099 3.91296 -0.0166136 0
M  V30 1946 H 186.722 3.6078 1.67103 0
M  V30 1947 N 187.719 -0.156864 1.56817 0
M  V30 1948 C 188.667 -1.21319 1.98455 0
M  V30 1949 C 189.661 -1.45025 0.875444 0
M  V30 1950 O 190.867 -1.45435 1.0606 0
M  V30 1951 H 187.242 -0.408142 0.631605 0
M  V30 1952 H 189.213 -0.835244 2.86472 0
M  V30 1953 C 187.962 -2.54148 2.37285 0
M  V30 1954 H 187.285 -2.36733 3.22176 0
M  V30 1955 H 188.725 -3.26712 2.70251 0
M  V30 1956 C 187.184 -3.13967 1.22173 0
M  V30 1957 O 187.714 -3.98357 0.517149 0
M  V30 1958 N 185.92 -2.7327 0.988536 0
M  V30 1959 H 185.467 -2.04744 1.56326 0
M  V30 1960 H 185.425 -3.13628 0.220209 0
M  V30 1961 N 189.197 -1.51736 -0.425897 0
M  V30 1962 C 190.437 -1.66636 -1.18371 0
M  V30 1963 C 190.801 -0.379854 -1.88205 0
M  V30 1964 O 192.002 -0.404758 -2.65735 0
M  V30 1965 C 190.273 -2.84382 -2.16476 0
M  V30 1966 S 191.832 -3.19673 -3.0059 0
M  V30 1967 H 188.65 -0.586957 -0.40125 0
M  V30 1968 H 191.252 -1.89679 -0.473518 0
M  V30 1969 H 189.956 -3.76281 -1.63831 0
M  V30 1970 H 189.487 -2.63562 -2.92059 0
M  V30 1971 H 191.502 -2.66994 -4.18245 0
M  V30 1972 N 190.675 0.682077 -1.42076 0
M  V30 1973 C 191.903 1.47057 -1.4554 0
M  V30 1974 C 192.318 1.8869 -0.0645779 0
M  V30 1975 O 191.675 1.57666 0.919115 0
M  V30 1976 C 191.726 2.72442 -2.37609 0
M  V30 1977 O 191.447 2.32559 -3.71279 0
M  V30 1978 C 192.948 3.66069 -2.50017 0
M  V30 1979 H 190.168 0.452737 -0.495248 0
M  V30 1980 H 192.712 0.838695 -1.8651 0
M  V30 1981 H 190.867 3.31835 -1.9991 0
M  V30 1982 H 191.281 3.13475 -4.20516 0
M  V30 1983 H 192.755 4.50792 -3.18576 0
M  V30 1984 H 193.232 4.11476 -1.53572 0
M  V30 1985 H 193.838 3.12572 -2.88407 0
M  V30 1986 N 192.153 1.28127 0.917671 0
M  V30 1987 C 193.401 1.14825 1.66312 0
M  V30 1988 C 193.722 -0.304379 1.9261 0
M  V30 1989 O 192.992 -1.21149 1.53947 0
M  V30 1990 H 191.572 0.421953 0.616413 0
M  V30 1991 H 194.234 1.608 1.10134 0
M  V30 1992 H 193.33 1.68489 2.62712 0
M  V30 1993 N 193.631 -1.12557 1.10312 0
M  V30 1994 C 194.561 -2.20341 0.772798 0
M  V30 1995 C 195.542 -1.68198 -0.25365 0
M  V30 1996 O 196.727 -1.93831 -0.119699 0
M  V30 1997 C 193.857 -3.46709 0.202443 0
M  V30 1998 C 192.811 -4.11996 1.15943 0
M  V30 1999 C 192.137 -5.328 0.450345 0
M  V30 2000 C 193.437 -4.5828 2.50552 0
M  V30 2001 H 195.131 -2.48229 1.674 0
M  V30 2002 H 192.677 -1.19308 0.806326 0
M  V30 2003 H 194.63 -4.2138 -0.0407752 0
M  V30 2004 H 193.354 -3.18245 -0.734001 0
M  V30 2005 H 192.013 -3.39305 1.38808 0
M  V30 2006 H 191.661 -5.00602 -0.490531 0
M  V30 2007 H 191.361 -5.7743 1.08851 0
M  V30 2008 H 192.885 -6.10219 0.215642 0
M  V30 2009 H 194.299 -5.2433 2.31843 0
M  V30 2010 H 192.696 -5.13683 3.10242 0
M  V30 2011 H 193.766 -3.72329 3.10643 0
M  V30 2012 N 195.109 -0.891671 -1.2995 0
M  V30 2013 C 196.041 -0.320695 -2.26945 0
M  V30 2014 C 197.054 0.528497 -1.53983 0
M  V30 2015 O 198.243 0.346959 -1.75096 0
M  V30 2016 C 195.343 0.562066 -3.34207 0
M  V30 2017 C 194.516 -0.259576 -4.36629 0
M  V30 2018 C 193.575 0.554739 -5.23268 0
M  V30 2019 O 192.601 -0.0249311 -5.69195 0
M  V30 2020 N 193.803 1.8625 -5.4981 0
M  V30 2021 H 196.568 -1.15432 -2.76578 0
M  V30 2022 H 194.129 -0.755336 -1.432 0
M  V30 2023 H 196.121 1.11304 -3.89093 0
M  V30 2024 H 194.691 1.29637 -2.84452 0
M  V30 2025 H 193.911 -0.991986 -3.81514 0
M  V30 2026 H 195.199 -0.822564 -5.02107 0
M  V30 2027 H 194.597 2.35628 -5.14292 0
M  V30 2028 H 193.154 2.36078 -6.07545 0
M  V30 2029 N 196.587 1.43421 -0.653314 0
M  V30 2030 C 197.835 2.01414 -0.166415 0
M  V30 2031 C 198.156 1.51803 1.22397 0
M  V30 2032 O 197.426 0.730693 1.81763 0
M  V30 2033 H 196.006 0.744703 -0.0585319 0
M  V30 2034 H 198.668 1.75629 -0.845003 0
M  V30 2035 H 197.764 3.11734 -0.151111 0
M  V30 2036 N 198.065 0.39524 1.52563 0
M  V30 2037 C 199.312 -0.185044 2.01653 0
M  V30 2038 C 199.64 -1.46317 1.28146 0
M  V30 2039 O 198.895 -1.9213 0.372074 0
M  V30 2040 C 199.194 -0.493444 3.53977 0
M  V30 2041 C 198.86 0.69384 4.4553 0
M  V30 2042 C 197.522 1.01954 4.70275 0
M  V30 2043 C 199.874 1.48785 4.99512 0
M  V30 2044 C 197.202 2.14069 5.46252 0
M  V30 2045 C 199.554 2.59965 5.76716 0
M  V30 2046 C 198.218 2.93037 5.99738 0
M  V30 2047 H 197.488 -0.0677123 0.7379 0
M  V30 2048 H 200.135 0.533807 1.8391 0
M  V30 2049 H 198.44 -1.29369 3.69825 0
M  V30 2050 H 200.137 -0.955163 3.89458 0
M  V30 2051 H 196.727 0.429987 4.26438 0
M  V30 2052 H 200.911 1.24946 4.80315 0
M  V30 2053 H 196.167 2.40056 5.62302 0
M  V30 2054 H 200.341 3.21887 6.17545 0
M  V30 2055 H 197.968 3.8003 6.58393 0
M  V30 2056 N 199.544 -1.57102 0.125237 0
M  V30 2057 C 200.474 -2.18659 -0.819174 0
M  V30 2058 C 201.455 -1.12843 -1.27281 0
M  V30 2059 O 202.64 -1.41104 -1.33429 0
M  V30 2060 C 199.77 -2.79096 -2.06695 0
M  V30 2061 C 198.724 -3.90548 -1.75088 0
M  V30 2062 C 198.05 -4.37821 -3.06948 0
M  V30 2063 C 199.35 -5.12356 -1.01435 0
M  V30 2064 H 201.044 -2.9783 -0.306202 0
M  V30 2065 H 198.59 -1.4326 -0.145839 0
M  V30 2066 H 200.543 -3.2082 -2.73226 0
M  V30 2067 H 199.267 -1.97223 -2.60328 0
M  V30 2068 H 197.926 -3.49409 -1.10944 0
M  V30 2069 H 197.574 -3.52799 -3.58527 0
M  V30 2070 H 197.274 -5.12982 -2.86571 0
M  V30 2071 H 198.798 -4.822 -3.74587 0
M  V30 2072 H 200.212 -5.5106 -1.58132 0
M  V30 2073 H 198.609 -5.9314 -0.911319 0
M  V30 2074 H 199.679 -4.849 -0.00218681 0
M  V30 2075 N 201.022 0.148545 -1.56898 0
M  V30 2076 C 201.955 1.21293 -1.93296 0
M  V30 2077 C 202.933 1.41637 -0.798599 0
M  V30 2078 O 204.117 1.56275 -1.05406 0
M  V30 2079 C 201.244 2.5721 -2.20365 0
M  V30 2080 C 200.29 2.53469 -3.4301 0
M  V30 2081 S 201.123 2.00315 -4.96623 0
M  V30 2082 C 202.279 3.37964 -5.26812 0
M  V30 2083 H 202.512 0.902393 -2.83274 0
M  V30 2084 H 200.045 0.354094 -1.50285 0
M  V30 2085 H 202.003 3.35427 -2.36641 0
M  V30 2086 H 200.664 2.85454 -1.31054 0
M  V30 2087 H 199.857 3.53518 -3.59223 0
M  V30 2088 H 199.459 1.83359 -3.25968 0
M  V30 2089 H 201.751 4.34066 -5.20185 0
M  V30 2090 H 202.694 3.26606 -6.28279 0
M  V30 2091 H 203.102 3.35028 -4.54331 0
M  V30 2092 N 202.5 1.5196 0.417844 0
M  V30 2093 C 203.747 1.65591 1.16559 0
M  V30 2094 C 204.075 0.381565 1.90721 0
M  V30 2095 O 203.33 -0.635156 1.85106 0
M  V30 2096 C 203.629 2.82269 2.19223 0
M  V30 2097 C 203.295 4.20819 1.61933 0
M  V30 2098 C 201.957 4.58506 1.46033 0
M  V30 2099 C 204.309 5.07196 1.20008 0
M  V30 2100 C 201.637 5.80257 0.867113 0
M  V30 2101 C 203.989 6.29544 0.621086 0
M  V30 2102 C 202.653 6.65987 0.449144 0
M  V30 2103 H 201.923 0.605939 0.42652 0
M  V30 2104 H 204.57 1.86041 0.45397 0
M  V30 2105 H 202.875 2.56118 2.96498 0
M  V30 2106 H 204.572 2.90012 2.76936 0
M  V30 2107 H 201.162 3.91116 1.7529 0
M  V30 2108 H 205.346 4.7867 1.31105 0
M  V30 2109 H 200.602 6.07124 0.721833 0
M  V30 2110 H 204.776 6.95805 0.287798 0
M  V30 2111 H 202.403 7.60199 -0.012632 0
M  V30 2112 N 203.978 -0.674533 1.42435 0
M  V30 2113 C 205.203 -1.46784 1.46524 0
M  V30 2114 C 205.628 -1.87938 0.078066 0
M  V30 2115 O 204.986 -1.56014 -0.92354 0
M  V30 2116 C 205.034 -2.69307 2.39805 0
M  V30 2117 O 204.138 -3.67587 1.86959 0
M  V30 2118 H 203.479 -0.440959 0.496439 0
M  V30 2119 H 206.009 -0.827326 1.87127 0
M  V30 2120 H 206.019 -3.17374 2.56393 0
M  V30 2121 H 204.694 -2.38692 3.40586 0
M  V30 2122 H 203.271 -3.2662 1.79927 0
M  V30 2123 N 205.456 -1.28612 -0.910864 0
M  V30 2124 C 206.419 -1.12803 -1.9952 0
M  V30 2125 C 207.419 -0.0668264 -1.60661 0
M  V30 2126 O 208.609 -0.312847 -1.71368 0
M  V30 2127 C 205.741 -0.72254 -3.33155 0
M  V30 2128 H 206.934 -2.09109 -2.14973 0
M  V30 2129 H 204.487 -1.11639 -1.09391 0
M  V30 2130 H 205.222 0.241152 -3.23402 0
M  V30 2131 H 205.007 -1.48916 -3.62721 0
M  V30 2132 H 206.497 -0.634666 -4.12749 0
M  V30 2133 N 206.934 1.1197 -1.10907 0
M  V30 2134 C 208.18 1.8386 -0.855773 0
M  V30 2135 C 208.513 1.84134 0.617103 0
M  V30 2136 O 207.788 1.29041 1.45529 0
M  V30 2137 C 208.071 3.31305 -1.411 0
M  V30 2138 C 207.924 3.39456 -2.9511 0
M  V30 2139 C 209.243 4.2721 -1.05736 0
M  V30 2140 H 206.362 0.667545 -0.312334 0
M  V30 2141 H 209.004 1.31331 -1.37303 0
M  V30 2142 H 207.154 3.76169 -0.97105 0
M  V30 2143 H 208.826 3.03191 -3.47668 0
M  V30 2144 H 207.069 2.79849 -3.31462 0
M  V30 2145 H 207.74 4.43209 -3.29044 0
M  V30 2146 H 210.216 3.90497 -1.43706 0
M  V30 2147 H 209.092 5.28775 -1.47269 0
M  V30 2148 H 209.353 4.42088 0.0325958 0
M  V30 2149 N 208.412 0.89855 1.29475 0
M  V30 2150 C 209.66 0.522847 1.9522 0
M  V30 2151 C 209.981 -0.93371 1.71192 0
M  V30 2152 O 209.251 -1.65823 1.04305 0
M  V30 2153 H 207.831 0.190366 0.722336 0
M  V30 2154 H 210.493 1.14459 1.5775 0
M  V30 2155 H 209.589 0.704476 3.04045 0
M  V30 2156 N 209.89 -1.43072 0.660911 0
M  V30 2157 C 211.138 -2.01323 0.177094 0
M  V30 2158 C 211.459 -1.5245 -1.2159 0
M  V30 2159 O 210.729 -0.740322 -1.81373 0
M  V30 2160 H 209.309 -0.744382 0.0624804 0
M  V30 2161 H 211.971 -1.75179 0.854305 0
M  V30 2162 H 211.067 -3.11649 0.167641 0
M  V30 2163 N 211.368 -0.403325 -1.52352 0
M  V30 2164 C 212.616 0.174003 -2.0135 0
M  V30 2165 C 212.937 1.46139 -1.29106 0
M  V30 2166 O 212.207 1.91448 -0.415253 0
M  V30 2167 H 210.787 0.0672911 -0.743963 0
M  V30 2168 H 213.449 -0.538235 -1.87321 0
M  V30 2169 H 212.545 0.374254 -3.09848 0
M  V30 2170 N 212.846 1.57033 -0.133567 0
M  V30 2171 C 214.074 2.00044 0.528195 0
M  V30 2172 C 214.489 1.01349 1.59291 0
M  V30 2173 O 213.846 0.00848369 1.82498 0
M  V30 2174 C 213.897 3.43018 1.1411 0
M  V30 2175 O 213.618 4.37939 0.11892 0
M  V30 2176 C 215.119 4.01237 1.88477 0
M  V30 2177 H 212.339 0.656517 0.138661 0
M  V30 2178 H 214.883 2.03267 -0.224196 0
M  V30 2179 H 213.038 3.40688 1.84418 0
M  V30 2180 H 213.452 5.21436 0.56613 0
M  V30 2181 H 214.926 5.03314 2.26669 0
M  V30 2182 H 215.403 3.41193 2.76558 0
M  V30 2183 H 216.009 4.07156 1.22898 0
M  V30 2184 N 214.325 -0.140222 1.56975 0
M  V30 2185 C 215.573 -0.850005 1.83356 0
M  V30 2186 C 215.894 -1.81399 0.71551 0
M  V30 2187 O 215.164 -1.94136 -0.262294 0
M  V30 2188 H 213.744 -0.316886 0.676456 0
M  V30 2189 H 216.406 -0.132608 1.94448 0
M  V30 2190 H 215.502 -1.40814 2.78528 0
M  V30 2191 N 215.803 -1.52179 -0.40978 0
M  V30 2192 C 217.028 -1.70347 -1.18308 0
M  V30 2193 C 217.453 -0.411887 -1.83535 0
M  V30 2194 O 216.811 0.630587 -1.6998 0
M  V30 2195 C 216.859 -2.83977 -2.22238 0
M  V30 2196 O 215.963 -2.495 -3.28365 0
M  V30 2197 H 215.304 -0.567103 -0.345384 0
M  V30 2198 H 217.834 -1.98879 -0.480445 0
M  V30 2199 H 217.844 -3.0887 -2.66577 0
M  V30 2200 H 216.519 -3.77685 -1.74146 0
M  V30 2201 H 215.096 -2.35277 -2.89308 0
M  V30 2202 N 217.281 0.66697 -1.42791 0
M  V30 2203 C 218.529 1.42417 -1.43394 0
M  V30 2204 C 218.85 1.94925 -0.0542373 0
M  V30 2205 O 218.12 1.73564 0.908415 0
M  V30 2206 H 216.7 0.528515 -0.527902 0
M  V30 2207 H 219.362 0.787562 -1.78279 0
M  V30 2208 H 218.458 2.27333 -2.13837 0
M  V30 2209 N 218.759 1.29093 0.90403 0
M  V30 2210 C 220.006 1.16813 1.65411 0
M  V30 2211 C 220.334 -0.28128 1.92455 0
M  V30 2212 O 219.589 -1.22006 1.53013 0
M  V30 2213 C 219.888 1.92224 3.01305 0
M  V30 2214 C 219.554 3.41968 2.93885 0
M  V30 2215 C 218.216 3.82807 2.91569 0
M  V30 2216 C 220.568 4.37409 2.83413 0
M  V30 2217 C 217.896 5.1741 2.76594 0
M  V30 2218 C 220.248 5.72097 2.69977 0
M  V30 2219 C 218.912 6.12199 2.66024 0
M  V30 2220 H 218.182 0.42745 0.605283 0
M  V30 2221 H 220.829 1.59981 1.05254 0
M  V30 2222 H 219.134 1.41635 3.65304 0
M  V30 2223 H 220.831 1.80131 3.58265 0
M  V30 2224 H 217.421 3.09504 2.96488 0
M  V30 2225 H 221.605 4.06813 2.84283 0
M  V30 2226 H 216.861 5.47596 2.71935 0
M  V30 2227 H 221.035 6.45704 2.60844 0
M  V30 2228 H 218.662 7.16448 2.54178 0
M  V30 2229 N 220.237 -1.11381 1.11499 0
M  V30 2230 C 221.485 -1.8277 0.862524 0
M  V30 2231 C 221.806 -1.85097 -0.613534 0
M  V30 2232 O 221.076 -1.32198 -1.4457 0
M  V30 2233 H 219.656 -0.676823 0.316101 0
M  V30 2234 H 222.318 -1.34816 1.4075 0
M  V30 2235 H 221.414 -2.86614 1.23527 0
M  V30 2236 N 221.715 -0.905404 -1.28997 0
M  V30 2237 C 222.955 -0.541232 -1.97104 0
M  V30 2238 C 223.319 0.896841 -1.69767 0
M  V30 2239 O 224.52 1.36817 -2.31375 0
M  V30 2240 C 222.791 -0.832134 -3.47578 0
M  V30 2241 S 224.35 -0.573127 -4.35041 0
M  V30 2242 H 221.168 -0.200576 -0.682122 0
M  V30 2243 H 223.77 -1.16906 -1.56694 0
M  V30 2244 H 222.474 -1.87687 -3.64968 0
M  V30 2245 H 222.005 -0.192636 -3.92928 0
M  V30 2246 H 224.02 0.579297 -4.92807 0
M  V30 2247 N 223.193 1.4272 -0.668489 0
M  V30 2248 C 224.123 2.335 -0.000100175 0
M  V30 2249 C 225.104 1.50328 0.795964 0
M  V30 2250 O 226.289 1.78949 0.754385 0
M  V30 2251 C 223.419 3.33874 0.956302 0
M  V30 2252 C 222.373 4.27152 0.269278 0
M  V30 2253 C 221.699 5.17684 1.33818 0
M  V30 2254 C 222.999 5.15373 -0.847805 0
M  V30 2255 H 224.693 2.89639 -0.758244 0
M  V30 2256 H 222.239 1.39269 -0.366079 0
M  V30 2257 H 224.192 3.9629 1.43292 0
M  V30 2258 H 222.916 2.76025 1.74579 0
M  V30 2259 H 221.575 3.66123 -0.187042 0
M  V30 2260 H 221.223 4.56165 2.1195 0
M  V30 2261 H 220.923 5.80918 0.883659 0
M  V30 2262 H 222.447 5.82974 1.81586 0
M  V30 2263 H 223.861 5.7151 -0.452681 0
M  V30 2264 H 222.258 5.87407 -1.22773 0
M  V30 2265 H 223.328 4.5415 -1.69929 0
M  V30 2266 N 224.671 0.411399 1.52136 0
M  V30 2267 C 225.604 -0.457614 2.23565 0
M  V30 2268 C 226.582 -1.04613 1.24478 0
M  V30 2269 O 227.766 -1.09356 1.53536 0
M  V30 2270 C 224.893 -1.6354 2.96602 0
M  V30 2271 C 223.939 -1.17005 4.10137 0
M  V30 2272 S 224.772 -0.13333 5.35334 0
M  V30 2273 C 225.928 -1.31638 6.119 0
M  V30 2274 H 226.161 0.148883 2.96927 0
M  V30 2275 H 223.694 0.195713 1.53155 0
M  V30 2276 H 225.652 -2.31074 3.39286 0
M  V30 2277 H 224.313 -2.21324 2.22878 0
M  V30 2278 H 223.506 -2.05005 4.60422 0
M  V30 2279 H 223.108 -0.573319 3.6958 0
M  V30 2280 H 225.4 -2.23957 6.39413 0
M  V30 2281 H 226.343 -0.854014 7.02931 0
M  V30 2282 H 226.751 -1.54321 5.42997 0
M  V30 2283 N 226.149 -1.5696 0.141893 0
M  V30 2284 C 227.079 -2.19516 -0.795936 0
M  V30 2285 C 228.06 -1.14187 -1.26077 0
M  V30 2286 O 229.245 -1.42511 -1.31925 0
M  V30 2287 C 226.375 -2.81272 -2.03723 0
M  V30 2288 C 225.329 -3.92384 -1.70936 0
M  V30 2289 C 224.655 -4.41052 -3.02287 0
M  V30 2290 C 225.955 -5.13403 -0.959954 0
M  V30 2291 H 227.649 -2.98138 -0.274596 0
M  V30 2292 H 225.195 -1.43406 -0.130636 0
M  V30 2293 H 227.148 -3.237 -2.69808 0
M  V30 2294 H 225.872 -1.99973 -2.58221 0
M  V30 2295 H 224.531 -3.50566 -1.07232 0
M  V30 2296 H 224.179 -3.56582 -3.54765 0
M  V30 2297 H 223.879 -5.15993 -2.81114 0
M  V30 2298 H 225.403 -4.86146 -3.69451 0
M  V30 2299 H 226.817 -5.52706 -1.52279 0
M  V30 2300 H 225.214 -5.94073 -0.848357 0
M  V30 2301 H 226.284 -4.84875 0.0492434 0
M  V30 2302 N 227.627 0.131896 -1.57047 0
M  V30 2303 C 228.537 1.1815 -2.02676 0
M  V30 2304 C 229.553 1.46113 -0.944824 0
M  V30 2305 O 230.729 1.57485 -1.25541 0
M  V30 2306 C 227.794 2.49139 -2.41103 0
M  V30 2307 C 226.855 2.28688 -3.63318 0
M  V30 2308 C 226.088 3.53431 -3.99903 0
M  V30 2309 O 226.311 4.60223 -3.36973 0
M  V30 2310 O 225.245 3.45198 -4.93074 0
M  V30 2311 H 229.071 0.824069 -2.92306 0
M  V30 2312 H 226.656 0.341745 -1.45439 0
M  V30 2313 H 228.538 3.26338 -2.66611 0
M  V30 2314 H 227.213 2.84382 -1.54624 0
M  V30 2315 H 226.12 1.4939 -3.42977 0
M  V30 2316 H 227.453 1.98355 -4.50462 0
M  V30 2317 N 229.106 1.52395 0.401703 0
M  V30 2318 C 230.522 1.41363 0.740864 0
M  V30 2319 C 230.722 0.523982 1.94568 0
M  V30 2320 O 229.778 -0.00741204 2.52499 0
M  V30 2321 C 231.091 2.84011 0.987847 0
M  V30 2322 C 232.639 2.93404 1.09011 0
M  V30 2323 C 233.114 4.37036 1.3698 0
M  V30 2324 N 234.605 4.40304 1.43829 0
M  V30 2325 C 235.34 5.48508 1.67112 0
M  V30 2326 N 234.836 6.66819 1.87949 0
M  V30 2327 N 236.629 5.36034 1.69187 0
M  V30 2328 H 228.78 2.08765 -0.391262 0
M  V30 2329 H 231.043 0.941265 -0.112798 0
M  V30 2330 H 230.749 3.51265 0.174835 0
M  V30 2331 H 230.623 3.25502 1.906 0
M  V30 2332 H 233.01 2.26325 1.8937 0
M  V30 2333 H 233.091 2.55359 0.15015 0
M  V30 2334 H 232.735 5.04676 0.571353 0
M  V30 2335 H 232.665 4.72623 2.3224 0
M  V30 2336 H 235.156 3.55024 1.29486 0
M  V30 2337 H 235.469 7.45063 2.05185 0
M  V30 2338 H 233.814 6.6987 1.85199 0
M  V30 2339 H 237.005 4.42579 1.52451 0
M  V30 2340 H 237.178 6.20434 1.86993 0
M  V30 2341 N 230.584 -0.659388 1.43143 0
M  V30 2342 C 231.514 -1.78422 1.50625 0
M  V30 2343 C 232.495 -1.66216 0.361443 0
M  V30 2344 O 233.68 -1.85404 0.577834 0
M  V30 2345 C 230.81 -3.16815 1.42287 0
M  V30 2346 C 229.764 -3.43777 2.54954 0
M  V30 2347 C 229.09 -4.81905 2.31671 0
M  V30 2348 C 230.39 -3.39134 3.97222 0
M  V30 2349 H 232.084 -1.72417 2.44771 0
M  V30 2350 H 229.63 -0.828084 1.17808 0
M  V30 2351 H 231.583 -3.95253 1.46127 0
M  V30 2352 H 230.307 -3.23534 0.446435 0
M  V30 2353 H 228.966 -2.67707 2.50457 0
M  V30 2354 H 228.614 -4.85294 1.32284 0
M  V30 2355 H 228.314 -5.00906 3.07192 0
M  V30 2356 H 229.838 -5.62609 2.37284 0
M  V30 2357 H 231.252 -4.07518 4.03239 0
M  V30 2358 H 229.649 -3.69671 4.72719 0
M  V30 2359 H 230.719 -2.37426 4.22797 0
M  V30 2360 N 232.062 -1.29571 -0.897171 0
M  V30 2361 C 233.287 -1.20705 -1.68656 0
M  V30 2362 C 233.712 0.228582 -1.86706 0
M  V30 2363 O 233.07 1.16494 -1.3892 0
M  V30 2364 C 233.118 -1.9282 -3.04717 0
M  V30 2365 O 232.222 -1.24697 -3.93096 0
M  V30 2366 H 231.563 -0.418126 -0.515816 0
M  V30 2367 H 234.093 -1.71183 -1.12061 0
M  V30 2368 H 234.103 -2.01372 -3.54843 0
M  V30 2369 H 232.778 -2.97239 -2.90899 0
M  V30 2370 H 231.355 -1.2442 -3.51531 0
M  V30 2371 N 233.54 1.10788 -1.12088 0
M  V30 2372 C 234.786 1.82942 -0.875226 0
M  V30 2373 C 235.119 1.84779 0.597538 0
M  V30 2374 O 234.394 1.30578 1.44152 0
M  V30 2375 C 234.677 3.29789 -1.44606 0
M  V30 2376 C 234.53 3.36307 -2.98693 0
M  V30 2377 C 235.849 4.26064 -1.10261 0
M  V30 2378 H 232.968 0.664195 -0.319397 0
M  V30 2379 H 235.61 1.29867 -1.38689 0
M  V30 2380 H 233.76 3.75118 -1.01089 0
M  V30 2381 H 235.432 2.99487 -3.50864 0
M  V30 2382 H 233.675 2.76318 -3.34411 0
M  V30 2383 H 234.346 4.39694 -3.33726 0
M  V30 2384 H 236.822 3.88951 -1.4784 0
M  V30 2385 H 235.698 5.27183 -1.52869 0
M  V30 2386 H 235.959 4.42098 -0.0142953 0
M  V30 2387 N 235.018 0.912232 1.28515 0
M  V30 2388 C 236.295 0.463597 1.90027 0
M  V30 2389 C 236.675 -1.05753 1.82701 0
M  V30 2390 O 236.023 -1.90492 1.26194 0
M  V30 2391 C 236.233 0.992253 3.34597 0
M  V30 2392 C 237.581 1.04344 4.11579 0
M  V30 2393 O 238.605 0.94079 3.43551 0
M  V30 2394 O 237.464 1.1995 5.33174 0
M  V30 2395 H 234.558 0.146666 0.813891 0
M  V30 2396 H 237.104 1.00292 1.36893 0
M  V30 2397 H 235.876 2.03623 3.34146 0
M  V30 2398 H 235.499 0.433672 3.95228 0
M  V30 2399 N 236.496 -1.42363 0.676048 0
M  V30 2400 C 237.726 -2.05561 0.206967 0
M  V30 2401 C 238.134 -1.50887 -1.14148 0
M  V30 2402 O 237.477 -0.643933 -1.72044 0
M  V30 2403 C 237.539 -3.5944 0.0659508 0
M  V30 2404 C 237.203 -4.36812 1.34331 0
M  V30 2405 C 238.2 -4.67383 2.27704 0
M  V30 2406 C 235.885 -4.76429 1.59125 0
M  V30 2407 C 237.879 -5.36509 3.44147 0
M  V30 2408 C 235.566 -5.45294 2.75857 0
M  V30 2409 C 236.564 -5.75259 3.68193 0
M  V30 2410 O 236.252 -6.42712 4.82883 0
M  V30 2411 H 235.984 -0.668872 0.0979084 0
M  V30 2412 H 238.538 -1.83467 0.923531 0
M  V30 2413 H 236.768 -3.80197 -0.706204 0
M  V30 2414 H 238.457 -4.0427 -0.363418 0
M  V30 2415 H 239.223 -4.37275 2.09799 0
M  V30 2416 H 235.102 -4.52498 0.881258 0
M  V30 2417 H 238.646 -5.59814 4.16238 0
M  V30 2418 H 234.543 -5.7482 2.93688 0
M  V30 2419 H 235.311 -6.61204 4.82444 0
M  V30 2420 N 237.974 -0.419461 -1.51915 0
M  V30 2421 C 239.222 0.152637 -2.01523 0
M  V30 2422 C 239.543 1.44762 -1.30649 0
M  V30 2423 O 238.813 1.90997 -0.435535 0
M  V30 2424 H 237.393 0.0593966 -0.744635 0
M  V30 2425 H 240.055 -0.558073 -1.86739 0
M  V30 2426 H 239.151 0.341369 -3.10227 0
M  V30 2427 N 239.452 1.56882 -0.150215 0
M  V30 2428 C 240.399 2.16922 0.788244 0
M  V30 2429 C 241.369 1.10303 1.24187 0
M  V30 2430 O 242.554 1.38359 1.31383 0
M  V30 2431 C 239.694 2.79754 2.02068 0
M  V30 2432 C 238.807 4.00775 1.61257 0
M  V30 2433 C 237.942 4.51595 2.79705 0
M  V30 2434 C 236.981 5.65074 2.35282 0
M  V30 2435 N 236.118 6.10499 3.4675 0
M  V30 2436 H 240.958 2.96779 0.269444 0
M  V30 2437 H 238.495 1.46599 0.12128 0
M  V30 2438 H 240.453 3.14329 2.74323 0
M  V30 2439 H 239.083 2.02536 2.51354 0
M  V30 2440 H 238.135 3.72158 0.787553 0
M  V30 2441 H 239.447 4.82978 1.24633 0
M  V30 2442 H 238.601 4.88242 3.60145 0
M  V30 2443 H 237.34 3.68406 3.19576 0
M  V30 2444 H 236.345 5.28 1.53283 0
M  V30 2445 H 237.57 6.50052 1.96493 0
M  V30 2446 H 235.516 5.30243 3.86236 0
M  V30 2447 H 235.433 6.87637 3.14152 0
M  V30 2448 H 236.701 6.51791 4.27537 0
M  V30 2449 N 240.93 -0.123565 1.57115 0
M  V30 2450 C 241.877 -1.15177 2.00007 0
M  V30 2451 C 242.847 -1.41403 0.871454 0
M  V30 2452 O 244.032 -1.53346 1.13533 0
M  V30 2453 C 241.172 -2.47436 2.40561 0
M  V30 2454 C 240.285 -2.28184 3.66819 0
M  V30 2455 C 239.42 -3.53641 3.96373 0
M  V30 2456 C 238.459 -3.29528 5.15827 0
M  V30 2457 N 237.596 -4.47175 5.41275 0
M  V30 2458 H 242.436 -0.779008 2.87638 0
M  V30 2459 H 239.973 -0.373166 1.42288 0
M  V30 2460 H 241.931 -3.24584 2.62109 0
M  V30 2461 H 240.561 -2.82614 1.55978 0
M  V30 2462 H 239.613 -1.41976 3.52912 0
M  V30 2463 H 240.925 -2.0634 4.5412 0
M  V30 2464 H 240.079 -4.39209 4.18545 0
M  V30 2465 H 238.818 -3.78512 3.07538 0
M  V30 2466 H 237.823 -2.42349 4.93505 0
M  V30 2467 H 239.048 -3.06031 6.06236 0
M  V30 2468 H 236.994 -4.72175 4.55397 0
M  V30 2469 H 236.911 -4.28419 6.22891 0
M  V30 2470 H 238.179 -5.3389 5.67963 0
M  V30 2471 N 242.408 -1.52605 -0.393616 0
M  V30 2472 C 243.633 -1.71592 -1.16495 0
M  V30 2473 C 244.058 -0.43133 -1.83088 0
M  V30 2474 O 243.416 0.612523 -1.7064 0
M  V30 2475 C 243.464 -2.86318 -2.19213 0
M  V30 2476 O 242.568 -2.52969 -3.257 0
M  V30 2477 H 241.909 -0.570734 -0.33935 0
M  V30 2478 H 244.439 -1.99377 -0.459324 0
M  V30 2479 H 244.449 -3.1168 -2.63286 0
M  V30 2480 H 243.124 -3.79511 -1.7013 0
M  V30 2481 H 241.701 -2.38332 -2.86797 0
M  V30 2482 N 243.887 0.651787 -1.4349 0
M  V30 2483 C 244.834 1.76462 -1.4876 0
M  V30 2484 C 245.804 1.62641 -0.337189 0
M  V30 2485 O 246.989 1.82864 -0.544544 0
M  V30 2486 C 244.129 3.14623 -1.41796 0
M  V30 2487 C 243.242 3.39568 -2.67053 0
M  V30 2488 C 242.377 4.67585 -2.52068 0
M  V30 2489 C 241.416 4.85639 -3.72587 0
M  V30 2490 N 240.553 6.04915 -3.56402 0
M  V30 2491 H 245.393 1.71293 -2.43849 0
M  V30 2492 H 242.93 0.835889 -1.21043 0
M  V30 2493 H 244.888 3.94496 -1.35753 0
M  V30 2494 H 243.518 3.18859 -0.50288 0
M  V30 2495 H 242.57 2.53783 -2.8337 0
M  V30 2496 H 243.882 3.48795 -3.56572 0
M  V30 2497 H 243.036 5.55586 -2.4374 0
M  V30 2498 H 241.775 4.60681 -1.60075 0
M  V30 2499 H 240.78 3.96073 -3.81321 0
M  V30 2500 H 242.005 4.94372 -4.65589 0
M  V30 2501 H 239.951 5.9914 -2.67146 0
M  V30 2502 H 239.868 6.15106 -4.39524 0
M  V30 2503 H 241.136 6.95533 -3.51929 0
M  V30 2504 N 245.365 1.30045 0.890287 0
M  V30 2505 C 246.295 1.18541 2.01172 0
M  V30 2506 C 247.276 0.0773356 1.69924 0
M  V30 2507 O 248.461 0.25845 1.92473 0
M  V30 2508 C 245.591 0.870941 3.36202 0
M  V30 2509 C 244.545 1.93637 3.81692 0
M  V30 2510 C 243.871 1.475 5.13953 0
M  V30 2511 C 245.171 3.34666 4.00994 0
M  V30 2512 H 246.865 2.12359 2.11054 0
M  V30 2513 H 244.411 1.02238 1.01407 0
M  V30 2514 H 246.364 0.777141 4.14172 0
M  V30 2515 H 245.088 -0.102926 3.26438 0
M  V30 2516 H 243.747 2.01972 3.05946 0
M  V30 2517 H 243.395 0.489551 5.00612 0
M  V30 2518 H 243.095 2.1876 5.4536 0
M  V30 2519 H 244.619 1.39489 5.94454 0
M  V30 2520 H 246.033 3.2912 4.69417 0
M  V30 2521 H 244.43 4.03966 4.43769 0
M  V30 2522 H 245.5 3.76949 3.05021 0
M  V30 2523 N 246.843 -1.10192 1.12674 0
M  V30 2524 C 247.791 -2.18694 0.792196 0
M  V30 2525 C 248.785 -1.67938 -0.222058 0
M  V30 2526 O 249.991 -1.79822 -0.0800074 0
M  V30 2527 H 246.366 -0.713223 0.238364 0
M  V30 2528 H 248.337 -2.44149 1.71564 0
M  V30 2529 C 247.086 -3.46682 0.265859 0
M  V30 2530 H 246.409 -3.86101 1.03761 0
M  V30 2531 H 247.849 -4.23942 0.0701128 0
M  V30 2532 C 246.308 -3.21506 -1.00675 0
M  V30 2533 O 246.838 -3.43408 -2.08408 0
M  V30 2534 N 245.044 -2.75158 -0.934692 0
M  V30 2535 H 244.591 -2.57535 -0.0578604 0
M  V30 2536 H 244.549 -2.58691 -1.7868 0
M  V30 2537 N 248.321 -0.919034 -1.28029 0
M  V30 2538 C 249.568 -0.554934 -1.94748 0
M  V30 2539 C 249.896 0.90231 -1.72304 0
M  V30 2540 O 249.151 1.65767 -1.04018 0
M  V30 2541 C 249.45 -0.816855 -3.4794 0
M  V30 2542 C 249.116 -2.25448 -3.90492 0
M  V30 2543 C 247.778 -2.64752 -4.01821 0
M  V30 2544 C 250.13 -3.18977 -4.12193 0
M  V30 2545 C 247.458 -3.96727 -4.32232 0
M  V30 2546 C 249.81 -4.50523 -4.44086 0
M  V30 2547 C 248.474 -4.89673 -4.53626 0
M  V30 2548 H 247.744 -0.203065 -0.712633 0
M  V30 2549 H 250.391 -1.16136 -1.52265 0
M  V30 2550 H 248.696 -0.127677 -3.91592 0
M  V30 2551 H 250.393 -0.514238 -3.97689 0
M  V30 2552 H 246.983 -1.93952 -3.82205 0
M  V30 2553 H 251.167 -2.89817 -4.02889 0
M  V30 2554 H 246.423 -4.26754 -4.37825 0
M  V30 2555 H 250.597 -5.23005 -4.59825 0
M  V30 2556 H 248.224 -5.91969 -4.76946 0
M  V30 2557 N 249.799 1.42003 -0.683588 0
M  V30 2558 C 251.039 2.03282 -0.213513 0
M  V30 2559 C 251.403 1.52924 1.16097 0
M  V30 2560 O 252.604 2.06048 1.7262 0
M  V30 2561 C 250.875 3.56483 -0.255856 0
M  V30 2562 S 252.434 4.3857 0.14193 0
M  V30 2563 H 249.252 0.705659 -0.0869853 0
M  V30 2564 H 251.854 1.73619 -0.8987 0
M  V30 2565 H 250.558 3.90631 -1.25841 0
M  V30 2566 H 250.089 3.90831 0.448875 0
M  V30 2567 H 252.104 4.76828 1.37295 0
M  V30 2568 N 251.277 0.427512 1.51691 0
M  V30 2569 C 252.517 -0.141524 2.03909 0
M  V30 2570 C 252.881 -1.40811 1.30523 0
M  V30 2571 O 254.082 -2.05676 1.73063 0
M  V30 2572 C 252.353 -0.364962 3.55532 0
M  V30 2573 S 253.912 -0.898812 4.29496 0
M  V30 2574 H 250.73 -0.0364542 0.710065 0
M  V30 2575 H 253.332 0.584659 1.86553 0
M  V30 2576 H 252.036 0.56336 4.06515 0
M  V30 2577 H 251.567 -1.1185 3.77164 0
M  V30 2578 H 253.582 -2.17747 4.45871 0
M  V30 2579 N 252.755 -1.56801 0.158532 0
M  V30 2580 C 254.001 -1.97559 -0.483957 0
M  V30 2581 C 254.356 -1.04239 -1.61716 0
M  V30 2582 O 253.649 -0.079603 -1.91435 0
M  V30 2583 C 253.843 -3.4235 -1.02623 0
M  V30 2584 C 253.672 -4.49669 0.0528929 0
M  V30 2585 C 252.442 -5.02838 0.498234 0
M  V30 2586 C 254.64 -5.0725 0.848616 0
M  V30 2587 N 252.622 -5.93775 1.559 0
M  V30 2588 C 253.993 -5.94506 1.7596 0
M  V30 2589 C 256.048 -4.89788 0.895121 0
M  V30 2590 C 254.751 -6.66169 2.71314 0
M  V30 2591 C 256.777 -5.62161 1.83654 0
M  V30 2592 C 256.139 -6.49134 2.73503 0
M  V30 2593 H 252.238 -0.768332 -0.145566 0
M  V30 2594 H 254.822 -1.93012 0.255799 0
M  V30 2595 H 252.993 -3.47467 -1.73555 0
M  V30 2596 H 254.725 -3.70145 -1.63629 0
M  V30 2597 H 251.48 -4.73498 0.0983222 0
M  V30 2598 H 251.904 -6.43948 2.08949 0
M  V30 2599 H 256.546 -4.22255 0.21453 0
M  V30 2600 H 254.264 -7.32923 3.40367 0
M  V30 2601 H 257.85 -5.5064 1.87847 0
M  V30 2602 H 256.73 -7.04153 3.45163 0
M  V30 2603 N 254.233 0.115231 -1.57178 0
M  V30 2604 C 255.644 0.67197 -1.74188 0
M  V30 2605 C 255.995 1.80125 -0.777777 0
M  V30 2606 O 255.12 2.16346 0.0484376 0
M  V30 2607 C 255.715 1.22573 -3.1585 0
M  V30 2608 C 254.274 1.72872 -3.34353 0
M  V30 2609 C 253.421 0.629972 -2.70049 0
M  V30 2610 H 256.372 -0.110712 -1.58313 0
M  V30 2611 H 256.393 2.09535 -3.17609 0
M  V30 2612 H 255.905 0.403598 -3.85996 0
M  V30 2613 H 254.006 2.5755 -2.69256 0
M  V30 2614 H 254.119 1.83557 -4.42542 0
M  V30 2615 H 252.483 1.0645 -2.31388 0
M  V30 2616 H 253.266 -0.181241 -3.42821 0
M  V30 2617 N 255.711 1.52812 0.385517 0
M  V30 2618 C 256.936 1.72207 1.15583 0
M  V30 2619 C 257.361 0.441034 1.82857 0
M  V30 2620 O 256.719 -0.603465 1.70962 0
M  V30 2621 C 256.767 2.87476 2.17692 0
M  V30 2622 O 255.871 2.54693 3.24354 0
M  V30 2623 H 255.212 0.572526 0.336319 0
M  V30 2624 H 257.742 1.99618 0.448744 0
M  V30 2625 H 257.752 3.13072 2.6163 0
M  V30 2626 H 256.427 3.80408 1.68115 0
M  V30 2627 H 255.004 2.3985 2.85529 0
M  V30 2628 N 257.189 -0.644168 1.43834 0
M  V30 2629 C 258.6 -1.22554 1.40845 0
M  V30 2630 C 258.951 -1.9585 0.117115 0
M  V30 2631 O 258.076 -2.01734 -0.783086 0
M  V30 2632 C 258.671 -2.22907 2.55143 0
M  V30 2633 C 257.23 -2.76501 2.5539 0
M  V30 2634 C 256.377 -1.51287 2.32396 0
M  V30 2635 H 259.328 -0.43563 1.52604 0
M  V30 2636 H 259.349 -3.05259 2.2715 0
M  V30 2637 H 258.861 -1.69533 3.49114 0
M  V30 2638 H 256.962 -3.33914 1.65324 0
M  V30 2639 H 257.075 -3.23429 3.53455 0
M  V30 2640 H 255.439 -1.78957 1.81236 0
M  V30 2641 H 256.222 -0.998336 3.28463 0
M  V30 2642 N 258.668 -1.30515 -0.883378 0
M  V30 2643 C 259.6 -1.12846 -1.99496 0
M  V30 2644 C 260.613 -0.0712571 -1.62644 0
M  V30 2645 O 261.802 -0.317432 -1.75655 0
M  V30 2646 C 258.902 -0.699123 -3.3161 0
M  V30 2647 C 258.075 -1.83842 -3.96889 0
M  V30 2648 C 257.134 -1.39737 -5.07307 0
M  V30 2649 O 256.16 -2.10485 -5.28852 0
M  V30 2650 N 257.362 -0.277279 -5.79837 0
M  V30 2651 H 260.127 -2.08585 -2.15203 0
M  V30 2652 H 257.688 -1.22672 -1.05656 0
M  V30 2653 H 259.68 -0.387044 -4.02845 0
M  V30 2654 H 258.25 0.166276 -3.12157 0
M  V30 2655 H 257.47 -2.31853 -3.18807 0
M  V30 2656 H 258.758 -2.60187 -4.37241 0
M  V30 2657 H 258.156 0.3122 -5.64838 0
M  V30 2658 H 256.713 -0.0246623 -6.51795 0
M  V30 2659 N 260.146 1.09593 -1.13257 0
M  V30 2660 C 261.392 1.82003 -0.89458 0
M  V30 2661 C 261.725 1.85402 0.577906 0
M  V30 2662 O 261 1.32099 1.42759 0
M  V30 2663 C 261.283 3.28237 -1.48096 0
M  V30 2664 C 261.136 3.3312 -3.02244 0
M  V30 2665 C 262.455 4.24871 -1.14774 0
M  V30 2666 H 259.574 0.66077 -0.326424 0
M  V30 2667 H 262.216 1.28389 -1.40058 0
M  V30 2668 H 260.366 3.74024 -1.05062 0
M  V30 2669 H 262.038 2.95748 -3.54021 0
M  V30 2670 H 260.281 2.72756 -3.37323 0
M  V30 2671 H 260.952 4.3613 -3.38371 0
M  V30 2672 H 263.428 3.87361 -1.51957 0
M  V30 2673 H 262.304 5.25532 -1.58452 0
M  V30 2674 H 262.565 4.42058 -0.0611849 0
M  V30 2675 N 261.624 0.925811 1.2754 0
M  V30 2676 C 262.849 0.580924 1.99098 0
M  V30 2677 C 263.274 -0.833555 1.68622 0
M  V30 2678 O 262.632 -1.55903 0.925422 0
M  V30 2679 C 262.68 0.811186 3.51358 0
M  V30 2680 O 261.784 -0.124129 4.12213 0
M  V30 2681 H 261.125 0.223873 0.625122 0
M  V30 2682 H 263.655 1.24455 1.62395 0
M  V30 2683 H 263.665 0.72601 4.01489 0
M  V30 2684 H 262.34 1.84227 3.72872 0
M  V30 2685 H 260.917 0.0108006 3.72898 0
M  V30 2686 N 263.102 -1.41638 0.69111 0
M  V30 2687 C 264.33 -2.05628 0.22909 0
M  V30 2688 C 264.745 -1.51992 -1.11999 0
M  V30 2689 O 264.102 -0.666322 -1.69901 0
M  V30 2690 C 264.153 -3.61084 0.173283 0
M  V30 2691 O 263.874 -4.12735 1.46907 0
M  V30 2692 C 265.375 -4.42213 -0.310266 0
M  V30 2693 H 262.595 -0.662327 0.107534 0
M  V30 2694 H 265.139 -1.81489 0.942438 0
M  V30 2695 H 263.294 -3.84278 -0.490858 0
M  V30 2696 H 263.708 -5.06743 1.35322 0
M  V30 2697 H 265.182 -5.51194 -0.298196 0
M  V30 2698 H 265.659 -4.1799 -1.34838 0
M  V30 2699 H 266.265 -4.24074 0.322716 0
M  V30 2700 N 264.58 -0.43555 -1.51462 0
M  V30 2701 C 265.543 0.365137 -2.26273 0
M  V30 2702 C 266.543 0.951227 -1.29647 0
M  V30 2703 O 267.733 0.825958 -1.53374 0
M  V30 2704 C 264.865 1.51645 -3.05314 0
M  V30 2705 H 266.058 -0.290474 -2.9849 0
M  V30 2706 H 263.611 -0.188676 -1.55157 0
M  V30 2707 H 264.346 2.20816 -2.3751 0
M  V30 2708 H 264.131 1.10238 -3.76284 0
M  V30 2709 H 265.621 2.08218 -3.61987 0
M  V30 2710 N 266.058 1.56714 -0.166846 0
M  V30 2711 C 267.304 1.97039 0.479962 0
M  V30 2712 C 267.637 1.05264 1.63197 0
M  V30 2713 O 266.912 0.0988833 1.94248 0
M  V30 2714 C 267.195 3.46867 0.967212 0
M  V30 2715 C 267.048 4.49421 -0.18466 0
M  V30 2716 C 268.367 3.9968 1.84238 0
M  V30 2717 H 265.486 0.71641 0.172992 0
M  V30 2718 H 268.128 1.8832 -0.252079 0
M  V30 2719 H 266.278 3.54428 1.59101 0
M  V30 2720 H 267.95 4.53924 -0.821621 0
M  V30 2721 H 266.193 4.25573 -0.840837 0
M  V30 2722 H 266.864 5.51644 0.198317 0
M  V30 2723 H 269.34 3.94723 1.31655 0
M  V30 2724 H 268.216 5.04941 2.15234 0
M  V30 2725 H 268.477 3.43226 2.78654 0
M  V30 2726 N 267.536 -0.106894 1.57237 0
M  V30 2727 C 268.782 -0.81373 1.85759 0
M  V30 2728 C 269.115 -1.78952 0.754315 0
M  V30 2729 O 268.39 -1.93029 -0.23879 0
M  V30 2730 C 268.673 -1.55293 3.24894 0
M  V30 2731 C 268.526 -0.595929 4.45835 0
M  V30 2732 C 269.845 -2.5063 3.61763 0
M  V30 2733 H 266.964 -0.294369 0.67566 0
M  V30 2734 H 269.606 -0.0776472 1.89841 0
M  V30 2735 H 267.756 -2.1804 3.21544 0
M  V30 2736 H 269.428 0.0236262 4.61294 0
M  V30 2737 H 267.671 0.0916191 4.33703 0
M  V30 2738 H 268.342 -1.15004 5.39887 0
M  V30 2739 H 270.818 -1.97982 3.65981 0
M  V30 2740 H 269.694 -2.99376 4.60071 0
M  V30 2741 H 269.955 -3.3385 2.89821 0
M  V30 2742 N 269.014 -1.53014 -0.377408 0
M  V30 2743 C 269.924 -1.81557 -1.48574 0
M  V30 2744 C 270.94 -0.703102 -1.59162 0
M  V30 2745 O 272.116 -0.99192 -1.75279 0
M  V30 2746 C 269.181 -1.9889 -2.83978 0
M  V30 2747 C 268.242 -3.22801 -2.83016 0
M  V30 2748 C 267.475 -3.39298 -4.11962 0
M  V30 2749 O 267.698 -2.60345 -5.0752 0
M  V30 2750 O 266.632 -4.32604 -4.18494 0
M  V30 2751 H 270.458 -2.75695 -1.27382 0
M  V30 2752 H 268.043 -1.38248 -0.566373 0
M  V30 2753 H 269.925 -2.11931 -3.6423 0
M  V30 2754 H 268.6 -1.07942 -3.05172 0
M  V30 2755 H 267.507 -3.15193 -2.01505 0
M  V30 2756 H 268.84 -4.13632 -2.66775 0
M  V30 2757 N 270.492 0.636531 -1.44174 0
M  V30 2758 C 271.903 1.21806 -1.41493 0
M  V30 2759 C 272.254 1.95785 -0.1275 0
M  V30 2760 O 271.379 2.02147 0.772376 0
M  V30 2761 C 271.974 2.21551 -2.56321 0
M  V30 2762 C 270.533 2.75143 -2.56853 0
M  V30 2763 C 269.68 1.50052 -2.33195 0
M  V30 2764 H 272.631 0.427531 -1.52833 0
M  V30 2765 H 272.652 3.0405 -2.28765 0
M  V30 2766 H 272.164 1.67679 -3.50008 0
M  V30 2767 H 270.265 3.33033 -1.67093 0
M  V30 2768 H 270.378 3.2155 -3.55165 0
M  V30 2769 H 268.742 1.77993 -1.82183 0
M  V30 2770 H 269.525 0.980903 -3.28988 0
M  V30 2771 N 271.97 1.30982 0.876444 0
M  V30 2772 C 273.2 1.23063 1.65949 0
M  V30 2773 C 273.608 -0.207537 1.88058 0
M  V30 2774 O 272.951 -1.14781 1.43426 0
M  V30 2775 C 273.013 1.89768 3.05333 0
M  V30 2776 C 272.677 3.39106 3.0636 0
M  V30 2777 C 273.674 4.3496 2.84791 0
M  V30 2778 C 271.359 3.80693 3.27686 0
M  V30 2779 C 273.353 5.70375 2.84519 0
M  V30 2780 C 271.04 5.16223 3.27043 0
M  V30 2781 C 272.038 6.10875 3.05485 0
M  V30 2782 O 271.726 7.43928 3.04674 0
M  V30 2783 H 271.458 0.426685 0.524324 0
M  V30 2784 H 274.012 1.7329 1.10271 0
M  V30 2785 H 272.242 1.34082 3.6271 0
M  V30 2786 H 273.931 1.75853 3.65829 0
M  V30 2787 H 274.697 4.0416 2.68103 0
M  V30 2788 H 270.576 3.07457 3.43499 0
M  V30 2789 H 274.12 6.44228 2.67611 0
M  V30 2790 H 270.017 5.4666 3.43269 0
M  V30 2791 H 270.785 7.53022 3.2078 0
M  V30 2792 N 273.449 -1.08991 1.13837 0
M  V30 2793 C 274.397 -2.17841 0.815347 0
M  V30 2794 C 275.391 -1.68164 -0.204233 0
M  V30 2795 O 276.597 -1.79897 -0.0609304 0
M  V30 2796 H 272.972 -0.710654 0.245915 0
M  V30 2797 H 274.943 -2.42315 1.74143 0
M  V30 2798 C 273.692 -3.46381 0.302614 0
M  V30 2799 H 273.015 -3.84979 1.0785 0
M  V30 2800 H 274.455 -4.23844 0.115074 0
M  V30 2801 C 272.914 -3.22556 -0.972591 0
M  V30 2802 O 273.444 -3.45599 -2.04754 0
M  V30 2803 N 271.65 -2.76134 -0.905455 0
M  V30 2804 H 271.197 -2.57582 -0.0305421 0
M  V30 2805 H 271.155 -2.60571 -1.75926 0
M  V30 2806 N 274.927 -0.932562 -1.27047 0
M  V30 2807 C 276.152 -0.591474 -1.98787 0
M  V30 2808 C 276.577 0.824601 -1.69062 0
M  V30 2809 O 275.935 1.5541 -0.933677 0
M  V30 2810 C 275.983 -0.829808 -3.50922 0
M  V30 2811 O 275.087 0.102266 -4.12273 0
M  V30 2812 H 274.428 -0.227185 -0.623926 0
M  V30 2813 H 276.958 -1.25314 -1.61733 0
M  V30 2814 H 276.968 -0.747292 -4.01098 0
M  V30 2815 H 275.643 -1.86201 -3.7189 0
M  V30 2816 H 274.22 -0.0305761 -3.72887 0
M  V30 2817 N 276.405 1.4127 -0.698611 0
M  V30 2818 C 277.651 2.01478 -0.231207 0
M  V30 2819 C 277.984 1.55215 1.16713 0
M  V30 2820 O 277.259 0.764672 1.78838 0
M  V30 2821 C 277.542 3.58912 -0.292281 0
M  V30 2822 C 277.395 4.15293 -1.72778 0
M  V30 2823 C 278.714 4.38736 0.346194 0
M  V30 2824 H 275.833 0.732025 -0.0854878 0
M  V30 2825 H 278.475 1.67977 -0.887906 0
M  V30 2826 H 276.625 3.87582 0.26686 0
M  V30 2827 H 278.297 3.97486 -2.341 0
M  V30 2828 H 276.54 3.7022 -2.26096 0
M  V30 2829 H 277.211 5.24452 -1.72202 0
M  V30 2830 H 279.687 4.15897 -0.130035 0
M  V30 2831 H 278.563 5.48221 0.272932 0
M  V30 2832 H 278.824 4.18425 1.42734 0
M  V30 2833 N 277.883 0.443576 1.51229 0
M  V30 2834 C 278.813 -0.355142 2.30783 0
M  V30 2835 C 279.794 -1.0154 1.36468 0
M  V30 2836 O 280.979 -1.01785 1.65389 0
M  V30 2837 C 278.109 -1.45312 3.15439 0
M  V30 2838 C 277.063 -0.916002 4.18083 0
M  V30 2839 C 276.389 -2.1102 4.91299 0
M  V30 2840 C 277.689 0.0538602 5.22272 0
M  V30 2841 H 279.383 0.308767 2.97804 0
M  V30 2842 H 276.929 0.149937 1.43217 0
M  V30 2843 H 278.882 -2.01914 3.69876 0
M  V30 2844 H 277.606 -2.14541 2.46252 0
M  V30 2845 H 276.265 -0.372145 3.64706 0
M  V30 2846 H 275.913 -2.78882 4.18609 0
M  V30 2847 H 275.613 -1.75717 5.60712 0
M  V30 2848 H 277.137 -2.68164 5.48562 0
M  V30 2849 H 278.551 -0.422069 5.71744 0
M  V30 2850 H 276.948 0.319776 5.99247 0
M  V30 2851 H 278.018 0.98858 4.74716 0
M  V30 2852 N 279.361 -1.56624 0.175154 0
M  V30 2853 C 280.586 -2.01813 -0.478137 0
M  V30 2854 C 281.011 -1.05457 -1.55757 0
M  V30 2855 O 280.369 -0.0347439 -1.81267 0
M  V30 2856 C 280.417 -3.45581 -1.02987 0
M  V30 2857 O 279.521 -3.52305 -2.14371 0
M  V30 2858 H 278.862 -0.65413 -0.114059 0
M  V30 2859 H 281.392 -2.02673 0.280173 0
M  V30 2860 H 281.402 -3.84965 -1.35151 0
M  V30 2861 H 280.077 -4.1521 -0.239556 0
M  V30 2862 H 278.654 -3.24783 -1.83222 0
M  V30 2863 N 280.839 0.0985539 -1.57292 0
M  V30 2864 C 282.067 0.816318 -1.90115 0
M  V30 2865 C 282.482 1.72451 -0.768509 0
M  V30 2866 O 281.839 1.80643 0.259687 0
M  V30 2867 C 281.89 1.63259 -3.22535 0
M  V30 2868 O 281.611 0.760934 -4.31441 0
M  V30 2869 C 283.112 2.45372 -3.69199 0
M  V30 2870 H 280.332 0.233595 -0.629027 0
M  V30 2871 H 282.876 0.0768229 -2.04356 0
M  V30 2872 H 281.031 2.32463 -3.09903 0
M  V30 2873 H 281.445 1.32595 -5.07463 0
M  V30 2874 H 282.919 2.98144 -4.64558 0
M  V30 2875 H 283.396 3.23677 -2.96867 0
M  V30 2876 H 284.002 1.81373 -3.84687 0
M  V30 2877 N 282.317 1.53212 0.369288 0
M  V30 2878 C 283.267 1.75769 1.45222 0
M  V30 2879 C 284.251 0.612136 1.48801 0
M  V30 2880 O 285.443 0.870674 1.54105 0
M  V30 2881 C 282.572 1.94769 2.82701 0
M  V30 2882 C 281.658 3.15315 2.83615 0
M  V30 2883 N 282.049 4.37295 2.54178 0
M  V30 2884 C 280.347 3.15962 3.14776 0
M  V30 2885 C 281.048 5.19015 2.62675 0
M  V30 2886 N 280.024 4.55142 2.97232 0
M  V30 2887 H 283.826 2.67691 1.2132 0
M  V30 2888 H 281.34 1.51787 0.577438 0
M  V30 2889 H 283.337 2.09056 3.60696 0
M  V30 2890 H 281.997 1.04073 3.07569 0
M  V30 2891 H 283.008 4.65091 2.27839 0
M  V30 2892 H 279.685 2.35144 3.44983 0
M  V30 2893 H 281.075 6.26305 2.43294 0
M  V30 2894 N 283.795 -0.628877 1.44509 0
M  V30 2895 C 285.02 -1.42048 1.5112 0
M  V30 2896 C 285.445 -1.87594 0.137818 0
M  V30 2897 O 284.803 -1.58873 -0.873437 0
M  V30 2898 C 284.851 -2.61541 2.48251 0
M  V30 2899 O 283.955 -3.61453 1.98559 0
M  V30 2900 H 283.296 -0.424942 0.510216 0
M  V30 2901 H 285.826 -0.767374 1.89664 0
M  V30 2902 H 285.836 -3.09057 2.66361 0
M  V30 2903 H 284.511 -2.27736 3.48007 0
M  V30 2904 H 283.088 -3.20731 1.90227 0
M  V30 2905 N 285.273 -1.31445 -0.869486 0
M  V30 2906 C 286.203 -1.21727 -1.99261 0
M  V30 2907 C 287.184 -0.104359 -1.6978 0
M  V30 2908 O 288.369 -0.289038 -1.92037 0
M  V30 2909 C 285.499 -0.924317 -3.34774 0
M  V30 2910 C 284.453 -1.99685 -3.78563 0
M  V30 2911 C 283.779 -1.55658 -5.11541 0
M  V30 2912 C 285.079 -3.41003 -3.95619 0
M  V30 2913 H 286.773 -2.1569 -2.07649 0
M  V30 2914 H 284.319 -1.03839 -0.997675 0
M  V30 2915 H 286.272 -0.842934 -4.12883 0
M  V30 2916 H 284.996 0.0509793 -3.2656 0
M  V30 2917 H 283.655 -2.06813 -3.02694 0
M  V30 2918 H 283.303 -0.569132 -4.9977 0
M  V30 2919 H 283.003 -2.27409 -5.41811 0
M  V30 2920 H 284.527 -1.48928 -5.92159 0
M  V30 2921 H 285.941 -3.36547 -4.64122 0
M  V30 2922 H 284.338 -4.10975 -4.37286 0
M  V30 2923 H 285.408 -3.81754 -2.98985 0
M  V30 2924 N 286.751 1.08385 -1.14413 0
M  V30 2925 C 287.681 2.17321 -0.854044 0
M  V30 2926 C 288.662 1.69024 0.191049 0
M  V30 2927 O 289.847 1.94141 0.0476779 0
M  V30 2928 C 286.977 3.45719 -0.330983 0
M  V30 2929 C 285.931 4.07409 -1.31155 0
M  V30 2930 C 285.257 5.30762 -0.64778 0
M  V30 2931 C 286.557 4.48665 -2.67388 0
M  V30 2932 H 288.251 2.41845 -1.76498 0
M  V30 2933 H 285.797 1.16233 -0.850051 0
M  V30 2934 H 287.75 4.21241 -0.115645 0
M  V30 2935 H 286.474 3.2075 0.615381 0
M  V30 2936 H 285.133 3.33919 -1.51306 0
M  V30 2937 H 284.781 5.02078 0.304398 0
M  V30 2938 H 284.481 5.72992 -1.30207 0
M  V30 2939 H 286.005 6.08998 -0.441972 0
M  V30 2940 H 287.419 5.15364 -2.51143 0
M  V30 2941 H 285.816 5.01814 -3.29093 0
M  V30 2942 H 286.886 3.60543 -3.24248 0
M  V30 2943 N 288.23 0.939286 1.26551 0
M  V30 2944 C 289.14 0.453432 2.30176 0
M  V30 2945 C 290.156 -0.471649 1.67486 0
M  V30 2946 O 291.332 -0.35164 1.98306 0
M  V30 2947 C 288.397 -0.275326 3.45605 0
M  V30 2948 C 287.458 0.686084 4.23782 0
M  V30 2949 C 286.691 -0.00798994 5.33699 0
M  V30 2950 O 286.914 -1.22528 5.57085 0
M  V30 2951 O 285.848 0.669746 5.98162 0
M  V30 2952 H 289.674 1.31416 2.73795 0
M  V30 2953 H 287.259 0.705095 1.31715 0
M  V30 2954 H 289.141 -0.685911 4.1578 0
M  V30 2955 H 287.816 -1.11147 3.0402 0
M  V30 2956 H 286.723 1.14658 3.56096 0
M  V30 2957 H 288.056 1.48979 4.69112 0
M  V30 2958 N 289.708 -1.40897 0.706093 0
M  V30 2959 C 290.658 -2.27987 0.0240746 0
M  V30 2960 C 291.642 -1.42759 -0.742204 0
M  V30 2961 O 292.834 -1.65936 -0.615966 0
M  V30 2962 C 289.963 -3.31186 -0.903907 0
M  V30 2963 C 289.049 -4.2389 -0.133318 0
M  V30 2964 N 289.44 -4.98113 0.878444 0
M  V30 2965 C 287.738 -4.44485 -0.367269 0
M  V30 2966 C 288.439 -5.6604 1.34064 0
M  V30 2967 N 287.415 -5.39522 0.664565 0
M  V30 2968 H 291.217 -2.82812 0.799658 0
M  V30 2969 H 288.731 -1.53235 0.537845 0
M  V30 2970 H 290.728 -3.92413 -1.40775 0
M  V30 2971 H 289.388 -2.77922 -1.67897 0
M  V30 2972 H 290.399 -5.02364 1.25901 0
M  V30 2973 H 287.076 -4.02213 -1.1194 0
M  V30 2974 H 288.466 -6.35524 2.1808 0
M  V30 2975 N 291.186 -0.45159 -1.50991 0
M  V30 2976 C 292.414 0.108334 -2.06616 0
M  V30 2977 C 292.829 1.35224 -1.31757 0
M  V30 2978 O 292.186 1.78475 -0.381174 0
M  V30 2979 C 292.237 0.41619 -3.59096 0
M  V30 2980 O 291.958 -0.778361 -4.3113 0
M  V30 2981 C 293.459 1.02523 -4.31282 0
M  V30 2982 H 290.679 0.00159995 -0.670998 0
M  V30 2983 H 293.223 -0.634771 -1.94399 0
M  V30 2984 H 291.378 1.10921 -3.71181 0
M  V30 2985 H 291.792 -0.511181 -5.22003 0
M  V30 2986 H 293.266 1.19053 -5.39009 0
M  V30 2987 H 293.743 2.01013 -3.905 0
M  V30 2988 H 294.349 0.371173 -4.23677 0
M  V30 2989 N 292.664 1.56529 -0.183458 0
M  V30 2990 C 293.941 1.88959 0.50536 0
M  V30 2991 C 294.321 1.09523 1.80466 0
M  V30 2992 O 293.669 0.19278 2.27685 0
M  V30 2993 C 293.879 3.41162 0.73547 0
M  V30 2994 C 295.227 4.11155 1.06005 0
M  V30 2995 O 296.251 3.46548 0.823594 0
M  V30 2996 O 295.11 5.25318 1.50675 0
M  V30 2997 H 292.204 0.78441 0.261973 0
M  V30 2998 H 294.75 1.68231 -0.222802 0
M  V30 2999 H 293.522 3.90874 -0.182561 0
M  V30 3000 H 293.145 3.67543 1.51651 0
M  V30 3001 N 294.142 -0.090211 1.57342 0
M  V30 3002 C 295.388 -0.793982 1.86611 0
M  V30 3003 C 295.721 -1.78142 0.773252 0
M  V30 3004 O 294.996 -1.93271 -0.218304 0
M  V30 3005 C 295.279 -1.51839 3.26523 0
M  V30 3006 C 295.132 -0.548609 4.46442 0
M  V30 3007 C 296.451 -2.46779 3.64401 0
M  V30 3008 H 293.57 -0.287186 0.678744 0
M  V30 3009 H 296.212 -0.0575076 1.89913 0
M  V30 3010 H 294.362 -2.14617 3.23839 0
M  V30 3011 H 296.034 0.0725513 4.61243 0
M  V30 3012 H 294.277 0.137614 4.33582 0
M  V30 3013 H 294.948 -1.09271 5.41076 0
M  V30 3014 H 297.424 -1.94089 3.68061 0
M  V30 3015 H 296.3 -2.94479 4.63221 0
M  V30 3016 H 296.561 -3.30758 2.93346 0
M  V30 3017 N 295.62 -1.53406 -0.361157 0
M  V30 3018 C 296.583 -1.79479 -1.42548 0
M  V30 3019 C 297.583 -0.665327 -1.4639 0
M  V30 3020 O 298.773 -0.933549 -1.47073 0
M  V30 3021 C 295.905 -1.92087 -2.8163 0
M  V30 3022 H 297.098 -2.74538 -1.20701 0
M  V30 3023 H 294.651 -1.4455 -0.594546 0
M  V30 3024 H 295.386 -0.991099 -3.08784 0
M  V30 3025 H 295.171 -2.74241 -2.80239 0
M  V30 3026 H 296.661 -2.13836 -3.58697 0
M  V30 3027 N 297.098 0.621204 -1.44841 0
M  V30 3028 C 298.347 1.37658 -1.47422 0
M  V30 3029 C 298.66 1.95264 -0.114629 0
M  V30 3030 O 299.866 2.71494 -0.0180199 0
M  V30 3031 C 298.322 2.49285 -2.59586 0
M  V30 3032 C 297.93 1.98149 -4.01797 0
M  V30 3033 C 299.674 3.26409 -2.71399 0
M  V30 3034 C 297.581 3.07178 -5.05367 0
M  V30 3035 H 296.511 0.517344 -0.548517 0
M  V30 3036 H 299.162 0.667257 -1.70938 0
M  V30 3037 H 297.544 3.22839 -2.29328 0
M  V30 3038 H 298.718 1.31395 -4.41669 0
M  V30 3039 H 297.033 1.33812 -3.94314 0
M  V30 3040 H 299.63 4.07706 -3.45948 0
M  V30 3041 H 299.973 3.76535 -1.77559 0
M  V30 3042 H 300.506 2.5995 -3.01116 0
M  V30 3043 H 297.245 2.61985 -6.00869 0
M  V30 3044 H 296.765 3.72542 -4.70077 0
M  V30 3045 H 298.444 3.71789 -5.29511 0
M  V30 3046 N 298.576 1.31904 0.862503 0
M  V30 3047 C 299.509 1.14514 1.97388 0
M  V30 3048 C 300.487 0.0466493 1.62533 0
M  V30 3049 O 301.671 0.204484 1.87388 0
M  V30 3050 C 298.798 0.751347 3.30261 0
M  V30 3051 C 297.844 1.85395 3.84098 0
M  V30 3052 S 298.677 3.46081 4.08642 0
M  V30 3053 C 299.833 3.08655 5.44502 0
M  V30 3054 H 300.066 2.08597 2.11836 0
M  V30 3055 H 297.599 1.16475 1.01356 0
M  V30 3056 H 299.557 0.530901 4.07052 0
M  V30 3057 H 298.218 -0.170493 3.13637 0
M  V30 3058 H 297.411 1.53122 4.80177 0
M  V30 3059 H 297.013 2.02984 3.14123 0
M  V30 3060 H 299.305 2.58012 6.26447 0
M  V30 3061 H 300.248 4.03726 5.81731 0
M  V30 3062 H 300.656 2.45891 5.08132 0
M  V30 3063 N 300.054 -1.07777 1.14986 0
M  V30 3064 C 300.984 -2.16865 0.865557 0
M  V30 3065 C 301.965 -1.69123 -0.182083 0
M  V30 3066 O 303.15 -1.94164 -0.0373815 0
M  V30 3067 C 300.28 -3.45539 0.349313 0
M  V30 3068 C 299.234 -4.06708 1.33313 0
M  V30 3069 C 298.56 -5.30411 0.675918 0
M  V30 3070 C 299.86 -4.47241 2.69764 0
M  V30 3071 H 301.554 -2.40905 1.77778 0
M  V30 3072 H 299.1 -1.15781 0.856203 0
M  V30 3073 H 301.053 -4.21174 0.137983 0
M  V30 3074 H 299.777 -3.21072 -0.598362 0
M  V30 3075 H 298.436 -3.33112 1.53075 0
M  V30 3076 H 298.084 -5.02232 -0.277767 0
M  V30 3077 H 297.784 -5.72293 1.33244 0
M  V30 3078 H 299.308 -6.08755 0.474262 0
M  V30 3079 H 300.722 -5.14025 2.53873 0
M  V30 3080 H 299.119 -5.00062 3.3175 0
M  V30 3081 H 300.189 -3.58818 3.26156 0
M  V30 3082 N 301.532 -0.945985 -1.26051 0
M  V30 3083 C 302.809 -0.513816 -1.88731 0
M  V30 3084 C 303.189 1.00872 -1.8544 0
M  V30 3085 O 302.537 1.8708 -1.312 0
M  V30 3086 C 302.747 -1.08062 -3.31849 0
M  V30 3087 C 304.095 -1.1522 -4.08668 0
M  V30 3088 O 305.119 -1.03155 -3.40936 0
M  V30 3089 O 303.978 -1.34044 -5.29806 0
M  V30 3090 H 301.072 -0.168193 -0.809716 0
M  V30 3091 H 303.618 -1.03886 -1.34186 0
M  V30 3092 H 302.39 -2.1241 -3.2863 0
M  V30 3093 H 302.013 -0.538307 -3.93939 0
M  V30 3094 N 303.011 1.40521 -0.713556 0
M  V30 3095 C 303.959 2.32549 -0.0485227 0
M  V30 3096 C 304.953 1.51931 0.74922 0
M  V30 3097 O 306.159 1.67745 0.652816 0
M  V30 3098 H 302.534 0.751994 0.00311138 0
M  V30 3099 H 304.505 2.86291 -0.841443 0
M  V30 3100 C 303.254 3.36879 0.860687 0
M  V30 3101 H 302.577 3.98978 0.256246 0
M  V30 3102 H 304.017 4.03772 1.294 0
M  V30 3103 C 302.476 2.72197 1.9852 0
M  V30 3104 O 303.006 2.5837 3.07584 0
M  V30 3105 N 301.212 2.30612 1.76823 0
M  V30 3106 H 300.759 2.42059 0.881217 0
M  V30 3107 H 300.717 1.87672 2.52243 0
M  V30 3108 N 304.489 0.459591 1.5075 0
M  V30 3109 C 305.399 -0.34613 2.32033 0
M  V30 3110 C 306.415 -1.00686 1.41909 0
M  V30 3111 O 307.591 -0.997361 1.7497 0
M  V30 3112 C 304.656 -1.42029 3.16273 0
M  V30 3113 C 303.717 -0.777362 4.22203 0
M  V30 3114 C 302.95 -1.80034 5.02418 0
M  V30 3115 O 303.173 -3.02544 4.83553 0
M  V30 3116 O 302.107 -1.37853 5.85901 0
M  V30 3117 H 305.933 0.318054 3.0203 0
M  V30 3118 H 303.518 0.221663 1.47746 0
M  V30 3119 H 305.4 -2.04275 3.68578 0
M  V30 3120 H 304.075 -2.06815 2.49016 0
M  V30 3121 H 302.982 -0.116256 3.73919 0
M  V30 3122 H 304.315 -0.172634 4.91897 0
M  V30 3123 N 305.967 -1.56429 0.191757 0
M  V30 3124 C 306.93 -2.17707 -0.716688 0
M  V30 3125 C 307.93 -1.13061 -1.14341 0
M  V30 3126 O 309.12 -1.38464 -1.05704 0
M  V30 3127 C 306.252 -2.77644 -1.97804 0
M  V30 3128 H 307.445 -2.99342 -0.1829 0
M  V30 3129 H 304.998 -1.56193 -0.0578566 0
M  V30 3130 H 305.733 -1.99799 -2.55443 0
M  V30 3131 H 305.518 -3.54246 -1.68083 0
M  V30 3132 H 307.008 -3.24708 -2.62592 0
M  V30 3133 N 307.445 0.0818655 -1.57387 0
M  V30 3134 C 308.694 0.781681 -1.85937 0
M  V30 3135 C 309.007 1.79246 -0.782957 0
M  V30 3136 O 310.213 2.54112 -0.955987 0
M  V30 3137 C 308.669 1.44109 -3.29789 0
M  V30 3138 C 308.277 0.469396 -4.45534 0
M  V30 3139 C 310.021 2.12386 -3.67549 0
M  V30 3140 C 307.928 1.13415 -5.80423 0
M  V30 3141 H 306.858 0.295682 -0.693605 0
M  V30 3142 H 309.509 0.0348051 -1.83467 0
M  V30 3143 H 307.891 2.23588 -3.2684 0
M  V30 3144 H 309.065 -0.294856 -4.59856 0
M  V30 3145 H 307.38 -0.108383 -4.16259 0
M  V30 3146 H 309.977 2.62878 -4.65617 0
M  V30 3147 H 310.32 2.91877 -2.96839 0
M  V30 3148 H 310.853 1.39751 -3.72444 0
M  V30 3149 H 307.592 0.379771 -6.54399 0
M  V30 3150 H 307.112 1.8695 -5.69921 0
M  V30 3151 H 308.791 1.65686 -6.25426 0
M  V30 3152 N 308.923 1.53595 0.353017 0
M  V30 3153 C 310.153 1.74058 1.11299 0
M  V30 3154 C 310.561 0.475205 1.83135 0
M  V30 3155 O 309.904 -0.562344 1.74881 0
M  V30 3156 C 309.966 2.85994 2.17825 0
M  V30 3157 C 309.63 4.25923 1.65647 0
M  V30 3158 C 310.627 5.07829 1.11383 0
M  V30 3159 C 308.312 4.72377 1.7078 0
M  V30 3160 C 310.306 6.34285 0.629439 0
M  V30 3161 C 307.993 5.98808 1.21953 0
M  V30 3162 C 308.991 6.79594 0.681265 0
M  V30 3163 O 308.679 8.03651 0.200248 0
M  V30 3164 H 308.411 0.585327 0.338183 0
M  V30 3165 H 310.965 2.01186 0.413927 0
M  V30 3166 H 309.195 2.54368 2.91262 0
M  V30 3167 H 310.884 2.94515 2.79313 0
M  V30 3168 H 311.65 4.73107 1.06746 0
M  V30 3169 H 307.529 4.0956 2.11617 0
M  V30 3170 H 311.073 6.97288 0.208636 0
M  V30 3171 H 306.97 6.33026 1.26287 0
M  V30 3172 H 307.738 8.1788 0.318416 0
M  V30 3173 N 310.401 -0.613514 1.45168 0
M  V30 3174 C 311.678 -1.37263 1.39349 0
M  V30 3175 C 312.058 -2.11012 0.0610848 0
M  V30 3176 O 311.406 -2.07502 -0.956825 0
M  V30 3177 C 311.616 -2.3244 2.60332 0
M  V30 3178 C 312.964 -2.9523 3.05163 0
M  V30 3179 O 313.988 -2.42762 2.60663 0
M  V30 3180 O 312.847 -3.90454 3.82372 0
M  V30 3181 H 309.941 -0.615188 0.552696 0
M  V30 3182 H 312.487 -0.637097 1.57287 0
M  V30 3183 H 311.259 -1.77164 3.48896 0
M  V30 3184 H 310.882 -3.13383 2.44698 0
M  V30 3185 N 311.879 -1.3236 -0.855495 0
M  V30 3186 C 313.128 -1.22226 -1.60448 0
M  V30 3187 C 313.441 0.214733 -1.94418 0
M  V30 3188 O 314.647 0.437917 -2.67945 0
M  V30 3189 C 313.103 -2.14063 -2.89318 0
M  V30 3190 C 312.711 -3.62839 -2.62777 0
M  V30 3191 C 314.455 -2.12764 -3.67331 0
M  V30 3192 C 312.362 -4.4664 -3.87643 0
M  V30 3193 H 311.292 -0.453904 -0.602069 0
M  V30 3194 H 313.943 -1.57314 -0.944698 0
M  V30 3195 H 312.325 -1.71889 -3.5675 0
M  V30 3196 H 313.499 -4.1335 -2.03662 0
M  V30 3197 H 311.814 -3.66261 -1.98096 0
M  V30 3198 H 314.411 -2.72611 -4.59987 0
M  V30 3199 H 314.754 -1.11841 -4.00995 0
M  V30 3200 H 315.287 -2.53214 -3.06802 0
M  V30 3201 H 312.026 -5.48373 -3.5912 0
M  V30 3202 H 311.546 -4.0088 -4.46156 0
M  V30 3203 H 313.225 -4.59597 -4.55389 0
M  V30 3204 N 313.357 1.07166 -1.15556 0
M  V30 3205 C 314.597 1.81391 -0.94216 0
M  V30 3206 C 314.961 1.84788 0.521272 0
M  V30 3207 O 316.162 2.54904 0.85307 0
M  V30 3208 C 314.433 3.22431 -1.54185 0
M  V30 3209 S 315.992 4.13379 -1.47183 0
M  V30 3210 H 312.81 0.624963 -0.339031 0
M  V30 3211 H 315.412 1.28725 -1.4714 0
M  V30 3212 H 314.116 3.17548 -2.59984 0
M  V30 3213 H 313.647 3.80172 -1.01156 0
M  V30 3214 H 315.662 4.94007 -0.466004 0
M  V30 3215 N 314.835 0.952656 1.25548 0
M  V30 3216 C 316.251 0.656769 1.4546 0
M  V30 3217 C 316.451 -0.78633 1.85524 0
M  V30 3218 O 315.507 -1.56183 1.98402 0
M  V30 3219 C 316.82 1.62801 2.52817 0
M  V30 3220 C 318.368 1.63897 2.66659 0
M  V30 3221 C 318.843 2.5978 3.77198 0
M  V30 3222 N 320.334 2.58133 3.84606 0
M  V30 3223 C 321.069 3.29003 4.69621 0
M  V30 3224 N 320.565 4.09339 5.58939 0
M  V30 3225 N 322.358 3.179 4.63569 0
M  V30 3226 H 314.509 1.88526 0.978344 0
M  V30 3227 H 316.772 0.810815 0.491206 0
M  V30 3228 H 316.478 2.65869 2.30232 0
M  V30 3229 H 316.352 1.38898 3.50695 0
M  V30 3230 H 318.739 0.615481 2.8861 0
M  V30 3231 H 318.82 1.91858 1.69187 0
M  V30 3232 H 318.464 3.62254 3.55997 0
M  V30 3233 H 318.394 2.29105 4.7415 0
M  V30 3234 H 320.885 1.99809 3.20757 0
M  V30 3235 H 321.198 4.6034 6.20731 0
M  V30 3236 H 319.543 4.13438 5.58654 0
M  V30 3237 H 322.734 2.54612 3.92798 0
M  V30 3238 H 322.907 3.73398 5.29602 0
M  V30 3239 N 316.313 -1.40141 0.720998 0
M  V30 3240 C 317.729 -1.54632 0.395113 0
M  V30 3241 C 317.929 -1.69115 -1.09555 0
M  V30 3242 O 316.985 -1.68377 -1.88163 0
M  V30 3243 C 318.298 -2.77177 1.1659 0
M  V30 3244 C 319.846 -2.91 1.15274 0
M  V30 3245 C 320.321 -4.16465 1.90579 0
M  V30 3246 N 321.812 -4.23476 1.87675 0
M  V30 3247 C 322.547 -5.19475 2.42762 0
M  V30 3248 N 322.043 -6.21348 3.06428 0
M  V30 3249 N 323.836 -5.11592 2.32874 0
M  V30 3250 H 315.987 -1.28986 1.68749 0
M  V30 3251 H 318.25 -0.62412 0.713567 0
M  V30 3252 H 317.956 -2.72771 2.22011 0
M  V30 3253 H 317.83 -3.69442 0.76108 0
M  V30 3254 H 320.217 -2.94907 0.106702 0
M  V30 3255 H 320.298 -1.99838 1.59682 0
M  V30 3256 H 319.942 -4.1332 2.95176 0
M  V30 3257 H 319.872 -5.06646 1.43587 0
M  V30 3258 H 322.363 -3.50497 1.41281 0
M  V30 3259 H 322.676 -6.91034 3.45965 0
M  V30 3260 H 321.021 -6.21777 3.10514 0
M  V30 3261 H 324.212 -4.30936 1.82789 0
M  V30 3262 H 324.385 -5.86233 2.76106 0
M  V30 3263 N 317.792 -0.46758 -1.50504 0
M  V30 3264 C 318.74 0.342482 -2.30065 0
M  V30 3265 C 319.734 0.993596 -1.37201 0
M  V30 3266 O 320.94 0.925102 -1.54408 0
M  V30 3267 H 317.315 0.129283 -0.740803 0
M  V30 3268 H 319.286 -0.34899 -2.96352 0
M  V30 3269 C 318.035 1.4139 -3.17654 0
M  V30 3270 H 317.358 0.922264 -3.89017 0
M  V30 3271 H 318.798 1.95335 -3.76325 0
M  V30 3272 C 317.257 2.4139 -2.35016 0
M  V30 3273 O 317.787 3.46586 -2.03079 0
M  V30 3274 N 315.993 2.13021 -1.97662 0
M  V30 3275 H 315.54 1.27499 -2.23834 0
M  V30 3276 H 315.498 2.80164 -1.42673 0
M  V30 3277 N 319.27 1.56325 -0.20005 0
M  V30 3278 C 320.2 2.22318 0.713916 0
M  V30 3279 C 321.181 1.18788 1.21752 0
M  V30 3280 O 322.366 1.47309 1.26545 0
M  V30 3281 C 319.496 2.88639 1.93144 0
M  V30 3282 C 318.45 3.98457 1.56255 0
M  V30 3283 C 317.776 4.51967 2.85709 0
M  V30 3284 C 319.076 5.16612 0.768747 0
M  V30 3285 H 320.77 2.98952 0.163755 0
M  V30 3286 H 318.316 1.43792 0.0773219 0
M  V30 3287 H 320.269 3.33491 2.57608 0
M  V30 3288 H 318.993 2.09419 2.50621 0
M  V30 3289 H 317.652 3.54305 0.941471 0
M  V30 3290 H 317.3 3.69503 3.41287 0
M  V30 3291 H 317 5.26071 2.6177 0
M  V30 3292 H 318.524 4.99523 3.51154 0
M  V30 3293 H 319.938 5.57977 1.3166 0
M  V30 3294 H 318.335 5.96812 0.627286 0
M  V30 3295 H 319.405 4.84358 -0.229168 0
M  V30 3296 N 320.748 -0.0735177 1.57428 0
M  V30 3297 C 322.025 -0.805903 1.78226 0
M  V30 3298 C 322.405 -1.95874 0.787189 0
M  V30 3299 O 321.753 -2.2779 -0.180029 0
M  V30 3300 C 321.963 -1.28045 3.24662 0
M  V30 3301 C 323.311 -1.71453 3.88444 0
M  V30 3302 O 324.335 -1.37616 3.28543 0
M  V30 3303 O 323.194 -2.34093 4.93825 0
M  V30 3304 H 320.288 -0.386041 0.73137 0
M  V30 3305 H 322.834 -0.0537269 1.69615 0
M  V30 3306 H 321.606 -0.455476 3.8864 0
M  V30 3307 H 321.229 -2.094 3.37991 0
M  V30 3308 N 322.226 -1.5378 -0.344866 0
M  V30 3309 C 323.475 -1.7018 -1.08267 0
M  V30 3310 C 323.788 -0.471 -1.89845 0
M  V30 3311 O 324.994 -0.515917 -2.66553 0
M  V30 3312 C 323.45 -3.00923 -1.97417 0
M  V30 3313 C 323.058 -4.31335 -1.21053 0
M  V30 3314 C 324.802 -3.26688 -2.71063 0
M  V30 3315 C 322.709 -5.53153 -2.09225 0
M  V30 3316 H 321.639 -0.634138 -0.407903 0
M  V30 3317 H 324.29 -1.8028 -0.342246 0
M  V30 3318 H 322.672 -2.84676 -2.75274 0
M  V30 3319 H 323.846 -4.58281 -0.481159 0
M  V30 3320 H 322.161 -4.12173 -0.591813 0
M  V30 3321 H 324.758 -4.1489 -3.37299 0
M  V30 3322 H 325.101 -2.43639 -3.37558 0
M  V30 3323 H 325.634 -3.43705 -2.0028 0
M  V30 3324 H 322.373 -6.38741 -1.47274 0
M  V30 3325 H 321.893 -5.30458 -2.79955 0
M  V30 3326 H 323.572 -5.88744 -2.68308 0
M  V30 3327 N 323.704 0.605807 -1.45491 0
M  V30 3328 C 324.614 1.74466 -1.56839 0
M  V30 3329 C 325.63 1.68006 -0.452772 0
M  V30 3330 O 326.806 1.8833 -0.713708 0
M  V30 3331 C 323.871 3.10931 -1.53371 0
M  V30 3332 C 322.932 3.28832 -2.75986 0
M  V30 3333 C 322.165 4.58787 -2.72673 0
M  V30 3334 O 322.388 5.4122 -1.80102 0
M  V30 3335 O 321.322 4.79438 -3.63899 0
M  V30 3336 H 325.148 1.67843 -2.53106 0
M  V30 3337 H 322.733 0.770108 -1.28022 0
M  V30 3338 H 324.615 3.92233 -1.54051 0
M  V30 3339 H 323.29 3.18042 -0.602572 0
M  V30 3340 H 322.197 2.47112 -2.80867 0
M  V30 3341 H 323.53 3.26599 -3.68231 0
M  V30 3342 N 325.182 1.32811 0.848464 0
M  V30 3343 C 326.598 1.11937 1.13764 0
M  V30 3344 C 326.798 -0.0960789 2.01271 0
M  V30 3345 O 325.854 -0.779165 2.40178 0
M  V30 3346 C 327.167 2.402 1.809 0
M  V30 3347 C 328.715 2.46016 1.93508 0
M  V30 3348 C 329.19 3.74215 2.64059 0
M  V30 3349 N 330.681 3.75232 2.71579 0
M  V30 3350 C 331.416 4.71134 3.26833 0
M  V30 3351 N 330.912 5.77406 3.8285 0
M  V30 3352 N 332.705 4.58623 3.24995 0
M  V30 3353 H 324.856 2.1073 0.265855 0
M  V30 3354 H 327.119 0.930671 0.180431 0
M  V30 3355 H 326.825 3.29093 1.24058 0
M  V30 3356 H 326.699 2.51628 2.81004 0
M  V30 3357 H 329.086 1.57577 2.49506 0
M  V30 3358 H 329.167 2.38536 0.923811 0
M  V30 3359 H 328.811 4.63031 2.08722 0
M  V30 3360 H 328.741 3.78968 3.65637 0
M  V30 3361 H 331.232 2.98423 2.31845 0
M  V30 3362 H 331.545 6.46632 4.23187 0
M  V30 3363 H 329.89 5.81152 3.81165 0
M  V30 3364 H 333.081 3.74762 2.80484 0
M  V30 3365 H 333.254 5.33535 3.67756 0
M  V30 3366 N 326.66 -1.06551 1.16123 0
M  V30 3367 C 328.071 -1.60768 0.949232 0
M  V30 3368 C 328.422 -1.89523 -0.507508 0
M  V30 3369 O 327.547 -1.66671 -1.38021 0
M  V30 3370 C 328.142 -2.92086 1.71671 0
M  V30 3371 C 326.701 -3.43015 1.54977 0
M  V30 3372 C 325.848 -2.16947 1.72711 0
M  V30 3373 H 328.799 -0.895354 1.31031 0
M  V30 3374 H 328.82 -3.6138 1.19099 0
M  V30 3375 H 328.332 -2.71127 2.7769 0
M  V30 3376 H 326.433 -3.69039 0.513873 0
M  V30 3377 H 326.546 -4.18516 2.33198 0
M  V30 3378 H 324.91 -2.27041 1.15431 0
M  V30 3379 H 325.693 -1.98473 2.80113 0
M  V30 3380 N 328.138 -0.959301 -1.25041 0
M  V30 3381 C 329.366 -0.633949 -1.96948 0
M  V30 3382 C 329.781 0.794916 -1.7125 0
M  V30 3383 O 329.138 1.53231 -0.991287 0
M  V30 3384 C 329.189 -0.888805 -3.50403 0
M  V30 3385 O 328.91 -2.26149 -3.75218 0
M  V30 3386 C 330.411 -0.576482 -4.39536 0
M  V30 3387 H 327.631 -0.237263 -0.627652 0
M  V30 3388 H 330.175 -1.28495 -1.59089 0
M  V30 3389 H 328.33 -0.284145 -3.86357 0
M  V30 3390 H 328.744 -2.33514 -4.6965 0
M  V30 3391 H 330.218 -0.805314 -5.46094 0
M  V30 3392 H 330.695 0.489075 -4.36468 0
M  V30 3393 H 331.301 -1.16067 -4.09156 0
M  V30 3394 N 329.616 1.39756 -0.72842 0
M  V30 3395 C 330.846 2.04651 -0.283117 0
M  V30 3396 C 331.254 1.5502 1.08469 0
M  V30 3397 O 330.597 0.707343 1.69536 0
M  V30 3398 C 330.659 3.58947 -0.199309 0
M  V30 3399 C 330.323 4.31525 -1.5045 0
M  V30 3400 C 331.32 4.5861 -2.44894 0
M  V30 3401 C 329.005 4.70195 -1.76698 0
M  V30 3402 C 330.999 5.23366 -3.63822 0
M  V30 3403 C 328.686 5.3468 -2.95906 0
M  V30 3404 C 329.684 5.61198 -3.89289 0
M  V30 3405 O 329.372 6.24347 -5.06404 0
M  V30 3406 H 329.104 0.664777 -0.122666 0
M  V30 3407 H 331.658 1.79913 -0.990987 0
M  V30 3408 H 329.888 3.82556 0.56461 0
M  V30 3409 H 331.577 4.0534 0.213125 0
M  V30 3410 H 332.343 4.29187 -2.25883 0
M  V30 3411 H 328.222 4.48916 -1.04859 0
M  V30 3412 H 331.766 5.4398 -4.36728 0
M  V30 3413 H 327.663 5.63524 -3.14819 0
M  V30 3414 H 328.431 6.42842 -5.06652 0
M  V30 3415 N 331.094 0.475555 1.50254 0
M  V30 3416 C 332.322 -0.0754493 2.06762 0
M  V30 3417 C 332.737 -1.33111 1.33891 0
M  V30 3418 O 332.094 -1.77846 0.40952 0
M  V30 3419 C 332.145 -0.359008 3.59713 0
M  V30 3420 O 331.866 0.846851 4.29837 0
M  V30 3421 C 333.367 -0.956484 4.32858 0
M  V30 3422 H 330.587 0.00907525 0.670939 0
M  V30 3423 H 333.131 0.665618 1.93364 0
M  V30 3424 H 331.286 -1.05001 3.72899 0
M  V30 3425 H 331.7 0.594162 5.21124 0
M  V30 3426 H 333.174 -1.10463 5.40834 0
M  V30 3427 H 333.651 -1.94775 3.93649 0
M  V30 3428 H 334.257 -0.303723 4.24214 0
M  V30 3429 N 332.573 -1.56217 0.208337 0
M  V30 3430 C 333.521 -2.21053 -0.723769 0
M  V30 3431 C 334.515 -1.18578 -1.20978 0
M  V30 3432 O 335.721 -1.36691 -1.17114 0
M  V30 3433 H 332.096 -0.708595 -0.251788 0
M  V30 3434 H 334.067 -2.98006 -0.153365 0
M  V30 3435 C 332.816 -2.89417 -1.927 0
M  V30 3436 H 332.139 -3.68019 -1.56212 0
M  V30 3437 H 333.579 -3.38201 -2.55727 0
M  V30 3438 C 332.038 -1.91166 -2.77411 0
M  V30 3439 O 332.568 -1.42026 -3.75754 0
M  V30 3440 N 330.774 -1.59105 -2.43175 0
M  V30 3441 H 330.321 -1.99259 -1.63259 0
M  V30 3442 H 330.279 -0.936255 -3.00136 0
M  V30 3443 N 334.051 0.0651679 -1.57465 0
M  V30 3444 C 334.981 1.07693 -2.07182 0
M  V30 3445 C 335.962 1.39962 -0.966673 0
M  V30 3446 O 337.147 1.49475 -1.2398 0
M  V30 3447 C 334.277 2.3885 -2.52127 0
M  V30 3448 C 333.231 2.20917 -3.66579 0
M  V30 3449 C 332.557 3.57515 -3.97601 0
M  V30 3450 C 333.857 1.62493 -4.9638 0
M  V30 3451 H 335.551 0.663199 -2.91962 0
M  V30 3452 H 333.097 0.317569 -1.40455 0
M  V30 3453 H 335.05 3.09928 -2.85522 0
M  V30 3454 H 333.774 2.82215 -1.64384 0
M  V30 3455 H 332.433 1.52279 -3.33477 0
M  V30 3456 H 332.081 3.98463 -3.06979 0
M  V30 3457 H 331.781 3.46353 -4.74672 0
M  V30 3458 H 333.305 4.30013 -4.33499 0
M  V30 3459 H 334.719 2.23445 -5.27963 0
M  V30 3460 H 333.116 1.62009 -5.77818 0
M  V30 3461 H 334.186 0.587041 -4.81333 0
M  V30 3462 N 335.529 1.53961 0.336706 0
M  V30 3463 C 336.477 1.83136 1.43401 0
M  V30 3464 C 337.471 0.702313 1.54156 0
M  V30 3465 O 338.677 0.885765 1.56698 0
M  V30 3466 H 335.052 0.580309 0.478273 0
M  V30 3467 H 337.023 2.74925 1.16012 0
M  V30 3468 C 335.772 2.06385 2.79822 0
M  V30 3469 H 335.095 2.92718 2.72316 0
M  V30 3470 H 336.535 2.30761 3.55704 0
M  V30 3471 C 334.994 0.851414 3.25964 0
M  V30 3472 O 335.524 0.0541904 4.01663 0
M  V30 3473 N 333.73 0.66672 2.82848 0
M  V30 3474 H 333.277 1.31665 2.21409 0
M  V30 3475 H 333.235 -0.143032 3.14074 0
M  V30 3476 N 337.007 -0.598083 1.45811 0
M  V30 3477 C 338.423 -0.919847 1.30426 0
M  V30 3478 C 338.623 -1.99759 0.264303 0
M  V30 3479 O 337.679 -2.50221 -0.338472 0
M  V30 3480 C 338.992 -1.35176 2.68603 0
M  V30 3481 C 340.54 -1.46546 2.76574 0
M  V30 3482 C 341.015 -1.9311 4.15298 0
M  V30 3483 N 342.506 -2.00328 4.1764 0
M  V30 3484 C 343.241 -2.37599 5.21856 0
M  V30 3485 N 342.737 -2.73771 6.36413 0
M  V30 3486 N 344.53 -2.38021 5.09218 0
M  V30 3487 H 336.681 0.114111 2.12093 0
M  V30 3488 H 338.944 -0.0116121 0.947929 0
M  V30 3489 H 338.65 -0.633969 3.45939 0
M  V30 3490 H 338.524 -2.3164 2.97696 0
M  V30 3491 H 340.911 -2.17415 1.99537 0
M  V30 3492 H 340.992 -0.483727 2.51185 0
M  V30 3493 H 340.636 -1.22824 4.92825 0
M  V30 3494 H 340.566 -2.92213 4.38086 0
M  V30 3495 H 343.057 -1.74925 3.34977 0
M  V30 3496 H 343.37 -3.0112 7.11721 0
M  V30 3497 H 341.715 -2.71445 6.39799 0
M  V30 3498 H 344.906 -2.09174 4.18765 0
M  V30 3499 H 345.079 -2.66741 5.90554 0
M  V30 3500 N 338.485 -1.33259 -0.841409 0
M  V30 3501 C 339.415 -1.25926 -1.96634 0
M  V30 3502 C 340.396 -0.140349 -1.6952 0
M  V30 3503 O 341.581 -0.329707 -1.91381 0
M  V30 3504 C 338.711 -0.99512 -3.32738 0
M  V30 3505 C 337.665 -2.0767 -3.74242 0
M  V30 3506 C 336.991 -1.66474 -5.08125 0
M  V30 3507 C 338.291 -3.49318 -3.88297 0
M  V30 3508 H 339.985 -2.20046 -2.03027 0
M  V30 3509 H 337.531 -1.05931 -0.975425 0
M  V30 3510 H 339.484 -0.930323 -4.11002 0
M  V30 3511 H 338.208 -0.0183004 -3.26595 0
M  V30 3512 H 336.867 -2.13187 -2.98239 0
M  V30 3513 H 336.515 -0.675012 -4.9845 0
M  V30 3514 H 336.215 -2.3885 -5.36865 0
M  V30 3515 H 337.739 -1.61455 -5.88867 0
M  V30 3516 H 339.153 -3.46316 -4.56879 0
M  V30 3517 H 337.55 -4.20158 -4.28471 0
M  V30 3518 H 338.62 -3.8801 -2.9082 0
M  V30 3519 N 339.963 1.05934 -1.16686 0
M  V30 3520 C 341.212 1.78188 -0.945085 0
M  V30 3521 C 341.525 1.88338 0.528021 0
M  V30 3522 O 342.731 2.57258 0.867799 0
M  V30 3523 C 341.187 3.20277 -1.64167 0
M  V30 3524 C 340.795 3.18281 -3.15279 0
M  V30 3525 C 342.539 3.97039 -1.502 0
M  V30 3526 C 340.446 4.55112 -3.7766 0
M  V30 3527 H 339.376 0.667866 -0.349959 0
M  V30 3528 H 342.027 1.18794 -1.39858 0
M  V30 3529 H 340.409 3.79952 -1.11589 0
M  V30 3530 H 341.583 2.68167 -3.74731 0
M  V30 3531 H 339.898 2.55018 -3.29173 0
M  V30 3532 H 342.495 4.98194 -1.94183 0
M  V30 3533 H 342.838 4.13845 -0.451461 0
M  V30 3534 H 343.371 3.43894 -1.99954 0
M  V30 3535 H 340.11 4.43512 -4.82677 0
M  V30 3536 H 339.63 5.05406 -3.22994 0
M  V30 3537 H 341.309 5.24064 -3.79428 0
M  V30 3538 N 341.441 0.965919 1.2453 0
M  V30 3539 C 342.404 0.499547 2.2369 0
M  V30 3540 C 343.404 -0.40294 1.5567 0
M  V30 3541 O 344.594 -0.19865 1.73064 0
M  V30 3542 C 341.726 -0.276792 3.39774 0
M  V30 3543 H 342.919 1.37613 2.66463 0
M  V30 3544 H 340.472 0.750324 1.37112 0
M  V30 3545 H 341.207 -1.17055 3.02438 0
M  V30 3546 H 340.992 0.370826 3.90343 0
M  V30 3547 H 342.482 -0.592175 4.1338 0
M  V30 3548 N 342.919 -1.39368 0.735821 0
M  V30 3549 C 343.851 -2.2913 0.0567723 0
M  V30 3550 C 344.864 -1.46859 -0.702589 0
M  V30 3551 O 346.053 -1.69925 -0.546616 0
M  V30 3552 C 343.153 -3.25492 -0.943823 0
M  V30 3553 C 342.326 -4.36709 -0.24581 0
M  V30 3554 C 341.385 -5.13376 -1.15463 0
M  V30 3555 O 340.411 -5.65683 -0.631803 0
M  V30 3556 N 341.613 -5.24656 -2.48427 0
M  V30 3557 H 344.378 -2.88047 0.827582 0
M  V30 3558 H 341.939 -1.50957 0.585112 0
M  V30 3559 H 343.931 -3.73657 -1.55443 0
M  V30 3560 H 342.501 -2.676 -1.61583 0
M  V30 3561 H 341.721 -3.9041 0.545286 0
M  V30 3562 H 343.009 -5.08244 0.237891 0
M  V30 3563 H 342.407 -4.83679 -2.93379 0
M  V30 3564 H 340.964 -5.76258 -3.04582 0
M  V30 3565 N 344.397 -0.483516 -1.5 0
M  V30 3566 C 345.643 0.0672592 -2.02688 0
M  V30 3567 C 345.976 1.38247 -1.36387 0
M  V30 3568 O 345.251 1.88131 -0.493675 0
M  V30 3569 C 345.534 0.238109 -3.59312 0
M  V30 3570 C 345.387 -1.099 -4.36168 0
M  V30 3571 C 346.706 0.986916 -4.28892 0
M  V30 3572 H 343.825 0.0229696 -0.736642 0
M  V30 3573 H 346.467 -0.631527 -1.79197 0
M  V30 3574 H 344.617 0.8333 -3.79458 0
M  V30 3575 H 346.289 -1.73172 -4.27562 0
M  V30 3576 H 344.532 -1.69261 -3.99416 0
M  V30 3577 H 345.203 -0.932954 -5.44059 0
M  V30 3578 H 347.679 0.482302 -4.13295 0
M  V30 3579 H 346.555 1.07527 -5.38265 0
M  V30 3580 H 346.816 2.0265 -3.92919 0
M  V30 3581 N 345.875 1.56104 -0.216619 0
M  V30 3582 C 347.124 1.97348 0.416744 0
M  V30 3583 C 347.437 1.10715 1.6125 0
M  V30 3584 O 348.643 1.41836 2.31506 0
M  V30 3585 C 347.099 3.51059 0.792835 0
M  V30 3586 C 346.707 4.46387 -0.379828 0
M  V30 3587 C 348.451 4.01026 1.39208 0
M  V30 3588 C 346.358 5.91397 0.0184223 0
M  V30 3589 H 345.288 0.736942 0.159475 0
M  V30 3590 H 347.939 1.80827 -0.31205 0
M  V30 3591 H 346.321 3.63162 1.57891 0
M  V30 3592 H 347.495 4.46029 -1.15737 0
M  V30 3593 H 345.81 4.06734 -0.891979 0
M  V30 3594 H 348.407 5.0686 1.70286 0
M  V30 3595 H 348.75 3.46587 2.30614 0
M  V30 3596 H 349.283 3.92125 0.669537 0
M  V30 3597 H 346.022 6.49807 -0.862002 0
M  V30 3598 H 345.542 5.94961 0.760384 0
M  V30 3599 H 347.221 6.45455 0.446818 0
M  V30 3600 N 347.353 -0.0568162 1.57498 0
M  V30 3601 C 348.578 -0.769402 1.92601 0
M  V30 3602 C 349.003 -1.69559 0.814336 0
M  V30 3603 O 348.361 -1.79811 -0.231903 0
M  V30 3604 C 348.409 -1.52634 3.26704 0
M  V30 3605 O 347.513 -2.63797 3.16994 0
M  V30 3606 H 346.854 -0.208909 0.63028 0
M  V30 3607 H 349.384 -0.0205798 2.0459 0
M  V30 3608 H 349.394 -1.90234 3.60936 0
M  V30 3609 H 348.069 -0.846875 4.07186 0
M  V30 3610 H 346.646 -2.28943 2.94346 0
M  V30 3611 N 348.832 -1.54138 -0.328536 0
M  V30 3612 C 350.057 -1.76378 -1.09112 0
M  V30 3613 C 350.482 -0.508596 -1.81094 0
M  V30 3614 O 349.84 0.539598 -1.73084 0
M  V30 3615 C 349.888 -2.95358 -2.06872 0
M  V30 3616 O 348.992 -2.66556 -3.14677 0
M  V30 3617 H 348.333 -0.584614 -0.314838 0
M  V30 3618 H 350.863 -2.01146 -0.374348 0
M  V30 3619 H 350.873 -3.22566 -2.4983 0
M  V30 3620 H 349.548 -3.86385 -1.5388 0
M  V30 3621 H 348.125 -2.50282 -2.7643 0
M  V30 3622 N 350.31 0.590341 -1.46126 0
M  V30 3623 C 351.24 1.71032 -1.58966 0
M  V30 3624 C 352.221 1.64302 -0.440335 0
M  V30 3625 O 353.406 1.82436 -0.665634 0
M  V30 3626 C 350.536 3.09665 -1.57241 0
M  V30 3627 C 349.49 3.31221 -2.71066 0
M  V30 3628 C 348.816 4.70303 -2.54399 0
M  V30 3629 C 350.116 3.19796 -4.1295 0
M  V30 3630 H 351.81 1.60543 -2.52718 0
M  V30 3631 H 349.356 0.770933 -1.21625 0
M  V30 3632 H 351.309 3.87831 -1.64819 0
M  V30 3633 H 350.033 3.21036 -0.600289 0
M  V30 3634 H 348.692 2.55452 -2.62944 0
M  V30 3635 H 348.34 4.78429 -1.55288 0
M  V30 3636 H 348.04 4.85679 -3.30741 0
M  V30 3637 H 349.564 5.50647 -2.63857 0
M  V30 3638 H 350.978 3.87815 -4.22223 0
M  V30 3639 H 349.375 3.46696 -4.89818 0
M  V30 3640 H 350.445 2.16983 -4.33643 0
M  V30 3641 N 351.788 1.33704 0.83433 0
M  V30 3642 C 353.016 1.28467 1.62185 0
M  V30 3643 C 353.431 -0.143526 1.88254 0
M  V30 3644 O 352.788 -1.08709 1.4659 0
M  V30 3645 C 352.839 2.06174 2.96942 0
M  V30 3646 O 352.56 3.43422 2.72016 0
M  V30 3647 C 354.061 2.08201 3.91366 0
M  V30 3648 H 351.281 0.4424 0.504503 0
M  V30 3649 H 353.825 1.76145 1.03891 0
M  V30 3650 H 351.98 1.62167 3.51825 0
M  V30 3651 H 352.394 3.83453 3.57861 0
M  V30 3652 H 353.868 2.67017 4.83121 0
M  V30 3653 H 354.345 1.07343 4.2588 0
M  V30 3654 H 354.951 2.52246 3.42421 0
M  V30 3655 N 353.266 -1.05314 1.17247 0
M  V30 3656 C 354.229 -2.112 0.890357 0
M  V30 3657 C 355.229 -1.60359 -0.118943 0
M  V30 3658 O 356.419 -1.73833 0.113086 0
M  V30 3659 C 353.551 -3.39266 0.333422 0
M  V30 3660 H 354.744 -2.37659 1.82916 0
M  V30 3661 H 352.297 -1.21538 0.982758 0
M  V30 3662 H 353.032 -3.18462 -0.612587 0
M  V30 3663 H 352.817 -3.77477 1.06082 0
M  V30 3664 H 354.307 -4.17315 0.154322 0
M  V30 3665 N 354.744 -0.972509 -1.24016 0
M  V30 3666 C 355.969 -0.654417 -1.96805 0
M  V30 3667 C 356.394 0.770398 -1.716 0
M  V30 3668 O 355.752 1.52361 -0.982647 0
M  V30 3669 C 355.8 -0.941031 -3.48105 0
M  V30 3670 O 354.904 -0.0289472 -4.1239 0
M  V30 3671 H 354.245 -0.24692 -0.616382 0
M  V30 3672 H 356.775 -1.30396 -1.57664 0
M  V30 3673 H 356.785 -0.87452 -3.98517 0
M  V30 3674 H 355.46 -1.97939 -3.65777 0
M  V30 3675 H 354.037 -0.149192 -3.72601 0
M  V30 3676 N 356.222 1.38976 -0.743202 0
M  V30 3677 C 357.152 2.33171 -0.123873 0
M  V30 3678 C 358.133 1.54336 0.71516 0
M  V30 3679 O 359.318 1.82696 0.658467 0
M  V30 3680 C 356.448 3.38474 0.777978 0
M  V30 3681 C 355.402 4.27979 0.0424758 0
M  V30 3682 C 354.728 5.2405 1.06189 0
M  V30 3683 C 356.028 5.10155 -1.1198 0
M  V30 3684 H 357.722 2.85213 -0.910709 0
M  V30 3685 H 355.268 1.37133 -0.439388 0
M  V30 3686 H 357.221 4.03328 1.22084 0
M  V30 3687 H 355.945 2.84891 1.59702 0
M  V30 3688 H 354.604 3.64616 -0.380853 0
M  V30 3689 H 354.252 4.66758 1.87472 0
M  V30 3690 H 353.952 5.84785 0.574485 0
M  V30 3691 H 355.476 5.9178 1.50428 0
M  V30 3692 H 356.89 5.68307 -0.75499 0
M  V30 3693 H 355.287 5.80073 -1.53738 0
M  V30 3694 H 356.357 4.44504 -1.93764 0
M  V30 3695 N 357.7 0.491464 1.49741 0
M  V30 3696 C 359.116 0.146835 1.58923 0
M  V30 3697 C 359.316 -1.34804 1.49767 0
M  V30 3698 O 358.372 -2.12317 1.36667 0
M  V30 3699 C 359.685 0.715157 2.92072 0
M  V30 3700 C 361.233 0.680407 3.05515 0
M  V30 3701 C 361.708 1.22663 4.41269 0
M  V30 3702 N 363.199 1.18691 4.47735 0
M  V30 3703 C 363.934 1.57984 5.51207 0
M  V30 3704 N 363.43 2.04824 6.6183 0
M  V30 3705 N 365.223 1.49459 5.41866 0
M  V30 3706 H 357.374 1.46347 1.53936 0
M  V30 3707 H 359.637 0.606453 0.728642 0
M  V30 3708 H 359.343 1.76317 3.04311 0
M  V30 3709 H 359.217 0.17018 3.76816 0
M  V30 3710 H 361.604 -0.358743 2.92911 0
M  V30 3711 H 361.685 1.26242 2.22478 0
M  V30 3712 H 361.329 2.26451 4.54623 0
M  V30 3713 H 361.259 0.620637 5.2293 0
M  V30 3714 H 363.75 0.843605 3.68364 0
M  V30 3715 H 364.063 2.32901 7.3687 0
M  V30 3716 H 362.408 2.08791 6.62896 0
M  V30 3717 H 365.599 1.12692 4.54333 0
M  V30 3718 H 365.772 1.80406 6.22381 0
M  V30 3719 N 359.178 -1.55987 0.224894 0
M  V30 3720 C 360.425 -1.9839 -0.4059 0
M  V30 3721 C 360.753 -1.11261 -1.59535 0
M  V30 3722 O 360.008 -0.158314 -1.95059 0
M  V30 3723 C 360.307 -3.46394 -0.880106 0
M  V30 3724 C 359.973 -4.5046 0.19918 0
M  V30 3725 C 358.635 -4.7864 0.495661 0
M  V30 3726 C 360.987 -5.12855 0.928939 0
M  V30 3727 C 358.315 -5.66497 1.52636 0
M  V30 3728 C 360.667 -6.01828 1.949 0
M  V30 3729 C 359.331 -6.28351 2.25236 0
M  V30 3730 H 358.601 -0.725961 -0.148529 0
M  V30 3731 H 361.248 -1.88668 0.328113 0
M  V30 3732 H 359.553 -3.53337 -1.69294 0
M  V30 3733 H 361.25 -3.76577 -1.37808 0
M  V30 3734 H 357.84 -4.28579 -0.0420526 0
M  V30 3735 H 362.024 -4.9115 0.713129 0
M  V30 3736 H 357.28 -5.8531 1.76698 0
M  V30 3737 H 361.454 -6.49225 2.51951 0
M  V30 3738 H 359.081 -6.96226 3.05244 0
M  V30 3739 N 360.656 0.0484629 -1.57525 0
M  V30 3740 C 361.933 0.777447 -1.79486 0
M  V30 3741 C 362.313 1.94597 -0.818251 0
M  V30 3742 O 361.661 2.28047 0.143767 0
M  V30 3743 C 361.871 1.22864 -3.26658 0
M  V30 3744 C 363.219 1.65251 -3.91123 0
M  V30 3745 O 364.243 1.32372 -3.3069 0
M  V30 3746 O 363.102 2.26207 -4.97486 0
M  V30 3747 H 360.196 0.374357 -0.737419 0
M  V30 3748 H 362.742 0.0267359 -1.69679 0
M  V30 3749 H 361.514 0.393589 -3.89316 0
M  V30 3750 H 361.137 2.03996 -3.41279 0
M  V30 3751 N 362.134 1.5431 0.320358 0
M  V30 3752 C 363.382 1.72327 1.05583 0
M  V30 3753 C 363.703 0.50149 1.88441 0
M  V30 3754 O 362.973 -0.48448 1.89815 0
M  V30 3755 H 361.553 0.635387 0.3928 0
M  V30 3756 H 364.215 1.91621 0.356019 0
M  V30 3757 H 363.311 2.60426 1.72003 0
M  V30 3758 N 363.613 -0.582584 1.46437 0
M  V30 3759 C 364.576 -1.67366 1.56592 0
M  V30 3760 C 365.576 -1.54575 0.443072 0
M  V30 3761 O 366.766 -1.59191 0.707381 0
M  V30 3762 C 363.898 -3.06791 1.48634 0
M  V30 3763 H 365.091 -1.5972 2.5383 0
M  V30 3764 H 362.644 -0.800432 1.34249 0
M  V30 3765 H 363.379 -3.19993 0.526763 0
M  V30 3766 H 363.164 -3.17484 2.30101 0
M  V30 3767 H 364.654 -3.86218 1.58826 0
M  V30 3768 N 365.091 -1.34144 -0.827227 0
M  V30 3769 C 366.021 -1.28005 -1.95287 0
M  V30 3770 C 367.002 -0.158321 -1.69362 0
M  V30 3771 O 368.187 -0.349987 -1.9102 0
M  V30 3772 C 365.317 -1.03036 -3.31664 0
M  V30 3773 C 364.271 -2.11628 -3.72019 0
M  V30 3774 C 363.597 -1.71854 -5.0633 0
M  V30 3775 C 364.897 -3.53417 -3.8457 0
M  V30 3776 H 366.591 -2.22187 -2.00682 0
M  V30 3777 H 364.137 -1.0696 -0.964135 0
M  V30 3778 H 366.09 -0.973863 -4.09993 0
M  V30 3779 H 364.814 -0.0529391 -3.26557 0
M  V30 3780 H 363.473 -2.16339 -2.95961 0
M  V30 3781 H 363.121 -0.727841 -4.97706 0
M  V30 3782 H 362.821 -2.44531 -5.34302 0
M  V30 3783 H 364.345 -1.67692 -5.87122 0
M  V30 3784 H 365.759 -3.51142 -4.5318 0
M  V30 3785 H 364.156 -4.24679 -4.2399 0
M  V30 3786 H 365.226 -3.91072 -2.86689 0
M  V30 3787 N 366.569 1.04691 -1.17803 0
M  V30 3788 C 367.517 2.14665 -0.895635 0
M  V30 3789 C 368.511 1.68806 0.141679 0
M  V30 3790 O 369.717 1.79999 -0.00587914 0
M  V30 3791 H 366.092 0.701038 -0.272121 0
M  V30 3792 H 368.063 2.35685 -1.83017 0
M  V30 3793 C 366.812 3.45019 -0.430962 0
M  V30 3794 H 366.135 3.8071 -1.22064 0
M  V30 3795 H 367.575 4.23125 -0.272301 0
M  V30 3796 C 366.034 3.25943 0.852207 0
M  V30 3797 O 366.564 3.5296 1.91786 0
M  V30 3798 N 364.77 2.79304 0.802346 0
M  V30 3799 H 364.317 2.57518 -0.0650788 0
M  V30 3800 H 364.275 2.66921 1.66134 0
M  V30 3801 N 368.047 0.979072 1.23499 0
M  V30 3802 C 369.293 0.648178 1.92163 0
M  V30 3803 C 369.626 -0.816049 1.76222 0
M  V30 3804 O 368.901 -1.58849 1.12237 0
M  V30 3805 C 369.184 1.03773 3.44824 0
M  V30 3806 C 369.037 2.55948 3.69879 0
M  V30 3807 C 370.356 0.580653 4.36253 0
M  V30 3808 H 367.475 0.236952 0.69787 0
M  V30 3809 H 370.117 1.22012 1.45647 0
M  V30 3810 H 368.267 0.551058 3.84572 0
M  V30 3811 H 369.939 3.12179 3.3962 0
M  V30 3812 H 368.182 2.98641 3.14636 0
M  V30 3813 H 368.853 2.78255 4.76737 0
M  V30 3814 H 371.329 0.998465 4.03943 0
M  V30 3815 H 370.205 0.881663 5.41773 0
M  V30 3816 H 370.466 -0.519052 4.39042 0
M  V30 3817 N 369.525 -1.3858 0.750561 0
M  V30 3818 C 370.802 -1.94231 0.231009 0
M  V30 3819 C 371.182 -1.68611 -1.27018 0
M  V30 3820 O 370.53 -1.02296 -2.04323 0
M  V30 3821 C 370.74 -3.44123 0.581428 0
M  V30 3822 C 372.088 -4.2116 0.539389 0
M  V30 3823 O 373.112 -3.52391 0.519541 0
M  V30 3824 O 371.971 -5.43749 0.54765 0
M  V30 3825 H 369.065 -0.825639 0.0474263 0
M  V30 3826 H 371.611 -1.4799 0.830478 0
M  V30 3827 H 370.383 -3.56267 1.61833 0
M  V30 3828 H 370.006 -3.97573 -0.0462047 0
M  V30 3829 N 371.003 -0.499398 -1.49478 0
M  V30 3830 C 372.249 0.0457576 -2.02748 0
M  V30 3831 C 372.582 1.36793 -1.37846 0
M  V30 3832 O 371.857 1.87596 -0.513601 0
M  V30 3833 C 372.14 0.199986 -3.59544 0
M  V30 3834 C 371.993 -1.1452 -4.34977 0
M  V30 3835 C 373.312 0.94137 -4.29914 0
M  V30 3836 H 370.431 0.0151552 -0.736844 0
M  V30 3837 H 373.073 -0.650498 -1.78518 0
M  V30 3838 H 371.223 0.793007 -3.8032 0
M  V30 3839 H 372.895 -1.77697 -4.25701 0
M  V30 3840 H 371.138 -1.73488 -3.97598 0
M  V30 3841 H 371.809 -0.990607 -5.43039 0
M  V30 3842 H 374.285 0.43844 -4.13784 0
M  V30 3843 H 373.161 1.01812 -5.39375 0
M  V30 3844 H 373.422 1.98471 -3.95046 0
M  V30 3845 N 372.481 1.55866 -0.233164 0
M  V30 3846 C 373.709 2.02998 0.399905 0
M  V30 3847 C 374.124 1.11274 1.52524 0
M  V30 3848 O 373.481 0.124528 1.82075 0
M  V30 3849 C 373.532 3.4958 0.920639 0
M  V30 3850 O 373.253 4.37808 -0.159834 0
M  V30 3851 C 374.754 4.12411 1.62578 0
M  V30 3852 H 371.974 0.664006 0.0966281 0
M  V30 3853 H 374.518 2.0143 -0.353013 0
M  V30 3854 H 372.673 3.51727 1.62379 0
M  V30 3855 H 373.087 5.23981 0.23337 0
M  V30 3856 H 374.561 5.16711 1.94201 0
M  V30 3857 H 375.038 3.5809 2.54299 0
M  V30 3858 H 375.644 4.14148 0.967553 0
M  V30 3859 N 373.959 -0.0401083 1.57549 0
M  V30 3860 C 374.869 -1.06133 2.0922 0
M  V30 3861 C 375.885 -1.40356 1.0284 0
M  V30 3862 O 377.061 -1.49897 1.34509 0
M  V30 3863 C 374.126 -2.34658 2.55218 0
M  V30 3864 C 373.187 -2.07117 3.76033 0
M  V30 3865 C 372.42 -3.29514 4.19829 0
M  V30 3866 O 372.643 -4.39794 3.63232 0
M  V30 3867 O 371.577 -3.15863 5.12362 0
M  V30 3868 H 375.403 -0.652244 2.96613 0
M  V30 3869 H 372.988 -0.256368 1.47184 0
M  V30 3870 H 374.87 -3.10239 2.85184 0
M  V30 3871 H 373.545 -2.74883 1.70941 0
M  V30 3872 H 372.452 -1.29139 3.51104 0
M  V30 3873 H 373.785 -1.71754 4.61261 0
M  V30 3874 N 375.437 -1.54477 -0.31217 0
M  V30 3875 C 376.684 -1.73227 -1.04875 0
M  V30 3876 C 377.012 -0.512042 -1.87639 0
M  V30 3877 O 376.267 0.506131 -1.89042 0
M  V30 3878 C 376.566 -2.967 -1.99258 0
M  V30 3879 C 376.232 -4.30974 -1.32559 0
M  V30 3880 C 374.894 -4.67477 -1.141 0
M  V30 3881 C 377.246 -5.14258 -0.847835 0
M  V30 3882 C 374.574 -5.84852 -0.465326 0
M  V30 3883 C 376.926 -6.32327 -0.185931 0
M  V30 3884 C 375.59 -6.67499 0.0107077 0
M  V30 3885 H 374.86 -0.633881 -0.383765 0
M  V30 3886 H 377.507 -1.88727 -0.324731 0
M  V30 3887 H 375.812 -2.75935 -2.7815 0
M  V30 3888 H 377.509 -3.08401 -2.563 0
M  V30 3889 H 374.099 -4.02262 -1.4793 0
M  V30 3890 H 378.283 -4.86565 -0.978192 0
M  V30 3891 H 373.539 -6.10654 -0.301883 0
M  V30 3892 H 377.713 -6.96135 0.192211 0
M  V30 3893 H 375.34 -7.58306 0.536287 0
M  V30 3894 N 376.915 0.57481 -1.46744 0
M  V30 3895 C 377.847 1.69804 -1.53946 0
M  V30 3896 C 378.86 1.57098 -0.427106 0
M  V30 3897 O 380.049 1.64378 -0.695863 0
M  V30 3898 C 377.149 3.08125 -1.4111 0
M  V30 3899 C 376.322 3.46757 -2.66605 0
M  V30 3900 C 375.381 4.6417 -2.47855 0
M  V30 3901 O 374.407 4.69634 -3.21609 0
M  V30 3902 N 375.609 5.59553 -1.54534 0
M  V30 3903 H 378.374 1.64077 -2.50796 0
M  V30 3904 H 375.935 0.761 -1.429 0
M  V30 3905 H 377.927 3.84478 -1.26328 0
M  V30 3906 H 376.497 3.08175 -0.524109 0
M  V30 3907 H 375.717 2.6003 -2.96274 0
M  V30 3908 H 377.005 3.69337 -3.49954 0
M  V30 3909 H 376.403 5.57881 -0.937304 0
M  V30 3910 H 374.96 6.35304 -1.45711 0
M  V30 3911 N 378.394 1.34581 0.820102 0
M  V30 3912 C 379.622 1.3018 1.60813 0
M  V30 3913 C 380.037 -0.123551 1.88395 0
M  V30 3914 O 379.394 -1.07148 1.47735 0
M  V30 3915 C 379.445 2.09312 2.94739 0
M  V30 3916 O 379.166 3.46288 2.68358 0
M  V30 3917 C 380.667 2.1234 3.89136 0
M  V30 3918 H 377.887 0.447726 0.499782 0
M  V30 3919 H 380.431 1.77237 1.02017 0
M  V30 3920 H 378.586 1.65889 3.50085 0
M  V30 3921 H 379 3.87227 3.53774 0
M  V30 3922 H 380.474 2.72126 4.80262 0
M  V30 3923 H 380.951 1.11854 4.24718 0
M  V30 3924 H 381.557 2.55864 3.39726 0
M  V30 3925 N 379.872 -1.04064 1.18357 0
M  V30 3926 C 380.82 -2.14187 0.907007 0
M  V30 3927 C 381.814 -1.68879 -0.132725 0
M  V30 3928 O 383.02 -1.79993 0.0154248 0
M  V30 3929 H 379.395 -0.699585 0.275835 0
M  V30 3930 H 381.366 -2.34711 1.84264 0
M  V30 3931 C 380.115 -3.44785 0.449254 0
M  V30 3932 H 379.438 -3.80058 1.24081 0
M  V30 3933 H 380.878 -4.22974 0.294737 0
M  V30 3934 C 379.337 -3.26391 -0.834909 0
M  V30 3935 O 379.867 -3.53973 -1.89911 0
M  V30 3936 N 378.073 -2.79726 -0.787523 0
M  V30 3937 H 377.62 -2.5748 0.0787347 0
M  V30 3938 H 377.578 -2.67798 -1.64716 0
M  V30 3939 N 381.35 -0.985608 -1.22978 0
M  V30 3940 C 382.28 -0.549649 -2.26939 0
M  V30 3941 C 383.261 0.419803 -1.64838 0
M  V30 3942 O 384.446 0.31203 -1.91677 0
M  V30 3943 C 381.576 0.143652 -3.47003 0
M  V30 3944 C 380.53 -0.743606 -4.21491 0
M  V30 3945 C 379.856 0.0822027 -5.34637 0
M  V30 3946 C 381.156 -2.03694 -4.80943 0
M  V30 3947 H 382.85 -1.41862 -2.63658 0
M  V30 3948 H 380.396 -0.683571 -1.26741 0
M  V30 3949 H 382.349 0.459985 -4.18882 0
M  V30 3950 H 381.073 1.04711 -3.09359 0
M  V30 3951 H 379.732 -1.04347 -3.51436 0
M  V30 3952 H 379.38 0.986359 -4.93234 0
M  V30 3953 H 379.08 -0.508377 -5.85397 0
M  V30 3954 H 380.604 0.392797 -6.09335 0
M  V30 3955 H 382.018 -1.78504 -5.44802 0
M  V30 3956 H 380.415 -2.57573 -5.42011 0
M  V30 3957 H 381.485 -2.72042 -4.01399 0
M  V30 3958 N 382.828 1.3818 -0.7579 0
M  V30 3959 C 384.074 2.00316 -0.316453 0
M  V30 3960 C 384.407 1.60026 1.10025 0
M  V30 3961 O 383.682 0.839835 1.75434 0
M  V30 3962 C 383.965 3.57349 -0.444245 0
M  V30 3963 C 383.818 4.07591 -1.90236 0
M  V30 3964 C 385.137 4.3981 0.1598 0
M  V30 3965 H 382.256 0.727741 -0.116459 0
M  V30 3966 H 384.898 1.6406 -0.958352 0
M  V30 3967 H 383.048 3.88365 0.102233 0
M  V30 3968 H 384.72 3.87199 -2.50748 0
M  V30 3969 H 382.963 3.60297 -2.41595 0
M  V30 3970 H 383.634 5.16677 -1.94291 0
M  V30 3971 H 386.11 4.14971 -0.306314 0
M  V30 3972 H 384.986 5.48885 0.0401675 0
M  V30 3973 H 385.247 4.24102 1.24859 0
M  V30 3974 N 384.306 0.507319 1.49211 0
M  V30 3975 C 385.717 0.0611118 1.866 0
M  V30 3976 C 386.068 -1.35488 1.41907 0
M  V30 3977 O 385.193 -2.0108 0.799726 0
M  V30 3978 C 385.788 0.104125 3.3864 0
M  V30 3979 C 384.347 -0.28677 3.75306 0
M  V30 3980 C 383.494 0.473893 2.73221 0
M  V30 3981 H 386.445 0.719775 1.41439 0
M  V30 3982 H 386.466 -0.689672 3.74198 0
M  V30 3983 H 385.978 1.13482 3.71138 0
M  V30 3984 H 384.079 -1.32046 3.48417 0
M  V30 3985 H 384.192 0.0370745 4.79086 0
M  V30 3986 H 382.556 -0.0770644 2.54583 0
M  V30 3987 H 383.339 1.50478 3.08563 0
M  V30 3988 N 385.784 -1.5574 0.241426 0
M  V30 3989 C 387.014 -2.02913 -0.38857 0
M  V30 3990 C 387.422 -1.12014 -1.52478 0
M  V30 3991 O 386.765 -0.125903 -1.83268 0
M  V30 3992 C 386.827 -3.4636 -0.963075 0
M  V30 3993 C 386.491 -4.56982 0.0401916 0
M  V30 3994 C 387.488 -5.12941 0.847766 0
M  V30 3995 C 385.173 -5.0203 0.164699 0
M  V30 3996 C 387.167 -6.12437 1.76636 0
M  V30 3997 C 384.854 -6.01358 1.0868 0
M  V30 3998 C 385.852 -6.5644 1.88616 0
M  V30 3999 O 385.54 -7.53831 2.79273 0
M  V30 4000 H 385.272 -0.668983 -0.0971452 0
M  V30 4001 H 387.826 -2.02198 0.361248 0
M  V30 4002 H 386.056 -3.44206 -1.76235 0
M  V30 4003 H 387.745 -3.77065 -1.50257 0
M  V30 4004 H 388.511 -4.78974 0.762133 0
M  V30 4005 H 384.39 -4.58824 -0.447411 0
M  V30 4006 H 387.934 -6.55355 2.39071 0
M  V30 4007 H 383.831 -6.34746 1.17338 0
M  V30 4008 H 384.599 -7.71428 2.73572 0
M  V30 4009 N 387.262 0.0317525 -1.57568 0
M  V30 4010 C 388.673 0.578692 -1.77505 0
M  V30 4011 C 389.024 1.75749 -0.872164 0
M  V30 4012 O 388.149 2.16298 -0.0663106 0
M  V30 4013 C 388.744 1.05658 -3.21904 0
M  V30 4014 C 387.303 1.54906 -3.43047 0
M  V30 4015 C 386.45 0.485939 -2.73009 0
M  V30 4016 H 389.401 -0.194475 -1.57504 0
M  V30 4017 H 389.422 1.92404 -3.28269 0
M  V30 4018 H 388.934 0.198422 -3.87592 0
M  V30 4019 H 387.035 2.42915 -2.82529 0
M  V30 4020 H 387.148 1.59841 -4.5165 0
M  V30 4021 H 385.512 0.940354 -2.36705 0
M  V30 4022 H 386.295 -0.362709 -3.41379 0
M  V30 4023 N 388.74 1.54641 0.303973 0
M  V30 4024 C 390.156 1.45788 0.649463 0
M  V30 4025 C 390.356 0.64666 1.90842 0
M  V30 4026 O 389.412 0.153183 2.52035 0
M  V30 4027 C 390.725 2.89718 0.805227 0
M  V30 4028 C 392.273 2.99742 0.901305 0
M  V30 4029 C 392.748 4.44863 1.08909 0
M  V30 4030 N 394.239 4.48559 1.15536 0
M  V30 4031 C 394.974 5.58026 1.3189 0
M  V30 4032 N 394.47 6.77422 1.45161 0
M  V30 4033 N 396.263 5.45708 1.34755 0
M  V30 4034 H 388.414 2.05854 -0.523237 0
M  V30 4035 H 390.677 0.932186 -0.172431 0
M  V30 4036 H 390.383 3.51666 -0.0489108 0
M  V30 4037 H 390.257 3.36964 1.69513 0
M  V30 4038 H 392.644 2.3791 1.74593 0
M  V30 4039 H 392.725 2.55797 -0.0125531 0
M  V30 4040 H 392.369 5.07288 0.249241 0
M  V30 4041 H 392.299 4.86436 2.01713 0
M  V30 4042 H 394.79 3.6254 1.06646 0
M  V30 4043 H 395.103 7.56604 1.57387 0
M  V30 4044 H 393.448 6.80292 1.42223 0
M  V30 4045 H 396.639 4.51378 1.23996 0
M  V30 4046 H 396.812 6.3107 1.47157 0
M  V30 4047 N 390.218 -0.567019 1.47046 0
M  V30 4048 C 391.467 -1.32091 1.5243 0
M  V30 4049 C 391.78 -1.94704 0.187021 0
M  V30 4050 O 392.986 -2.7124 0.118771 0
M  V30 4051 C 391.442 -2.39479 2.68659 0
M  V30 4052 C 391.05 -1.831 4.08874 0
M  V30 4053 C 392.794 -3.16111 2.83327 0
M  V30 4054 C 390.701 -2.8821 5.16419 0
M  V30 4055 H 389.631 -0.496629 0.56734 0
M  V30 4056 H 392.282 -0.603354 1.73297 0
M  V30 4057 H 390.664 -3.14105 2.41152 0
M  V30 4058 H 391.838 -1.14913 4.46242 0
M  V30 4059 H 390.153 -1.19085 3.99008 0
M  V30 4060 H 392.75 -3.94585 3.60842 0
M  V30 4061 H 393.093 -3.69686 1.91411 0
M  V30 4062 H 393.626 -2.48595 3.10556 0
M  V30 4063 H 390.365 -2.39504 6.10179 0
M  V30 4064 H 389.885 -3.54839 4.8358 0
M  V30 4065 H 391.564 -3.51881 5.42945 0
M  V30 4066 N 391.696 -1.35014 -0.812953 0
M  V30 4067 C 392.646 -1.23959 -1.91359 0
M  V30 4068 C 393.63 -0.136306 -1.60322 0
M  V30 4069 O 394.822 -0.366925 -1.73155 0
M  V30 4070 C 391.951 -1.00736 -3.28188 0
M  V30 4071 C 391.037 -2.15426 -3.65311 0
M  V30 4072 N 391.428 -3.40612 -3.73921 0
M  V30 4073 C 389.726 -2.06672 -3.95225 0
M  V30 4074 C 390.427 -4.15994 -4.06601 0
M  V30 4075 N 389.403 -3.44685 -4.20349 0
M  V30 4076 H 393.205 -2.18815 -1.96208 0
M  V30 4077 H 390.719 -1.27395 -1.00718 0
M  V30 4078 H 392.716 -0.909052 -4.06868 0
M  V30 4079 H 391.376 -0.067586 -3.2463 0
M  V30 4080 H 392.387 -3.75043 -3.5716 0
M  V30 4081 H 389.064 -1.20511 -3.99729 0
M  V30 4082 H 390.454 -5.24145 -4.20382 0
M  V30 4083 N 393.175 1.03435 -1.18907 0
M  V30 4084 C 394.422 1.76743 -0.988334 0
M  V30 4085 C 394.75 1.88447 0.481441 0
M  V30 4086 O 394.005 1.39383 1.37371 0
M  V30 4087 C 394.304 3.19792 -1.59586 0
M  V30 4088 C 393.97 3.28108 -3.09283 0
M  V30 4089 C 392.632 3.30084 -3.5014 0
M  V30 4090 C 394.984 3.27696 -4.05296 0
M  V30 4091 C 392.312 3.29299 -4.85571 0
M  V30 4092 C 394.664 3.28451 -5.4065 0
M  V30 4093 C 393.328 3.28723 -5.80946 0
M  V30 4094 H 392.598 0.64675 -0.361657 0
M  V30 4095 H 395.245 1.21442 -1.48068 0
M  V30 4096 H 393.55 3.78136 -1.02568 0
M  V30 4097 H 395.247 3.75171 -1.41589 0
M  V30 4098 H 391.837 3.27294 -2.76725 0
M  V30 4099 H 396.021 3.25354 -3.74778 0
M  V30 4100 H 391.277 3.2783 -5.16079 0
M  V30 4101 H 395.451 3.27082 -6.14809 0
M  V30 4102 H 393.078 3.27868 -6.85862 0
M  V30 4103 N 394.653 0.992116 1.22453 0
M  V30 4104 C 395.586 0.486701 2.22949 0
M  V30 4105 C 396.564 -0.45259 1.56174 0
M  V30 4106 O 397.748 -0.378317 1.84665 0
M  V30 4107 C 394.875 -0.294537 3.37417 0
M  V30 4108 C 393.921 0.590628 4.22391 0
M  V30 4109 S 394.754 2.04546 4.94895 0
M  V30 4110 C 395.91 1.27369 6.12803 0
M  V30 4111 H 396.143 1.33828 2.65475 0
M  V30 4112 H 393.676 0.799023 1.32117 0
M  V30 4113 H 395.634 -0.739241 4.03789 0
M  V30 4114 H 394.295 -1.12139 2.934 0
M  V30 4115 H 393.488 -0.0104375 5.03999 0
M  V30 4116 H 393.09 0.972064 3.61147 0
M  V30 4117 H 395.382 0.540943 6.75337 0
M  V30 4118 H 396.325 2.06502 6.7732 0
M  V30 4119 H 396.733 0.787324 5.58983 0
M  V30 4120 N 396.131 -1.37776 0.765217 0
M  V30 4121 C 397.061 -2.32945 0.160953 0
M  V30 4122 C 398.042 -1.55454 -0.690516 0
M  V30 4123 O 399.227 -1.83721 -0.629318 0
M  V30 4124 C 396.357 -3.39669 -0.724031 0
M  V30 4125 C 395.311 -4.27992 0.0256173 0
M  V30 4126 C 394.637 -5.25673 -0.978383 0
M  V30 4127 C 395.937 -5.08309 1.20082 0
M  V30 4128 H 397.631 -2.83728 0.955969 0
M  V30 4129 H 395.177 -1.36416 0.461149 0
M  V30 4130 H 397.13 -4.05219 -1.15652 0
M  V30 4131 H 395.854 -2.87396 -1.5515 0
M  V30 4132 H 394.513 -3.63964 0.438812 0
M  V30 4133 H 394.161 -4.69682 -1.80022 0
M  V30 4134 H 393.861 -5.85625 -0.481378 0
M  V30 4135 H 395.385 -5.94098 -1.40995 0
M  V30 4136 H 396.799 -5.67034 0.845307 0
M  V30 4137 H 395.196 -5.77554 1.62947 0
M  V30 4138 H 396.266 -4.41365 2.00811 0
M  V30 4139 N 397.609 -0.515225 -1.4894 0
M  V30 4140 C 398.834 0.022727 -2.07388 0
M  V30 4141 C 399.259 1.2876 -1.37122 0
M  V30 4142 O 398.617 1.76067 -0.432431 0
M  V30 4143 C 398.665 0.244869 -3.59768 0
M  V30 4144 O 397.769 1.31667 -3.90817 0
M  V30 4145 H 397.11 -0.0325506 -0.663202 0
M  V30 4146 H 399.64 -0.718918 -1.91553 0
M  V30 4147 H 399.65 0.47205 -4.0526 0
M  V30 4148 H 398.325 -0.679194 -4.10317 0
M  V30 4149 H 396.902 1.07331 -3.5712 0
M  V30 4150 N 399.087 1.5561 -0.249682 0
M  V30 4151 C 400.312 2.03865 0.381305 0
M  V30 4152 C 400.737 1.12769 1.50548 0
M  V30 4153 O 400.095 0.121189 1.80895 0
M  V30 4154 C 400.143 3.50101 0.863816 0
M  V30 4155 O 399.247 3.62132 1.97318 0
M  V30 4156 H 398.588 0.658827 0.0827194 0
M  V30 4157 H 401.118 2.01105 -0.376552 0
M  V30 4158 H 401.128 3.90975 1.1663 0
M  V30 4159 H 399.803 4.1588 0.0411816 0
M  V30 4160 H 398.38 3.33155 1.67517 0
M  V30 4161 N 400.565 -0.0233959 1.57583 0
M  V30 4162 C 401.795 -0.723631 1.93513 0
M  V30 4163 C 402.203 -1.69115 0.848333 0
M  V30 4164 O 401.546 -1.82781 -0.183484 0
M  V30 4165 C 401.608 -1.53075 3.25282 0
M  V30 4166 C 401.272 -0.727388 4.51174 0
M  V30 4167 C 402.269 -0.0251924 5.19894 0
M  V30 4168 C 399.954 -0.680256 4.97672 0
M  V30 4169 C 401.948 0.713374 6.33395 0
M  V30 4170 C 399.635 0.0620523 6.11068 0
M  V30 4171 C 400.633 0.757622 6.78785 0
M  V30 4172 O 400.321 1.48787 7.90011 0
M  V30 4173 H 400.053 -0.208051 0.643188 0
M  V30 4174 H 402.607 0.0167489 2.05393 0
M  V30 4175 H 400.837 -2.31508 3.09744 0
M  V30 4176 H 402.526 -2.11413 3.46496 0
M  V30 4177 H 403.292 -0.0526003 4.84971 0
M  V30 4178 H 399.171 -1.21116 4.44805 0
M  V30 4179 H 402.715 1.25683 6.86185 0
M  V30 4180 H 398.612 0.0913634 6.45435 0
M  V30 4181 H 399.38 1.40213 8.06401 0
M  V30 4182 N 402.043 -1.548 -0.295768 0
M  V30 4183 C 403.006 -1.85363 -1.34808 0
M  V30 4184 C 404.006 -0.726817 -1.43436 0
M  V30 4185 O 405.196 -0.995088 -1.42981 0
M  V30 4186 C 402.328 -2.03859 -2.73229 0
M  V30 4187 H 403.521 -2.7941 -1.08949 0
M  V30 4188 H 401.074 -1.46942 -0.532702 0
M  V30 4189 H 401.809 -1.12117 -3.04303 0
M  V30 4190 H 401.594 -2.8588 -2.68356 0
M  V30 4191 H 403.084 -2.28857 -3.49305 0
M  V30 4192 N 403.521 0.559213 -1.47345 0
M  V30 4193 C 404.932 1.14134 -1.47751 0
M  V30 4194 C 405.283 1.94834 -0.231103 0
M  V30 4195 O 404.408 2.05957 0.664137 0
M  V30 4196 C 405.003 2.07653 -2.67705 0
M  V30 4197 C 403.562 2.61141 -2.71076 0
M  V30 4198 C 402.709 1.3748 -2.40821 0
M  V30 4199 H 405.66 0.345917 -1.54884 0
M  V30 4200 H 405.681 2.91497 -2.44561 0
M  V30 4201 H 405.193 1.4889 -3.58404 0
M  V30 4202 H 403.294 3.23707 -1.84511 0
M  V30 4203 H 403.407 3.02272 -3.7171 0
M  V30 4204 H 401.771 1.68086 -1.91362 0
M  V30 4205 H 402.554 0.805135 -3.33725 0
M  V30 4206 N 404.999 1.35443 0.805782 0
M  V30 4207 C 406.245 1.28952 1.56522 0
M  V30 4208 C 406.578 -0.135597 1.93726 0
M  V30 4209 O 405.853 -1.08516 1.61414 0
M  V30 4210 C 406.136 2.19678 2.85331 0
M  V30 4211 C 405.989 3.7081 2.54598 0
M  V30 4212 C 407.308 2.09495 3.8704 0
M  V30 4213 H 404.427 0.469764 0.567883 0
M  V30 4214 H 407.069 1.65851 0.927001 0
M  V30 4215 H 405.219 1.8834 3.39795 0
M  V30 4216 H 406.891 4.12593 2.06312 0
M  V30 4217 H 405.134 3.91051 1.8778 0
M  V30 4218 H 405.805 4.29679 3.46525 0
M  V30 4219 H 408.281 2.37045 3.41978 0
M  V30 4220 H 407.157 2.75173 4.74943 0
M  V30 4221 H 407.418 1.07714 4.28777 0
M  V30 4222 N 406.477 -1.02803 1.19454 0
M  V30 4223 C 407.723 -1.76478 0.999171 0
M  V30 4224 C 408.056 -1.88456 -0.468828 0
M  V30 4225 O 407.331 -1.40198 -1.34814 0
M  V30 4226 C 407.614 -3.19044 1.66981 0
M  V30 4227 C 407.467 -3.14932 3.21151 0
M  V30 4228 C 408.786 -4.17456 1.39349 0
M  V30 4229 H 405.905 -0.640614 0.364393 0
M  V30 4230 H 408.547 -1.20005 1.47305 0
M  V30 4231 H 406.697 -3.67263 1.2669 0
M  V30 4232 H 408.369 -2.74605 3.70661 0
M  V30 4233 H 406.612 -2.52625 3.52652 0
M  V30 4234 H 407.283 -4.1566 3.63223 0
M  V30 4235 H 409.759 -3.77842 1.74283 0
M  V30 4236 H 408.635 -5.154 1.88823 0
M  V30 4237 H 408.896 -4.40949 0.318813 0
M  V30 4238 N 407.956 -0.998596 -1.21925 0
M  V30 4239 C 409.181 -0.696015 -1.95372 0
M  V30 4240 C 409.606 0.733826 -1.73195 0
M  V30 4241 O 408.964 1.50242 -1.01474 0
M  V30 4242 C 409.012 -1.01466 -3.4603 0
M  V30 4243 O 408.116 -0.116415 -4.12236 0
M  V30 4244 H 407.457 -0.259938 -0.611006 0
M  V30 4245 H 409.987 -1.33711 -1.54863 0
M  V30 4246 H 409.997 -0.958855 -3.96573 0
M  V30 4247 H 408.672 -2.05653 -3.61497 0
M  V30 4248 H 407.249 -0.228193 -3.72201 0
M  V30 4249 N 409.434 1.37368 -0.772513 0
M  V30 4250 C 410.397 2.28601 -0.165541 0
M  V30 4251 C 411.397 1.48062 0.627238 0
M  V30 4252 O 412.587 1.68268 0.450715 0
M  V30 4253 C 409.719 3.32023 0.772897 0
M  V30 4254 H 410.912 2.83787 -0.969787 0
M  V30 4255 H 408.465 1.46647 -0.540775 0
M  V30 4256 H 409.2 2.81962 1.60212 0
M  V30 4257 H 408.985 3.91555 0.206585 0
M  V30 4258 H 410.475 4.00197 1.19298 0
M  V30 4259 N 410.912 0.523116 1.48665 0
M  V30 4260 C 411.822 -0.247406 2.33292 0
M  V30 4261 C 412.838 -0.945769 1.46052 0
M  V30 4262 O 414.014 -0.922253 1.79043 0
M  V30 4263 C 411.079 -1.28487 3.22012 0
M  V30 4264 C 410.14 -0.597592 4.2512 0
M  V30 4265 C 409.373 -1.58563 5.09601 0
M  V30 4266 O 409.596 -2.81763 4.95949 0
M  V30 4267 O 408.53 -1.12879 5.91221 0
M  V30 4268 H 412.356 0.445869 3.00409 0
M  V30 4269 H 409.941 0.284128 1.46673 0
M  V30 4270 H 411.823 -1.88459 3.7691 0
M  V30 4271 H 410.498 -1.96068 2.57564 0
M  V30 4272 H 409.405 0.0424407 3.74076 0
M  V30 4273 H 410.738 0.0361517 4.92187 0
M  V30 4274 N 412.39 -1.55475 0.257931 0
M  V30 4275 C 413.337 -2.21837 -0.636939 0
M  V30 4276 C 414.307 -1.18596 -1.16294 0
M  V30 4277 O 415.492 -1.47081 -1.21539 0
M  V30 4278 C 412.632 -2.9301 -1.82317 0
M  V30 4279 C 411.745 -4.10931 -1.33265 0
M  V30 4280 C 410.88 -4.69791 -2.47931 0
M  V30 4281 C 409.919 -5.7994 -1.95796 0
M  V30 4282 N 409.056 -6.32935 -3.0387 0
M  V30 4283 H 413.896 -2.9793 -0.0643591 0
M  V30 4284 H 411.433 -1.47086 -0.0200031 0
M  V30 4285 H 413.391 -3.3248 -2.52018 0
M  V30 4286 H 412.021 -2.1937 -2.36805 0
M  V30 4287 H 411.073 -3.76699 -0.52931 0
M  V30 4288 H 412.385 -4.90417 -0.910654 0
M  V30 4289 H 411.539 -5.11892 -3.25656 0
M  V30 4290 H 410.278 -3.89545 -2.93438 0
M  V30 4291 H 409.283 -5.37305 -1.16546 0
M  V30 4292 H 410.508 -6.62043 -1.51246 0
M  V30 4293 H 408.454 -5.55591 -3.48791 0
M  V30 4294 H 408.371 -7.07645 -2.66035 0
M  V30 4295 H 409.639 -6.79695 -3.81621 0
M  V30 4296 N 413.868 0.0150385 -1.57593 0
M  V30 4297 C 414.831 0.995996 -2.06428 0
M  V30 4298 C 415.831 1.2818 -0.970903 0
M  V30 4299 O 417.021 1.22949 -1.23406 0
M  V30 4300 C 414.153 2.32506 -2.49307 0
M  V30 4301 H 415.346 0.573873 -2.94358 0
M  V30 4302 H 412.899 0.262186 -1.54085 0
M  V30 4303 H 413.634 2.79438 -1.64575 0
M  V30 4304 H 413.419 2.13087 -3.29145 0
M  V30 4305 H 414.909 3.02906 -2.87468 0
M  V30 4306 N 415.346 1.54954 0.287554 0
M  V30 4307 C 416.576 1.78622 1.03816 0
M  V30 4308 C 416.984 0.552451 1.80955 0
M  V30 4309 O 416.327 -0.487665 1.77109 0
M  V30 4310 C 416.389 2.94975 2.055 0
M  V30 4311 C 416.053 4.32565 1.47433 0
M  V30 4312 C 417.05 5.12096 0.897436 0
M  V30 4313 C 414.735 4.79195 1.50591 0
M  V30 4314 C 416.729 6.36383 0.359851 0
M  V30 4315 C 414.416 6.03441 0.964459 0
M  V30 4316 C 415.414 6.81872 0.392413 0
M  V30 4317 O 415.102 8.03777 -0.140788 0
M  V30 4318 H 414.834 0.599144 0.313053 0
M  V30 4319 H 417.388 2.02761 0.328225 0
M  V30 4320 H 415.618 2.66493 2.80211 0
M  V30 4321 H 417.307 3.06097 2.6657 0
M  V30 4322 H 418.073 4.77209 0.865841 0
M  V30 4323 H 413.952 4.18167 1.94055 0
M  V30 4324 H 417.496 6.97545 -0.0872951 0
M  V30 4325 H 413.393 6.37813 0.993246 0
M  V30 4326 H 414.161 8.18495 -0.0287617 0
M  V30 4327 N 416.824 -0.551391 1.4764 0
M  V30 4328 C 417.774 -1.65362 1.56969 0
M  V30 4329 C 418.758 -1.55098 0.428189 0
M  V30 4330 O 419.95 -1.63481 0.678441 0
M  V30 4331 C 417.079 -3.04129 1.59249 0
M  V30 4332 C 416.165 -3.19576 2.78804 0
M  V30 4333 N 416.556 -3.05067 4.03445 0
M  V30 4334 C 414.854 -3.50588 2.75688 0
M  V30 4335 C 415.555 -3.2336 4.83543 0
M  V30 4336 N 414.531 -3.4996 4.15968 0
M  V30 4337 H 418.333 -1.52722 2.51104 0
M  V30 4338 H 415.847 -0.756303 1.43714 0
M  V30 4339 H 417.844 -3.83278 1.64024 0
M  V30 4340 H 416.504 -3.17877 0.662148 0
M  V30 4341 H 417.515 -2.82273 4.34215 0
M  V30 4342 H 414.192 -3.70827 1.91817 0
M  V30 4343 H 415.582 -3.17061 5.92387 0
M  V30 4344 N 418.302 -1.35869 -0.798587 0
M  V30 4345 C 419.212 -1.31578 -1.94228 0
M  V30 4346 C 420.228 -0.21939 -1.72611 0
M  V30 4347 O 421.404 -0.450167 -1.96305 0
M  V30 4348 C 418.469 -1.09528 -3.28944 0
M  V30 4349 C 417.53 -2.28556 -3.63402 0
M  V30 4350 C 416.763 -2.07549 -4.9169 0
M  V30 4351 O 416.986 -1.046 -5.60727 0
M  V30 4352 O 415.92 -2.95106 -5.24591 0
M  V30 4353 H 419.746 -2.27847 -2.00796 0
M  V30 4354 H 417.331 -1.16322 -0.937526 0
M  V30 4355 H 419.213 -0.991127 -4.09579 0
M  V30 4356 H 417.888 -0.16315 -3.23289 0
M  V30 4357 H 416.795 -2.44538 -2.83112 0
M  V30 4358 H 418.128 -3.20244 -3.73771 0
M  V30 4359 N 419.78 1.02168 -1.19998 0
M  V30 4360 C 420.712 2.10705 -0.901994 0
M  V30 4361 C 421.725 1.6244 0.108216 0
M  V30 4362 O 422.914 1.78082 -0.12214 0
M  V30 4363 C 420.014 3.37291 -0.329834 0
M  V30 4364 C 419.187 4.14714 -1.39035 0
M  V30 4365 C 418.246 5.19606 -0.830432 0
M  V30 4366 O 417.272 5.48809 -1.50989 0
M  V30 4367 N 418.474 5.79366 0.362696 0
M  V30 4368 H 421.239 2.36856 -1.83628 0
M  V30 4369 H 418.8 1.18518 -1.10296 0
M  V30 4370 H 420.792 4.04657 0.0587633 0
M  V30 4371 H 419.362 3.0843 0.508891 0
M  V30 4372 H 418.582 3.42392 -1.9535 0
M  V30 4373 H 419.87 4.63226 -2.10474 0
M  V30 4374 H 419.268 5.57968 0.932081 0
M  V30 4375 H 417.825 6.48106 0.69299 0
M  V30 4376 N 421.258 1.00505 1.21394 0
M  V30 4377 C 422.188 0.585684 2.26035 0
M  V30 4378 C 423.169 -0.393525 1.65485 0
M  V30 4379 O 424.354 -0.281497 1.92149 0
M  V30 4380 C 421.484 -0.0884283 3.47187 0
M  V30 4381 C 420.438 0.810567 4.20254 0
M  V30 4382 C 419.764 0.00286382 5.347 0
M  V30 4383 C 421.064 2.1132 4.77641 0
M  V30 4384 H 422.758 1.46039 2.61368 0
M  V30 4385 H 420.304 0.703648 1.25638 0
M  V30 4386 H 422.257 -0.393286 4.19561 0
M  V30 4387 H 420.981 -0.997766 3.10986 0
M  V30 4388 H 419.64 1.09925 3.49731 0
M  V30 4389 H 419.288 -0.907765 4.94741 0
M  V30 4390 H 418.988 0.601444 5.84514 0
M  V30 4391 H 420.512 -0.295808 6.09883 0
M  V30 4392 H 421.926 1.87148 5.41893 0
M  V30 4393 H 420.323 2.66164 5.37845 0
M  V30 4394 H 421.393 2.78393 3.9702 0
M  V30 4395 N 422.737 -1.36956 0.779787 0
M  V30 4396 C 423.962 -2.04283 0.358224 0
M  V30 4397 C 424.387 -1.58422 -1.01411 0
M  V30 4398 O 423.745 -0.748179 -1.65142 0
M  V30 4399 C 423.793 -3.58152 0.419479 0
M  V30 4400 O 422.897 -4.08342 -0.577142 0
M  V30 4401 H 422.238 -0.645967 0.153698 0
M  V30 4402 H 424.768 -1.75108 1.05822 0
M  V30 4403 H 424.778 -4.07041 0.279636 0
M  V30 4404 H 423.453 -3.90886 1.42061 0
M  V30 4405 H 422.03 -3.70751 -0.399755 0
M  V30 4406 N 424.215 -0.530993 -1.48385 0
M  V30 4407 C 425.461 0.00274135 -2.028 0
M  V30 4408 C 425.794 1.33838 -1.40716 0
M  V30 4409 O 425.069 1.86465 -0.553277 0
M  V30 4410 C 425.352 0.123676 -3.59888 0
M  V30 4411 C 425.205 -1.2372 -4.3245 0
M  V30 4412 C 426.524 0.849967 -4.31814 0
M  V30 4413 H 423.643 -0.000477758 -0.737 0
M  V30 4414 H 426.285 -0.688217 -1.77098 0
M  V30 4415 H 424.435 0.712157 -3.81917 0
M  V30 4416 H 426.107 -1.86687 -4.21836 0
M  V30 4417 H 424.35 -1.81882 -3.93829 0
M  V30 4418 H 425.021 -1.10557 -5.40815 0
M  V30 4419 H 427.497 0.350572 -4.14621 0
M  V30 4420 H 426.373 0.903486 -5.41413 0
M  V30 4421 H 426.634 1.90047 -3.99167 0
M  V30 4422 N 425.693 1.55336 -0.266172 0
M  V30 4423 C 426.918 2.04258 0.359661 0
M  V30 4424 C 427.343 1.14359 1.49344 0
M  V30 4425 O 426.701 0.140369 1.80756 0
M  V30 4426 C 426.749 3.50997 0.826635 0
M  V30 4427 O 425.853 3.64204 1.93466 0
M  V30 4428 H 425.194 0.659668 0.075727 0
M  V30 4429 H 427.724 2.00694 -0.39786 0
M  V30 4430 H 427.734 3.9219 1.12477 0
M  V30 4431 H 426.409 4.159 -0.00293032 0
M  V30 4432 H 424.986 3.34913 1.63974 0
M  V30 4433 N 427.171 -0.0066808 1.57599 0
M  V30 4434 C 428.081 -1.01671 2.11424 0
M  V30 4435 C 429.097 -1.38143 1.05795 0
M  V30 4436 O 430.273 -1.47011 1.37658 0
M  V30 4437 C 427.338 -2.29192 2.60139 0
M  V30 4438 C 426.399 -1.99094 3.80342 0
M  V30 4439 C 425.632 -3.20535 4.26724 0
M  V30 4440 O 425.855 -4.3199 3.72479 0
M  V30 4441 O 424.789 -3.04924 5.18946 0
M  V30 4442 H 428.615 -0.589181 2.9793 0
M  V30 4443 H 426.2 -0.225091 1.47695 0
M  V30 4444 H 428.082 -3.0412 2.917 0
M  V30 4445 H 426.757 -2.71195 1.76733 0
M  V30 4446 H 425.664 -1.21663 3.53764 0
M  V30 4447 H 426.997 -1.61931 4.648 0
M  V30 4448 N 428.649 -1.55105 -0.279332 0
M  V30 4449 C 429.898 -1.74618 -1.00952 0
M  V30 4450 C 430.211 -0.551096 -1.87676 0
M  V30 4451 O 431.417 -0.628507 -2.64125 0
M  V30 4452 C 429.873 -3.09025 -1.84476 0
M  V30 4453 C 429.481 -4.36081 -1.0265 0
M  V30 4454 C 431.225 -3.37891 -2.56963 0
M  V30 4455 C 429.132 -5.6153 -1.85576 0
M  V30 4456 H 428.062 -0.650868 -0.38064 0
M  V30 4457 H 430.713 -1.81569 -0.265475 0
M  V30 4458 H 429.095 -2.96095 -2.62952 0
M  V30 4459 H 430.269 -4.59909 -0.286354 0
M  V30 4460 H 428.584 -4.14312 -0.416464 0
M  V30 4461 H 431.181 -4.28822 -3.19399 0
M  V30 4462 H 431.524 -2.57737 -3.26921 0
M  V30 4463 H 432.057 -3.5189 -1.85522 0
M  V30 4464 H 428.796 -6.44413 -1.2005 0
M  V30 4465 H 428.316 -5.41854 -2.57204 0
M  V30 4466 H 429.995 -5.99594 -2.43096 0
M  V30 4467 N 430.127 0.543554 -1.4793 0
M  V30 4468 C 431.355 1.32516 -1.58894 0
M  V30 4469 C 431.77 1.87215 -0.244131 0
M  V30 4470 O 431.127 1.65709 0.764652 0
M  V30 4471 C 431.178 2.48554 -2.62494 0
M  V30 4472 O 430.899 1.96112 -3.91755 0
M  V30 4473 C 432.4 3.40572 -2.8377 0
M  V30 4474 H 429.62 0.403472 -0.536145 0
M  V30 4475 H 432.164 0.657106 -1.93655 0
M  V30 4476 H 430.319 3.1127 -2.30629 0
M  V30 4477 H 430.733 2.71967 -4.4848 0
M  V30 4478 H 432.207 4.18375 -3.60093 0
M  V30 4479 H 432.684 3.94965 -1.92092 0
M  V30 4480 H 433.29 2.8366 -3.16887 0
M  V30 4481 N 431.605 1.3629 0.791371 0
M  V30 4482 C 432.553 1.30514 1.92533 0
M  V30 4483 C 433.547 0.197285 1.68247 0
M  V30 4484 O 434.753 0.364176 1.76278 0
M  V30 4485 H 431.128 0.406263 0.632815 0
M  V30 4486 H 433.099 2.26282 1.94523 0
M  V30 4487 C 431.848 1.10933 3.29529 0
M  V30 4488 H 431.171 1.95427 3.48781 0
M  V30 4489 H 432.611 1.10937 4.0923 0
M  V30 4490 C 431.07 -0.186123 3.36385 0
M  V30 4491 O 431.6 -1.17664 3.84081 0
M  V30 4492 N 429.806 -0.230128 2.89687 0
M  V30 4493 H 429.353 0.576545 2.51065 0
M  V30 4494 H 429.311 -1.09658 2.94657 0
M  V30 4495 N 433.083 -1.0153 1.20538 0
M  V30 4496 C 434.308 -1.79283 1.04271 0
M  V30 4497 C 434.733 -1.8372 -0.403544 0
M  V30 4498 O 434.091 -1.27321 -1.2907 0
M  V30 4499 C 434.139 -3.21535 1.63241 0
M  V30 4500 O 433.243 -4.03099 0.870908 0
M  V30 4501 H 432.584 -0.55293 0.367647 0
M  V30 4502 H 435.114 -1.27696 1.59859 0
M  V30 4503 H 435.124 -3.72243 1.6703 0
M  V30 4504 H 433.799 -3.1762 2.68497 0
M  V30 4505 H 432.376 -3.61693 0.907323 0
M  V30 4506 N 434.561 -1.01147 -1.20859 0
M  V30 4507 C 435.524 -0.582224 -2.21682 0
M  V30 4508 C 436.524 0.344887 -1.57058 0
M  V30 4509 O 437.714 0.134281 -1.73682 0
M  V30 4510 C 434.846 0.150496 -3.40568 0
M  V30 4511 H 436.039 -1.47408 -2.61172 0
M  V30 4512 H 433.592 -0.800695 -1.34233 0
M  V30 4513 H 434.327 1.0575 -3.06574 0
M  V30 4514 H 434.112 -0.515444 -3.88697 0
M  V30 4515 H 435.602 0.438344 -4.15293 0
M  V30 4516 N 436.039 1.36541 -0.78704 0
M  V30 4517 C 437.286 1.99304 -0.358341 0
M  V30 4518 C 437.614 1.62467 1.06933 0
M  V30 4519 O 436.869 0.870019 1.75297 0
M  V30 4520 C 437.168 3.54343 -0.466485 0
M  V30 4521 C 436.834 4.10993 -1.85461 0
M  V30 4522 C 435.496 4.26177 -2.23443 0
M  V30 4523 C 437.848 4.41895 -2.76366 0
M  V30 4524 C 435.176 4.69573 -3.51736 0
M  V30 4525 C 437.528 4.86722 -4.04084 0
M  V30 4526 C 436.192 5.00112 -4.42091 0
M  V30 4527 H 435.462 0.729306 -0.131126 0
M  V30 4528 H 438.109 1.63068 -1.00404 0
M  V30 4529 H 436.414 3.90918 0.262719 0
M  V30 4530 H 438.111 4.00833 -0.115854 0
M  V30 4531 H 434.701 3.99612 -1.54946 0
M  V30 4532 H 438.885 4.29735 -2.48277 0
M  V30 4533 H 434.141 4.78127 -3.81057 0
M  V30 4534 H 438.315 5.09598 -4.7464 0
M  V30 4535 H 435.942 5.33498 -5.41557 0
M  V30 4536 N 437.518 0.538854 1.48102 0
M  V30 4537 C 438.428 -0.222648 2.33541 0
M  V30 4538 C 439.444 -0.930225 1.47047 0
M  V30 4539 O 440.62 -0.903211 1.80011 0
M  V30 4540 C 437.685 -1.25064 3.23357 0
M  V30 4541 C 436.746 -0.552469 4.2573 0
M  V30 4542 C 435.979 -1.53149 5.11254 0
M  V30 4543 O 436.202 -2.76487 4.9891 0
M  V30 4544 O 435.136 -1.06602 5.92385 0
M  V30 4545 H 438.962 0.477707 2.99919 0
M  V30 4546 H 436.547 0.299669 1.46364 0
M  V30 4547 H 438.429 -1.8445 3.78888 0
M  V30 4548 H 437.104 -1.93325 2.59629 0
M  V30 4549 H 436.011 0.082114 3.7401 0
M  V30 4550 H 437.344 0.0883526 4.92121 0
M  V30 4551 N 438.996 -1.55193 0.274407 0
M  V30 4552 C 440.407 -1.85358 -0.223488 0
M  V30 4553 C 440.758 -1.19642 -1.555 0
M  V30 4554 O 439.883 -0.484498 -2.10907 0
M  V30 4555 C 440.478 -3.36282 -0.412285 0
M  V30 4556 C 439.037 -3.66574 -0.854413 0
M  V30 4557 C 438.184 -2.7725 0.0527056 0
M  V30 4558 H 441.135 -1.50743 0.496215 0
M  V30 4559 H 441.156 -3.59349 -1.25094 0
M  V30 4560 H 440.668 -3.84083 0.556965 0
M  V30 4561 H 438.769 -3.24273 -1.83516 0
M  V30 4562 H 438.882 -4.74073 -0.692226 0
M  V30 4563 H 437.246 -2.50447 -0.463484 0
M  V30 4564 H 438.029 -3.27865 1.01783 0
M  V30 4565 N 440.474 -0.00167713 -1.576 0
M  V30 4566 C 441.437 0.974046 -2.07473 0
M  V30 4567 C 442.437 1.27143 -0.984444 0
M  V30 4568 O 443.627 1.21633 -1.24703 0
M  V30 4569 C 440.759 2.29849 -2.51759 0
M  V30 4570 H 441.952 0.54262 -2.9495 0
M  V30 4571 H 439.505 0.245829 -1.54355 0
M  V30 4572 H 440.24 2.77677 -1.67529 0
M  V30 4573 H 440.025 2.09584 -3.31386 0
M  V30 4574 H 441.515 2.9984 -2.90664 0
M  V30 4575 N 441.952 1.55251 0.271103 0
M  V30 4576 C 442.9 1.89054 1.35504 0
M  V30 4577 C 443.894 0.767064 1.51038 0
M  V30 4578 O 445.1 0.951429 1.528 0
M  V30 4579 H 441.475 0.600072 0.45323 0
M  V30 4580 H 443.446 2.79598 1.04247 0
M  V30 4581 C 442.195 2.18068 2.70817 0
M  V30 4582 H 441.518 3.04005 2.59656 0
M  V30 4583 H 442.958 2.4564 3.45597 0
M  V30 4584 C 441.417 0.988901 3.2206 0
M  V30 4585 O 441.947 0.224501 4.01072 0
M  V30 4586 N 440.153 0.786085 2.79766 0
M  V30 4587 H 439.7 1.40937 2.15626 0
M  V30 4588 H 439.658 -0.00969349 3.14399 0
M  V30 4589 N 443.43 -0.535701 1.48216 0
M  V30 4590 C 444.363 -1.65726 1.56876 0
M  V30 4591 C 445.341 -1.57094 0.419542 0
M  V30 4592 O 446.525 -1.77648 0.630352 0
M  V30 4593 C 443.652 -3.04096 1.49142 0
M  V30 4594 C 442.698 -3.31105 2.68834 0
M  V30 4595 S 443.531 -3.18001 4.30854 0
M  V30 4596 C 444.687 -4.58828 4.25709 0
M  V30 4597 H 444.92 -1.58129 2.51759 0
M  V30 4598 H 442.453 -0.718218 1.36678 0
M  V30 4599 H 444.411 -3.839 1.45366 0
M  V30 4600 H 443.072 -3.09139 0.556067 0
M  V30 4601 H 442.265 -4.32033 2.59545 0
M  V30 4602 H 441.867 -2.58961 2.69843 0
M  V30 4603 H 444.159 -5.5023 3.95289 0
M  V30 4604 H 445.102 -4.73172 5.26796 0
M  V30 4605 H 445.51 -4.37883 3.56257 0
M  V30 4606 N 444.908 -1.36708 -0.784132 0
M  V30 4607 C 445.841 -1.25827 -1.90375 0
M  V30 4608 C 446.819 -0.141331 -1.61985 0
M  V30 4609 O 448.003 -0.313389 -1.85877 0
M  V30 4610 C 445.13 -0.942621 -3.25319 0
M  V30 4611 C 444.176 -2.07474 -3.72635 0
M  V30 4612 S 445.009 -3.69317 -3.8777 0
M  V30 4613 C 446.165 -3.39876 -5.25581 0
M  V30 4614 H 446.398 -2.20593 -1.99314 0
M  V30 4615 H 443.931 -1.22186 -0.943926 0
M  V30 4616 H 445.889 -0.767321 -4.03265 0
M  V30 4617 H 444.55 -0.0126566 -3.14097 0
M  V30 4618 H 443.743 -1.80858 -4.70432 0
M  V30 4619 H 443.345 -2.20953 -3.01754 0
M  V30 4620 H 445.637 -2.94097 -6.10339 0
M  V30 4621 H 446.58 -4.36956 -5.57203 0
M  V30 4622 H 446.988 -2.75098 -4.92931 0
M  V30 4623 N 446.386 1.0089 -1.21074 0
M  V30 4624 C 447.349 2.0775 -0.968129 0
M  V30 4625 C 448.349 1.6069 0.0593445 0
M  V30 4626 O 449.539 1.73293 -0.177525 0
M  V30 4627 C 446.671 3.37794 -0.459108 0
M  V30 4628 H 447.864 2.30707 -1.9161 0
M  V30 4629 H 445.417 1.17807 -1.02719 0
M  V30 4630 H 446.152 3.20516 0.49397 0
M  V30 4631 H 445.937 3.7328 -1.20019 0
M  V30 4632 H 447.427 4.16454 -0.309099 0
M  V30 4633 N 447.864 1.01787 1.20321 0
M  V30 4634 C 448.811 0.589197 2.23153 0
M  V30 4635 C 449.781 -0.391367 1.61423 0
M  V30 4636 O 450.966 -0.290518 1.88575 0
M  V30 4637 C 448.106 -0.0650747 3.45039 0
M  V30 4638 C 447.219 0.960207 4.21194 0
M  V30 4639 C 446.354 0.276854 5.30478 0
M  V30 4640 C 445.393 1.2888 5.98378 0
M  V30 4641 N 444.53 0.632031 6.99249 0
M  V30 4642 H 449.37 1.47071 2.59179 0
M  V30 4643 H 446.907 0.736192 1.27352 0
M  V30 4644 H 448.865 -0.461552 4.14639 0
M  V30 4645 H 447.495 -0.910233 3.09701 0
M  V30 4646 H 446.547 1.47484 3.50646 0
M  V30 4647 H 447.859 1.72977 4.67847 0
M  V30 4648 H 447.013 -0.175056 6.06447 0
M  V30 4649 H 445.752 -0.525004 4.84866 0
M  V30 4650 H 444.757 1.75109 5.21169 0
M  V30 4651 H 445.982 2.09196 6.46076 0
M  V30 4652 H 443.928 -0.149935 6.55829 0
M  V30 4653 H 443.845 1.33964 7.44036 0
M  V30 4654 H 445.113 0.203755 7.79234 0
M  V30 4655 N 449.342 -1.36122 0.79427 0
M  V30 4656 C 450.582 -2.00942 0.374376 0
M  V30 4657 C 450.946 -1.61666 -1.03577 0
M  V30 4658 O 452.147 -2.19113 -1.55701 0
M  V30 4659 C 450.418 -3.53323 0.538327 0
M  V30 4660 S 451.977 -4.38311 0.20703 0
M  V30 4661 H 448.795 -0.696515 0.142785 0
M  V30 4662 H 451.397 -1.65929 1.03382 0
M  V30 4663 H 450.101 -3.79395 1.56484 0
M  V30 4664 H 449.632 -3.93162 -0.136882 0
M  V30 4665 H 451.647 -4.8623 -0.989695 0
M  V30 4666 N 450.82 -0.546701 -1.47814 0
M  V30 4667 C 452.097 0.0464413 -1.95545 0
M  V30 4668 C 452.477 1.4962 -1.48919 0
M  V30 4669 O 451.825 2.16752 -0.723232 0
M  V30 4670 C 452.035 -0.0881298 -3.48889 0
M  V30 4671 C 453.383 0.0626059 -4.24554 0
M  V30 4672 O 454.407 -0.0151555 -3.56197 0
M  V30 4673 O 453.266 0.228071 -5.46024 0
M  V30 4674 H 450.36 0.0700004 -0.824032 0
M  V30 4675 H 452.906 -0.612482 -1.58262 0
M  V30 4676 H 451.678 -1.09737 -3.75597 0
M  V30 4677 H 451.301 0.608886 -3.9291 0
M  V30 4678 N 452.299 1.55045 -0.282633 0
M  V30 4679 C 453.71 1.85473 0.213655 0
M  V30 4680 C 454.061 1.20465 1.54863 0
M  V30 4681 O 453.186 0.495676 2.10647 0
M  V30 4682 C 453.781 3.36496 0.394445 0
M  V30 4683 C 452.34 3.67022 0.834961 0
M  V30 4684 C 451.487 2.77218 -0.0674081 0
M  V30 4685 H 454.438 1.50478 -0.504202 0
M  V30 4686 H 454.459 3.60007 1.23186 0
M  V30 4687 H 453.971 3.83782 -0.577326 0
M  V30 4688 H 452.072 3.25241 1.81794 0
M  V30 4689 H 452.185 4.74433 0.667075 0
M  V30 4690 H 450.549 2.5069 0.450196 0
M  V30 4691 H 451.332 3.2732 -1.0352 0
M  V30 4692 N 453.777 0.010035 1.57597 0
M  V30 4693 C 455.193 -0.346164 1.55801 0
M  V30 4694 C 455.393 -1.74144 1.01371 0
M  V30 4695 O 454.449 -2.43938 0.651968 0
M  V30 4696 C 455.762 -0.212216 2.9995 0
M  V30 4697 C 457.31 -0.286409 3.11687 0
M  V30 4698 C 457.785 -0.18147 4.5764 0
M  V30 4699 N 459.276 -0.239056 4.62583 0
M  V30 4700 C 460.011 -0.181351 5.73113 0
M  V30 4701 N 459.507 -0.073661 6.92761 0
M  V30 4702 N 461.3 -0.233949 5.61613 0
M  V30 4703 H 453.451 0.922657 1.91313 0
M  V30 4704 H 455.714 0.354595 0.879185 0
M  V30 4705 H 455.42 0.748169 3.4365 0
M  V30 4706 H 455.294 -0.990224 3.6397 0
M  V30 4707 H 457.681 -1.23724 2.67911 0
M  V30 4708 H 457.762 0.521645 2.50425 0
M  V30 4709 H 457.406 0.765863 5.02093 0
M  V30 4710 H 457.336 -1.00814 5.1686 0
M  V30 4711 H 459.827 -0.32321 3.76515 0
M  V30 4712 H 460.14 -0.0358003 7.72792 0
M  V30 4713 H 458.485 -0.0391461 6.94989 0
M  V30 4714 H 461.676 -0.316347 4.6703 0
M  V30 4715 H 461.849 -0.185514 6.47734 0
M  V30 4716 N 455.255 -1.55392 -0.262866 0
M  V30 4717 C 456.205 -1.85355 -1.32768 0
M  V30 4718 C 457.189 -0.713188 -1.44231 0
M  V30 4719 O 458.381 -0.974765 -1.47741 0
M  V30 4720 C 455.51 -2.13781 -2.68612 0
M  V30 4721 C 454.596 -3.34104 -2.61219 0
M  V30 4722 N 454.987 -4.53766 -2.2345 0
M  V30 4723 C 453.285 -3.36895 -2.92263 0
M  V30 4724 C 453.986 -5.35877 -2.26298 0
M  V30 4725 N 452.962 -4.74536 -2.65172 0
M  V30 4726 H 456.764 -2.75413 -1.02591 0
M  V30 4727 H 454.278 -1.55405 -0.471503 0
M  V30 4728 H 456.275 -2.33407 -3.45437 0
M  V30 4729 H 454.935 -1.25013 -2.99669 0
M  V30 4730 H 455.946 -4.79682 -1.95258 0
M  V30 4731 H 452.623 -2.58351 -3.27965 0
M  V30 4732 H 454.013 -6.41577 -1.99572 0
M  V30 4733 N 456.733 0.527833 -1.48498 0
M  V30 4734 C 457.981 1.28101 -1.56316 0
M  V30 4735 C 458.302 1.9352 -0.239781 0
M  V30 4736 O 457.572 1.81433 0.738849 0
M  V30 4737 H 456.152 0.475793 -0.575873 0
M  V30 4738 H 458.814 0.614052 -1.84974 0
M  V30 4739 H 457.91 2.05916 -2.34532 0
M  V30 4740 N 458.211 1.37122 0.776871 0
M  V30 4741 C 459.158 1.3247 1.88998 0
M  V30 4742 C 460.128 0.191143 1.64997 0
M  V30 4743 O 461.313 0.379683 1.86984 0
M  V30 4744 C 458.453 1.13241 3.25992 0
M  V30 4745 C 457.566 2.35782 3.61982 0
M  V30 4746 C 456.701 2.09465 4.88158 0
M  V30 4747 C 455.74 3.279 5.16864 0
M  V30 4748 N 454.877 3.01167 6.34226 0
M  V30 4749 H 459.717 2.27642 1.9231 0
M  V30 4750 H 457.254 1.13125 0.94027 0
M  V30 4751 H 459.212 1.00115 4.0501 0
M  V30 4752 H 457.842 0.217186 3.22069 0
M  V30 4753 H 456.894 2.59666 2.77989 0
M  V30 4754 H 458.206 3.24125 3.79137 0
M  V30 4755 H 457.36 1.93341 5.75069 0
M  V30 4756 H 456.099 1.18452 4.73097 0
M  V30 4757 H 455.104 3.44569 4.2843 0
M  V30 4758 H 456.329 4.19757 5.33836 0
M  V30 4759 H 454.275 2.12779 6.20533 0
M  V30 4760 H 454.192 3.83052 6.51772 0
M  V30 4761 H 455.46 2.88649 7.24087 0
M  V30 4762 N 459.689 -1.00246 1.21608 0
M  V30 4763 C 460.919 -1.77373 1.05935 0
M  V30 4764 C 461.327 -1.85059 -0.393686 0
M  V30 4765 O 460.67 -1.31289 -1.28487 0
M  V30 4766 C 460.732 -3.22705 1.58435 0
M  V30 4767 C 460.396 -3.38591 3.06929 0
M  V30 4768 C 461.393 -3.2667 4.04454 0
M  V30 4769 C 459.078 -3.6395 3.46187 0
M  V30 4770 C 461.072 -3.39877 5.39224 0
M  V30 4771 C 458.759 -3.768 4.81108 0
M  V30 4772 C 459.757 -3.6477 5.77436 0
M  V30 4773 O 459.445 -3.77206 7.09909 0
M  V30 4774 H 459.177 -0.56419 0.372378 0
M  V30 4775 H 461.731 -1.26971 1.61454 0
M  V30 4776 H 459.961 -3.74255 0.973147 0
M  V30 4777 H 461.65 -3.81515 1.38568 0
M  V30 4778 H 462.416 -3.06999 3.75468 0
M  V30 4779 H 458.295 -3.72395 2.71741 0
M  V30 4780 H 461.839 -3.30404 6.14393 0
M  V30 4781 H 457.736 -3.95975 5.09779 0
M  V30 4782 H 458.504 -3.94138 7.17355 0
M  V30 4783 N 461.167 -1.02423 -1.1978 0
M  V30 4784 C 462.1 -0.545641 -2.21581 0
M  V30 4785 C 463.078 0.411024 -1.57319 0
M  V30 4786 O 464.262 0.329223 -1.85603 0
M  V30 4787 C 461.389 0.204973 -3.38079 0
M  V30 4788 C 460.435 -0.70241 -4.20676 0
M  V30 4789 S 461.268 -2.17595 -4.89298 0
M  V30 4790 C 462.424 -1.43572 -6.09211 0
M  V30 4791 H 462.657 -1.4082 -2.61834 0
M  V30 4792 H 460.19 -0.833771 -1.29952 0
M  V30 4793 H 462.148 0.631924 -4.05607 0
M  V30 4794 H 460.809 1.0432 -2.9627 0
M  V30 4795 H 460.002 -0.123193 -5.03849 0
M  V30 4796 H 459.604 -1.06747 -3.58442 0
M  V30 4797 H 461.896 -0.719806 -6.73665 0
M  V30 4798 H 462.839 -2.24388 -6.71607 0
M  V30 4799 H 463.247 -0.935252 -5.56699 0
M  V30 4800 N 462.645 1.35699 -0.801477 0
M  V30 4801 C 463.608 2.28199 -0.213994 0
M  V30 4802 C 464.608 1.49359 0.595691 0
M  V30 4803 O 465.798 1.69186 0.414921 0
M  V30 4804 C 462.93 3.33587 0.702297 0
M  V30 4805 H 464.123 2.81666 -1.02976 0
M  V30 4806 H 461.676 1.45467 -0.571759 0
M  V30 4807 H 462.411 2.85297 1.54195 0
M  V30 4808 H 462.196 3.91906 0.123484 0
M  V30 4809 H 463.686 4.02638 1.10783 0
M  V30 4810 N 464.123 0.554532 1.47522 0
M  V30 4811 C 465.363 0.0317994 2.04375 0
M  V30 4812 C 465.727 -1.29242 1.41988 0
M  V30 4813 O 466.928 -1.90269 1.89872 0
M  V30 4814 C 465.199 -0.0623344 3.57346 0
M  V30 4815 S 466.758 -0.531578 4.35568 0
M  V30 4816 H 463.576 0.0238553 0.7106 0
M  V30 4817 H 466.178 0.74066 1.80927 0
M  V30 4818 H 464.882 0.905857 4.00278 0
M  V30 4819 H 464.413 -0.794831 3.85287 0
M  V30 4820 H 466.428 -1.79175 4.62721 0
M  V30 4821 N 465.601 -1.54893 0.290851 0
M  V30 4822 C 466.841 -2.01842 -0.322388 0
M  V30 4823 C 467.205 -1.17477 -1.51865 0
M  V30 4824 O 468.406 -1.54077 -2.20258 0
M  V30 4825 C 466.677 -3.50874 -0.679844 0
M  V30 4826 S 468.236 -4.19796 -1.27739 0
M  V30 4827 H 465.054 -0.704005 -0.0994866 0
M  V30 4828 H 467.656 -1.91015 0.416358 0
M  V30 4829 H 466.36 -4.09915 0.199435 0
M  V30 4830 H 465.891 -3.65717 -1.44964 0
M  V30 4831 H 467.906 -4.24729 -2.56554 0
M  V30 4832 N 467.08 -0.0183926 -1.57589 0
M  V30 4833 C 468.01 0.965596 -2.12599 0
M  V30 4834 C 468.991 1.34641 -1.0395 0
M  V30 4835 O 470.176 1.42693 -1.31729 0
M  V30 4836 C 467.306 2.25149 -2.64434 0
M  V30 4837 C 466.26 2.01175 -3.77773 0
M  V30 4838 C 465.586 3.35937 -4.15994 0
M  V30 4839 C 466.886 1.35953 -5.04296 0
M  V30 4840 H 468.58 0.507504 -2.95067 0
M  V30 4841 H 466.126 0.242671 -1.41941 0
M  V30 4842 H 468.079 2.94357 -3.01549 0
M  V30 4843 H 466.803 2.73105 -1.79112 0
M  V30 4844 H 465.462 1.34388 -3.4108 0
M  V30 4845 H 465.11 3.81631 -3.27669 0
M  V30 4846 H 464.81 3.20705 -4.92364 0
M  V30 4847 H 466.334 4.0643 -4.55683 0
M  V30 4848 H 467.748 1.95144 -5.39065 0
M  V30 4849 H 466.145 1.31152 -5.85593 0
M  V30 4850 H 467.215 0.331071 -4.83768 0
M  V30 4851 N 468.558 1.5553 0.254621 0
M  V30 4852 C 469.491 1.84624 1.34124 0
M  V30 4853 C 470.469 0.700693 1.46728 0
M  V30 4854 O 471.653 0.94564 1.63064 0
M  V30 4855 C 468.78 2.02412 2.71564 0
M  V30 4856 C 467.826 3.25028 2.7615 0
M  V30 4857 S 468.659 4.81893 2.33538 0
M  V30 4858 C 469.815 5.02677 3.72917 0
M  V30 4859 H 470.048 2.76501 1.09245 0
M  V30 4860 H 467.581 1.47537 0.455211 0
M  V30 4861 H 469.539 2.13345 3.50705 0
M  V30 4862 H 468.2 1.11391 2.93685 0
M  V30 4863 H 467.393 3.34418 3.77069 0
M  V30 4864 H 466.995 3.12781 2.05046 0
M  V30 4865 H 469.287 4.89546 4.68349 0
M  V30 4866 H 470.23 6.0468 3.68467 0
M  V30 4867 H 470.638 4.30561 3.65072 0
M  V30 4868 N 470.036 -0.519951 1.48776 0
M  V30 4869 C 471.266 -1.29783 1.60748 0
M  V30 4870 C 471.674 -1.87253 0.27072 0
M  V30 4871 O 471.017 -1.67628 -0.751438 0
M  V30 4872 C 471.079 -2.47984 2.60277 0
M  V30 4873 C 470.743 -2.11526 4.051 0
M  V30 4874 C 471.74 -1.66608 4.92481 0
M  V30 4875 C 469.425 -2.21742 4.50706 0
M  V30 4876 C 471.419 -1.32384 6.23501 0
M  V30 4877 C 469.106 -1.87129 5.81744 0
M  V30 4878 C 470.104 -1.42523 6.67964 0
M  V30 4879 O 469.792 -1.0837 7.96562 0
M  V30 4880 H 469.524 -0.400562 0.544542 0
M  V30 4881 H 472.078 -0.632879 1.95407 0
M  V30 4882 H 470.308 -3.17493 2.2076 0
M  V30 4883 H 471.997 -3.10036 2.61978 0
M  V30 4884 H 472.763 -1.58178 4.58481 0
M  V30 4885 H 468.642 -2.55415 3.83776 0
M  V30 4886 H 472.186 -0.974949 6.90754 0
M  V30 4887 H 468.083 -1.95204 6.15277 0
M  V30 4888 H 468.851 -1.21681 8.09405 0
M  V30 4889 N 471.514 -1.37532 -0.769588 0
M  V30 4890 C 472.93 -1.18379 -1.07045 0
M  V30 4891 C 473.13 -0.0214312 -2.01489 0
M  V30 4892 O 472.186 0.637809 -2.44312 0
M  V30 4893 C 473.499 -2.50338 -1.66588 0
M  V30 4894 C 475.047 -2.56879 -1.78835 0
M  V30 4895 C 475.522 -3.88974 -2.41792 0
M  V30 4896 N 477.013 -3.90428 -2.4924 0
M  V30 4897 C 477.748 -4.89388 -2.98809 0
M  V30 4898 N 477.244 -5.98745 -3.48535 0
M  V30 4899 N 479.037 -4.76791 -2.97703 0
M  V30 4900 H 471.188 -2.11921 -0.142541 0
M  V30 4901 H 473.451 -0.939608 -0.125863 0
M  V30 4902 H 473.157 -3.35767 -1.0466 0
M  V30 4903 H 473.031 -2.67583 -2.65856 0
M  V30 4904 H 475.418 -1.71856 -2.39895 0
M  V30 4905 H 475.499 -2.43516 -0.783166 0
M  V30 4906 H 475.143 -4.74412 -1.81371 0
M  V30 4907 H 475.073 -3.99641 -3.4292 0
M  V30 4908 H 477.564 -3.11433 -2.14052 0
M  V30 4909 H 477.877 -6.70205 -3.84767 0
M  V30 4910 H 476.222 -6.02387 -3.46634 0
M  V30 4911 H 479.413 -3.90478 -2.58157 0
M  V30 4912 H 479.586 -5.54069 -3.36024 0
M  V30 4913 N 472.992 0.995999 -1.22138 0
M  V30 4914 C 474.24 1.73167 -1.042 0
M  V30 4915 C 474.561 1.90329 0.42423 0
M  V30 4916 O 473.831 1.4607 1.30539 0
M  V30 4917 H 472.411 0.641593 -0.38258 0
M  V30 4918 H 475.073 1.19974 -1.53598 0
M  V30 4919 H 474.169 2.72734 -1.51731 0
M  V30 4920 N 474.47 1.03057 1.19235 0
M  V30 4921 C 475.747 0.642608 1.84743 0
M  V30 4922 C 476.127 -0.878577 1.91948 0
M  V30 4923 O 475.475 -1.77597 1.43776 0
M  V30 4924 C 475.685 1.30665 3.23616 0
M  V30 4925 C 477.033 1.43098 3.9976 0
M  V30 4926 O 478.057 1.26396 3.3302 0
M  V30 4927 O 476.916 1.70223 5.19313 0
M  V30 4928 H 474.01 0.223573 0.796206 0
M  V30 4929 H 476.556 1.12883 1.26711 0
M  V30 4930 H 475.328 2.34544 3.13217 0
M  V30 4931 H 474.951 0.808405 3.89295 0
M  V30 4932 N 475.948 -1.35272 0.808662 0
M  V30 4933 C 477.194 -1.99003 0.390581 0
M  V30 4934 C 477.527 -1.63999 -1.0401 0
M  V30 4935 O 476.802 -0.904368 -1.72196 0
M  V30 4936 C 477.085 -3.55454 0.576566 0
M  V30 4937 C 476.938 -4.00249 2.05233 0
M  V30 4938 C 478.257 -4.401 0.00354277 0
M  V30 4939 H 475.376 -0.722917 0.143388 0
M  V30 4940 H 478.018 -1.6039 1.01858 0
M  V30 4941 H 476.168 -3.88477 0.0419766 0
M  V30 4942 H 477.84 -3.77626 2.64946 0
M  V30 4943 H 476.083 -3.51082 2.54801 0
M  V30 4944 H 476.754 -5.0911 2.13333 0
M  V30 4945 H 479.23 -4.13548 0.460117 0
M  V30 4946 H 478.106 -5.48656 0.163575 0
M  V30 4947 H 478.367 -4.28444 -1.09032 0
M  V30 4948 N 477.426 -0.562348 -1.47226 0
M  V30 4949 C 478.672 -0.0402761 -2.0276 0
M  V30 4950 C 479.005 1.30823 -1.43523 0
M  V30 4951 O 478.28 1.85249 -0.592705 0
M  V30 4952 C 478.563 0.047311 -3.60069 0
M  V30 4953 C 478.416 -1.32865 -4.29729 0
M  V30 4954 C 479.735 0.758182 -4.3352 0
M  V30 4955 H 476.854 -0.0161105 -0.736824 0
M  V30 4956 H 479.496 -0.725628 -1.75598 0
M  V30 4957 H 477.646 0.630986 -3.83342 0
M  V30 4958 H 479.318 -1.95593 -4.17781 0
M  V30 4959 H 477.561 -1.90195 -3.89882 0
M  V30 4960 H 478.232 -1.22004 -5.38349 0
M  V30 4961 H 480.708 0.262546 -4.15271 0
M  V30 4962 H 479.584 0.78844 -5.43208 0
M  V30 4963 H 479.845 1.81537 -4.03109 0
M  V30 4964 N 478.904 1.54736 -0.299062 0
M  V30 4965 C 480.315 1.8569 0.193971 0
M  V30 4966 C 480.666 1.22101 1.53577 0
M  V30 4967 O 479.791 0.51799 2.10109 0
M  V30 4968 C 480.386 3.36895 0.358733 0
M  V30 4969 C 478.945 3.67887 0.795986 0
M  V30 4970 C 478.092 2.77131 -0.096807 0
M  V30 4971 H 481.043 1.49934 -0.520134 0
M  V30 4972 H 481.064 3.61294 1.19361 0
M  V30 4973 H 480.576 3.83148 -0.617998 0
M  V30 4974 H 478.677 3.27151 1.78334 0
M  V30 4975 H 478.79 4.75114 0.616718 0
M  V30 4976 H 477.154 2.51153 0.423581 0
M  V30 4977 H 477.937 3.26204 -1.06986 0
M  V30 4978 N 480.382 0.0267497 1.57577 0
M  V30 4979 C 481.329 -0.955894 2.10075 0
M  V30 4980 C 482.299 -1.32453 1.00226 0
M  V30 4981 O 483.484 -1.41826 1.27632 0
M  V30 4982 C 480.624 -2.2338 2.6305 0
M  V30 4983 C 479.737 -1.92183 3.86898 0
M  V30 4984 C 478.872 -3.14251 4.28275 0
M  V30 4985 C 477.911 -2.78862 5.44888 0
M  V30 4986 N 477.048 -3.93548 5.81433 0
M  V30 4987 H 481.888 -0.501303 2.93753 0
M  V30 4988 H 479.425 -0.235847 1.45197 0
M  V30 4989 H 481.383 -2.98124 2.91853 0
M  V30 4990 H 480.013 -2.6646 1.82205 0
M  V30 4991 H 479.065 -1.07692 3.64838 0
M  V30 4992 H 480.377 -1.62117 4.7172 0
M  V30 4993 H 479.531 -3.97317 4.58502 0
M  V30 4994 H 478.27 -3.47476 3.42215 0
M  V30 4995 H 477.275 -1.94208 5.14357 0
M  V30 4996 H 478.5 -2.46855 6.32645 0
M  V30 4997 H 476.446 -4.2662 4.98328 0
M  V30 4998 H 476.363 -3.67098 6.6089 0
M  V30 4999 H 477.631 -4.77325 6.16264 0
M  V30 5000 N 481.861 -1.55662 -0.24637 0
M  V30 5001 C 483.138 -1.68272 -0.997198 0
M  V30 5002 C 483.518 -0.566785 -2.03349 0
M  V30 5003 O 482.866 0.429688 -2.24424 0
M  V30 5004 C 483.076 -3.08594 -1.63006 0
M  V30 5005 C 484.424 -3.6721 -2.13171 0
M  V30 5006 O 485.448 -3.11397 -1.72946 0
M  V30 5007 O 484.307 -4.65054 -2.87031 0
M  V30 5008 H 481.401 -0.684429 -0.464205 0
M  V30 5009 H 483.947 -1.67993 -0.240114 0
M  V30 5010 H 482.719 -3.81264 -0.880527 0
M  V30 5011 H 482.342 -3.12886 -2.45333 0
M  V30 5012 N 483.339 0.512053 -1.4905 0
M  V30 5013 C 484.585 1.26874 -1.58212 0
M  V30 5014 C 484.918 1.9241 -0.263073 0
M  V30 5015 O 484.193 1.80181 0.732476 0
M  V30 5016 C 484.476 2.34428 -2.73341 0
M  V30 5017 C 484.329 1.73466 -4.15006 0
M  V30 5018 C 485.648 3.36073 -2.84154 0
M  V30 5019 H 482.767 0.459924 -0.575881 0
M  V30 5020 H 485.409 0.568587 -1.81293 0
M  V30 5021 H 483.559 2.94146 -2.53792 0
M  V30 5022 H 485.231 1.17661 -4.46042 0
M  V30 5023 H 483.474 1.03921 -4.21168 0
M  V30 5024 H 484.145 2.51426 -4.91415 0
M  V30 5025 H 486.621 2.86332 -3.01916 0
M  V30 5026 H 485.497 4.08703 -3.66406 0
M  V30 5027 H 485.758 3.97725 -1.93048 0
M  V30 5028 N 484.817 1.37938 0.762283 0
M  V30 5029 C 485.765 1.34569 1.89721 0
M  V30 5030 C 486.759 0.232929 1.67791 0
M  V30 5031 O 487.965 0.401485 1.75465 0
M  V30 5032 H 484.34 0.419594 0.624055 0
M  V30 5033 H 486.311 2.30357 1.8968 0
M  V30 5034 C 485.06 1.17898 3.27101 0
M  V30 5035 H 484.383 2.02781 3.44558 0
M  V30 5036 H 485.823 1.19593 4.06784 0
M  V30 5037 C 484.282 -0.114728 3.36705 0
M  V30 5038 O 484.812 -1.0949 3.8649 0
M  V30 5039 N 483.018 -0.16863 2.9011 0
M  V30 5040 H 482.565 0.62967 2.49786 0
M  V30 5041 H 482.523 -1.03383 2.96916 0
M  V30 5042 N 486.295 -0.989507 1.22664 0
M  V30 5043 C 487.258 -2.06183 1.00106 0
M  V30 5044 C 488.258 -1.60765 -0.0337726 0
M  V30 5045 O 489.448 -1.72989 0.205072 0
M  V30 5046 C 486.58 -3.37021 0.51279 0
M  V30 5047 H 487.773 -2.27629 1.95256 0
M  V30 5048 H 485.326 -1.16158 1.0458 0
M  V30 5049 H 486.061 -3.21261 -0.442917 0
M  V30 5050 H 485.846 -3.71323 1.25942 0
M  V30 5051 H 487.336 -4.1591 0.375315 0
M  V30 5052 N 487.773 -1.03688 -1.18687 0
M  V30 5053 C 488.736 -0.629115 -2.20397 0
M  V30 5054 C 489.736 0.311495 -1.57754 0
M  V30 5055 O 490.926 0.0974107 -1.73927 0
M  V30 5056 C 488.058 0.0782231 -3.4081 0
M  V30 5057 H 489.251 -1.52915 -2.57987 0
M  V30 5058 H 486.804 -0.828988 -1.32505 0
M  V30 5059 H 487.539 0.992233 -3.08748 0
M  V30 5060 H 487.324 -0.597776 -3.87517 0
M  V30 5061 H 488.814 0.350156 -4.16129 0
M  V30 5062 N 489.251 1.34841 -0.815825 0
M  V30 5063 C 490.497 1.98793 -0.401129 0
M  V30 5064 C 490.83 1.64548 1.03139 0
M  V30 5065 O 490.105 0.913487 1.71714 0
M  V30 5066 C 490.388 3.55143 -0.595409 0
M  V30 5067 C 490.241 3.99155 -2.07352 0
M  V30 5068 C 491.56 4.40092 -0.0268823 0
M  V30 5069 H 488.679 0.722146 -0.14722 0
M  V30 5070 H 491.321 1.59847 -1.02707 0
M  V30 5071 H 489.471 3.8845 -0.0625779 0
M  V30 5072 H 491.143 3.76216 -2.66945 0
M  V30 5073 H 489.386 3.49726 -2.56659 0
M  V30 5074 H 490.057 5.07971 -2.1603 0
M  V30 5075 H 492.533 4.13298 -0.482042 0
M  V30 5076 H 491.409 5.48562 -0.19267 0
M  V30 5077 H 491.67 4.29016 1.06759 0
M  V30 5078 N 490.729 0.570148 1.46925 0
M  V30 5079 C 491.692 -0.159933 2.28641 0
M  V30 5080 C 492.692 -0.830638 1.37685 0
M  V30 5081 O 493.882 -0.684516 1.60187 0
M  V30 5082 C 491.014 -1.2354 3.17727 0
M  V30 5083 H 492.207 0.558035 2.94662 0
M  V30 5084 H 489.76 0.327603 1.52828 0
M  V30 5085 H 490.495 -1.98535 2.56426 0
M  V30 5086 H 490.28 -0.759125 3.84681 0
M  V30 5087 H 491.77 -1.74782 3.79264 0
M  V30 5088 N 492.207 -1.54576 0.307264 0
M  V30 5089 C 493.435 -2.04675 -0.302597 0
M  V30 5090 C 493.85 -1.18425 -1.47041 0
M  V30 5091 O 493.207 -0.211257 -1.81273 0
M  V30 5092 C 493.258 -3.53575 -0.752801 0
M  V30 5093 O 492.979 -4.36547 0.368536 0
M  V30 5094 C 494.48 -4.19699 -1.42717 0
M  V30 5095 H 491.7 -0.66786 -0.0648374 0
M  V30 5096 H 494.244 -1.99516 0.448716 0
M  V30 5097 H 492.399 -3.59074 -1.45412 0
M  V30 5098 H 492.813 -5.24497 0.0168937 0
M  V30 5099 H 494.287 -5.25388 -1.69327 0
M  V30 5100 H 494.764 -3.69815 -2.36925 0
M  V30 5101 H 495.37 -4.18293 -0.768856 0
M  V30 5102 N 493.685 -0.035106 -1.57561 0
M  V30 5103 C 494.934 0.641604 -1.91223 0
M  V30 5104 C 495.247 1.72944 -0.913761 0
M  V30 5105 O 496.453 2.46321 -1.14185 0
M  V30 5106 C 494.909 1.19249 -3.3957 0
M  V30 5107 C 494.517 0.137616 -4.47789 0
M  V30 5108 C 496.261 1.84537 -3.82291 0
M  V30 5109 C 494.168 0.700478 -5.87237 0
M  V30 5110 H 493.098 0.243417 -0.713627 0
M  V30 5111 H 495.749 -0.101382 -1.8322 0
M  V30 5112 H 494.131 1.98728 -3.42525 0
M  V30 5113 H 495.305 -0.635153 -4.56402 0
M  V30 5114 H 493.62 -0.416855 -4.14308 0
M  V30 5115 H 496.217 2.27616 -4.83834 0
M  V30 5116 H 496.56 2.69054 -3.17672 0
M  V30 5117 H 497.093 1.11739 -3.81784 0
M  V30 5118 H 493.832 -0.106693 -6.55413 0
M  V30 5119 H 493.352 1.4416 -5.82218 0
M  V30 5120 H 495.031 1.18837 -6.35993 0
M  V30 5121 N 495.163 1.55791 0.238111 0
M  V30 5122 C 496.11 1.9105 1.29493 0
M  V30 5123 C 497.08 0.765733 1.47397 0
M  V30 5124 O 498.265 1.02017 1.61236 0
M  V30 5125 C 495.405 2.21826 2.64362 0
M  V30 5126 C 494.518 3.49153 2.54394 0
M  V30 5127 C 493.653 3.69455 3.81676 0
M  V30 5128 C 492.692 4.90353 3.66361 0
M  V30 5129 N 491.829 5.07131 4.85554 0
M  V30 5130 H 496.669 2.81172 0.987233 0
M  V30 5131 H 494.206 1.39179 0.476203 0
M  V30 5132 H 496.164 2.37675 3.4288 0
M  V30 5133 H 494.794 1.34897 2.93262 0
M  V30 5134 H 493.846 3.41587 1.67399 0
M  V30 5135 H 495.158 4.37818 2.38991 0
M  V30 5136 H 494.312 3.85311 4.68636 0
M  V30 5137 H 493.051 2.7904 3.99985 0
M  V30 5138 H 492.056 4.74464 2.77784 0
M  V30 5139 H 493.281 5.82237 3.49538 0
M  V30 5140 H 491.227 4.19654 5.04209 0
M  V30 5141 H 491.144 5.89899 4.72816 0
M  V30 5142 H 492.412 5.27407 5.73988 0
M  V30 5143 N 496.642 -0.504142 1.49319 0
M  V30 5144 C 497.87 -1.28256 1.62351 0
M  V30 5145 C 498.285 -1.86502 0.293682 0
M  V30 5146 O 497.642 -1.67678 -0.720449 0
M  V30 5147 C 497.693 -2.41507 2.68992 0
M  V30 5148 O 497.414 -1.85656 3.96817 0
M  V30 5149 C 498.915 -3.32929 2.927 0
M  V30 5150 H 496.135 -0.389115 0.546654 0
M  V30 5151 H 498.679 -0.605531 1.95329 0
M  V30 5152 H 496.834 -3.05046 2.38801 0
M  V30 5153 H 497.248 -2.59981 4.55533 0
M  V30 5154 H 498.722 -4.0868 3.71058 0
M  V30 5155 H 499.199 -3.89733 2.02496 0
M  V30 5156 H 499.805 -2.75158 3.24296 0
M  V30 5157 N 498.12 -1.38341 -0.754957 0
M  V30 5158 C 499.067 -1.3546 -1.86867 0
M  V30 5159 C 500.037 -0.217369 -1.64672 0
M  V30 5160 O 501.222 -0.409383 -1.86356 0
M  V30 5161 C 498.362 -1.18413 -3.24149 0
M  V30 5162 C 497.475 -2.41511 -3.58185 0
M  V30 5163 C 496.61 -2.17205 -4.84763 0
M  V30 5164 C 495.649 -3.36081 -5.11582 0
M  V30 5165 N 494.786 -3.11219 -6.29354 0
M  V30 5166 H 499.626 -2.30672 -1.88664 0
M  V30 5167 H 497.163 -1.14607 -0.922154 0
M  V30 5168 H 499.121 -1.06545 -4.03366 0
M  V30 5169 H 497.751 -0.268397 -3.21682 0
M  V30 5170 H 496.803 -2.64056 -2.73822 0
M  V30 5171 H 498.115 -3.30115 -3.73932 0
M  V30 5172 H 497.269 -2.02465 -5.7192 0
M  V30 5173 H 496.008 -1.25964 -4.71152 0
M  V30 5174 H 495.013 -3.51341 -4.22894 0
M  V30 5175 H 496.238 -4.28196 -5.27091 0
M  V30 5176 H 494.184 -2.22624 -6.17069 0
M  V30 5177 H 494.101 -3.93373 -6.45596 0
M  V30 5178 H 495.369 -3.00132 -7.19403 0
M  V30 5179 N 499.598 0.982988 -1.23187 0
M  V30 5180 C 501.014 1.2487 -0.993967 0
M  V30 5181 C 501.214 1.99155 0.306498 0
M  V30 5182 O 500.27 2.30688 1.0266 0
M  V30 5183 C 501.583 2.05078 -2.19917 0
M  V30 5184 C 503.131 2.18227 -2.2438 0
M  V30 5185 C 503.606 3.01825 -3.44479 0
M  V30 5186 N 505.097 3.09411 -3.44702 0
M  V30 5187 C 505.832 3.74412 -4.34285 0
M  V30 5188 N 505.328 4.41259 -5.341 0
M  V30 5189 N 507.121 3.71273 -4.22035 0
M  V30 5190 H 499.272 0.485253 -2.06783 0
M  V30 5191 H 501.535 0.276979 -0.906635 0
M  V30 5192 H 501.241 1.57867 -3.14279 0
M  V30 5193 H 501.115 3.05829 -2.2079 0
M  V30 5194 H 503.502 2.64648 -1.30559 0
M  V30 5195 H 503.583 1.16873 -2.2754 0
M  V30 5196 H 503.227 2.56102 -4.38605 0
M  V30 5197 H 503.157 4.03342 -3.38559 0
M  V30 5198 H 505.648 2.61845 -2.7248 0
M  V30 5199 H 505.961 4.88629 -5.98717 0
M  V30 5200 H 504.306 4.39975 -5.38002 0
M  V30 5201 H 507.497 3.18217 -3.43301 0
M  V30 5202 H 507.67 4.21649 -4.92053 0
M  V30 5203 N 501.076 1.04316 1.18135 0
M  V30 5204 C 502.304 0.768117 1.92113 0
M  V30 5205 C 502.719 -0.675057 1.76319 0
M  V30 5206 O 502.076 -1.46038 1.09449 0
M  V30 5207 C 502.127 1.12808 3.43448 0
M  V30 5208 O 501.848 2.5146 3.58747 0
M  V30 5209 C 503.349 0.8779 4.3452 0
M  V30 5210 H 500.569 0.279937 0.609817 0
M  V30 5211 H 503.113 1.39149 1.49859 0
M  V30 5212 H 501.268 0.549623 3.83481 0
M  V30 5213 H 501.682 2.65313 4.52448 0
M  V30 5214 H 503.156 1.17959 5.39249 0
M  V30 5215 H 503.633 -0.187239 4.38801 0
M  V30 5216 H 504.239 1.43977 4.00188 0
M  V30 5217 N 502.554 -1.34406 0.822964 0
M  V30 5218 C 503.803 -1.97542 0.407458 0
M  V30 5219 C 504.116 -1.65973 -1.035 0
M  V30 5220 O 505.322 -2.22598 -1.55442 0
M  V30 5221 C 503.778 -3.53463 0.677623 0
M  V30 5222 C 503.386 -3.93925 2.1337 0
M  V30 5223 C 505.13 -4.23229 0.328284 0
M  V30 5224 C 503.037 -5.42759 2.34876 0
M  V30 5225 H 501.967 -0.739207 0.148623 0
M  V30 5226 H 504.618 -1.53248 1.00932 0
M  V30 5227 H 503 -3.96 0.00558965 0
M  V30 5228 H 504.174 -3.62494 2.8449 0
M  V30 5229 H 502.489 -3.37097 2.44448 0
M  V30 5230 H 505.086 -5.32659 0.466794 0
M  V30 5231 H 505.429 -4.09899 -0.727224 0
M  V30 5232 H 505.962 -3.86169 0.954896 0
M  V30 5233 H 502.701 -5.61075 3.38932 0
M  V30 5234 H 502.221 -5.75704 1.68299 0
M  V30 5235 H 503.9 -6.0944 2.17236 0
M  V30 5236 N 504.032 -0.577932 -1.46621 0
M  V30 5237 C 504.964 0.195801 -2.28362 0
M  V30 5238 C 505.977 0.859983 -1.38232 0
M  V30 5239 O 507.166 0.730349 -1.62875 0
M  V30 5240 C 504.266 1.29639 -3.13124 0
M  V30 5241 C 503.439 0.725049 -4.31349 0
M  V30 5242 C 502.498 1.71274 -4.97546 0
M  V30 5243 O 501.524 1.25067 -5.5529 0
M  V30 5244 N 502.726 3.04672 -4.94121 0
M  V30 5245 H 505.491 -0.505468 -2.95407 0
M  V30 5246 H 503.052 -0.415381 -1.56481 0
M  V30 5247 H 505.044 1.95631 -3.54275 0
M  V30 5248 H 503.614 1.90059 -2.48186 0
M  V30 5249 H 502.834 -0.112205 -3.9404 0
M  V30 5250 H 504.122 0.323034 -5.07774 0
M  V30 5251 H 503.52 3.4484 -4.48444 0
M  V30 5252 H 502.077 3.66166 -5.39227 0
M  V30 5253 N 505.51 1.54411 -0.315457 0
M  V30 5254 C 506.757 2.00419 0.289543 0
M  V30 5255 C 507.085 1.20373 1.52776 0
M  V30 5256 O 506.34 0.271769 1.93804 0
M  V30 5257 C 506.639 3.50936 0.676652 0
M  V30 5258 C 506.305 4.48532 -0.461472 0
M  V30 5259 C 504.967 4.74936 -0.773879 0
M  V30 5260 C 507.319 5.06567 -1.22637 0
M  V30 5261 C 504.647 5.56634 -1.85405 0
M  V30 5262 C 506.999 5.89441 -2.29657 0
M  V30 5263 C 505.663 6.1415 -2.61488 0
M  V30 5264 H 504.933 0.733386 0.105951 0
M  V30 5265 H 507.58 1.86434 -0.437554 0
M  V30 5266 H 505.885 3.62606 1.48405 0
M  V30 5267 H 507.582 3.83971 1.15618 0
M  V30 5268 H 504.172 4.28096 -0.207893 0
M  V30 5269 H 508.356 4.86157 -0.998271 0
M  V30 5270 H 503.612 5.74012 -2.10523 0
M  V30 5271 H 507.786 6.33432 -2.89374 0
M  V30 5272 H 505.413 6.77245 -3.45317 0
M  V30 5273 N 506.988 0.0434614 1.5754 0
M  V30 5274 C 508.234 -0.632971 1.92669 0
M  V30 5275 C 508.567 -1.70947 0.921446 0
M  V30 5276 O 507.842 -1.94426 -0.0537202 0
M  V30 5277 C 508.125 -1.23619 3.38216 0
M  V30 5278 C 507.978 -0.168274 4.49485 0
M  V30 5279 C 509.297 -2.15008 3.84005 0
M  V30 5280 H 506.416 -0.228629 0.700641 0
M  V30 5281 H 509.058 0.103651 1.89717 0
M  V30 5282 H 507.208 -1.864 3.40863 0
M  V30 5283 H 508.88 0.463196 4.58969 0
M  V30 5284 H 507.123 0.504581 4.30855 0
M  V30 5285 H 507.794 -0.630218 5.48391 0
M  V30 5286 H 510.27 -1.62198 3.83185 0
M  V30 5287 H 509.146 -2.54161 4.86511 0
M  V30 5288 H 509.407 -3.04707 3.20322 0
M  V30 5289 N 508.466 -1.55915 -0.229846 0
M  V30 5290 C 509.743 -1.6932 -0.979295 0
M  V30 5291 C 510.123 -0.588321 -2.02736 0
M  V30 5292 O 509.471 0.40586 -2.24867 0
M  V30 5293 C 509.681 -3.10305 -1.59724 0
M  V30 5294 C 511.029 -3.6945 -2.09264 0
M  V30 5295 O 512.053 -3.13214 -1.69633 0
M  V30 5296 O 510.912 -4.68072 -2.82082 0
M  V30 5297 H 508.006 -0.689314 -0.456919 0
M  V30 5298 H 510.552 -1.68238 -0.222283 0
M  V30 5299 H 509.324 -3.82177 -0.840039 0
M  V30 5300 H 508.947 -3.1547 -2.42001 0
M  V30 5301 N 509.944 0.496216 -1.49584 0
M  V30 5302 C 511.19 1.24918 -1.60521 0
M  V30 5303 C 511.545 1.90197 -0.290352 0
M  V30 5304 O 510.838 1.77967 0.709813 0
M  V30 5305 C 511.032 2.3359 -2.705 0
M  V30 5306 C 510.861 1.78969 -4.12553 0
M  V30 5307 C 509.631 1.60057 -4.79281 0
M  V30 5308 C 511.829 1.29883 -4.97629 0
M  V30 5309 N 509.811 1.00415 -6.05632 0
M  V30 5310 C 511.182 0.824057 -6.14499 0
M  V30 5311 C 513.237 1.18501 -4.83593 0
M  V30 5312 C 511.94 0.246721 -7.18877 0
M  V30 5313 C 513.966 0.621634 -5.88124 0
M  V30 5314 C 513.328 0.157116 -7.04225 0
M  V30 5315 H 509.427 0.446896 -0.641722 0
M  V30 5316 H 512.011 0.555456 -1.86609 0
M  V30 5317 H 510.182 3.00418 -2.46178 0
M  V30 5318 H 511.914 3.00628 -2.70933 0
M  V30 5319 H 508.669 1.84562 -4.36158 0
M  V30 5320 H 509.093 0.725074 -6.73106 0
M  V30 5321 H 513.735 1.53012 -3.94141 0
M  V30 5322 H 511.453 -0.110651 -8.08024 0
M  V30 5323 H 515.039 0.536279 -5.79323 0
M  V30 5324 H 513.919 -0.272009 -7.83728 0
M  V30 5325 N 511.423 1.38739 0.74761 0
M  V30 5326 C 512.663 1.36695 1.51966 0
M  V30 5327 C 513.027 -0.0411889 1.91956 0
M  V30 5328 O 514.228 -0.186543 2.68152 0
M  V30 5329 C 512.499 2.30119 2.73459 0
M  V30 5330 S 514.058 2.4615 3.63257 0
M  V30 5331 H 510.876 0.484929 0.519966 0
M  V30 5332 H 513.478 1.7472 0.877104 0
M  V30 5333 H 512.182 3.31312 2.422 0
M  V30 5334 H 511.713 1.93265 3.42655 0
M  V30 5335 H 513.728 1.69001 4.66533 0
M  V30 5336 N 512.901 -0.976442 1.23707 0
M  V30 5337 C 514.312 -1.53284 1.06587 0
M  V30 5338 C 514.663 -1.92765 -0.365526 0
M  V30 5339 O 513.788 -1.7645 -1.25277 0
M  V30 5340 C 514.383 -2.78548 1.92864 0
M  V30 5341 C 512.942 -3.30574 1.79994 0
M  V30 5342 C 512.089 -2.03538 1.88328 0
M  V30 5343 H 515.04 -0.795692 1.37311 0
M  V30 5344 H 515.061 -3.5155 1.45577 0
M  V30 5345 H 514.573 -2.49782 2.97037 0
M  V30 5346 H 512.674 -3.64211 0.786202 0
M  V30 5347 H 512.787 -4.00065 2.636 0
M  V30 5348 H 511.151 -2.17853 1.31954 0
M  V30 5349 H 511.934 -1.77149 2.94063 0
M  V30 5350 N 514.379 -1.04941 -1.1758 0
M  V30 5351 C 515.607 -0.778294 -1.91703 0
M  V30 5352 C 516.022 0.665697 -1.76675 0
M  V30 5353 O 515.379 1.45456 -1.10222 0
M  V30 5354 C 515.43 -1.14628 -3.42845 0
M  V30 5355 O 515.151 -2.53359 -3.57409 0
M  V30 5356 C 516.652 -0.900931 -4.34049 0
M  V30 5357 H 513.872 -0.283167 -0.608323 0
M  V30 5358 H 516.416 -1.39942 -1.49119 0
M  V30 5359 H 514.571 -0.569953 -3.83184 0
M  V30 5360 H 514.985 -2.67709 -4.51035 0
M  V30 5361 H 516.459 -1.20817 -5.38616 0
M  V30 5362 H 516.936 0.163966 -4.38894 0
M  V30 5363 H 517.542 -1.46097 -3.99419 0
M  V30 5364 N 515.857 1.33968 -0.830081 0
M  V30 5365 C 517.105 1.97672 -0.420734 0
M  V30 5366 C 517.426 1.66111 1.02138 0
M  V30 5367 O 516.696 0.955503 1.71017 0
M  V30 5368 H 515.276 0.73125 -0.152587 0
M  V30 5369 H 517.938 1.63483 -1.0611 0
M  V30 5370 H 517.034 3.07294 -0.545588 0
M  V30 5371 N 517.335 0.585699 1.46312 0
M  V30 5372 C 518.582 0.0724211 2.0237 0
M  V30 5373 C 518.91 -1.28868 1.45683 0
M  V30 5374 O 518.165 -1.85853 0.612945 0
M  V30 5375 C 518.464 -0.0401312 3.57377 0
M  V30 5376 C 518.13 1.25376 4.33119 0
M  V30 5377 C 516.792 1.60824 4.5353 0
M  V30 5378 C 519.144 2.10987 4.76586 0
M  V30 5379 C 516.472 2.81676 5.14661 0
M  V30 5380 C 518.824 3.31068 5.39052 0
M  V30 5381 C 517.488 3.66794 5.5769 0
M  V30 5382 H 516.758 0.0265007 0.740526 0
M  V30 5383 H 519.405 0.762935 1.75646 0
M  V30 5384 H 517.71 -0.813791 3.83255 0
M  V30 5385 H 519.407 -0.453078 3.98432 0
M  V30 5386 H 515.997 0.967808 4.1753 0
M  V30 5387 H 520.181 1.84904 4.60569 0
M  V30 5388 H 515.437 3.0949 5.27282 0
M  V30 5389 H 519.611 3.97672 5.71691 0
M  V30 5390 H 517.238 4.60529 6.04828 0
M  V30 5391 N 518.813 -1.54241 0.323641 0
M  V30 5392 C 519.76 -2.24339 -0.542277 0
M  V30 5393 C 520.73 -1.23421 -1.11159 0
M  V30 5394 O 521.915 -1.52104 -1.15192 0
M  V30 5395 C 519.055 -3.00479 -1.69725 0
M  V30 5396 C 518.168 -4.16214 -1.15716 0
M  V30 5397 C 517.303 -4.79884 -2.27783 0
M  V30 5398 C 516.342 -5.87722 -1.71023 0
M  V30 5399 N 515.479 -6.45254 -2.76752 0
M  V30 5400 H 520.319 -2.97935 0.0620613 0
M  V30 5401 H 517.856 -1.47039 0.0423993 0
M  V30 5402 H 519.814 -3.42869 -2.3769 0
M  V30 5403 H 518.444 -2.29217 -2.27288 0
M  V30 5404 H 517.496 -3.78605 -0.369063 0
M  V30 5405 H 518.808 -4.93838 -0.701832 0
M  V30 5406 H 517.962 -5.25243 -3.03651 0
M  V30 5407 H 516.701 -4.01641 -2.76652 0
M  V30 5408 H 515.706 -5.41765 -0.936518 0
M  V30 5409 H 516.931 -6.67863 -1.2303 0
M  V30 5410 H 514.877 -5.69884 -3.24912 0
M  V30 5411 H 514.794 -7.18292 -2.35782 0
M  V30 5412 H 516.062 -6.95269 -3.5245 0
M  V30 5413 N 520.291 -0.0518155 -1.57515 0
M  V30 5414 C 521.531 0.625712 -1.94587 0
M  V30 5415 C 521.895 1.6797 -0.930053 0
M  V30 5416 O 523.096 2.41135 -1.18774 0
M  V30 5417 C 521.367 1.20574 -3.36447 0
M  V30 5418 S 522.926 1.90118 -3.95475 0
M  V30 5419 H 519.744 0.205434 -0.680675 0
M  V30 5420 H 522.346 -0.120906 -1.95126 0
M  V30 5421 H 521.05 0.426521 -4.08178 0
M  V30 5422 H 520.581 1.98916 -3.39405 0
M  V30 5423 H 522.596 3.18184 -3.80753 0
M  V30 5424 N 521.769 1.56035 0.221574 0
M  V30 5425 C 523.017 1.78693 0.944102 0
M  V30 5426 C 523.338 0.620317 1.8487 0
M  V30 5427 O 522.608 -0.362784 1.92512 0
M  V30 5428 H 521.188 0.659082 0.351597 0
M  V30 5429 H 523.85 1.93497 0.233435 0
M  V30 5430 H 522.946 2.70837 1.55093 0
M  V30 5431 N 523.247 -0.488276 1.49845 0
M  V30 5432 C 524.496 -1.23826 1.59217 0
M  V30 5433 C 524.809 -1.93439 0.289966 0
M  V30 5434 O 526.015 -2.70229 0.262382 0
M  V30 5435 C 524.471 -2.24902 2.80976 0
M  V30 5436 C 524.079 -1.6117 4.18005 0
M  V30 5437 C 525.823 -3.00648 2.99685 0
M  V30 5438 C 523.73 -2.60431 5.3097 0
M  V30 5439 H 522.66 -0.465858 0.592868 0
M  V30 5440 H 525.311 -0.510645 1.76252 0
M  V30 5441 H 523.693 -3.0088 2.57463 0
M  V30 5442 H 524.867 -0.910968 4.51706 0
M  V30 5443 H 523.182 -0.97767 4.0476 0
M  V30 5444 H 525.779 -3.74903 3.81251 0
M  V30 5445 H 526.122 -3.5902 2.10738 0
M  V30 5446 H 526.655 -2.31784 3.23297 0
M  V30 5447 H 523.394 -2.06823 6.22017 0
M  V30 5448 H 522.914 -3.28707 5.01709 0
M  V30 5449 H 524.593 -3.22606 5.60834 0
M  V30 5450 N 524.725 -1.39134 -0.740242 0
M  V30 5451 C 525.673 -1.3757 -1.87556 0
M  V30 5452 C 526.667 -0.259593 -1.67399 0
M  V30 5453 O 527.873 -0.429349 -1.74804 0
M  V30 5454 H 524.248 -0.42947 -0.6173 0
M  V30 5455 H 526.219 -2.33345 -1.85991 0
M  V30 5456 C 524.968 -1.23087 -3.25184 0
M  V30 5457 H 524.291 -2.08237 -3.41288 0
M  V30 5458 H 525.731 -1.26049 -4.0483 0
M  V30 5459 C 524.19 0.0611471 -3.36845 0
M  V30 5460 O 524.72 1.03328 -3.88183 0
M  V30 5461 N 522.926 0.122454 -2.90342 0
M  V30 5462 H 522.473 -0.669329 -2.48752 0
M  V30 5463 H 522.431 0.986463 -2.98523 0
M  V30 5464 N 526.204 0.969867 -1.24223 0
M  V30 5465 C 527.434 1.74502 -1.106 0
M  V30 5466 C 527.842 1.86038 0.344483 0
M  V30 5467 O 527.185 1.3465 1.24961 0
M  V30 5468 C 527.247 3.18391 -1.66935 0
M  V30 5469 C 526.911 3.30334 -3.15798 0
M  V30 5470 C 527.908 3.15832 -4.12973 0
M  V30 5471 C 525.593 3.54644 -3.55715 0
M  V30 5472 C 527.587 3.25461 -5.48045 0
M  V30 5473 C 525.274 3.63912 -4.90929 0
M  V30 5474 C 526.272 3.49332 -5.86904 0
M  V30 5475 O 525.96 3.58251 -7.1966 0
M  V30 5476 H 525.692 0.554119 -0.387206 0
M  V30 5477 H 528.246 1.22646 -1.64764 0
M  V30 5478 H 526.476 3.71543 -1.07203 0
M  V30 5479 H 528.165 3.77707 -1.48634 0
M  V30 5480 H 528.931 2.96937 -3.83476 0
M  V30 5481 H 524.81 3.65059 -2.81519 0
M  V30 5482 H 528.354 3.13998 -6.22937 0
M  V30 5483 H 524.251 3.82319 -5.20098 0
M  V30 5484 H 525.019 3.7498 -7.27552 0
M  V30 5485 N 527.682 1.05563 1.17022 0
M  V30 5486 C 528.614 0.617888 2.20714 0
M  V30 5487 C 529.627 -0.320303 1.59618 0
M  V30 5488 O 530.816 -0.112449 1.78145 0
M  V30 5489 C 527.916 -0.115333 3.38704 0
M  V30 5490 C 527.089 0.834493 4.29366 0
M  V30 5491 C 526.148 0.141855 5.26009 0
M  V30 5492 O 525.174 0.777151 5.6387 0
M  V30 5493 N 526.376 -1.11934 5.69606 0
M  V30 5494 H 529.141 1.50981 2.58892 0
M  V30 5495 H 526.702 0.938008 1.31958 0
M  V30 5496 H 528.694 -0.588918 4.00392 0
M  V30 5497 H 527.264 -0.908967 2.99093 0
M  V30 5498 H 526.484 1.48762 3.65053 0
M  V30 5499 H 527.772 1.4791 4.86827 0
M  V30 5500 H 527.17 -1.65574 5.40927 0
M  V30 5501 H 525.727 -1.53692 6.33421 0
M  V30 5502 N 529.16 -1.33526 0.837174 0
M  V30 5503 C 530.571 -1.80182 0.489017 0
M  V30 5504 C 530.922 -1.69285 -0.991826 0
M  V30 5505 O 530.047 -1.24113 -1.77271 0
M  V30 5506 C 530.642 -3.27149 0.880866 0
M  V30 5507 C 529.201 -3.71828 0.584872 0
M  V30 5508 C 528.348 -2.54974 1.09011 0
M  V30 5509 H 531.299 -1.21071 1.02603 0
M  V30 5510 H 531.32 -3.80024 0.190239 0
M  V30 5511 H 530.832 -3.35048 1.95869 0
M  V30 5512 H 528.933 -3.69457 -0.48295 0
M  V30 5513 H 529.046 -4.65366 1.13892 0
M  V30 5514 H 527.41 -2.4952 0.511047 0
M  V30 5515 H 528.193 -2.65637 2.17467 0
M  V30 5516 N 530.638 -0.59345 -1.46 0
M  V30 5517 C 532.049 -0.169801 -1.85926 0
M  V30 5518 C 532.4 1.26984 -1.49565 0
M  V30 5519 O 531.525 1.96076 -0.915602 0
M  V30 5520 C 532.12 -0.301385 -3.37457 0
M  V30 5521 C 530.679 0.0674684 -3.7634 0
M  V30 5522 C 529.826 -0.632383 -2.69993 0
M  V30 5523 H 532.777 -0.801014 -1.37002 0
M  V30 5524 H 532.798 0.470331 -3.77582 0
M  V30 5525 H 532.31 -1.34927 -3.63891 0
M  V30 5526 H 530.411 1.11507 -3.55523 0
M  V30 5527 H 530.524 -0.316332 -4.78055 0
M  V30 5528 H 528.888 -0.0714961 -2.546 0
M  V30 5529 H 529.671 -1.68212 -2.99265 0
M  V30 5530 N 532.116 1.54067 -0.331816 0
M  V30 5531 C 533.344 2.05131 0.269996 0
M  V30 5532 C 533.759 1.20749 1.45138 0
M  V30 5533 O 533.116 0.240069 1.80914 0
M  V30 5534 C 533.167 3.54728 0.696456 0
M  V30 5535 O 532.888 4.35906 -0.43794 0
M  V30 5536 C 534.389 4.21916 1.36021 0
M  V30 5537 H 531.609 0.668807 0.0542042 0
M  V30 5538 H 534.153 1.98777 -0.4804 0
M  V30 5539 H 532.308 3.61342 1.39681 0
M  V30 5540 H 532.722 5.24404 -0.100334 0
M  V30 5541 H 534.196 5.28015 1.60947 0
M  V30 5542 H 534.673 3.73538 2.31011 0
M  V30 5543 H 535.279 4.19463 0.702212 0
M  V30 5544 N 533.594 0.0601682 1.57485 0
M  V30 5545 C 534.84 -0.612501 1.93329 0
M  V30 5546 C 535.173 -1.6996 0.939526 0
M  V30 5547 O 534.448 -1.94472 -0.0330957 0
M  V30 5548 C 534.731 -1.20025 3.39508 0
M  V30 5549 C 534.584 -0.12059 4.49638 0
M  V30 5550 C 535.903 -2.10923 3.86264 0
M  V30 5551 H 533.022 -0.221185 0.703027 0
M  V30 5552 H 535.664 0.123768 1.89596 0
M  V30 5553 H 533.814 -1.82774 3.42821 0
M  V30 5554 H 535.486 0.51185 4.58452 0
M  V30 5555 H 533.729 0.550251 4.30296 0
M  V30 5556 H 534.4 -0.572019 5.49028 0
M  V30 5557 H 536.876 -1.58124 3.84884 0
M  V30 5558 H 535.752 -2.48987 4.8918 0
M  V30 5559 H 536.013 -3.01292 3.23536 0
M  V30 5560 N 535.072 -1.5615 -0.213296 0
M  V30 5561 C 536.318 -1.79812 -0.937849 0
M  V30 5562 C 536.651 -0.631201 -1.83656 0
M  V30 5563 O 535.926 0.369165 -1.90964 0
M  V30 5564 C 536.209 -3.13613 -1.76972 0
M  V30 5565 C 536.062 -4.40766 -0.89695 0
M  V30 5566 C 537.381 -3.43931 -2.7459 0
M  V30 5567 H 534.5 -0.654138 -0.339518 0
M  V30 5568 H 537.142 -1.88877 -0.20623 0
M  V30 5569 H 535.292 -3.06015 -2.39347 0
M  V30 5570 H 536.964 -4.60392 -0.289306 0
M  V30 5571 H 535.207 -4.33326 -0.202756 0
M  V30 5572 H 535.878 -5.30843 -1.51358 0
M  V30 5573 H 538.354 -3.5171 -2.22349 0
M  V30 5574 H 537.23 -4.38706 -3.29891 0
M  V30 5575 H 537.491 -2.6651 -3.52739 0
M  V30 5576 N 536.55 0.480323 -1.50102 0
M  V30 5577 C 537.961 1.06142 -1.53593 0
M  V30 5578 C 538.312 1.93335 -0.334055 0
M  V30 5579 O 537.437 2.09188 0.55403 0
M  V30 5580 C 538.032 1.9317 -2.78336 0
M  V30 5581 C 536.591 2.46405 -2.84538 0
M  V30 5582 C 535.738 1.24521 -2.4777 0
M  V30 5583 H 538.689 0.26333 -1.565 0
M  V30 5584 H 538.71 2.78123 -2.59669 0
M  V30 5585 H 538.222 1.29683 -3.65792 0
M  V30 5586 H 536.323 3.13472 -2.01411 0
M  V30 5587 H 536.436 2.82143 -3.87211 0
M  V30 5588 H 534.8 1.57706 -2.00003 0
M  V30 5589 H 535.583 0.627102 -3.37524 0
M  V30 5590 N 538.028 1.39524 0.732853 0
M  V30 5591 C 539.276 1.36594 1.48951 0
M  V30 5592 C 539.597 -0.0367507 1.94965 0
M  V30 5593 O 538.867 -0.988391 1.69138 0
M  V30 5594 H 537.447 0.502673 0.552566 0
M  V30 5595 H 540.109 1.74411 0.869869 0
M  V30 5596 H 539.205 2.03 2.3706 0
M  V30 5597 N 539.506 -0.963266 1.24736 0
M  V30 5598 C 540.754 -1.70343 1.08755 0
M  V30 5599 C 541.075 -1.91387 -0.373619 0
M  V30 5600 O 540.345 -1.4948 -1.2662 0
M  V30 5601 H 538.925 -0.631224 0.399456 0
M  V30 5602 H 541.587 -1.15859 1.56725 0
M  V30 5603 H 540.683 -2.68616 1.58909 0
M  V30 5604 N 540.985 -1.06182 -1.16461 0
M  V30 5605 C 542.262 -0.691364 -1.82974 0
M  V30 5606 C 542.642 0.827377 -1.9421 0
M  V30 5607 O 541.99 1.73723 -1.48434 0
M  V30 5608 C 542.2 -1.39199 -3.20038 0
M  V30 5609 C 543.548 -1.53647 -3.95825 0
M  V30 5610 O 544.572 -1.35181 -3.29552 0
M  V30 5611 O 543.431 -1.83932 -5.14618 0
M  V30 5612 H 540.525 -0.244605 -0.789998 0
M  V30 5613 H 543.071 -1.16203 -1.23673 0
M  V30 5614 H 541.843 -2.42766 -3.06888 0
M  V30 5615 H 541.466 -0.911335 -3.87015 0
M  V30 5616 N 542.463 1.3308 -0.844243 0
M  V30 5617 C 543.393 2.3161 -0.296493 0
M  V30 5618 C 544.374 1.59215 0.598707 0
M  V30 5619 O 545.559 1.87077 0.521134 0
M  V30 5620 C 542.689 3.43313 0.524762 0
M  V30 5621 C 541.643 4.27115 -0.275106 0
M  V30 5622 C 540.969 5.30483 0.670236 0
M  V30 5623 C 542.269 5.00443 -1.49514 0
M  V30 5624 H 543.963 2.77672 -1.11976 0
M  V30 5625 H 541.509 1.33496 -0.539899 0
M  V30 5626 H 543.462 4.11273 0.918298 0
M  V30 5627 H 542.186 2.95952 1.3813 0
M  V30 5628 H 540.845 3.60787 -0.650267 0
M  V30 5629 H 540.493 4.79379 1.52332 0
M  V30 5630 H 540.193 5.87435 0.139123 0
M  V30 5631 H 541.717 6.01308 1.06117 0
M  V30 5632 H 543.131 5.61141 -1.17447 0
M  V30 5633 H 541.528 5.67071 -1.96343 0
M  V30 5634 H 542.598 4.28906 -2.26202 0
M  V30 5635 N 543.941 0.601185 1.45683 0
M  V30 5636 C 544.904 -0.111398 2.28929 0
M  V30 5637 C 545.904 -0.801246 1.39416 0
M  V30 5638 O 547.094 -0.650383 1.61603 0
M  V30 5639 C 544.226 -1.16773 3.20276 0
M  V30 5640 H 545.419 0.620412 2.93413 0
M  V30 5641 H 542.972 0.359946 1.52099 0
M  V30 5642 H 543.707 -1.93051 2.60579 0
M  V30 5643 H 543.492 -0.677358 3.86205 0
M  V30 5644 H 544.982 -1.66698 3.82886 0
M  V30 5645 N 545.419 -1.53889 0.339982 0
M  V30 5646 C 546.366 -2.24902 -0.518452 0
M  V30 5647 C 547.336 -1.24593 -1.09844 0
M  V30 5648 O 548.521 -1.53317 -1.13572 0
M  V30 5649 C 545.661 -3.02262 -1.66529 0
M  V30 5650 C 544.774 -4.17418 -1.11295 0
M  V30 5651 C 543.909 -4.82273 -2.2268 0
M  V30 5652 C 542.948 -5.89503 -1.6478 0
M  V30 5653 N 542.085 -6.48153 -2.69893 0
M  V30 5654 H 546.925 -2.97853 0.0936579 0
M  V30 5655 H 544.462 -1.46986 0.0579924 0
M  V30 5656 H 546.42 -3.45371 -2.3404 0
M  V30 5657 H 545.05 -2.31614 -2.24844 0
M  V30 5658 H 544.102 -3.78976 -0.328886 0
M  V30 5659 H 545.414 -4.94554 -0.649414 0
M  V30 5660 H 544.568 -5.28435 -2.98063 0
M  V30 5661 H 543.307 -4.04552 -2.72376 0
M  V30 5662 H 542.312 -5.42728 -0.879004 0
M  V30 5663 H 543.537 -6.6913 -1.1594 0
M  V30 5664 H 541.483 -5.73298 -3.1885 0
M  V30 5665 H 541.4 -7.20752 -2.28151 0
M  V30 5666 H 542.668 -6.98968 -3.45056 0
M  V30 5667 N 546.897 -0.0685191 -1.57451 0
M  V30 5668 C 548.143 0.602239 -1.93652 0
M  V30 5669 C 548.476 1.6946 -0.948526 0
M  V30 5670 O 547.751 1.94487 0.022782 0
M  V30 5671 C 548.034 1.18223 -3.4014 0
M  V30 5672 C 547.887 0.0967431 -4.49696 0
M  V30 5673 C 549.206 2.08872 -3.87377 0
M  V30 5674 H 546.325 0.217453 -0.70419 0
M  V30 5675 H 548.967 -0.133821 -1.89528 0
M  V30 5676 H 547.117 1.80953 -3.43785 0
M  V30 5677 H 548.789 -0.536155 -4.58174 0
M  V30 5678 H 547.032 -0.573063 -4.29998 0
M  V30 5679 H 547.703 0.542894 -5.49324 0
M  V30 5680 H 550.179 1.56081 -3.85717 0
M  V30 5681 H 549.055 2.46389 -4.90493 0
M  V30 5682 H 549.316 2.99572 -3.25129 0
M  V30 5683 N 548.375 1.56261 0.205012 0
M  V30 5684 C 549.308 1.88797 1.28183 0
M  V30 5685 C 550.286 0.747018 1.44424 0
M  V30 5686 O 551.47 0.997039 1.59973 0
M  V30 5687 C 548.597 2.10949 2.64987 0
M  V30 5688 C 547.643 3.33649 2.6567 0
M  V30 5689 S 548.476 4.89078 2.18088 0
M  V30 5690 C 549.632 5.14286 3.56736 0
M  V30 5691 H 549.865 2.79837 1.00393 0
M  V30 5692 H 547.398 1.48911 0.408042 0
M  V30 5693 H 549.356 2.24395 3.4374 0
M  V30 5694 H 548.017 1.20678 2.89993 0
M  V30 5695 H 547.21 3.46245 3.66239 0
M  V30 5696 H 546.812 3.19146 1.94992 0
M  V30 5697 H 549.104 5.04198 4.52537 0
M  V30 5698 H 550.047 6.16096 3.49043 0
M  V30 5699 H 550.455 4.41957 3.51189 0
M  V30 5700 N 549.853 -0.472356 1.50355 0
M  V30 5701 C 551.269 -0.806001 1.37753 0
M  V30 5702 C 551.469 -1.968 0.432649 0
M  V30 5703 O 550.525 -2.52189 -0.12519 0
M  V30 5704 C 551.838 -1.11926 2.79093 0
M  V30 5705 C 553.386 -1.22579 2.87999 0
M  V30 5706 C 553.861 -1.57218 4.3017 0
M  V30 5707 N 555.352 -1.64212 4.33115 0
M  V30 5708 C 556.087 -1.92517 5.40116 0
M  V30 5709 N 555.583 -2.1885 6.57325 0
M  V30 5710 N 557.376 -1.94008 5.27558 0
M  V30 5711 H 549.527 0.293451 2.10363 0
M  V30 5712 H 551.79 0.0687672 0.945503 0
M  V30 5713 H 551.496 -0.338504 3.50067 0
M  V30 5714 H 551.37 -2.05577 3.16256 0
M  V30 5715 H 553.757 -1.99722 2.17245 0
M  V30 5716 H 553.838 -0.269107 2.54381 0
M  V30 5717 H 553.482 -0.806154 5.01461 0
M  V30 5718 H 553.412 -2.54034 4.61275 0
M  V30 5719 H 555.903 -1.45906 3.48597 0
M  V30 5720 H 556.216 -2.39718 7.3468 0
M  V30 5721 H 554.561 -2.16245 6.60502 0
M  V30 5722 H 557.752 -1.72931 4.34986 0
M  V30 5723 H 557.925 -2.15731 6.11035 0
M  V30 5724 N 551.331 -1.39911 -0.725443 0
M  V30 5725 C 552.294 -1.39156 -1.82121 0
M  V30 5726 C 553.294 -0.287018 -1.58218 0
M  V30 5727 O 554.484 -0.545421 -1.65441 0
M  V30 5728 C 551.616 -1.1736 -3.20062 0
M  V30 5729 H 552.809 -2.36672 -1.84191 0
M  V30 5730 H 550.362 -1.25615 -0.930079 0
M  V30 5731 H 551.097 -0.205648 -3.23647 0
M  V30 5732 H 550.882 -1.97358 -3.3881 0
M  V30 5733 H 552.372 -1.19596 -4.00108 0
M  V30 5734 N 552.809 0.956637 -1.25245 0
M  V30 5735 C 554.055 1.70352 -1.10036 0
M  V30 5736 C 554.388 1.90869 0.358156 0
M  V30 5737 O 553.663 1.47819 1.26411 0
M  V30 5738 C 553.946 3.08766 -1.85298 0
M  V30 5739 C 553.799 2.95672 -3.38966 0
M  V30 5740 C 555.118 4.08622 -1.63451 0
M  V30 5741 H 552.237 0.618279 -0.401123 0
M  V30 5742 H 554.879 1.11212 -1.54051 0
M  V30 5743 H 553.029 3.59252 -1.47887 0
M  V30 5744 H 554.701 2.52527 -3.86041 0
M  V30 5745 H 552.944 2.31634 -3.6678 0
M  V30 5746 H 553.615 3.93776 -3.86839 0
M  V30 5747 H 556.091 3.67038 -1.96015 0
M  V30 5748 H 554.967 5.03514 -2.18551 0
M  V30 5749 H 555.228 4.3834 -0.575357 0
M  V30 5750 N 554.287 1.06798 1.15896 0
M  V30 5751 C 555.527 0.797041 1.8822 0
M  V30 5752 C 555.891 -0.664549 1.80133 0
M  V30 5753 O 557.092 -1.0503 2.47431 0
M  V30 5754 C 555.363 1.28431 3.33527 0
M  V30 5755 S 556.922 1.14319 4.23647 0
M  V30 5756 H 553.74 0.288988 0.649621 0
M  V30 5757 H 556.342 1.36594 1.39865 0
M  V30 5758 H 555.046 2.34286 3.36954 0
M  V30 5759 H 554.577 0.710371 3.86933 0
M  V30 5760 H 556.592 0.0772467 4.9614 0
M  V30 5761 N 555.766 -1.3263 0.851289 0
M  V30 5762 C 556.699 -2.26952 0.238318 0
M  V30 5763 C 557.677 -1.50243 -0.621757 0
M  V30 5764 O 558.861 -1.79378 -0.579298 0
M  V30 5765 C 555.988 -3.32124 -0.664178 0
M  V30 5766 C 555.034 -4.26325 0.122067 0
M  V30 5767 S 555.867 -5.14404 1.48824 0
M  V30 5768 C 557.023 -6.231 0.591372 0
M  V30 5769 H 557.256 -2.78594 1.03791 0
M  V30 5770 H 554.789 -1.4011 0.648731 0
M  V30 5771 H 556.747 -3.93197 -1.17924 0
M  V30 5772 H 555.408 -2.79273 -1.43755 0
M  V30 5773 H 554.601 -5.00821 -0.565181 0
M  V30 5774 H 554.203 -3.69652 0.568602 0
M  V30 5775 H 556.495 -6.77187 -0.205762 0
M  V30 5776 H 557.438 -6.95936 1.30687 0
M  V30 5777 H 557.846 -5.64252 0.167206 0
M  V30 5778 N 557.244 -0.608902 -1.45362 0
M  V30 5779 C 558.493 -0.10218 -2.01441 0
M  V30 5780 C 558.806 1.27546 -1.48295 0
M  V30 5781 O 560.012 1.87498 -1.96359 0
M  V30 5782 C 558.468 -0.131985 -3.59658 0
M  V30 5783 C 558.076 -1.50956 -4.21801 0
M  V30 5784 C 559.82 0.319427 -4.23296 0
M  V30 5785 C 557.727 -1.49568 -5.72174 0
M  V30 5786 H 556.657 -0.0344314 -0.753213 0
M  V30 5787 H 559.308 -0.764426 -1.6682 0
M  V30 5788 H 557.69 0.596939 -3.91475 0
M  V30 5789 H 558.864 -2.26029 -4.01556 0
M  V30 5790 H 557.179 -1.90318 -3.70362 0
M  V30 5791 H 559.776 0.349013 -5.3356 0
M  V30 5792 H 560.119 1.34237 -3.94064 0
M  V30 5793 H 560.652 -0.356273 -3.96201 0
M  V30 5794 H 557.391 -2.49626 -6.06108 0
M  V30 5795 H 556.911 -0.787542 -5.94607 0
M  V30 5796 H 558.59 -1.21989 -6.35396 0
M  V30 5797 N 558.722 1.53707 -0.348139 0
M  V30 5798 C 559.947 2.05877 0.250883 0
M  V30 5799 C 560.372 1.22115 1.43072 0
M  V30 5800 O 559.73 0.235986 1.79758 0
M  V30 5801 C 559.778 3.54886 0.639416 0
M  V30 5802 O 558.882 3.73948 1.73888 0
M  V30 5803 H 558.223 0.662754 0.040653 0
M  V30 5804 H 560.753 1.98303 -0.503685 0
M  V30 5805 H 560.763 3.97601 0.915295 0
M  V30 5806 H 559.438 4.153 -0.223386 0
M  V30 5807 H 558.015 3.43134 1.45991 0
M  V30 5808 N 560.2 0.0768682 1.57412 0
M  V30 5809 C 561.148 -0.906229 2.1422 0
M  V30 5810 C 562.142 -1.30477 1.08037 0
M  V30 5811 O 563.348 -1.28143 1.2641 0
M  V30 5812 H 559.723 -0.310207 0.685037 0
M  V30 5813 H 561.694 -0.402228 2.95677 0
M  V30 5814 C 560.443 -2.16245 2.72274 0
M  V30 5815 H 559.766 -1.86463 3.53655 0
M  V30 5816 H 561.206 -2.83134 3.15613 0
M  V30 5817 C 559.665 -2.92437 1.67279 0
M  V30 5818 O 560.195 -3.86322 1.10081 0
M  V30 5819 N 558.401 -2.55637 1.38195 0
M  V30 5820 H 557.948 -1.79363 1.84897 0
M  V30 5821 H 557.906 -3.06919 0.681787 0
M  V30 5822 N 561.678 -1.56367 -0.196722 0
M  V30 5823 C 562.903 -1.84991 -0.937714 0
M  V30 5824 C 563.328 -0.660244 -1.76132 0
M  V30 5825 O 562.686 0.390967 -1.77034 0
M  V30 5826 C 562.734 -3.11828 -1.81096 0
M  V30 5827 O 561.838 -2.92266 -2.90955 0
M  V30 5828 H 561.179 -0.609193 -0.264159 0
M  V30 5829 H 563.709 -2.03595 -0.202529 0
M  V30 5830 H 563.719 -3.42579 -2.21594 0
M  V30 5831 H 562.394 -3.98037 -1.2058 0
M  V30 5832 H 560.971 -2.72809 -2.54224 0
M  V30 5833 N 563.156 0.464375 -1.50603 0
M  V30 5834 C 564.384 1.23907 -1.65695 0
M  V30 5835 C 564.799 1.85658 -0.343027 0
M  V30 5836 O 564.156 1.69529 0.675739 0
M  V30 5837 C 564.207 2.3429 -2.75301 0
M  V30 5838 O 563.928 1.7507 -4.01599 0
M  V30 5839 C 565.429 3.25051 -3.01424 0
M  V30 5840 H 562.649 0.374485 -0.556778 0
M  V30 5841 H 565.193 0.55353 -1.96866 0
M  V30 5842 H 563.348 2.98607 -2.46804 0
M  V30 5843 H 563.762 2.47812 -4.62266 0
M  V30 5844 H 565.236 3.98699 -3.81763 0
M  V30 5845 H 565.713 3.84227 -2.12758 0
M  V30 5846 H 566.319 2.66463 -3.31477 0
M  V30 5847 N 564.634 1.40294 0.718013 0
M  V30 5848 C 565.597 1.4012 1.81381 0
M  V30 5849 C 566.597 0.295405 1.58063 0
M  V30 5850 O 567.787 0.554187 1.6515 0
M  V30 5851 C 564.919 1.19056 3.19435 0
M  V30 5852 H 566.112 2.37645 1.82933 0
M  V30 5853 H 563.665 1.26107 0.923405 0
M  V30 5854 H 564.4 0.222809 3.23534 0
M  V30 5855 H 564.185 1.99152 3.37758 0
M  V30 5856 H 565.675 1.21716 3.99468 0
M  V30 5857 N 566.112 -0.949982 1.2575 0
M  V30 5858 C 567.361 -1.68956 1.10168 0
M  V30 5859 C 567.674 -1.92327 -0.356309 0
M  V30 5860 O 568.88 -2.64026 -0.632657 0
M  V30 5861 C 567.336 -3.04196 1.92336 0
M  V30 5862 C 566.944 -2.88603 3.42655 0
M  V30 5863 C 568.688 -3.81904 1.85336 0
M  V30 5864 C 566.595 -4.19262 4.17101 0
M  V30 5865 H 565.525 -0.633645 0.408668 0
M  V30 5866 H 568.176 -1.05719 1.49986 0
M  V30 5867 H 566.558 -3.68363 1.45344 0
M  V30 5868 H 567.732 -2.3334 3.97353 0
M  V30 5869 H 566.047 -2.24345 3.50796 0
M  V30 5870 H 568.644 -4.78688 2.38248 0
M  V30 5871 H 568.987 -4.08099 0.822226 0
M  V30 5872 H 569.52 -3.24495 2.30104 0
M  V30 5873 H 566.259 -3.98254 5.20648 0
M  V30 5874 H 565.779 -4.74273 3.67186 0
M  V30 5875 H 567.458 -4.87775 4.25071 0
M  V30 5876 N 567.59 -1.07411 -1.15328 0
M  V30 5877 C 568.553 -0.698914 -2.18284 0
M  V30 5878 C 569.553 0.261149 -1.58665 0
M  V30 5879 O 570.743 0.0420277 -1.74149 0
M  V30 5880 C 567.875 -0.0302427 -3.40887 0
M  V30 5881 H 569.068 -1.61045 -2.52991 0
M  V30 5882 H 566.621 -0.870724 -1.298 0
M  V30 5883 H 567.356 0.893505 -3.11748 0
M  V30 5884 H 567.141 -0.720759 -3.85419 0
M  V30 5885 H 568.631 0.21759 -4.17033 0
M  V30 5886 N 569.068 1.32177 -0.85831 0
M  V30 5887 C 569.978 2.32561 -0.308606 0
M  V30 5888 C 570.994 1.64209 0.575462 0
M  V30 5889 O 572.17 1.95719 0.474961 0
M  V30 5890 C 569.235 3.43207 0.490909 0
M  V30 5891 C 568.296 4.27243 -0.419733 0
M  V30 5892 C 567.529 5.32605 0.341719 0
M  V30 5893 O 567.752 5.48332 1.57125 0
M  V30 5894 O 566.686 6.0118 -0.294379 0
M  V30 5895 H 570.512 2.81477 -1.14037 0
M  V30 5896 H 568.097 1.35866 -0.621349 0
M  V30 5897 H 569.979 4.10677 0.944574 0
M  V30 5898 H 568.654 2.96474 1.29941 0
M  V30 5899 H 567.561 3.62569 -0.921652 0
M  V30 5900 H 568.894 4.7751 -1.19352 0
M  V30 5901 N 570.547 0.616602 1.45037 0
M  V30 5902 C 571.793 0.115501 2.02471 0
M  V30 5903 C 572.126 -1.25406 1.4828 0
M  V30 5904 O 571.401 -1.82922 0.661051 0
M  V30 5905 C 571.684 0.0863588 3.59996 0
M  V30 5906 C 571.537 1.48723 4.24501 0
M  V30 5907 C 572.856 -0.596762 4.36035 0
M  V30 5908 H 569.975 0.0434461 0.735718 0
M  V30 5909 H 572.617 0.7903 1.72784 0
M  V30 5910 H 570.767 -0.488277 3.85419 0
M  V30 5911 H 572.439 2.10964 4.10234 0
M  V30 5912 H 570.682 2.04534 3.82555 0
M  V30 5913 H 571.353 1.419 5.3345 0
M  V30 5914 H 573.829 -0.10824 4.15959 0
M  V30 5915 H 572.705 -0.586289 5.4576 0
M  V30 5916 H 572.966 -1.66451 4.09569 0
M  V30 5917 N 572.025 -1.5352 0.356285 0
M  V30 5918 C 573.272 -2.01117 -0.236303 0
M  V30 5919 C 573.6 -1.24381 -1.49531 0
M  V30 5920 O 572.855 -0.323057 -1.93015 0
M  V30 5921 C 573.154 -3.52607 -0.583369 0
M  V30 5922 C 572.82 -4.47151 0.58023 0
M  V30 5923 C 571.482 -4.72718 0.899528 0
M  V30 5924 C 573.834 -5.03137 1.36024 0
M  V30 5925 C 571.162 -5.51523 2.00098 0
M  V30 5926 C 573.514 -5.83145 2.45204 0
M  V30 5927 C 572.178 -6.07001 2.77679 0
M  V30 5928 H 571.448 -0.735938 -0.0864695 0
M  V30 5929 H 574.095 -1.85209 0.48683 0
M  V30 5930 H 572.4 -3.66413 -1.38739 0
M  V30 5931 H 574.097 -3.86901 -1.05397 0
M  V30 5932 H 570.687 -4.27394 0.321322 0
M  V30 5933 H 574.871 -4.83339 1.12682 0
M  V30 5934 H 570.127 -5.68229 2.25668 0
M  V30 5935 H 574.301 -6.25537 3.06067 0
M  V30 5936 H 571.928 -6.67851 3.63151 0
M  V30 5937 N 573.503 -0.0852151 -1.57369 0
M  V30 5938 C 574.728 0.592872 -1.98746 0
M  V30 5939 C 575.153 1.61538 -0.963689 0
M  V30 5940 O 574.511 1.81168 0.069071 0
M  V30 5941 C 574.559 1.22599 -3.39119 0
M  V30 5942 O 573.663 2.34185 -3.39457 0
M  V30 5943 H 573.004 0.151314 -0.646529 0
M  V30 5944 H 575.534 -0.163703 -2.03944 0
M  V30 5945 H 575.544 1.56965 -3.76598 0
M  V30 5946 H 574.219 0.476831 -4.13158 0
M  V30 5947 H 572.796 2.01512 -3.13763 0
M  V30 5948 N 574.981 1.5647 0.188427 0
M  V30 5949 C 576.397 1.50204 0.539532 0
M  V30 5950 C 576.597 0.78644 1.85519 0
M  V30 5951 O 575.653 0.339714 2.50204 0
M  V30 5952 C 576.966 2.94893 0.588103 0
M  V30 5953 C 578.514 3.05602 0.67648 0
M  V30 5954 C 578.989 4.51716 0.756101 0
M  V30 5955 N 580.48 4.55894 0.819451 0
M  V30 5956 C 581.215 5.66272 0.90134 0
M  V30 5957 N 580.711 6.86323 0.945118 0
M  V30 5958 N 582.504 5.54201 0.939043 0
M  V30 5959 H 574.655 2.01406 -0.674493 0
M  V30 5960 H 576.918 0.916828 -0.241103 0
M  V30 5961 H 576.624 3.50334 -0.309633 0
M  V30 5962 H 576.498 3.4861 1.44051 0
M  V30 5963 H 578.885 2.50206 1.56465 0
M  V30 5964 H 578.966 2.54999 -0.202262 0
M  V30 5965 H 578.61 5.07739 -0.12774 0
M  V30 5966 H 578.54 5.00058 1.65074 0
M  V30 5967 H 581.031 3.69452 0.794594 0
M  V30 5968 H 581.344 7.66194 1.0083 0
M  V30 5969 H 579.689 6.88968 0.913683 0
M  V30 5970 H 582.88 4.59333 0.901725 0
M  V30 5971 H 583.053 6.40247 0.999402 0
M  V30 5972 N 576.459 -0.456382 1.50847 0
M  V30 5973 C 577.392 -1.57177 1.65441 0
M  V30 5974 C 578.37 -1.54649 0.502224 0
M  V30 5975 O 579.554 -1.74057 0.723633 0
M  V30 5976 C 576.681 -2.95763 1.65052 0
M  V30 5977 C 575.727 -3.16389 2.86007 0
M  V30 5978 S 576.56 -2.94716 4.47105 0
M  V30 5979 C 577.716 -4.35617 4.49432 0
M  V30 5980 H 577.949 -1.44561 2.59787 0
M  V30 5981 H 575.482 -0.644758 1.40293 0
M  V30 5982 H 577.44 -3.75654 1.65512 0
M  V30 5983 H 576.101 -3.05756 0.719153 0
M  V30 5984 H 575.294 -4.17667 2.82081 0
M  V30 5985 H 574.896 -2.44293 2.8319 0
M  V30 5986 H 577.188 -5.28503 4.239 0
M  V30 5987 H 578.131 -4.44582 5.51137 0
M  V30 5988 H 578.539 -4.18382 3.78967 0
M  V30 5989 N 577.937 -1.40673 -0.710563 0
M  V30 5990 C 579.214 -1.29718 -1.46398 0
M  V30 5991 C 579.594 0.082177 -2.1094 0
M  V30 5992 O 578.942 1.09536 -2.00534 0
M  V30 5993 C 579.152 -2.43967 -2.49562 0
M  V30 5994 C 580.5 -2.84436 -3.15248 0
M  V30 5995 O 581.524 -2.43597 -2.59883 0
M  V30 5996 O 580.383 -3.55008 -4.1549 0
M  V30 5997 H 577.477 -0.509697 -0.651258 0
M  V30 5998 H 580.023 -1.52603 -0.742312 0
M  V30 5999 H 578.795 -3.36076 -2.0042 0
M  V30 6000 H 578.418 -2.22879 -3.29258 0
M  V30 6001 N 579.415 0.9433 -1.26252 0
M  V30 6002 C 580.347 2.04542 -1.03417 0
M  V30 6003 C 581.36 1.62799 0.0046911 0
M  V30 6004 O 582.549 1.76944 -0.235146 0
M  V30 6005 C 579.649 3.34511 -0.543671 0
M  V30 6006 C 578.822 4.05033 -1.65128 0
M  V30 6007 C 577.881 5.13273 -1.1592 0
M  V30 6008 O 576.907 5.38095 -1.85586 0
M  V30 6009 N 578.109 5.805 -0.00649279 0
M  V30 6010 H 580.874 2.24699 -1.98319 0
M  V30 6011 H 578.435 1.11264 -1.1761 0
M  V30 6012 H 580.427 4.04212 -0.198703 0
M  V30 6013 H 578.997 3.11042 0.311711 0
M  V30 6014 H 578.217 3.29275 -2.16729 0
M  V30 6015 H 579.505 4.48903 -2.39508 0
M  V30 6016 H 578.903 5.62767 0.575347 0
M  V30 6017 H 577.46 6.51201 0.279416 0
M  V30 6018 N 580.893 1.08022 1.14757 0
M  V30 6019 C 581.84 0.706657 2.19716 0
M  V30 6020 C 582.81 -0.30525 1.63271 0
M  V30 6021 O 583.995 -0.19015 1.8985 0
M  V30 6022 C 581.135 0.117914 3.44898 0
M  V30 6023 C 580.248 1.18212 4.15512 0
M  V30 6024 C 579.383 0.557659 5.28265 0
M  V30 6025 C 578.422 1.60418 5.90705 0
M  V30 6026 N 577.559 1.0018 6.94916 0
M  V30 6027 H 582.399 1.60603 2.51019 0
M  V30 6028 H 579.936 0.802664 1.23271 0
M  V30 6029 H 581.894 -0.241112 4.16503 0
M  V30 6030 H 580.524 -0.744788 3.1409 0
M  V30 6031 H 579.576 1.65863 3.42335 0
M  V30 6032 H 580.888 1.97533 4.5802 0
M  V30 6033 H 580.042 0.146654 6.06523 0
M  V30 6034 H 578.781 -0.267249 4.86967 0
M  V30 6035 H 577.786 2.02489 5.11154 0
M  V30 6036 H 579.011 2.43149 6.34078 0
M  V30 6037 H 576.957 0.197917 6.55701 0
M  V30 6038 H 576.874 1.73216 7.35889 0
M  V30 6039 H 578.142 0.616523 7.77058 0
M  V30 6040 N 582.371 -1.3172 0.865308 0
M  V30 6041 C 583.618 -1.96876 0.473931 0
M  V30 6042 C 583.946 -1.68425 -0.972786 0
M  V30 6043 O 583.201 -0.970742 -1.69927 0
M  V30 6044 C 583.5 -3.5102 0.672283 0
M  V30 6045 C 583.166 -3.9948 2.09108 0
M  V30 6046 C 581.828 -4.12425 2.4791 0
M  V30 6047 C 584.18 -4.2503 3.0166 0
M  V30 6048 C 581.508 -4.48267 3.78515 0
M  V30 6049 C 583.86 -4.62335 4.31774 0
M  V30 6050 C 582.524 -4.73486 4.70497 0
M  V30 6051 H 581.794 -0.72042 0.173424 0
M  V30 6052 H 584.441 -1.56937 1.0974 0
M  V30 6053 H 582.746 -3.91785 -0.034356 0
M  V30 6054 H 584.443 -3.99475 0.349353 0
M  V30 6055 H 581.033 -3.89898 1.77981 0
M  V30 6056 H 585.217 -4.14529 2.7291 0
M  V30 6057 H 580.473 -4.55097 4.08285 0
M  V30 6058 H 584.647 -4.81058 5.03543 0
M  V30 6059 H 582.274 -5.01016 5.71741 0
M  V30 6060 N 583.85 -0.624285 -1.44708 0
M  V30 6061 C 585.127 -0.0572781 -1.95516 0
M  V30 6062 C 585.507 1.41516 -1.56641 0
M  V30 6063 O 584.855 2.12614 -0.837111 0
M  V30 6064 C 585.065 -0.272944 -3.47931 0
M  V30 6065 C 586.413 -0.162529 -4.24289 0
M  V30 6066 O 587.437 -0.203946 -3.55616 0
M  V30 6067 O 586.296 -0.0616847 -5.46465 0
M  V30 6068 H 583.389 0.0262219 -0.826584 0
M  V30 6069 H 585.936 -0.695512 -1.54793 0
M  V30 6070 H 584.707 -1.29492 -3.69253 0
M  V30 6071 H 584.331 0.399756 -3.95585 0
M  V30 6072 N 585.328 1.53329 -0.364422 0
M  V30 6073 C 586.258 2.28627 0.474543 0
M  V30 6074 C 587.239 1.31009 1.08492 0
M  V30 6075 O 588.424 1.59878 1.10239 0
M  V30 6076 C 585.554 3.07465 1.61501 0
M  V30 6077 C 584.508 4.1276 1.13194 0
M  V30 6078 C 583.834 4.79674 2.36255 0
M  V30 6079 C 585.134 5.21847 0.217507 0
M  V30 6080 H 586.828 2.99005 -0.153656 0
M  V30 6081 H 584.374 1.43803 -0.0753406 0
M  V30 6082 H 586.327 3.58889 2.20855 0
M  V30 6083 H 585.051 2.34775 2.27042 0
M  V30 6084 H 583.71 3.62281 0.56109 0
M  V30 6085 H 583.358 4.03557 3.00251 0
M  V30 6086 H 583.058 5.50827 2.04606 0
M  V30 6087 H 584.582 5.33892 2.96297 0
M  V30 6088 H 585.996 5.6878 0.718493 0
M  V30 6089 H 584.393 6.00099 -0.00806408 0
M  V30 6090 H 585.463 4.7921 -0.740653 0
M  V30 6091 N 586.806 0.0935595 1.57322 0
M  V30 6092 C 587.739 -0.902505 2.09595 0
M  V30 6093 C 588.717 -1.27732 1.00615 0
M  V30 6094 O 589.901 -1.38283 1.28102 0
M  V30 6095 C 587.028 -2.20416 2.57166 0
M  V30 6096 C 586.074 -1.97932 3.7779 0
M  V30 6097 S 586.907 -1.21873 5.21447 0
M  V30 6098 C 588.063 -2.53273 5.72367 0
M  V30 6099 H 588.296 -0.457797 2.93754 0
M  V30 6100 H 585.829 -0.119694 1.53935 0
M  V30 6101 H 587.787 -2.95217 2.85232 0
M  V30 6102 H 586.448 -2.62008 1.73235 0
M  V30 6103 H 585.641 -2.94316 4.09138 0
M  V30 6104 H 585.243 -1.3126 3.5021 0
M  V30 6105 H 587.535 -3.49256 5.8054 0
M  V30 6106 H 588.478 -2.26505 6.70896 0
M  V30 6107 H 588.886 -2.61475 5.00291 0
M  V30 6108 N 588.284 -1.56567 -0.180126 0
M  V30 6109 C 589.514 -1.85349 -0.912647 0
M  V30 6110 C 589.922 -0.675795 -1.76719 0
M  V30 6111 O 589.265 0.3645 -1.80047 0
M  V30 6112 C 589.327 -3.08431 -1.84691 0
M  V30 6113 C 588.991 -4.41694 -1.17284 0
M  V30 6114 C 589.988 -5.17062 -0.542532 0
M  V30 6115 C 587.673 -4.8843 -1.17223 0
M  V30 6116 C 589.667 -6.37351 0.0793953 0
M  V30 6117 C 587.354 -6.08652 -0.54647 0
M  V30 6118 C 588.352 -6.82955 0.0782458 0
M  V30 6119 O 588.04 -8.00897 0.694158 0
M  V30 6120 H 587.772 -0.619286 -0.271036 0
M  V30 6121 H 590.326 -2.0454 -0.187768 0
M  V30 6122 H 588.556 -2.85163 -2.61188 0
M  V30 6123 H 590.245 -3.23733 -2.44851 0
M  V30 6124 H 591.011 -4.8204 -0.535045 0
M  V30 6125 H 586.89 -4.30542 -1.64788 0
M  V30 6126 H 590.434 -6.95287 0.567612 0
M  V30 6127 H 586.331 -6.4314 -0.55151 0
M  V30 6128 H 587.099 -8.16352 0.592537 0
M  V30 6129 N 589.762 0.448376 -1.51087 0
M  V30 6130 C 590.725 1.52588 -1.71025 0
M  V30 6131 C 591.725 1.49958 -0.580442 0
M  V30 6132 O 592.915 1.52176 -0.847833 0
M  V30 6133 C 590.047 2.92163 -1.75652 0
M  V30 6134 H 591.24 1.36218 -2.67179 0
M  V30 6135 H 588.793 0.676313 -1.4091 0
M  V30 6136 H 589.528 3.13951 -0.812724 0
M  V30 6137 H 589.313 2.95478 -2.57751 0
M  V30 6138 H 590.803 3.70349 -1.92953 0
M  V30 6139 N 591.24 1.41047 0.703093 0
M  V30 6140 C 592.187 1.42302 1.81711 0
M  V30 6141 C 593.157 0.278336 1.63751 0
M  V30 6142 O 594.342 0.478266 1.84709 0
M  V30 6143 C 591.482 1.30362 3.19531 0
M  V30 6144 C 590.595 2.54638 3.48975 0
M  V30 6145 C 589.73 2.35047 4.76368 0
M  V30 6146 C 588.769 3.54837 4.98756 0
M  V30 6147 N 587.906 3.34363 6.1737 0
M  V30 6148 H 592.746 2.37516 1.79973 0
M  V30 6149 H 590.283 1.1795 0.878983 0
M  V30 6150 H 592.241 1.21443 3.99134 0
M  V30 6151 H 590.871 0.387602 3.20464 0
M  V30 6152 H 589.923 2.74037 2.63833 0
M  V30 6153 H 591.235 3.43766 3.61423 0
M  V30 6154 H 590.389 2.23552 5.64012 0
M  V30 6155 H 589.128 1.43363 4.66153 0
M  V30 6156 H 588.133 3.66795 4.09563 0
M  V30 6157 H 589.358 4.47464 5.10835 0
M  V30 6158 H 587.304 2.45373 6.08382 0
M  V30 6159 H 587.221 4.17063 6.30551 0
M  V30 6160 H 588.489 3.26626 7.07768 0
M  V30 6161 N 592.718 -0.936591 1.26751 0
M  V30 6162 C 594.134 -1.21095 1.03963 0
M  V30 6163 C 594.334 -2.00156 -0.232372 0
M  V30 6164 O 593.39 -2.3434 -0.940274 0
M  V30 6165 C 594.703 -1.96775 2.27377 0
M  V30 6166 C 596.251 -2.09749 2.32324 0
M  V30 6167 C 596.726 -2.88832 3.55443 0
M  V30 6168 N 598.217 -2.96404 3.55948 0
M  V30 6169 C 598.952 -3.58036 4.47881 0
M  V30 6170 N 598.448 -4.21132 5.50109 0
M  V30 6171 N 600.241 -3.55353 4.35523 0
M  V30 6172 H 592.392 -0.408173 2.08441 0
M  V30 6173 H 594.655 -0.243139 0.91629 0
M  V30 6174 H 594.361 -1.46094 3.19921 0
M  V30 6175 H 594.235 -2.97424 2.31989 0
M  V30 6176 H 596.622 -2.5962 1.40291 0
M  V30 6177 H 596.703 -1.08347 2.31721 0
M  V30 6178 H 596.347 -2.39647 4.47808 0
M  V30 6179 H 596.277 -3.90499 3.53296 0
M  V30 6180 H 598.768 -2.51552 2.82011 0
M  V30 6181 H 599.081 -4.66071 6.16439 0
M  V30 6182 H 597.426 -4.19705 5.53961 0
M  V30 6183 H 600.617 -3.05256 3.54875 0
M  V30 6184 H 600.79 -4.03097 5.07363 0
M  V30 6185 N 594.196 -1.08629 -1.14182 0
M  V30 6186 C 595.159 -0.722027 -2.1753 0
M  V30 6187 C 596.159 0.244305 -1.58933 0
M  V30 6188 O 597.349 0.0235545 -1.74184 0
M  V30 6189 C 594.481 -0.0663966 -3.40835 0
M  V30 6190 H 595.674 -1.63719 -2.51269 0
M  V30 6191 H 593.227 -0.884442 -1.28869 0
M  V30 6192 H 593.962 0.860389 -3.12678 0
M  V30 6193 H 593.747 -0.761598 -3.84632 0
M  V30 6194 H 595.237 0.173346 -4.1724 0
M  V30 6195 N 595.674 1.31259 -0.872281 0
M  V30 6196 C 596.921 1.96622 -0.484365 0
M  V30 6197 C 597.249 1.68939 0.963841 0
M  V30 6198 O 596.504 0.97974 1.6941 0
M  V30 6199 C 596.803 3.50659 -0.690889 0
M  V30 6200 C 596.469 3.98366 -2.11224 0
M  V30 6201 C 595.131 4.11104 -2.50094 0
M  V30 6202 C 597.483 4.23425 -3.0391 0
M  V30 6203 C 594.811 4.46254 -3.80887 0
M  V30 6204 C 597.163 4.60039 -4.3422 0
M  V30 6205 C 595.827 4.70984 -4.73001 0
M  V30 6206 H 595.097 0.71949 -0.177242 0
M  V30 6207 H 597.744 1.56353 -1.10571 0
M  V30 6208 H 596.049 3.91798 0.0135782 0
M  V30 6209 H 597.746 3.99284 -0.370534 0
M  V30 6210 H 594.336 3.88949 -1.80047 0
M  V30 6211 H 598.52 4.13075 -2.75104 0
M  V30 6212 H 593.776 4.52926 -4.10692 0
M  V30 6213 H 597.95 4.78381 -5.06088 0
M  V30 6214 H 595.577 4.97977 -5.7439 0
M  V30 6215 N 597.152 0.631951 1.44375 0
M  V30 6216 C 598.398 0.13697 2.02337 0
M  V30 6217 C 598.731 -1.23826 1.49602 0
M  V30 6218 O 598.006 -1.8221 0.680415 0
M  V30 6219 C 598.289 0.124536 3.59885 0
M  V30 6220 C 598.142 1.53217 4.229 0
M  V30 6221 C 599.461 -0.550481 4.36644 0
M  V30 6222 H 596.58 0.051247 0.735216 0
M  V30 6223 H 599.222 0.808581 1.71936 0
M  V30 6224 H 597.372 -0.44737 3.85916 0
M  V30 6225 H 599.044 2.15303 4.07973 0
M  V30 6226 H 597.287 2.0858 3.80364 0
M  V30 6227 H 597.958 1.4755 5.31914 0
M  V30 6228 H 600.434 -0.0641154 4.16051 0
M  V30 6229 H 599.31 -0.528371 5.46351 0
M  V30 6230 H 599.571 -1.62097 4.11311 0
M  V30 6231 N 598.631 -1.53133 0.372548 0
M  V30 6232 C 599.581 -2.22733 -0.487218 0
M  V30 6233 C 600.565 -1.22506 -1.04312 0
M  V30 6234 O 601.757 -1.47923 -0.972005 0
M  V30 6235 C 598.886 -3.02524 -1.62278 0
M  V30 6236 C 597.972 -4.10133 -1.07943 0
M  V30 6237 N 598.363 -5.05133 -0.259629 0
M  V30 6238 C 596.661 -4.24964 -1.35356 0
M  V30 6239 C 597.362 -5.81687 0.0386656 0
M  V30 6240 N 596.338 -5.40699 -0.560827 0
M  V30 6241 H 600.14 -2.93538 0.145853 0
M  V30 6242 H 597.654 -1.61389 0.180938 0
M  V30 6243 H 599.651 -3.50909 -2.25096 0
M  V30 6244 H 598.311 -2.33252 -2.25884 0
M  V30 6245 H 599.322 -5.178 0.101746 0
M  V30 6246 H 595.999 -3.66919 -1.9919 0
M  V30 6247 H 597.389 -6.68224 0.701841 0
M  V30 6248 N 600.109 -0.101901 -1.5727 0
M  V30 6249 C 601.355 0.554864 -1.95686 0
M  V30 6250 C 601.71 1.65368 -0.983415 0
M  V30 6251 O 601.003 1.91597 -0.0105374 0
M  V30 6252 C 601.197 1.14898 -3.38427 0
M  V30 6253 C 601.026 0.109251 -4.49567 0
M  V30 6254 C 599.796 -0.316633 -5.04307 0
M  V30 6255 C 601.994 -0.665196 -5.0998 0
M  V30 6256 N 599.976 -1.34393 -5.99009 0
M  V30 6257 C 601.347 -1.54413 -6.00464 0
M  V30 6258 C 603.402 -0.717966 -4.92696 0
M  V30 6259 C 602.105 -2.47122 -6.75517 0
M  V30 6260 C 604.131 -1.63268 -5.68417 0
M  V30 6261 C 603.493 -2.49923 -6.58572 0
M  V30 6262 H 599.592 0.17317 -0.762585 0
M  V30 6263 H 602.176 -0.18605 -1.93809 0
M  V30 6264 H 600.347 1.85969 -3.40984 0
M  V30 6265 H 602.079 1.76867 -3.64006 0
M  V30 6266 H 598.834 0.0724419 -4.73545 0
M  V30 6267 H 599.258 -1.85598 -6.51062 0
M  V30 6268 H 603.9 -0.0621637 -4.22754 0
M  V30 6269 H 601.618 -3.13724 -7.44717 0
M  V30 6270 H 605.204 -1.67874 -5.57054 0
M  V30 6271 H 604.084 -3.19553 -7.16139 0
M  V30 6272 N 601.587 1.56661 0.17182 0
M  V30 6273 C 602.817 1.85831 0.902804 0
M  V30 6274 C 603.225 0.685157 1.76358 0
M  V30 6275 O 602.568 -0.354947 1.80238 0
M  V30 6276 C 602.63 3.09406 1.83053 0
M  V30 6277 C 602.294 4.4231 1.1494 0
M  V30 6278 C 603.291 5.17342 0.515104 0
M  V30 6279 C 600.976 4.89045 1.14631 0
M  V30 6280 C 602.97 6.37299 -0.113194 0
M  V30 6281 C 600.657 6.08933 0.514184 0
M  V30 6282 C 601.655 6.82904 -0.114463 0
M  V30 6283 O 601.343 8.00518 -0.736622 0
M  V30 6284 H 601.075 0.620715 0.267748 0
M  V30 6285 H 603.629 2.04637 0.176918 0
M  V30 6286 H 601.859 2.86544 2.59672 0
M  V30 6287 H 603.548 3.25027 2.4313 0
M  V30 6288 H 604.314 4.82317 0.509474 0
M  V30 6289 H 600.193 4.31409 1.62502 0
M  V30 6290 H 603.737 6.94976 -0.604477 0
M  V30 6291 H 599.634 6.43423 0.517395 0
M  V30 6292 H 600.402 8.16027 -0.635822 0
M  V30 6293 N 603.065 -0.440357 1.51323 0
M  V30 6294 C 604.311 -1.19181 1.64085 0
M  V30 6295 C 604.644 -1.90936 0.354575 0
M  V30 6296 O 603.919 -1.8347 -0.645675 0
M  V30 6297 C 604.202 -2.2112 2.84215 0
M  V30 6298 C 604.055 -1.53468 4.22809 0
M  V30 6299 C 605.374 -3.22133 2.99864 0
M  V30 6300 H 602.493 -0.431924 0.597169 0
M  V30 6301 H 605.135 -0.481443 1.83799 0
M  V30 6302 H 603.285 -2.81703 2.67537 0
M  V30 6303 H 604.957 -0.962455 4.51148 0
M  V30 6304 H 603.2 -0.837086 4.25647 0
M  V30 6305 H 603.871 -2.27694 5.02852 0
M  V30 6306 H 606.347 -2.71601 3.15233 0
M  V30 6307 H 605.223 -3.90756 3.85488 0
M  V30 6308 H 605.484 -3.88061 2.11804 0
M  V30 6309 N 604.543 -1.41418 -0.695603 0
M  V30 6310 C 605.791 -1.40496 -1.45277 0
M  V30 6311 C 606.112 -0.0149538 -1.94994 0
M  V30 6312 O 605.382 0.9432 -1.71699 0
M  V30 6313 H 603.962 -0.517147 -0.539044 0
M  V30 6314 H 606.624 -1.76656 -0.823321 0
M  V30 6315 H 605.72 -2.09214 -2.31595 0
M  V30 6316 N 606.021 0.929856 -1.27246 0
M  V30 6317 C 606.931 2.0636 -1.11592 0
M  V30 6318 C 607.947 1.73938 -0.046496 0
M  V30 6319 O 609.123 1.9981 -0.252544 0
M  V30 6320 C 606.188 3.38213 -0.762437 0
M  V30 6321 C 605.249 3.84346 -1.9125 0
M  V30 6322 C 604.482 5.09906 -1.57579 0
M  V30 6323 O 604.705 5.68354 -0.482694 0
M  V30 6324 O 603.639 5.51359 -2.41426 0
M  V30 6325 H 607.465 2.22478 -2.0673 0
M  V30 6326 H 605.05 1.04865 -1.06413 0
M  V30 6327 H 606.932 4.1741 -0.57854 0
M  V30 6328 H 605.607 3.23307 0.159439 0
M  V30 6329 H 604.514 3.06045 -2.15144 0
M  V30 6330 H 605.847 4.0379 -2.81451 0
M  V30 6331 N 607.499 1.09233 1.13605 0
M  V30 6332 C 608.747 0.825525 1.84471 0
M  V30 6333 C 609.068 -0.650702 1.83823 0
M  V30 6334 O 608.338 -1.47204 1.29259 0
M  V30 6335 H 606.918 0.3024 0.683054 0
M  V30 6336 H 609.58 1.38006 1.37624 0
M  V30 6337 H 608.676 1.17727 2.89045 0
M  V30 6338 N 608.977 -1.30795 0.87923 0
M  V30 6339 C 609.91 -2.26396 0.286404 0
M  V30 6340 C 610.888 -1.51528 -0.589748 0
M  V30 6341 O 612.072 -1.80566 -0.541119 0
M  V30 6342 C 609.199 -3.33458 -0.593581 0
M  V30 6343 C 608.245 -4.2597 0.21247 0
M  V30 6344 S 609.078 -5.11132 1.59702 0
M  V30 6345 C 610.234 -6.21705 0.723408 0
M  V30 6346 H 610.467 -2.7633 1.09677 0
M  V30 6347 H 608 -1.38703 0.678305 0
M  V30 6348 H 609.958 -3.9561 -1.09557 0
M  V30 6349 H 608.619 -2.82259 -1.37799 0
M  V30 6350 H 607.812 -5.01907 -0.458822 0
M  V30 6351 H 607.414 -3.68363 0.646883 0
M  V30 6352 H 609.706 -6.77472 -0.0620739 0
M  V30 6353 H 610.649 -6.93007 1.4542 0
M  V30 6354 H 611.057 -5.63771 0.286855 0
M  V30 6355 N 610.455 -0.639598 -1.44038 0
M  V30 6356 C 611.365 0.0612377 -2.3452 0
M  V30 6357 C 612.381 0.826717 -1.53106 0
M  V30 6358 O 613.557 0.777059 -1.85806 0
M  V30 6359 C 610.622 1.02492 -3.31204 0
M  V30 6360 C 609.683 0.25788 -4.28525 0
M  V30 6361 C 608.916 1.17566 -5.2059 0
M  V30 6362 O 609.139 2.41461 -5.16771 0
M  V30 6363 O 608.073 0.655407 -5.98321 0
M  V30 6364 H 611.899 -0.68318 -2.95916 0
M  V30 6365 H 609.484 -0.399784 -1.43952 0
M  V30 6366 H 611.366 1.57911 -3.90694 0
M  V30 6367 H 610.041 1.7498 -2.7233 0
M  V30 6368 H 608.948 -0.339566 -3.72556 0
M  V30 6369 H 610.281 -0.427154 -4.90343 0
M  V30 6370 N 611.933 1.52934 -0.380664 0
M  V30 6371 C 612.843 2.29921 0.466192 0
M  V30 6372 C 613.859 1.36488 1.07922 0
M  V30 6373 O 615.035 1.69553 1.0869 0
M  V30 6374 C 612.1 3.08468 1.58266 0
M  V30 6375 C 611.161 4.17595 0.995627 0
M  V30 6376 C 610.394 4.92387 2.05889 0
M  V30 6377 O 610.617 4.67184 3.27254 0
M  V30 6378 O 609.551 5.77949 1.68102 0
M  V30 6379 H 613.377 3.03274 -0.160735 0
M  V30 6380 H 610.962 1.48698 -0.144617 0
M  V30 6381 H 612.844 3.57469 2.23145 0
M  V30 6382 H 611.519 2.37937 2.19471 0
M  V30 6383 H 610.426 3.72811 0.310332 0
M  V30 6384 H 611.759 4.90336 0.427918 0
M  V30 6385 N 613.412 0.11024 1.57214 0
M  V30 6386 C 614.66 -0.548783 1.94506 0
M  V30 6387 C 614.981 -1.67772 0.99386 0
M  V30 6388 O 614.251 -1.9584 0.0485841 0
M  V30 6389 H 612.831 -0.205715 0.718116 0
M  V30 6390 H 615.493 0.177127 1.94093 0
M  V30 6391 H 614.589 -0.949096 2.97319 0
M  V30 6392 N 614.89 -1.56749 -0.16351 0
M  V30 6393 C 615.8 -2.00255 -1.2221 0
M  V30 6394 C 616.816 -0.915194 -1.47987 0
M  V30 6395 O 617.992 -1.22342 -1.59982 0
M  V30 6396 C 615.057 -2.36035 -2.53946 0
M  V30 6397 C 614.118 -3.58637 -2.35962 0
M  V30 6398 C 613.351 -3.92701 -3.61416 0
M  V30 6399 O 613.574 -3.27632 -4.66919 0
M  V30 6400 O 612.508 -4.86019 -3.55062 0
M  V30 6401 H 616.334 -2.90586 -0.882794 0
M  V30 6402 H 613.919 -1.44721 -0.370978 0
M  V30 6403 H 615.801 -2.59982 -3.31643 0
M  V30 6404 H 614.476 -1.48863 -2.8744 0
M  V30 6405 H 613.383 -3.39898 -1.5627 0
M  V30 6406 H 614.716 -4.46374 -2.0739 0
M  V30 6407 N 616.368 0.432326 -1.51554 0
M  V30 6408 C 617.615 1.18134 -1.64471 0
M  V30 6409 C 617.943 1.91076 -0.363349 0
M  V30 6410 O 617.198 1.84492 0.65279 0
M  V30 6411 C 617.497 2.21907 -2.80164 0
M  V30 6412 C 617.163 1.65941 -4.19255 0
M  V30 6413 C 615.825 1.50401 -4.57092 0
M  V30 6414 C 618.177 1.24843 -5.06027 0
M  V30 6415 C 615.505 0.922443 -5.79403 0
M  V30 6416 C 617.857 0.68113 -6.28922 0
M  V30 6417 C 616.521 0.512673 -6.65528 0
M  V30 6418 H 615.791 0.432283 -0.601841 0
M  V30 6419 H 618.438 0.471701 -1.856 0
M  V30 6420 H 616.743 2.98928 -2.53277 0
M  V30 6421 H 618.44 2.79691 -2.87357 0
M  V30 6422 H 615.03 1.79014 -3.89425 0
M  V30 6423 H 619.214 1.35667 -4.77397 0
M  V30 6424 H 614.47 0.779733 -6.06408 0
M  V30 6425 H 618.644 0.35418 -6.95499 0
M  V30 6426 H 616.271 0.0599084 -7.60176 0
M  V30 6427 N 617.846 1.41785 0.688094 0
M  V30 6428 C 619.071 1.45117 1.48175 0
M  V30 6429 C 619.496 0.060129 1.88004 0
M  V30 6430 O 618.854 -0.938385 1.55126 0
M  V30 6431 C 618.902 2.37224 2.71583 0
M  V30 6432 O 618.006 1.83443 3.69354 0
M  V30 6433 H 617.347 0.492208 0.445676 0
M  V30 6434 H 619.877 1.86329 0.845145 0
M  V30 6435 H 619.887 2.53353 3.19806 0
M  V30 6436 H 618.562 3.38293 2.41931 0
M  V30 6437 H 617.139 1.76802 3.28322 0
M  V30 6438 N 619.324 -0.923095 1.27737 0
M  V30 6439 C 620.234 -2.05765 1.12685 0
M  V30 6440 C 621.25 -1.73911 0.0557197 0
M  V30 6441 O 622.426 -1.99674 0.263137 0
M  V30 6442 C 619.491 -3.37804 0.780363 0
M  V30 6443 C 618.552 -3.83326 1.93286 0
M  V30 6444 C 617.785 -5.09064 1.60281 0
M  V30 6445 O 618.008 -5.6809 0.512828 0
M  V30 6446 O 616.942 -5.50071 2.44347 0
M  V30 6447 H 620.768 -2.21378 2.07907 0
M  V30 6448 H 618.353 -1.04299 1.06968 0
M  V30 6449 H 620.235 -4.17097 0.600668 0
M  V30 6450 H 618.91 -3.23387 -0.142291 0
M  V30 6451 H 617.817 -3.049 2.16764 0
M  V30 6452 H 619.15 -4.02292 2.83588 0
M  V30 6453 N 620.802 -1.09834 -1.13024 0
M  V30 6454 C 621.765 -0.745058 -2.16752 0
M  V30 6455 C 622.765 0.227435 -1.59183 0
M  V30 6456 O 623.955 0.0050786 -1.74199 0
M  V30 6457 C 621.087 -0.102543 -3.40746 0
M  V30 6458 H 622.28 -1.66375 -2.49518 0
M  V30 6459 H 619.833 -0.898061 -1.27924 0
M  V30 6460 H 620.568 0.827177 -3.13573 0
M  V30 6461 H 620.353 -0.80235 -3.83803 0
M  V30 6462 H 621.843 0.129082 -4.174 0
M  V30 6463 N 622.28 1.30327 -0.886154 0
M  V30 6464 C 623.696 1.48676 -0.580323 0
M  V30 6465 C 623.896 1.81189 0.881639 0
M  V30 6466 O 622.952 1.90021 1.66278 0
M  V30 6467 C 624.265 2.60932 -1.49449 0
M  V30 6468 C 625.813 2.74812 -1.49824 0
M  V30 6469 C 626.288 3.90183 -2.39836 0
M  V30 6470 N 627.779 3.97495 -2.37806 0
M  V30 6471 C 628.514 4.86078 -3.04165 0
M  V30 6472 N 628.01 5.79448 -3.79753 0
M  V30 6473 N 629.803 4.79456 -2.93391 0
M  V30 6474 H 621.954 1.07495 -1.8319 0
M  V30 6475 H 624.217 0.532661 -0.784204 0
M  V30 6476 H 623.923 2.43731 -2.5355 0
M  V30 6477 H 623.797 3.57437 -1.20494 0
M  V30 6478 H 626.184 2.91418 -0.464731 0
M  V30 6479 H 626.265 1.78924 -1.82811 0
M  V30 6480 H 625.909 3.74334 -3.43273 0
M  V30 6481 H 625.839 4.85411 -2.04166 0
M  V30 6482 H 628.33 3.30703 -1.82877 0
M  V30 6483 H 628.643 6.43805 -4.27475 0
M  V30 6484 H 626.988 5.79376 -3.8386 0
M  V30 6485 H 630.179 4.05494 -2.33864 0
M  V30 6486 H 630.352 5.48283 -3.45383 0
M  V30 6487 N 623.758 0.647228 1.43697 0
M  V30 6488 C 624.668 -0.0487997 2.34549 0
M  V30 6489 C 625.684 -0.818586 1.53542 0
M  V30 6490 O 626.86 -0.767195 1.86215 0
M  V30 6491 C 623.925 -1.00734 3.31743 0
M  V30 6492 C 622.986 -0.23515 4.28655 0
M  V30 6493 C 622.219 -1.14803 5.21206 0
M  V30 6494 O 622.442 -2.38717 5.18045 0
M  V30 6495 O 621.376 -0.623667 5.9866 0
M  V30 6496 H 625.202 0.698863 2.9555 0
M  V30 6497 H 622.787 0.407412 1.43738 0
M  V30 6498 H 624.669 -1.55837 3.91526 0
M  V30 6499 H 623.344 -1.73534 2.73254 0
M  V30 6500 H 622.251 0.359319 3.7237 0
M  V30 6501 H 623.584 0.453152 4.9011 0
M  V30 6502 N 625.236 -1.5273 0.388769 0
M  V30 6503 C 626.513 -1.93981 -0.251133 0
M  V30 6504 C 626.893 -1.32418 -1.64404 0
M  V30 6505 O 626.241 -0.492074 -2.23139 0
M  V30 6506 C 626.451 -3.47891 -0.27802 0
M  V30 6507 C 627.799 -4.21559 -0.507229 0
M  V30 6508 O 628.823 -3.54394 -0.358252 0
M  V30 6509 O 627.682 -5.40626 -0.799094 0
M  V30 6510 H 624.776 -0.812157 -0.15598 0
M  V30 6511 H 627.322 -1.63809 0.443237 0
M  V30 6512 H 626.094 -3.8503 0.697669 0
M  V30 6513 H 625.717 -3.84364 -1.01733 0
M  V30 6514 N 626.714 -0.118576 -1.57153 0
M  V30 6515 C 627.644 0.828436 -2.1831 0
M  V30 6516 C 628.625 1.27758 -1.12303 0
M  V30 6517 O 629.81 1.34026 -1.40537 0
M  V30 6518 C 626.94 2.07876 -2.78217 0
M  V30 6519 C 625.894 1.76742 -3.89803 0
M  V30 6520 C 625.22 3.08801 -4.36516 0
M  V30 6521 C 626.52 1.03606 -5.11921 0
M  V30 6522 H 628.214 0.318824 -2.97698 0
M  V30 6523 H 625.76 0.151911 -1.43196 0
M  V30 6524 H 627.713 2.74584 -3.19659 0
M  V30 6525 H 626.437 2.61161 -1.96118 0
M  V30 6526 H 625.096 1.12424 -3.48936 0
M  V30 6527 H 624.744 3.6002 -3.51276 0
M  V30 6528 H 624.444 2.88743 -5.11763 0
M  V30 6529 H 625.968 3.76627 -4.80608 0
M  V30 6530 H 627.382 1.60467 -5.50385 0
M  V30 6531 H 625.779 0.936454 -5.92748 0
M  V30 6532 H 626.849 0.0227421 -4.84895 0
M  V30 6533 N 628.193 1.56834 0.155195 0
M  V30 6534 C 629.156 1.96748 1.17571 0
M  V30 6535 C 630.156 0.853006 1.3631 0
M  V30 6536 O 631.346 1.11978 1.33441 0
M  V30 6537 C 628.478 2.27631 2.53765 0
M  V30 6538 H 629.671 2.88085 0.833498 0
M  V30 6539 H 627.224 1.51141 0.398242 0
M  V30 6540 H 627.959 1.39059 2.92973 0
M  V30 6541 H 627.744 3.0888 2.41527 0
M  V30 6542 H 629.234 2.59377 3.27282 0
M  V30 6543 N 629.671 -0.424282 1.51781 0
M  V30 6544 C 630.634 -1.49848 1.73431 0
M  V30 6545 C 631.634 -1.49016 0.604225 0
M  V30 6546 O 632.824 -1.50808 0.871935 0
M  V30 6547 C 629.956 -2.89332 1.80277 0
M  V30 6548 H 631.149 -1.3195 2.69312 0
M  V30 6549 H 628.702 -0.653809 1.41968 0
M  V30 6550 H 629.437 -3.12618 0.862568 0
M  V30 6551 H 629.222 -2.9134 2.62419 0
M  V30 6552 H 630.712 -3.67233 1.98821 0
M  V30 6553 N 631.149 -1.42148 -0.680565 0
M  V30 6554 C 632.079 -1.4796 -1.80638 0
M  V30 6555 C 633.06 -0.336728 -1.66734 0
M  V30 6556 O 634.245 -0.550247 -1.86242 0
M  V30 6557 C 631.375 -1.37569 -3.18892 0
M  V30 6558 C 630.329 -2.49823 -3.47524 0
M  V30 6559 C 629.655 -2.24491 -4.85291 0
M  V30 6560 C 630.955 -3.92144 -3.44994 0
M  V30 6561 H 632.649 -2.42184 -1.76032 0
M  V30 6562 H 630.195 -1.16566 -0.845481 0
M  V30 6563 H 632.148 -1.40243 -3.97379 0
M  V30 6564 H 630.872 -0.398357 -3.24162 0
M  V30 6565 H 629.531 -2.46455 -2.71395 0
M  V30 6566 H 629.179 -1.25066 -4.87204 0
M  V30 6567 H 628.879 -2.99722 -5.05411 0
M  V30 6568 H 630.403 -2.28906 -5.66069 0
M  V30 6569 H 631.817 -3.97145 -4.13459 0
M  V30 6570 H 630.214 -4.67179 -3.76648 0
M  V30 6571 H 631.284 -4.19225 -2.43676 0
M  V30 6572 N 632.627 0.916307 -1.28225 0
M  V30 6573 C 633.537 2.05165 -1.13775 0
M  V30 6574 C 634.553 1.73879 -0.0649418 0
M  V30 6575 O 635.729 1.99531 -0.273722 0
M  V30 6576 C 632.794 3.37385 -0.798267 0
M  V30 6577 C 631.855 3.82296 -1.95316 0
M  V30 6578 C 631.088 5.08206 -1.62978 0
M  V30 6579 O 631.311 5.6781 -0.542948 0
M  V30 6580 O 630.245 5.48768 -2.47261 0
M  V30 6581 H 634.071 2.20273 -2.09078 0
M  V30 6582 H 631.656 1.0373 -1.07519 0
M  V30 6583 H 633.538 4.16773 -0.62278 0
M  V30 6584 H 632.213 3.23458 0.125139 0
M  V30 6585 H 631.12 3.03746 -2.18378 0
M  V30 6586 H 632.453 4.00782 -2.85718 0
M  V30 6587 N 634.105 1.10431 1.1244 0
M  V30 6588 C 635.052 0.753103 2.18167 0
M  V30 6589 C 636.022 -0.270549 1.63882 0
M  V30 6590 O 637.207 -0.149837 1.90211 0
M  V30 6591 C 634.347 0.191046 3.44571 0
M  V30 6592 C 633.46 1.26999 4.12911 0
M  V30 6593 C 632.595 0.669586 5.26963 0
M  V30 6594 C 631.634 1.72912 5.87169 0
M  V30 6595 N 630.771 1.14898 6.92635 0
M  V30 6596 H 635.611 1.65892 2.47556 0
M  V30 6597 H 633.148 0.828631 1.21541 0
M  V30 6598 H 635.106 -0.152712 4.1692 0
M  V30 6599 H 633.736 -0.677997 3.15599 0
M  V30 6600 H 632.788 1.73087 3.3874 0
M  V30 6601 H 634.1 2.07204 4.53727 0
M  V30 6602 H 633.254 0.275274 6.06075 0
M  V30 6603 H 631.993 -0.163895 4.87425 0
M  V30 6604 H 630.998 2.13286 5.06744 0
M  V30 6605 H 632.223 2.56544 6.28778 0
M  V30 6606 H 630.169 0.336956 6.55134 0
M  V30 6607 H 630.086 1.88786 7.32049 0
M  V30 6608 H 631.354 0.78121 7.75576 0
M  V30 6609 N 635.583 -1.29855 0.893053 0
M  V30 6610 C 636.86 -1.90694 0.435336 0
M  V30 6611 C 637.24 -1.8111 -1.08454 0
M  V30 6612 O 636.588 -1.23352 -1.92345 0
M  V30 6613 C 636.798 -3.36033 0.942472 0
M  V30 6614 C 638.146 -4.13083 0.982226 0
M  V30 6615 O 639.17 -3.4491 0.889686 0
M  V30 6616 O 638.029 -5.34896 1.12022 0
M  V30 6617 H 635.123 -0.815978 0.134567 0
M  V30 6618 H 637.669 -1.38367 0.982484 0
M  V30 6619 H 636.441 -3.37132 1.9864 0
M  V30 6620 H 636.064 -3.95828 0.374952 0
M  V30 6621 N 637.061 -0.65484 -1.43351 0
M  V30 6622 C 638.291 -0.176429 -2.05845 0
M  V30 6623 C 638.699 1.16375 -1.49176 0
M  V30 6624 O 638.042 1.72981 -0.618322 0
M  V30 6625 C 638.104 -0.0125844 -3.59498 0
M  V30 6626 C 637.768 -1.27831 -4.38758 0
M  V30 6627 C 638.765 -2.2074 -4.70712 0
M  V30 6628 C 636.45 -1.52035 -4.78739 0
M  V30 6629 C 638.444 -3.36145 -5.41558 0
M  V30 6630 C 636.131 -2.67732 -5.49329 0
M  V30 6631 C 637.129 -3.59612 -5.80662 0
M  V30 6632 O 636.817 -4.73289 -6.4981 0
M  V30 6633 H 636.549 -0.0879682 -0.670252 0
M  V30 6634 H 639.103 -0.896193 -1.84818 0
M  V30 6635 H 637.333 0.762567 -3.79107 0
M  V30 6636 H 639.022 0.423392 -4.03686 0
M  V30 6637 H 639.788 -2.03284 -4.40341 0
M  V30 6638 H 635.667 -0.813987 -4.53757 0
M  V30 6639 H 639.211 -4.07881 -5.65932 0
M  V30 6640 H 635.108 -2.85122 -5.79116 0
M  V30 6641 H 635.876 -4.72575 -6.68293 0
M  V30 6642 N 638.539 1.52521 -0.396863 0
M  V30 6643 C 639.449 2.30403 0.44178 0
M  V30 6644 C 640.465 1.37625 1.06468 0
M  V30 6645 O 641.641 1.70697 1.06886 0
M  V30 6646 C 638.706 3.1013 1.54986 0
M  V30 6647 C 637.767 4.18628 0.951279 0
M  V30 6648 C 637 4.94543 2.00655 0
M  V30 6649 O 637.223 4.70629 3.22281 0
M  V30 6650 O 636.157 5.797 1.61962 0
M  V30 6651 H 639.983 3.03087 -0.192892 0
M  V30 6652 H 637.568 1.48537 -0.16038 0
M  V30 6653 H 639.45 3.59816 2.19341 0
M  V30 6654 H 638.125 2.40251 2.16935 0
M  V30 6655 H 637.032 3.73119 0.270773 0
M  V30 6656 H 638.365 4.90763 0.375887 0
M  V30 6657 N 640.017 0.126909 1.57088 0
M  V30 6658 C 640.927 -0.833867 2.1928 0
M  V30 6659 C 641.943 -1.2868 1.17122 0
M  V30 6660 O 643.119 -1.34815 1.49622 0
M  V30 6661 C 640.184 -2.0632 2.78627 0
M  V30 6662 C 639.245 -1.66143 3.95847 0
M  V30 6663 C 638.478 -2.83217 4.52354 0
M  V30 6664 O 638.701 -3.98868 4.0775 0
M  V30 6665 O 637.635 -2.59846 5.42922 0
M  V30 6666 H 641.461 -0.334564 3.01852 0
M  V30 6667 H 639.046 -0.0991091 1.49071 0
M  V30 6668 H 640.928 -2.78304 3.16425 0
M  V30 6669 H 639.603 -2.55242 1.99082 0
M  V30 6670 H 638.51 -0.912435 3.62802 0
M  V30 6671 H 639.843 -1.21957 4.76852 0
M  V30 6672 N 641.495 -1.56914 -0.146875 0
M  V30 6673 C 642.741 -1.83628 -0.860741 0
M  V30 6674 C 643.074 -0.708528 -1.80813 0
M  V30 6675 O 642.349 0.287838 -1.92358 0
M  V30 6676 C 642.632 -3.20836 -1.63511 0
M  V30 6677 C 642.485 -4.44174 -0.709199 0
M  V30 6678 C 643.804 -3.55268 -2.59756 0
M  V30 6679 H 640.923 -0.667949 -0.311468 0
M  V30 6680 H 643.565 -1.89582 -0.125936 0
M  V30 6681 H 641.715 -3.15891 -2.26153 0
M  V30 6682 H 643.387 -4.61205 -0.0937781 0
M  V30 6683 H 641.63 -4.33796 -0.0187856 0
M  V30 6684 H 642.301 -5.36785 -1.28707 0
M  V30 6685 H 644.777 -3.60824 -2.07232 0
M  V30 6686 H 643.653 -4.52303 -3.10987 0
M  V30 6687 H 643.914 -2.81231 -3.41118 0
M  V30 6688 N 642.974 0.416227 -1.52004 0
M  V30 6689 C 644.222 1.16153 -1.65387 0
M  V30 6690 C 644.543 1.91208 -0.382669 0
M  V30 6691 O 643.813 1.86413 0.602231 0
M  V30 6692 H 642.393 0.431765 -0.60958 0
M  V30 6693 H 645.055 0.475151 -1.89019 0
M  V30 6694 H 644.151 1.87952 -2.4916 0
M  V30 6695 N 644.452 1.42507 0.673017 0
M  V30 6696 C 645.701 1.42364 1.42883 0
M  V30 6697 C 646.014 0.0441598 1.9555 0
M  V30 6698 O 647.22 -0.0798679 2.71382 0
M  V30 6699 C 645.676 2.5043 2.58482 0
M  V30 6700 C 645.284 3.94392 2.12506 0
M  V30 6701 C 647.028 2.59455 3.35981 0
M  V30 6702 C 644.935 4.93964 3.25198 0
M  V30 6703 H 643.865 0.52951 0.536782 0
M  V30 6704 H 646.516 1.68422 0.728448 0
M  V30 6705 H 644.898 2.1754 3.30896 0
M  V30 6706 H 646.072 4.36645 1.47233 0
M  V30 6707 H 644.387 3.89233 1.4794 0
M  V30 6708 H 646.984 3.31025 4.19912 0
M  V30 6709 H 647.327 1.63869 3.82691 0
M  V30 6710 H 647.86 2.91549 2.70637 0
M  V30 6711 H 644.599 5.91034 2.83477 0
M  V30 6712 H 644.119 4.56341 3.89247 0
M  V30 6713 H 645.798 5.15763 3.90637 0
M  V30 6714 N 645.93 -0.909495 1.28709 0
M  V30 6715 C 646.84 -2.04558 1.14861 0
M  V30 6716 C 647.856 -1.73842 0.0741621 0
M  V30 6717 O 649.032 -1.99383 0.2843 0
M  V30 6718 C 646.097 -3.36957 0.816148 0
M  V30 6719 C 645.158 -3.81255 1.97341 0
M  V30 6720 C 644.391 -5.07335 1.65671 0
M  V30 6721 O 644.614 -5.67514 0.573053 0
M  V30 6722 O 643.548 -5.47449 2.50167 0
M  V30 6723 H 647.374 -2.19161 2.10243 0
M  V30 6724 H 644.959 -1.03159 1.08068 0
M  V30 6725 H 646.841 -4.16436 0.644873 0
M  V30 6726 H 645.516 -3.2352 -0.107983 0
M  V30 6727 H 644.423 -3.02584 2.19986 0
M  V30 6728 H 645.756 -3.99261 2.87839 0
M  V30 6729 N 647.408 -1.11026 -1.11852 0
M  V30 6730 C 648.633 -0.879064 -1.87849 0
M  V30 6731 C 649.058 0.565406 -1.79401 0
M  V30 6732 O 648.416 1.39886 -1.15333 0
M  V30 6733 C 648.464 -1.33985 -3.34784 0
M  V30 6734 O 647.568 -0.508803 -4.09249 0
M  V30 6735 H 646.909 -0.316992 -0.583448 0
M  V30 6736 H 649.439 -1.47863 -1.41413 0
M  V30 6737 H 649.449 -1.33248 -3.85628 0
M  V30 6738 H 648.124 -2.39172 -3.40249 0
M  V30 6739 H 646.701 -0.581913 -3.68332 0
M  V30 6740 N 648.886 1.2938 -0.899927 0
M  V30 6741 C 649.834 2.29675 -0.367698 0
M  V30 6742 C 650.828 1.60787 0.533282 0
M  V30 6743 O 652.034 1.75126 0.416058 0
M  V30 6744 H 648.409 0.745284 -0.100279 0
M  V30 6745 H 650.38 2.72008 -1.22696 0
M  V30 6746 C 649.129 3.45512 0.389483 0
M  V30 6747 H 648.452 3.98713 -0.294575 0
M  V30 6748 H 649.892 4.17725 0.726744 0
M  V30 6749 C 648.351 2.969 1.59223 0
M  V30 6750 O 648.881 2.98195 2.69152 0
M  V30 6751 N 647.087 2.52728 1.43447 0
M  V30 6752 H 646.634 2.51873 0.540148 0
M  V30 6753 H 646.592 2.20561 2.24054 0
M  V30 6754 N 650.364 0.662433 1.43002 0
M  V30 6755 C 651.274 -0.0239199 2.34588 0
M  V30 6756 C 652.29 -0.802255 1.54402 0
M  V30 6757 O 653.466 -0.747401 1.87018 0
M  V30 6758 C 650.531 -0.972098 3.32793 0
M  V30 6759 C 649.592 -0.189673 4.28881 0
M  V30 6760 C 648.825 -1.09269 5.22395 0
M  V30 6761 O 649.048 -2.33209 5.20547 0
M  V30 6762 O 647.982 -0.560136 5.99288 0
M  V30 6763 H 651.808 0.730171 2.94792 0
M  V30 6764 H 649.393 0.422635 1.43297 0
M  V30 6765 H 651.275 -1.51676 3.93157 0
M  V30 6766 H 649.95 -1.70626 2.75079 0
M  V30 6767 H 648.857 0.398794 3.71968 0
M  V30 6768 H 650.19 0.50511 4.89601 0
M  V30 6769 N 651.842 -1.52309 0.404946 0
M  V30 6770 C 652.805 -2.25491 -0.410651 0
M  V30 6771 C 653.805 -1.27704 -0.977154 0
M  V30 6772 O 654.995 -1.51679 -0.856691 0
M  V30 6773 C 652.127 -3.02197 -1.57765 0
M  V30 6774 H 653.32 -2.99015 0.230277 0
M  V30 6775 H 650.873 -1.55506 0.157377 0
M  V30 6776 H 651.608 -2.33013 -2.25556 0
M  V30 6777 H 651.393 -3.73987 -1.17797 0
M  V30 6778 H 652.883 -3.57719 -2.15469 0
M  V30 6779 N 653.32 -0.135238 -1.57019 0
M  V30 6780 C 654.23 0.822226 -2.19719 0
M  V30 6781 C 655.246 1.28057 -1.17802 0
M  V30 6782 O 656.422 1.3402 -1.50335 0
M  V30 6783 C 653.487 2.0484 -2.79717 0
M  V30 6784 C 652.548 1.64042 -3.96723 0
M  V30 6785 C 651.781 2.80814 -4.53849 0
M  V30 6786 O 652.004 3.967 -4.0986 0
M  V30 6787 O 650.938 2.56963 -5.44292 0
M  V30 6788 H 654.764 0.318552 -3.02025 0
M  V30 6789 H 652.349 0.0912021 -1.49121 0
M  V30 6790 H 654.231 2.76622 -3.17897 0
M  V30 6791 H 652.906 2.54182 -2.00432 0
M  V30 6792 H 651.813 0.893182 -3.63281 0
M  V30 6793 H 653.146 1.19426 -4.77492 0
M  V30 6794 N 654.798 1.5699 0.138552 0
M  V30 6795 C 656.046 1.83446 0.848053 0
M  V30 6796 C 656.367 0.71744 1.81322 0
M  V30 6797 O 655.637 -0.260228 1.94164 0
M  V30 6798 H 654.217 0.676792 0.316166 0
M  V30 6799 H 656.879 1.94462 0.130538 0
M  V30 6800 H 655.975 2.78677 1.40518 0
M  V30 6801 N 656.276 -0.40816 1.52223 0
M  V30 6802 C 657.186 -1.52202 1.78526 0
M  V30 6803 C 658.202 -1.60546 0.670892 0
M  V30 6804 O 659.378 -1.77242 0.956404 0
M  V30 6805 C 656.443 -2.87928 1.93128 0
M  V30 6806 C 655.504 -2.89463 3.17033 0
M  V30 6807 C 654.737 -4.18715 3.30929 0
M  V30 6808 O 654.96 -5.12662 2.50067 0
M  V30 6809 O 653.894 -4.27125 4.24084 0
M  V30 6810 H 657.72 -1.32911 2.73072 0
M  V30 6811 H 655.305 -0.594112 1.37079 0
M  V30 6812 H 657.187 -3.68426 2.04549 0
M  V30 6813 H 655.862 -3.07285 1.01772 0
M  V30 6814 H 654.769 -2.07815 3.11069 0
M  V30 6815 H 656.102 -2.75055 4.08174 0
M  V30 6816 N 657.755 -1.42862 -0.66545 0
M  V30 6817 C 659.032 -1.3431 -1.42197 0
M  V30 6818 C 659.412 0.0150265 -2.11095 0
M  V30 6819 O 658.76 1.03101 -2.03918 0
M  V30 6820 C 658.97 -2.51783 -2.41674 0
M  V30 6821 C 660.318 -2.94321 -3.0604 0
M  V30 6822 O 661.342 -2.51741 -2.52001 0
M  V30 6823 O 660.201 -3.68047 -4.03985 0
M  V30 6824 H 657.295 -0.530159 -0.634713 0
M  V30 6825 H 659.841 -1.54888 -0.693386 0
M  V30 6826 H 658.613 -3.42282 -1.89627 0
M  V30 6827 H 658.236 -2.33241 -3.22001 0
M  V30 6828 N 659.233 0.902656 -1.29189 0
M  V30 6829 C 660.143 2.03946 -1.15944 0
M  V30 6830 C 661.159 1.738 -0.0833803 0
M  V30 6831 O 662.335 1.9923 -0.29487 0
M  V30 6832 C 659.4 3.36519 -0.834006 0
M  V30 6833 C 658.461 3.80203 -1.9936 0
M  V30 6834 C 657.694 5.06449 -1.68359 0
M  V30 6835 O 657.917 5.67202 -0.603141 0
M  V30 6836 O 656.851 5.46114 -2.53067 0
M  V30 6837 H 660.677 2.18043 -2.11403 0
M  V30 6838 H 658.262 1.02584 -1.08613 0
M  V30 6839 H 660.144 4.16089 -0.666949 0
M  V30 6840 H 658.819 3.23573 0.0908245 0
M  V30 6841 H 657.726 3.01413 -2.21588 0
M  V30 6842 H 659.059 3.97729 -2.89952 0
M  V30 6843 N 660.711 1.11618 1.11262 0
M  V30 6844 C 661.959 0.864469 1.82678 0
M  V30 6845 C 662.28 -0.611564 1.85162 0
M  V30 6846 O 661.55 -1.44429 1.32352 0
M  V30 6847 H 660.13 0.316821 0.676486 0
M  V30 6848 H 662.792 1.40894 1.34666 0
M  V30 6849 H 661.888 1.23832 2.86482 0
M  V30 6850 N 662.189 -1.289 0.906776 0
M  V30 6851 C 663.419 -1.99112 0.551168 0
M  V30 6852 C 663.827 -1.67998 -0.870243 0
M  V30 6853 O 663.17 -0.92525 -1.58697 0
M  V30 6854 C 663.232 -3.53162 0.672065 0
M  V30 6855 C 662.896 -4.07849 2.06174 0
M  V30 6856 C 663.893 -4.22212 3.0337 0
M  V30 6857 C 661.578 -4.4271 2.37304 0
M  V30 6858 C 663.572 -4.70678 4.29815 0
M  V30 6859 C 661.259 -4.90871 3.6399 0
M  V30 6860 C 662.257 -5.04811 4.6006 0
M  V30 6861 O 661.945 -5.51925 5.84495 0
M  V30 6862 H 661.677 -0.642728 0.209469 0
M  V30 6863 H 664.231 -1.65234 1.22012 0
M  V30 6864 H 662.461 -3.86662 -0.05394 0
M  V30 6865 H 664.15 -4.046 0.324579 0
M  V30 6866 H 664.916 -3.9556 2.80637 0
M  V30 6867 H 660.795 -4.31114 1.63283 0
M  V30 6868 H 664.339 -4.81474 5.04806 0
M  V30 6869 H 660.236 -5.16961 3.86551 0
M  V30 6870 H 661.004 -5.70225 5.87185 0
M  V30 6871 N 663.667 -0.670007 -1.42649 0
M  V30 6872 C 664.577 0.0114788 -2.34597 0
M  V30 6873 C 665.593 0.794055 -1.54825 0
M  V30 6874 O 666.769 0.737472 -1.87412 0
M  V30 6875 C 663.834 0.954436 -3.33304 0
M  V30 6876 C 662.895 0.166925 -4.28975 0
M  V30 6877 C 662.128 1.06497 -5.22967 0
M  V30 6878 O 662.351 2.30446 -5.21777 0
M  V30 6879 O 661.285 0.528347 -5.99577 0
M  V30 6880 H 665.111 -0.745794 -2.944 0
M  V30 6881 H 662.696 -0.430228 -1.43071 0
M  V30 6882 H 664.578 1.49589 -3.93956 0
M  V30 6883 H 663.253 1.69164 -2.7598 0
M  V30 6884 H 662.16 -0.418515 -3.71752 0
M  V30 6885 H 663.493 -0.531067 -4.89327 0
M  V30 6886 N 665.145 1.52092 -0.413018 0
M  V30 6887 C 666.108 2.25706 0.398687 0
M  V30 6888 C 667.108 1.28221 0.970368 0
M  V30 6889 O 668.298 1.52131 0.848635 0
M  V30 6890 C 665.43 3.03029 1.5616 0
M  V30 6891 H 666.623 2.98888 -0.246131 0
M  V30 6892 H 664.176 1.5542 -0.165622 0
M  V30 6893 H 664.911 2.34205 2.24317 0
M  V30 6894 H 664.696 3.74606 1.15812 0
M  V30 6895 H 666.186 3.58857 2.13569 0
M  V30 6896 N 666.623 0.143563 1.56945 0
M  V30 6897 C 667.9 -0.553285 1.87612 0
M  V30 6898 C 668.28 -1.83195 1.04894 0
M  V30 6899 O 667.628 -2.28102 0.134773 0
M  V30 6900 C 667.838 -0.822055 3.3918 0
M  V30 6901 C 669.186 -1.16435 4.08324 0
M  V30 6902 O 670.21 -0.911522 3.4434 0
M  V30 6903 O 669.069 -1.63996 5.21313 0
M  V30 6904 H 666.163 -0.281851 0.777489 0
M  V30 6905 H 668.709 0.179916 1.68744 0
M  V30 6906 H 667.481 0.0830265 3.91212 0
M  V30 6907 H 667.104 -1.60956 3.63564 0
M  V30 6908 N 668.101 -1.57061 -0.130224 0
M  V30 6909 C 669.331 -1.88159 -0.853217 0
M  V30 6910 C 669.739 -0.731675 -1.7448 0
M  V30 6911 O 669.082 0.307035 -1.81116 0
M  V30 6912 C 669.144 -3.1415 -1.74785 0
M  V30 6913 C 668.808 -4.45202 -1.03173 0
M  V30 6914 C 669.805 -5.18526 -0.377759 0
M  V30 6915 C 667.49 -4.91912 -1.01624 0
M  V30 6916 C 669.484 -6.36775 0.282123 0
M  V30 6917 C 667.171 -6.10082 -0.352555 0
M  V30 6918 C 668.169 -6.82361 0.295483 0
M  V30 6919 O 667.857 -7.98284 0.948606 0
M  V30 6920 H 667.589 -0.627596 -0.251197 0
M  V30 6921 H 670.143 -2.05034 -0.1226 0
M  V30 6922 H 668.373 -2.93328 -2.51983 0
M  V30 6923 H 670.062 -3.31359 -2.34427 0
M  V30 6924 H 670.828 -4.83498 -0.381417 0
M  V30 6925 H 666.707 -4.35566 -1.51007 0
M  V30 6926 H 670.251 -6.93129 0.788525 0
M  V30 6927 H 666.148 -6.44569 -0.346621 0
M  V30 6928 H 666.916 -8.14054 0.851954 0
M  V30 6929 O 669.618 0.274706 -1.59147 0
M  V30 6930 H 670.309 0.920013 -1.70457 0
M  V30 END ATOM
M  V30 BEGIN BOND
M  V30 END BOND
M  V30 END CTAB
M  END
$$$$
