drugbank_target|P09147 UDP-glucose 4-epimerase (DB01861; DB02421; DB02790; DB03397; DB03435; DB04097)
 OpenBabel12092120013D

  0  0  0     0  0            999 V3000
M  V30 BEGIN CTAB
M  V30 COUNTS 5183 5249 0 0 0
M  V30 BEGIN ATOM
M  V30 1 H -0.908 1.98254 -0.117106 0
M  V30 2 N 0 1.576 0 0
M  V30 3 C 0.933 2.03868 1.02534 0
M  V30 4 C 1.911 0.928543 1.3348 0
M  V30 5 O 3.095 1.19667 1.45644 0
M  V30 6 C 0.222 2.43627 2.35294 0
M  V30 7 C -0.732 3.65373 2.2001 0
M  V30 8 S 0.101 5.13292 1.52614 0
M  V30 9 C 1.257 5.56322 2.86805 0
M  V30 10 H 1.49 2.90518 0.631377 0
M  V30 11 H -0.977 1.52953 0.210867 0
M  V30 12 H 0.981 2.67203 3.11629 0
M  V30 13 H -0.358 1.57376 2.7183 0
M  V30 14 H -1.165 3.90944 3.18086 0
M  V30 15 H -1.563 3.418 1.51819 0
M  V30 16 H 0.729 5.58782 3.83104 0
M  V30 17 H 1.672 6.56266 2.65933 0
M  V30 18 H 2.08 4.83886 2.90714 0
M  V30 19 N 1.4781 -0.272755 1.55222 0
M  V30 20 C 2.8941 -0.619959 1.47067 0
M  V30 21 C 3.0941 -1.895 0.684978 0
M  V30 22 O 2.1501 -2.51675 0.203931 0
M  V30 23 C 3.4631 -0.746693 2.91282 0
M  V30 24 C 5.0111 -0.840731 3.01497 0
M  V30 25 C 5.4861 -0.99924 4.46967 0
M  V30 26 N 6.9771 -1.06476 4.50796 0
M  V30 27 C 7.7121 -1.20621 5.6057 0
M  V30 28 N 7.2081 -1.31483 6.80209 0
M  V30 29 N 9.0011 -1.23733 5.48312 0
M  V30 30 H 1.1521 0.564606 2.04758 0
M  V30 31 H 3.4151 0.191177 0.928523 0
M  V30 32 H 3.1211 0.119753 3.51496 0
M  V30 33 H 2.9951 -1.6269 3.40311 0
M  V30 34 H 5.3821 -1.69764 2.41379 0
M  V30 35 H 5.4631 0.0640874 2.5572 0
M  V30 36 H 5.1071 -0.146984 5.07687 0
M  V30 37 H 5.0371 -1.91871 4.90401 0
M  V30 38 H 7.5281 -0.993196 3.64615 0
M  V30 39 H 7.8411 -1.42111 7.59621 0
M  V30 40 H 6.1861 -1.28487 6.8302 0
M  V30 41 H 9.3771 -1.14877 4.53785 0
M  V30 42 H 9.5501 -1.34412 6.33906 0
M  V30 43 N 2.9562 -1.48159 -0.537278 0
M  V30 44 C 4.2022 -1.56035 -1.29541 0
M  V30 45 C 4.5352 -0.230377 -1.92829 0
M  V30 46 O 3.8102 0.762952 -1.78911 0
M  V30 47 C 4.0932 -2.69323 -2.39034 0
M  V30 48 C 3.9462 -4.12002 -1.80485 0
M  V30 49 C 5.2652 -2.78408 -3.40847 0
M  V30 50 H 2.3842 -0.567992 -0.469632 0
M  V30 51 H 5.0262 -1.80302 -0.599277 0
M  V30 52 H 3.1762 -2.48763 -2.98412 0
M  V30 53 H 4.8482 -4.43981 -1.25215 0
M  V30 54 H 3.0912 -4.19344 -1.11055 0
M  V30 55 H 3.7622 -4.87077 -2.59731 0
M  V30 56 H 6.2382 -2.97012 -2.91416 0
M  V30 57 H 5.1142 -3.59416 -4.14863 0
M  V30 58 H 5.3752 -1.86269 -4.00944 0
M  V30 59 N 4.4343 0.785586 -1.36625 0
M  V30 60 C 5.3643 1.91259 -1.33949 0
M  V30 61 C 6.3453 1.68795 -0.210325 0
M  V30 62 O 7.5303 1.89854 -0.408561 0
M  V30 63 C 4.6603 3.28339 -1.13186 0
M  V30 64 C 3.6143 3.65335 -2.22967 0
M  V30 65 C 2.9403 5.00806 -1.87342 0
M  V30 66 C 4.2403 3.7352 -3.65075 0
M  V30 67 H 5.9343 1.93755 -2.28253 0
M  V30 68 H 3.4803 0.930788 -1.09874 0
M  V30 69 H 5.4333 4.06804 -1.09948 0
M  V30 70 H 4.1573 3.2624 -0.153332 0
M  V30 71 H 2.8163 2.89169 -2.25337 0
M  V30 72 H 2.4643 4.95233 -0.880545 0
M  V30 73 H 2.1643 5.26529 -2.60846 0
M  V30 74 H 3.6883 5.81687 -1.85667 0
M  V30 75 H 5.1023 4.42168 -3.64911 0
M  V30 76 H 3.4993 4.10731 -4.37516 0
M  V30 77 H 4.5693 2.74527 -3.99703 0
M  V30 78 N 5.9124 1.20967 1.01018 0
M  V30 79 C 7.1584 1.02526 1.74975 0
M  V30 80 C 7.4914 -0.4408 1.89131 0
M  V30 81 O 6.7664 -1.32718 1.42184 0
M  V30 82 C 7.0494 1.71699 3.1653 0
M  V30 83 C 6.9024 3.25791 3.10129 0
M  V30 84 C 8.2214 1.45531 4.15342 0
M  V30 85 H 5.3404 0.373863 0.635134 0
M  V30 86 H 7.9824 1.49071 1.17805 0
M  V30 87 H 6.1324 1.32128 3.65341 0
M  V30 88 H 7.8044 3.74697 2.69072 0
M  V30 89 H 6.0474 3.56363 2.47362 0
M  V30 90 H 6.7184 3.69353 4.10222 0
M  V30 91 H 9.1944 1.79872 3.75213 0
M  V30 92 H 8.0704 1.96453 5.1254 0
M  V30 93 H 8.3314 0.384237 4.40427 0
M  V30 94 N 7.3905 -1.2043 1.01659 0
M  V30 95 C 8.6185 -1.93777 0.725132 0
M  V30 96 C 9.0335 -1.74772 -0.714166 0
M  V30 97 O 8.3905 -1.06169 -1.4844 0
M  V30 98 C 8.4415 -3.45876 1.05129 0
M  V30 99 O 8.1625 -3.6426 2.43406 0
M  V30 100 C 9.6635 -4.36368 0.780891 0
M  V30 101 H 6.8835 -0.615901 0.266284 0
M  V30 102 H 9.4275 -1.52922 1.35776 0
M  V30 103 H 7.5825 -3.8461 0.464065 0
M  V30 104 H 7.9965 -4.58246 2.55169 0
M  V30 105 H 9.4705 -5.41743 1.05918 0
M  V30 106 H 9.9475 -4.38275 -0.284937 0
M  V30 107 H 10.5535 -4.03296 1.35027 0
M  V30 108 N 8.8686 -0.792821 -1.36206 0
M  V30 109 C 10.1166 -0.366062 -1.98757 0
M  V30 110 C 10.4376 1.0668 -1.63231 0
M  V30 111 O 9.7076 1.73587 -0.907978 0
M  V30 112 H 8.2876 -0.132364 -0.735179 0
M  V30 113 H 10.9496 -1.01562 -1.66347 0
M  V30 114 H 10.0456 -0.460638 -3.08682 0
M  V30 115 N 10.3467 1.47872 -0.545128 0
M  V30 116 C 11.5947 2.02093 -0.016553 0
M  V30 117 C 11.9157 1.42305 1.3332 0
M  V30 118 O 11.1857 0.593853 1.86682 0
M  V30 119 H 9.7657 0.746993 -0.00313038 0
M  V30 120 H 12.4277 1.81414 -0.712397 0
M  V30 121 H 11.5237 3.11996 0.0805422 0
M  V30 122 N 11.8248 0.280983 1.55075 0
M  V30 123 C 13.0498 -0.340154 2.04592 0
M  V30 124 C 13.4748 -1.48246 1.15779 0
M  V30 125 O 12.8328 -1.80614 0.15761 0
M  V30 126 C 12.8808 -0.793104 3.5177 0
M  V30 127 O 11.9848 -1.89981 3.66034 0
M  V30 128 H 11.3258 -0.0694289 0.66036 0
M  V30 129 H 13.8558 0.416993 2.00306 0
M  V30 130 H 13.8658 -1.08729 3.93245 0
M  V30 131 H 12.5408 0.0426163 4.15878 0
M  V30 132 H 11.1178 -1.60771 3.36463 0
M  V30 133 N 13.3029 -1.57598 0.00835791 0
M  V30 134 C 14.5509 -1.90551 -0.6734 0
M  V30 135 C 14.8719 -0.883301 -1.73847 0
M  V30 136 O 14.1419 0.0781442 -1.95744 0
M  V30 137 H 12.7219 -0.703312 -0.251717 0
M  V30 138 H 15.3839 -1.94833 0.0512592 0
M  V30 139 H 14.4799 -2.9056 -1.13935 0
M  V30 140 N 14.781 0.264519 -1.55364 0
M  V30 141 C 16.011 1.01153 -1.80143 0
M  V30 142 C 16.419 1.80115 -0.579253 0
M  V30 143 O 15.762 1.77813 0.46132 0
M  V30 144 C 15.824 2.01098 -2.97993 0
M  V30 145 C 15.488 1.40995 -4.34706 0
M  V30 146 C 16.485 0.821316 -5.13372 0
M  V30 147 C 14.17 1.43461 -4.81378 0
M  V30 148 C 16.164 0.265339 -6.36847 0
M  V30 149 C 13.851 0.874771 -6.04807 0
M  V30 150 C 14.849 0.291146 -6.82379 0
M  V30 151 O 14.537 -0.260093 -8.03479 0
M  V30 152 H 14.269 0.304125 -0.603725 0
M  V30 153 H 16.823 0.298089 -2.03225 0
M  V30 154 H 15.053 2.76224 -2.70623 0
M  V30 155 H 16.742 2.61997 -3.1002 0
M  V30 156 H 17.508 0.794903 -4.78442 0
M  V30 157 H 13.387 1.87826 -4.21002 0
M  V30 158 H 16.931 -0.190837 -6.97339 0
M  V30 159 H 12.828 0.898452 -6.39217 0
M  V30 160 H 13.596 -0.150265 -8.18362 0
M  V30 161 N 16.2591 1.48442 0.529413 0
M  V30 162 C 17.5081 1.55742 1.28169 0
M  V30 163 C 17.8211 0.236511 1.94165 0
M  V30 164 O 19.0271 0.187761 2.7085 0
M  V30 165 C 17.4831 2.74667 2.32564 0
M  V30 166 C 17.0911 4.13402 1.72636 0
M  V30 167 C 18.8351 2.9128 3.08798 0
M  V30 168 C 16.7421 5.23587 2.74975 0
M  V30 169 H 15.6721 0.579796 0.48203 0
M  V30 170 H 18.3231 1.74776 0.559056 0
M  V30 171 H 16.7051 2.49067 3.07866 0
M  V30 172 H 17.8791 4.49022 1.03519 0
M  V30 173 H 16.1941 4.0191 1.08892 0
M  V30 174 H 18.7911 3.70767 3.85274 0
M  V30 175 H 19.1341 2.00757 3.64695 0
M  V30 176 H 19.6671 3.16782 2.40611 0
M  V30 177 H 16.4061 6.16076 2.23897 0
M  V30 178 H 15.9261 4.92454 3.42417 0
M  V30 179 H 17.6051 5.51724 3.37949 0
M  V30 180 N 17.7372 -0.778329 1.37039 0
M  V30 181 C 18.9852 -1.53361 1.31623 0
M  V30 182 C 19.3062 -1.94739 -0.100831 0
M  V30 183 O 18.5762 -1.65797 -1.04347 0
M  V30 184 H 17.1562 -0.568794 0.484234 0
M  V30 185 H 19.8182 -0.926742 1.71457 0
M  V30 186 H 18.9142 -2.43606 1.95096 0
M  V30 187 N 19.2153 -1.21501 -1.00376 0
M  V30 188 C 20.4403 -1.05977 -1.78279 0
M  V30 189 C 20.8653 0.385994 -1.84097 0
M  V30 190 O 20.2233 1.27849 -1.28547 0
M  V30 191 C 20.2713 -1.66302 -3.19963 0
M  V30 192 O 19.3753 -0.909333 -4.0225 0
M  V30 193 H 18.7163 -0.372906 -0.549397 0
M  V30 194 H 21.2463 -1.6107 -1.26165 0
M  V30 195 H 21.2563 -1.70574 -3.70632 0
M  V30 196 H 19.9313 -2.71515 -3.15043 0
M  V30 197 H 18.5083 -0.941795 -3.60811 0
M  V30 198 N 20.6934 1.19889 -1.02296 0
M  V30 199 C 21.6434 2.20777 -0.56934 0
M  V30 200 C 22.6274 1.56379 0.378741 0
M  V30 201 O 23.8194 1.75859 0.200673 0
M  V30 202 C 20.9484 3.43196 0.0845077 0
M  V30 203 C 20.0344 4.14749 -0.88566 0
M  V30 204 N 20.4254 4.62584 -2.04573 0
M  V30 205 C 18.7234 4.40347 -0.707835 0
M  V30 206 C 19.4244 5.17466 -2.65714 0
M  V30 207 N 18.4004 5.0791 -1.93723 0
M  V30 208 H 22.2024 2.55434 -1.45365 0
M  V30 209 H 19.7164 1.35897 -0.88915 0
M  V30 210 H 21.7134 4.14707 0.427067 0
M  V30 211 H 20.3734 3.10042 0.964574 0
M  V30 212 H 21.3844 4.57597 -2.4254 0
M  V30 213 H 18.0614 4.17317 0.12364 0
M  V30 214 H 19.4514 5.64808 -3.63925 0
M  V30 215 N 22.1715 0.800033 1.35784 0
M  V30 216 C 23.3995 0.389606 2.03199 0
M  V30 217 C 23.8145 -0.997375 1.60306 0
M  V30 218 O 23.1715 -1.64154 0.797481 0
M  V30 219 C 23.2225 0.455855 3.58614 0
M  V30 220 O 22.9435 1.78815 3.99946 0
M  V30 221 C 24.4445 0.0374032 4.43284 0
M  V30 222 H 21.6645 0.159132 0.651857 0
M  V30 223 H 24.2085 1.08183 1.73541 0
M  V30 224 H 22.3635 -0.188057 3.86943 0
M  V30 225 H 22.7775 1.74636 4.94573 0
M  V30 226 H 24.2515 0.134882 5.51835 0
M  V30 227 H 24.7285 -1.01651 4.27275 0
M  V30 228 H 25.3345 0.654215 4.20238 0
M  V30 229 N 23.6496 -1.47581 0.552962 0
M  V30 230 C 24.8896 -2.04379 0.0296245 0
M  V30 231 C 25.2536 -1.4185 -1.29393 0
M  V30 232 O 26.4546 -1.89669 -1.90471 0
M  V30 233 C 24.7256 -3.57339 -0.0661371 0
M  V30 234 S 26.2846 -4.35511 -0.536213 0
M  V30 235 H 23.1026 -0.710625 0.0230991 0
M  V30 236 H 25.7046 -1.81005 0.738734 0
M  V30 237 H 24.4086 -4.00374 0.901596 0
M  V30 238 H 23.9396 -3.85202 -0.798931 0
M  V30 239 H 25.9546 -4.6253 -1.79668 0
M  V30 240 N 25.1277 -0.289203 -1.54924 0
M  V30 241 C 26.3737 0.323998 -2.00195 0
M  V30 242 C 26.7067 1.54441 -1.17735 0
M  V30 243 O 25.9817 1.92875 -0.250878 0
M  V30 244 C 26.2647 0.692276 -3.53383 0
M  V30 245 C 26.1177 -0.536457 -4.46589 0
M  V30 246 C 27.4367 1.52335 -4.12895 0
M  V30 247 H 24.5557 0.116289 -0.727768 0
M  V30 248 H 27.1977 -0.398954 -1.85764 0
M  V30 249 H 25.3477 1.30822 -3.65811 0
M  V30 250 H 27.0197 -1.17499 -4.46085 0
M  V30 251 H 25.2627 -1.17192 -4.1767 0
M  V30 252 H 25.9337 -0.234806 -5.515 0
M  V30 253 H 28.4097 1.00302 -4.0383 0
M  V30 254 H 27.2857 1.74982 -5.20262 0
M  V30 255 H 27.5467 2.50886 -3.64018 0
M  V30 256 N 26.6058 1.57591 -0.0167156 0
M  V30 257 C 27.5378 2.06343 0.997753 0
M  V30 258 C 28.5508 0.984469 1.29661 0
M  V30 259 O 29.7398 1.26093 1.26344 0
M  V30 260 C 26.8398 2.46255 2.32834 0
M  V30 261 C 26.0128 3.77083 2.21646 0
M  V30 262 C 25.0718 4.0368 3.37534 0
M  V30 263 O 24.0978 4.7411 3.14973 0
M  V30 264 N 25.2998 3.52881 4.60929 0
M  V30 265 H 28.0648 2.93997 0.581875 0
M  V30 266 H 25.6258 1.61002 0.170316 0
M  V30 267 H 27.6178 2.61149 3.09166 0
M  V30 268 H 26.1878 1.64032 2.66106 0
M  V30 269 H 25.4078 3.72106 1.30119 0
M  V30 270 H 26.6958 4.62822 2.11361 0
M  V30 271 H 26.0938 2.95878 4.82154 0
M  V30 272 H 24.6508 3.73076 5.34469 0
M  V30 273 N 28.0839 -0.256276 1.55502 0
M  V30 274 C 29.0139 -1.32102 1.92539 0
M  V30 275 C 29.9949 -1.50684 0.789194 0
M  V30 276 O 31.1799 -1.63449 1.04872 0
M  V30 277 C 28.3099 -2.67752 2.21192 0
M  V30 278 C 27.2639 -2.63878 3.36975 0
M  V30 279 C 26.5899 -4.03236 3.51147 0
M  V30 280 C 27.8899 -2.21682 4.72921 0
M  V30 281 H 29.5839 -1.01351 2.81724 0
M  V30 282 H 27.1299 -0.486105 1.35547 0
M  V30 283 H 29.0829 -3.42365 2.45691 0
M  V30 284 H 27.8069 -3.0012 1.28824 0
M  V30 285 H 26.4659 -1.91722 3.12471 0
M  V30 286 H 26.1139 -4.32854 2.56216 0
M  V30 287 H 25.8139 -4.01535 4.29003 0
M  V30 288 H 27.3379 -4.79563 3.77957 0
M  V30 289 H 28.7519 -2.86023 4.96854 0
M  V30 290 H 27.1489 -2.3111 5.53812 0
M  V30 291 H 28.2189 -1.16833 4.70615 0
M  V30 292 N 29.562 -1.4872 -0.521534 0
M  V30 293 C 30.492 -1.66771 -1.63431 0
M  V30 294 C 31.473 -0.516499 -1.62069 0
M  V30 295 O 32.658 -0.750013 -1.79132 0
M  V30 296 C 29.788 -1.71515 -3.01993 0
M  V30 297 C 28.742 -2.86222 -3.18216 0
M  V30 298 C 28.068 -2.76061 -4.57924 0
M  V30 299 C 29.368 -4.27419 -3.00184 0
M  V30 300 H 31.062 -2.59932 -1.48579 0
M  V30 301 H 28.608 -1.25089 -0.713358 0
M  V30 302 H 30.561 -1.82731 -3.7972 0
M  V30 303 H 29.285 -0.749393 -3.17886 0
M  V30 304 H 27.944 -2.74575 -2.42908 0
M  V30 305 H 27.592 -1.77437 -4.70665 0
M  V30 306 H 27.292 -3.53037 -4.69722 0
M  V30 307 H 28.816 -2.89256 -5.37739 0
M  V30 308 H 30.23 -4.39855 -3.67697 0
M  V30 309 H 28.627 -5.05458 -3.2347 0
M  V30 310 H 29.697 -4.43293 -1.96518 0
M  V30 311 N 31.0401 0.771051 -1.3745 0
M  V30 312 C 31.9721 1.89352 -1.29146 0
M  V30 313 C 32.9851 1.61477 -0.207124 0
M  V30 314 O 34.1741 1.72382 -0.463324 0
M  V30 315 C 31.2741 3.24596 -0.974195 0
M  V30 316 C 30.4471 3.80111 -2.16413 0
M  V30 317 C 29.5061 4.93832 -1.81703 0
M  V30 318 O 28.5321 5.09382 -2.54006 0
M  V30 319 N 29.7341 5.75483 -0.761573 0
M  V30 320 H 32.4991 1.96991 -2.25864 0
M  V30 321 H 30.0601 0.950191 -1.31084 0
M  V30 322 H 32.0521 3.98193 -0.722828 0
M  V30 323 H 30.6221 3.12454 -0.0955527 0
M  V30 324 H 29.8421 2.98284 -2.57721 0
M  V30 325 H 31.1301 4.13932 -2.95867 0
M  V30 326 H 30.5281 5.65469 -0.161609 0
M  V30 327 H 29.0851 6.49302 -0.570064 0
M  V30 328 N 32.5182 1.22032 0.997298 0
M  V30 329 C 33.4662 0.983634 2.10778 0
M  V30 330 C 34.4602 -0.0717564 1.69248 0
M  V30 331 O 35.6662 0.080304 1.79821 0
M  V30 332 H 32.0412 0.300877 0.689186 0
M  V30 333 H 34.0122 1.92606 2.27916 0
M  V30 334 C 32.7612 0.57326 3.42942 0
M  V30 335 H 32.0842 1.37702 3.75338 0
M  V30 336 H 33.5242 0.447031 4.21637 0
M  V30 337 C 31.9832 -0.7167 3.29188 0
M  V30 338 O 32.5132 -1.77027 3.60589 0
M  V30 339 N 30.7192 -0.686167 2.82383 0
M  V30 340 H 30.2662 0.171507 2.57028 0
M  V30 341 H 30.2242 -1.54955 2.73562 0
M  V30 342 N 33.9963 -1.19345 1.0293 0
M  V30 343 C 35.2443 -1.88665 0.724574 0
M  V30 344 C 35.5653 -1.80036 -0.749144 0
M  V30 345 O 34.8353 -1.2111 -1.53978 0
M  V30 346 H 33.4153 -0.698406 0.265025 0
M  V30 347 H 36.0773 -1.44885 1.30362 0
M  V30 348 H 35.1733 -2.94987 1.01926 0
M  V30 349 N 35.4744 -0.807222 -1.35358 0
M  V30 350 C 36.4244 -0.190706 -2.27201 0
M  V30 351 C 37.4084 0.635838 -1.47804 0
M  V30 352 O 38.6004 0.492991 -1.69996 0
M  V30 353 C 35.7294 0.659337 -3.36909 0
M  V30 354 C 34.8154 -0.176971 -4.23731 0
M  V30 355 N 35.2064 -1.24029 -4.90357 0
M  V30 356 C 33.5044 0.0412953 -4.45981 0
M  V30 357 C 34.2054 -1.75092 -5.54723 0
M  V30 358 N 33.1814 -1.05727 -5.33219 0
M  V30 359 H 36.9834 -1.0043 -2.76208 0
M  V30 360 H 34.4974 -0.648445 -1.48892 0
M  V30 361 H 36.4944 1.11706 -4.01656 0
M  V30 362 H 35.1544 1.47127 -2.89454 0
M  V30 363 H 36.1654 -1.62295 -4.91814 0
M  V30 364 H 32.8424 0.82232 -4.09322 0
M  V30 365 H 34.2324 -2.63963 -6.17878 0
M  V30 366 N 36.9525 1.47285 -0.560781 0
M  V30 367 C 38.2295 1.9558 0.0277798 0
M  V30 368 C 38.6095 1.5034 1.48192 0
M  V30 369 O 37.9575 0.743882 2.16052 0
M  V30 370 C 38.1675 3.48789 -0.121418 0
M  V30 371 C 39.5155 4.24594 0.0220912 0
M  V30 372 O 40.5395 3.56166 -0.0491439 0
M  V30 373 O 39.3985 5.46217 0.175958 0
M  V30 374 H 36.4925 0.824663 0.0621342 0
M  V30 375 H 39.0385 1.5767 -0.627556 0
M  V30 376 H 37.8105 3.74533 -1.13316 0
M  V30 377 H 37.4335 3.93473 0.571366 0
M  V30 378 N 38.4306 0.297415 1.54768 0
M  V30 379 C 39.6766 -0.313376 2.00364 0
M  V30 380 C 40.0096 -1.53815 1.18553 0
M  V30 381 O 39.2846 -1.92739 0.261103 0
M  V30 382 C 39.5676 -0.673525 3.53745 0
M  V30 383 C 39.4206 0.560133 4.46299 0
M  V30 384 C 40.7396 -1.50143 4.13697 0
M  V30 385 H 37.8586 -0.112428 0.728374 0
M  V30 386 H 40.5006 0.4088 1.8555 0
M  V30 387 H 38.6506 -1.28881 3.665 0
M  V30 388 H 40.3226 1.19863 4.45455 0
M  V30 389 H 38.5656 1.19405 4.17043 0
M  V30 390 H 39.2366 0.26405 5.51368 0
M  V30 391 H 41.7126 -0.981588 4.04356 0
M  V30 392 H 40.5886 -1.72221 5.21182 0
M  V30 393 H 40.8496 -2.48952 3.65343 0
M  V30 394 N 39.9087 -1.5758 0.0250728 0
M  V30 395 C 41.1577 -1.90811 -0.653767 0
M  V30 396 C 41.4707 -0.90273 -1.73523 0
M  V30 397 O 42.6767 -1.12614 -2.47043 0
M  V30 398 C 41.1327 -3.38804 -1.21409 0
M  V30 399 C 40.7407 -4.47692 -0.166126 0
M  V30 400 C 42.4847 -3.81108 -1.86967 0
M  V30 401 C 40.3917 -5.86779 -0.737856 0
M  V30 402 H 39.3217 -0.712063 -0.247956 0
M  V30 403 H 41.9727 -1.83281 0.0897137 0
M  V30 404 H 40.3547 -3.41252 -2.00905 0
M  V30 405 H 41.5287 -4.56797 0.606079 0
M  V30 406 H 39.8437 -4.14565 0.390466 0
M  V30 407 H 42.4407 -4.82375 -2.30692 0
M  V30 408 H 42.7837 -3.15953 -2.71071 0
M  V30 409 H 43.3167 -3.81065 -1.14167 0
M  V30 410 H 40.0557 -6.55468 0.0649577 0
M  V30 411 H 39.5757 -5.81288 -1.47864 0
M  V30 412 H 41.2547 -6.35223 -1.22884 0
M  V30 413 N 41.3868 0.248026 -1.55636 0
M  V30 414 C 42.6358 0.974134 -1.76617 0
M  V30 415 C 42.9488 1.86528 -0.588796 0
M  V30 416 O 44.1548 2.62805 -0.681594 0
M  V30 417 C 42.6108 1.78213 -3.12679 0
M  V30 418 C 42.2188 0.93843 -4.38061 0
M  V30 419 C 43.9628 2.50104 -3.42999 0
M  V30 420 C 41.8698 1.74225 -5.65155 0
M  V30 421 H 40.7998 0.36745 -0.658405 0
M  V30 422 H 43.4508 0.22884 -1.82067 0
M  V30 423 H 41.8328 2.56933 -3.01333 0
M  V30 424 H 43.0068 0.193635 -4.60393 0
M  V30 425 H 41.3218 0.332905 -4.15067 0
M  V30 426 H 43.9188 3.10694 -4.3517 0
M  V30 427 H 44.2618 3.21662 -2.64271 0
M  V30 428 H 44.7948 1.78395 -3.55556 0
M  V30 429 H 41.5338 1.07043 -6.46701 0
M  V30 430 H 41.0538 2.46235 -5.46926 0
M  V30 431 H 42.7328 2.30967 -6.0437 0
M  V30 432 N 42.8649 1.48995 0.513639 0
M  V30 433 C 43.7949 1.67636 1.62544 0
M  V30 434 C 44.7759 0.525087 1.61793 0
M  V30 435 O 45.9609 0.759502 1.78732 0
M  V30 436 C 43.0909 1.73114 3.01079 0
M  V30 437 C 42.0449 2.87905 3.16693 0
M  V30 438 C 41.3709 2.78486 4.56453 0
M  V30 439 C 42.6709 4.29005 2.97913 0
M  V30 440 H 44.3649 2.60716 1.47198 0
M  V30 441 H 41.9109 1.25465 0.706714 0
M  V30 442 H 43.8639 1.84742 3.78746 0
M  V30 443 H 42.5879 0.766241 3.17484 0
M  V30 444 H 41.2469 2.75859 2.41448 0
M  V30 445 H 40.8949 1.7993 4.69717 0
M  V30 446 H 40.5949 3.55523 4.67843 0
M  V30 447 H 42.1189 2.92104 5.36197 0
M  V30 448 H 43.5329 4.41798 3.65359 0
M  V30 449 H 41.9299 5.07166 3.20785 0
M  V30 450 H 42.9999 4.44329 1.94165 0
M  V30 451 N 44.343 -0.763751 1.37857 0
M  V30 452 C 45.62 -1.51244 1.24035 0
M  V30 453 C 46 -2.10472 -0.162649 0
M  V30 454 O 45.348 -1.96206 -1.17112 0
M  V30 455 C 45.558 -2.58694 2.34261 0
M  V30 456 C 46.906 -3.25878 2.72193 0
M  V30 457 O 47.93 -2.68993 2.33497 0
M  V30 458 O 46.789 -4.2874 3.38887 0
M  V30 459 H 43.883 -0.670243 0.484462 0
M  V30 460 H 46.429 -0.800031 1.49658 0
M  V30 461 H 45.201 -2.13105 3.2818 0
M  V30 462 H 44.824 -3.37527 2.10146 0
M  V30 463 N 45.8211 -1.22559 -0.990812 0
M  V30 464 C 46.7691 -0.994798 -2.10253 0
M  V30 465 C 47.7631 0.0627798 -1.69284 0
M  V30 466 O 48.9691 -0.0898392 -1.79776 0
M  V30 467 H 45.3441 -0.304527 -0.687581 0
M  V30 468 H 47.3151 -1.93812 -2.26891 0
M  V30 469 C 46.0641 -0.591439 -3.42633 0
M  V30 470 H 45.3871 -1.3969 -3.74602 0
M  V30 471 H 46.8271 -0.469385 -4.21394 0
M  V30 472 C 45.2861 0.699232 -3.29564 0
M  V30 473 O 45.8161 1.75112 -3.61523 0
M  V30 474 N 44.0221 0.671182 -2.82743 0
M  V30 475 H 43.5691 -0.185136 -2.56934 0
M  V30 476 H 43.5271 1.53502 -2.7438 0
M  V30 477 N 47.2992 1.18797 -1.03562 0
M  V30 478 C 48.2292 2.24472 -0.643019 0
M  V30 479 C 49.2102 1.66433 0.351283 0
M  V30 480 O 50.3952 1.92803 0.232505 0
M  V30 481 C 47.5252 3.473 4.24935e-05 0
M  V30 482 C 46.4792 4.18055 -0.917257 0
M  V30 483 C 45.8052 5.34519 -0.138941 0
M  V30 484 C 47.1052 4.72109 -2.23407 0
M  V30 485 H 48.7992 2.57566 -1.52643 0
M  V30 486 H 46.3452 1.23806 -0.735394 0
M  V30 487 H 48.2982 4.20426 0.286383 0
M  V30 488 H 47.0222 3.13424 0.918299 0
M  V30 489 H 45.6812 3.46821 -1.1879 0
M  V30 490 H 45.3292 4.96891 0.781562 0
M  V30 491 H 45.0292 5.82794 -0.750005 0
M  V30 492 H 46.5532 6.10438 0.1405 0
M  V30 493 H 47.9672 5.36955 -2.00879 0
M  V30 494 H 46.3642 5.30897 -2.79765 0
M  V30 495 H 47.4342 3.89807 -2.88407 0
M  V30 496 N 48.7773 0.814389 1.34928 0
M  V30 497 C 50.0173 0.404165 2.00364 0
M  V30 498 C 50.3813 -1.01166 1.63185 0
M  V30 499 O 51.5823 -1.52431 2.21401 0
M  V30 500 C 49.8533 0.590718 3.52484 0
M  V30 501 S 51.4123 0.272075 4.37956 0
M  V30 502 H 48.2303 0.15311 0.694319 0
M  V30 503 H 50.8323 1.05834 1.64376 0
M  V30 504 H 49.5363 1.62099 3.77031 0
M  V30 505 H 49.0673 -0.0785013 3.93322 0
M  V30 506 H 51.0823 -0.917405 4.87645 0
M  V30 507 N 50.2554 -1.46986 0.568584 0
M  V30 508 C 51.2034 -2.31858 -0.185649 0
M  V30 509 C 52.1974 -1.43624 -0.898249 0
M  V30 510 O 53.4034 -1.60327 -0.818242 0
M  V30 511 H 49.7784 -0.747866 -0.0787399 0
M  V30 512 H 51.7494 -2.93303 0.549191 0
M  V30 513 C 50.4984 -3.26513 -1.19519 0
M  V30 514 H 49.8214 -3.94377 -0.656285 0
M  V30 515 H 51.2614 -3.88707 -1.6936 0
M  V30 516 C 49.7204 -2.50847 -2.24894 0
M  V30 517 O 50.2504 -2.26119 -3.32014 0
M  V30 518 N 48.4564 -2.11656 -1.99124 0
M  V30 519 H 48.0034 -2.31966 -1.12024 0
M  V30 520 H 47.9614 -1.61347 -2.69842 0
M  V30 521 N 51.7335 -0.305618 -1.54608 0
M  V30 522 C 52.9585 0.307562 -2.05107 0
M  V30 523 C 53.3835 1.46385 -1.18123 0
M  V30 524 O 52.7415 1.8034 -0.186324 0
M  V30 525 C 52.7895 0.73704 -3.52987 0
M  V30 526 O 51.8935 1.84134 -3.6901 0
M  V30 527 H 51.2345 0.0589143 -0.661381 0
M  V30 528 H 53.7645 -0.448807 -1.99617 0
M  V30 529 H 53.7745 1.02459 -3.94925 0
M  V30 530 H 52.4495 -0.108773 -4.15758 0
M  V30 531 H 51.0265 1.55398 -3.38978 0
M  V30 532 N 53.2116 1.57565 -0.0334293 0
M  V30 533 C 54.1586 2.10478 0.946981 0
M  V30 534 C 55.1286 1.00787 1.32027 0
M  V30 535 O 56.3136 1.28232 1.41284 0
M  V30 536 C 53.4536 2.63994 2.22263 0
M  V30 537 C 52.5666 3.87709 1.90541 0
M  V30 538 C 51.7016 4.29604 3.12433 0
M  V30 539 C 50.7406 5.46065 2.76549 0
M  V30 540 N 49.8776 5.83096 3.9108 0
M  V30 541 H 54.7176 2.93963 0.488846 0
M  V30 542 H 52.2546 1.45296 0.22969 0
M  V30 543 H 54.2126 2.93114 2.96884 0
M  V30 544 H 52.8426 1.83333 2.65685 0
M  V30 545 H 51.8946 3.65291 1.06144 0
M  V30 546 H 53.2066 4.72403 1.60116 0
M  V30 547 H 52.3606 4.60182 3.9537 0
M  V30 548 H 51.0996 3.43685 3.46023 0
M  V30 549 H 50.1046 5.15176 1.92026 0
M  V30 550 H 51.3296 6.33685 2.44171 0
M  V30 551 H 49.2756 5.00132 4.24504 0
M  V30 552 H 49.1926 6.6244 3.64293 0
M  V30 553 H 50.4606 6.18282 4.74708 0
M  V30 554 N 54.6897 -0.239769 1.55765 0
M  V30 555 C 56.1057 -0.588624 1.48349 0
M  V30 556 C 56.3057 -1.88005 0.72502 0
M  V30 557 O 55.3617 -2.51186 0.257269 0
M  V30 558 C 56.6747 -0.68474 2.928 0
M  V30 559 C 58.2227 -0.77659 3.03213 0
M  V30 560 C 58.6977 -0.904207 4.48986 0
M  V30 561 N 60.1887 -0.968896 4.52953 0
M  V30 562 C 60.9237 -1.08703 5.63002 0
M  V30 563 N 60.4197 -1.17026 6.82845 0
M  V30 564 N 62.2127 -1.12074 5.50814 0
M  V30 565 H 54.3637 0.607911 2.03515 0
M  V30 566 H 56.6267 0.21083 0.924259 0
M  V30 567 H 56.3327 0.194284 3.51163 0
M  V30 568 H 56.2067 -1.55435 3.43686 0
M  V30 569 H 58.5937 -1.64606 2.44926 0
M  V30 570 H 58.6747 0.118315 2.55526 0
M  V30 571 H 58.3187 -0.0392633 5.07885 0
M  V30 572 H 58.2487 -1.81426 4.9436 0
M  V30 573 H 60.7397 -0.915633 3.6664 0
M  V30 574 H 61.0527 -1.25966 7.62465 0
M  V30 575 H 59.3977 -1.13971 6.85591 0
M  V30 576 H 62.5887 -1.05226 4.5612 0
M  V30 577 H 62.7617 -1.20936 6.36615 0
M  V30 578 N 56.1678 -1.49265 -0.50573 0
M  V30 579 C 57.3928 -1.62478 -1.28902 0
M  V30 580 C 57.8178 -0.294332 -1.85783 0
M  V30 581 O 57.1758 0.737412 -1.65626 0
M  V30 582 C 57.2238 -2.69268 -2.39848 0
M  V30 583 O 56.3278 -2.28113 -3.43567 0
M  V30 584 H 55.6688 -0.54399 -0.380751 0
M  V30 585 H 58.1988 -1.95421 -0.605952 0
M  V30 586 H 58.2088 -2.91291 -2.85681 0
M  V30 587 H 56.8838 -3.65846 -1.97812 0
M  V30 588 H 55.4608 -2.16401 -3.03685 0
M  V30 589 N 57.6459 0.756429 -1.3826 0
M  V30 590 C 58.8919 1.51772 -1.34511 0
M  V30 591 C 59.2249 1.94089 0.0656691 0
M  V30 592 O 58.4999 1.65221 1.02626 0
M  V30 593 C 58.7829 2.77226 -2.29821 0
M  V30 594 C 58.6359 2.41065 -3.79747 0
M  V30 595 C 59.9549 3.79236 -2.23312 0
M  V30 596 H 57.0739 0.550578 -0.489931 0
M  V30 597 H 59.7159 0.866607 -1.69086 0
M  V30 598 H 57.8659 3.32784 -2.00467 0
M  V30 599 H 59.5379 1.91303 -4.19763 0
M  V30 600 H 57.7809 1.7356 -3.97567 0
M  V30 601 H 58.4519 3.3081 -4.41892 0
M  V30 602 H 60.9279 3.3321 -2.49219 0
M  V30 603 H 59.8039 4.64714 -2.92116 0
M  V30 604 H 60.0649 4.24615 -1.23102 0
M  V30 605 N 59.124 1.23083 0.984299 0
M  V30 606 C 60.054 1.03292 2.09411 0
M  V30 607 C 61.035 -0.048923 1.7003 0
M  V30 608 O 62.22 0.114967 1.93859 0
M  V30 609 C 59.35 0.619155 3.41736 0
M  V30 610 C 58.304 1.64791 3.95004 0
M  V30 611 C 57.63 1.0897 5.23478 0
M  V30 612 C 58.93 3.03999 4.24714 0
M  V30 613 H 60.624 1.96119 2.26225 0
M  V30 614 H 58.17 0.944344 1.08711 0
M  V30 615 H 60.123 0.467777 4.18796 0
M  V30 616 H 58.847 -0.344786 3.24775 0
M  V30 617 H 57.506 1.78721 3.20085 0
M  V30 618 H 57.154 0.11686 5.02864 0
M  V30 619 H 56.854 1.77704 5.60085 0
M  V30 620 H 58.378 0.950093 6.03163 0
M  V30 621 H 59.792 2.93393 4.92538 0
M  V30 622 H 58.189 3.69936 4.72512 0
M  V30 623 H 59.259 3.53285 3.32142 0
M  V30 624 N 60.6021 -1.18246 1.0419 0
M  V30 625 C 62.0131 -1.69914 0.773698 0
M  V30 626 C 62.3641 -1.83085 -0.705297 0
M  V30 627 O 61.4891 -1.51123 -1.5489 0
M  V30 628 C 62.0841 -3.08619 1.39784 0
M  V30 629 C 60.6431 -3.57494 1.17792 0
M  V30 630 C 59.7901 -2.34013 1.48773 0
M  V30 631 H 62.7411 -1.02904 1.20816 0
M  V30 632 H 62.7621 -3.71958 0.801714 0
M  V30 633 H 62.2741 -2.99001 2.47426 0
M  V30 634 H 60.3751 -3.72406 0.120295 0
M  V30 635 H 60.4881 -4.40852 1.87581 0
M  V30 636 H 58.8521 -2.37986 0.907463 0
M  V30 637 H 59.6351 -2.27013 2.57527 0
M  V30 638 N 62.0802 -0.821533 -1.34494 0
M  V30 639 C 63.3262 -0.409552 -1.98622 0
M  V30 640 C 63.6592 1.0244 -1.64984 0
M  V30 641 O 62.9342 1.71325 -0.920758 0
M  V30 642 C 63.2172 -0.610458 -3.54888 0
M  V30 643 C 63.0702 -2.09043 -3.98273 0
M  V30 644 C 64.3892 -0.0455379 -4.40076 0
M  V30 645 H 61.5082 -0.15028 -0.721516 0
M  V30 646 H 64.1502 -1.03384 -1.59411 0
M  V30 647 H 62.3002 -0.079044 -3.8842 0
M  V30 648 H 63.9722 -2.68537 -3.75081 0
M  V30 649 H 62.2152 -2.58139 -3.48635 0
M  V30 650 H 62.8862 -2.18182 -5.07051 0
M  V30 651 H 65.3622 -0.499557 -4.1309 0
M  V30 652 H 64.2382 -0.215922 -5.48475 0
M  V30 653 H 64.4992 1.04939 -4.29465 0
M  V30 654 N 63.5583 1.46682 -0.576371 0
M  V30 655 C 64.8073 2.01619 -0.0572825 0
M  V30 656 C 65.1203 1.45417 1.30818 0
M  V30 657 O 66.3263 1.92133 1.91825 0
M  V30 658 C 64.7823 3.59863 -0.0518371 0
M  V30 659 C 64.3903 4.25059 -1.41523 0
M  V30 660 C 66.1343 4.2248 0.413639 0
M  V30 661 C 64.0413 5.75364 -1.36785 0
M  V30 662 H 62.9713 0.753794 -0.0176448 0
M  V30 663 H 65.6223 1.68481 -0.727076 0
M  V30 664 H 64.0043 3.90048 0.683994 0
M  V30 665 H 65.1783 4.06491 -2.17029 0
M  V30 666 H 63.4933 3.7451 -1.8202 0
M  V30 667 H 66.0903 5.3265 0.467779 0
M  V30 668 H 66.4333 3.90976 1.42982 0
M  V30 669 H 66.9663 3.96897 -0.267929 0
M  V30 670 H 63.7053 6.11518 -2.36063 0
M  V30 671 H 63.2253 5.96214 -0.654895 0
M  V30 672 H 64.9043 6.37955 -1.07805 0
M  V30 673 N 65.0364 0.313813 1.54444 0
M  V30 674 C 65.9464 -0.565714 2.27677 0
M  V30 675 C 66.9624 -1.13754 1.31666 0
M  V30 676 O 68.1384 -1.15959 1.64668 0
M  V30 677 C 65.2034 -1.71528 3.01296 0
M  V30 678 C 64.2644 -1.17624 4.12872 0
M  V30 679 C 63.4974 -2.27102 4.8297 0
M  V30 680 O 63.7204 -3.47256 4.52514 0
M  V30 681 O 62.6544 -1.9307 5.70094 0
M  V30 682 H 66.4804 0.0287296 3.03686 0
M  V30 683 H 64.0654 0.0798312 1.49187 0
M  V30 684 H 65.9474 -2.38476 3.4743 0
M  V30 685 H 64.6224 -2.29608 2.2817 0
M  V30 686 H 63.5294 -0.472124 3.71109 0
M  V30 687 H 64.8624 -0.640695 4.88012 0
M  V30 688 N 66.5145 -1.57545 0.0417849 0
M  V30 689 C 67.9305 -1.56467 -0.314704 0
M  V30 690 C 68.1305 -1.04859 -1.72066 0
M  V30 691 O 67.1865 -0.700983 -2.42575 0
M  V30 692 C 68.4995 -3.00317 -0.15174 0
M  V30 693 C 70.0475 -3.12201 -0.223553 0
M  V30 694 C 70.5225 -4.57913 -0.0892295 0
M  V30 695 N 72.0135 -4.6297 -0.145808 0
M  V30 696 C 72.7485 -5.73362 -0.0658459 0
M  V30 697 N 72.2445 -6.92769 0.0659282 0
M  V30 698 N 74.0375 -5.6197 -0.12075 0
M  V30 699 H 66.1885 -1.89416 0.961014 0
M  V30 700 H 68.4515 -0.871862 0.372237 0
M  V30 701 H 68.1575 -3.42073 0.817254 0
M  V30 702 H 68.0315 -3.65892 -0.916692 0
M  V30 703 H 70.4185 -2.70349 -1.18301 0
M  V30 704 H 70.4995 -2.49323 0.571994 0
M  V30 705 H 70.1435 -5.00448 0.866867 0
M  V30 706 H 70.0735 -5.18786 -0.903802 0
M  V30 707 H 72.5645 -3.7709 -0.247286 0
M  V30 708 H 72.8775 -7.72707 0.119905 0
M  V30 709 H 71.2225 -6.94927 0.100885 0
M  V30 710 H 74.4135 -4.67572 -0.222187 0
M  V30 711 H 74.5865 -6.47977 -0.0549735 0
M  V30 712 N 67.9926 0.231505 -1.5589 0
M  V30 713 C 68.9226 1.29022 -1.94617 0
M  V30 714 C 69.9036 1.4941 -0.813067 0
M  V30 715 O 71.0886 1.6176 -1.07459 0
M  V30 716 C 68.2186 2.64199 -2.25424 0
M  V30 717 C 67.1726 2.58484 -3.41131 0
M  V30 718 C 66.4986 3.97599 -3.57518 0
M  V30 719 C 67.7986 2.1413 -4.76388 0
M  V30 720 H 69.4926 0.968563 -2.83301 0
M  V30 721 H 67.0386 0.464479 -1.36303 0
M  V30 722 H 68.9916 3.38413 -2.51107 0
M  V30 723 H 67.7156 2.98032 -1.33583 0
M  V30 724 H 66.3746 1.86727 -3.15481 0
M  V30 725 H 66.0226 4.28723 -2.6307 0
M  V30 726 H 65.7226 3.94659 -4.35337 0
M  V30 727 H 67.2466 4.7349 -3.85538 0
M  V30 728 H 68.6606 2.78083 -5.01341 0
M  V30 729 H 67.0576 2.2227 -5.57419 0
M  V30 730 H 68.1276 1.09331 -4.72414 0
M  V30 731 N 69.4707 1.49531 0.497807 0
M  V30 732 C 70.7187 1.58865 1.24926 0
M  V30 733 C 71.0397 0.278721 1.92998 0
M  V30 734 O 70.3097 -0.702144 1.82885 0
M  V30 735 H 68.8897 0.585343 0.464094 0
M  V30 736 H 71.5517 1.86174 0.57666 0
M  V30 737 H 70.6477 2.38633 2.01149 0
M  V30 738 N 70.9488 -0.749086 1.3866 0
M  V30 739 C 72.1968 -1.50535 1.34847 0
M  V30 740 C 72.5178 -1.94909 -0.0595016 0
M  V30 741 O 71.7878 -1.67973 -1.00806 0
M  V30 742 H 70.3678 -0.558395 0.49619 0
M  V30 743 H 73.0298 -0.890165 1.73384 0
M  V30 744 H 72.1258 -2.39413 2.00219 0
M  V30 745 N 72.4269 -1.23603 -0.977757 0
M  V30 746 C 73.3739 -1.01954 -2.07061 0
M  V30 747 C 74.3439 0.0638697 -1.65977 0
M  V30 748 O 75.5289 -0.0887624 -1.90593 0
M  V30 749 C 72.6689 -0.619658 -3.39491 0
M  V30 750 C 71.7819 -1.77547 -3.93829 0
M  V30 751 C 70.9169 -1.32212 -5.14484 0
M  V30 752 C 69.9559 -2.44852 -5.60994 0
M  V30 753 N 69.0929 -2.00456 -6.72876 0
M  V30 754 H 73.9329 -1.95495 -2.24913 0
M  V30 755 H 71.4699 -0.973861 -1.10247 0
M  V30 756 H 73.4279 -0.368898 -4.15566 0
M  V30 757 H 72.0579 0.278752 -3.21594 0
M  V30 758 H 71.1099 -2.14016 -3.14486 0
M  V30 759 H 72.4219 -2.62219 -4.24314 0
M  V30 760 H 71.5759 -1.02965 -5.97899 0
M  V30 761 H 70.3149 -0.445808 -4.85658 0
M  V30 762 H 69.3199 -2.74871 -4.76157 0
M  V30 763 H 70.5449 -3.33024 -5.91837 0
M  V30 764 H 68.4909 -1.15208 -6.45804 0
M  V30 765 H 68.4079 -2.78687 -7.02759 0
M  V30 766 H 69.6759 -1.7432 -7.59758 0
M  V30 767 N 73.905 1.17692 -1.04816 0
M  V30 768 C 74.855 2.1952 -0.616042 0
M  V30 769 C 75.839 1.57147 0.345485 0
M  V30 770 O 77.031 1.76245 0.163325 0
M  V30 771 C 74.16 3.43298 0.0116917 0
M  V30 772 C 73.246 4.12777 -0.973435 0
M  V30 773 N 73.637 4.5814 -2.14339 0
M  V30 774 C 71.935 4.38747 -0.80108 0
M  V30 775 C 72.636 5.11713 -2.7663 0
M  V30 776 N 71.612 5.03686 -2.04453 0
M  V30 777 H 75.414 2.52293 -1.5075 0
M  V30 778 H 72.928 1.3398 -0.917776 0
M  V30 779 H 74.925 4.15519 0.339006 0
M  V30 780 H 73.585 3.12018 0.898593 0
M  V30 781 H 74.596 4.52349 -2.52191 0
M  V30 782 H 71.273 4.17485 0.0350934 0
M  V30 783 H 72.663 5.56962 -3.75823 0
M  V30 784 N 75.3831 0.828654 1.34056 0
M  V30 785 C 76.7941 0.477534 1.8049 0
M  V30 786 C 77.1451 -1.00258 1.6865 0
M  V30 787 O 76.2701 -1.78057 1.22982 0
M  V30 788 C 76.8651 0.860018 3.27703 0
M  V30 789 C 75.4241 0.561185 3.72193 0
M  V30 790 C 74.5711 1.07385 2.55663 0
M  V30 791 H 77.5221 1.0183 1.21722 0
M  V30 792 H 77.5431 0.166038 3.80138 0
M  V30 793 H 77.0551 1.93731 3.36288 0
M  V30 794 H 75.1561 -0.506465 3.69142 0
M  V30 795 H 75.2691 1.10926 4.66082 0
M  V30 796 H 73.6331 0.495149 2.49841 0
M  V30 797 H 74.4161 2.15771 2.67016 0
M  V30 798 N 76.8612 -1.46375 0.584142 0
M  V30 799 C 78.0892 -2.06761 0.0759296 0
M  V30 800 C 78.5042 -1.43266 -1.22965 0
M  V30 801 O 77.8612 -0.538458 -1.74376 0
M  V30 802 C 77.9122 -3.61375 -0.0950384 0
M  V30 803 O 77.6332 -4.22495 1.15887 0
M  V30 804 C 79.1342 -4.38693 -0.637434 0
M  V30 805 H 76.3542 -0.668479 0.0581075 0
M  V30 806 H 78.8982 -1.8798 0.805218 0
M  V30 807 H 77.0532 -3.79578 -0.774554 0
M  V30 808 H 77.4672 -5.15385 0.973598 0
M  V30 809 H 78.9412 -5.47464 -0.706237 0
M  V30 810 H 79.4182 -4.06836 -1.65472 0
M  V30 811 H 80.0242 -4.25299 0.00725967 0
M  V30 812 N 78.3393 -0.321999 -1.54275 0
M  V30 813 C 79.5863 0.281044 -2.0054 0
M  V30 814 C 79.9143 1.52265 -1.21019 0
M  V30 815 O 79.1693 1.93687 -0.279982 0
M  V30 816 C 79.4683 0.661769 -3.5122 0
M  V30 817 C 79.1343 -0.480482 -4.48333 0
M  V30 818 C 77.7963 -0.794005 -4.74604 0
M  V30 819 C 80.1483 -1.24783 -5.06042 0
M  V30 820 C 77.4763 -1.87763 -5.55844 0
M  V30 821 C 79.8283 -2.32153 -5.88462 0
M  V30 822 C 78.4923 -2.64089 -6.13036 0
M  V30 823 H 77.7623 0.102841 -0.733829 0
M  V30 824 H 80.4093 -0.445453 -1.86247 0
M  V30 825 H 78.7143 1.46867 -3.63232 0
M  V30 826 H 80.4113 1.13989 -3.84457 0
M  V30 827 H 77.0013 -0.226039 -4.28004 0
M  V30 828 H 81.1853 -1.01887 -4.85729 0
M  V30 829 H 76.4413 -2.12954 -5.73115 0
M  V30 830 H 80.6153 -2.92057 -6.32199 0
M  V30 831 H 78.2423 -3.48185 -6.75775 0
M  V30 832 N 79.8174 1.5752 -0.0501392 0
M  V30 833 C 81.0634 1.92936 0.624798 0
M  V30 834 C 81.3964 0.928685 1.70555 0
M  V30 835 O 80.6714 -0.0454779 1.94447 0
M  V30 836 C 80.9544 3.38737 1.22185 0
M  V30 837 C 80.8074 4.49552 0.149218 0
M  V30 838 C 82.1264 3.84913 2.13378 0
M  V30 839 H 79.2454 0.701604 0.225657 0
M  V30 840 H 81.8874 1.89671 -0.111693 0
M  V30 841 H 80.0374 3.4165 1.84953 0
M  V30 842 H 81.7094 4.58768 -0.482648 0
M  V30 843 H 79.9524 4.30638 -0.522841 0
M  V30 844 H 80.6234 5.48653 0.606966 0
M  V30 845 H 83.0994 3.8387 1.60572 0
M  V30 846 H 81.9754 4.87584 2.52097 0
M  V30 847 H 82.2364 3.21611 3.03346 0
M  V30 848 N 81.2955 -0.223234 1.56011 0
M  V30 849 C 82.2055 -1.29766 1.95443 0
M  V30 850 C 83.2215 -1.51373 0.858028 0
M  V30 851 O 84.3975 -1.64536 1.16146 0
M  V30 852 C 81.4625 -2.62772 2.26167 0
M  V30 853 C 80.5235 -2.49482 3.49367 0
M  V30 854 C 79.7565 -3.76145 3.78616 0
M  V30 855 O 79.9795 -4.79087 3.09568 0
M  V30 856 O 78.9135 -3.73358 4.72109 0
M  V30 857 H 82.7395 -0.99309 2.87004 0
M  V30 858 H 80.3245 -0.425958 1.43199 0
M  V30 859 H 82.2065 -3.41327 2.47131 0
M  V30 860 H 80.8815 -2.92913 1.37781 0
M  V30 861 H 79.7885 -1.69133 3.33684 0
M  V30 862 H 81.1215 -2.2428 4.38131 0
M  V30 863 N 82.7736 -1.49793 -0.48987 0
M  V30 864 C 84.0216 -1.59525 -1.24081 0
M  V30 865 C 84.3426 -0.288953 -1.92847 0
M  V30 866 O 83.6126 0.692436 -1.83254 0
M  V30 867 H 82.1926 -0.587796 -0.460983 0
M  V30 868 H 84.8546 -1.86477 -0.566778 0
M  V30 869 H 83.9506 -2.39696 -1.99881 0
M  V30 870 N 84.2517 0.741722 -1.39055 0
M  V30 871 C 85.5287 1.49252 -1.26425 0
M  V30 872 C 85.9087 2.10705 0.129144 0
M  V30 873 O 85.2567 1.98045 1.13976 0
M  V30 874 C 85.4667 2.54934 -2.38347 0
M  V30 875 C 86.8147 3.21506 -2.77343 0
M  V30 876 O 87.8387 2.65245 -2.37747 0
M  V30 877 O 86.6977 4.23294 -3.45665 0
M  V30 878 H 83.7917 0.662451 -0.495064 0
M  V30 879 H 86.3377 0.776121 -1.50912 0
M  V30 880 H 85.1097 2.07857 -3.31529 0
M  V30 881 H 84.7327 3.34141 -2.15489 0
M  V30 882 N 85.7298 1.2412 0.971189 0
M  V30 883 C 86.9788 1.07284 1.70801 0
M  V30 884 C 87.2918 -0.388902 1.91695 0
M  V30 885 O 88.4978 -0.677379 2.62914 0
M  V30 886 C 86.9538 1.87145 3.07416 0
M  V30 887 C 86.5618 3.37707 2.94377 0
M  V30 888 C 88.3058 1.78828 3.84995 0
M  V30 889 C 86.2128 4.09925 4.26281 0
M  V30 890 H 85.1428 0.397854 0.64049 0
M  V30 891 H 87.7938 1.4817 1.0825 0
M  V30 892 H 86.1758 1.39071 3.70777 0
M  V30 893 H 87.3498 3.93335 2.4005 0
M  V30 894 H 85.6648 3.46938 2.30267 0
M  V30 895 H 88.2618 2.30089 4.82662 0
M  V30 896 H 88.6048 0.75284 4.09436 0
M  V30 897 H 89.1378 2.24563 3.28354 0
M  V30 898 H 85.8768 5.13813 4.07033 0
M  V30 899 H 85.3968 3.59083 4.80437 0
M  V30 900 H 87.0758 4.1673 4.94919 0
M  V30 901 N 87.2079 -1.17134 1.05439 0
M  V30 902 C 88.6239 -1.39454 0.776201 0
M  V30 903 C 88.8239 -1.91454 -0.628307 0
M  V30 904 O 87.8799 -2.10777 -1.39031 0
M  V30 905 C 89.1929 -2.38305 1.83388 0
M  V30 906 C 90.7409 -2.52006 1.85639 0
M  V30 907 C 91.2159 -3.54133 2.90437 0
M  V30 908 N 92.7069 -3.61653 2.89415 0
M  V30 909 C 93.4419 -4.4044 3.67152 0
M  V30 910 N 92.9379 -5.22721 4.54681 0
M  V30 911 N 94.7309 -4.35337 3.55581 0
M  V30 912 H 86.8819 -0.817134 1.96053 0
M  V30 913 H 89.1449 -0.421626 0.849079 0
M  V30 914 H 88.8509 -2.07173 2.84204 0
M  V30 915 H 88.7249 -3.37841 1.67761 0
M  V30 916 H 91.1119 -2.82447 0.85486 0
M  V30 917 H 91.1929 -1.52537 2.05344 0
M  V30 918 H 90.8369 -3.24431 3.90777 0
M  V30 919 H 90.7669 -4.53313 2.67983 0
M  V30 920 H 93.2579 -3.02909 2.25952 0
M  V30 921 H 93.5709 -5.80027 5.10674 0
M  V30 922 H 91.9159 -5.22093 4.58741 0
M  V30 923 H 95.1069 -3.70112 2.86592 0
M  V30 924 H 95.2799 -4.96494 4.1641 0
M  V30 925 N 88.686 -0.835752 -1.33615 0
M  V30 926 C 89.634 -0.255238 -2.31195 0
M  V30 927 C 90.628 0.61107 -1.57995 0
M  V30 928 O 91.834 0.500979 -1.72888 0
M  V30 929 H 88.209 -0.0638085 -0.749288 0
M  V30 930 H 90.18 -1.09283 -2.77669 0
M  V30 931 C 88.929 0.55754 -3.43201 0
M  V30 932 H 88.252 -0.0997553 -3.99676 0
M  V30 933 H 89.692 0.929622 -4.13683 0
M  V30 934 C 88.151 1.73515 -2.88781 0
M  V30 935 O 88.681 2.83376 -2.84712 0
M  V30 936 N 86.887 1.55603 -2.4543 0
M  V30 937 H 86.434 0.662354 -2.48939 0
M  V30 938 H 86.392 2.34545 -2.09371 0
M  V30 939 N 90.1641 1.46063 -0.591896 0
M  V30 940 C 91.0741 2.34192 0.13831 0
M  V30 941 C 92.0901 1.50305 0.876608 0
M  V30 942 O 93.2661 1.8315 0.837728 0
M  V30 943 C 90.3311 3.27656 1.13326 0
M  V30 944 C 89.3921 4.27445 0.39863 0
M  V30 945 C 88.6251 5.16443 1.34618 0
M  V30 946 O 88.8481 5.08553 2.58321 0
M  V30 947 O 87.7821 5.95843 0.851768 0
M  V30 948 H 91.6081 2.98002 -0.58552 0
M  V30 949 H 89.1931 1.45188 -0.352239 0
M  V30 950 H 91.0751 3.85291 1.70671 0
M  V30 951 H 89.7501 2.6643 1.83839 0
M  V30 952 H 88.6571 3.73471 -0.216895 0
M  V30 953 H 89.9901 4.91482 -0.265709 0
M  V30 954 N 91.6422 0.330177 1.54103 0
M  V30 955 C 92.6052 -0.520144 2.2322 0
M  V30 956 C 93.6052 -1.03828 1.22786 0
M  V30 957 O 94.7952 -0.929652 1.4732 0
M  V30 958 C 91.9272 -1.72317 2.94142 0
M  V30 959 H 93.1202 0.0841605 2.99782 0
M  V30 960 H 90.6732 0.0813433 1.56088 0
M  V30 961 H 91.4082 -2.36653 2.21734 0
M  V30 962 H 91.1932 -1.35898 3.67796 0
M  V30 963 H 92.6832 -2.3266 3.46784 0
M  V30 964 N 93.1203 -1.57491 0.0584922 0
M  V30 965 C 94.0503 -2.14988 -0.911178 0
M  V30 966 C 95.0313 -1.07343 -1.31952 0
M  V30 967 O 96.2163 -1.35318 -1.39294 0
M  V30 968 C 93.3463 -2.70078 -2.18347 0
M  V30 969 C 92.3003 -3.82771 -1.91495 0
M  V30 970 C 91.6263 -4.24408 -3.25241 0
M  V30 971 C 92.9263 -5.07592 -1.23075 0
M  V30 972 H 94.6203 -2.96263 -0.432246 0
M  V30 973 H 92.1663 -1.42512 -0.206469 0
M  V30 974 H 94.1193 -3.08943 -2.86587 0
M  V30 975 H 92.8433 -1.86005 -2.68458 0
M  V30 976 H 91.5023 -3.44389 -1.25664 0
M  V30 977 H 91.1503 -3.37275 -3.73168 0
M  V30 978 H 90.8503 -5.00366 -3.08071 0
M  V30 979 H 92.3743 -4.65879 -3.94701 0
M  V30 980 H 93.7883 -5.43857 -1.81362 0
M  V30 981 H 92.1853 -5.88741 -1.16207 0
M  V30 982 H 93.2553 -4.84454 -0.207847 0
M  V30 983 N 94.5984 0.214957 -1.56127 0
M  V30 984 C 95.5314 1.29382 -1.87977 0
M  V30 985 C 96.5094 1.44897 -0.737807 0
M  V30 986 O 97.6934 1.60605 -0.986833 0
M  V30 987 C 94.8204 2.66325 -2.09258 0
M  V30 988 C 93.8664 2.67789 -3.31951 0
M  V30 989 S 94.6994 2.21198 -4.8768 0
M  V30 990 C 95.8554 3.60003 -5.12004 0
M  V30 991 H 96.0884 1.02173 -2.79192 0
M  V30 992 H 93.6214 0.417516 -1.48648 0
M  V30 993 H 95.5794 3.45162 -2.22201 0
M  V30 994 H 94.2404 2.90755 -1.18829 0
M  V30 995 H 93.4334 3.68436 -3.43906 0
M  V30 996 H 93.0354 1.9702 -3.17898 0
M  V30 997 H 95.3274 4.55739 -5.01307 0
M  V30 998 H 96.2704 3.52959 -6.13861 0
M  V30 999 H 96.6784 3.53996 -4.39712 0
M  V30 1000 N 96.0765 1.50051 0.48192 0
M  V30 1001 C 97.3045 1.64237 1.25832 0
M  V30 1002 C 97.7195 0.321336 1.86045 0
M  V30 1003 O 97.0765 -0.695478 1.68729 0
M  V30 1004 C 97.1275 2.72548 2.37487 0
M  V30 1005 O 96.8485 3.99529 1.79745 0
M  V30 1006 C 98.3495 2.9761 3.28547 0
M  V30 1007 H 95.5695 0.55237 0.380957 0
M  V30 1008 H 98.1135 1.96207 0.576467 0
M  V30 1009 H 96.2685 2.43303 3.01467 0
M  V30 1010 H 96.6825 4.59342 2.5319 0
M  V30 1011 H 98.1565 3.77084 4.03127 0
M  V30 1012 H 98.6335 2.0826 3.86684 0
M  V30 1013 H 99.2395 3.28345 2.70314 0
M  V30 1014 N 97.5546 -0.734337 1.39446 0
M  V30 1015 C 98.4646 -1.87879 1.40495 0
M  V30 1016 C 99.4806 -1.714 0.299672 0
M  V30 1017 O 100.657 -1.93991 0.541249 0
M  V30 1018 C 97.7216 -3.23477 1.24754 0
M  V30 1019 C 96.7826 -3.52344 2.45259 0
M  V30 1020 C 96.0156 -4.81473 2.30259 0
M  V30 1021 O 96.2386 -5.55237 1.30643 0
M  V30 1022 O 95.1726 -5.10254 3.19256 0
M  V30 1023 H 98.9986 -1.89949 2.36966 0
M  V30 1024 H 96.5836 -0.882243 1.20569 0
M  V30 1025 H 98.4656 -4.04509 1.18111 0
M  V30 1026 H 97.1406 -3.22176 0.313781 0
M  V30 1027 H 96.0476 -2.71396 2.57478 0
M  V30 1028 H 97.3806 -3.58426 3.37331 0
M  V30 1029 N 99.0327 -1.24633 -0.964593 0
M  V30 1030 C 100.282 -1.08188 -1.7023 0
M  V30 1031 C 100.595 0.37873 -1.91898 0
M  V30 1032 O 101.801 0.663427 -2.6327 0
M  V30 1033 C 100.257 -1.88773 -3.06419 0
M  V30 1034 C 99.8647 -3.39263 -2.92582 0
M  V30 1035 C 101.609 -1.80867 -3.84041 0
M  V30 1036 C 99.5157 -4.1218 -4.24101 0
M  V30 1037 H 98.4457 -0.401245 -0.638372 0
M  V30 1038 H 101.097 -1.48742 -1.07462 0
M  V30 1039 H 99.4787 -1.41035 -3.70034 0
M  V30 1040 H 100.653 -3.94603 -2.37961 0
M  V30 1041 H 98.9677 -3.48154 -2.28424 0
M  V30 1042 H 101.565 -2.32646 -4.81435 0
M  V30 1043 H 101.908 -0.774543 -4.09031 0
M  V30 1044 H 102.441 -2.26301 -3.27159 0
M  V30 1045 H 99.1797 -5.15965 -4.04303 0
M  V30 1046 H 98.6997 -3.61626 -4.78526 0
M  V30 1047 H 100.379 -4.19349 -4.92702 0
M  V30 1048 N 100.511 1.16574 -1.06058 0
M  V30 1049 C 101.441 2.23057 -0.690488 0
M  V30 1050 C 102.422 1.67141 0.315901 0
M  V30 1051 O 103.607 1.93253 0.191556 0
M  V30 1052 C 100.737 3.47222 -0.073625 0
M  V30 1053 C 99.6908 4.16016 -1.00573 0
M  V30 1054 C 99.0168 5.34104 -0.252289 0
M  V30 1055 C 100.317 4.67264 -2.33371 0
M  V30 1056 H 102.011 2.54271 -1.58072 0
M  V30 1057 H 99.5568 1.22218 -0.76149 0
M  V30 1058 H 101.51 4.20939 0.19714 0
M  V30 1059 H 100.234 3.15302 0.85161 0
M  V30 1060 H 98.8928 3.44223 -1.2612 0
M  V30 1061 H 98.5408 4.98437 0.675988 0
M  V30 1062 H 98.2408 5.81072 -0.873455 0
M  V30 1063 H 99.7648 6.10599 0.0109857 0
M  V30 1064 H 101.179 5.32573 -2.12223 0
M  V30 1065 H 99.5758 5.24843 -2.90963 0
M  V30 1066 H 100.646 3.83602 -2.96611 0
M  V30 1067 N 101.989 0.842826 1.3317 0
M  V30 1068 C 102.939 0.250877 2.26616 0
M  V30 1069 C 103.923 -0.596427 1.49437 0
M  V30 1070 O 105.115 -0.447747 1.71243 0
M  V30 1071 C 102.244 -0.569779 3.38539 0
M  V30 1072 C 101.33 0.289254 4.23112 0
M  V30 1073 N 101.721 1.36987 4.86897 0
M  V30 1074 C 100.019 0.0769631 4.45934 0
M  V30 1075 C 100.72 1.89737 5.49886 0
M  V30 1076 N 99.6959 1.19827 5.30229 0
M  V30 1077 H 103.498 1.07718 2.73448 0
M  V30 1078 H 101.012 0.687693 1.47121 0
M  V30 1079 H 103.009 -1.01018 4.04476 0
M  V30 1080 H 101.669 -1.39401 2.93253 0
M  V30 1081 H 102.68 1.75277 4.87338 0
M  V30 1082 H 99.3569 -0.713507 4.11358 0
M  V30 1083 H 100.747 2.80253 6.10662 0
M  V30 1084 N 103.467 -1.45747 0.599634 0
M  V30 1085 C 104.744 -1.95585 0.0240846 0
M  V30 1086 C 105.124 -1.54217 -1.44154 0
M  V30 1087 O 104.472 -0.800903 -2.14004 0
M  V30 1088 C 104.682 -3.48344 0.21385 0
M  V30 1089 C 106.03 -4.24504 0.0904902 0
M  V30 1090 O 107.054 -3.55911 0.143558 0
M  V30 1091 O 105.913 -5.46491 -0.0310766 0
M  V30 1092 H 103.007 -0.82602 -0.0402478 0
M  V30 1093 H 105.553 -1.55951 0.669139 0
M  V30 1094 H 104.325 -3.71397 1.23206 0
M  V30 1095 H 103.948 -3.9485 -0.466842 0
M  V30 1096 N 104.945 -0.338344 -1.53925 0
M  V30 1097 C 105.895 0.536712 -2.21593 0
M  V30 1098 C 106.879 1.07015 -1.20153 0
M  V30 1099 O 108.071 1.00471 -1.45721 0
M  V30 1100 C 105.2 1.68977 -2.98834 0
M  V30 1101 C 104.286 1.17052 -4.07627 0
M  V30 1102 N 104.677 0.372085 -5.0443 0
M  V30 1103 C 102.975 1.44789 -4.21844 0
M  V30 1104 C 103.676 0.0909171 -5.81629 0
M  V30 1105 N 102.652 0.681131 -5.39316 0
M  V30 1106 H 106.454 -0.0804298 -2.9379 0
M  V30 1107 H 103.968 -0.144943 -1.61752 0
M  V30 1108 H 105.965 2.32857 -3.45808 0
M  V30 1109 H 104.625 2.31024 -2.28162 0
M  V30 1110 H 105.636 0.0136217 -5.17898 0
M  V30 1111 H 102.313 2.07313 -3.62391 0
M  V30 1112 H 103.703 -0.552817 -6.69622 0
M  V30 1113 N 106.423 1.57458 -0.0668435 0
M  V30 1114 C 107.386 2.11323 0.887422 0
M  V30 1115 C 108.386 1.03618 1.22964 0
M  V30 1116 O 109.576 1.29626 1.16373 0
M  V30 1117 C 106.708 2.61048 2.19242 0
M  V30 1118 H 107.901 2.96942 0.420194 0
M  V30 1119 H 105.454 1.55239 0.181793 0
M  V30 1120 H 106.189 1.78868 2.70512 0
M  V30 1121 H 105.974 3.39769 1.95702 0
M  V30 1122 H 107.464 3.02814 2.87565 0
M  V30 1123 N 107.901 -0.206675 1.56239 0
M  V30 1124 C 109.15 -0.926964 1.79138 0
M  V30 1125 C 109.463 -1.84901 0.638043 0
M  V30 1126 O 110.669 -2.60906 0.751033 0
M  V30 1127 C 109.125 -1.6986 3.17294 0
M  V30 1128 C 108.733 -0.821956 4.40395 0
M  V30 1129 C 110.477 -2.40922 3.4951 0
M  V30 1130 C 108.384 -1.59179 5.69575 0
M  V30 1131 H 107.314 -0.349864 0.667915 0
M  V30 1132 H 109.965 -0.180487 1.8261 0
M  V30 1133 H 108.347 -2.48853 3.08039 0
M  V30 1134 H 109.521 -0.0715019 4.60745 0
M  V30 1135 H 107.836 -0.222741 4.15804 0
M  V30 1136 H 110.433 -2.99047 4.43255 0
M  V30 1137 H 110.776 -3.14542 2.72707 0
M  V30 1138 H 111.309 -1.68905 3.60161 0
M  V30 1139 H 108.048 -0.898589 6.49312 0
M  V30 1140 H 107.568 -2.31648 5.53262 0
M  V30 1141 H 109.247 -2.14862 6.10281 0
M  V30 1142 N 109.379 -1.50304 -0.473955 0
M  V30 1143 C 110.656 -1.51667 -1.23518 0
M  V30 1144 C 111.036 -0.259701 -2.09496 0
M  V30 1145 O 110.384 0.756986 -2.15597 0
M  V30 1146 C 110.594 -2.81082 -2.06868 0
M  V30 1147 C 111.942 -3.31631 -2.65153 0
M  V30 1148 O 112.966 -2.82384 -2.17113 0
M  V30 1149 O 111.825 -4.17471 -3.52675 0
M  V30 1150 H 108.919 -0.60822 -0.560355 0
M  V30 1151 H 111.465 -1.62592 -0.486011 0
M  V30 1152 H 110.237 -3.64041 -1.4349 0
M  V30 1153 H 109.86 -2.73146 -2.88924 0
M  V30 1154 N 110.857 0.726932 -1.39834 0
M  V30 1155 C 112.085 1.51613 -1.40787 0
M  V30 1156 C 112.5 1.88799 -0.00451505 0
M  V30 1157 O 111.857 1.54662 0.968809 0
M  V30 1158 C 111.908 2.79863 -2.28821 0
M  V30 1159 O 111.629 2.44253 -3.63692 0
M  V30 1160 C 113.13 3.73837 -2.38245 0
M  V30 1161 H 110.35 0.468264 -0.480593 0
M  V30 1162 H 112.894 0.897607 -1.83748 0
M  V30 1163 H 111.049 3.38027 -1.89252 0
M  V30 1164 H 111.463 3.26695 -4.1033 0
M  V30 1165 H 112.937 4.60699 -3.04073 0
M  V30 1166 H 113.414 4.16153 -1.40403 0
M  V30 1167 H 114.02 3.21589 -2.78317 0
M  V30 1168 N 112.336 1.25143 0.95797 0
M  V30 1169 C 113.582 1.09855 1.70469 0
M  V30 1170 C 113.915 -0.360187 1.90831 0
M  V30 1171 O 113.19 -1.26568 1.47685 0
M  V30 1172 C 113.473 1.8497 3.08963 0
M  V30 1173 C 113.326 3.38652 2.96032 0
M  V30 1174 C 114.645 1.63016 4.08795 0
M  V30 1175 H 111.764 0.400465 0.618706 0
M  V30 1176 H 114.406 1.53933 1.11376 0
M  V30 1177 H 112.556 1.47505 3.59409 0
M  V30 1178 H 114.228 3.85772 2.52938 0
M  V30 1179 H 112.471 3.66534 2.32025 0
M  V30 1180 H 113.142 3.8642 3.94187 0
M  V30 1181 H 115.618 1.95625 3.67247 0
M  V30 1182 H 114.494 2.18015 5.03747 0
M  V30 1183 H 114.755 0.570692 4.38401 0
M  V30 1184 N 113.814 -1.1601 1.06675 0
M  V30 1185 C 115.063 -1.85973 0.780818 0
M  V30 1186 C 115.376 -1.82819 -0.695444 0
M  V30 1187 O 116.582 -2.484 -1.09589 0
M  V30 1188 C 115.038 -3.33757 1.34665 0
M  V30 1189 C 114.646 -3.45374 2.85343 0
M  V30 1190 C 116.39 -4.0895 1.13843 0
M  V30 1191 C 114.297 -4.87266 3.35151 0
M  V30 1192 H 113.227 -0.696661 0.288407 0
M  V30 1193 H 115.878 -1.30903 1.28595 0
M  V30 1194 H 114.26 -3.88456 0.769274 0
M  V30 1195 H 115.434 -3.00816 3.49065 0
M  V30 1196 H 113.749 -2.83619 3.04876 0
M  V30 1197 H 116.346 -5.13654 1.4854 0
M  V30 1198 H 116.689 -4.16229 0.0770282 0
M  V30 1199 H 117.222 -3.605 1.68179 0
M  V30 1200 H 113.961 -4.85168 4.40786 0
M  V30 1201 H 113.481 -5.32433 2.76179 0
M  V30 1202 H 115.16 -5.56097 3.30704 0
M  V30 1203 N 115.292 -0.849877 -1.32721 0
M  V30 1204 C 116.242 -0.262892 -2.26479 0
M  V30 1205 C 117.226 0.588493 -1.49752 0
M  V30 1206 O 118.418 0.438659 -1.71478 0
M  V30 1207 C 115.547 0.551818 -3.38836 0
M  V30 1208 C 114.633 -0.311689 -4.22953 0
M  V30 1209 N 115.024 -1.39567 -4.86163 0
M  V30 1210 C 113.322 -0.100611 -4.45887 0
M  V30 1211 C 114.023 -1.92651 -5.48872 0
M  V30 1212 N 112.999 -1.22637 -5.29586 0
M  V30 1213 H 116.801 -1.09166 -2.72873 0
M  V30 1214 H 114.315 -0.695486 -1.46754 0
M  V30 1215 H 116.312 0.988713 -4.05006 0
M  V30 1216 H 114.972 1.37844 -2.93988 0
M  V30 1217 H 115.983 -1.77859 -4.86402 0
M  V30 1218 H 112.66 0.691681 -4.11731 0
M  V30 1219 H 114.05 -2.83487 -6.09167 0
M  V30 1220 N 116.77 1.45427 -0.607355 0
M  V30 1221 C 118.017 2.02241 -0.102455 0
M  V30 1222 C 118.345 1.4758 1.26691 0
M  V30 1223 O 117.6 0.640468 1.84923 0
M  V30 1224 C 117.899 3.57398 -0.0129263 0
M  V30 1225 C 117.565 4.3121 -1.31792 0
M  V30 1226 C 116.227 4.51092 -1.67539 0
M  V30 1227 C 118.579 4.73401 -2.18039 0
M  V30 1228 C 115.907 5.10422 -2.89285 0
M  V30 1229 C 118.259 5.34078 -3.39034 0
M  V30 1230 C 116.923 5.52184 -3.75033 0
M  V30 1231 H 116.193 0.740051 -0.037491 0
M  V30 1232 H 118.84 1.74494 -0.788926 0
M  V30 1233 H 117.145 3.84421 0.756806 0
M  V30 1234 H 118.842 3.99061 0.393881 0
M  V30 1235 H 115.432 4.16047 -1.02968 0
M  V30 1236 H 119.616 4.57774 -1.91721 0
M  V30 1237 H 114.872 5.22629 -3.17283 0
M  V30 1238 H 119.046 5.65724 -4.06115 0
M  V30 1239 H 116.673 5.97925 -4.69457 0
M  V30 1240 N 118.248 0.346503 1.53744 0
M  V30 1241 C 119.211 -0.496439 2.23759 0
M  V30 1242 C 120.211 -1.0252 1.2388 0
M  V30 1243 O 121.401 -0.913974 1.48297 0
M  V30 1244 C 118.533 -1.69187 2.95954 0
M  V30 1245 H 119.726 0.115952 2.99676 0
M  V30 1246 H 117.279 0.0978939 1.55993 0
M  V30 1247 H 118.014 -2.34288 2.24231 0
M  V30 1248 H 117.799 -1.31989 3.69217 0
M  V30 1249 H 119.289 -2.28969 3.49232 0
M  V30 1250 N 119.726 -1.57421 0.075193 0
M  V30 1251 C 120.974 -1.93236 -0.591974 0
M  V30 1252 C 121.295 -0.956241 -1.69944 0
M  V30 1253 O 120.565 -0.00494792 -1.95899 0
M  V30 1254 H 119.145 -0.713355 -0.22166 0
M  V30 1255 H 121.807 -1.9444 0.133848 0
M  V30 1256 H 120.903 -2.95131 -1.01509 0
M  V30 1257 N 121.204 0.198386 -1.56346 0
M  V30 1258 C 122.134 1.24865 -1.9731 0
M  V30 1259 C 123.115 1.47651 -0.844576 0
M  V30 1260 O 124.3 1.59444 -1.10866 0
M  V30 1261 C 121.43 2.59358 -2.30977 0
M  V30 1262 C 120.384 2.5119 -3.46537 0
M  V30 1263 C 119.71 3.89926 -3.65871 0
M  V30 1264 C 121.01 2.03977 -4.80823 0
M  V30 1265 H 122.704 0.908252 -2.85291 0
M  V30 1266 H 120.25 0.435462 -1.37258 0
M  V30 1267 H 122.203 3.33011 -2.58228 0
M  V30 1268 H 120.927 2.95132 -1.39874 0
M  V30 1269 H 119.586 1.79993 -3.19371 0
M  V30 1270 H 119.234 4.23046 -2.72105 0
M  V30 1271 H 118.934 3.85336 -4.4361 0
M  V30 1272 H 120.458 4.65205 -3.95495 0
M  V30 1273 H 121.872 2.67386 -5.07127 0
M  V30 1274 H 120.269 2.10397 -5.62008 0
M  V30 1275 H 121.339 0.992861 -4.74626 0
M  V30 1276 N 122.682 1.50554 0.465978 0
M  V30 1277 C 123.629 1.6979 1.56333 0
M  V30 1278 C 124.599 0.539239 1.57103 0
M  V30 1279 O 125.784 0.770401 1.74555 0
M  V30 1280 C 122.924 1.80273 2.94271 0
M  V30 1281 C 122.037 3.07674 3.0325 0
M  V30 1282 C 121.172 3.08922 4.32135 0
M  V30 1283 C 120.211 4.30755 4.34875 0
M  V30 1284 N 119.348 4.29714 5.55239 0
M  V30 1285 H 124.188 2.63472 1.39235 0
M  V30 1286 H 121.725 1.30602 0.676873 0
M  V30 1287 H 123.683 1.84332 3.74269 0
M  V30 1288 H 122.313 0.900258 3.09992 0
M  V30 1289 H 121.365 3.13062 2.16094 0
M  V30 1290 H 122.677 3.97642 3.01135 0
M  V30 1291 H 121.831 3.11738 5.20485 0
M  V30 1292 H 120.57 2.16792 4.36866 0
M  V30 1293 H 119.575 4.28146 3.44922 0
M  V30 1294 H 120.8 5.24117 4.31831 0
M  V30 1295 H 118.746 3.4044 5.60746 0
M  V30 1296 H 118.663 5.13456 5.54886 0
M  V30 1297 H 119.931 4.36683 6.457 0
M  V30 1298 N 124.16 -0.719506 1.40217 0
M  V30 1299 C 125.123 -1.8153 1.39927 0
M  V30 1300 C 126.123 -1.58095 0.293723 0
M  V30 1301 O 127.313 -1.65209 0.552429 0
M  V30 1302 C 124.445 -3.19561 1.18716 0
M  V30 1303 H 125.638 -1.83186 2.37451 0
M  V30 1304 H 123.191 -0.924746 1.26008 0
M  V30 1305 H 123.926 -3.23557 0.219366 0
M  V30 1306 H 123.711 -3.3797 1.98793 0
M  V30 1307 H 125.201 -3.99598 1.21291 0
M  V30 1308 N 125.638 -1.25649 -0.95132 0
M  V30 1309 C 126.884 -1.10757 -1.69884 0
M  V30 1310 C 127.217 0.350061 -1.91019 0
M  V30 1311 O 126.492 1.25783 -1.48354 0
M  V30 1312 C 126.775 -1.86606 -3.07978 0
M  V30 1313 C 126.628 -3.40217 -2.94232 0
M  V30 1314 C 127.947 -1.65182 -4.07925 0
M  V30 1315 H 125.066 -0.40374 -0.616574 0
M  V30 1316 H 127.708 -1.54521 -1.10558 0
M  V30 1317 H 125.858 -1.49409 -3.58621 0
M  V30 1318 H 127.53 -3.87108 -2.50889 0
M  V30 1319 H 125.773 -3.67759 -2.30078 0
M  V30 1320 H 126.444 -3.88505 -3.92133 0
M  V30 1321 H 128.92 -1.9757 -3.66204 0
M  V30 1322 H 127.796 -2.20683 -5.02583 0
M  V30 1323 H 128.057 -0.593933 -4.38092 0
M  V30 1324 N 127.117 1.15442 -1.07289 0
M  V30 1325 C 128.365 1.85845 -0.794096 0
M  V30 1326 C 128.686 1.82692 0.681809 0
M  V30 1327 O 127.956 1.26741 1.49377 0
M  V30 1328 H 126.536 0.688089 -0.290763 0
M  V30 1329 H 129.198 1.39947 -1.3565 0
M  V30 1330 H 128.294 2.91001 -1.12804 0
M  V30 1331 N 128.595 0.856903 1.32268 0
M  V30 1332 C 129.505 0.306131 2.32594 0
M  V30 1333 C 130.521 -0.577209 1.64147 0
M  V30 1334 O 131.697 -0.477043 1.95669 0
M  V30 1335 C 128.762 -0.494561 3.43154 0
M  V30 1336 C 127.823 0.415186 4.27288 0
M  V30 1337 C 127.056 -0.347387 5.32568 0
M  V30 1338 O 127.279 -1.57708 5.48165 0
M  V30 1339 O 126.213 0.287982 6.01211 0
M  V30 1340 H 130.039 1.13737 2.81598 0
M  V30 1341 H 127.624 0.619902 1.35932 0
M  V30 1342 H 129.506 -0.948944 4.10576 0
M  V30 1343 H 128.181 -1.30257 2.96336 0
M  V30 1344 H 127.088 0.917793 3.62667 0
M  V30 1345 H 128.421 1.18844 4.77637 0
M  V30 1346 N 130.073 -1.45103 0.615059 0
M  V30 1347 C 131.298 -2.07064 0.117988 0
M  V30 1348 C 131.723 -1.4554 -1.19163 0
M  V30 1349 O 131.081 -0.550855 -1.72729 0
M  V30 1350 C 131.129 -3.606 -0.000288387 0
M  V30 1351 O 130.233 -3.98847 -1.04856 0
M  V30 1352 H 129.574 -0.659467 0.0774581 0
M  V30 1353 H 132.104 -1.86236 0.847186 0
M  V30 1354 H 132.114 -4.07529 -0.196091 0
M  V30 1355 H 130.789 -4.04765 0.955932 0
M  V30 1356 H 129.366 -3.63577 -0.828619 0
M  V30 1357 N 131.551 -0.354651 -1.53558 0
M  V30 1358 C 132.797 0.238797 -2.01389 0
M  V30 1359 C 133.13 1.49309 -1.2418 0
M  V30 1360 O 132.405 1.91638 -0.332457 0
M  V30 1361 C 132.688 0.541771 -3.56001 0
M  V30 1362 C 132.541 -0.725388 -4.43912 0
M  V30 1363 C 133.86 1.34685 -4.18984 0
M  V30 1364 H 130.979 0.0853177 -0.732045 0
M  V30 1365 H 133.621 -0.477384 -1.83905 0
M  V30 1366 H 131.771 1.15189 -3.71031 0
M  V30 1367 H 133.443 -1.36313 -4.407 0
M  V30 1368 H 131.686 -1.34801 -4.12324 0
M  V30 1369 H 132.357 -0.468505 -5.50008 0
M  V30 1370 H 134.833 0.830837 -4.07721 0
M  V30 1371 H 133.709 1.52759 -5.27215 0
M  V30 1372 H 133.97 2.35221 -3.74331 0
M  V30 1373 N 133.029 1.57378 -0.0835403 0
M  V30 1374 C 133.961 2.10389 0.909338 0
M  V30 1375 C 134.974 1.03858 1.25369 0
M  V30 1376 O 136.163 1.31338 1.20882 0
M  V30 1377 C 133.263 2.55908 2.2218 0
M  V30 1378 C 132.436 3.86145 2.05453 0
M  V30 1379 C 131.495 4.17633 3.20108 0
M  V30 1380 O 130.521 4.87043 2.94581 0
M  V30 1381 N 131.723 3.72113 4.45547 0
M  V30 1382 H 134.488 2.962 0.456657 0
M  V30 1383 H 132.049 1.61579 0.101877 0
M  V30 1384 H 134.041 2.74027 2.97811 0
M  V30 1385 H 132.611 1.75171 2.58909 0
M  V30 1386 H 131.831 3.7729 1.1422 0
M  V30 1387 H 133.119 4.7137 1.91541 0
M  V30 1388 H 132.517 3.16062 4.69171 0
M  V30 1389 H 131.074 3.95409 5.18165 0
M  V30 1390 N 134.507 -0.190092 1.56449 0
M  V30 1391 C 135.454 -1.23557 1.94942 0
M  V30 1392 C 136.424 -1.44972 0.810696 0
M  V30 1393 O 137.609 -1.58023 1.06927 0
M  V30 1394 C 134.749 -2.57416 2.2985 0
M  V30 1395 C 133.862 -2.43537 3.5681 0
M  V30 1396 C 132.997 -3.70134 3.81017 0
M  V30 1397 C 132.036 -3.51109 5.01387 0
M  V30 1398 N 131.173 -4.6973 5.21822 0
M  V30 1399 H 136.013 -0.900304 2.84075 0
M  V30 1400 H 133.55 -0.43318 1.40577 0
M  V30 1401 H 135.508 -3.35409 2.48106 0
M  V30 1402 H 134.138 -2.88975 1.43852 0
M  V30 1403 H 133.19 -1.56816 3.46573 0
M  V30 1404 H 134.502 -2.25415 4.4496 0
M  V30 1405 H 133.656 -4.56566 3.9954 0
M  V30 1406 H 132.395 -3.91215 2.91207 0
M  V30 1407 H 131.4 -2.63063 4.82782 0
M  V30 1408 H 132.625 -3.31468 5.9271 0
M  V30 1409 H 130.571 -4.91065 4.34961 0
M  V30 1410 H 130.488 -4.54452 6.0416 0
M  V30 1411 H 131.756 -5.57499 5.44808 0
M  V30 1412 N 135.985 -1.50799 -0.457987 0
M  V30 1413 C 137.396 -1.55152 -1.0385 0
M  V30 1414 C 137.747 -0.362719 -1.92818 0
M  V30 1415 O 136.872 0.522915 -2.09987 0
M  V30 1416 C 137.467 -2.81173 -1.89017 0
M  V30 1417 C 136.026 -2.88164 -2.42154 0
M  V30 1418 C 135.173 -2.49591 -1.20829 0
M  V30 1419 H 138.124 -1.56874 -0.240068 0
M  V30 1420 H 138.145 -2.63769 -2.74238 0
M  V30 1421 H 137.657 -3.67677 -1.24238 0
M  V30 1422 H 135.758 -2.06042 -3.10447 0
M  V30 1423 H 135.871 -3.91356 -2.76364 0
M  V30 1424 H 134.235 -2.02322 -1.54719 0
M  V30 1425 H 135.018 -3.38418 -0.576927 0
M  V30 1426 N 137.463 0.71206 -1.40597 0
M  V30 1427 C 138.393 1.83889 -1.43899 0
M  V30 1428 C 139.374 1.67442 -0.299504 0
M  V30 1429 O 140.559 1.87421 -0.508624 0
M  V30 1430 C 137.689 3.21877 -1.30431 0
M  V30 1431 C 136.643 3.53002 -2.42019 0
M  V30 1432 C 135.969 4.90172 -2.13626 0
M  V30 1433 C 137.269 3.53643 -3.84362 0
M  V30 1434 H 138.963 1.81383 -2.38203 0
M  V30 1435 H 136.509 0.871237 -1.14654 0
M  V30 1436 H 138.462 4.00404 -1.31357 0
M  V30 1437 H 137.186 3.24968 -0.326049 0
M  V30 1438 H 135.845 2.76818 -2.40349 0
M  V30 1439 H 135.493 4.89869 -1.14182 0
M  V30 1440 H 135.193 5.11962 -2.88389 0
M  V30 1441 H 136.717 5.71028 -2.1624 0
M  V30 1442 H 138.131 4.22203 -3.87837 0
M  V30 1443 H 136.528 3.86961 -4.58673 0
M  V30 1444 H 137.598 2.52954 -4.13693 0
M  V30 1445 N 138.941 1.26152 0.944643 0
M  V30 1446 C 139.851 1.09176 2.07648 0
M  V30 1447 C 140.867 0.0261935 1.7398 0
M  V30 1448 O 142.043 0.229208 2.00091 0
M  V30 1449 C 139.108 0.722915 3.39079 0
M  V30 1450 C 138.169 1.86752 3.86552 0
M  V30 1451 C 137.402 1.51617 5.11711 0
M  V30 1452 O 137.625 0.416331 5.68879 0
M  V30 1453 O 136.559 2.34975 5.54139 0
M  V30 1454 H 140.385 2.0412 2.24875 0
M  V30 1455 H 137.97 1.05182 1.061 0
M  V30 1456 H 139.852 0.529787 4.18056 0
M  V30 1457 H 138.527 -0.197159 3.23099 0
M  V30 1458 H 137.434 2.11558 3.08535 0
M  V30 1459 H 138.767 2.76719 4.07047 0
M  V30 1460 N 140.419 -1.14872 1.07899 0
M  V30 1461 C 141.649 -1.89386 0.825631 0
M  V30 1462 C 142.057 -1.78565 -0.625406 0
M  V30 1463 O 141.4 -1.13918 -1.44113 0
M  V30 1464 C 141.462 -3.40206 1.16191 0
M  V30 1465 C 141.126 -3.74812 2.61467 0
M  V30 1466 C 142.123 -3.75367 3.59716 0
M  V30 1467 C 139.808 -4.0495 2.97189 0
M  V30 1468 C 141.802 -4.05574 4.9172 0
M  V30 1469 C 139.489 -4.34821 4.29388 0
M  V30 1470 C 140.487 -4.35116 5.26463 0
M  V30 1471 O 140.175 -4.64267 6.56286 0
M  V30 1472 H 139.907 -0.606894 0.297751 0
M  V30 1473 H 142.461 -1.46438 1.44031 0
M  V30 1474 H 140.691 -3.8358 0.490214 0
M  V30 1475 H 142.38 -3.96018 0.890193 0
M  V30 1476 H 143.146 -3.52176 3.33462 0
M  V30 1477 H 139.025 -4.03876 2.22273 0
M  V30 1478 H 142.569 -4.05719 5.67484 0
M  V30 1479 H 138.466 -4.5748 4.55392 0
M  V30 1480 H 139.234 -4.82007 6.61522 0
M  V30 1481 N 141.898 -0.863906 -1.31812 0
M  V30 1482 C 143.128 -0.485406 -2.00817 0
M  V30 1483 C 143.536 0.925007 -1.65046 0
M  V30 1484 O 142.879 1.61653 -0.872574 0
M  V30 1485 C 142.941 -0.555589 -3.55181 0
M  V30 1486 C 142.605 -1.92654 -4.14407 0
M  V30 1487 C 143.602 -2.89324 -4.31958 0
M  V30 1488 C 141.287 -2.2262 -4.50273 0
M  V30 1489 C 143.281 -4.14108 -4.84555 0
M  V30 1490 C 140.968 -3.47654 -5.02573 0
M  V30 1491 C 141.966 -4.43214 -5.19664 0
M  V30 1492 O 141.654 -5.66033 -5.70843 0
M  V30 1493 H 141.386 -0.188224 -0.649267 0
M  V30 1494 H 143.94 -1.16514 -1.69156 0
M  V30 1495 H 142.17 0.181037 -3.86276 0
M  V30 1496 H 143.859 -0.19138 -4.05449 0
M  V30 1497 H 144.625 -2.6748 -4.04573 0
M  V30 1498 H 140.504 -1.4902 -4.3625 0
M  V30 1499 H 144.048 -4.88703 -4.9781 0
M  V30 1500 H 139.945 -3.69345 -5.29391 0
M  V30 1501 H 140.713 -5.6812 -5.89222 0
M  V30 1502 N 143.376 1.44774 -0.622745 0
M  V30 1503 C 144.653 1.95522 -0.0551974 0
M  V30 1504 C 145.033 1.5649 1.41683 0
M  V30 1505 O 144.381 0.834848 2.12703 0
M  V30 1506 C 144.591 3.4796 -0.269242 0
M  V30 1507 C 145.939 4.24306 -0.158014 0
M  V30 1508 O 146.963 3.55637 -0.200162 0
M  V30 1509 O 145.822 5.46471 -0.0558693 0
M  V30 1510 H 142.916 0.826556 0.0271015 0
M  V30 1511 H 145.462 1.54866 -0.693864 0
M  V30 1512 H 144.234 3.6939 -1.29099 0
M  V30 1513 H 143.857 3.95543 0.403966 0
M  V30 1514 N 144.854 0.36279 1.53368 0
M  V30 1515 C 145.802 -0.500155 2.27159 0
M  V30 1516 C 146.796 -1.08575 1.3003 0
M  V30 1517 O 148.002 -1.02927 1.47668 0
M  V30 1518 H 144.377 -0.180009 0.730138 0
M  V30 1519 H 146.348 0.14401 2.98052 0
M  V30 1520 C 145.097 -1.62937 3.07159 0
M  V30 1521 H 144.42 -1.18806 3.8174 0
M  V30 1522 H 145.86 -2.20795 3.61975 0
M  V30 1523 C 144.319 -2.57007 2.17829 0
M  V30 1524 O 144.849 -3.59752 1.78721 0
M  V30 1525 N 143.055 -2.26131 1.82518 0
M  V30 1526 H 142.602 -1.42616 2.14519 0
M  V30 1527 H 142.56 -2.89327 1.23034 0
M  V30 1528 N 146.332 -1.57332 0.0918853 0
M  V30 1529 C 147.28 -2.15075 -0.885747 0
M  V30 1530 C 148.274 -1.09277 -1.29441 0
M  V30 1531 O 149.48 -1.27627 -1.26931 0
M  V30 1532 H 145.855 -0.687966 -0.303656 0
M  V30 1533 H 147.826 -2.96047 -0.373995 0
M  V30 1534 C 146.575 -2.74325 -2.13638 0
M  V30 1535 H 145.898 -3.55418 -1.8308 0
M  V30 1536 H 147.338 -3.183 -2.80109 0
M  V30 1537 C 145.797 -1.70062 -2.90827 0
M  V30 1538 O 146.327 -1.13763 -3.85254 0
M  V30 1539 N 144.533 -1.40628 -2.54307 0
M  V30 1540 H 144.08 -1.866 -1.7759 0
M  V30 1541 H 144.038 -0.711043 -3.06254 0
M  V30 1542 N 147.81 0.181792 -1.56548 0
M  V30 1543 C 149.056 0.901431 -1.81665 0
M  V30 1544 C 149.389 1.82347 -0.668075 0
M  V30 1545 O 148.664 1.91669 0.330615 0
M  V30 1546 C 148.947 1.70618 -3.17115 0
M  V30 1547 C 148.8 0.807964 -4.42484 0
M  V30 1548 C 150.119 2.67605 -3.49393 0
M  V30 1549 H 147.238 0.32627 -0.660846 0
M  V30 1550 H 149.88 0.168134 -1.89255 0
M  V30 1551 H 148.03 2.33133 -3.10775 0
M  V30 1552 H 149.702 0.19649 -4.60881 0
M  V30 1553 H 147.945 0.115411 -4.33646 0
M  V30 1554 H 148.616 1.40632 -5.33785 0
M  V30 1555 H 151.092 2.15218 -3.56118 0
M  V30 1556 H 149.968 3.20985 -4.45264 0
M  V30 1557 H 150.229 3.47298 -2.73563 0
M  V30 1558 N 149.288 1.51039 0.449983 0
M  V30 1559 C 150.236 1.71995 1.5659 0
M  V30 1560 C 151.23 0.586029 1.5894 0
M  V30 1561 O 152.436 0.76709 1.62837 0
M  V30 1562 H 148.811 0.543233 0.520001 0
M  V30 1563 H 150.782 2.65562 1.36085 0
M  V30 1564 C 149.531 1.8506 2.9436 0
M  V30 1565 H 148.854 2.71712 2.93279 0
M  V30 1566 H 150.294 2.0374 3.71842 0
M  V30 1567 C 148.753 0.607277 3.31382 0
M  V30 1568 O 149.283 -0.243903 4.00959 0
M  V30 1569 N 147.489 0.455073 2.87015 0
M  V30 1570 H 147.036 1.14879 2.30566 0
M  V30 1571 H 146.994 -0.375611 3.12148 0
M  V30 1572 N 150.766 -0.704594 1.40972 0
M  V30 1573 C 152.014 -1.46169 1.39568 0
M  V30 1574 C 152.335 -1.95 0.00253745 0
M  V30 1575 O 151.605 -1.71095 -0.954114 0
M  V30 1576 H 150.185 -0.542326 0.513704 0
M  V30 1577 H 152.847 -0.834553 1.76128 0
M  V30 1578 H 151.943 -2.32922 2.07735 0
M  V30 1579 N 152.244 -1.26651 -0.937939 0
M  V30 1580 C 153.472 -1.15173 -1.7188 0
M  V30 1581 C 153.887 0.292668 -1.86518 0
M  V30 1582 O 153.244 1.20014 -1.37488 0
M  V30 1583 C 153.295 -1.81925 -3.12387 0
M  V30 1584 O 153.016 -3.2072 -2.98446 0
M  V30 1585 C 154.517 -1.76442 -4.06673 0
M  V30 1586 H 151.737 -0.400911 -0.538063 0
M  V30 1587 H 154.281 -1.67332 -1.1756 0
M  V30 1588 H 152.436 -1.33696 -3.63599 0
M  V30 1589 H 152.85 -3.53802 -3.872 0
M  V30 1590 H 154.324 -2.27781 -5.02812 0
M  V30 1591 H 154.801 -0.731608 -4.33064 0
M  V30 1592 H 155.407 -2.24238 -3.61382 0
M  V30 1593 N 153.722 1.14298 -1.08507 0
M  V30 1594 C 154.652 2.21542 -0.737646 0
M  V30 1595 C 155.633 1.67773 0.280377 0
M  V30 1596 O 156.818 1.93616 0.150521 0
M  V30 1597 C 153.948 3.46988 -0.147259 0
M  V30 1598 C 152.902 4.13789 -1.09374 0
M  V30 1599 C 152.228 5.33449 -0.365524 0
M  V30 1600 C 153.528 4.62208 -2.4323 0
M  V30 1601 H 155.222 2.5086 -1.6343 0
M  V30 1602 H 152.768 1.20576 -0.787243 0
M  V30 1603 H 154.721 4.21262 0.107808 0
M  V30 1604 H 153.445 3.17037 0.784538 0
M  V30 1605 H 152.104 3.4147 -1.33393 0
M  V30 1606 H 151.752 4.99759 0.57011 0
M  V30 1607 H 151.452 5.79088 -0.996512 0
M  V30 1608 H 152.976 6.10485 -0.118534 0
M  V30 1609 H 154.39 5.27952 -2.23472 0
M  V30 1610 H 152.787 5.18553 -3.02031 0
M  V30 1611 H 153.857 3.77224 -3.04681 0
M  V30 1612 N 155.201 0.870884 1.31352 0
M  V30 1613 C 156.617 0.562932 1.49343 0
M  V30 1614 C 156.817 -0.902725 1.80148 0
M  V30 1615 O 155.873 -1.68484 1.88067 0
M  V30 1616 C 157.186 1.46393 2.62659 0
M  V30 1617 C 158.734 1.46607 2.76542 0
M  V30 1618 C 159.209 2.35266 3.92955 0
M  V30 1619 N 160.7 2.33151 4.00243 0
M  V30 1620 C 161.435 2.98471 4.89594 0
M  V30 1621 N 160.931 3.72964 5.8384 0
M  V30 1622 N 162.724 2.87775 4.82848 0
M  V30 1623 H 154.875 1.81923 1.09626 0
M  V30 1624 H 157.138 0.777934 0.541777 0
M  V30 1625 H 156.844 2.50689 2.46674 0
M  V30 1626 H 156.718 1.16314 3.58819 0
M  V30 1627 H 159.105 0.43069 2.9194 0
M  V30 1628 H 159.186 1.8071 1.81046 0
M  V30 1629 H 158.83 3.38881 3.78315 0
M  V30 1630 H 158.76 1.98487 4.87761 0
M  V30 1631 H 161.251 1.79006 3.32814 0
M  V30 1632 H 161.564 4.19932 6.4875 0
M  V30 1633 H 159.909 3.77073 5.83816 0
M  V30 1634 H 163.1 2.29116 4.08195 0
M  V30 1635 H 163.273 3.38961 5.52277 0
M  V30 1636 N 156.679 -1.44442 0.630414 0
M  V30 1637 C 157.609 -2.33418 -0.0618083 0
M  V30 1638 C 158.59 -1.48165 -0.835541 0
M  V30 1639 O 159.775 -1.76886 -0.801564 0
M  V30 1640 C 156.905 -3.31222 -1.04449 0
M  V30 1641 C 155.859 -4.26288 -0.382436 0
M  V30 1642 C 155.185 -5.13954 -1.47497 0
M  V30 1643 C 156.485 -5.1744 0.710865 0
M  V30 1644 H 158.179 -2.91548 0.681184 0
M  V30 1645 H 155.725 -1.40191 0.329026 0
M  V30 1646 H 157.678 -3.92351 -1.53748 0
M  V30 1647 H 156.402 -2.71299 -1.81836 0
M  V30 1648 H 155.061 -3.6649 0.0899054 0
M  V30 1649 H 154.709 -4.50385 -2.2397 0
M  V30 1650 H 154.409 -5.7837 -1.03737 0
M  V30 1651 H 155.933 -5.77955 -1.96979 0
M  V30 1652 H 157.347 -5.72509 0.300996 0
M  V30 1653 H 155.744 -5.90455 1.07156 0
M  V30 1654 H 156.814 -4.58496 1.57829 0
M  V30 1655 N 158.157 -0.370918 -1.53173 0
M  V30 1656 C 159.406 0.218249 -2.00516 0
M  V30 1657 C 159.719 1.49429 -1.26215 0
M  V30 1658 O 160.925 2.16239 -1.64174 0
M  V30 1659 C 159.381 0.43948 -3.57207 0
M  V30 1660 C 158.989 -0.822244 -4.4039 0
M  V30 1661 C 160.733 0.986012 -4.1289 0
M  V30 1662 C 158.64 -0.570304 -5.88644 0
M  V30 1663 H 157.57 0.0853333 -0.749156 0
M  V30 1664 H 160.221 -0.490483 -1.76823 0
M  V30 1665 H 158.603 1.20961 -3.77074 0
M  V30 1666 H 159.777 -1.59557 -4.32294 0
M  V30 1667 H 158.092 -1.29238 -3.95836 0
M  V30 1668 H 160.689 1.18991 -5.21292 0
M  V30 1669 H 161.032 1.94972 -3.6782 0
M  V30 1670 H 161.565 0.27592 -3.96842 0
M  V30 1671 H 158.304 -1.50449 -6.38001 0
M  V30 1672 H 157.824 0.164427 -5.99575 0
M  V30 1673 H 159.503 -0.19784 -6.46697 0
M  V30 1674 N 159.635 1.57281 -0.100228 0
M  V30 1675 C 160.86 1.99302 0.573881 0
M  V30 1676 C 161.285 0.979059 1.60611 0
M  V30 1677 O 160.643 -0.0517803 1.81226 0
M  V30 1678 C 160.691 3.40274 1.19358 0
M  V30 1679 O 159.795 3.41676 2.30935 0
M  V30 1680 H 159.136 0.647944 0.145138 0
M  V30 1681 H 161.666 2.03779 -0.183156 0
M  V30 1682 H 161.676 3.78078 1.53365 0
M  V30 1683 H 160.351 4.13594 0.437385 0
M  V30 1684 H 158.928 3.15672 1.98509 0
M  V30 1685 N 161.113 -0.173488 1.56642 0
M  V30 1686 C 162.076 -1.19859 1.95362 0
M  V30 1687 C 163.076 -1.37296 0.83704 0
M  V30 1688 O 164.266 -1.34739 1.10413 0
M  V30 1689 C 161.398 -2.56405 2.24654 0
M  V30 1690 H 162.591 -0.867062 2.87092 0
M  V30 1691 H 160.144 -0.415853 1.50666 0
M  V30 1692 H 160.879 -2.94576 1.35631 0
M  V30 1693 H 160.664 -2.45115 3.06041 0
M  V30 1694 H 162.154 -3.30287 2.5554 0
M  V30 1695 N 162.591 -1.51276 -0.441967 0
M  V30 1696 C 163.524 -1.66933 -1.55591 0
M  V30 1697 C 164.502 -0.516958 -1.54163 0
M  V30 1698 O 165.686 -0.740209 -1.73358 0
M  V30 1699 C 162.813 -1.67866 -2.94174 0
M  V30 1700 C 161.859 -2.89013 -3.13646 0
M  V30 1701 S 162.692 -4.49897 -2.90436 0
M  V30 1702 C 163.848 -4.53568 -4.31308 0
M  V30 1703 H 164.081 -2.61155 -1.42076 0
M  V30 1704 H 161.614 -1.40902 -0.631341 0
M  V30 1705 H 163.572 -1.69089 -3.74058 0
M  V30 1706 H 162.233 -0.748296 -3.05056 0
M  V30 1707 H 161.426 -2.86054 -4.14957 0
M  V30 1708 H 161.028 -2.85509 -2.4158 0
M  V30 1709 H 163.32 -4.28924 -5.24434 0
M  V30 1710 H 164.263 -5.55355 -4.39303 0
M  V30 1711 H 164.671 -3.82943 -4.14747 0
M  V30 1712 N 164.069 0.697108 -1.41344 0
M  V30 1713 C 165.485 1.00751 -1.2378 0
M  V30 1714 C 165.685 2.01105 -0.126066 0
M  V30 1715 O 164.741 2.47295 0.51004 0
M  V30 1716 C 166.054 1.53359 -2.58653 0
M  V30 1717 C 167.602 1.6525 -2.65822 0
M  V30 1718 C 168.077 2.2126 -4.01009 0
M  V30 1719 N 169.568 2.28622 -4.02847 0
M  V30 1720 C 170.303 2.72984 -5.04249 0
M  V30 1721 N 169.799 3.16962 -6.16041 0
M  V30 1722 N 171.592 2.72534 -4.91611 0
M  V30 1723 H 163.743 0.0322662 -2.12375 0
M  V30 1724 H 166.006 0.0768853 -0.944877 0
M  V30 1725 H 165.712 0.870773 -3.4075 0
M  V30 1726 H 165.586 2.51597 -2.81032 0
M  V30 1727 H 167.973 2.30644 -1.84086 0
M  V30 1728 H 168.054 0.655614 -2.47256 0
M  V30 1729 H 167.698 1.56482 -4.83193 0
M  V30 1730 H 167.628 3.21698 -4.16915 0
M  V30 1731 H 170.119 1.97585 -3.22131 0
M  V30 1732 H 170.432 3.49434 -6.89287 0
M  V30 1733 H 168.777 3.14875 -6.1958 0
M  V30 1734 H 171.968 2.37525 -4.0336 0
M  V30 1735 H 172.141 3.06789 -5.70775 0
M  V30 1736 N 165.547 1.27147 0.931209 0
M  V30 1737 C 166.51 1.09615 2.01289 0
M  V30 1738 C 167.51 0.0412581 1.60747 0
M  V30 1739 O 168.7 0.285545 1.71844 0
M  V30 1740 C 165.832 0.669447 3.34262 0
M  V30 1741 H 167.025 2.05662 2.18273 0
M  V30 1742 H 164.578 1.09885 1.11153 0
M  V30 1743 H 165.313 -0.292572 3.22978 0
M  V30 1744 H 165.098 1.43127 3.65044 0
M  V30 1745 H 166.588 0.568921 4.13706 0
M  V30 1746 N 167.025 -1.13721 1.09112 0
M  V30 1747 C 167.988 -2.17222 0.731241 0
M  V30 1748 C 168.988 -1.59035 -0.237566 0
M  V30 1749 O 170.178 -1.74192 -0.0161704 0
M  V30 1750 C 167.31 -3.40804 0.0808443 0
M  V30 1751 H 168.503 -2.50573 1.64783 0
M  V30 1752 H 166.056 -1.28493 0.889897 0
M  V30 1753 H 166.791 -3.1304 -0.847127 0
M  V30 1754 H 166.576 -3.84306 0.777896 0
M  V30 1755 H 168.066 -4.1731 -0.155657 0
M  V30 1756 N 168.503 -0.877838 -1.30888 0
M  V30 1757 C 169.451 -0.328662 -2.30266 0
M  V30 1758 C 170.445 0.560496 -1.59859 0
M  V30 1759 O 171.651 0.445722 -1.74394 0
M  V30 1760 H 168.026 -0.0876142 -0.746879 0
M  V30 1761 H 169.997 -1.18061 -2.74051 0
M  V30 1762 C 168.746 0.448071 -3.44801 0
M  V30 1763 H 168.069 -0.226859 -3.99156 0
M  V30 1764 H 169.509 0.797541 -4.16432 0
M  V30 1765 C 167.968 1.64239 -2.94155 0
M  V30 1766 O 168.498 2.74175 -2.93583 0
M  V30 1767 N 166.704 1.47716 -2.50256 0
M  V30 1768 H 166.251 0.582821 -2.5092 0
M  V30 1769 H 166.209 2.27765 -2.16727 0
M  V30 1770 N 169.982 1.44106 -0.638065 0
M  V30 1771 C 171.228 2.02277 -0.145546 0
M  V30 1772 C 171.561 1.50125 1.23191 0
M  V30 1773 O 170.836 0.688133 1.8192 0
M  V30 1774 C 171.119 3.59829 -0.139791 0
M  V30 1775 C 170.972 4.22247 -1.55008 0
M  V30 1776 C 172.291 4.36873 0.531966 0
M  V30 1777 H 169.41 0.734992 -0.0543632 0
M  V30 1778 H 172.052 1.71592 -0.815863 0
M  V30 1779 H 170.202 3.86102 0.431007 0
M  V30 1780 H 171.874 4.07057 -2.1703 0
M  V30 1781 H 170.117 3.79476 -2.10191 0
M  V30 1782 H 170.788 5.31284 -1.49804 0
M  V30 1783 H 173.264 4.16074 0.0464781 0
M  V30 1784 H 172.14 5.4657 0.505206 0
M  V30 1785 H 172.401 4.11995 1.60352 0
M  V30 1786 N 171.46 0.379036 1.52974 0
M  V30 1787 C 172.407 -0.461048 2.26148 0
M  V30 1788 C 173.377 -1.06637 1.27349 0
M  V30 1789 O 174.562 -1.09633 1.56157 0
M  V30 1790 C 171.702 -1.58782 3.06402 0
M  V30 1791 C 170.815 -1.00636 4.20115 0
M  V30 1792 C 169.95 -2.10334 4.87784 0
M  V30 1793 C 168.989 -1.49724 5.93506 0
M  V30 1794 N 168.126 -2.5331 6.54812 0
M  V30 1795 H 172.966 0.169429 2.97518 0
M  V30 1796 H 170.503 0.0953806 1.4679 0
M  V30 1797 H 172.461 -2.25174 3.51215 0
M  V30 1798 H 171.091 -2.18876 2.37261 0
M  V30 1799 H 170.143 -0.232332 3.7969 0
M  V30 1800 H 171.455 -0.523343 4.96047 0
M  V30 1801 H 170.609 -2.84519 5.35849 0
M  V30 1802 H 169.348 -2.61992 4.11353 0
M  V30 1803 H 168.353 -0.740598 5.44789 0
M  V30 1804 H 169.578 -0.988732 6.71864 0
M  V30 1805 H 167.524 -3.04156 5.81227 0
M  V30 1806 H 167.441 -2.09734 7.26325 0
M  V30 1807 H 168.709 -3.27155 7.07524 0
M  V30 1808 N 172.938 -1.57226 0.108567 0
M  V30 1809 C 173.886 -2.16002 -0.862885 0
M  V30 1810 C 174.88 -1.10644 -1.28274 0
M  V30 1811 O 176.086 -1.28966 -1.2557 0
M  V30 1812 H 172.461 -0.691148 -0.296342 0
M  V30 1813 H 174.432 -2.96427 -0.342575 0
M  V30 1814 C 173.181 -2.76576 -2.10716 0
M  V30 1815 H 172.504 -3.5734 -1.793 0
M  V30 1816 H 173.944 -3.21253 -2.76717 0
M  V30 1817 C 172.403 -1.73137 -2.89007 0
M  V30 1818 O 172.933 -1.17842 -3.84026 0
M  V30 1819 N 171.139 -1.43317 -2.52801 0
M  V30 1820 H 170.686 -1.88473 -1.75601 0
M  V30 1821 H 170.644 -0.743485 -3.05483 0
M  V30 1822 N 174.416 0.165178 -1.56732 0
M  V30 1823 C 175.663 0.880807 -1.8234 0
M  V30 1824 C 175.991 1.81977 -0.686621 0
M  V30 1825 O 175.246 1.92971 0.325697 0
M  V30 1826 C 175.545 1.70405 -3.1416 0
M  V30 1827 C 175.211 0.913475 -4.4155 0
M  V30 1828 C 173.873 0.695303 -4.7615 0
M  V30 1829 C 176.225 0.359349 -5.1996 0
M  V30 1830 C 173.553 -0.0879947 -5.86634 0
M  V30 1831 C 175.905 -0.410893 -6.31264 0
M  V30 1832 C 174.569 -0.639808 -6.64427 0
M  V30 1833 H 173.839 0.32231 -0.667231 0
M  V30 1834 H 176.486 0.145402 -1.90947 0
M  V30 1835 H 174.791 2.50903 -3.00923 0
M  V30 1836 H 176.488 2.26091 -3.31186 0
M  V30 1837 H 173.078 1.09357 -4.14414 0
M  V30 1838 H 177.262 0.515228 -4.93618 0
M  V30 1839 H 172.518 -0.27503 -6.10781 0
M  V30 1840 H 176.692 -0.847494 -6.91224 0
M  V30 1841 H 174.319 -1.24864 -7.49875 0
M  V30 1842 N 175.894 1.51508 0.433938 0
M  V30 1843 C 177.143 1.63578 1.18005 0
M  V30 1844 C 177.456 0.359514 1.92268 0
M  V30 1845 O 178.662 0.359632 2.69108 0
M  V30 1846 C 177.118 2.88901 2.14626 0
M  V30 1847 C 176.726 4.23544 1.45995 0
M  V30 1848 C 178.47 3.10328 2.89649 0
M  V30 1849 C 176.377 5.40014 2.4112 0
M  V30 1850 H 175.307 0.609277 0.444182 0
M  V30 1851 H 177.958 1.77978 0.446773 0
M  V30 1852 H 176.34 2.68142 2.91403 0
M  V30 1853 H 177.514 4.54696 0.747532 0
M  V30 1854 H 175.829 4.08021 0.831115 0
M  V30 1855 H 178.426 3.94518 3.60915 0
M  V30 1856 H 178.769 2.23544 3.51189 0
M  V30 1857 H 179.302 3.31443 2.19978 0
M  V30 1858 H 176.041 6.29068 1.84264 0
M  V30 1859 H 175.561 5.13233 3.10406 0
M  V30 1860 H 177.24 5.72099 3.02177 0
M  V30 1861 N 177.372 -0.689602 1.41712 0
M  V30 1862 C 178.619 -1.44966 1.4139 0
M  V30 1863 C 178.947 -1.94484 0.025105 0
M  V30 1864 O 178.202 -1.70307 -0.964048 0
M  V30 1865 C 178.501 -2.67298 2.37247 0
M  V30 1866 C 178.167 -2.36405 3.83958 0
M  V30 1867 C 176.829 -2.27691 4.23923 0
M  V30 1868 C 179.181 -2.11043 4.76561 0
M  V30 1869 C 176.509 -1.91719 5.54492 0
M  V30 1870 C 178.861 -1.76578 6.07456 0
M  V30 1871 C 177.525 -1.66363 6.46436 0
M  V30 1872 H 176.795 -0.53047 0.517381 0
M  V30 1873 H 179.442 -0.787655 1.74552 0
M  V30 1874 H 177.747 -3.38461 1.9736 0
M  V30 1875 H 179.444 -3.25452 2.34269 0
M  V30 1876 H 176.034 -2.44085 3.52308 0
M  V30 1877 H 180.218 -2.16717 4.46483 0
M  V30 1878 H 175.474 -1.82367 5.83568 0
M  V30 1879 H 179.648 -1.55974 6.78708 0
M  V30 1880 H 177.275 -1.38258 7.47522 0
M  V30 1881 N 178.85 -1.27639 -0.924453 0
M  V30 1882 C 180.075 -1.17101 -1.71179 0
M  V30 1883 C 180.5 0.268134 -1.86179 0
M  V30 1884 O 179.858 1.19415 -1.36418 0
M  V30 1885 C 179.906 -1.86313 -3.08739 0
M  V30 1886 O 179.01 -1.16331 -3.95652 0
M  V30 1887 H 178.351 -0.407091 -0.524569 0
M  V30 1888 H 180.881 -1.68767 -1.15666 0
M  V30 1889 H 180.891 -1.938 -3.59034 0
M  V30 1890 H 179.566 -2.91001 -2.97138 0
M  V30 1891 H 178.143 -1.16935 -3.54091 0
M  V30 1892 N 180.328 1.1314 -1.09713 0
M  V30 1893 C 181.553 1.88862 -0.857081 0
M  V30 1894 C 181.978 1.78729 0.586304 0
M  V30 1895 O 181.336 1.13692 1.41222 0
M  V30 1896 C 181.384 3.36325 -1.30069 0
M  V30 1897 O 180.488 4.09815 -0.461007 0
M  V30 1898 H 179.829 0.587108 -0.310162 0
M  V30 1899 H 182.359 1.43129 -1.46203 0
M  V30 1900 H 182.369 3.87157 -1.28738 0
M  V30 1901 H 181.044 3.43017 -2.35185 0
M  V30 1902 H 179.621 3.68986 -0.538888 0
M  V30 1903 N 181.806 0.884767 1.30421 0
M  V30 1904 C 183.031 0.517288 2.00845 0
M  V30 1905 C 183.456 -0.886779 1.65885 0
M  V30 1906 O 182.814 -1.58768 0.875354 0
M  V30 1907 C 182.862 0.698994 3.5376 0
M  V30 1908 O 181.966 -0.255208 4.1161 0
M  V30 1909 H 181.307 0.203872 0.631927 0
M  V30 1910 H 183.837 1.19225 1.66272 0
M  V30 1911 H 183.847 0.597912 4.03595 0
M  V30 1912 H 182.522 1.72271 3.78544 0
M  V30 1913 H 181.099 -0.10784 3.72744 0
M  V30 1914 N 183.284 -1.43765 0.645699 0
M  V30 1915 C 184.247 -2.29163 -0.0409488 0
M  V30 1916 C 185.247 -1.41813 -0.757996 0
M  V30 1917 O 186.437 -1.63527 -0.600382 0
M  V30 1918 C 183.569 -3.23716 -1.06869 0
M  V30 1919 H 184.762 -2.91366 0.710345 0
M  V30 1920 H 182.315 -1.5092 0.406547 0
M  V30 1921 H 183.05 -2.66393 -1.84947 0
M  V30 1922 H 182.835 -3.88105 -0.558277 0
M  V30 1923 H 184.325 -3.87831 -1.54845 0
M  V30 1924 N 184.763 -0.387143 -1.52771 0
M  V30 1925 C 185.991 0.195869 -2.05971 0
M  V30 1926 C 186.406 1.40691 -1.25903 0
M  V30 1927 O 185.763 1.79931 -0.305134 0
M  V30 1928 C 185.814 0.56812 -3.57008 0
M  V30 1929 O 185.535 -0.594803 -4.34043 0
M  V30 1930 C 187.036 1.20723 -4.26545 0
M  V30 1931 H 184.256 0.0300578 -0.670326 0
M  V30 1932 H 186.8 -0.551749 -1.96916 0
M  V30 1933 H 184.955 1.26564 -3.66143 0
M  V30 1934 H 185.369 -0.289322 -5.23701 0
M  V30 1935 H 186.843 1.41807 -5.33474 0
M  V30 1936 H 187.32 2.17395 -3.81623 0
M  V30 1937 H 187.926 0.550535 -4.21722 0
M  V30 1938 N 186.241 1.57166 -0.116904 0
M  V30 1939 C 187.487 1.95412 0.542405 0
M  V30 1940 C 187.82 1.00019 1.66463 0
M  V30 1941 O 187.095 0.0370346 1.94465 0
M  V30 1942 C 187.378 3.43615 1.07708 0
M  V30 1943 C 187.231 4.49781 -0.0415868 0
M  V30 1944 C 188.55 3.93616 1.96861 0
M  V30 1945 H 185.669 0.710543 0.195696 0
M  V30 1946 H 188.311 1.89027 -0.192038 0
M  V30 1947 H 186.461 3.49187 1.70296 0
M  V30 1948 H 188.133 4.56308 -0.676793 0
M  V30 1949 H 186.376 4.28033 -0.705019 0
M  V30 1950 H 187.047 5.50733 0.373717 0
M  V30 1951 H 189.523 3.90335 1.44146 0
M  V30 1952 H 188.399 4.97838 2.3119 0
M  V30 1953 H 188.66 3.34188 2.89432 0
M  V30 1954 N 187.719 -0.156864 1.56817 0
M  V30 1955 C 188.949 -0.885031 1.86684 0
M  V30 1956 C 189.357 -1.75696 0.701954 0
M  V30 1957 O 188.7 -1.80569 -0.337732 0
M  V30 1958 C 188.762 -1.80092 3.11138 0
M  V30 1959 C 188.426 -1.10714 4.43386 0
M  V30 1960 C 189.423 -0.465714 5.1781 0
M  V30 1961 C 187.108 -1.09959 4.90117 0
M  V30 1962 C 189.102 0.174002 6.37162 0
M  V30 1963 C 186.789 -0.456055 6.09396 0
M  V30 1964 C 187.787 0.179622 6.82764 0
M  V30 1965 O 187.475 0.812975 7.99779 0
M  V30 1966 H 187.207 -0.261813 0.623242 0
M  V30 1967 H 189.761 -0.157383 2.04796 0
M  V30 1968 H 187.991 -2.56926 2.89009 0
M  V30 1969 H 189.68 -2.40018 3.27332 0
M  V30 1970 H 190.446 -0.463427 4.82781 0
M  V30 1971 H 186.325 -1.58378 4.3294 0
M  V30 1972 H 189.869 0.670765 6.94368 0
M  V30 1973 H 185.766 -0.455975 6.43888 0
M  V30 1974 H 186.534 0.71366 8.15383 0
M  V30 1975 N 189.197 -1.51736 -0.425897 0
M  V30 1976 C 190.445 -1.64644 -1.17204 0
M  V30 1977 C 190.766 -0.370486 -1.91448 0
M  V30 1978 O 190.036 0.614088 -1.86026 0
M  V30 1979 H 188.616 -0.606819 -0.435638 0
M  V30 1980 H 191.278 -1.88713 -0.487177 0
M  V30 1981 H 190.374 -2.47958 -1.89534 0
M  V30 1982 N 190.675 0.682077 -1.42076 0
M  V30 1983 C 191.952 1.43755 -1.32642 0
M  V30 1984 C 192.332 2.11063 0.0396611 0
M  V30 1985 O 191.68 2.02701 1.05474 0
M  V30 1986 C 191.89 2.44596 -2.48946 0
M  V30 1987 C 193.238 3.09454 -2.9073 0
M  V30 1988 O 194.262 2.54922 -2.48783 0
M  V30 1989 O 193.121 4.08253 -3.63307 0
M  V30 1990 H 190.215 0.640857 -0.522715 0
M  V30 1991 H 192.761 0.711415 -1.54068 0
M  V30 1992 H 191.533 1.93609 -3.40046 0
M  V30 1993 H 191.156 3.24701 -2.29467 0
M  V30 1994 N 192.153 1.28127 0.917671 0
M  V30 1995 C 193.085 1.07517 2.02417 0
M  V30 1996 C 194.098 0.0281099 1.62776 0
M  V30 1997 O 195.287 0.270748 1.76435 0
M  V30 1998 C 192.387 0.610957 3.33347 0
M  V30 1999 C 191.56 1.73255 4.01624 0
M  V30 2000 C 190.619 1.26238 5.10833 0
M  V30 2001 O 189.645 1.96389 5.34247 0
M  V30 2002 N 190.847 0.123448 5.80369 0
M  V30 2003 H 193.612 2.02806 2.20658 0
M  V30 2004 H 191.173 1.19827 1.08871 0
M  V30 2005 H 193.165 0.280101 4.0373 0
M  V30 2006 H 191.735 -0.24898 3.11607 0
M  V30 2007 H 190.955 2.23319 3.24842 0
M  V30 2008 H 192.243 2.48503 4.43986 0
M  V30 2009 H 191.641 -0.461847 5.63812 0
M  V30 2010 H 190.198 -0.148158 6.51632 0
M  V30 2011 N 193.631 -1.12557 1.10312 0
M  V30 2012 C 195.042 -1.65574 0.862678 0
M  V30 2013 C 195.393 -1.86566 -0.607256 0
M  V30 2014 O 194.518 -1.59121 -1.46662 0
M  V30 2015 C 195.113 -3.00776 1.55947 0
M  V30 2016 C 193.672 -3.50748 1.36576 0
M  V30 2017 C 192.819 -2.25797 1.60968 0
M  V30 2018 H 195.77 -0.963552 1.26101 0
M  V30 2019 H 195.791 -3.67185 0.997753 0
M  V30 2020 H 195.303 -2.85465 2.62928 0
M  V30 2021 H 193.404 -3.71245 0.317531 0
M  V30 2022 H 193.517 -4.30289 2.10686 0
M  V30 2023 H 191.881 -2.32841 1.03234 0
M  V30 2024 H 192.664 -2.13043 2.69198 0
M  V30 2025 N 195.109 -0.891671 -1.2995 0
M  V30 2026 C 196.056 -0.361736 -2.27948 0
M  V30 2027 C 197.026 0.551761 -1.56668 0
M  V30 2028 O 198.211 0.478736 -1.84696 0
M  V30 2029 C 195.351 0.411825 -3.42634 0
M  V30 2030 C 194.464 -0.531651 -4.28716 0
M  V30 2031 C 193.599 0.258167 -5.30572 0
M  V30 2032 C 192.638 -0.680349 -6.08307 0
M  V30 2033 N 191.775 0.0745613 -7.0206 0
M  V30 2034 H 196.615 -1.20254 -2.72659 0
M  V30 2035 H 194.152 -0.604352 -1.34112 0
M  V30 2036 H 196.11 0.876304 -4.07893 0
M  V30 2037 H 194.74 1.21715 -2.98974 0
M  V30 2038 H 193.792 -1.11463 -3.63703 0
M  V30 2039 H 195.104 -1.25038 -4.82874 0
M  V30 2040 H 194.258 0.784204 -6.0161 0
M  V30 2041 H 192.997 1.01008 -4.77126 0
M  V30 2042 H 192.002 -1.21796 -5.3614 0
M  V30 2043 H 193.227 -1.43145 -6.63842 0
M  V30 2044 H 191.173 0.808883 -6.50994 0
M  V30 2045 H 191.09 -0.584409 -7.53738 0
M  V30 2046 H 192.358 0.581123 -7.77331 0
M  V30 2047 N 196.587 1.43421 -0.653314 0
M  V30 2048 C 197.836 2.01032 -0.164076 0
M  V30 2049 C 198.149 1.52147 1.22926 0
M  V30 2050 O 199.355 2.02031 1.81371 0
M  V30 2051 C 197.811 3.59082 -0.24252 0
M  V30 2052 C 197.419 4.1696 -1.63855 0
M  V30 2053 C 199.163 4.24079 0.18911 0
M  V30 2054 C 197.07 5.67304 -1.67092 0
M  V30 2055 H 196 0.751798 -0.0575769 0
M  V30 2056 H 198.651 1.6439 -0.815362 0
M  V30 2057 H 197.033 3.93125 0.476276 0
M  V30 2058 H 198.207 3.94416 -2.38271 0
M  V30 2059 H 196.522 3.64335 -2.01616 0
M  V30 2060 H 199.119 5.34381 0.184775 0
M  V30 2061 H 199.462 3.98005 1.22056 0
M  V30 2062 H 199.995 3.94918 -0.477938 0
M  V30 2063 H 196.734 5.98145 -2.68146 0
M  V30 2064 H 196.254 5.91904 -0.970014 0
M  V30 2065 H 197.933 6.31344 -1.4147 0
M  V30 2066 N 198.065 0.39524 1.52563 0
M  V30 2067 C 199.476 -0.0774719 1.86539 0
M  V30 2068 C 199.827 -1.45641 1.31466 0
M  V30 2069 O 198.952 -2.06459 0.648367 0
M  V30 2070 C 199.547 -0.147356 3.38479 0
M  V30 2071 C 198.106 -0.564373 3.72145 0
M  V30 2072 C 197.253 0.269919 2.75983 0
M  V30 2073 H 200.204 0.612876 1.46388 0
M  V30 2074 H 200.225 -0.965343 3.68051 0
M  V30 2075 H 199.737 0.856387 3.78534 0
M  V30 2076 H 197.838 -1.57527 3.37663 0
M  V30 2077 H 197.951 -0.318402 4.78041 0
M  V30 2078 H 196.315 -0.265696 2.5331 0
M  V30 2079 H 197.098 1.27175 3.18875 0
M  V30 2080 N 199.544 -1.57102 0.125237 0
M  V30 2081 C 200.774 -1.99472 -0.538015 0
M  V30 2082 C 201.182 -1.00395 -1.60366 0
M  V30 2083 O 200.525 0.0103875 -1.83697 0
M  V30 2084 C 200.587 -3.38262 -1.21734 0
M  V30 2085 C 200.251 -4.56021 -0.298897 0
M  V30 2086 C 201.248 -5.17817 0.464943 0
M  V30 2087 C 198.933 -5.01869 -0.208149 0
M  V30 2088 C 200.927 -6.23852 1.3072 0
M  V30 2089 C 198.614 -6.07763 0.637736 0
M  V30 2090 C 199.612 -6.68622 1.39403 0
M  V30 2091 O 199.3 -7.7247 2.22586 0
M  V30 2092 H 199.032 -0.659934 -0.146501 0
M  V30 2093 H 201.586 -2.04321 0.210267 0
M  V30 2094 H 199.816 -3.30185 -2.01282 0
M  V30 2095 H 201.505 -3.6488 -1.77813 0
M  V30 2096 H 202.271 -4.83308 0.404741 0
M  V30 2097 H 198.15 -4.54241 -0.786522 0
M  V30 2098 H 201.694 -6.71284 1.898 0
M  V30 2099 H 197.591 -6.41701 0.699309 0
M  V30 2100 H 198.359 -7.89595 2.15596 0
M  V30 2101 N 201.022 0.148545 -1.56898 0
M  V30 2102 C 202.268 0.862694 -1.83536 0
M  V30 2103 C 202.601 1.80889 -0.706604 0
M  V30 2104 O 201.876 1.92328 0.289885 0
M  V30 2105 C 202.159 1.63853 -3.20662 0
M  V30 2106 C 202.012 0.713925 -4.44098 0
M  V30 2107 C 203.331 2.60133 -3.54991 0
M  V30 2108 H 200.45 0.312179 -0.667618 0
M  V30 2109 H 203.092 0.127953 -1.89569 0
M  V30 2110 H 201.242 2.26489 -3.1565 0
M  V30 2111 H 202.914 0.098686 -4.61194 0
M  V30 2112 H 201.157 0.0234019 -4.33794 0
M  V30 2113 H 201.828 1.29278 -5.36648 0
M  V30 2114 H 204.304 2.07616 -3.60603 0
M  V30 2115 H 203.18 3.11468 -4.51972 0
M  V30 2116 H 203.441 3.41417 -2.80868 0
M  V30 2117 N 202.5 1.5196 0.417844 0
M  V30 2118 C 203.41 1.77554 1.53336 0
M  V30 2119 C 204.426 0.660655 1.6097 0
M  V30 2120 O 205.602 0.945099 1.77848 0
M  V30 2121 C 202.667 1.91291 2.89152 0
M  V30 2122 C 201.728 3.15183 2.91475 0
M  V30 2123 C 200.961 3.28256 4.20813 0
M  V30 2124 O 201.184 2.46798 5.14244 0
M  V30 2125 O 200.118 4.21356 4.29817 0
M  V30 2126 H 203.944 2.7222 1.34647 0
M  V30 2127 H 201.529 1.36698 0.602828 0
M  V30 2128 H 203.411 2.02199 3.69721 0
M  V30 2129 H 202.086 0.998129 3.07927 0
M  V30 2130 H 200.993 3.09739 2.09791 0
M  V30 2131 H 202.326 4.06414 2.77648 0
M  V30 2132 N 203.978 -0.674533 1.42435 0
M  V30 2133 C 205.203 -1.46784 1.46524 0
M  V30 2134 C 205.628 -1.87938 0.078066 0
M  V30 2135 O 204.986 -1.56014 -0.92354 0
M  V30 2136 C 205.034 -2.69307 2.39805 0
M  V30 2137 O 204.138 -3.67587 1.86959 0
M  V30 2138 H 203.479 -0.440959 0.496439 0
M  V30 2139 H 206.009 -0.827326 1.87127 0
M  V30 2140 H 206.019 -3.17374 2.56393 0
M  V30 2141 H 204.694 -2.38692 3.40586 0
M  V30 2142 H 203.271 -3.2662 1.79927 0
M  V30 2143 N 205.456 -1.28612 -0.910864 0
M  V30 2144 C 206.703 -1.15934 -1.66029 0
M  V30 2145 C 207.031 0.291483 -1.92303 0
M  V30 2146 O 206.286 1.22816 -1.52364 0
M  V30 2147 C 206.585 -1.90624 -3.0232 0
M  V30 2148 C 206.251 -3.40405 -2.95695 0
M  V30 2149 C 204.913 -3.81255 -2.93595 0
M  V30 2150 C 207.265 -4.359 -2.85728 0
M  V30 2151 C 204.593 -5.15936 -2.79334 0
M  V30 2152 C 206.945 -5.70657 -2.73007 0
M  V30 2153 C 205.609 -6.10779 -2.69267 0
M  V30 2154 H 204.879 -0.424234 -0.607541 0
M  V30 2155 H 207.526 -1.5942 -1.06101 0
M  V30 2156 H 205.831 -1.39696 -3.6605 0
M  V30 2157 H 207.528 -1.78228 -3.59215 0
M  V30 2158 H 204.118 -3.07927 -2.98125 0
M  V30 2159 H 208.302 -4.053 -2.86436 0
M  V30 2160 H 203.558 -5.46146 -2.74835 0
M  V30 2161 H 207.732 -6.44311 -2.64264 0
M  V30 2162 H 205.359 -7.1509 -2.57974 0
M  V30 2163 N 206.934 1.1197 -1.10907 0
M  V30 2164 C 208.345 1.65114 -0.871446 0
M  V30 2165 C 208.696 1.86885 0.597353 0
M  V30 2166 O 207.821 1.59896 1.45816 0
M  V30 2167 C 208.416 2.99944 -1.5754 0
M  V30 2168 C 206.975 3.50018 -1.38435 0
M  V30 2169 C 206.122 2.24941 -1.62164 0
M  V30 2170 H 209.073 0.956851 -1.2661 0
M  V30 2171 H 209.094 3.66651 -1.01721 0
M  V30 2172 H 208.606 2.84067 -2.64438 0
M  V30 2173 H 206.707 3.71071 -0.337214 0
M  V30 2174 H 206.82 4.29165 -2.12965 0
M  V30 2175 H 205.184 2.3229 -1.04467 0
M  V30 2176 H 205.967 2.11612 -2.70324 0
M  V30 2177 N 208.412 0.89855 1.29475 0
M  V30 2178 C 209.64 0.539261 1.99749 0
M  V30 2179 C 210.055 -0.875716 1.67262 0
M  V30 2180 O 209.412 -1.57786 0.917049 0
M  V30 2181 C 209.463 0.72061 3.54245 0
M  V30 2182 O 209.184 2.07989 3.8558 0
M  V30 2183 C 210.685 0.366118 4.41786 0
M  V30 2184 H 207.905 0.207047 0.638258 0
M  V30 2185 H 210.449 1.20758 1.65039 0
M  V30 2186 H 208.604 0.0994862 3.87272 0
M  V30 2187 H 209.018 2.10841 4.80257 0
M  V30 2188 H 210.492 0.543848 5.49314 0
M  V30 2189 H 210.969 -0.696763 4.33638 0
M  V30 2190 H 211.575 0.964135 4.14228 0
M  V30 2191 N 209.89 -1.43072 0.660911 0
M  V30 2192 C 211.138 -2.01323 0.177094 0
M  V30 2193 C 211.459 -1.5245 -1.2159 0
M  V30 2194 O 210.729 -0.740322 -1.81373 0
M  V30 2195 H 209.309 -0.744382 0.0624804 0
M  V30 2196 H 211.971 -1.75179 0.854305 0
M  V30 2197 H 211.067 -3.11649 0.167641 0
M  V30 2198 N 211.368 -0.403325 -1.52352 0
M  V30 2199 C 212.596 0.174012 -2.06167 0
M  V30 2200 C 213.011 1.39347 -1.27388 0
M  V30 2201 O 212.368 1.79597 -0.324201 0
M  V30 2202 C 212.419 0.530223 -3.5759 0
M  V30 2203 O 212.14 -0.640806 -4.33388 0
M  V30 2204 C 213.641 1.16192 -4.27802 0
M  V30 2205 H 210.861 0.0229464 -0.670608 0
M  V30 2206 H 213.405 -0.572604 -1.9632 0
M  V30 2207 H 211.56 1.22673 -3.67464 0
M  V30 2208 H 211.974 -0.344851 -5.23365 0
M  V30 2209 H 213.448 1.36141 -5.34948 0
M  V30 2210 H 213.925 2.13335 -3.83907 0
M  V30 2211 H 214.531 0.505775 -4.22282 0
M  V30 2212 N 212.846 1.57033 -0.133567 0
M  V30 2213 C 214.257 1.82593 0.389464 0
M  V30 2214 C 214.608 1.05156 1.6564 0
M  V30 2215 O 213.733 0.292644 2.14412 0
M  V30 2216 C 214.328 3.31204 0.713377 0
M  V30 2217 C 212.887 3.57393 1.18098 0
M  V30 2218 C 212.034 2.76598 0.197126 0
M  V30 2219 H 214.985 1.54598 -0.358481 0
M  V30 2220 H 215.006 3.46627 1.56939 0
M  V30 2221 H 214.518 3.87537 -0.2089 0
M  V30 2222 H 212.619 3.06433 2.11966 0
M  V30 2223 H 212.732 4.65915 1.11624 0
M  V30 2224 H 211.096 2.45257 0.687088 0
M  V30 2225 H 211.879 3.35697 -0.718504 0
M  V30 2226 N 214.325 -0.140222 1.56975 0
M  V30 2227 C 215.257 -1.19818 1.95388 0
M  V30 2228 C 216.27 -1.38816 0.850525 0
M  V30 2229 O 217.459 -1.38267 1.12891 0
M  V30 2230 C 214.559 -2.56189 2.21857 0
M  V30 2231 C 213.732 -2.58077 3.5315 0
M  V30 2232 C 212.791 -3.76037 3.6808 0
M  V30 2233 O 211.817 -3.60598 4.40406 0
M  V30 2234 N 213.019 -4.93763 3.05251 0
M  V30 2235 H 215.784 -0.871609 2.86746 0
M  V30 2236 H 213.345 -0.32972 1.58507 0
M  V30 2237 H 215.337 -3.33623 2.2908 0
M  V30 2238 H 213.907 -2.81111 1.36731 0
M  V30 2239 H 213.127 -1.6651 3.57307 0
M  V30 2240 H 214.415 -2.56377 4.39486 0
M  V30 2241 H 213.813 -5.09209 2.46419 0
M  V30 2242 H 212.37 -5.68949 3.18026 0
M  V30 2243 N 215.803 -1.52179 -0.40978 0
M  V30 2244 C 217.028 -1.70347 -1.18308 0
M  V30 2245 C 217.453 -0.411887 -1.83535 0
M  V30 2246 O 216.811 0.630587 -1.6998 0
M  V30 2247 C 216.859 -2.83977 -2.22238 0
M  V30 2248 O 215.963 -2.495 -3.28365 0
M  V30 2249 H 215.304 -0.567103 -0.345384 0
M  V30 2250 H 217.834 -1.98879 -0.480445 0
M  V30 2251 H 217.844 -3.0887 -2.66577 0
M  V30 2252 H 216.519 -3.77685 -1.74146 0
M  V30 2253 H 215.096 -2.35277 -2.89308 0
M  V30 2254 N 217.281 0.66697 -1.42791 0
M  V30 2255 C 218.692 1.2478 -1.38877 0
M  V30 2256 C 219.043 1.96012 -0.0859426 0
M  V30 2257 O 218.168 2.00463 0.815081 0
M  V30 2258 C 218.763 2.26938 -2.51564 0
M  V30 2259 C 217.322 2.80529 -2.50959 0
M  V30 2260 C 216.469 1.54965 -2.29959 0
M  V30 2261 H 219.42 0.459853 -1.51892 0
M  V30 2262 H 219.441 3.08834 -2.22265 0
M  V30 2263 H 218.953 1.75065 -3.46372 0
M  V30 2264 H 217.054 3.36502 -1.59991 0
M  V30 2265 H 217.167 3.29012 -3.48265 0
M  V30 2266 H 215.531 1.81817 -1.78366 0
M  V30 2267 H 216.314 1.05047 -3.26833 0
M  V30 2268 N 218.759 1.29093 0.90403 0
M  V30 2269 C 219.989 1.19516 1.68522 0
M  V30 2270 C 220.397 -0.24738 1.87576 0
M  V30 2271 O 219.74 -1.17798 1.40959 0
M  V30 2272 C 219.802 1.83249 3.0929 0
M  V30 2273 C 219.466 3.32531 3.13484 0
M  V30 2274 C 220.463 4.28821 2.93953 0
M  V30 2275 C 218.148 3.73656 3.35688 0
M  V30 2276 C 220.142 5.64212 2.96553 0
M  V30 2277 C 217.829 5.0917 3.37919 0
M  V30 2278 C 218.827 6.04258 3.18373 0
M  V30 2279 O 218.515 7.37298 3.20385 0
M  V30 2280 H 218.247 0.415467 0.533257 0
M  V30 2281 H 220.801 1.70912 1.13922 0
M  V30 2282 H 219.031 1.26358 3.65473 0
M  V30 2283 H 220.72 1.68054 3.69476 0
M  V30 2284 H 221.486 3.98382 2.76616 0
M  V30 2285 H 217.365 3.00101 3.49943 0
M  V30 2286 H 220.909 6.38407 2.81216 0
M  V30 2287 H 216.806 5.39256 3.54787 0
M  V30 2288 H 217.574 7.46048 3.36681 0
M  V30 2289 N 220.237 -1.11381 1.11499 0
M  V30 2290 C 221.485 -1.8277 0.862524 0
M  V30 2291 C 221.806 -1.85097 -0.613534 0
M  V30 2292 O 221.076 -1.32198 -1.4457 0
M  V30 2293 H 219.656 -0.676823 0.316101 0
M  V30 2294 H 222.318 -1.34816 1.4075 0
M  V30 2295 H 221.414 -2.86614 1.23527 0
M  V30 2296 N 221.715 -0.905404 -1.28997 0
M  V30 2297 C 222.662 -0.385892 -2.27551 0
M  V30 2298 C 223.632 0.535113 -1.57244 0
M  V30 2299 O 224.817 0.459119 -1.85194 0
M  V30 2300 C 221.957 0.375461 -3.43051 0
M  V30 2301 C 221.07 -0.577092 -4.28128 0
M  V30 2302 C 220.205 0.201879 -5.30816 0
M  V30 2303 C 219.244 -0.744829 -6.07551 0
M  V30 2304 N 218.381 9.42587e-05 -7.021 0
M  V30 2305 H 223.221 -1.23139 -2.71368 0
M  V30 2306 H 220.758 -0.618542 -1.33463 0
M  V30 2307 H 222.716 0.832992 -4.088 0
M  V30 2308 H 221.346 1.18537 -3.00248 0
M  V30 2309 H 220.398 -1.15315 -3.62501 0
M  V30 2310 H 221.71 -1.30152 -4.8152 0
M  V30 2311 H 220.864 0.720351 -6.02408 0
M  V30 2312 H 219.603 0.959413 -4.7817 0
M  V30 2313 H 218.608 -1.27475 -5.34818 0
M  V30 2314 H 219.833 -1.50178 -6.62286 0
M  V30 2315 H 217.779 0.739791 -6.51815 0
M  V30 2316 H 217.696 -0.664321 -7.53076 0
M  V30 2317 H 218.964 0.498644 -7.77903 0
M  V30 2318 N 223.193 1.4272 -0.668489 0
M  V30 2319 C 224.418 2.06484 -0.194758 0
M  V30 2320 C 224.843 1.49862 1.13679 0
M  V30 2321 O 224.201 0.614582 1.70565 0
M  V30 2322 C 224.249 3.60353 -0.133546 0
M  V30 2323 O 223.353 4.02464 0.899806 0
M  V30 2324 H 222.694 0.656137 -0.10188 0
M  V30 2325 H 225.224 1.82964 -0.915722 0
M  V30 2326 H 225.234 4.07976 0.0447041 0
M  V30 2327 H 223.909 4.00938 -1.1055 0
M  V30 2328 H 222.486 3.66402 0.693109 0
M  V30 2329 N 224.671 0.411399 1.52136 0
M  V30 2330 C 225.618 -0.412975 2.27075 0
M  V30 2331 C 226.588 -1.03912 1.29582 0
M  V30 2332 O 227.773 -1.06296 1.58448 0
M  V30 2333 C 224.913 -1.52247 3.09701 0
M  V30 2334 C 224.026 -0.917021 4.22155 0
M  V30 2335 C 223.161 -1.9994 4.92135 0
M  V30 2336 C 222.2 -1.37101 5.96548 0
M  V30 2337 N 221.337 -2.39364 6.60038 0
M  V30 2338 H 226.177 0.232499 2.97092 0
M  V30 2339 H 223.714 0.126496 1.46555 0
M  V30 2340 H 225.672 -2.17674 3.55913 0
M  V30 2341 H 224.302 -2.13794 2.41851 0
M  V30 2342 H 223.354 -0.151742 3.80097 0
M  V30 2343 H 224.666 -0.418006 4.97045 0
M  V30 2344 H 223.82 -2.73088 5.41763 0
M  V30 2345 H 222.559 -2.53208 4.16818 0
M  V30 2346 H 221.564 -0.624873 5.46237 0
M  V30 2347 H 222.789 -0.845998 6.7381 0
M  V30 2348 H 220.735 -2.91759 5.87548 0
M  V30 2349 H 220.652 -1.9428 7.3061 0
M  V30 2350 H 221.92 -3.12074 7.14304 0
M  V30 2351 N 226.149 -1.5696 0.141893 0
M  V30 2352 C 227.079 -2.19516 -0.795936 0
M  V30 2353 C 228.06 -1.14187 -1.26077 0
M  V30 2354 O 229.245 -1.42511 -1.31925 0
M  V30 2355 C 226.375 -2.81272 -2.03723 0
M  V30 2356 C 225.329 -3.92384 -1.70936 0
M  V30 2357 C 224.655 -4.41052 -3.02287 0
M  V30 2358 C 225.955 -5.13403 -0.959954 0
M  V30 2359 H 227.649 -2.98138 -0.274596 0
M  V30 2360 H 225.195 -1.43406 -0.130636 0
M  V30 2361 H 227.148 -3.237 -2.69808 0
M  V30 2362 H 225.872 -1.99973 -2.58221 0
M  V30 2363 H 224.531 -3.50566 -1.07232 0
M  V30 2364 H 224.179 -3.56582 -3.54765 0
M  V30 2365 H 223.879 -5.15993 -2.81114 0
M  V30 2366 H 225.403 -4.86146 -3.69451 0
M  V30 2367 H 226.817 -5.52706 -1.52279 0
M  V30 2368 H 225.214 -5.94073 -0.848357 0
M  V30 2369 H 226.284 -4.84875 0.0492434 0
M  V30 2370 N 227.627 0.131896 -1.57047 0
M  V30 2371 C 228.56 1.19236 -1.94571 0
M  V30 2372 C 229.538 1.40782 -0.813576 0
M  V30 2373 O 230.722 1.55148 -1.07058 0
M  V30 2374 C 227.849 2.54858 -2.23081 0
M  V30 2375 C 226.895 2.49817 -3.45679 0
M  V30 2376 S 227.728 1.95036 -4.98719 0
M  V30 2377 C 228.884 3.32357 -5.30367 0
M  V30 2378 H 229.117 0.872297 -2.84215 0
M  V30 2379 H 226.65 0.338134 -1.50652 0
M  V30 2380 H 228.608 3.32898 -2.40185 0
M  V30 2381 H 227.269 2.84047 -1.34074 0
M  V30 2382 H 226.462 3.49688 -3.62952 0
M  V30 2383 H 226.064 1.79892 -3.27895 0
M  V30 2384 H 228.356 4.28525 -5.2476 0
M  V30 2385 H 229.299 3.19923 -6.31708 0
M  V30 2386 H 229.707 3.3019 -4.57859 0
M  V30 2387 N 229.106 1.52395 0.401703 0
M  V30 2388 C 230.352 1.67065 1.14966 0
M  V30 2389 C 230.685 0.403052 1.89971 0
M  V30 2390 O 229.96 -0.598774 1.85054 0
M  V30 2391 C 230.243 2.8975 2.13815 0
M  V30 2392 C 230.096 4.26578 1.42658 0
M  V30 2393 C 231.415 3.07965 3.14397 0
M  V30 2394 H 228.534 0.607968 0.416587 0
M  V30 2395 H 231.176 1.84965 0.434511 0
M  V30 2396 H 229.326 2.74619 2.74803 0
M  V30 2397 H 230.998 4.53451 0.847329 0
M  V30 2398 H 229.241 4.27639 0.72849 0
M  V30 2399 H 229.912 5.08483 2.14823 0
M  V30 2400 H 232.388 3.22043 2.63491 0
M  V30 2401 H 231.264 3.95308 3.80819 0
M  V30 2402 H 231.525 2.21611 3.82545 0
M  V30 2403 N 230.584 -0.659388 1.43143 0
M  V30 2404 C 231.494 -1.80167 1.50256 0
M  V30 2405 C 232.51 -1.69571 0.390106 0
M  V30 2406 O 233.686 -1.90849 0.643319 0
M  V30 2407 C 230.751 -3.16409 1.41725 0
M  V30 2408 C 229.812 -3.38848 2.63591 0
M  V30 2409 C 229.045 -4.68591 2.55458 0
M  V30 2410 O 229.268 -5.47532 1.59891 0
M  V30 2411 O 228.202 -4.92614 3.45854 0
M  V30 2412 H 232.028 -1.77121 2.46702 0
M  V30 2413 H 229.613 -0.817092 1.25076 0
M  V30 2414 H 231.495 -3.9768 1.39387 0
M  V30 2415 H 230.17 -3.20059 0.484118 0
M  V30 2416 H 229.077 -2.57366 2.71502 0
M  V30 2417 H 230.41 -3.4004 3.55856 0
M  V30 2418 N 232.062 -1.29571 -0.897171 0
M  V30 2419 C 232.994 -1.10724 -2.00681 0
M  V30 2420 C 234.007 -0.0540026 -1.6271 0
M  V30 2421 O 235.196 -0.298783 -1.75982 0
M  V30 2422 C 232.296 -0.663912 -3.32333 0
M  V30 2423 C 231.469 -1.79622 -3.98816 0
M  V30 2424 C 230.528 -1.34349 -5.0876 0
M  V30 2425 O 229.554 -2.04864 -5.31055 0
M  V30 2426 N 230.756 -0.215764 -5.80099 0
M  V30 2427 H 233.521 -2.06291 -2.17403 0
M  V30 2428 H 231.082 -1.21544 -1.06951 0
M  V30 2429 H 233.074 -0.344295 -4.03233 0
M  V30 2430 H 231.644 0.199375 -3.11964 0
M  V30 2431 H 230.864 -2.28459 -3.21248 0
M  V30 2432 H 232.152 -2.55535 -4.39976 0
M  V30 2433 H 231.55 0.372091 -5.64475 0
M  V30 2434 H 230.107 0.0444707 -6.51785 0
M  V30 2435 N 233.54 1.10788 -1.12088 0
M  V30 2436 C 234.789 1.82036 -0.868659 0
M  V30 2437 C 235.102 1.85929 0.607426 0
M  V30 2438 O 236.308 2.53346 0.97613 0
M  V30 2439 C 234.764 3.26951 -1.50435 0
M  V30 2440 C 234.372 3.31367 -3.01496 0
M  V30 2441 C 236.116 4.03053 -1.33225 0
M  V30 2442 C 234.023 4.7072 -3.58017 0
M  V30 2443 H 232.953 0.682108 -0.321318 0
M  V30 2444 H 235.604 1.24618 -1.34694 0
M  V30 2445 H 233.986 3.84343 -0.953735 0
M  V30 2446 H 235.16 2.83819 -3.6302 0
M  V30 2447 H 233.475 2.6875 -3.18061 0
M  V30 2448 H 236.072 5.05981 -1.72878 0
M  V30 2449 H 236.415 4.15387 -0.275529 0
M  V30 2450 H 236.948 3.52066 -1.85188 0
M  V30 2451 H 233.687 4.63585 -4.63432 0
M  V30 2452 H 233.207 5.1865 -3.01268 0
M  V30 2453 H 234.886 5.39685 -3.56859 0
M  V30 2454 N 235.018 0.912232 1.28515 0
M  V30 2455 C 235.948 0.416403 2.29757 0
M  V30 2456 C 236.929 -0.515194 1.6211 0
M  V30 2457 O 238.114 -0.423253 1.89532 0
M  V30 2458 C 235.244 -0.34572 3.45575 0
M  V30 2459 C 234.198 0.496599 4.25109 0
M  V30 2460 C 233.524 -0.393771 5.33248 0
M  V30 2461 C 234.824 1.75307 4.92001 0
M  V30 2462 H 236.518 1.26249 2.7148 0
M  V30 2463 H 234.064 0.608515 1.30511 0
M  V30 2464 H 236.017 -0.703422 4.15488 0
M  V30 2465 H 234.741 -1.2257 3.02728 0
M  V30 2466 H 233.4 0.8368 3.56922 0
M  V30 2467 H 233.048 -1.27225 4.86644 0
M  V30 2468 H 232.748 0.166209 5.87365 0
M  V30 2469 H 234.272 -0.747389 6.06009 0
M  V30 2470 H 235.686 1.46437 5.54283 0
M  V30 2471 H 234.083 2.25534 5.56106 0
M  V30 2472 H 235.153 2.48176 4.16577 0
M  V30 2473 N 236.496 -1.42363 0.676048 0
M  V30 2474 C 237.724 -2.05859 0.207268 0
M  V30 2475 C 238.139 -1.50796 -1.13605 0
M  V30 2476 O 237.496 -0.648265 -1.70598 0
M  V30 2477 C 237.547 -3.61248 0.134975 0
M  V30 2478 O 237.268 -4.1427 1.42521 0
M  V30 2479 C 238.769 -4.41859 -0.357151 0
M  V30 2480 H 235.989 -0.663431 0.100503 0
M  V30 2481 H 238.533 -1.82479 0.923136 0
M  V30 2482 H 236.688 -3.83735 -0.531588 0
M  V30 2483 H 237.102 -5.0815 1.29939 0
M  V30 2484 H 238.576 -5.50847 -0.356641 0
M  V30 2485 H 239.053 -4.16536 -1.39264 0
M  V30 2486 H 239.659 -4.24392 0.27772 0
M  V30 2487 N 237.974 -0.419461 -1.51915 0
M  V30 2488 C 239.251 0.211999 -1.94448 0
M  V30 2489 C 239.631 1.61703 -1.35703 0
M  V30 2490 O 238.979 2.22102 -0.536931 0
M  V30 2491 C 239.189 0.207872 -3.4838 0
M  V30 2492 C 240.537 0.422192 -4.22496 0
M  V30 2493 O 241.561 0.286778 -3.55044 0
M  V30 2494 O 240.42 0.690009 -5.42126 0
M  V30 2495 H 237.514 0.139586 -0.815135 0
M  V30 2496 H 240.06 -0.476151 -1.62883 0
M  V30 2497 H 238.832 -0.775102 -3.83546 0
M  V30 2498 H 238.455 0.939688 -3.86336 0
M  V30 2499 N 239.452 1.56882 -0.150215 0
M  V30 2500 C 240.382 2.19935 0.784284 0
M  V30 2501 C 241.363 1.14854 1.25469 0
M  V30 2502 O 242.548 1.43209 1.31168 0
M  V30 2503 C 239.678 2.82349 2.02229 0
M  V30 2504 C 238.632 3.93285 1.68853 0
M  V30 2505 C 237.958 4.42649 2.99944 0
M  V30 2506 C 239.258 5.13904 0.932714 0
M  V30 2507 H 240.952 2.9828 0.258781 0
M  V30 2508 H 238.498 1.43473 0.123029 0
M  V30 2509 H 240.451 3.25126 2.68088 0
M  V30 2510 H 239.175 2.0134 2.57157 0
M  V30 2511 H 237.834 3.5113 1.05371 0
M  V30 2512 H 237.482 3.58458 3.52869 0
M  V30 2513 H 237.182 5.17476 2.78374 0
M  V30 2514 H 238.706 4.88099 3.66868 0
M  V30 2515 H 240.12 5.53506 1.49345 0
M  V30 2516 H 238.517 5.94515 0.81684 0
M  V30 2517 H 239.587 4.84842 -0.0749568 0
M  V30 2518 N 240.93 -0.123565 1.57115 0
M  V30 2519 C 241.862 -1.17739 1.96648 0
M  V30 2520 C 242.875 -1.37906 0.865201 0
M  V30 2521 O 244.064 -1.37062 1.14351 0
M  V30 2522 C 241.164 -2.53821 2.24562 0
M  V30 2523 C 240.337 -2.54317 3.55867 0
M  V30 2524 C 239.396 -3.72112 3.72047 0
M  V30 2525 O 238.422 -3.55907 4.44206 0
M  V30 2526 N 239.624 -4.90498 3.10471 0
M  V30 2527 H 242.389 -0.841147 2.87654 0
M  V30 2528 H 239.95 -0.31289 1.58848 0
M  V30 2529 H 241.942 -3.31175 2.32606 0
M  V30 2530 H 240.512 -2.79645 1.39705 0
M  V30 2531 H 239.732 -1.62711 3.59053 0
M  V30 2532 H 241.02 -2.51701 4.42181 0
M  V30 2533 H 240.418 -5.06567 2.51806 0
M  V30 2534 H 238.975 -5.65544 3.24043 0
M  V30 2535 N 242.408 -1.52605 -0.393616 0
M  V30 2536 C 243.355 -1.77055 -1.48054 0
M  V30 2537 C 244.325 -0.61358 -1.54352 0
M  V30 2538 O 245.51 -0.852806 -1.70681 0
M  V30 2539 C 242.65 -1.94108 -2.85335 0
M  V30 2540 C 241.763 -3.21792 -2.88226 0
M  V30 2541 C 240.898 -3.29188 -4.16904 0
M  V30 2542 C 239.937 -4.51013 -4.13828 0
M  V30 2543 N 239.074 -4.55716 -5.34105 0
M  V30 2544 H 243.914 -2.69815 -1.26506 0
M  V30 2545 H 241.451 -1.33683 -0.61379 0
M  V30 2546 H 243.409 -2.01979 -3.65049 0
M  V30 2547 H 242.039 -1.04713 -3.05344 0
M  V30 2548 H 241.091 -3.23015 -2.00911 0
M  V30 2549 H 242.403 -4.11557 -2.8182 0
M  V30 2550 H 241.557 -3.36216 -5.05018 0
M  V30 2551 H 240.296 -2.37389 -4.26026 0
M  V30 2552 H 239.301 -4.44115 -3.24102 0
M  V30 2553 H 240.526 -5.44123 -4.06333 0
M  V30 2554 H 238.472 -3.66807 -5.43865 0
M  V30 2555 H 238.389 -5.39346 -5.29756 0
M  V30 2556 H 239.657 -4.66993 -6.2413 0
M  V30 2557 N 243.887 0.651787 -1.4349 0
M  V30 2558 C 244.85 1.74647 -1.48429 0
M  V30 2559 C 245.85 1.56513 -0.368817 0
M  V30 2560 O 247.04 1.62385 -0.630623 0
M  V30 2561 C 244.172 3.13533 -1.33827 0
M  V30 2562 H 245.365 1.71649 -2.4592 0
M  V30 2563 H 242.918 0.863573 -1.30277 0
M  V30 2564 H 243.653 3.22142 -0.37349 0
M  V30 2565 H 243.438 3.28101 -2.14691 0
M  V30 2566 H 244.928 3.93356 -1.40218 0
M  V30 2567 N 245.365 1.30045 0.890287 0
M  V30 2568 C 246.297 1.11786 2.00091 0
M  V30 2569 C 247.31 0.0626307 1.62679 0
M  V30 2570 O 248.499 0.308112 1.75821 0
M  V30 2571 C 245.599 0.681527 3.31977 0
M  V30 2572 C 244.772 1.81735 3.97858 0
M  V30 2573 C 243.831 1.37045 5.08041 0
M  V30 2574 O 242.857 2.07677 5.29961 0
M  V30 2575 N 244.059 0.246525 5.79976 0
M  V30 2576 H 246.824 2.07441 2.16306 0
M  V30 2577 H 244.385 1.2211 1.06305 0
M  V30 2578 H 246.377 0.365675 4.03045 0
M  V30 2579 H 244.947 -0.182828 3.12065 0
M  V30 2580 H 244.167 2.30159 3.20032 0
M  V30 2581 H 245.455 2.57865 4.38615 0
M  V30 2582 H 244.853 -0.34215 5.64664 0
M  V30 2583 H 243.41 -0.00990438 6.51799 0
M  V30 2584 N 246.843 -1.10192 1.12674 0
M  V30 2585 C 248.254 -1.63707 0.897604 0
M  V30 2586 C 248.605 -1.87812 -0.567546 0
M  V30 2587 O 247.73 -1.62196 -1.43253 0
M  V30 2588 C 248.325 -2.974 1.62292 0
M  V30 2589 C 246.884 -3.47772 1.43986 0
M  V30 2590 C 246.031 -2.22332 1.65722 0
M  V30 2591 H 248.982 -0.936587 1.28116 0
M  V30 2592 H 249.003 -3.64986 1.07541 0
M  V30 2593 H 248.515 -2.79824 2.68924 0
M  V30 2594 H 246.616 -3.70487 0.396206 0
M  V30 2595 H 246.729 -4.25723 2.19765 0
M  V30 2596 H 245.093 -2.30599 1.08149 0
M  V30 2597 H 245.876 -2.07285 2.73657 0
M  V30 2598 N 248.321 -0.919034 -1.28029 0
M  V30 2599 C 249.598 -0.473668 -1.89778 0
M  V30 2600 C 249.978 1.04783 -1.83259 0
M  V30 2601 O 249.326 1.8982 -1.27202 0
M  V30 2602 C 249.536 -1.00998 -3.34066 0
M  V30 2603 C 250.884 -1.06525 -4.1102 0
M  V30 2604 O 251.908 -0.958996 -3.43048 0
M  V30 2605 O 250.767 -1.22776 -5.3253 0
M  V30 2606 H 247.861 -0.15098 -0.813101 0
M  V30 2607 H 250.407 -1.01016 -1.36359 0
M  V30 2608 H 249.179 -2.05392 -3.33061 0
M  V30 2609 H 248.802 -0.454626 -3.94992 0
M  V30 2610 N 249.799 1.42003 -0.683588 0
M  V30 2611 C 251.045 2.02223 -0.218536 0
M  V30 2612 C 251.4 1.53126 1.16492 0
M  V30 2613 O 250.693 0.727459 1.77253 0
M  V30 2614 C 250.887 3.56827 -0.202357 0
M  V30 2615 C 250.716 4.20928 -1.5827 0
M  V30 2616 C 249.486 4.5573 -2.18262 0
M  V30 2617 C 251.684 4.47933 -2.52706 0
M  V30 2618 N 249.666 5.05056 -3.48986 0
M  V30 2619 C 251.037 4.98906 -3.68094 0
M  V30 2620 C 253.092 4.29931 -2.51125 0
M  V30 2621 C 251.795 5.33768 -4.82166 0
M  V30 2622 C 253.821 4.65875 -3.643 0
M  V30 2623 C 253.183 5.17008 -4.78417 0
M  V30 2624 H 249.282 0.771931 -0.125088 0
M  V30 2625 H 251.866 1.72729 -0.898479 0
M  V30 2626 H 250.037 3.85819 0.447029 0
M  V30 2627 H 251.769 4.03755 0.276399 0
M  V30 2628 H 248.524 4.41781 -1.70665 0
M  V30 2629 H 248.948 5.34139 -4.15962 0
M  V30 2630 H 253.59 3.89647 -1.6412 0
M  V30 2631 H 251.308 5.72981 -5.6984 0
M  V30 2632 H 254.894 4.53615 -3.64314 0
M  V30 2633 H 253.774 5.44301 -5.64541 0
M  V30 2634 N 251.277 0.427512 1.51691 0
M  V30 2635 C 252.502 -0.143601 2.06902 0
M  V30 2636 C 252.927 -1.36536 1.29382 0
M  V30 2637 O 252.285 -1.78289 0.329043 0
M  V30 2638 C 252.333 -0.454207 3.57728 0
M  V30 2639 O 251.437 -1.54228 3.82475 0
M  V30 2640 H 250.778 -0.00617128 0.663971 0
M  V30 2641 H 253.308 0.606014 1.95419 0
M  V30 2642 H 253.318 -0.707525 4.01818 0
M  V30 2643 H 251.993 0.438812 4.13579 0
M  V30 2644 H 250.57 -1.2797 3.50254 0
M  V30 2645 N 252.755 -1.56801 0.158532 0
M  V30 2646 C 254.004 -1.95665 -0.489702 0
M  V30 2647 C 254.317 -1.04654 -1.65248 0
M  V30 2648 O 255.523 -1.33146 -2.3661 0
M  V30 2649 C 253.979 -3.47874 -0.922582 0
M  V30 2650 C 253.587 -4.47489 0.213893 0
M  V30 2651 C 255.331 -3.95583 -1.53996 0
M  V30 2652 C 253.238 -5.90921 -0.237903 0
M  V30 2653 H 252.168 -0.730516 -0.186716 0
M  V30 2654 H 254.819 -1.81861 0.244722 0
M  V30 2655 H 253.201 -3.57051 -1.71261 0
M  V30 2656 H 254.375 -4.50017 0.991036 0
M  V30 2657 H 252.69 -4.09764 0.740407 0
M  V30 2658 H 255.287 -5.0019 -1.8898 0
M  V30 2659 H 255.63 -3.37789 -2.43319 0
M  V30 2660 H 256.163 -3.8937 -0.814611 0
M  V30 2661 H 252.902 -6.52559 0.620236 0
M  V30 2662 H 252.422 -5.91729 -0.980676 0
M  V30 2663 H 254.101 -6.43352 -0.686067 0
M  V30 2664 N 254.233 0.115231 -1.57178 0
M  V30 2665 C 255.196 1.12526 -1.99676 0
M  V30 2666 C 256.196 1.34095 -0.88742 0
M  V30 2667 O 257.386 1.30548 -1.15337 0
M  V30 2668 C 254.518 2.4789 -2.34015 0
M  V30 2669 H 255.711 0.759912 -2.90113 0
M  V30 2670 H 253.264 0.359648 -1.52106 0
M  V30 2671 H 253.999 2.89339 -1.4647 0
M  V30 2672 H 253.784 2.33588 -3.14927 0
M  V30 2673 H 255.274 3.20575 -2.67622 0
M  V30 2674 N 255.711 1.52812 0.385517 0
M  V30 2675 C 256.641 1.80808 1.47752 0
M  V30 2676 C 257.622 0.660318 1.5676 0
M  V30 2677 O 258.807 0.908246 1.71652 0
M  V30 2678 C 255.937 1.98008 2.85324 0
M  V30 2679 C 254.891 3.13709 2.91154 0
M  V30 2680 C 254.217 3.16169 4.31209 0
M  V30 2681 C 255.517 4.52709 2.60483 0
M  V30 2682 H 257.211 2.72253 1.24573 0
M  V30 2683 H 254.757 1.31003 0.597839 0
M  V30 2684 H 256.71 2.16176 3.61726 0
M  V30 2685 H 255.434 1.03255 3.09848 0
M  V30 2686 H 254.093 2.95329 2.17201 0
M  V30 2687 H 253.741 2.19092 4.52778 0
M  V30 2688 H 253.441 3.93894 4.36029 0
M  V30 2689 H 254.965 3.36496 5.09512 0
M  V30 2690 H 256.379 4.71173 3.26602 0
M  V30 2691 H 254.776 5.32528 2.76648 0
M  V30 2692 H 255.846 4.59186 1.55809 0
M  V30 2693 N 257.189 -0.644168 1.43834 0
M  V30 2694 C 258.119 -1.76814 1.52509 0
M  V30 2695 C 259.1 -1.65823 0.379052 0
M  V30 2696 O 260.285 -1.84781 0.597466 0
M  V30 2697 C 257.415 -3.15288 1.4564 0
M  V30 2698 C 256.369 -3.41053 2.58586 0
M  V30 2699 C 255.695 -4.79421 2.36769 0
M  V30 2700 C 256.995 -3.34902 4.00797 0
M  V30 2701 H 258.689 -1.69812 2.46586 0
M  V30 2702 H 256.235 -0.815542 1.1868 0
M  V30 2703 H 258.188 -3.93681 1.50311 0
M  V30 2704 H 256.912 -3.23043 0.480725 0
M  V30 2705 H 255.571 -2.65035 2.53282 0
M  V30 2706 H 255.219 -4.83863 1.37424 0
M  V30 2707 H 254.919 -4.9762 3.12487 0
M  V30 2708 H 256.443 -5.6006 2.43238 0
M  V30 2709 H 257.857 -4.03218 4.07539 0
M  V30 2710 H 256.254 -3.64637 4.76613 0
M  V30 2711 H 257.324 -2.32928 4.25291 0
M  V30 2712 N 258.668 -1.30515 -0.883378 0
M  V30 2713 C 260.084 -1.08881 -1.16692 0
M  V30 2714 C 260.284 0.149409 -2.00945 0
M  V30 2715 O 259.34 0.84257 -2.38027 0
M  V30 2716 C 260.653 -2.35319 -1.87204 0
M  V30 2717 C 262.201 -2.40799 -1.99962 0
M  V30 2718 C 262.676 -3.67083 -2.73887 0
M  V30 2719 N 264.167 -3.679 -2.81432 0
M  V30 2720 C 264.902 -4.62303 -3.3921 0
M  V30 2721 N 264.398 -5.67052 -3.98025 0
M  V30 2722 N 266.191 -4.49845 -3.3704 0
M  V30 2723 H 258.342 -2.09951 -0.321633 0
M  V30 2724 H 260.605 -0.92556 -0.205043 0
M  V30 2725 H 260.311 -3.25689 -1.3274 0
M  V30 2726 H 260.185 -2.44089 -2.87577 0
M  V30 2727 H 262.572 -1.50907 -2.53597 0
M  V30 2728 H 262.653 -2.36003 -0.98673 0
M  V30 2729 H 262.297 -4.57334 -2.20925 0
M  V30 2730 H 262.227 -3.69141 -3.75556 0
M  V30 2731 H 264.718 -2.92171 -2.39676 0
M  V30 2732 H 265.031 -6.35184 -4.40183 0
M  V30 2733 H 263.376 -5.70842 -3.96439 0
M  V30 2734 H 266.567 -3.67194 -2.90321 0
M  V30 2735 H 266.74 -5.23597 -3.81772 0
M  V30 2736 N 260.146 1.09593 -1.13257 0
M  V30 2737 C 261.376 1.85231 -0.915049 0
M  V30 2738 C 261.784 1.81345 0.539498 0
M  V30 2739 O 261.127 1.20664 1.38513 0
M  V30 2740 C 261.189 3.34275 -1.3229 0
M  V30 2741 C 260.853 3.6191 -2.79052 0
M  V30 2742 C 261.85 3.57777 -3.77216 0
M  V30 2743 C 259.535 3.90309 -3.16171 0
M  V30 2744 C 261.529 3.81652 -5.1051 0
M  V30 2745 C 259.216 4.13839 -4.49644 0
M  V30 2746 C 260.214 4.09502 -5.46623 0
M  V30 2747 O 259.902 4.32426 -6.77689 0
M  V30 2748 H 259.634 0.591997 -0.326367 0
M  V30 2749 H 262.188 1.394 -1.50854 0
M  V30 2750 H 260.418 3.80805 -0.672667 0
M  V30 2751 H 262.107 3.9132 -1.07812 0
M  V30 2752 H 262.873 3.35865 -3.49885 0
M  V30 2753 H 258.752 3.92811 -2.41289 0
M  V30 2754 H 262.296 3.78182 -5.86195 0
M  V30 2755 H 258.193 4.35232 -4.767 0
M  V30 2756 H 258.961 4.49896 -6.83766 0
M  V30 2757 N 261.624 0.925811 1.2754 0
M  V30 2758 C 262.871 0.565255 1.94451 0
M  V30 2759 C 263.199 -0.89316 1.7278 0
M  V30 2760 O 262.454 -1.65213 1.04895 0
M  V30 2761 C 262.753 0.835296 3.47502 0
M  V30 2762 C 262.419 2.27515 3.89291 0
M  V30 2763 C 261.081 2.66879 4.00411 0
M  V30 2764 C 263.433 3.21158 4.10496 0
M  V30 2765 C 260.761 3.99014 4.30122 0
M  V30 2766 C 263.113 4.52871 4.4169 0
M  V30 2767 C 261.777 4.92072 4.51023 0
M  V30 2768 H 261.047 0.206841 0.711546 0
M  V30 2769 H 263.694 1.16942 1.51647 0
M  V30 2770 H 261.999 0.148442 3.91519 0
M  V30 2771 H 263.696 0.535322 3.97411 0
M  V30 2772 H 260.286 1.95976 3.81171 0
M  V30 2773 H 264.47 2.9195 4.01346 0
M  V30 2774 H 259.726 4.2907 4.35556 0
M  V30 2775 H 263.9 5.25436 4.57045 0
M  V30 2776 H 261.527 5.9449 4.738 0
M  V30 2777 N 263.102 -1.41638 0.69111 0
M  V30 2778 C 264.05 -2.32597 0.0115199 0
M  V30 2779 C 265.044 -1.5072 -0.773296 0
M  V30 2780 O 266.25 -1.66685 -0.67942 0
M  V30 2781 H 262.625 -0.751849 -0.0150746 0
M  V30 2782 H 264.596 -2.87593 0.795791 0
M  V30 2783 C 263.345 -3.35467 -0.914172 0
M  V30 2784 H 262.668 -3.9852 -0.319687 0
M  V30 2785 H 264.108 -4.01662 -1.35808 0
M  V30 2786 C 262.567 -2.69004 -2.02826 0
M  V30 2787 O 263.097 -2.53444 -3.11655 0
M  V30 2788 N 261.303 -2.2777 -1.80469 0
M  V30 2789 H 260.85 -2.40626 -0.919615 0
M  V30 2790 H 260.808 -1.83635 -2.55197 0
M  V30 2791 N 264.58 -0.43555 -1.51462 0
M  V30 2792 C 265.991 0.0279871 -1.86679 0
M  V30 2793 C 266.342 1.42104 -1.35281 0
M  V30 2794 O 265.467 2.04667 -0.702878 0
M  V30 2795 C 266.062 0.0575626 -3.38751 0
M  V30 2796 C 264.621 0.465507 -3.7351 0
M  V30 2797 C 263.768 -0.342996 -2.75171 0
M  V30 2798 H 266.719 -0.651473 -1.44712 0
M  V30 2799 H 266.74 0.867421 -3.70481 0
M  V30 2800 H 266.252 -0.956448 -3.7613 0
M  V30 2801 H 264.353 1.48519 -3.41721 0
M  V30 2802 H 264.466 0.191546 -4.78717 0
M  V30 2803 H 262.83 0.198442 -2.53926 0
M  V30 2804 H 263.613 -1.35585 -3.15391 0
M  V30 2805 N 266.058 1.56714 -0.166846 0
M  V30 2806 C 267.304 1.97039 0.479962 0
M  V30 2807 C 267.637 1.05264 1.63197 0
M  V30 2808 O 266.912 0.0988833 1.94248 0
M  V30 2809 C 267.195 3.46867 0.967212 0
M  V30 2810 C 267.048 4.49421 -0.18466 0
M  V30 2811 C 268.367 3.9968 1.84238 0
M  V30 2812 H 265.486 0.71641 0.172992 0
M  V30 2813 H 268.128 1.8832 -0.252079 0
M  V30 2814 H 266.278 3.54428 1.59101 0
M  V30 2815 H 267.95 4.53924 -0.821621 0
M  V30 2816 H 266.193 4.25573 -0.840837 0
M  V30 2817 H 266.864 5.51644 0.198317 0
M  V30 2818 H 269.34 3.94723 1.31655 0
M  V30 2819 H 268.216 5.04941 2.15234 0
M  V30 2820 H 268.477 3.43226 2.78654 0
M  V30 2821 N 267.536 -0.106894 1.57237 0
M  V30 2822 C 268.784 -0.810921 1.85117 0
M  V30 2823 C 269.105 -1.7984 0.753827 0
M  V30 2824 O 268.375 -1.94649 -0.221056 0
M  V30 2825 H 266.955 -0.302466 0.683025 0
M  V30 2826 H 269.617 -0.0913324 1.94686 0
M  V30 2827 H 268.713 -1.34875 2.81452 0
M  V30 2828 N 269.014 -1.53014 -0.377408 0
M  V30 2829 C 269.977 -1.77957 -1.44444 0
M  V30 2830 C 270.977 -0.649763 -1.47087 0
M  V30 2831 O 272.167 -0.917897 -1.48055 0
M  V30 2832 C 269.299 -1.89089 -2.83651 0
M  V30 2833 H 270.492 -2.73243 -1.23606 0
M  V30 2834 H 268.045 -1.43912 -0.609844 0
M  V30 2835 H 268.78 -0.958293 -3.09818 0
M  V30 2836 H 268.565 -2.71254 -2.83132 0
M  V30 2837 H 270.055 -2.1002 -3.60945 0
M  V30 2838 N 270.492 0.636531 -1.44174 0
M  V30 2839 C 271.442 1.74233 -1.47061 0
M  V30 2840 C 272.426 1.57331 -0.337034 0
M  V30 2841 O 273.618 1.67159 -0.581973 0
M  V30 2842 C 270.747 3.12897 -1.41246 0
M  V30 2843 C 269.833 3.35288 -2.59698 0
M  V30 2844 N 270.224 3.2807 -3.84972 0
M  V30 2845 C 268.522 3.66065 -2.54778 0
M  V30 2846 C 269.223 3.51001 -4.63867 0
M  V30 2847 N 268.199 3.73616 -3.94857 0
M  V30 2848 H 272.001 1.67103 -2.41773 0
M  V30 2849 H 269.515 0.838806 -1.3906 0
M  V30 2850 H 271.512 3.92189 -1.41398 0
M  V30 2851 H 270.172 3.21197 -0.47569 0
M  V30 2852 H 271.183 3.07109 -4.17019 0
M  V30 2853 H 267.86 3.81379 -1.6987 0
M  V30 2854 H 269.25 3.51059 -5.72894 0
M  V30 2855 N 271.97 1.30982 0.876444 0
M  V30 2856 C 273.381 1.18277 1.44456 0
M  V30 2857 C 273.732 -0.213265 1.95037 0
M  V30 2858 O 272.857 -1.11057 1.85729 0
M  V30 2859 C 273.452 2.1411 2.62569 0
M  V30 2860 C 272.011 2.05358 3.15444 0
M  V30 2861 C 271.158 2.03706 1.88146 0
M  V30 2862 H 274.109 1.43127 0.685584 0
M  V30 2863 H 274.13 1.72692 3.39054 0
M  V30 2864 H 273.642 3.15706 2.25724 0
M  V30 2865 H 271.743 1.06934 3.56926 0
M  V30 2866 H 271.856 2.94156 3.78166 0
M  V30 2867 H 270.22 1.48629 2.06837 0
M  V30 2868 H 271.003 3.07047 1.53547 0
M  V30 2869 N 273.449 -1.08991 1.13837 0
M  V30 2870 C 274.674 -1.85551 0.926585 0
M  V30 2871 C 275.099 -1.80782 -0.519566 0
M  V30 2872 O 274.457 -1.18855 -1.36906 0
M  V30 2873 C 274.505 -3.31266 1.42462 0
M  V30 2874 O 273.609 -4.07822 0.612789 0
M  V30 2875 H 272.95 -0.575192 0.331738 0
M  V30 2876 H 275.48 -1.37604 1.51414 0
M  V30 2877 H 275.49 -3.82112 1.43019 0
M  V30 2878 H 274.165 -3.34052 2.47754 0
M  V30 2879 H 272.742 -3.66731 0.675463 0
M  V30 2880 N 274.927 -0.932562 -1.27047 0
M  V30 2881 C 276.175 -0.574422 -1.93765 0
M  V30 2882 C 276.496 0.887993 -1.73608 0
M  V30 2883 O 275.766 1.62999 -1.08665 0
M  V30 2884 H 274.346 -0.209451 -0.717035 0
M  V30 2885 H 277.008 -1.18601 -1.5466 0
M  V30 2886 H 276.104 -0.784841 -3.02071 0
M  V30 2887 N 276.405 1.4127 -0.698611 0
M  V30 2888 C 277.682 1.94955 -0.158762 0
M  V30 2889 C 278.062 1.63781 1.33188 0
M  V30 2890 O 277.41 0.946423 2.07979 0
M  V30 2891 C 277.62 3.46044 -0.453309 0
M  V30 2892 C 278.968 4.22872 -0.382707 0
M  V30 2893 O 279.992 3.54076 -0.388396 0
M  V30 2894 O 278.851 5.45407 -0.345463 0
M  V30 2895 H 275.945 0.82683 -0.0167505 0
M  V30 2896 H 278.491 1.50971 -0.77498 0
M  V30 2897 H 277.263 3.62028 -1.48498 0
M  V30 2898 H 276.886 3.97128 0.19373 0
M  V30 2899 N 277.883 0.443576 1.51229 0
M  V30 2900 C 278.816 -0.410089 2.24485 0
M  V30 2901 C 279.794 -1.01949 1.26669 0
M  V30 2902 O 280.978 -1.06075 1.55821 0
M  V30 2903 C 278.105 -1.57211 3.00004 0
M  V30 2904 C 277.151 -1.08279 4.12526 0
M  V30 2905 S 277.984 -0.0197476 5.35496 0
M  V30 2906 C 279.14 -1.18629 6.14555 0
M  V30 2907 H 279.373 0.211832 2.96544 0
M  V30 2908 H 276.906 0.228156 1.52705 0
M  V30 2909 H 278.864 -2.23825 3.44111 0
M  V30 2910 H 277.525 -2.16547 2.27522 0
M  V30 2911 H 276.718 -1.95193 4.64667 0
M  V30 2912 H 276.32 -0.494797 3.70713 0
M  V30 2913 H 278.612 -2.10344 6.4402 0
M  V30 2914 H 279.555 -0.70472 7.04584 0
M  V30 2915 H 279.963 -1.42768 5.46148 0
M  V30 2916 N 279.361 -1.56624 0.175154 0
M  V30 2917 C 280.609 -1.96609 -0.467885 0
M  V30 2918 C 280.93 -1.06238 -1.63519 0
M  V30 2919 O 280.2 -0.129523 -1.95471 0
M  V30 2920 H 278.78 -0.726008 -0.175845 0
M  V30 2921 H 281.442 -1.93195 0.257234 0
M  V30 2922 H 280.538 -3.00989 -0.825342 0
M  V30 2923 N 280.839 0.0985539 -1.57292 0
M  V30 2924 C 281.749 1.13824 -2.05137 0
M  V30 2925 C 282.765 1.44076 -0.975604 0
M  V30 2926 O 283.941 1.54786 -1.28853 0
M  V30 2927 C 281.006 2.43969 -2.46333 0
M  V30 2928 C 280.067 2.2093 -3.68087 0
M  V30 2929 C 279.3 3.44869 -4.0731 0
M  V30 2930 O 279.523 4.52972 -3.46659 0
M  V30 2931 O 278.457 3.34661 -5.00285 0
M  V30 2932 H 282.283 0.761881 -2.93988 0
M  V30 2933 H 279.868 0.310818 -1.46131 0
M  V30 2934 H 281.75 3.20609 -2.73473 0
M  V30 2935 H 280.425 2.81038 -1.60621 0
M  V30 2936 H 279.332 1.42081 -3.46069 0
M  V30 2937 H 280.665 1.88755 -4.54568 0
M  V30 2938 N 282.317 1.53212 0.369288 0
M  V30 2939 C 283.594 1.59815 1.12776 0
M  V30 2940 C 283.974 0.403402 2.0721 0
M  V30 2941 O 283.322 -0.606667 2.20299 0
M  V30 2942 C 283.532 2.94664 1.87013 0
M  V30 2943 C 284.88 3.49109 2.41677 0
M  V30 2944 O 285.904 2.96669 1.97144 0
M  V30 2945 O 284.763 4.40775 3.23079 0
M  V30 2946 H 281.857 0.645376 0.517125 0
M  V30 2947 H 284.403 1.65553 0.37285 0
M  V30 2948 H 283.175 3.73061 1.18071 0
M  V30 2949 H 282.798 2.92401 2.69421 0
M  V30 2950 N 283.795 -0.628877 1.44509 0
M  V30 2951 C 285.206 -1.21054 1.42137 0
M  V30 2952 C 285.557 -1.95715 0.137881 0
M  V30 2953 O 284.682 -2.02554 -0.761645 0
M  V30 2954 C 285.277 -2.20189 2.57493 0
M  V30 2955 C 283.836 -2.73777 2.58308 0
M  V30 2956 C 282.983 -1.48813 2.33987 0
M  V30 2957 H 285.934 -0.41942 1.53057 0
M  V30 2958 H 285.955 -3.02833 2.30375 0
M  V30 2959 H 285.467 -1.6582 3.50892 0
M  V30 2960 H 283.568 -3.32142 1.68856 0
M  V30 2961 H 283.681 -3.19662 3.56865 0
M  V30 2962 H 282.045 -1.77024 1.83124 0
M  V30 2963 H 282.828 -0.963442 3.29504 0
M  V30 2964 N 285.273 -1.31445 -0.869486 0
M  V30 2965 C 286.205 -1.14955 -1.98287 0
M  V30 2966 C 287.218 -0.0885037 -1.62559 0
M  V30 2967 O 288.407 -0.336044 -1.75308 0
M  V30 2968 C 285.507 -0.734255 -3.3085 0
M  V30 2969 C 284.68 -1.88042 -3.94917 0
M  V30 2970 C 283.739 -1.4511 -5.05796 0
M  V30 2971 O 282.765 -2.16082 -5.2659 0
M  V30 2972 N 283.967 -0.338763 -5.79511 0
M  V30 2973 H 286.732 -2.10856 -2.12979 0
M  V30 2974 H 284.293 -1.23786 -1.04349 0
M  V30 2975 H 286.285 -0.42975 -4.02412 0
M  V30 2976 H 284.855 0.133158 -3.12316 0
M  V30 2977 H 284.075 -2.35222 -3.1633 0
M  V30 2978 H 285.363 -2.6481 -4.34457 0
M  V30 2979 H 284.761 0.252274 -5.65137 0
M  V30 2980 H 283.318 -0.0937925 -6.51733 0
M  V30 2981 N 286.751 1.08385 -1.14413 0
M  V30 2982 C 287.999 1.80419 -0.910679 0
M  V30 2983 C 288.32 1.86658 0.564243 0
M  V30 2984 O 287.59 1.35985 1.41014 0
M  V30 2985 H 286.17 0.668204 -0.333934 0
M  V30 2986 H 288.832 1.31037 -1.44275 0
M  V30 2987 H 287.928 2.83238 -1.31082 0
M  V30 2988 N 288.23 0.939286 1.26551 0
M  V30 2989 C 289.479 0.581601 1.93133 0
M  V30 2990 C 289.792 -0.883224 1.74524 0
M  V30 2991 O 290.998 -1.3502 2.35546 0
M  V30 2992 C 289.454 0.989425 3.46032 0
M  V30 2993 C 289.062 2.47573 3.73379 0
M  V30 2994 C 290.806 0.703544 4.18629 0
M  V30 2995 C 288.713 2.82235 5.19709 0
M  V30 2996 H 287.643 0.213803 0.723052 0
M  V30 2997 H 290.294 1.14167 1.4366 0
M  V30 2998 H 288.676 0.357902 3.94379 0
M  V30 2999 H 289.85 3.15614 3.35744 0
M  V30 3000 H 288.165 2.73471 3.1401 0
M  V30 3001 H 290.762 0.938869 5.26393 0
M  V30 3002 H 291.105 -0.359639 4.14744 0
M  V30 3003 H 291.638 1.2947 3.76141 0
M  V30 3004 H 288.377 3.87509 5.28694 0
M  V30 3005 H 287.897 2.18854 5.58447 0
M  V30 3006 H 289.576 2.70599 5.87695 0
M  V30 3007 N 289.708 -1.40897 0.706093 0
M  V30 3008 C 291.119 -1.84023 0.315052 0
M  V30 3009 C 291.47 -1.5906 -1.14866 0
M  V30 3010 O 290.595 -1.06651 -1.88293 0
M  V30 3011 C 291.19 -3.34055 0.565038 0
M  V30 3012 C 289.749 -3.7571 0.227806 0
M  V30 3013 C 288.896 -2.64204 0.842122 0
M  V30 3014 H 291.847 -1.303 0.905963 0
M  V30 3015 H 291.868 -3.80107 -0.172843 0
M  V30 3016 H 291.38 -3.52192 1.63042 0
M  V30 3017 H 289.481 -3.63172 -0.832895 0
M  V30 3018 H 289.594 -4.74103 0.690174 0
M  V30 3019 H 287.958 -2.53255 0.270893 0
M  V30 3020 H 288.741 -2.85155 1.91158 0
M  V30 3021 N 291.186 -0.45159 -1.50991 0
M  V30 3022 C 292.134 0.366864 -2.29689 0
M  V30 3023 C 293.128 1.00809 -1.36139 0
M  V30 3024 O 294.334 0.941427 -1.53418 0
M  V30 3025 H 290.709 0.137133 -0.739391 0
M  V30 3026 H 292.68 -0.317538 -2.96706 0
M  V30 3027 C 291.429 1.44751 -3.16137 0
M  V30 3028 H 290.752 0.963473 -3.88017 0
M  V30 3029 H 292.192 1.99315 -3.74232 0
M  V30 3030 C 290.651 2.43869 -2.32442 0
M  V30 3031 O 291.181 3.4872 -1.99392 0
M  V30 3032 N 289.387 2.15105 -1.95392 0
M  V30 3033 H 288.934 1.29866 -2.22469 0
M  V30 3034 H 288.892 2.81661 -1.39693 0
M  V30 3035 N 292.664 1.56529 -0.183458 0
M  V30 3036 C 293.612 2.19873 0.758845 0
M  V30 3037 C 294.606 1.16638 1.22849 0
M  V30 3038 O 295.812 1.3481 1.19274 0
M  V30 3039 H 292.187 0.7045 0.263029 0
M  V30 3040 H 294.158 2.97724 0.200755 0
M  V30 3041 C 292.907 2.86314 1.9728 0
M  V30 3042 H 292.23 3.65487 1.62047 0
M  V30 3043 H 293.67 3.3409 2.61075 0
M  V30 3044 C 292.129 1.86729 2.80418 0
M  V30 3045 O 292.659 1.36031 3.77966 0
M  V30 3046 N 290.865 1.55216 2.45675 0
M  V30 3047 H 290.412 1.96636 1.66409 0
M  V30 3048 H 290.37 0.888388 3.01588 0
M  V30 3049 N 294.142 -0.090211 1.57342 0
M  V30 3050 C 295.072 -1.10976 2.05443 0
M  V30 3051 C 296.053 -1.41482 0.944284 0
M  V30 3052 O 297.238 -1.51428 1.21586 0
M  V30 3053 C 294.368 -2.42831 2.48295 0
M  V30 3054 C 293.322 -2.26721 3.63018 0
M  V30 3055 C 292.648 -3.63796 3.91863 0
M  V30 3056 C 293.948 -1.7037 4.93732 0
M  V30 3057 H 295.642 -0.709564 2.9087 0
M  V30 3058 H 293.188 -0.339874 1.39932 0
M  V30 3059 H 295.141 -3.14431 2.80555 0
M  V30 3060 H 293.865 -2.84795 1.59873 0
M  V30 3061 H 292.524 -1.57565 3.31012 0
M  V30 3062 H 292.172 -4.03297 3.00601 0
M  V30 3063 H 291.872 -3.53861 4.69101 0
M  V30 3064 H 293.396 -4.36855 4.26603 0
M  V30 3065 H 294.81 -2.31816 5.24342 0
M  V30 3066 H 293.207 -1.71181 5.75167 0
M  V30 3067 H 294.277 -0.663542 4.80339 0
M  V30 3068 N 295.62 -1.53406 -0.361157 0
M  V30 3069 C 296.553 -1.74946 -1.46524 0
M  V30 3070 C 297.531 -0.59795 -1.51206 0
M  V30 3071 O 298.715 -0.831062 -1.69191 0
M  V30 3072 C 295.842 -1.83224 -2.84863 0
M  V30 3073 C 294.888 -3.05233 -2.97885 0
M  V30 3074 S 295.721 -4.6466 -2.66179 0
M  V30 3075 C 296.877 -4.75793 -4.06659 0
M  V30 3076 H 297.11 -2.68319 -1.28033 0
M  V30 3077 H 294.643 -1.44051 -0.555764 0
M  V30 3078 H 296.601 -1.88679 -3.64569 0
M  V30 3079 H 295.262 -0.908948 -3.00661 0
M  V30 3080 H 294.455 -3.07648 -3.9921 0
M  V30 3081 H 294.057 -2.97913 -2.26106 0
M  V30 3082 H 296.349 -4.5612 -5.0096 0
M  V30 3083 H 297.292 -5.7786 -4.09247 0
M  V30 3084 H 297.7 -4.04389 -3.93865 0
M  V30 3085 N 297.098 0.621204 -1.44841 0
M  V30 3086 C 298.509 1.20298 -1.42777 0
M  V30 3087 C 298.86 1.95639 -0.148259 0
M  V30 3088 O 297.985 2.02955 0.750892 0
M  V30 3089 C 298.58 2.1882 -2.58657 0
M  V30 3090 C 297.139 2.72403 -2.59756 0
M  V30 3091 C 296.286 1.4757 -2.34773 0
M  V30 3092 H 299.237 0.411297 -1.53278 0
M  V30 3093 H 299.258 3.01607 -2.31977 0
M  V30 3094 H 298.77 1.63957 -3.51766 0
M  V30 3095 H 296.871 3.31242 -1.70615 0
M  V30 3096 H 296.984 3.17765 -3.58556 0
M  V30 3097 H 295.348 1.76051 -1.8406 0
M  V30 3098 H 296.131 0.945954 -3.3001 0
M  V30 3099 N 298.576 1.31904 0.862503 0
M  V30 3100 C 299.806 1.24817 1.64634 0
M  V30 3101 C 300.214 -0.187579 1.88268 0
M  V30 3102 O 299.557 -1.13253 1.44635 0
M  V30 3103 C 299.619 1.92996 3.03303 0
M  V30 3104 C 299.283 3.42336 3.02746 0
M  V30 3105 C 300.28 4.37956 2.80162 0
M  V30 3106 C 297.965 3.84147 3.2363 0
M  V30 3107 C 299.959 5.73361 2.78453 0
M  V30 3108 C 297.646 5.19663 3.21549 0
M  V30 3109 C 298.644 6.14081 2.98988 0
M  V30 3110 O 298.332 7.47118 2.96766 0
M  V30 3111 H 298.064 0.432222 0.519769 0
M  V30 3112 H 300.618 1.7445 1.08427 0
M  V30 3113 H 298.848 1.37922 3.61268 0
M  V30 3114 H 300.537 1.79723 3.63943 0
M  V30 3115 H 301.303 4.06981 2.63802 0
M  V30 3116 H 297.182 3.11083 3.40218 0
M  V30 3117 H 300.726 6.4703 2.60763 0
M  V30 3118 H 296.623 5.5027 3.37451 0
M  V30 3119 H 297.391 7.56382 3.12775 0
M  V30 3120 N 300.054 -1.07777 1.14986 0
M  V30 3121 C 301.303 -1.79669 0.916617 0
M  V30 3122 C 301.616 -1.87474 -0.557917 0
M  V30 3123 O 302.822 -2.55845 -0.908617 0
M  V30 3124 C 301.278 -3.22848 1.59051 0
M  V30 3125 C 300.886 -3.23257 3.10176 0
M  V30 3126 C 302.63 -3.99379 1.43864 0
M  V30 3127 C 300.537 -4.61063 3.70372 0
M  V30 3128 H 299.467 -0.673349 0.33929 0
M  V30 3129 H 302.118 -1.21003 1.37951 0
M  V30 3130 H 300.5 -3.8168 1.0553 0
M  V30 3131 H 301.674 -2.74095 3.70417 0
M  V30 3132 H 299.989 -2.60222 3.25074 0
M  V30 3133 H 302.586 -5.0122 1.86232 0
M  V30 3134 H 302.929 -4.14511 0.385564 0
M  V30 3135 H 303.462 -3.47032 1.94457 0
M  V30 3136 H 300.201 -4.51135 4.7556 0
M  V30 3137 H 299.721 -5.1048 3.14913 0
M  V30 3138 H 301.4 -5.30034 3.71043 0
M  V30 3139 N 301.532 -0.945985 -1.26051 0
M  V30 3140 C 302.495 -0.463897 -2.24456 0
M  V30 3141 C 303.495 0.427655 -1.55009 0
M  V30 3142 O 304.685 0.226157 -1.72726 0
M  V30 3143 C 301.817 0.330812 -3.39291 0
M  V30 3144 H 303.01 -1.33357 -2.68619 0
M  V30 3145 H 300.563 -0.728416 -1.38289 0
M  V30 3146 H 301.298 1.21852 -3.00537 0
M  V30 3147 H 301.083 -0.308679 -3.90883 0
M  V30 3148 H 302.573 0.657865 -4.12386 0
M  V30 3149 N 303.011 1.40521 -0.713556 0
M  V30 3150 C 303.943 2.29191 -0.0203126 0
M  V30 3151 C 304.956 1.45723 0.725864 0
M  V30 3152 O 306.145 1.69033 0.573581 0
M  V30 3153 C 303.245 3.2395 0.995486 0
M  V30 3154 C 302.418 4.36262 0.315256 0
M  V30 3155 C 301.477 5.11474 1.23616 0
M  V30 3156 O 300.503 5.64606 0.721719 0
M  V30 3157 N 301.705 5.20638 2.56743 0
M  V30 3158 H 304.47 2.89327 -0.781652 0
M  V30 3159 H 302.031 1.51869 -0.561022 0
M  V30 3160 H 304.023 3.71137 1.61368 0
M  V30 3161 H 302.593 2.64995 1.6582 0
M  V30 3162 H 301.813 3.91228 -0.483106 0
M  V30 3163 H 303.101 5.08558 -0.157004 0
M  V30 3164 H 302.499 4.7895 3.01037 0
M  V30 3165 H 301.056 5.71339 3.13712 0
M  V30 3166 N 304.489 0.459591 1.5075 0
M  V30 3167 C 305.735 -0.0994966 2.02556 0
M  V30 3168 C 306.068 -1.40399 1.3417 0
M  V30 3169 O 305.343 -1.88892 0.463683 0
M  V30 3170 C 305.626 -0.295242 3.58888 0
M  V30 3171 C 305.479 1.02947 4.37861 0
M  V30 3172 C 306.798 -1.05502 4.27267 0
M  V30 3173 H 303.917 -0.034686 0.736183 0
M  V30 3174 H 306.559 0.602938 1.8018 0
M  V30 3175 H 304.709 -0.893563 3.78084 0
M  V30 3176 H 306.381 1.66348 4.30263 0
M  V30 3177 H 304.624 1.62885 4.02058 0
M  V30 3178 H 305.295 0.846281 5.45474 0
M  V30 3179 H 307.771 -0.547993 4.12476 0
M  V30 3180 H 306.647 -1.16077 5.36486 0
M  V30 3181 H 306.908 -2.08875 3.89645 0
M  V30 3182 N 305.967 -1.56429 0.191757 0
M  V30 3183 C 306.93 -2.17707 -0.716688 0
M  V30 3184 C 307.93 -1.13061 -1.14341 0
M  V30 3185 O 309.12 -1.38464 -1.05704 0
M  V30 3186 C 306.252 -2.77644 -1.97804 0
M  V30 3187 H 307.445 -2.99342 -0.1829 0
M  V30 3188 H 304.998 -1.56193 -0.0578566 0
M  V30 3189 H 305.733 -1.99799 -2.55443 0
M  V30 3190 H 305.518 -3.54246 -1.68083 0
M  V30 3191 H 307.008 -3.24708 -2.62592 0
M  V30 3192 N 307.445 0.0818655 -1.57387 0
M  V30 3193 C 308.691 0.784074 -1.8703 0
M  V30 3194 C 309.024 1.77729 -0.782689 0
M  V30 3195 O 308.299 1.93384 0.208051 0
M  V30 3196 C 308.582 1.50105 -3.27323 0
M  V30 3197 C 308.435 0.524925 -4.46727 0
M  V30 3198 C 309.754 2.44843 -3.65705 0
M  V30 3199 H 306.873 0.283582 -0.680257 0
M  V30 3200 H 309.515 0.0474352 -1.89941 0
M  V30 3201 H 307.665 2.12897 -3.24972 0
M  V30 3202 H 309.337 -0.0970111 -4.61198 0
M  V30 3203 H 307.58 -0.160606 -4.33503 0
M  V30 3204 H 308.251 1.064 -5.41648 0
M  V30 3205 H 310.727 1.92135 -3.69085 0
M  V30 3206 H 309.603 2.92018 -4.64776 0
M  V30 3207 H 309.864 3.29197 -2.95096 0
M  V30 3208 N 308.923 1.53595 0.353017 0
M  V30 3209 C 310.171 1.70049 1.09215 0
M  V30 3210 C 310.492 0.461406 1.89463 0
M  V30 3211 O 309.762 -0.524633 1.88744 0
M  V30 3212 H 308.342 0.626912 0.40619 0
M  V30 3213 H 311.004 1.90822 0.396585 0
M  V30 3214 H 310.1 2.56718 1.77488 0
M  V30 3215 N 310.401 -0.613514 1.45168 0
M  V30 3216 C 311.817 -0.933629 1.29443 0
M  V30 3217 C 312.017 -2.00028 0.243101 0
M  V30 3218 O 311.073 -2.49848 -0.364992 0
M  V30 3219 C 312.386 -1.38018 2.67155 0
M  V30 3220 C 313.934 -1.49471 2.75004 0
M  V30 3221 C 314.409 -1.97503 4.13227 0
M  V30 3222 N 315.9 -2.04746 4.15491 0
M  V30 3223 C 316.635 -2.43121 5.19307 0
M  V30 3224 N 316.131 -2.80506 6.33473 0
M  V30 3225 N 317.924 -2.43408 5.06664 0
M  V30 3226 H 310.075 0.0916097 2.12202 0
M  V30 3227 H 312.338 -0.0216655 0.947752 0
M  V30 3228 H 312.044 -0.670625 3.45247 0
M  V30 3229 H 311.918 -2.34784 2.95222 0
M  V30 3230 H 314.305 -2.19519 1.9722 0
M  V30 3231 H 314.386 -0.510342 2.50657 0
M  V30 3232 H 314.03 -1.28045 4.91495 0
M  V30 3233 H 313.96 -2.96843 4.34962 0
M  V30 3234 H 316.451 -1.78468 3.33103 0
M  V30 3235 H 316.764 -3.08652 7.08487 0
M  V30 3236 H 315.109 -2.78216 6.36884 0
M  V30 3237 H 318.3 -2.13604 4.16523 0
M  V30 3238 H 318.473 -2.72989 5.87691 0
M  V30 3239 N 311.879 -1.3236 -0.855495 0
M  V30 3240 C 313.295 -1.11332 -1.14356 0
M  V30 3241 C 313.495 0.106751 -2.01217 0
M  V30 3242 O 312.551 0.791891 -2.39761 0
M  V30 3243 C 313.864 -2.39237 -1.82171 0
M  V30 3244 C 315.412 -2.44986 -1.9481 0
M  V30 3245 C 315.887 -3.7281 -2.66039 0
M  V30 3246 N 317.378 -3.73787 -2.73565 0
M  V30 3247 C 318.113 -4.69394 -3.29327 0
M  V30 3248 N 317.609 -5.75367 -3.85907 0
M  V30 3249 N 319.402 -4.56893 -3.27423 0
M  V30 3250 H 311.553 -2.10586 -0.277027 0
M  V30 3251 H 313.816 -0.929701 -0.185364 0
M  V30 3252 H 313.522 -3.28431 -1.25802 0
M  V30 3253 H 313.396 -2.50134 -2.82335 0
M  V30 3254 H 315.783 -1.56252 -2.50338 0
M  V30 3255 H 315.864 -2.38043 -0.936448 0
M  V30 3256 H 315.508 -4.61918 -2.11174 0
M  V30 3257 H 315.438 -3.77024 -3.67642 0
M  V30 3258 H 317.929 -2.97189 -2.33424 0
M  V30 3259 H 318.242 -6.44378 -4.26611 0
M  V30 3260 H 316.587 -5.79123 -3.84242 0
M  V30 3261 H 319.778 -3.73269 -2.82467 0
M  V30 3262 H 319.951 -5.31577 -3.7058 0
M  V30 3263 N 313.357 1.07166 -1.15556 0
M  V30 3264 C 314.634 1.76546 -0.842069 0
M  V30 3265 C 315.014 2.00453 0.661939 0
M  V30 3266 O 314.362 1.62452 1.60691 0
M  V30 3267 C 314.572 3.07266 -1.65495 0
M  V30 3268 C 315.92 3.81578 -1.86234 0
M  V30 3269 O 316.944 3.17083 -1.62287 0
M  V30 3270 O 315.803 4.97419 -2.26355 0
M  V30 3271 H 312.897 0.766756 -0.309862 0
M  V30 3272 H 315.443 1.13514 -1.26145 0
M  V30 3273 H 314.215 2.85494 -2.67598 0
M  V30 3274 H 313.838 3.7803 -1.23203 0
M  V30 3275 N 314.835 0.952656 1.25548 0
M  V30 3276 C 316.06 0.623025 1.97821 0
M  V30 3277 C 316.485 -0.7976 1.70352 0
M  V30 3278 O 315.843 -1.53905 0.958283 0
M  V30 3279 C 315.891 0.885532 3.49558 0
M  V30 3280 O 314.995 -0.0366641 4.12384 0
M  V30 3281 H 314.336 0.237082 0.620232 0
M  V30 3282 H 316.866 1.27871 1.59719 0
M  V30 3283 H 316.876 0.811009 3.99858 0
M  V30 3284 H 315.551 1.92094 3.6888 0
M  V30 3285 H 314.128 0.0898954 3.72792 0
M  V30 3286 N 316.313 -1.40141 0.720998 0
M  V30 3287 C 317.243 -2.33339 0.0867621 0
M  V30 3288 C 318.224 -1.53178 -0.739622 0
M  V30 3289 O 319.409 -1.81625 -0.687449 0
M  V30 3290 C 316.539 -3.37194 -0.831728 0
M  V30 3291 C 315.493 -4.27857 -0.110558 0
M  V30 3292 C 314.819 -5.22294 -1.14513 0
M  V30 3293 C 316.119 -5.11872 1.0385 0
M  V30 3294 H 317.813 -2.86626 0.865219 0
M  V30 3295 H 315.359 -1.37814 0.417516 0
M  V30 3296 H 317.312 -4.01335 -1.28485 0
M  V30 3297 H 316.036 -2.82314 -1.64214 0
M  V30 3298 H 314.695 -3.65176 0.322797 0
M  V30 3299 H 314.343 -4.63717 -1.94874 0
M  V30 3300 H 314.043 -5.83797 -0.667446 0
M  V30 3301 H 315.567 -5.89312 -1.59824 0
M  V30 3302 H 316.981 -5.69436 0.664482 0
M  V30 3303 H 315.378 -5.82445 1.4449 0
M  V30 3304 H 316.448 -4.4753 1.86668 0
M  V30 3305 N 317.792 -0.46758 -1.50504 0
M  V30 3306 C 318.755 0.317059 -2.26996 0
M  V30 3307 C 319.755 0.923513 -1.31635 0
M  V30 3308 O 320.945 0.793239 -1.55091 0
M  V30 3309 C 318.077 1.45134 -3.08462 0
M  V30 3310 H 319.27 -0.353723 -2.97807 0
M  V30 3311 H 316.823 -0.221545 -1.54722 0
M  V30 3312 H 317.558 2.15728 -2.4214 0
M  V30 3313 H 317.343 1.02232 -3.78538 0
M  V30 3314 H 318.833 2.00493 -3.66323 0
M  V30 3315 N 319.27 1.56325 -0.20005 0
M  V30 3316 C 320.519 1.96895 0.437652 0
M  V30 3317 C 320.832 1.08999 1.62415 0
M  V30 3318 O 322.038 1.39372 2.32997 0
M  V30 3319 C 320.494 3.50198 0.830025 0
M  V30 3320 C 320.102 4.46765 -0.332461 0
M  V30 3321 C 321.846 3.99526 1.43453 0
M  V30 3322 C 319.753 5.91344 0.0811468 0
M  V30 3323 H 318.683 0.735209 0.167282 0
M  V30 3324 H 321.334 1.81148 -0.292853 0
M  V30 3325 H 319.716 3.61467 1.61734 0
M  V30 3326 H 320.89 4.47231 -1.11 0
M  V30 3327 H 319.205 4.07657 -0.848789 0
M  V30 3328 H 321.802 5.05025 1.75652 0
M  V30 3329 H 322.145 3.44122 2.34277 0
M  V30 3330 H 322.678 3.91393 0.71109 0
M  V30 3331 H 319.417 6.50685 -0.793033 0
M  V30 3332 H 318.937 5.94121 0.823445 0
M  V30 3333 H 320.616 6.44945 0.515252 0
M  V30 3334 N 320.748 -0.0735177 1.57428 0
M  V30 3335 C 321.995 -0.772999 1.87166 0
M  V30 3336 C 322.323 -1.77665 0.791551 0
M  V30 3337 O 321.578 -1.94541 -0.212636 0
M  V30 3338 C 321.877 -1.51799 3.23561 0
M  V30 3339 C 321.543 -0.654484 4.46125 0
M  V30 3340 C 320.205 -0.416511 4.79394 0
M  V30 3341 C 322.557 -0.0555862 5.2117 0
M  V30 3342 C 319.885 0.429869 5.85123 0
M  V30 3343 C 322.237 0.778239 6.27795 0
M  V30 3344 C 320.901 1.0261 6.59566 0
M  V30 3345 H 320.171 -0.282861 0.684888 0
M  V30 3346 H 322.818 -0.0338272 1.9147 0
M  V30 3347 H 321.123 -2.32932 3.1504 0
M  V30 3348 H 322.82 -2.06397 3.43804 0
M  V30 3349 H 319.41 -0.850091 4.20085 0
M  V30 3350 H 323.594 -0.226558 4.95783 0
M  V30 3351 H 318.85 0.630665 6.08139 0
M  V30 3352 H 323.024 1.24906 6.85107 0
M  V30 3353 H 320.651 1.68371 7.4132 0
M  V30 3354 N 322.226 -1.5378 -0.344866 0
M  V30 3355 C 323.474 -1.70625 -1.08311 0
M  V30 3356 C 323.795 -0.471447 -1.89215 0
M  V30 3357 O 323.065 0.514616 -1.8902 0
M  V30 3358 H 321.645 -0.629058 -0.402859 0
M  V30 3359 H 324.307 -1.9103 -0.386459 0
M  V30 3360 H 323.403 -2.57656 -1.76124 0
M  V30 3361 N 323.704 0.605807 -1.45491 0
M  V30 3362 C 324.652 1.73754 -1.54636 0
M  V30 3363 C 325.646 1.64207 -0.416219 0
M  V30 3364 O 326.852 1.69979 -0.592199 0
M  V30 3365 H 323.227 0.574073 -0.485741 0
M  V30 3366 H 325.198 1.63169 -2.49837 0
M  V30 3367 C 323.947 3.12135 -1.53189 0
M  V30 3368 H 323.27 3.20141 -2.39478 0
M  V30 3369 H 324.71 3.91147 -1.63645 0
M  V30 3370 C 323.169 3.35921 -0.256616 0
M  V30 3371 O 323.699 3.96194 0.662798 0
M  V30 3372 N 321.905 2.90204 -0.151751 0
M  V30 3373 H 321.452 2.41336 -0.90081 0
M  V30 3374 H 321.41 3.06492 0.700699 0
M  V30 3375 N 325.182 1.32811 0.848464 0
M  V30 3376 C 326.459 1.14334 1.58704 0
M  V30 3377 C 326.839 -0.293948 2.09043 0
M  V30 3378 O 326.187 -1.29153 1.88499 0
M  V30 3379 C 326.397 2.17626 2.72837 0
M  V30 3380 C 327.745 2.51282 3.42261 0
M  V30 3381 O 328.769 2.16219 2.83068 0
M  V30 3382 O 327.628 3.11413 4.49093 0
M  V30 3383 H 324.722 0.441601 0.699226 0
M  V30 3384 H 327.268 1.44362 0.892053 0
M  V30 3385 H 326.04 3.14211 2.3321 0
M  V30 3386 H 325.663 1.88628 3.50008 0
M  V30 3387 N 326.66 -1.06551 1.16123 0
M  V30 3388 C 327.89 -1.8274 0.963838 0
M  V30 3389 C 328.298 -1.82712 -0.491228 0
M  V30 3390 O 327.641 -1.24294 -1.35265 0
M  V30 3391 C 327.703 -3.3065 1.41106 0
M  V30 3392 C 327.367 -3.54384 2.88549 0
M  V30 3393 C 328.364 -3.4765 3.86569 0
M  V30 3394 C 326.049 -3.81789 3.26408 0
M  V30 3395 C 328.043 -3.67982 5.2045 0
M  V30 3396 C 325.73 -4.01772 4.60459 0
M  V30 3397 C 326.728 -3.94866 5.57288 0
M  V30 3398 O 326.416 -4.14306 6.88916 0
M  V30 3399 H 326.148 -0.583136 0.341948 0
M  V30 3400 H 328.702 -1.35351 1.54497 0
M  V30 3401 H 326.932 -3.78887 0.773394 0
M  V30 3402 H 328.621 -3.88324 1.1815 0
M  V30 3403 H 329.387 -3.2647 3.58667 0
M  V30 3404 H 325.266 -3.86276 2.51619 0
M  V30 3405 H 328.81 -3.62507 5.96015 0
M  V30 3406 H 324.707 -4.2244 4.88072 0
M  V30 3407 H 325.475 -4.31609 6.95454 0
M  V30 3408 N 328.138 -0.959301 -1.25041 0
M  V30 3409 C 329.549 -0.65667 -1.74771 0
M  V30 3410 C 329.9 0.827852 -1.77879 0
M  V30 3411 O 329.025 1.64783 -1.40269 0
M  V30 3412 C 329.62 -1.1853 -3.1739 0
M  V30 3413 C 328.179 -0.932734 -3.6466 0
M  V30 3414 C 327.326 -1.32558 -2.43564 0
M  V30 3415 H 330.277 -1.13558 -1.10862 0
M  V30 3416 H 330.298 -0.547582 -3.76539 0
M  V30 3417 H 329.81 -2.26576 -3.15095 0
M  V30 3418 H 327.911 0.13257 -3.72364 0
M  V30 3419 H 328.024 -1.57248 -4.52559 0
M  V30 3420 H 326.388 -0.743956 -2.43593 0
M  V30 3421 H 327.171 -2.41537 -2.43957 0
M  V30 3422 N 329.616 1.39756 -0.72842 0
M  V30 3423 C 330.844 2.04948 -0.283528 0
M  V30 3424 C 331.259 1.54908 1.0793 0
M  V30 3425 O 330.616 0.711135 1.68075 0
M  V30 3426 C 330.667 3.60498 -0.268957 0
M  V30 3427 O 330.388 4.08695 -1.57798 0
M  V30 3428 C 331.889 4.4288 0.192912 0
M  V30 3429 H 329.109 0.659243 -0.125056 0
M  V30 3430 H 331.653 1.78927 -0.990226 0
M  V30 3431 H 329.808 3.85444 0.388801 0
M  V30 3432 H 330.222 5.02977 -1.48709 0
M  V30 3433 H 331.696 5.51791 0.151952 0
M  V30 3434 H 332.173 4.21418 1.23708 0
M  V30 3435 H 332.779 4.23069 -0.435039 0
M  V30 3436 N 331.094 0.475555 1.50254 0
M  V30 3437 C 332.004 -0.321501 2.32387 0
M  V30 3438 C 333.02 -0.991755 1.42969 0
M  V30 3439 O 334.196 -0.978747 1.76018 0
M  V30 3440 C 331.261 -1.38667 3.17762 0
M  V30 3441 C 330.322 -0.732538 4.23004 0
M  V30 3442 C 329.555 -1.74695 5.04299 0
M  V30 3443 O 329.778 -2.97399 4.86734 0
M  V30 3444 O 328.712 -1.31631 5.8733 0
M  V30 3445 H 332.538 0.350071 3.01676 0
M  V30 3446 H 330.123 0.237321 1.47503 0
M  V30 3447 H 332.005 -2.00354 3.70724 0
M  V30 3448 H 330.68 -2.04163 2.51196 0
M  V30 3449 H 329.587 -0.0765902 3.74022 0
M  V30 3450 H 330.92 -0.120452 4.92053 0
M  V30 3451 N 332.573 -1.56217 0.208337 0
M  V30 3452 C 333.85 -1.89739 -0.475234 0
M  V30 3453 C 334.23 -1.1238 -1.78701 0
M  V30 3454 O 333.578 -0.228979 -2.2735 0
M  V30 3455 C 333.788 -3.42289 -0.681101 0
M  V30 3456 C 335.136 -4.12789 -0.994507 0
M  V30 3457 O 336.16 -3.47814 -0.768357 0
M  V30 3458 O 335.019 -5.27649 -1.42299 0
M  V30 3459 H 332.113 -0.788478 -0.249461 0
M  V30 3460 H 334.659 -1.67855 0.249538 0
M  V30 3461 H 333.431 -3.90534 0.244722 0
M  V30 3462 H 333.054 -3.69909 -1.45785 0
M  V30 3463 N 334.051 0.0651679 -1.57465 0
M  V30 3464 C 335.299 0.761555 -1.87202 0
M  V30 3465 C 335.62 1.77778 -0.801243 0
M  V30 3466 O 334.89 1.95166 0.16937 0
M  V30 3467 H 333.47 0.284251 -0.690804 0
M  V30 3468 H 336.132 0.0396827 -1.9486 0
M  V30 3469 H 335.228 1.27365 -2.84929 0
M  V30 3470 N 335.529 1.53961 0.336706 0
M  V30 3471 C 336.757 1.75483 1.09605 0
M  V30 3472 C 337.172 0.4972 1.82136 0
M  V30 3473 O 336.529 -0.53149 1.74589 0
M  V30 3474 C 336.58 2.93943 2.10428 0
M  V30 3475 O 336.301 4.14842 1.40846 0
M  V30 3476 C 337.802 3.27571 2.98684 0
M  V30 3477 H 335.022 0.586166 0.326574 0
M  V30 3478 H 337.566 2.00808 0.38683 0
M  V30 3479 H 335.721 2.70929 2.76905 0
M  V30 3480 H 336.135 4.81383 2.08255 0
M  V30 3481 H 337.609 4.13791 3.6535 0
M  V30 3482 H 338.086 2.44168 3.65074 0
M  V30 3483 H 338.692 3.52615 2.37787 0
M  V30 3484 N 337.007 -0.598083 1.45811 0
M  V30 3485 C 338.255 -1.35413 1.50026 0
M  V30 3486 C 338.576 -1.94444 0.147177 0
M  V30 3487 O 337.846 -1.77701 -0.824571 0
M  V30 3488 H 336.426 -0.502727 0.552517 0
M  V30 3489 H 339.088 -0.701606 1.81834 0
M  V30 3490 H 338.184 -2.16871 2.2444 0
M  V30 3491 N 338.485 -1.33259 -0.841409 0
M  V30 3492 C 339.731 -1.24757 -1.59886 0
M  V30 3493 C 340.064 0.186913 -1.93298 0
M  V30 3494 O 339.339 1.12757 -1.5848 0
M  V30 3495 C 339.622 -2.12036 -2.91055 0
M  V30 3496 C 339.475 -3.63929 -2.6434 0
M  V30 3497 C 340.794 -1.9916 -3.92458 0
M  V30 3498 H 337.913 -0.454542 -0.580138 0
M  V30 3499 H 340.555 -1.63335 -0.970647 0
M  V30 3500 H 338.705 -1.79265 -3.44669 0
M  V30 3501 H 340.377 -4.06978 -2.17178 0
M  V30 3502 H 338.62 -3.85935 -1.98082 0
M  V30 3503 H 339.291 -4.20341 -3.57796 0
M  V30 3504 H 341.767 -2.27895 -3.48143 0
M  V30 3505 H 340.643 -2.62484 -4.82072 0
M  V30 3506 H 340.904 -0.963082 -4.31482 0
M  V30 3507 N 339.963 1.05934 -1.16686 0
M  V30 3508 C 341.379 1.30938 -0.912542 0
M  V30 3509 C 341.579 1.96803 0.432533 0
M  V30 3510 O 340.635 2.23693 1.17123 0
M  V30 3511 C 341.948 2.18649 -2.06429 0
M  V30 3512 C 343.496 2.32055 -2.10047 0
M  V30 3513 C 343.971 3.23122 -3.24586 0
M  V30 3514 N 345.462 3.30706 -3.24327 0
M  V30 3515 C 346.197 4.01273 -4.09594 0
M  V30 3516 N 345.693 4.74332 -5.04956 0
M  V30 3517 N 347.486 3.97361 -3.97569 0
M  V30 3518 H 339.637 0.615777 -2.03278 0
M  V30 3519 H 341.9 0.334077 -0.887185 0
M  V30 3520 H 341.606 1.77534 -3.03603 0
M  V30 3521 H 341.48 3.19252 -2.00894 0
M  V30 3522 H 343.867 2.72415 -1.13464 0
M  V30 3523 H 343.948 1.31107 -2.19647 0
M  V30 3524 H 343.592 2.83477 -4.2143 0
M  V30 3525 H 343.522 4.24057 -3.12223 0
M  V30 3526 H 346.013 2.78644 -2.55276 0
M  V30 3527 H 346.326 5.25716 -5.6643 0
M  V30 3528 H 344.671 4.733 -5.08933 0
M  V30 3529 H 347.862 3.39405 -3.22369 0
M  V30 3530 H 348.035 4.52089 -4.64241 0
M  V30 3531 N 341.441 0.965919 1.2453 0
M  V30 3532 C 342.718 0.543777 1.87889 0
M  V30 3533 C 343.098 -0.97909 1.87021 0
M  V30 3534 O 342.446 -1.84969 1.3416 0
M  V30 3535 C 342.656 1.13327 3.30088 0
M  V30 3536 C 344.004 1.21707 4.06783 0
M  V30 3537 O 345.028 1.08566 3.39252 0
M  V30 3538 O 343.887 1.42456 5.27606 0
M  V30 3539 H 340.981 0.181054 0.806938 0
M  V30 3540 H 343.527 1.06007 1.32516 0
M  V30 3541 H 342.299 2.17612 3.25209 0
M  V30 3542 H 341.922 0.600911 3.93033 0
M  V30 3543 N 342.919 -1.39368 0.735821 0
M  V30 3544 C 344.149 -2.04498 0.293967 0
M  V30 3545 C 344.557 -1.55593 -1.07645 0
M  V30 3546 O 343.9 -0.716324 -1.69158 0
M  V30 3547 C 343.962 -3.58836 0.218342 0
M  V30 3548 C 343.626 -4.30721 1.52736 0
M  V30 3549 C 344.623 -4.57305 2.47322 0
M  V30 3550 C 342.308 -4.69251 1.79189 0
M  V30 3551 C 344.302 -5.21429 3.66593 0
M  V30 3552 C 341.989 -5.33104 2.98737 0
M  V30 3553 C 342.987 -5.59125 3.9226 0
M  V30 3554 O 342.675 -6.21653 5.09708 0
M  V30 3555 H 342.407 -0.664118 0.126189 0
M  V30 3556 H 344.961 -1.79385 1.00051 0
M  V30 3557 H 343.191 -3.8285 -0.544314 0
M  V30 3558 H 344.88 -4.05447 -0.191626 0
M  V30 3559 H 345.646 -4.27983 2.28156 0
M  V30 3560 H 341.525 -4.48354 1.07239 0
M  V30 3561 H 345.069 -5.41656 4.39607 0
M  V30 3562 H 340.966 -5.61846 3.17803 0
M  V30 3563 H 341.734 -6.40146 5.10054 0
M  V30 3564 N 344.397 -0.483516 -1.5 0
M  V30 3565 C 345.646 0.0689102 -2.01582 0
M  V30 3566 C 345.959 1.39655 -1.36952 0
M  V30 3567 O 347.165 2.03465 -1.79762 0
M  V30 3568 C 345.621 0.173302 -3.59483 0
M  V30 3569 C 345.229 -1.14665 -4.33077 0
M  V30 3570 C 346.973 0.677024 -4.19066 0
M  V30 3571 C 344.88 -1.00537 -5.82792 0
M  V30 3572 H 343.81 0.0295277 -0.753422 0
M  V30 3573 H 346.461 -0.620295 -1.72698 0
M  V30 3574 H 344.843 0.926569 -3.85007 0
M  V30 3575 H 346.017 -1.91184 -4.19268 0
M  V30 3576 H 344.332 -1.58244 -3.85159 0
M  V30 3577 H 346.929 0.799952 -5.28682 0
M  V30 3578 H 347.272 1.67151 -3.81269 0
M  V30 3579 H 347.805 -0.0192083 -3.97795 0
M  V30 3580 H 344.544 -1.9736 -6.25083 0
M  V30 3581 H 344.064 -0.280776 -5.99142 0
M  V30 3582 H 345.743 -0.677 -6.43448 0
M  V30 3583 N 345.875 1.56104 -0.216619 0
M  V30 3584 C 346.825 2.16703 0.708798 0
M  V30 3585 C 347.809 1.11392 1.16106 0
M  V30 3586 O 349.001 1.37395 1.11587 0
M  V30 3587 C 346.13 2.84666 1.91886 0
M  V30 3588 C 345.216 3.97195 1.48651 0
M  V30 3589 N 345.607 4.99959 0.766434 0
M  V30 3590 C 343.905 4.09193 1.77418 0
M  V30 3591 C 344.606 5.79126 0.546659 0
M  V30 3592 N 343.582 5.32315 1.10188 0
M  V30 3593 H 347.384 2.93516 0.150162 0
M  V30 3594 H 344.898 1.6239 -0.0176768 0
M  V30 3595 H 346.895 3.26486 2.59253 0
M  V30 3596 H 345.555 2.09347 2.48202 0
M  V30 3597 H 346.566 5.16197 0.419634 0
M  V30 3598 H 343.243 3.45021 2.35088 0
M  V30 3599 H 344.633 6.71895 -0.026103 0
M  V30 3600 N 347.353 -0.0568162 1.57498 0
M  V30 3601 C 348.599 -0.75422 1.88253 0
M  V30 3602 C 348.932 -1.76461 0.810865 0
M  V30 3603 O 348.207 -1.93691 -0.177259 0
M  V30 3604 C 348.49 -1.44878 3.2967 0
M  V30 3605 C 348.343 -0.453789 4.47505 0
M  V30 3606 C 349.662 -2.38994 3.69554 0
M  V30 3607 H 346.781 -0.272724 0.684683 0
M  V30 3608 H 349.423 -0.0172113 1.89992 0
M  V30 3609 H 347.573 -2.077 3.28318 0
M  V30 3610 H 349.245 0.170371 4.60985 0
M  V30 3611 H 347.488 0.229552 4.33192 0
M  V30 3612 H 348.159 -0.977699 5.43273 0
M  V30 3613 H 350.635 -1.86239 3.72095 0
M  V30 3614 H 349.511 -2.84587 4.69363 0
M  V30 3615 H 349.772 -3.24461 3.00296 0
M  V30 3616 N 348.832 -1.54138 -0.328536 0
M  V30 3617 C 349.765 -1.78014 -1.4278 0
M  V30 3618 C 350.743 -0.629889 -1.49904 0
M  V30 3619 O 351.927 -0.866763 -1.6739 0
M  V30 3620 C 349.054 -1.89225 -2.80912 0
M  V30 3621 C 348.1 -3.11483 -2.91343 0
M  V30 3622 S 348.933 -4.70201 -2.56263 0
M  V30 3623 C 350.089 -4.84312 -3.96476 0
M  V30 3624 H 350.322 -2.70974 -1.22313 0
M  V30 3625 H 347.855 -1.45197 -0.525084 0
M  V30 3626 H 349.813 -1.9637 -3.60485 0
M  V30 3627 H 348.474 -0.972518 -2.98665 0
M  V30 3628 H 347.667 -3.16046 -3.92595 0
M  V30 3629 H 347.269 -3.02642 -2.19736 0
M  V30 3630 H 349.561 -4.66643 -4.91173 0
M  V30 3631 H 350.504 -5.86411 -3.96898 0
M  V30 3632 H 350.912 -4.12652 -3.85199 0
M  V30 3633 N 350.31 0.590341 -1.46126 0
M  V30 3634 C 351.587 1.35029 -1.41515 0
M  V30 3635 C 351.967 2.10888 -0.0946472 0
M  V30 3636 O 351.315 2.08998 0.923693 0
M  V30 3637 C 351.525 2.28269 -2.63997 0
M  V30 3638 C 352.873 2.90338 -3.09821 0
M  V30 3639 O 353.897 2.38585 -2.64492 0
M  V30 3640 O 352.756 3.84321 -3.88535 0
M  V30 3641 H 349.85 0.606317 -0.562413 0
M  V30 3642 H 352.396 0.611994 -1.58281 0
M  V30 3643 H 351.168 1.71591 -3.51671 0
M  V30 3644 H 350.791 3.0945 -2.49652 0
M  V30 3645 N 351.788 1.33704 0.83433 0
M  V30 3646 C 352.718 1.26967 1.95963 0
M  V30 3647 C 353.699 0.149337 1.69443 0
M  V30 3648 O 354.884 0.339852 1.91203 0
M  V30 3649 C 352.014 1.01275 3.32206 0
M  V30 3650 C 350.968 2.09652 3.73136 0
M  V30 3651 C 350.294 1.69166 5.07235 0
M  V30 3652 C 351.594 3.51372 3.86439 0
M  V30 3653 H 353.288 2.2112 2.01857 0
M  V30 3654 H 350.834 1.06447 0.969793 0
M  V30 3655 H 352.787 0.952106 4.10503 0
M  V30 3656 H 351.511 0.0356203 3.26581 0
M  V30 3657 H 350.17 2.14766 2.97104 0
M  V30 3658 H 349.818 0.701437 4.98085 0
M  V30 3659 H 349.518 2.41694 5.35591 0
M  V30 3660 H 351.042 1.64576 5.88003 0
M  V30 3661 H 352.456 3.48734 4.55036 0
M  V30 3662 H 350.853 4.22425 4.26236 0
M  V30 3663 H 351.923 3.89546 2.88759 0
M  V30 3664 N 353.266 -1.05314 1.17247 0
M  V30 3665 C 354.229 -2.112 0.890357 0
M  V30 3666 C 355.229 -1.60359 -0.118943 0
M  V30 3667 O 356.419 -1.73833 0.113086 0
M  V30 3668 C 353.551 -3.39266 0.333422 0
M  V30 3669 H 354.744 -2.37659 1.82916 0
M  V30 3670 H 352.297 -1.21538 0.982758 0
M  V30 3671 H 353.032 -3.18462 -0.612587 0
M  V30 3672 H 352.817 -3.77477 1.06082 0
M  V30 3673 H 354.307 -4.17315 0.154322 0
M  V30 3674 N 354.744 -0.972509 -1.24016 0
M  V30 3675 C 356.021 -0.553733 -1.87598 0
M  V30 3676 C 356.401 0.969158 -1.87538 0
M  V30 3677 O 355.749 1.84255 -1.35139 0
M  V30 3678 C 355.959 -1.15076 -3.29482 0
M  V30 3679 C 357.307 -1.23862 -4.06132 0
M  V30 3680 O 358.331 -1.10363 -3.38672 0
M  V30 3681 O 357.19 -1.45252 -5.26844 0
M  V30 3682 H 354.284 -0.185331 -0.805966 0
M  V30 3683 H 356.83 -1.06709 -1.31952 0
M  V30 3684 H 355.602 -2.19333 -3.2405 0
M  V30 3685 H 355.225 -0.621746 -3.92709 0
M  V30 3686 N 356.222 1.38976 -0.743202 0
M  V30 3687 C 357.47 1.99948 -0.29417 0
M  V30 3688 C 357.791 1.59279 1.12495 0
M  V30 3689 O 357.061 0.844808 1.76748 0
M  V30 3690 H 355.641 0.739473 -0.105774 0
M  V30 3691 H 358.303 1.699 -0.954986 0
M  V30 3692 H 357.399 3.10142 -0.349056 0
M  V30 3693 N 357.7 0.491464 1.49741 0
M  V30 3694 C 358.65 -0.311086 2.25868 0
M  V30 3695 C 359.634 -0.943857 1.30308 0
M  V30 3696 O 360.826 -0.853035 1.55088 0
M  V30 3697 C 357.955 -1.38059 3.14316 0
M  V30 3698 C 357.041 -0.754541 4.17334 0
M  V30 3699 N 357.432 0.137216 5.05614 0
M  V30 3700 C 355.73 -1.01621 4.34269 0
M  V30 3701 C 356.431 0.494614 5.79593 0
M  V30 3702 N 355.407 -0.135169 5.43432 0
M  V30 3703 H 359.209 0.37555 2.91491 0
M  V30 3704 H 356.723 0.306917 1.59473 0
M  V30 3705 H 358.72 -1.96891 3.67477 0
M  V30 3706 H 357.38 -2.06901 2.50244 0
M  V30 3707 H 358.391 0.50741 5.15408 0
M  V30 3708 H 355.068 -1.69808 3.81407 0
M  V30 3709 H 356.458 1.2236 6.60665 0
M  V30 3710 N 359.178 -1.55987 0.224894 0
M  V30 3711 C 360.424 -1.98684 -0.406502 0
M  V30 3712 C 360.757 -1.11248 -1.59177 0
M  V30 3713 O 360.032 -0.170909 -1.93748 0
M  V30 3714 C 360.315 -3.50218 -0.837808 0
M  V30 3715 C 360.168 -4.48426 0.351332 0
M  V30 3716 C 361.487 -4.06243 -1.69278 0
M  V30 3717 H 358.606 -0.722337 -0.146283 0
M  V30 3718 H 361.248 -1.87255 0.321799 0
M  V30 3719 H 359.398 -3.60089 -1.45837 0
M  V30 3720 H 361.07 -4.50562 0.989526 0
M  V30 3721 H 359.313 -4.22159 0.998207 0
M  V30 3722 H 359.984 -5.52 0.00655905 0
M  V30 3723 H 362.46 -3.99337 -1.16914 0
M  V30 3724 H 361.336 -5.12581 -1.96346 0
M  V30 3725 H 361.597 -3.53332 -2.65723 0
M  V30 3726 N 360.656 0.0484629 -1.57525 0
M  V30 3727 C 361.902 0.744226 -1.88651 0
M  V30 3728 C 362.235 1.76029 -0.820212 0
M  V30 3729 O 361.51 1.93782 0.166985 0
M  V30 3730 C 361.793 1.43128 -3.30434 0
M  V30 3731 C 361.646 0.43005 -4.47739 0
M  V30 3732 C 362.965 2.37031 -3.70816 0
M  V30 3733 H 360.084 0.269089 -0.68612 0
M  V30 3734 H 362.726 0.00713532 -1.89999 0
M  V30 3735 H 360.876 2.05956 -3.29415 0
M  V30 3736 H 362.548 -0.194816 -4.60888 0
M  V30 3737 H 360.791 -0.252522 -4.33064 0
M  V30 3738 H 361.462 0.948874 -5.43783 0
M  V30 3739 H 363.938 1.84263 -3.73077 0
M  V30 3740 H 362.814 2.82094 -4.70865 0
M  V30 3741 H 363.075 3.22864 -3.02012 0
M  V30 3742 N 362.134 1.5431 0.320358 0
M  V30 3743 C 363.097 1.83195 1.3774 0
M  V30 3744 C 364.097 0.703906 1.44575 0
M  V30 3745 O 365.287 0.972214 1.44546 0
M  V30 3746 C 362.419 1.99487 2.76438 0
M  V30 3747 H 363.612 2.77642 1.1338 0
M  V30 3748 H 361.165 1.46076 0.556012 0
M  V30 3749 H 361.9 1.07262 3.06048 0
M  V30 3750 H 361.685 2.81575 2.7287 0
M  V30 3751 H 363.175 2.23271 3.52902 0
M  V30 3752 N 363.613 -0.582584 1.46437 0
M  V30 3753 C 364.546 -1.70633 1.51524 0
M  V30 3754 C 365.524 -1.58349 0.369351 0
M  V30 3755 O 366.708 -1.79563 0.573516 0
M  V30 3756 C 363.835 -3.08687 1.39392 0
M  V30 3757 C 362.881 -3.3949 2.58164 0
M  V30 3758 S 363.714 -3.31548 4.20519 0
M  V30 3759 C 364.87 -4.72139 4.10896 0
M  V30 3760 H 365.103 -1.66058 2.46601 0
M  V30 3761 H 362.636 -0.761337 1.34324 0
M  V30 3762 H 364.594 -3.8833 1.33079 0
M  V30 3763 H 363.255 -3.10751 0.457436 0
M  V30 3764 H 362.448 -4.40071 2.45669 0
M  V30 3765 H 362.05 -2.67415 2.61468 0
M  V30 3766 H 364.342 -5.62527 3.77584 0
M  V30 3767 H 365.285 -4.89692 5.11476 0
M  V30 3768 H 365.693 -4.48995 3.42146 0
M  V30 3769 N 365.091 -1.34144 -0.827227 0
M  V30 3770 C 366.001 -1.27428 -1.96975 0
M  V30 3771 C 367.017 -0.182728 -1.73038 0
M  V30 3772 O 368.193 -0.408426 -1.97215 0
M  V30 3773 C 365.258 -1.02526 -3.31194 0
M  V30 3774 C 364.319 -2.20796 -3.68168 0
M  V30 3775 C 363.552 -1.97073 -4.95982 0
M  V30 3776 O 363.775 -0.926822 -5.6282 0
M  V30 3777 O 362.709 -2.83912 -5.30733 0
M  V30 3778 H 366.535 -2.23537 -2.05584 0
M  V30 3779 H 364.12 -1.14307 -0.961989 0
M  V30 3780 H 366.002 -0.904026 -4.11589 0
M  V30 3781 H 364.677 -0.0945389 -3.23562 0
M  V30 3782 H 363.584 -2.38477 -2.88235 0
M  V30 3783 H 364.917 -3.12243 -3.8048 0
M  V30 3784 N 366.569 1.04691 -1.17803 0
M  V30 3785 C 367.516 2.12557 -0.899343 0
M  V30 3786 C 368.486 1.65339 0.158771 0
M  V30 3787 O 369.671 1.90789 0.0204797 0
M  V30 3788 C 366.811 3.42481 -0.424315 0
M  V30 3789 C 365.924 4.03346 -1.54713 0
M  V30 3790 C 365.059 5.21208 -1.02546 0
M  V30 3791 C 364.098 5.74089 -2.12339 0
M  V30 3792 N 363.235 6.83247 -1.61612 0
M  V30 3793 H 368.075 2.35734 -1.823 0
M  V30 3794 H 365.612 1.1564 -0.909159 0
M  V30 3795 H 367.57 4.16996 -0.130421 0
M  V30 3796 H 366.2 3.19471 0.462377 0
M  V30 3797 H 365.252 3.2622 -1.95664 0
M  V30 3798 H 366.564 4.38628 -2.37501 0
M  V30 3799 H 365.718 6.02812 -0.685718 0
M  V30 3800 H 364.457 4.87414 -0.167084 0
M  V30 3801 H 363.462 4.91111 -2.47165 0
M  V30 3802 H 364.687 6.0993 -2.98601 0
M  V30 3803 H 362.633 6.5134 -0.780533 0
M  V30 3804 H 362.55 7.17559 -2.38003 0
M  V30 3805 H 363.818 7.68491 -1.30545 0
M  V30 3806 N 368.047 0.979072 1.23499 0
M  V30 3807 C 368.977 0.537606 2.27227 0
M  V30 3808 C 369.958 -0.428539 1.64613 0
M  V30 3809 O 371.143 -0.322191 1.91509 0
M  V30 3810 C 368.273 -0.162052 3.46922 0
M  V30 3811 C 367.227 0.721242 4.21879 0
M  V30 3812 C 366.553 -0.110555 5.34586 0
M  V30 3813 C 367.853 2.01141 4.82016 0
M  V30 3814 H 369.547 1.40462 2.64406 0
M  V30 3815 H 367.093 0.67684 1.27102 0
M  V30 3816 H 369.046 -0.482192 4.18632 0
M  V30 3817 H 367.77 -1.06351 3.08799 0
M  V30 3818 H 366.429 1.02482 3.51984 0
M  V30 3819 H 366.077 -1.0125 4.92704 0
M  V30 3820 H 365.777 0.477325 5.85658 0
M  V30 3821 H 367.301 -0.425107 6.09118 0
M  V30 3822 H 368.715 1.75612 5.45741 0
M  V30 3823 H 367.112 2.54695 5.43369 0
M  V30 3824 H 368.182 2.69909 4.02836 0
M  V30 3825 N 369.525 -1.3858 0.750561 0
M  V30 3826 C 370.488 -2.28836 0.129152 0
M  V30 3827 C 371.488 -1.47045 -0.650714 0
M  V30 3828 O 372.678 -1.6753 -0.477428 0
M  V30 3829 C 369.81 -3.30751 -0.825622 0
M  V30 3830 H 371.003 -2.85294 0.924516 0
M  V30 3831 H 368.556 -1.47489 0.517376 0
M  V30 3832 H 369.291 -2.79378 -1.64677 0
M  V30 3833 H 369.076 -3.91177 -0.268852 0
M  V30 3834 H 370.566 -3.98249 -1.2565 0
M  V30 3835 N 371.003 -0.499398 -1.49478 0
M  V30 3836 C 371.951 0.293604 -2.3074 0
M  V30 3837 C 372.945 0.96427 -1.39277 0
M  V30 3838 O 374.151 0.892141 -1.56336 0
M  V30 3839 H 370.526 0.113541 -0.743379 0
M  V30 3840 H 372.497 -0.411772 -2.95545 0
M  V30 3841 C 371.246 1.3462 -3.20582 0
M  V30 3842 H 370.569 0.83954 -3.90886 0
M  V30 3843 H 372.009 1.87308 -3.80384 0
M  V30 3844 C 370.468 2.36351 -2.40083 0
M  V30 3845 O 370.998 3.422 -2.10385 0
M  V30 3846 N 369.204 2.0878 -2.02137 0
M  V30 3847 H 368.751 1.22723 -2.26488 0
M  V30 3848 H 368.709 2.77075 -1.48583 0
M  V30 3849 N 372.481 1.55866 -0.233164 0
M  V30 3850 C 373.428 2.20796 0.67215 0
M  V30 3851 C 374.398 1.16731 1.18166 0
M  V30 3852 O 375.583 1.45129 1.23864 0
M  V30 3853 C 372.723 2.90072 1.86955 0
M  V30 3854 C 371.836 4.08759 1.39786 0
M  V30 3855 C 370.971 4.65787 2.55374 0
M  V30 3856 C 370.01 5.76752 2.04998 0
M  V30 3857 N 369.147 6.28021 3.13901 0
M  V30 3858 H 373.987 2.9779 0.111749 0
M  V30 3859 H 371.524 1.47036 0.0434007 0
M  V30 3860 H 373.482 3.28428 2.57276 0
M  V30 3861 H 372.112 2.15575 2.40265 0
M  V30 3862 H 371.164 3.7581 0.589173 0
M  V30 3863 H 372.476 4.88906 0.98856 0
M  V30 3864 H 371.63 5.06646 3.33758 0
M  V30 3865 H 370.369 3.84828 2.99598 0
M  V30 3866 H 369.374 5.35383 1.25079 0
M  V30 3867 H 370.599 6.59553 1.61759 0
M  V30 3868 H 368.545 5.49971 3.57586 0
M  V30 3869 H 368.462 7.03323 2.7726 0
M  V30 3870 H 369.73 6.73538 3.92386 0
M  V30 3871 N 373.959 -0.0401083 1.57549 0
M  V30 3872 C 375.37 -0.588097 1.77196 0
M  V30 3873 C 375.721 -1.76209 0.862832 0
M  V30 3874 O 374.846 -2.16331 0.0548389 0
M  V30 3875 C 375.441 -1.07363 3.21339 0
M  V30 3876 C 374 -1.56723 3.42221 0
M  V30 3877 C 373.147 -0.50041 2.72747 0
M  V30 3878 H 376.098 0.186119 1.57605 0
M  V30 3879 H 376.119 -1.94143 3.27244 0
M  V30 3880 H 375.631 -0.218975 3.87482 0
M  V30 3881 H 373.732 -2.4441 2.81237 0
M  V30 3882 H 373.845 -1.62234 4.50796 0
M  V30 3883 H 372.209 -0.952894 2.36203 0
M  V30 3884 H 372.992 0.344599 3.41566 0
M  V30 3885 N 375.437 -1.54477 -0.31217 0
M  V30 3886 C 376.685 -1.72884 -1.04668 0
M  V30 3887 C 377.006 -0.511477 -1.88173 0
M  V30 3888 O 376.276 0.474407 -1.90069 0
M  V30 3889 H 374.856 -0.637461 -0.389425 0
M  V30 3890 H 377.518 -1.91807 -0.345852 0
M  V30 3891 H 376.614 -2.61334 -1.70619 0
M  V30 3892 N 376.915 0.57481 -1.46744 0
M  V30 3893 C 378.161 1.3347 -1.52688 0
M  V30 3894 C 378.494 1.93353 -0.181229 0
M  V30 3895 O 377.769 1.76912 0.808237 0
M  V30 3896 C 378.052 2.45811 -2.63152 0
M  V30 3897 C 377.905 1.90912 -4.07275 0
M  V30 3898 C 379.224 3.47822 -2.69644 0
M  V30 3899 H 376.343 0.483935 -0.555856 0
M  V30 3900 H 378.985 0.644968 -1.78718 0
M  V30 3901 H 377.135 3.04646 -2.41088 0
M  V30 3902 H 378.807 1.36473 -4.4065 0
M  V30 3903 H 377.05 1.21691 -4.16382 0
M  V30 3904 H 377.721 2.72042 -4.80309 0
M  V30 3905 H 380.197 2.9888 -2.895 0
M  V30 3906 H 379.073 4.23876 -3.48742 0
M  V30 3907 H 379.334 4.05555 -1.76005 0
M  V30 3908 N 378.394 1.34581 0.820102 0
M  V30 3909 C 379.344 1.22943 1.92013 0
M  V30 3910 C 380.328 0.127802 1.60392 0
M  V30 3911 O 381.52 0.357737 1.73347 0
M  V30 3912 C 378.649 0.989938 3.28717 0
M  V30 3913 C 377.735 2.13486 3.66449 0
M  V30 3914 N 378.126 3.38625 3.75722 0
M  V30 3915 C 376.424 2.04573 3.96315 0
M  V30 3916 C 377.125 4.13832 4.08801 0
M  V30 3917 N 376.101 3.42451 4.22171 0
M  V30 3918 H 379.903 2.17771 1.97365 0
M  V30 3919 H 377.417 1.2686 1.01392 0
M  V30 3920 H 379.414 0.887462 4.07345 0
M  V30 3921 H 378.074 0.0503691 3.24661 0
M  V30 3922 H 379.085 3.73143 3.59144 0
M  V30 3923 H 375.762 1.1839 4.00362 0
M  V30 3924 H 377.152 5.21909 4.23156 0
M  V30 3925 N 379.872 -1.04064 1.18357 0
M  V30 3926 C 381.121 -1.76662 0.973313 0
M  V30 3927 C 381.434 -1.89154 -0.497991 0
M  V30 3928 O 382.64 -2.58606 -0.826762 0
M  V30 3929 C 381.096 -3.17624 1.69242 0
M  V30 3930 C 380.704 -3.13225 3.20303 0
M  V30 3931 C 382.448 -3.946 1.56497 0
M  V30 3932 C 380.355 -4.49046 3.84853 0
M  V30 3933 H 379.285 -0.662214 0.36054 0
M  V30 3934 H 381.936 -1.16553 1.41731 0
M  V30 3935 H 380.318 -3.78129 1.1762 0
M  V30 3936 H 381.492 -2.62172 3.78949 0
M  V30 3937 H 379.807 -2.49749 3.33189 0
M  V30 3938 H 382.404 -4.95042 2.02084 0
M  V30 3939 H 382.747 -4.13074 0.517243 0
M  V30 3940 H 383.28 -3.4067 2.05399 0
M  V30 3941 H 380.019 -4.35777 4.89672 0
M  V30 3942 H 379.539 -5.00203 3.30994 0
M  V30 3943 H 381.218 -5.17961 3.87718 0
M  V30 3944 N 381.35 -0.985608 -1.22978 0
M  V30 3945 C 382.58 -0.674603 -1.95276 0
M  V30 3946 C 382.988 0.763483 -1.73111 0
M  V30 3947 O 382.331 1.52601 -1.02268 0
M  V30 3948 C 382.393 -0.891597 -3.48268 0
M  V30 3949 C 382.057 -2.31275 -3.94158 0
M  V30 3950 C 383.054 -3.29179 -4.02415 0
M  V30 3951 C 380.739 -2.64524 -4.27004 0
M  V30 3952 C 382.733 -4.58407 -4.42879 0
M  V30 3953 C 380.42 -3.93974 -4.67149 0
M  V30 3954 C 381.418 -4.90727 -4.75053 0
M  V30 3955 O 381.106 -6.17865 -5.14294 0
M  V30 3956 H 380.838 -0.249251 -0.628371 0
M  V30 3957 H 383.392 -1.32106 -1.5728 0
M  V30 3958 H 381.622 -0.187962 -3.86243 0
M  V30 3959 H 383.311 -0.576957 -4.01779 0
M  V30 3960 H 384.077 -3.04823 -3.77237 0
M  V30 3961 H 379.956 -1.89923 -4.2006 0
M  V30 3962 H 383.5 -5.33926 -4.48964 0
M  V30 3963 H 379.397 -4.18122 -4.91777 0
M  V30 3964 H 380.165 -6.21694 -5.32389 0
M  V30 3965 N 382.828 1.3818 -0.7579 0
M  V30 3966 C 383.776 2.32277 -0.122482 0
M  V30 3967 C 384.77 1.54238 0.700505 0
M  V30 3968 O 385.976 1.69737 0.599119 0
M  V30 3969 H 382.351 0.751712 -0.0208143 0
M  V30 3970 H 384.322 2.83469 -0.932099 0
M  V30 3971 C 383.071 3.39447 0.753076 0
M  V30 3972 H 382.394 3.99591 0.129184 0
M  V30 3973 H 383.834 4.07684 1.16489 0
M  V30 3974 C 382.293 2.78375 1.8976 0
M  V30 3975 O 382.823 2.68025 2.99208 0
M  V30 3976 N 381.029 2.36121 1.69397 0
M  V30 3977 H 380.576 2.4474 0.803762 0
M  V30 3978 H 380.534 1.95602 2.46145 0
M  V30 3979 N 384.306 0.507319 1.49211 0
M  V30 3980 C 385.236 -0.256939 2.32082 0
M  V30 3981 C 386.217 -0.956609 1.40652 0
M  V30 3982 O 387.402 -0.946788 1.69557 0
M  V30 3983 C 384.532 -1.31802 3.21318 0
M  V30 3984 C 383.486 -0.737855 4.21592 0
M  V30 3985 C 382.812 -1.89992 4.99807 0
M  V30 3986 C 384.112 0.275325 5.21574 0
M  V30 3987 H 385.806 0.434798 2.96226 0
M  V30 3988 H 383.352 0.210546 1.42452 0
M  V30 3989 H 385.305 -1.86045 3.78107 0
M  V30 3990 H 384.029 -2.03903 2.5513 0
M  V30 3991 H 382.688 -0.217126 3.65956 0
M  V30 3992 H 382.336 -2.60877 4.30061 0
M  V30 3993 H 382.036 -1.51777 5.6766 0
M  V30 3994 H 383.56 -2.44657 5.59442 0
M  V30 3995 H 384.974 -0.179193 5.7302 0
M  V30 3996 H 383.371 0.573649 5.97352 0
M  V30 3997 H 384.441 1.18903 4.70096 0
M  V30 3998 N 385.784 -1.5574 0.241426 0
M  V30 3999 C 387.032 -1.98417 -0.384075 0
M  V30 4000 C 387.353 -1.13078 -1.58866 0
M  V30 4001 O 386.623 -0.212312 -1.94746 0
M  V30 4002 H 385.203 -0.732813 -0.144894 0
M  V30 4003 H 387.865 -1.9193 0.338943 0
M  V30 4004 H 386.961 -3.04219 -0.696939 0
M  V30 4005 N 387.262 0.0317525 -1.57568 0
M  V30 4006 C 388.225 1.01783 -2.0536 0
M  V30 4007 C 389.225 1.29203 -0.957253 0
M  V30 4008 O 390.415 1.24251 -1.22095 0
M  V30 4009 C 387.547 2.35137 -2.46827 0
M  V30 4010 H 388.74 0.605062 -2.93733 0
M  V30 4011 H 386.293 0.278514 -1.53799 0
M  V30 4012 H 387.028 2.81168 -1.61602 0
M  V30 4013 H 386.813 2.16566 -3.26866 0
M  V30 4014 H 388.303 3.05938 -2.84239 0
M  V30 4015 N 388.74 1.54641 0.303973 0
M  V30 4016 C 389.988 1.73437 1.0375 0
M  V30 4017 C 390.309 0.521449 1.87899 0
M  V30 4018 O 389.579 -0.46432 1.90318 0
M  V30 4019 H 388.159 0.639518 0.386039 0
M  V30 4020 H 390.821 1.91988 0.335675 0
M  V30 4021 H 389.917 2.62235 1.69231 0
M  V30 4022 N 390.218 -0.567019 1.47046 0
M  V30 4023 C 391.464 -1.32658 1.53394 0
M  V30 4024 C 391.797 -1.93254 0.19148 0
M  V30 4025 O 391.072 -1.77338 -0.798844 0
M  V30 4026 C 391.355 -2.44412 2.64452 0
M  V30 4027 C 391.208 -1.88749 4.08282 0
M  V30 4028 C 392.527 -3.46387 2.71485 0
M  V30 4029 H 389.646 -0.48098 0.558415 0
M  V30 4030 H 392.288 -0.635481 1.79058 0
M  V30 4031 H 390.438 -3.03363 2.427 0
M  V30 4032 H 392.11 -1.34134 4.41368 0
M  V30 4033 H 390.353 -1.19481 4.17021 0
M  V30 4034 H 391.024 -2.69491 4.81745 0
M  V30 4035 H 393.5 -2.9734 2.91081 0
M  V30 4036 H 392.376 -4.2202 3.50985 0
M  V30 4037 H 392.637 -4.04616 1.78153 0
M  V30 4038 N 391.696 -1.35014 -0.812953 0
M  V30 4039 C 392.944 -1.27678 -1.56661 0
M  V30 4040 C 393.265 0.150359 -1.94419 0
M  V30 4041 O 392.535 1.08532 -1.63088 0
M  V30 4042 H 391.115 -0.469602 -0.580933 0
M  V30 4043 H 393.777 -1.69043 -0.970076 0
M  V30 4044 H 392.873 -1.88833 -2.48492 0
M  V30 4045 N 393.175 1.03435 -1.18907 0
M  V30 4046 C 394.123 2.13703 -0.918353 0
M  V30 4047 C 395.117 1.68947 0.123767 0
M  V30 4048 O 396.323 1.79983 -0.0249701 0
M  V30 4049 H 392.698 0.698112 -0.279542 0
M  V30 4050 H 394.669 2.33731 -1.85506 0
M  V30 4051 C 393.418 3.44542 -0.467532 0
M  V30 4052 H 392.741 3.79394 -1.26095 0
M  V30 4053 H 394.181 4.22812 -0.317164 0
M  V30 4054 C 392.64 3.26829 0.817588 0
M  V30 4055 O 393.17 3.54975 1.88031 0
M  V30 4056 N 391.376 2.80139 0.772677 0
M  V30 4057 H 390.923 2.57434 -0.0923883 0
M  V30 4058 H 390.881 2.68668 1.63294 0
M  V30 4059 N 394.653 0.992116 1.22453 0
M  V30 4060 C 395.878 0.685644 1.95739 0
M  V30 4061 C 396.303 -0.743 1.72804 0
M  V30 4062 O 395.661 -1.50778 1.00676 0
M  V30 4063 C 395.709 0.996293 3.46564 0
M  V30 4064 O 394.813 0.0945512 4.12292 0
M  V30 4065 H 394.154 0.256694 0.612376 0
M  V30 4066 H 396.684 1.32888 1.5557 0
M  V30 4067 H 396.694 0.93781 3.97076 0
M  V30 4068 H 395.369 2.03733 3.62582 0
M  V30 4069 H 393.946 0.208451 3.72317 0
M  V30 4070 N 396.131 -1.37776 0.765217 0
M  V30 4071 C 397.377 -2.00145 0.327072 0
M  V30 4072 C 397.71 -1.60607 -1.09175 0
M  V30 4073 O 396.985 -0.849127 -1.74986 0
M  V30 4074 C 397.268 -3.57109 0.46319 0
M  V30 4075 C 397.121 -4.06576 1.92395 0
M  V30 4076 C 398.44 -4.39888 -0.136473 0
M  V30 4077 H 395.559 -0.727113 0.120316 0
M  V30 4078 H 398.201 -1.63549 0.967039 0
M  V30 4079 H 396.351 -3.88414 -0.0816358 0
M  V30 4080 H 398.023 -3.85864 2.52798 0
M  V30 4081 H 396.266 -3.59011 2.43503 0
M  V30 4082 H 396.937 -5.15639 1.97028 0
M  V30 4083 H 399.413 -4.14803 0.328317 0
M  V30 4084 H 398.289 -5.48899 -0.0110582 0
M  V30 4085 H 398.55 -4.24758 -1.22608 0
M  V30 4086 N 397.609 -0.515225 -1.4894 0
M  V30 4087 C 398.539 0.244628 -2.32215 0
M  V30 4088 C 399.52 0.949136 -1.41157 0
M  V30 4089 O 400.705 0.937783 -1.70057 0
M  V30 4090 C 397.835 1.30096 -3.22013 0
M  V30 4091 C 396.789 0.715486 -4.21977 0
M  V30 4092 C 396.115 1.87339 -5.00808 0
M  V30 4093 C 397.415 -0.302982 -5.2142 0
M  V30 4094 H 399.109 -0.450501 -2.95991 0
M  V30 4095 H 396.655 -0.218098 -1.42339 0
M  V30 4096 H 398.608 1.84037 -3.79089 0
M  V30 4097 H 397.332 2.02547 -2.56207 0
M  V30 4098 H 395.991 0.197715 -3.66066 0
M  V30 4099 H 395.639 2.58592 -4.31438 0
M  V30 4100 H 395.339 1.48764 -5.68457 0
M  V30 4101 H 396.863 2.41686 -5.60732 0
M  V30 4102 H 398.277 0.148802 -5.73107 0
M  V30 4103 H 396.674 -0.60532 -5.97039 0
M  V30 4104 H 397.744 -1.21395 -4.69459 0
M  V30 4105 N 399.087 1.5561 -0.249682 0
M  V30 4106 C 400.364 1.90932 0.424761 0
M  V30 4107 C 400.744 1.17078 1.75658 0
M  V30 4108 O 400.092 0.289176 2.26663 0
M  V30 4109 C 400.302 3.43975 0.590109 0
M  V30 4110 C 401.65 4.15281 0.884714 0
M  V30 4111 O 402.674 3.49729 0.67587 0
M  V30 4112 O 401.533 5.31236 1.28259 0
M  V30 4113 H 398.627 0.794815 0.228468 0
M  V30 4114 H 401.173 1.67135 -0.293954 0
M  V30 4115 H 399.945 3.89748 -0.34818 0
M  V30 4116 H 399.568 3.73644 1.35926 0
M  V30 4117 N 400.565 -0.0233959 1.57583 0
M  V30 4118 C 401.811 -0.714119 1.89811 0
M  V30 4119 C 402.144 -1.74702 0.848113 0
M  V30 4120 O 401.419 -1.94023 -0.136135 0
M  V30 4121 C 401.702 -1.37853 3.32669 0
M  V30 4122 C 401.555 -0.358764 4.48367 0
M  V30 4123 C 402.874 -2.31101 3.7454 0
M  V30 4124 H 399.993 -0.25814 0.690314 0
M  V30 4125 H 402.635 0.0230927 1.89986 0
M  V30 4126 H 400.785 -2.00689 3.3265 0
M  V30 4127 H 402.457 0.268115 4.6052 0
M  V30 4128 H 400.7 0.321387 4.32608 0
M  V30 4129 H 401.371 -0.862242 5.45224 0
M  V30 4130 H 403.847 -1.78304 3.75961 0
M  V30 4131 H 402.723 -2.74567 4.75294 0
M  V30 4132 H 402.984 -3.18018 3.0711 0
M  V30 4133 N 402.043 -1.548 -0.295768 0
M  V30 4134 C 403.289 -1.74588 -1.03184 0
M  V30 4135 C 403.622 -0.532962 -1.86744 0
M  V30 4136 O 402.897 0.469872 -1.88739 0
M  V30 4137 C 403.18 -3.03791 -1.93347 0
M  V30 4138 C 403.033 -4.35392 -1.12933 0
M  V30 4139 C 404.352 -3.28892 -2.92435 0
M  V30 4140 H 401.471 -0.635221 -0.373715 0
M  V30 4141 H 404.113 -1.87519 -0.30606 0
M  V30 4142 H 402.263 -2.92898 -2.55232 0
M  V30 4143 H 403.935 -4.58211 -0.532943 0
M  V30 4144 H 402.178 -4.31642 -0.432168 0
M  V30 4145 H 402.849 -5.22074 -1.79284 0
M  V30 4146 H 405.325 -3.39429 -2.4068 0
M  V30 4147 H 404.201 -4.20603 -3.52682 0
M  V30 4148 H 404.462 -2.47437 -3.6637 0
M  V30 4149 N 403.521 0.559213 -1.47345 0
M  V30 4150 C 404.469 1.68747 -1.60085 0
M  V30 4151 C 405.463 1.628 -0.46825 0
M  V30 4152 O 406.669 1.68009 -0.645977 0
M  V30 4153 H 403.044 0.558329 -0.503759 0
M  V30 4154 H 405.015 1.55138 -2.54902 0
M  V30 4155 C 403.764 3.07103 -1.63042 0
M  V30 4156 H 403.087 3.12361 -2.49541 0
M  V30 4157 H 404.527 3.85743 -1.76006 0
M  V30 4158 C 402.986 3.34935 -0.363357 0
M  V30 4159 O 403.516 3.98102 0.536416 0
M  V30 4160 N 401.722 2.89574 -0.244 0
M  V30 4161 H 401.269 2.38348 -0.977133 0
M  V30 4162 H 401.227 3.08566 0.602836 0
M  V30 4163 N 404.999 1.35443 0.805782 0
M  V30 4164 C 405.962 1.28301 1.89925 0
M  V30 4165 C 406.962 0.194285 1.59622 0
M  V30 4166 O 408.152 0.448036 1.6834 0
M  V30 4167 C 405.284 0.984997 3.2636 0
M  V30 4168 H 406.477 2.2553 1.97677 0
M  V30 4169 H 404.03 1.19979 1.00173 0
M  V30 4170 H 404.765 0.016603 3.24296 0
M  V30 4171 H 404.55 1.77269 3.4974 0
M  V30 4172 H 406.04 0.960651 4.064 0
M  V30 4173 N 406.477 -1.02803 1.19454 0
M  V30 4174 C 407.724 -1.76217 0.997693 0
M  V30 4175 C 408.052 -1.887 -0.47144 0
M  V30 4176 O 407.307 -1.4011 -1.3663 0
M  V30 4177 C 407.606 -3.18941 1.6128 0
M  V30 4178 C 407.272 -3.26463 3.11019 0
M  V30 4179 C 405.934 -3.28223 3.51885 0
M  V30 4180 C 408.286 -3.25542 4.07028 0
M  V30 4181 C 405.614 -3.26719 4.8731 0
M  V30 4182 C 407.966 -3.25579 5.42385 0
M  V30 4183 C 406.63 -3.25637 5.82681 0
M  V30 4184 H 405.9 -0.644823 0.365082 0
M  V30 4185 H 408.547 -1.20655 1.4871 0
M  V30 4186 H 406.852 -3.77587 1.04572 0
M  V30 4187 H 408.549 -3.74415 1.43577 0
M  V30 4188 H 405.139 -3.25822 2.78457 0
M  V30 4189 H 409.323 -3.23362 3.76498 0
M  V30 4190 H 404.579 -3.25089 5.1781 0
M  V30 4191 H 408.753 -3.23817 6.16535 0
M  V30 4192 H 406.38 -3.24226 6.87591 0
M  V30 4193 N 407.956 -0.998596 -1.21925 0
M  V30 4194 C 409.181 -0.696015 -1.95372 0
M  V30 4195 C 409.606 0.733826 -1.73195 0
M  V30 4196 O 408.964 1.50242 -1.01474 0
M  V30 4197 C 409.012 -1.01466 -3.4603 0
M  V30 4198 O 408.116 -0.116415 -4.12236 0
M  V30 4199 H 407.457 -0.259938 -0.611006 0
M  V30 4200 H 409.987 -1.33711 -1.54863 0
M  V30 4201 H 409.997 -0.958855 -3.96573 0
M  V30 4202 H 408.672 -2.05653 -3.61497 0
M  V30 4203 H 407.249 -0.228193 -3.72201 0
M  V30 4204 N 409.434 1.37368 -0.772513 0
M  V30 4205 C 410.381 2.30262 -0.157488 0
M  V30 4206 C 411.351 1.51137 0.688965 0
M  V30 4207 O 412.536 1.79704 0.641168 0
M  V30 4208 C 409.676 3.37611 0.715045 0
M  V30 4209 C 408.789 4.31746 -0.148098 0
M  V30 4210 C 407.924 5.26171 0.729213 0
M  V30 4211 C 406.963 6.11948 -0.136418 0
M  V30 4212 N 406.1 6.98613 0.698914 0
M  V30 4213 H 410.94 2.82277 -0.955179 0
M  V30 4214 H 408.477 1.38957 -0.482631 0
M  V30 4215 H 410.435 3.98479 1.23575 0
M  V30 4216 H 409.065 2.86959 1.47833 0
M  V30 4217 H 408.117 3.72178 -0.786613 0
M  V30 4218 H 409.429 4.92084 -0.81579 0
M  V30 4219 H 408.583 5.92247 1.31637 0
M  V30 4220 H 407.322 4.66246 1.43059 0
M  V30 4221 H 406.327 5.4485 -0.736102 0
M  V30 4222 H 407.552 6.73945 -0.835134 0
M  V30 4223 H 405.498 6.41215 1.38489 0
M  V30 4224 H 405.415 7.55948 0.0885358 0
M  V30 4225 H 406.683 7.69077 1.27044 0
M  V30 4226 N 410.912 0.523116 1.48665 0
M  V30 4227 C 411.875 -0.232592 2.28017 0
M  V30 4228 C 412.875 -0.874021 1.34972 0
M  V30 4229 O 414.065 -0.735132 1.57929 0
M  V30 4230 C 411.197 -1.33586 3.13636 0
M  V30 4231 H 412.39 0.464008 2.96289 0
M  V30 4232 H 409.943 0.278816 1.53793 0
M  V30 4233 H 410.678 -2.06593 2.4998 0
M  V30 4234 H 410.463 -0.881125 3.82071 0
M  V30 4235 H 411.953 -1.86759 3.73511 0
M  V30 4236 N 412.39 -1.55475 0.257931 0
M  V30 4237 C 413.63 -2.01112 -0.365129 0
M  V30 4238 C 413.994 -1.1423 -1.54323 0
M  V30 4239 O 415.195 -1.49371 -2.23477 0
M  V30 4240 C 413.466 -3.49353 -0.754117 0
M  V30 4241 S 415.025 -4.16992 -1.36614 0
M  V30 4242 H 411.843 -0.701737 -0.114397 0
M  V30 4243 H 414.445 -1.91855 0.375747 0
M  V30 4244 H 413.149 -4.10246 0.112441 0
M  V30 4245 H 412.68 -3.6256 -1.52689 0
M  V30 4246 H 414.695 -4.19191 -2.65505 0
M  V30 4247 N 413.868 0.0150385 -1.57593 0
M  V30 4248 C 415.116 0.701613 -1.8953 0
M  V30 4249 C 415.437 1.75139 -0.857396 0
M  V30 4250 O 414.707 1.95607 0.107194 0
M  V30 4251 H 413.287 0.26213 -0.699498 0
M  V30 4252 H 415.949 -0.0223304 -1.94887 0
M  V30 4253 H 415.045 1.18236 -2.88837 0
M  V30 4254 N 415.346 1.54954 0.287554 0
M  V30 4255 C 416.293 1.86834 1.35505 0
M  V30 4256 C 417.263 0.718452 1.49758 0
M  V30 4257 O 418.448 0.968358 1.644 0
M  V30 4258 C 415.588 2.13303 2.71286 0
M  V30 4259 C 414.701 3.40883 2.65373 0
M  V30 4260 C 413.836 3.57125 3.93236 0
M  V30 4261 C 412.875 4.78449 3.81776 0
M  V30 4262 N 412.012 4.91426 5.01443 0
M  V30 4263 H 416.852 2.77889 1.07619 0
M  V30 4264 H 414.389 1.37593 0.520241 0
M  V30 4265 H 416.347 2.26646 3.50267 0
M  V30 4266 H 414.977 1.25499 2.97405 0
M  V30 4267 H 414.029 3.36088 1.78182 0
M  V30 4268 H 415.341 4.29993 2.52799 0
M  V30 4269 H 414.495 3.70207 4.80658 0
M  V30 4270 H 413.234 2.66173 4.0866 0
M  V30 4271 H 412.239 4.65386 2.92738 0
M  V30 4272 H 413.464 5.70822 3.67884 0
M  V30 4273 H 411.41 4.03401 5.17304 0
M  V30 4274 H 411.327 5.74559 4.91343 0
M  V30 4275 H 412.595 5.08879 5.90477 0
M  V30 4276 N 416.824 -0.551391 1.4764 0
M  V30 4277 C 418.235 -1.13349 1.48354 0
M  V30 4278 C 418.586 -1.94709 0.241432 0
M  V30 4279 O 417.711 -2.06306 -0.653205 0
M  V30 4280 C 418.306 -2.0623 2.68802 0
M  V30 4281 C 416.865 -2.597 2.72457 0
M  V30 4282 C 416.012 -1.36201 2.41546 0
M  V30 4283 H 418.963 -0.337698 1.55065 0
M  V30 4284 H 418.984 -2.90196 2.46103 0
M  V30 4285 H 418.496 -1.46987 3.59188 0
M  V30 4286 H 416.597 -3.22724 1.86225 0
M  V30 4287 H 416.71 -3.00296 3.73308 0
M  V30 4288 H 415.074 -1.67068 1.9225 0
M  V30 4289 H 415.857 -0.787425 3.34147 0
M  V30 4290 N 418.302 -1.35869 -0.798587 0
M  V30 4291 C 419.548 -1.2978 -1.55836 0
M  V30 4292 C 419.881 0.125322 -1.93795 0
M  V30 4293 O 419.156 1.07658 -1.61987 0
M  V30 4294 C 419.439 -2.21188 -2.84162 0
M  V30 4295 C 419.292 -3.72155 -2.52628 0
M  V30 4296 C 420.611 -2.11545 -3.85923 0
M  V30 4297 H 417.73 -0.472769 -0.565383 0
M  V30 4298 H 420.372 -1.66341 -0.918192 0
M  V30 4299 H 418.522 -1.90139 -3.38791 0
M  V30 4300 H 420.194 -4.13682 -2.04121 0
M  V30 4301 H 418.437 -3.92042 -1.85704 0
M  V30 4302 H 419.108 -4.31511 -3.44242 0
M  V30 4303 H 421.584 -2.38855 -3.40716 0
M  V30 4304 H 420.46 -2.77688 -4.73477 0
M  V30 4305 H 420.721 -1.09987 -4.282 0
M  V30 4306 N 419.78 1.02168 -1.19998 0
M  V30 4307 C 420.728 2.12717 -0.940967 0
M  V30 4308 C 421.722 1.69069 0.105841 0
M  V30 4309 O 422.928 1.79946 -0.0440583 0
M  V30 4310 H 419.303 0.695108 -0.28693 0
M  V30 4311 H 421.274 2.3175 -1.87975 0
M  V30 4312 C 420.023 3.44027 -0.504049 0
M  V30 4313 H 419.346 3.78036 -1.30112 0
M  V30 4314 H 420.786 4.22452 -0.361991 0
M  V30 4315 C 419.245 3.27678 0.782878 0
M  V30 4316 O 419.775 3.56949 1.84256 0
M  V30 4317 N 417.981 2.80943 0.742921 0
M  V30 4318 H 417.528 2.57322 -0.119687 0
M  V30 4319 H 417.486 2.70385 1.60435 0
M  V30 4320 N 421.258 1.00505 1.21394 0
M  V30 4321 C 422.488 0.705584 1.94178 0
M  V30 4322 C 422.896 -0.735846 1.74304 0
M  V30 4323 O 422.239 -1.50954 1.04683 0
M  V30 4324 C 422.301 0.94689 3.46806 0
M  V30 4325 C 421.965 2.37517 3.90429 0
M  V30 4326 C 422.962 3.35539 3.97127 0
M  V30 4327 C 420.647 2.71284 4.22742 0
M  V30 4328 C 422.641 4.65395 4.3553 0
M  V30 4329 C 420.328 4.01356 4.60822 0
M  V30 4330 C 421.326 4.98223 4.67186 0
M  V30 4331 O 421.014 6.25969 5.04399 0
M  V30 4332 H 420.746 0.259216 0.624326 0
M  V30 4333 H 423.3 1.34592 1.55159 0
M  V30 4334 H 421.53 0.249386 3.85895 0
M  V30 4335 H 423.219 0.640804 4.0081 0
M  V30 4336 H 423.985 3.10786 3.7234 0
M  V30 4337 H 419.864 1.96581 4.16985 0
M  V30 4338 H 423.408 5.41002 4.40412 0
M  V30 4339 H 419.305 4.25893 4.85063 0
M  V30 4340 H 420.073 6.30085 5.22431 0
M  V30 4341 N 422.737 -1.36956 0.779787 0
M  V30 4342 C 423.687 -2.27539 0.144892 0
M  V30 4343 C 424.671 -1.46493 -0.665488 0
M  V30 4344 O 425.863 -1.68968 -0.527141 0
M  V30 4345 C 422.992 -3.35512 -0.727082 0
M  V30 4346 C 422.078 -4.24001 0.0915642 0
M  V30 4347 N 422.469 -4.92757 1.14125 0
M  V30 4348 C 420.767 -4.45807 -0.131141 0
M  V30 4349 C 421.468 -5.58138 1.6388 0
M  V30 4350 N 420.444 -5.35241 0.94962 0
M  V30 4351 H 424.246 -2.78176 0.948446 0
M  V30 4352 H 421.76 -1.50169 0.618315 0
M  V30 4353 H 423.757 -3.99324 -1.19776 0
M  V30 4354 H 422.417 -2.86431 -1.52929 0
M  V30 4355 H 423.428 -4.94984 1.52353 0
M  V30 4356 H 420.105 -4.07582 -0.904621 0
M  V30 4357 H 421.495 -6.23071 2.51461 0
M  V30 4358 N 424.215 -0.530993 -1.48385 0
M  V30 4359 C 425.462 0.0027373 -2.025 0
M  V30 4360 C 425.79 1.34186 -1.40799 0
M  V30 4361 O 425.045 1.88 -0.543544 0
M  V30 4362 C 425.344 0.172742 -3.56982 0
M  V30 4363 C 425.01 -1.09215 -4.37473 0
M  V30 4364 C 423.672 -1.43881 -4.59186 0
M  V30 4365 C 426.024 -1.93153 -4.84088 0
M  V30 4366 C 423.352 -2.62381 -5.2476 0
M  V30 4367 C 425.704 -3.10833 -5.50968 0
M  V30 4368 C 424.368 -3.45843 -5.70919 0
M  V30 4369 H 423.638 0.00100165 -0.740999 0
M  V30 4370 H 426.285 -0.697219 -1.78357 0
M  V30 4371 H 424.59 0.955473 -3.79971 0
M  V30 4372 H 426.287 0.600642 -3.96476 0
M  V30 4373 H 422.877 -0.812177 -4.20834 0
M  V30 4374 H 427.061 -1.67683 -4.67115 0
M  V30 4375 H 422.317 -2.89707 -5.38405 0
M  V30 4376 H 426.491 -3.7618 -5.86056 0
M  V30 4377 H 424.118 -4.37764 -6.21503 0
M  V30 4378 N 425.693 1.55336 -0.266172 0
M  V30 4379 C 426.656 2.20878 0.612001 0
M  V30 4380 C 427.656 1.18388 1.08816 0
M  V30 4381 O 428.846 1.4335 0.989774 0
M  V30 4382 C 425.978 2.86765 1.84332 0
M  V30 4383 H 427.171 2.99873 0.0398718 0
M  V30 4384 H 424.724 1.56291 -0.0167309 0
M  V30 4385 H 425.459 2.11759 2.45619 0
M  V30 4386 H 425.244 3.61862 1.5099 0
M  V30 4387 H 426.734 3.36867 2.46801 0
M  V30 4388 N 427.171 -0.0066808 1.57599 0
M  V30 4389 C 428.582 -0.550379 1.78403 0
M  V30 4390 C 428.933 -1.74339 0.900014 0
M  V30 4391 O 428.058 -2.16166 0.100713 0
M  V30 4392 C 428.653 -1.00523 3.23544 0
M  V30 4393 C 427.212 -1.49428 3.45468 0
M  V30 4394 C 426.359 -0.442444 2.73748 0
M  V30 4395 H 429.31 0.219508 1.57175 0
M  V30 4396 H 429.331 -1.87157 3.31289 0
M  V30 4397 H 428.843 -0.136735 3.87859 0
M  V30 4398 H 426.944 -2.3839 2.86358 0
M  V30 4399 H 427.057 -1.52635 4.54136 0
M  V30 4400 H 425.421 -0.902578 2.38171 0
M  V30 4401 H 426.204 0.416973 3.40758 0
M  V30 4402 N 428.649 -1.55105 -0.279332 0
M  V30 4403 C 430.065 -1.46803 -0.626187 0
M  V30 4404 C 430.265 -0.676939 -1.89789 0
M  V30 4405 O 429.321 -0.19326 -2.51759 0
M  V30 4406 C 430.634 -2.90962 -0.759034 0
M  V30 4407 C 432.182 -3.01138 -0.853504 0
M  V30 4408 C 432.657 -4.46539 -1.01818 0
M  V30 4409 N 434.148 -4.50341 -1.08386 0
M  V30 4410 C 434.883 -5.60053 -1.22996 0
M  V30 4411 N 434.379 -6.79645 -1.34366 0
M  V30 4412 N 436.172 -5.47783 -1.26056 0
M  V30 4413 H 428.323 -2.04996 0.555921 0
M  V30 4414 H 430.586 -0.929325 0.187239 0
M  V30 4415 H 430.292 -3.51544 0.104852 0
M  V30 4416 H 430.166 -3.39619 -1.64131 0
M  V30 4417 H 432.553 -2.40658 -1.70786 0
M  V30 4418 H 432.634 -2.55745 0.0532466 0
M  V30 4419 H 432.278 -5.0762 -0.168504 0
M  V30 4420 H 432.208 -4.89583 -1.93948 0
M  V30 4421 H 434.699 -3.64191 -1.00864 0
M  V30 4422 H 435.012 -7.59012 -1.4533 0
M  V30 4423 H 433.357 -6.82469 -1.31382 0
M  V30 4424 H 436.548 -4.53294 -1.168 0
M  V30 4425 H 436.721 -6.33331 -1.37098 0
M  V30 4426 N 430.127 0.543554 -1.4793 0
M  V30 4427 C 431.543 0.870806 -1.3375 0
M  V30 4428 C 431.743 1.9864 -0.338261 0
M  V30 4429 O 430.799 2.51305 0.245371 0
M  V30 4430 C 432.112 1.25114 -2.73435 0
M  V30 4431 C 433.66 1.3618 -2.81823 0
M  V30 4432 C 434.135 1.77563 -4.22179 0
M  V30 4433 N 435.626 1.8469 -4.24787 0
M  V30 4434 C 436.361 2.18067 -5.30315 0
M  V30 4435 N 435.857 2.49963 -6.46135 0
M  V30 4436 N 437.65 2.18958 -5.17701 0
M  V30 4437 H 429.801 -0.19275 -2.11524 0
M  V30 4438 H 432.064 -0.0235777 -0.947707 0
M  V30 4439 H 431.77 0.50514 -3.48053 0
M  V30 4440 H 431.644 2.20431 -3.06088 0
M  V30 4441 H 434.031 2.09859 -2.07468 0
M  V30 4442 H 434.112 0.390169 -2.52807 0
M  V30 4443 H 433.756 1.04449 -4.97044 0
M  V30 4444 H 433.686 2.75753 -4.48629 0
M  V30 4445 H 436.177 1.62372 -3.41239 0
M  V30 4446 H 436.49 2.74497 -7.22406 0
M  V30 4447 H 434.835 2.47513 -6.49432 0
M  V30 4448 H 438.026 1.93488 -4.2624 0
M  V30 4449 H 438.199 2.44639 -6.00047 0
M  V30 4450 N 431.605 1.3629 0.791371 0
M  V30 4451 C 432.515 1.32606 1.93527 0
M  V30 4452 C 433.531 0.228541 1.72493 0
M  V30 4453 O 434.707 0.460571 1.96063 0
M  V30 4454 C 431.772 1.11271 3.28359 0
M  V30 4455 C 430.833 2.3048 3.62185 0
M  V30 4456 C 430.066 2.10154 4.90583 0
M  V30 4457 O 430.289 1.07572 5.60165 0
M  V30 4458 O 429.223 2.97884 5.23019 0
M  V30 4459 H 433.049 2.28909 1.99585 0
M  V30 4460 H 430.634 1.16818 0.931344 0
M  V30 4461 H 432.516 1.01283 4.09047 0
M  V30 4462 H 431.191 0.180292 3.23198 0
M  V30 4463 H 430.098 2.46036 2.81811 0
M  V30 4464 H 431.431 3.22221 3.72068 0
M  V30 4465 N 433.083 -1.0153 1.20538 0
M  V30 4466 C 434.331 -1.74803 1.01432 0
M  V30 4467 C 434.652 -1.8963 -0.454456 0
M  V30 4468 O 433.922 -1.43975 -1.32846 0
M  V30 4469 H 432.502 -0.647598 0.372324 0
M  V30 4470 H 435.164 -1.22402 1.5167 0
M  V30 4471 H 434.26 -2.75114 1.47373 0
M  V30 4472 N 434.561 -1.01147 -1.20859 0
M  V30 4473 C 435.838 -0.613136 -1.85742 0
M  V30 4474 C 436.218 0.909004 -1.90526 0
M  V30 4475 O 435.566 1.79862 -1.40932 0
M  V30 4476 C 435.776 -1.255 -3.25654 0
M  V30 4477 C 437.124 -1.3672 -4.01986 0
M  V30 4478 O 438.148 -1.21082 -3.34989 0
M  V30 4479 O 437.007 -1.6194 -5.21956 0
M  V30 4480 H 434.101 -0.210878 -0.799662 0
M  V30 4481 H 436.647 -1.10853 -1.2849 0
M  V30 4482 H 435.419 -2.29532 -3.16908 0
M  V30 4483 H 435.042 -0.746369 -3.90532 0
M  V30 4484 N 436.039 1.36541 -0.78704 0
M  V30 4485 C 436.969 2.32659 -0.197992 0
M  V30 4486 C 437.95 1.56533 0.665697 0
M  V30 4487 O 439.135 1.84698 0.60001 0
M  V30 4488 C 436.265 3.40778 0.669901 0
M  V30 4489 C 435.219 4.27897 -0.0937039 0
M  V30 4490 C 434.545 5.27163 0.894629 0
M  V30 4491 C 435.845 5.06334 -1.28154 0
M  V30 4492 H 437.539 2.82171 -1.00099 0
M  V30 4493 H 435.085 1.35665 -0.482793 0
M  V30 4494 H 437.038 4.07008 1.09191 0
M  V30 4495 H 435.762 2.89827 1.50558 0
M  V30 4496 H 434.421 3.6322 -0.49666 0
M  V30 4497 H 434.069 4.72486 1.72527 0
M  V30 4498 H 433.769 5.86317 0.388149 0
M  V30 4499 H 435.293 5.96266 1.31525 0
M  V30 4500 H 436.707 5.65617 -0.93541 0
M  V30 4501 H 435.104 5.74888 -1.72115 0
M  V30 4502 H 436.174 4.38114 -2.07807 0
M  V30 4503 N 437.518 0.538854 1.48102 0
M  V30 4504 C 438.929 0.100679 1.86428 0
M  V30 4505 C 439.28 -1.32447 1.44749 0
M  V30 4506 O 438.405 -1.99339 0.842199 0
M  V30 4507 C 439 0.175933 3.38343 0
M  V30 4508 C 437.559 -0.207098 3.7583 0
M  V30 4509 C 436.706 0.531741 2.72154 0
M  V30 4510 H 439.657 0.749614 1.3988 0
M  V30 4511 H 439.678 -0.610144 3.75576 0
M  V30 4512 H 439.19 1.21328 3.68648 0
M  V30 4513 H 437.291 -1.24626 3.5114 0
M  V30 4514 H 437.404 0.138687 4.78899 0
M  V30 4515 H 435.768 -0.0230462 2.5469 0
M  V30 4516 H 436.551 1.56989 3.05302 0
M  V30 4517 N 438.996 -1.55193 0.274407 0
M  V30 4518 C 439.959 -2.212 -0.600279 0
M  V30 4519 C 440.959 -1.18963 -1.08187 0
M  V30 4520 O 442.149 -1.43873 -0.982158 0
M  V30 4521 C 439.281 -2.87739 -1.82809 0
M  V30 4522 H 440.474 -2.9989 -0.0239682 0
M  V30 4523 H 438.027 -1.5628 0.0250192 0
M  V30 4524 H 438.762 -2.13058 -2.44493 0
M  V30 4525 H 438.547 -3.62658 -1.49069 0
M  V30 4526 H 440.037 -3.38171 -2.45011 0
M  V30 4527 N 440.474 -0.00167713 -1.576 0
M  V30 4528 C 441.704 0.692754 -1.94639 0
M  V30 4529 C 442.112 1.67744 -0.87513 0
M  V30 4530 O 441.455 1.8305 0.154382 0
M  V30 4531 C 441.517 1.47881 -3.27676 0
M  V30 4532 C 441.181 0.655518 -4.52274 0
M  V30 4533 C 442.178 -0.0575214 -5.19868 0
M  V30 4534 C 439.863 0.600994 -4.98692 0
M  V30 4535 C 441.857 -0.814052 -6.3218 0
M  V30 4536 C 439.544 -0.15926 -6.10892 0
M  V30 4537 C 440.542 -0.865515 -6.77494 0
M  V30 4538 O 440.23 -1.61336 -7.87544 0
M  V30 4539 H 439.962 0.197792 -0.646417 0
M  V30 4540 H 442.516 -0.049423 -2.05341 0
M  V30 4541 H 440.746 2.2655 -3.13388 0
M  V30 4542 H 442.435 2.05874 -3.49816 0
M  V30 4543 H 443.201 -0.0245611 -4.84994 0
M  V30 4544 H 439.08 1.14025 -4.46676 0
M  V30 4545 H 442.624 -1.36584 -6.84098 0
M  V30 4546 H 438.521 -0.194035 -6.45208 0
M  V30 4547 H 439.289 -1.53025 -8.04068 0
M  V30 4548 N 441.952 1.55251 0.271103 0
M  V30 4549 C 443.198 1.7713 0.999832 0
M  V30 4550 C 443.553 0.56659 1.83868 0
M  V30 4551 O 442.846 -0.44069 1.86463 0
M  V30 4552 C 443.04 3.01879 1.91321 0
M  V30 4553 C 442.869 4.34368 1.16426 0
M  V30 4554 C 441.639 4.97593 0.879169 0
M  V30 4555 C 443.837 5.1131 0.553749 0
M  V30 4556 N 441.819 6.13813 0.103618 0
M  V30 4557 C 443.19 6.19938 -0.0875442 0
M  V30 4558 C 445.245 4.95754 0.461782 0
M  V30 4559 C 443.948 7.14703 -0.811942 0
M  V30 4560 C 445.974 5.90875 -0.249027 0
M  V30 4561 C 445.336 6.98893 -0.879051 0
M  V30 4562 H 441.435 0.700407 0.347784 0
M  V30 4563 H 444.019 1.92744 0.275314 0
M  V30 4564 H 442.19 2.87637 2.60997 0
M  V30 4565 H 443.922 3.12154 2.57569 0
M  V30 4566 H 440.677 4.58538 1.18491 0
M  V30 4567 H 441.101 6.76455 -0.271543 0
M  V30 4568 H 445.743 4.12342 0.934552 0
M  V30 4569 H 443.461 7.97634 -1.29639 0
M  V30 4570 H 447.047 5.80916 -0.320529 0
M  V30 4571 H 445.927 7.71231 -1.42031 0
M  V30 4572 N 443.43 -0.535701 1.48216 0
M  V30 4573 C 444.393 -1.623 1.61838 0
M  V30 4574 C 445.393 -1.53087 0.492024 0
M  V30 4575 O 446.583 -1.5686 0.757668 0
M  V30 4576 C 443.715 -3.01907 1.58319 0
M  V30 4577 H 444.908 -1.51564 2.58783 0
M  V30 4578 H 442.461 -0.757317 1.36727 0
M  V30 4579 H 443.196 -3.18155 0.628299 0
M  V30 4580 H 442.981 -3.10003 2.40085 0
M  V30 4581 H 444.471 -3.80969 1.71033 0
M  V30 4582 N 444.908 -1.36708 -0.784132 0
M  V30 4583 C 446.185 -1.21776 -1.53069 0
M  V30 4584 C 446.565 0.193876 -2.10208 0
M  V30 4585 O 445.913 1.20012 -1.94446 0
M  V30 4586 C 446.123 -2.30395 -2.62143 0
M  V30 4587 C 447.471 -2.67325 -3.29882 0
M  V30 4588 O 448.495 -2.29478 -2.7243 0
M  V30 4589 O 447.354 -3.32485 -4.33724 0
M  V30 4590 H 444.448 -0.474459 -0.677361 0
M  V30 4591 H 446.994 -1.48454 -0.82216 0
M  V30 4592 H 445.766 -3.2498 -2.17953 0
M  V30 4593 H 445.389 -2.05112 -3.40609 0
M  V30 4594 N 446.386 1.0089 -1.21074 0
M  V30 4595 C 447.349 2.0775 -0.968129 0
M  V30 4596 C 448.349 1.6069 0.0593445 0
M  V30 4597 O 449.539 1.73293 -0.177525 0
M  V30 4598 C 446.671 3.37794 -0.459108 0
M  V30 4599 H 447.864 2.30707 -1.9161 0
M  V30 4600 H 445.417 1.17807 -1.02719 0
M  V30 4601 H 446.152 3.20516 0.49397 0
M  V30 4602 H 445.937 3.7328 -1.20019 0
M  V30 4603 H 447.427 4.16454 -0.309099 0
M  V30 4604 N 447.864 1.01787 1.20321 0
M  V30 4605 C 449.089 0.727009 1.9424 0
M  V30 4606 C 449.514 -0.706179 1.74341 0
M  V30 4607 O 448.872 -1.48609 1.03852 0
M  V30 4608 C 448.92 1.06958 3.44372 0
M  V30 4609 O 448.024 0.181983 4.11998 0
M  V30 4610 H 447.365 0.269626 0.606793 0
M  V30 4611 H 449.895 1.36158 1.52716 0
M  V30 4612 H 449.905 1.02182 3.94997 0
M  V30 4613 H 448.58 2.11378 3.58179 0
M  V30 4614 H 447.157 0.287378 3.71791 0
M  V30 4615 N 449.342 -1.36122 0.79427 0
M  V30 4616 C 450.289 -2.29982 0.194101 0
M  V30 4617 C 451.259 -1.52214 -0.664833 0
M  V30 4618 O 452.444 -1.80702 -0.612498 0
M  V30 4619 C 449.584 -3.38706 -0.661244 0
M  V30 4620 C 448.697 -4.31456 0.216766 0
M  V30 4621 C 447.832 -5.27265 -0.645411 0
M  V30 4622 C 446.871 -6.11653 0.233756 0
M  V30 4623 N 446.008 -6.99636 -0.587682 0
M  V30 4624 H 450.848 -2.80722 0.999965 0
M  V30 4625 H 448.385 -1.38172 0.504677 0
M  V30 4626 H 450.343 -4.00394 -1.17219 0
M  V30 4627 H 448.973 -2.89274 -1.43249 0
M  V30 4628 H 448.025 -3.7088 0.845724 0
M  V30 4629 H 449.337 -4.90724 0.893973 0
M  V30 4630 H 448.491 -5.94266 -1.22198 0
M  V30 4631 H 447.23 -4.68463 -1.35623 0
M  V30 4632 H 446.235 -5.4361 0.82269 0
M  V30 4633 H 447.46 -6.72531 0.942247 0
M  V30 4634 H 445.406 -6.43337 -1.2827 0
M  V30 4635 H 445.323 -7.55993 0.0317402 0
M  V30 4636 H 446.591 -7.71001 -1.14792 0
M  V30 4637 N 450.82 -0.546701 -1.47814 0
M  V30 4638 C 451.783 0.196287 -2.28358 0
M  V30 4639 C 452.783 0.852437 -1.36346 0
M  V30 4640 O 453.973 0.709913 -1.59078 0
M  V30 4641 C 451.105 1.28579 -3.15722 0
M  V30 4642 H 452.298 -0.511086 -2.95513 0
M  V30 4643 H 449.851 -0.303248 -1.5333 0
M  V30 4644 H 450.586 2.0259 -2.53235 0
M  V30 4645 H 450.371 0.820229 -3.83425 0
M  V30 4646 H 451.861 1.80793 -3.76435 0
M  V30 4647 N 452.299 1.55045 -0.282633 0
M  V30 4648 C 453.576 1.9179 0.384166 0
M  V30 4649 C 453.956 1.20778 1.73136 0
M  V30 4650 O 453.304 0.33719 2.25998 0
M  V30 4651 C 453.514 3.45149 0.517014 0
M  V30 4652 C 454.862 4.17064 0.796427 0
M  V30 4653 O 455.886 3.51084 0.601535 0
M  V30 4654 O 454.745 5.33837 1.16962 0
M  V30 4655 H 451.839 0.799483 0.211558 0
M  V30 4656 H 454.385 1.66474 -0.32934 0
M  V30 4657 H 453.157 3.88922 -0.430772 0
M  V30 4658 H 452.78 3.76443 1.2797 0
M  V30 4659 N 453.777 0.010035 1.57597 0
M  V30 4660 C 455.193 -0.346164 1.55801 0
M  V30 4661 C 455.393 -1.74144 1.01371 0
M  V30 4662 O 454.449 -2.43938 0.651968 0
M  V30 4663 C 455.762 -0.212216 2.9995 0
M  V30 4664 C 457.31 -0.286409 3.11687 0
M  V30 4665 C 457.785 -0.18147 4.5764 0
M  V30 4666 N 459.276 -0.239056 4.62583 0
M  V30 4667 C 460.011 -0.181351 5.73113 0
M  V30 4668 N 459.507 -0.073661 6.92761 0
M  V30 4669 N 461.3 -0.233949 5.61613 0
M  V30 4670 H 453.451 0.922657 1.91313 0
M  V30 4671 H 455.714 0.354595 0.879185 0
M  V30 4672 H 455.42 0.748169 3.4365 0
M  V30 4673 H 455.294 -0.990224 3.6397 0
M  V30 4674 H 457.681 -1.23724 2.67911 0
M  V30 4675 H 457.762 0.521645 2.50425 0
M  V30 4676 H 457.406 0.765863 5.02093 0
M  V30 4677 H 457.336 -1.00814 5.1686 0
M  V30 4678 H 459.827 -0.32321 3.76515 0
M  V30 4679 H 460.14 -0.0358003 7.72792 0
M  V30 4680 H 458.485 -0.0391461 6.94989 0
M  V30 4681 H 461.676 -0.316347 4.6703 0
M  V30 4682 H 461.849 -0.185514 6.47734 0
M  V30 4683 N 455.255 -1.55392 -0.262866 0
M  V30 4684 C 456.165 -1.92077 -1.34698 0
M  V30 4685 C 457.181 -0.819227 -1.53508 0
M  V30 4686 O 458.357 -1.11921 -1.67439 0
M  V30 4687 C 455.422 -2.19407 -2.68443 0
M  V30 4688 C 454.483 -3.42905 -2.58292 0
M  V30 4689 C 453.716 -3.68921 -3.85659 0
M  V30 4690 O 453.939 -2.97275 -4.8681 0
M  V30 4691 O 452.873 -4.62455 -3.85252 0
M  V30 4692 H 456.699 -2.84384 -1.06581 0
M  V30 4693 H 454.284 -1.42069 -0.462264 0
M  V30 4694 H 456.166 -2.38365 -3.47506 0
M  V30 4695 H 454.841 -1.30282 -2.96325 0
M  V30 4696 H 453.748 -3.29272 -1.7757 0
M  V30 4697 H 455.081 -4.32282 -2.35358 0
M  V30 4698 N 456.733 0.527833 -1.48498 0
M  V30 4699 C 457.663 1.64136 -1.66077 0
M  V30 4700 C 458.644 1.62286 -0.509625 0
M  V30 4701 O 459.829 1.79449 -0.742413 0
M  V30 4702 C 456.959 3.02717 -1.70234 0
M  V30 4703 C 455.913 3.19426 -2.8487 0
M  V30 4704 C 455.239 4.5909 -2.74118 0
M  V30 4705 C 456.539 3.01993 -4.26142 0
M  V30 4706 H 458.233 1.4968 -2.593 0
M  V30 4707 H 455.779 0.718654 -1.24785 0
M  V30 4708 H 457.732 3.80491 -1.8112 0
M  V30 4709 H 456.456 3.18201 -0.735911 0
M  V30 4710 H 455.115 2.4407 -2.73542 0
M  V30 4711 H 454.763 4.71413 -1.7544 0
M  V30 4712 H 454.463 4.71214 -3.51042 0
M  V30 4713 H 455.987 5.3896 -2.86974 0
M  V30 4714 H 457.401 3.69558 -4.38292 0
M  V30 4715 H 455.798 3.2561 -5.04082 0
M  V30 4716 H 456.868 1.98396 -4.42456 0
M  V30 4717 N 458.211 1.37122 0.776871 0
M  V30 4718 C 459.159 1.32549 1.91138 0
M  V30 4719 C 460.153 0.215119 1.68029 0
M  V30 4720 O 461.359 0.382852 1.75881 0
M  V30 4721 H 457.734 0.412952 0.62847 0
M  V30 4722 H 459.705 2.28332 1.92112 0
M  V30 4723 C 458.454 1.14422 3.28333 0
M  V30 4724 H 457.777 1.99115 3.46689 0
M  V30 4725 H 459.217 1.15272 4.0803 0
M  V30 4726 C 457.676 -0.150434 3.36564 0
M  V30 4727 O 458.206 -1.13584 3.85307 0
M  V30 4728 N 456.412 -0.19939 2.89915 0
M  V30 4729 H 455.959 0.603142 2.5044 0
M  V30 4730 H 455.917 -1.06526 2.95803 0
M  V30 4731 N 459.689 -1.00246 1.21608 0
M  V30 4732 C 460.935 -1.74417 1.04643 0
M  V30 4733 C 461.29 -1.87862 -0.415387 0
M  V30 4734 O 460.583 -1.40373 -1.30407 0
M  V30 4735 C 460.777 -3.15448 1.68009 0
M  V30 4736 C 460.606 -3.15755 3.20201 0
M  V30 4737 C 459.376 -3.2219 3.89258 0
M  V30 4738 C 461.574 -3.00668 4.17257 0
M  V30 4739 N 459.556 -3.1215 5.28617 0
M  V30 4740 C 460.927 -2.98553 5.43384 0
M  V30 4741 C 462.982 -2.84989 4.08272 0
M  V30 4742 C 461.685 -2.82364 6.61561 0
M  V30 4743 C 463.711 -2.70158 5.26088 0
M  V30 4744 C 463.073 -2.68721 6.51128 0
M  V30 4745 H 459.172 -0.648317 0.437274 0
M  V30 4746 H 461.756 -1.19129 1.54001 0
M  V30 4747 H 459.927 -3.69001 1.21215 0
M  V30 4748 H 461.659 -3.78128 1.44226 0
M  V30 4749 H 458.414 -3.29488 3.40198 0
M  V30 4750 H 458.838 -3.10465 6.01615 0
M  V30 4751 H 463.48 -2.84904 3.12393 0
M  V30 4752 H 461.198 -2.81196 7.57598 0
M  V30 4753 H 464.784 -2.59022 5.20959 0
M  V30 4754 H 463.664 -2.57382 7.40759 0
M  V30 4755 N 461.167 -1.02423 -1.1978 0
M  V30 4756 C 462.583 -0.740459 -1.41384 0
M  V30 4757 C 462.783 0.676827 -1.89793 0
M  V30 4758 O 461.839 1.4435 -2.0717 0
M  V30 4759 C 463.152 -1.77264 -2.42895 0
M  V30 4760 C 464.7 -1.79165 -2.56649 0
M  V30 4761 C 465.175 -2.8133 -3.6141 0
M  V30 4762 N 466.666 -2.80118 -3.68901 0
M  V30 4763 C 467.401 -3.55824 -4.49641 0
M  V30 4764 N 466.897 -4.41231 -5.34123 0
M  V30 4765 N 468.69 -3.44387 -4.44246 0
M  V30 4766 H 460.841 -1.9391 -0.866764 0
M  V30 4767 H 463.104 -0.838074 -0.443098 0
M  V30 4768 H 462.81 -2.7884 -2.14339 0
M  V30 4769 H 462.684 -1.59108 -3.42001 0
M  V30 4770 H 465.071 -0.782702 -2.84531 0
M  V30 4771 H 465.152 -2.01396 -1.57713 0
M  V30 4772 H 464.796 -3.82394 -3.34271 0
M  V30 4773 H 464.726 -2.56359 -4.59986 0
M  V30 4774 H 467.217 -2.1817 -3.08562 0
M  V30 4775 H 467.53 -4.95747 -5.92836 0
M  V30 4776 H 465.875 -4.45306 -5.33599 0
M  V30 4777 H 469.066 -2.7708 -3.77285 0
M  V30 4778 H 469.239 -4.0364 -5.06931 0
M  V30 4779 N 462.645 1.35699 -0.801477 0
M  V30 4780 C 463.891 1.99208 -0.380022 0
M  V30 4781 C 464.224 1.63445 1.04878 0
M  V30 4782 O 463.499 0.895223 1.72673 0
M  V30 4783 C 463.782 3.55755 -0.557708 0
M  V30 4784 C 463.635 4.01332 -2.03107 0
M  V30 4785 C 464.954 4.40096 0.0197968 0
M  V30 4786 H 462.073 0.723667 -0.139552 0
M  V30 4787 H 464.715 1.60928 -1.01006 0
M  V30 4788 H 462.865 3.88494 -0.0213741 0
M  V30 4789 H 464.537 3.79026 -2.62939 0
M  V30 4790 H 462.78 3.52429 -2.52936 0
M  V30 4791 H 463.451 5.10234 -2.1063 0
M  V30 4792 H 465.927 4.13786 -0.438179 0
M  V30 4793 H 464.803 5.48735 -0.134477 0
M  V30 4794 H 465.064 4.2786 1.11303 0
M  V30 4795 N 464.123 0.554532 1.47522 0
M  V30 4796 C 465.351 0.034257 2.06872 0
M  V30 4797 C 465.766 -1.25826 1.40759 0
M  V30 4798 O 465.123 -1.75425 0.503217 0
M  V30 4799 C 465.174 -0.167827 3.6111 0
M  V30 4800 O 464.895 1.07351 4.24744 0
M  V30 4801 C 466.396 -0.72569 4.3732 0
M  V30 4802 H 463.616 0.0446275 0.669514 0
M  V30 4803 H 466.16 0.767181 1.89564 0
M  V30 4804 H 464.315 -0.850872 3.7794 0
M  V30 4805 H 464.729 0.869563 5.17242 0
M  V30 4806 H 466.203 -0.816394 5.45929 0
M  V30 4807 H 466.68 -1.73635 4.0342 0
M  V30 4808 H 467.286 -0.0784292 4.25228 0
M  V30 4809 N 465.601 -1.54893 0.290851 0
M  V30 4810 C 467.017 -1.59476 -0.0628432 0
M  V30 4811 C 467.217 -1.30795 -1.5328 0
M  V30 4812 O 466.273 -1.07644 -2.28406 0
M  V30 4813 C 467.586 -2.98928 0.325962 0
M  V30 4814 C 469.134 -3.11799 0.273882 0
M  V30 4815 C 469.609 -4.53544 0.637359 0
M  V30 4816 N 471.1 -4.59433 0.589507 0
M  V30 4817 C 471.835 -5.67164 0.84335 0
M  V30 4818 N 471.331 -6.82975 1.16263 0
M  V30 4819 N 473.124 -5.56786 0.771091 0
M  V30 4820 H 465.275 -1.71798 1.24896 0
M  V30 4821 H 467.538 -0.801879 0.505663 0
M  V30 4822 H 467.244 -3.24805 1.34887 0
M  V30 4823 H 467.118 -3.75793 -0.325441 0
M  V30 4824 H 469.505 -2.85677 -0.739765 0
M  V30 4825 H 469.586 -2.37112 0.959766 0
M  V30 4826 H 469.23 -4.80394 1.64877 0
M  V30 4827 H 469.16 -5.26553 -0.0704866 0
M  V30 4828 H 471.651 -3.76245 0.353252 0
M  V30 4829 H 471.964 -7.61048 1.34257 0
M  V30 4830 H 470.309 -6.84552 1.20057 0
M  V30 4831 H 473.5 -4.65187 0.521383 0
M  V30 4832 H 473.673 -6.40664 0.972295 0
M  V30 4833 N 467.08 -0.0183926 -1.57589 0
M  V30 4834 C 468.308 0.673046 -1.95647 0
M  V30 4835 C 468.723 1.66275 -0.894312 0
M  V30 4836 O 468.08 1.82072 0.124975 0
M  V30 4837 C 468.131 1.38884 -3.33756 0
M  V30 4838 O 467.852 0.438806 -4.35897 0
M  V30 4839 C 469.353 2.1731 -3.86383 0
M  V30 4840 H 466.573 0.186292 -0.644621 0
M  V30 4841 H 469.117 -0.0749748 -2.04363 0
M  V30 4842 H 467.272 2.08835 -3.26293 0
M  V30 4843 H 467.686 0.945869 -5.15901 0
M  V30 4844 H 469.16 2.62863 -4.85394 0
M  V30 4845 H 469.637 3.00764 -3.20059 0
M  V30 4846 H 470.243 1.52339 -3.97081 0
M  V30 4847 N 468.558 1.5553 0.254621 0
M  V30 4848 C 469.488 1.9268 1.31897 0
M  V30 4849 C 470.469 0.790797 1.506 0
M  V30 4850 O 471.654 1.05045 1.63337 0
M  V30 4851 C 468.784 2.21477 2.67517 0
M  V30 4852 C 467.738 3.37256 2.63519 0
M  V30 4853 C 467.064 3.51576 4.02862 0
M  V30 4854 C 468.364 4.73157 2.21179 0
M  V30 4855 H 470.058 2.81832 1.01051 0
M  V30 4856 H 467.604 1.35599 0.484662 0
M  V30 4857 H 469.557 2.46055 3.42104 0
M  V30 4858 H 468.281 1.29144 2.99982 0
M  V30 4859 H 466.94 3.12675 1.9139 0
M  V30 4860 H 466.588 2.56676 4.32581 0
M  V30 4861 H 466.288 4.2943 4.01078 0
M  V30 4862 H 467.812 3.78467 4.79161 0
M  V30 4863 H 469.226 4.97158 2.85494 0
M  V30 4864 H 467.623 5.54058 2.30521 0
M  V30 4865 H 468.693 4.70739 1.16332 0
M  V30 4866 N 470.036 -0.519951 1.48776 0
M  V30 4867 C 471.313 -1.28123 1.47797 0
M  V30 4868 C 471.693 -2.10196 0.195157 0
M  V30 4869 O 471.041 -2.13167 -0.822925 0
M  V30 4870 C 471.251 -2.15413 2.74587 0
M  V30 4871 C 472.599 -2.75225 3.23321 0
M  V30 4872 O 473.623 -2.25694 2.75574 0
M  V30 4873 O 472.482 -3.65346 4.06429 0
M  V30 4874 H 469.576 -0.578793 0.590701 0
M  V30 4875 H 472.122 -0.535779 1.6102 0
M  V30 4876 H 470.894 -1.54617 3.59457 0
M  V30 4877 H 470.517 -2.97186 2.64132 0
M  V30 4878 N 471.514 -1.37532 -0.769588 0
M  V30 4879 C 472.424 -1.35668 -1.91393 0
M  V30 4880 C 473.44 -0.255954 -1.72107 0
M  V30 4881 O 474.616 -0.491704 -1.95305 0
M  V30 4882 C 471.681 -1.16481 -3.26547 0
M  V30 4883 C 470.742 -2.36212 -3.58472 0
M  V30 4884 C 469.975 -2.17932 -4.87177 0
M  V30 4885 O 470.198 -1.1647 -5.58382 0
M  V30 4886 O 469.132 -3.06167 -5.18214 0
M  V30 4887 H 472.958 -2.32055 -1.95918 0
M  V30 4888 H 470.543 -1.18284 -0.912641 0
M  V30 4889 H 472.425 -1.07778 -4.07384 0
M  V30 4890 H 471.1 -0.231687 -3.2287 0
M  V30 4891 H 470.007 -2.50488 -2.77861 0
M  V30 4892 H 471.34 -3.281 -3.66894 0
M  V30 4893 N 472.992 0.995999 -1.22138 0
M  V30 4894 C 473.925 2.08302 -0.931952 0
M  V30 4895 C 474.903 1.62127 0.123956 0
M  V30 4896 O 476.087 1.88499 -0.00696004 0
M  V30 4897 C 473.214 3.36317 -0.401068 0
M  V30 4898 C 472.26 4.01413 -1.44117 0
M  V30 4899 S 473.093 4.42664 -3.01345 0
M  V30 4900 C 474.249 5.73853 -2.49887 0
M  V30 4901 H 474.482 2.32532 -1.85246 0
M  V30 4902 H 472.015 1.13005 -1.0521 0
M  V30 4903 H 473.973 4.10375 -0.101352 0
M  V30 4904 H 472.634 3.10123 0.498272 0
M  V30 4905 H 471.827 4.9358 -1.01952 0
M  V30 4906 H 471.429 3.33668 -1.68943 0
M  V30 4907 H 473.721 6.50039 -1.90934 0
M  V30 4908 H 474.664 6.20841 -3.40532 0
M  V30 4909 H 475.072 5.31105 -1.9128 0
M  V30 4910 N 474.47 1.03057 1.19235 0
M  V30 4911 C 475.433 0.617418 2.20727 0
M  V30 4912 C 476.433 -0.319856 1.57587 0
M  V30 4913 O 477.623 -0.106633 1.73873 0
M  V30 4914 C 474.755 -0.096296 3.40764 0
M  V30 4915 H 475.948 1.51544 2.58794 0
M  V30 4916 H 473.501 0.821949 1.32942 0
M  V30 4917 H 474.236 -1.00859 3.08217 0
M  V30 4918 H 474.021 0.577217 3.87828 0
M  V30 4919 H 475.511 -0.372219 4.15938 0
M  V30 4920 N 475.948 -1.35272 0.808662 0
M  V30 4921 C 476.88 -2.28507 0.178149 0
M  V30 4922 C 477.893 -1.50377 -0.623754 0
M  V30 4923 O 479.082 -1.72583 -0.455774 0
M  V30 4924 C 476.182 -3.30038 -0.769959 0
M  V30 4925 C 475.355 -4.37398 -0.0139749 0
M  V30 4926 C 474.414 -5.18775 -0.880875 0
M  V30 4927 O 473.44 -5.68236 -0.331059 0
M  V30 4928 N 474.642 -5.37087 -2.20267 0
M  V30 4929 H 477.407 -2.83255 0.979106 0
M  V30 4930 H 474.968 -1.47643 0.664308 0
M  V30 4931 H 476.96 -3.81371 -1.35418 0
M  V30 4932 H 475.53 -2.75789 -1.47171 0
M  V30 4933 H 474.75 -3.86971 0.751468 0
M  V30 4934 H 476.038 -5.06268 0.506965 0
M  V30 4935 H 475.436 -4.9855 -2.67328 0
M  V30 4936 H 473.993 -5.91593 -2.73608 0
M  V30 4937 N 477.426 -0.562348 -1.47226 0
M  V30 4938 C 478.703 0.0256985 -1.95583 0
M  V30 4939 C 479.083 1.48032 -1.50498 0
M  V30 4940 O 478.431 2.15973 -0.746181 0
M  V30 4941 C 478.641 -0.125129 -3.48776 0
M  V30 4942 C 479.989 0.0175728 -4.24596 0
M  V30 4943 O 481.013 -0.0529341 -3.56161 0
M  V30 4944 O 479.872 0.170145 -5.46235 0
M  V30 4945 H 476.966 0.0612565 -0.824728 0
M  V30 4946 H 479.512 -0.629233 -1.57603 0
M  V30 4947 H 478.284 -1.13715 -3.74412 0
M  V30 4948 H 477.907 0.567178 -3.93534 0
M  V30 4949 N 478.904 1.54736 -0.299062 0
M  V30 4950 C 480.132 2.04512 0.313447 0
M  V30 4951 C 480.547 1.17643 1.47667 0
M  V30 4952 O 479.904 0.20164 1.81383 0
M  V30 4953 C 479.955 3.53171 0.771542 0
M  V30 4954 O 479.676 4.36736 -0.345379 0
M  V30 4955 C 481.177 4.18936 1.4494 0
M  V30 4956 H 478.397 0.667507 0.0683784 0
M  V30 4957 H 480.941 1.99752 -0.438129 0
M  V30 4958 H 479.096 3.58298 1.47314 0
M  V30 4959 H 479.51 5.24499 0.0109219 0
M  V30 4960 H 480.984 5.24482 1.72111 0
M  V30 4961 H 481.461 3.68554 2.38883 0
M  V30 4962 H 482.067 4.17879 0.791028 0
M  V30 4963 N 480.382 0.0267497 1.57577 0
M  V30 4964 C 481.628 -0.647596 1.92815 0
M  V30 4965 C 481.983 -1.69872 0.903396 0
M  V30 4966 O 481.276 -1.91429 -0.0808881 0
M  V30 4967 C 481.47 -1.30914 3.3256 0
M  V30 4968 C 481.299 -0.323621 4.48534 0
M  V30 4969 C 480.069 0.0756607 5.05243 0
M  V30 4970 C 482.267 0.42112 5.12573 0
M  V30 4971 N 480.249 1.0566 6.04739 0
M  V30 4972 C 481.62 1.25589 6.07147 0
M  V30 4973 C 483.675 0.482077 4.95561 0
M  V30 4974 C 482.378 2.1461 6.86538 0
M  V30 4975 C 484.404 1.35962 5.75559 0
M  V30 4976 C 483.766 2.18217 6.69747 0
M  V30 4977 H 479.865 -0.209357 0.753454 0
M  V30 4978 H 482.449 0.0933695 1.94476 0
M  V30 4979 H 480.62 -2.02026 3.31723 0
M  V30 4980 H 482.352 -1.94033 3.55153 0
M  V30 4981 H 479.107 -0.298294 4.7266 0
M  V30 4982 H 479.531 1.54324 6.59176 0
M  V30 4983 H 484.173 -0.139609 4.22569 0
M  V30 4984 H 481.891 2.77835 7.58837 0
M  V30 4985 H 485.477 1.41105 5.6443 0
M  V30 4986 H 484.357 2.85022 7.3057 0
M  V30 4987 N 481.861 -1.55662 -0.24637 0
M  V30 4988 C 482.811 -1.86753 -1.30795 0
M  V30 4989 C 483.795 -0.728445 -1.43466 0
M  V30 4990 O 484.987 -0.99038 -1.46699 0
M  V30 4991 C 482.116 -2.16618 -2.66329 0
M  V30 4992 C 481.202 -3.36855 -2.57661 0
M  V30 4993 N 481.593 -4.56111 -2.18624 0
M  V30 4994 C 479.891 -3.39976 -2.88673 0
M  V30 4995 C 480.592 -5.38247 -2.20601 0
M  V30 4996 N 479.568 -4.77322 -2.60124 0
M  V30 4997 H 483.37 -2.76486 -0.996642 0
M  V30 4998 H 480.884 -1.55896 -0.454994 0
M  V30 4999 H 482.881 -2.37057 -3.42942 0
M  V30 5000 H 481.541 -1.28185 -2.98327 0
M  V30 5001 H 482.552 -4.81726 -1.9016 0
M  V30 5002 H 479.229 -2.61815 -3.25206 0
M  V30 5003 H 480.619 -6.43657 -1.92756 0
M  V30 5004 N 483.339 0.512053 -1.4905 0
M  V30 5005 C 484.585 1.26613 -1.59187 0
M  V30 5006 C 484.94 1.90494 -0.270163 0
M  V30 5007 O 484.233 1.77204 0.728648 0
M  V30 5008 C 484.427 2.36446 -2.68008 0
M  V30 5009 C 484.256 1.83334 -4.10632 0
M  V30 5010 C 483.026 1.65131 -4.77556 0
M  V30 5011 C 485.224 1.35153 -4.96224 0
M  V30 5012 N 483.206 1.06833 -6.04533 0
M  V30 5013 C 484.577 0.889186 -6.13591 0
M  V30 5014 C 486.632 1.23623 -4.82309 0
M  V30 5015 C 485.335 0.322953 -7.18575 0
M  V30 5016 C 487.361 0.683978 -5.87431 0
M  V30 5017 C 486.723 0.2318 -7.04018 0
M  V30 5018 H 482.822 0.453678 -0.636946 0
M  V30 5019 H 485.406 0.575217 -1.86009 0
M  V30 5020 H 483.577 3.03012 -2.42978 0
M  V30 5021 H 485.309 3.03485 -2.67729 0
M  V30 5022 H 482.064 1.89178 -4.34176 0
M  V30 5023 H 482.488 0.796425 -6.72299 0
M  V30 5024 H 487.13 1.57184 -3.92496 0
M  V30 5025 H 484.848 -0.024943 -8.08096 0
M  V30 5026 H 488.434 0.597694 -5.78722 0
M  V30 5027 H 487.314 -0.188869 -7.83973 0
M  V30 5028 N 484.817 1.37938 0.762283 0
M  V30 5029 C 485.749 1.30349 1.88525 0
M  V30 5030 C 486.762 0.217402 1.61342 0
M  V30 5031 O 487.951 0.474291 1.72084 0
M  V30 5032 C 485.051 0.994844 3.23969 0
M  V30 5033 C 484.224 2.18829 3.78725 0
M  V30 5034 C 483.283 1.84844 4.92665 0
M  V30 5035 O 482.309 2.57244 5.07754 0
M  V30 5036 N 483.511 0.798201 5.74986 0
M  V30 5037 H 486.276 2.27114 1.95549 0
M  V30 5038 H 483.837 1.31686 0.941825 0
M  V30 5039 H 485.829 0.748168 3.97724 0
M  V30 5040 H 484.399 0.115446 3.12387 0
M  V30 5041 H 483.619 2.59615 2.96637 0
M  V30 5042 H 484.907 2.98497 4.1204 0
M  V30 5043 H 484.305 0.197611 5.65355 0
M  V30 5044 H 482.862 0.611396 6.48926 0
M  V30 5045 N 486.295 -0.989507 1.22664 0
M  V30 5046 C 487.52 -1.77031 1.08051 0
M  V30 5047 C 487.945 -1.84535 -0.364483 0
M  V30 5048 O 487.303 -1.3003 -1.2634 0
M  V30 5049 C 487.351 -3.18 1.70024 0
M  V30 5050 O 486.455 -4.01161 0.956216 0
M  V30 5051 H 485.796 -0.545008 0.379292 0
M  V30 5052 H 488.326 -1.24277 1.62531 0
M  V30 5053 H 488.336 -3.68616 1.74888 0
M  V30 5054 H 487.011 -3.11853 2.75174 0
M  V30 5055 H 485.588 -3.59687 0.98384 0
M  V30 5056 N 487.773 -1.03688 -1.18687 0
M  V30 5057 C 489.189 -0.755413 -1.4059 0
M  V30 5058 C 489.389 0.656659 -1.905 0
M  V30 5059 O 488.445 1.42144 -2.08689 0
M  V30 5060 C 489.758 -1.7983 -2.41001 0
M  V30 5061 C 491.306 -1.81877 -2.54735 0
M  V30 5062 C 491.781 -2.85148 -3.58406 0
M  V30 5063 N 493.272 -2.84015 -3.6591 0
M  V30 5064 C 494.007 -3.60573 -4.45841 0
M  V30 5065 N 493.503 -4.46871 -5.29413 0
M  V30 5066 N 495.296 -3.49079 -4.40568 0
M  V30 5067 H 487.447 -1.94818 -0.846148 0
M  V30 5068 H 489.71 -0.842727 -0.434184 0
M  V30 5069 H 489.416 -2.81097 -2.1137 0
M  V30 5070 H 489.29 -1.62727 -3.40294 0
M  V30 5071 H 491.677 -0.812836 -2.83685 0
M  V30 5072 H 491.758 -2.03057 -1.55568 0
M  V30 5073 H 491.402 -3.85918 -3.30197 0
M  V30 5074 H 491.332 -2.61224 -4.57241 0
M  V30 5075 H 493.823 -2.21431 -3.0623 0
M  V30 5076 H 494.136 -5.02007 -5.87545 0
M  V30 5077 H 492.481 -4.5094 -5.28846 0
M  V30 5078 H 495.672 -2.81066 -3.74325 0
M  V30 5079 H 495.845 -4.08994 -5.02621 0
M  V30 5080 N 489.251 1.34841 -0.815825 0
M  V30 5081 C 490.201 2.27075 -0.205169 0
M  V30 5082 C 491.185 1.48205 0.626414 0
M  V30 5083 O 492.377 1.70306 0.482157 0
M  V30 5084 C 489.506 3.37322 0.637871 0
M  V30 5085 C 488.592 4.23609 -0.203948 0
M  V30 5086 N 488.983 4.89558 -1.27149 0
M  V30 5087 C 487.281 4.45998 0.0128971 0
M  V30 5088 C 487.982 5.53597 -1.7862 0
M  V30 5089 N 486.958 5.32535 -1.0912 0
M  V30 5090 H 490.76 2.75563 -1.02187 0
M  V30 5091 H 488.274 1.48477 -0.657912 0
M  V30 5092 H 490.271 4.02359 1.09146 0
M  V30 5093 H 488.931 2.90385 1.45281 0
M  V30 5094 H 489.942 4.9077 -1.65423 0
M  V30 5095 H 486.619 4.09837 0.79624 0
M  V30 5096 H 488.009 6.16184 -2.67892 0
M  V30 5097 N 490.729 0.570148 1.46925 0
M  V30 5098 C 492.14 0.1402 1.86173 0
M  V30 5099 C 492.491 -1.29347 1.47526 0
M  V30 5100 O 491.616 -1.97508 0.884292 0
M  V30 5101 C 492.211 0.247661 3.37894 0
M  V30 5102 C 490.77 -0.127332 3.76185 0
M  V30 5103 C 489.917 0.589349 2.70965 0
M  V30 5104 H 492.868 0.779117 1.38259 0
M  V30 5105 H 492.889 -0.530341 3.76786 0
M  V30 5106 H 492.401 1.29121 3.65991 0
M  V30 5107 H 490.502 -1.17149 3.53704 0
M  V30 5108 H 490.615 0.240238 4.78497 0
M  V30 5109 H 488.979 0.0309824 2.54681 0
M  V30 5110 H 489.762 1.6343 3.01903 0
M  V30 5111 N 492.207 -1.54576 0.307264 0
M  V30 5112 C 493.139 -2.21212 -0.599807 0
M  V30 5113 C 494.152 -1.20685 -1.09266 0
M  V30 5114 O 495.341 -1.47244 -1.00903 0
M  V30 5115 C 492.441 -2.84994 -1.83389 0
M  V30 5116 C 491.614 -4.11511 -1.48248 0
M  V30 5117 C 490.673 -4.59038 -2.57237 0
M  V30 5118 O 489.699 -5.24095 -2.22065 0
M  V30 5119 N 490.901 -4.31884 -3.87887 0
M  V30 5120 H 493.666 -2.99686 -0.0293075 0
M  V30 5121 H 491.227 -1.61379 0.129738 0
M  V30 5122 H 493.219 -3.1372 -2.5566 0
M  V30 5123 H 491.789 -2.10324 -2.31263 0
M  V30 5124 H 491.009 -3.89728 -0.592122 0
M  V30 5125 H 492.297 -4.93879 -1.22316 0
M  V30 5126 H 491.695 -3.79778 -4.19268 0
M  V30 5127 H 490.252 -4.65304 -4.56438 0
M  V30 5128 N 493.685 -0.035106 -1.57561 0
M  V30 5129 C 494.933 0.64096 -1.91667 0
M  V30 5130 C 495.254 1.72323 -0.912681 0
M  V30 5131 O 494.524 1.95849 0.0449089 0
M  V30 5132 H 493.104 0.239743 -0.707483 0
M  V30 5133 H 495.766 -0.084321 -1.94718 0
M  V30 5134 H 494.862 1.08987 -2.92452 0
M  V30 5135 N 495.163 1.55791 0.238111 0
M  V30 5136 C 496.393 1.81834 0.980809 0
M  V30 5137 C 496.801 0.609741 1.79106 0
M  V30 5138 O 496.144 -0.431073 1.78571 0
M  V30 5139 C 496.206 3.01363 1.96011 0
M  V30 5140 C 495.87 4.37037 1.33597 0
M  V30 5141 C 496.867 5.14692 0.734063 0
M  V30 5142 C 494.552 4.83743 1.3527 0
M  V30 5143 C 496.546 6.37206 0.157208 0
M  V30 5144 C 494.233 6.06204 0.77199 0
M  V30 5145 C 495.231 6.82775 0.175282 0
M  V30 5146 O 494.919 8.02922 -0.396432 0
M  V30 5147 H 494.651 0.6088 0.293834 0
M  V30 5148 H 497.205 2.03702 0.263552 0
M  V30 5149 H 495.435 2.75273 2.71591 0
M  V30 5150 H 497.124 3.14422 2.56697 0
M  V30 5151 H 497.89 4.79722 0.713582 0
M  V30 5152 H 493.769 4.24129 1.80653 0
M  V30 5153 H 497.313 6.96915 -0.30917 0
M  V30 5154 H 493.21 6.4065 0.789828 0
M  V30 5155 H 493.978 8.17989 -0.289145 0
M  V30 5156 N 496.642 -0.504142 1.49319 0
M  V30 5157 C 498.053 -1.08572 1.51885 0
M  V30 5158 C 498.404 -1.93842 0.303255 0
M  V30 5159 O 497.529 -2.0828 -0.58724 0
M  V30 5160 C 498.124 -1.97574 2.75227 0
M  V30 5161 C 496.683 -2.509 2.80581 0
M  V30 5162 C 495.83 -1.28447 2.45757 0
M  V30 5163 H 498.781 -0.288194 1.56061 0
M  V30 5164 H 498.802 -2.82219 2.55211 0
M  V30 5165 H 498.314 -1.35486 3.63683 0
M  V30 5166 H 496.415 -3.16636 1.96398 0
M  V30 5167 H 496.528 -2.88268 3.82673 0
M  V30 5168 H 494.892 -1.60868 1.97468 0
M  V30 5169 H 495.675 -0.68072 3.36483 0
M  V30 5170 N 498.12 -1.38341 -0.754957 0
M  V30 5171 C 499.397 -1.24995 -1.50451 0
M  V30 5172 C 499.777 0.149244 -2.10572 0
M  V30 5173 O 499.125 1.15861 -1.96948 0
M  V30 5174 C 499.335 -2.35904 -2.57197 0
M  V30 5175 C 500.683 -2.74262 -3.24138 0
M  V30 5176 O 501.707 -2.35205 -2.67501 0
M  V30 5177 O 500.566 -3.4161 -4.26574 0
M  V30 5178 H 497.66 -0.48872 -0.667144 0
M  V30 5179 H 500.206 -1.50165 -0.790486 0
M  V30 5180 H 498.978 -3.2953 -2.11011 0
M  V30 5181 H 498.601 -2.12291 -3.36182 0
M  V30 5182 O 499.637 0.895511 -1.34398 0
M  V30 5183 H 500.328 1.53136 -1.18614 0
M  V30 END ATOM
M  V30 BEGIN BOND
M  V30 END BOND
M  V30 END CTAB
M  END
$$$$
