448803
  -OEChem-12181917083D

 59 60  0     1  0  0  0  0  0999 V2000
   -4.0637   -1.0810   -0.0227 P   0  0  1  0  0  0  0  0  0  0  0  0
   -4.0518    1.8535    0.1919 P   0  0  1  0  0  0  0  0  0  0  0  0
    0.5142   -2.9678   -0.9113 O   0  0  0  0  0  0  0  0  0  0  0  0
    0.1878   -4.2283    1.7894 O   0  0  0  0  0  0  0  0  0  0  0  0
    1.7874   -2.0846    2.3227 O   0  0  0  0  0  0  0  0  0  0  0  0
   -2.8382   -2.1073    0.2294 O   0  0  0  0  0  0  0  0  0  0  0  0
    4.3135   -1.8468    0.1834 O   0  0  0  0  0  0  0  0  0  0  0  0
   -3.3882    0.3856    0.0590 O   0  0  0  0  0  0  0  0  0  0  0  0
   -4.4084   -1.2431   -1.5951 O   0  0  0  0  0  0  0  0  0  0  0  0
   -2.7808    2.8389    0.0356 O   0  0  0  0  0  0  0  0  0  0  0  0
   -5.2394   -1.2688    0.8916 O   0  0  0  0  0  0  0  0  0  0  0  0
    3.9993    1.6766   -2.7716 O   0  0  0  0  0  0  0  0  0  0  0  0
   -4.8489    2.0203   -1.2057 O   0  0  0  0  0  0  0  0  0  0  0  0
   -4.8848    2.0531    1.4243 O   0  0  0  0  0  0  0  0  0  0  0  0
    2.2301   -1.3866   -0.7685 N   0  0  0  0  0  0  0  0  0  0  0  0
    4.1548   -0.0922   -1.2878 N   0  0  0  0  0  0  0  0  0  0  0  0
    4.1720    2.5861    3.2593 N   0  0  0  0  0  0  0  0  0  0  0  0
   -0.2554   -2.9520    1.3290 C   0  0  1  0  0  0  0  0  0  0  0  0
    0.9158   -1.9996    1.2139 C   0  0  2  0  0  0  0  0  0  0  0  0
   -0.6888   -3.1017   -0.1230 C   0  0  1  0  0  0  0  0  0  0  0  0
    1.5685   -2.4574   -0.0790 C   0  0  1  0  0  0  0  0  0  0  0  0
   -1.6718   -2.0286   -0.5716 C   0  0  0  0  0  0  0  0  0  0  0  0
    3.6124   -1.1637   -0.5660 C   0  0  0  0  0  0  0  0  0  0  0  0
    1.5115   -0.5701   -1.6340 C   0  0  0  0  0  0  0  0  0  0  0  0
    2.0425    0.4476   -2.3151 C   0  0  0  0  0  0  0  0  0  0  0  0
    3.4800    0.7480   -2.1599 C   0  0  0  0  0  0  0  0  0  0  0  0
    0.0997    2.6644    0.3536 C   0  0  0  0  0  0  0  0  0  0  0  0
    1.4381    3.3386    0.6626 C   0  0  0  0  0  0  0  0  0  0  0  0
   -0.6020    3.3357   -0.8250 C   0  0  0  0  0  0  0  0  0  0  0  0
    2.1550    2.6420    1.8233 C   0  0  0  0  0  0  0  0  0  0  0  0
   -1.9541    2.6979   -1.1114 C   0  0  0  0  0  0  0  0  0  0  0  0
    3.4936    3.2914    2.1788 C   0  0  0  0  0  0  0  0  0  0  0  0
   -1.0292   -2.6010    2.0172 H   0  0  0  0  0  0  0  0  0  0  0  0
    0.5567   -0.9662    1.1350 H   0  0  0  0  0  0  0  0  0  0  0  0
   -1.1130   -4.0941   -0.3140 H   0  0  0  0  0  0  0  0  0  0  0  0
    2.2807   -3.2714    0.1028 H   0  0  0  0  0  0  0  0  0  0  0  0
   -1.2486   -1.0261   -0.4695 H   0  0  0  0  0  0  0  0  0  0  0  0
   -1.9297   -2.1713   -1.6263 H   0  0  0  0  0  0  0  0  0  0  0  0
   -0.5890   -4.8128    1.8182 H   0  0  0  0  0  0  0  0  0  0  0  0
    1.2679   -1.8801    3.1188 H   0  0  0  0  0  0  0  0  0  0  0  0
    0.4588   -0.7734   -1.7645 H   0  0  0  0  0  0  0  0  0  0  0  0
    5.1466    0.0866   -1.1573 H   0  0  0  0  0  0  0  0  0  0  0  0
    1.4504    1.0638   -2.9805 H   0  0  0  0  0  0  0  0  0  0  0  0
   -0.5344    2.7096    1.2471 H   0  0  0  0  0  0  0  0  0  0  0  0
    0.2599    1.6035    0.1308 H   0  0  0  0  0  0  0  0  0  0  0  0
    2.0783    3.3148   -0.2275 H   0  0  0  0  0  0  0  0  0  0  0  0
    1.2715    4.3928    0.9144 H   0  0  0  0  0  0  0  0  0  0  0  0
   -0.7482    4.3976   -0.5920 H   0  0  0  0  0  0  0  0  0  0  0  0
    0.0264    3.2761   -1.7208 H   0  0  0  0  0  0  0  0  0  0  0  0
    2.3215    1.5891    1.5601 H   0  0  0  0  0  0  0  0  0  0  0  0
    1.5028    2.6480    2.7061 H   0  0  0  0  0  0  0  0  0  0  0  0
   -1.8237    1.6432   -1.3732 H   0  0  0  0  0  0  0  0  0  0  0  0
   -2.4342    3.2077   -1.9525 H   0  0  0  0  0  0  0  0  0  0  0  0
    4.1458    3.2963    1.2986 H   0  0  0  0  0  0  0  0  0  0  0  0
    3.3328    4.3341    2.4743 H   0  0  0  0  0  0  0  0  0  0  0  0
   -5.2079   -0.8015   -1.9527 H   0  0  0  0  0  0  0  0  0  0  0  0
    5.0268    3.0840    3.5042 H   0  0  0  0  0  0  0  0  0  0  0  0
    3.5870    2.5938    4.0938 H   0  0  0  0  0  0  0  0  0  0  0  0
   -4.3867    1.8298   -2.0495 H   0  0  0  0  0  0  0  0  0  0  0  0
  1  6  1  0  0  0  0
  1  8  1  0  0  0  0
  1  9  1  0  0  0  0
  1 11  2  0  0  0  0
  2  8  1  0  0  0  0
  2 10  1  0  0  0  0
  2 13  1  0  0  0  0
  2 14  2  0  0  0  0
  3 20  1  0  0  0  0
  3 21  1  0  0  0  0
  4 18  1  0  0  0  0
  4 39  1  0  0  0  0
  5 19  1  0  0  0  0
  5 40  1  0  0  0  0
  6 22  1  0  0  0  0
  7 23  2  0  0  0  0
  9 56  1  0  0  0  0
 10 31  1  0  0  0  0
 12 26  2  0  0  0  0
 13 59  1  0  0  0  0
 15 21  1  0  0  0  0
 15 23  1  0  0  0  0
 15 24  1  0  0  0  0
 16 23  1  0  0  0  0
 16 26  1  0  0  0  0
 16 42  1  0  0  0  0
 17 32  1  0  0  0  0
 17 57  1  0  0  0  0
 17 58  1  0  0  0  0
 18 19  1  0  0  0  0
 18 20  1  0  0  0  0
 18 33  1  0  0  0  0
 19 21  1  0  0  0  0
 19 34  1  0  0  0  0
 20 22  1  0  0  0  0
 20 35  1  0  0  0  0
 21 36  1  0  0  0  0
 22 37  1  0  0  0  0
 22 38  1  0  0  0  0
 24 25  2  0  0  0  0
 24 41  1  0  0  0  0
 25 26  1  0  0  0  0
 25 43  1  0  0  0  0
 27 28  1  0  0  0  0
 27 29  1  0  0  0  0
 27 44  1  0  0  0  0
 27 45  1  0  0  0  0
 28 30  1  0  0  0  0
 28 46  1  0  0  0  0
 28 47  1  0  0  0  0
 29 31  1  0  0  0  0
 29 48  1  0  0  0  0
 29 49  1  0  0  0  0
 30 32  1  0  0  0  0
 30 50  1  0  0  0  0
 30 51  1  0  0  0  0
 31 52  1  0  0  0  0
 31 53  1  0  0  0  0
 32 54  1  0  0  0  0
 32 55  1  0  0  0  0
M  END
> <DATABASE_ID>
DB02696

> <DATABASE_NAME>
drugbank

> <ORIGINAL_SOURCE>
PUBCHEM

> <ORIGINAL_SOURCE_URL>
https://pubchem.ncbi.nlm.nih.gov/rest/pug/compound/inchikey/MLWJBKPFDKRHBM-FMKGYKFTSA-N/SDF?record_type=3d

> <SMILES>
[H]N([H])CCCCCCOP(O)(=O)OP(O)(=O)OC[C@H]1O[C@H]([C@H](O)[C@@H]1O)N1C=CC(=O)N([H])C1=O

> <INCHI_IDENTIFIER>
InChI=1S/C15H27N3O12P2/c16-6-3-1-2-4-8-27-31(23,24)30-32(25,26)28-9-10-12(20)13(21)14(29-10)18-7-5-11(19)17-15(18)22/h5,7,10,12-14,20-21H,1-4,6,8-9,16H2,(H,23,24)(H,25,26)(H,17,19,22)/t10-,12-,13-,14-/m1/s1

> <INCHI_KEY>
MLWJBKPFDKRHBM-FMKGYKFTSA-N

> <FORMULA>
C15H27N3O12P2

> <MOLECULAR_WEIGHT>
503.3353

> <EXACT_MASS>
503.106996367

> <JCHEM_ACCEPTOR_COUNT>
10

> <JCHEM_ATOM_COUNT>
59

> <JCHEM_AVERAGE_NEUTRAL_MICROSPECIES_CHARGE>
-1.0029816996721825

> <JCHEM_AVERAGE_POLARIZABILITY>
44.98296915636551

> <JCHEM_BIOAVAILABILITY>
0

> <JCHEM_DONOR_COUNT>
6

> <JCHEM_FORMAL_CHARGE>
0

> <JCHEM_GHOSE_FILTER>
0

> <JCHEM_IUPAC>
[(6-aminohexyl)oxy][({[(2R,3S,4R,5R)-5-(2,4-dioxo-1,2,3,4-tetrahydropyrimidin-1-yl)-3,4-dihydroxyoxolan-2-yl]methoxy}(hydroxy)phosphoryl)oxy]phosphinic acid

> <ALOGPS_LOGP>
-0.58

> <JCHEM_LOGP>
-3.124430292633696

> <ALOGPS_LOGS>
-1.89

> <JCHEM_MDDR_LIKE_RULE>
0

> <JCHEM_NEUTRAL_CHARGE>
-1

> <JCHEM_NUMBER_OF_RINGS>
2

> <JCHEM_PHYSIOLOGICAL_CHARGE>
-1

> <JCHEM_PKA>
3.282064894723781

> <JCHEM_PKA_STRONGEST_ACIDIC>
1.866615773707876

> <JCHEM_PKA_STRONGEST_BASIC>
10.322040722221768

> <JCHEM_POLAR_SURFACE_AREA>
227.41000000000003

> <JCHEM_REFRACTIVITY>
105.45549999999997

> <JCHEM_ROTATABLE_BOND_COUNT>
13

> <JCHEM_RULE_OF_FIVE>
0

> <ALOGPS_SOLUBILITY>
6.51e+00 g/l

> <JCHEM_TRADITIONAL_IUPAC>
doravirine

> <JCHEM_VEBER_RULE>
0

> <DRUGBANK_ID>
DB02696

> <SECONDARY_ACCESSION_NUMBERS>
EXPT03171

> <DRUG_GROUPS>
experimental

> <GENERIC_NAME>
6-Aminohexyl-uridine-C1,5'-diphosphate

$$$$