drugbank_target|P13500 C-C motif chemokine 2 (DB01055; DB01406; DB09301)
 OpenBabel12092119473D

  0  0  0     0  0            999 V3000
M  V30 BEGIN CTAB
M  V30 COUNTS 1581 1594 0 0 0
M  V30 BEGIN ATOM
M  V30 1 H -0.908 1.98254 -0.117106 0
M  V30 2 N 0 1.576 0 0
M  V30 3 C 0.933 2.03868 1.02534 0
M  V30 4 C 1.911 0.928543 1.3348 0
M  V30 5 O 3.095 1.19667 1.45644 0
M  V30 6 C 0.222 2.43627 2.35294 0
M  V30 7 C -0.732 3.65373 2.2001 0
M  V30 8 S 0.101 5.13292 1.52614 0
M  V30 9 C 1.257 5.56322 2.86805 0
M  V30 10 H 1.49 2.90518 0.631377 0
M  V30 11 H -0.977 1.52953 0.210867 0
M  V30 12 H 0.981 2.67203 3.11629 0
M  V30 13 H -0.358 1.57376 2.7183 0
M  V30 14 H -1.165 3.90944 3.18086 0
M  V30 15 H -1.563 3.418 1.51819 0
M  V30 16 H 0.729 5.58782 3.83104 0
M  V30 17 H 1.672 6.56266 2.65933 0
M  V30 18 H 2.08 4.83886 2.90714 0
M  V30 19 N 1.4781 -0.272755 1.55222 0
M  V30 20 C 2.4251 -1.33716 1.88119 0
M  V30 21 C 3.3951 -1.49066 0.73271 0
M  V30 22 O 4.5801 -1.63469 0.984002 0
M  V30 23 C 1.7201 -2.69238 2.15882 0
M  V30 24 C 0.8331 -2.62108 3.43399 0
M  V30 25 C -0.0319 -3.89811 3.60861 0
M  V30 26 C -0.9929 -3.77193 4.8207 0
M  V30 27 N -1.8559 -4.9673 4.96189 0
M  V30 28 H 2.9841 -1.04962 2.78903 0
M  V30 29 H 0.5211 -0.507088 1.38083 0
M  V30 30 H 2.4791 -3.48089 2.29978 0
M  V30 31 H 1.1091 -2.96194 1.28331 0
M  V30 32 H 0.1611 -1.74967 3.37773 0
M  V30 33 H 1.4731 -2.48685 4.32386 0
M  V30 34 H 0.6271 -4.77103 3.74777 0
M  V30 35 H -0.6339 -4.06102 2.7006 0
M  V30 36 H -1.6289 -2.88284 4.68159 0
M  V30 37 H -0.4039 -3.62421 5.74307 0
M  V30 38 H -2.4579 -5.13431 4.08319 0
M  V30 39 H -2.5409 -4.85839 5.79221 0
M  V30 40 H -1.2729 -5.85594 5.1449 0
M  V30 41 N 2.9562 -1.48159 -0.537278 0
M  V30 42 C 4.2022 -1.56035 -1.29541 0
M  V30 43 C 4.5352 -0.230377 -1.92829 0
M  V30 44 O 3.8102 0.762952 -1.78911 0
M  V30 45 C 4.0932 -2.69323 -2.39034 0
M  V30 46 C 3.9462 -4.12002 -1.80485 0
M  V30 47 C 5.2652 -2.78408 -3.40847 0
M  V30 48 H 2.3842 -0.567992 -0.469632 0
M  V30 49 H 5.0262 -1.80302 -0.599277 0
M  V30 50 H 3.1762 -2.48763 -2.98412 0
M  V30 51 H 4.8482 -4.43981 -1.25215 0
M  V30 52 H 3.0912 -4.19344 -1.11055 0
M  V30 53 H 3.7622 -4.87077 -2.59731 0
M  V30 54 H 6.2382 -2.97012 -2.91416 0
M  V30 55 H 5.1142 -3.59416 -4.14863 0
M  V30 56 H 5.3752 -1.86269 -4.00944 0
M  V30 57 N 4.4343 0.785586 -1.36625 0
M  V30 58 C 5.6593 1.57963 -1.34397 0
M  V30 59 C 6.0843 1.87964 0.071526 0
M  V30 60 O 5.4423 1.48182 1.0446 0
M  V30 61 C 5.4903 2.87511 -2.17646 0
M  V30 62 O 4.5943 3.81281 -1.57158 0
M  V30 63 H 3.9353 0.479014 -0.459828 0
M  V30 64 H 6.4653 0.973411 -1.79961 0
M  V30 65 H 6.4753 3.36745 -2.30362 0
M  V30 66 H 5.1503 2.65002 -3.20541 0
M  V30 67 H 3.7273 3.39885 -1.53403 0
M  V30 68 N 5.9124 1.20967 1.01018 0
M  V30 69 C 6.8754 0.965918 2.07853 0
M  V30 70 C 7.8754 -0.0610545 1.60684 0
M  V30 71 O 9.0654 0.175681 1.73312 0
M  V30 72 C 6.1974 0.455513 3.37843 0
M  V30 73 H 7.3904 1.91365 2.3091 0
M  V30 74 H 4.9434 1.02594 1.17916 0
M  V30 75 H 5.6784 -0.497381 3.20463 0
M  V30 76 H 5.4634 1.19622 3.73407 0
M  V30 77 H 6.9534 0.304667 4.16487 0
M  V30 78 N 7.3905 -1.2043 1.01659 0
M  V30 79 C 8.3535 -2.21433 0.591616 0
M  V30 80 C 9.3535 -1.57203 -0.338226 0
M  V30 81 O 10.5435 -1.73737 -0.126918 0
M  V30 82 C 7.6755 -3.40628 -0.136058 0
M  V30 83 H 8.8685 -2.60545 1.48514 0
M  V30 84 H 6.4215 -1.33893 0.806379 0
M  V30 85 H 7.1565 -3.07019 -1.04449 0
M  V30 86 H 6.9415 -3.88475 0.531917 0
M  V30 87 H 8.4315 -4.15475 -0.420735 0
M  V30 88 N 8.8686 -0.792821 -1.36206 0
M  V30 89 C 9.7986 -0.207853 -2.32573 0
M  V30 90 C 10.7796 0.659055 -1.56813 0
M  V30 91 O 11.9646 0.592176 -1.84951 0
M  V30 92 C 9.0946 0.655449 -3.41059 0
M  V30 93 C 8.0486 -0.111842 -4.27854 0
M  V30 94 C 7.3746 0.872274 -5.27537 0
M  V30 95 C 8.6746 -1.30299 -5.05786 0
M  V30 96 H 10.3686 -1.01294 -2.81744 0
M  V30 97 H 7.9146 -0.48854 -1.3546 0
M  V30 98 H 9.8676 1.07464 -4.07467 0
M  V30 99 H 8.5916 1.49328 -2.90463 0
M  V30 100 H 7.2506 -0.512053 -3.63006 0
M  V30 101 H 6.8986 1.70523 -4.73214 0
M  V30 102 H 6.5986 0.363291 -5.86476 0
M  V30 103 H 8.1226 1.28996 -5.96818 0
M  V30 104 H 9.5366 -0.959379 -5.65216 0
M  V30 105 H 7.9336 -1.7455 -5.74154 0
M  V30 106 H 9.0036 -2.09663 -4.37229 0
M  V30 107 N 10.3467 1.47872 -0.545128 0
M  V30 108 C 11.2767 2.32661 0.197793 0
M  V30 109 C 12.2577 1.43041 0.920504 0
M  V30 110 O 13.4427 1.71912 0.90333 0
M  V30 111 C 10.5727 3.24569 1.23582 0
M  V30 112 C 9.5267 4.23333 0.630323 0
M  V30 113 C 8.8527 5.0448 1.77211 0
M  V30 114 C 10.1527 5.20704 -0.407974 0
M  V30 115 H 11.8467 2.95024 -0.510045 0
M  V30 116 H 9.3927 1.4187 -0.246731 0
M  V30 117 H 11.3457 3.8272 1.76362 0
M  V30 118 H 10.0697 2.60236 1.97344 0
M  V30 119 H 8.7287 3.6639 0.123922 0
M  V30 120 H 8.3767 4.36561 2.49847 0
M  V30 121 H 8.0767 5.71339 1.37281 0
M  V30 122 H 9.6007 5.65487 2.3034 0
M  V30 123 H 11.0147 5.7329 0.033305 0
M  V30 124 H 9.4117 5.95699 -0.725486 0
M  V30 125 H 10.4817 4.66917 -1.30828 0
M  V30 126 N 11.8248 0.280983 1.55075 0
M  V30 127 C 13.0648 -0.335234 2.01632 0
M  V30 128 C 13.4288 -1.5261 1.16508 0
M  V30 129 O 14.6298 -2.21235 1.52672 0
M  V30 130 C 12.9008 -0.702172 3.50434 0
M  V30 131 S 14.4598 -1.30409 4.18974 0
M  V30 132 H 11.2778 -0.103967 0.703358 0
M  V30 133 H 13.8798 0.404187 1.91276 0
M  V30 134 H 12.5838 0.17333 4.10034 0
M  V30 135 H 12.1148 -1.4729 3.64786 0
M  V30 136 H 14.1298 -2.59253 4.23087 0
M  V30 137 N 13.3029 -1.57598 0.00835791 0
M  V30 138 C 14.2329 -2.1198 -0.979113 0
M  V30 139 C 15.2139 -1.03091 -1.35301 0
M  V30 140 O 16.3989 -1.30818 -1.43528 0
M  V30 141 C 13.5289 -2.62995 -2.26828 0
M  V30 142 C 12.4829 -3.76485 -2.03576 0
M  V30 143 C 11.8089 -4.13846 -3.38579 0
M  V30 144 C 13.1089 -5.0342 -1.39161 0
M  V30 145 H 14.8029 -2.94738 -0.526281 0
M  V30 146 H 12.3489 -1.41783 -0.251704 0
M  V30 147 H 14.3019 -2.99669 -2.96271 0
M  V30 148 H 13.0259 -1.7737 -2.7424 0
M  V30 149 H 11.6849 -3.40217 -1.36557 0
M  V30 150 H 11.3329 -3.25232 -3.83709 0
M  V30 151 H 11.0329 -4.90312 -3.23834 0
M  V30 152 H 12.5569 -4.53086 -4.09323 0
M  V30 153 H 13.9709 -5.37812 -1.98573 0
M  V30 154 H 12.3679 -5.84746 -1.34878 0
M  V30 155 H 13.4379 -4.83548 -0.361868 0
M  V30 156 N 14.781 0.264519 -1.55364 0
M  V30 157 C 15.711 1.33121 -1.91836 0
M  V30 158 C 16.692 1.51101 -0.781192 0
M  V30 159 O 17.877 1.64003 -1.04003 0
M  V30 160 C 15.007 2.68921 -2.19769 0
M  V30 161 C 13.961 2.65661 -3.35571 0
M  V30 162 C 13.287 4.05093 -3.49004 0
M  V30 163 C 14.587 2.24187 -4.71739 0
M  V30 164 H 16.281 1.02844 -2.81182 0
M  V30 165 H 13.827 0.493286 -1.35287 0
M  V30 166 H 15.78 3.43663 -2.43872 0
M  V30 167 H 14.504 3.00799 -1.27231 0
M  V30 168 H 13.163 1.93377 -3.1145 0
M  V30 169 H 12.811 4.34206 -2.53917 0
M  V30 170 H 12.511 4.03804 -4.26868 0
M  V30 171 H 14.035 4.81561 -3.75408 0
M  V30 172 H 15.449 2.88654 -4.9533 0
M  V30 173 H 13.846 2.34044 -5.52579 0
M  V30 174 H 14.916 1.19327 -4.69988 0
M  V30 175 N 16.2591 1.48442 0.529413 0
M  V30 176 C 17.1891 1.65902 1.64313 0
M  V30 177 C 18.1701 0.507897 1.6234 0
M  V30 178 O 19.3551 0.740503 1.79528 0
M  V30 179 C 16.4851 1.69911 3.02898 0
M  V30 180 C 15.4391 2.8453 3.19729 0
M  V30 181 C 14.7651 2.73629 4.59381 0
M  V30 182 C 16.0651 4.25821 3.02447 0
M  V30 183 H 17.7591 2.5914 1.49955 0
M  V30 184 H 15.3051 1.24709 0.719982 0
M  V30 185 H 17.2581 1.80715 3.80684 0
M  V30 186 H 15.9821 0.732524 3.18279 0
M  V30 187 H 14.6411 2.73283 2.44361 0
M  V30 188 H 14.2891 1.74938 4.71599 0
M  V30 189 H 13.9891 3.50541 4.71588 0
M  V30 190 H 15.5131 2.86401 5.39265 0
M  V30 191 H 16.9271 4.37898 3.70024 0
M  V30 192 H 15.3241 5.03735 3.26146 0
M  V30 193 H 16.3941 4.42244 1.98867 0
M  V30 194 N 17.7372 -0.778329 1.37039 0
M  V30 195 C 18.9862 -1.53189 1.3121 0
M  V30 196 C 19.2992 -1.95328 -0.103095 0
M  V30 197 O 20.5052 -2.70012 -0.283826 0
M  V30 198 C 18.9612 -2.76591 2.30272 0
M  V30 199 C 18.5692 -2.41577 3.77286 0
M  V30 200 C 20.3132 -3.5455 2.33441 0
M  V30 201 C 18.2202 -3.61441 4.68096 0
M  V30 202 H 17.1502 -0.5751 0.487622 0
M  V30 203 H 19.8012 -0.853101 1.62464 0
M  V30 204 H 18.1832 -3.46326 1.92027 0
M  V30 205 H 19.3572 -1.79668 4.2433 0
M  V30 206 H 17.6722 -1.76806 3.76999 0
M  V30 207 H 20.2692 -4.43628 2.98493 0
M  V30 208 H 20.6122 -3.93936 1.34611 0
M  V30 209 H 21.1452 -2.91805 2.7036 0
M  V30 210 H 17.8842 -3.27142 5.6803 0
M  V30 211 H 17.4042 -4.22478 4.25761 0
M  V30 212 H 19.0832 -4.28335 4.8491 0
M  V30 213 N 19.2153 -1.21501 -1.00376 0
M  V30 214 C 20.1783 -0.976927 -2.07337 0
M  V30 215 C 21.1783 0.0525322 -1.60714 0
M  V30 216 O 22.3683 -0.184869 -1.73216 0
M  V30 217 C 19.5003 -0.473423 -3.37597 0
M  V30 218 H 20.6933 -1.92587 -2.29892 0
M  V30 219 H 18.2463 -1.03217 -1.17371 0
M  V30 220 H 18.9813 0.480379 -3.20722 0
M  V30 221 H 18.7663 -1.216 -3.72768 0
M  V30 222 H 20.2563 -0.32675 -4.1632 0
M  V30 223 N 20.6934 1.19889 -1.02296 0
M  V30 224 C 21.6564 2.21116 -0.603351 0
M  V30 225 C 22.6564 1.5738 0.329884 0
M  V30 226 O 23.8464 1.73802 0.117702 0
M  V30 227 C 20.9784 3.40696 0.117992 0
M  V30 228 H 22.1714 2.59754 -1.49893 0
M  V30 229 H 19.7244 1.33463 -0.813468 0
M  V30 230 H 20.4594 3.07569 1.0282 0
M  V30 231 H 20.2444 3.88188 -0.552511 0
M  V30 232 H 21.7344 4.15692 0.398696 0
M  V30 233 N 22.1715 0.800033 1.35784 0
M  V30 234 C 23.3995 0.389606 2.03199 0
M  V30 235 C 23.8145 -0.997375 1.60306 0
M  V30 236 O 23.1715 -1.64154 0.797481 0
M  V30 237 C 23.2225 0.455855 3.58614 0
M  V30 238 O 22.9435 1.78815 3.99946 0
M  V30 239 C 24.4445 0.0374032 4.43284 0
M  V30 240 H 21.6645 0.159132 0.651857 0
M  V30 241 H 24.2085 1.08183 1.73541 0
M  V30 242 H 22.3635 -0.188057 3.86943 0
M  V30 243 H 22.7775 1.74636 4.94573 0
M  V30 244 H 24.2515 0.134882 5.51835 0
M  V30 245 H 24.7285 -1.01651 4.27275 0
M  V30 246 H 25.3345 0.654215 4.20238 0
M  V30 247 N 23.6496 -1.47581 0.552962 0
M  V30 248 C 24.8966 -2.02482 0.0273243 0
M  V30 249 C 25.2246 -1.42776 -1.32081 0
M  V30 250 O 24.4796 -0.571393 -1.87173 0
M  V30 251 C 24.7786 -3.57199 -0.119728 0
M  V30 252 C 24.4446 -4.35804 1.15697 0
M  V30 253 C 23.1066 -4.57 1.50681 0
M  V30 254 C 25.4586 -4.81167 2.00319 0
M  V30 255 C 22.7866 -5.20807 2.70142 0
M  V30 256 C 25.1386 -5.46293 3.18978 0
M  V30 257 C 23.8026 -5.65722 3.54281 0
M  V30 258 H 23.0726 -0.740933 0.00999866 0
M  V30 259 H 25.7196 -1.77302 0.72362 0
M  V30 260 H 24.0246 -3.81348 -0.89896 0
M  V30 261 H 25.7216 -3.97324 -0.541718 0
M  V30 262 H 22.3116 -4.19582 0.874561 0
M  V30 263 H 26.4956 -4.64574 1.74599 0
M  V30 264 H 21.7516 -5.34045 2.97668 0
M  V30 265 H 25.9256 -5.80407 3.84838 0
M  V30 266 H 23.5526 -6.14936 4.46942 0
M  V30 267 N 25.1277 -0.289203 -1.54924 0
M  V30 268 C 26.3767 0.324231 -1.99077 0
M  V30 269 C 26.6897 1.5591 -1.18117 0
M  V30 270 O 27.8957 2.24637 -1.52481 0
M  V30 271 C 26.3517 0.628209 -3.54375 0
M  V30 272 C 25.9597 -0.587647 -4.44129 0
M  V30 273 C 27.7037 1.20349 -4.07083 0
M  V30 274 C 25.6107 -0.257475 -5.90839 0
M  V30 275 H 24.5407 0.124924 -0.743579 0
M  V30 276 H 27.1917 -0.396063 -1.79175 0
M  V30 277 H 25.5737 1.40778 -3.70132 0
M  V30 278 H 26.7477 -1.36418 -4.40144 0
M  V30 279 H 25.0627 -1.08074 -4.0213 0
M  V30 280 H 27.6597 1.46456 -5.14252 0
M  V30 281 H 28.0027 2.14195 -3.56968 0
M  V30 282 H 28.5357 0.485889 -3.94821 0
M  V30 283 H 25.2747 -1.16419 -6.45079 0
M  V30 284 H 24.7947 0.482018 -5.9786 0
M  V30 285 H 26.4737 0.145238 -6.46837 0
M  V30 286 N 26.6058 1.57591 -0.0167156 0
M  V30 287 C 28.0168 1.79201 0.523834 0
M  V30 288 C 28.3678 0.925796 1.72984 0
M  V30 289 O 27.4928 0.132792 2.15992 0
M  V30 290 C 28.0878 3.25 0.957091 0
M  V30 291 C 26.6468 3.47648 1.44283 0
M  V30 292 C 25.7938 2.74374 0.401757 0
M  V30 293 H 28.7448 1.56831 -0.242816 0
M  V30 294 H 28.7658 3.34031 1.82219 0
M  V30 295 H 28.2778 3.88019 0.0791415 0
M  V30 296 H 26.3788 2.89866 2.34113 0
M  V30 297 H 26.4918 4.56352 1.45877 0
M  V30 298 H 24.8558 2.39485 0.867121 0
M  V30 299 H 25.6388 3.40102 -0.467513 0
M  V30 300 N 28.0839 -0.256276 1.55502 0
M  V30 301 C 29.0159 -1.33981 1.85962 0
M  V30 302 C 30.0289 -1.44743 0.745212 0
M  V30 303 O 31.2179 -1.4626 1.02324 0
M  V30 304 C 28.3179 -2.7194 2.02242 0
M  V30 305 C 27.4909 -2.83562 3.33033 0
M  V30 306 C 26.5499 -4.02304 3.39172 0
M  V30 307 O 25.5759 -3.92273 4.12444 0
M  V30 308 N 26.7779 -5.15045 2.67784 0
M  V30 309 H 29.5429 -1.08191 2.7949 0
M  V30 310 H 27.1039 -0.446388 1.55624 0
M  V30 311 H 29.0959 -3.49697 2.03701 0
M  V30 312 H 27.6659 -2.90479 1.15502 0
M  V30 313 H 26.8859 -1.92555 3.43971 0
M  V30 314 H 28.1739 -2.88271 4.19258 0
M  V30 315 H 27.5719 -5.26085 2.07968 0
M  V30 316 H 26.1289 -5.90972 2.74947 0
M  V30 317 N 29.562 -1.4872 -0.521534 0
M  V30 318 C 30.81 -1.56857 -1.27437 0
M  V30 319 C 31.131 -0.247982 -1.93417 0
M  V30 320 O 30.401 0.731151 -1.81744 0
M  V30 321 H 28.981 -0.577885 -0.473347 0
M  V30 322 H 31.643 -1.85233 -0.606205 0
M  V30 323 H 30.739 -2.35402 -2.0492 0
M  V30 324 N 31.0401 0.771051 -1.3745 0
M  V30 325 C 31.9701 1.89827 -1.3597 0
M  V30 326 C 32.9511 1.68562 -0.228216 0
M  V30 327 O 34.1361 1.8941 -0.428675 0
M  V30 328 C 31.2661 3.2712 -1.16662 0
M  V30 329 C 30.2201 3.6295 -2.2683 0
M  V30 330 C 29.5461 4.98791 -1.92644 0
M  V30 331 C 30.8461 3.69627 -3.69017 0
M  V30 332 H 32.5401 1.91323 -2.30295 0
M  V30 333 H 30.0861 0.919082 -1.10855 0
M  V30 334 H 32.0391 4.05615 -1.14256 0
M  V30 335 H 30.7631 3.26059 -0.187926 0
M  V30 336 H 29.4221 2.86763 -2.28392 0
M  V30 337 H 29.0701 4.94271 -0.933021 0
M  V30 338 H 28.7701 5.23733 -2.66416 0
M  V30 339 H 30.2941 5.79685 -1.91826 0
M  V30 340 H 31.7081 4.38273 -3.69581 0
M  V30 341 H 30.1051 4.06067 -4.41848 0
M  V30 342 H 31.1751 2.70273 -4.02592 0
M  V30 343 N 32.5182 1.22032 0.997298 0
M  V30 344 C 33.4812 0.987909 2.06816 0
M  V30 345 C 34.4812 -0.0440084 1.6074 0
M  V30 346 O 35.6712 0.194053 1.73116 0
M  V30 347 C 32.8032 0.49132 3.37341 0
M  V30 348 H 33.9962 1.93803 2.28868 0
M  V30 349 H 31.5492 1.03838 1.16822 0
M  V30 350 H 32.2842 -0.463364 3.20973 0
M  V30 351 H 32.0692 1.23575 3.72118 0
M  V30 352 H 33.5592 0.348824 4.16141 0
M  V30 353 N 33.9963 -1.19345 1.0293 0
M  V30 354 C 34.9283 -2.22036 0.56857 0
M  V30 355 C 35.9413 -1.58865 -0.355779 0
M  V30 356 O 37.1303 -1.77851 -0.152103 0
M  V30 357 C 34.2303 -3.38363 -0.190752 0
M  V30 358 C 33.4033 -4.31118 0.738643 0
M  V30 359 C 32.4623 -5.26194 0.0246497 0
M  V30 360 O 31.4883 -5.65461 0.651354 0
M  V30 361 N 32.6903 -5.66971 -1.24594 0
M  V30 362 H 35.4553 -2.6219 1.45177 0
M  V30 363 H 33.0163 -1.34015 0.908381 0
M  V30 364 H 35.0083 -3.98981 -0.677961 0
M  V30 365 H 33.5783 -2.96994 -0.975366 0
M  V30 366 H 32.7983 -3.68276 1.40593 0
M  V30 367 H 34.0863 -4.90001 1.37029 0
M  V30 368 H 33.4843 -5.37104 -1.77583 0
M  V30 369 H 32.0413 -6.2984 -1.67764 0
M  V30 370 N 35.4744 -0.807222 -1.35358 0
M  V30 371 C 36.8854 -0.44876 -1.81226 0
M  V30 372 C 37.2364 1.02929 -1.67033 0
M  V30 373 O 36.3614 1.79991 -1.20133 0
M  V30 374 C 36.9564 -0.807774 -3.2903 0
M  V30 375 C 35.5154 -0.501901 -3.73039 0
M  V30 376 C 34.6624 -1.03304 -2.57339 0
M  V30 377 H 37.6134 -0.998808 -1.23327 0
M  V30 378 H 37.6344 -0.10554 -3.80354 0
M  V30 379 H 37.1464 -1.88357 -3.39328 0
M  V30 380 H 35.2474 0.565128 -3.68289 0
M  V30 381 H 35.3604 -1.03497 -4.67787 0
M  V30 382 H 33.7244 -0.455339 -2.50597 0
M  V30 383 H 34.5074 -2.11496 -2.70415 0
M  V30 384 N 36.9525 1.47285 -0.560781 0
M  V30 385 C 38.2295 1.9558 0.0277798 0
M  V30 386 C 38.6095 1.5034 1.48192 0
M  V30 387 O 37.9575 0.743882 2.16052 0
M  V30 388 C 38.1675 3.48789 -0.121418 0
M  V30 389 C 39.5155 4.24594 0.0220912 0
M  V30 390 O 40.5395 3.56166 -0.0491439 0
M  V30 391 O 39.3985 5.46217 0.175958 0
M  V30 392 H 36.4925 0.824663 0.0621342 0
M  V30 393 H 39.0385 1.5767 -0.627556 0
M  V30 394 H 37.8105 3.74533 -1.13316 0
M  V30 395 H 37.4335 3.93473 0.571366 0
M  V30 396 N 38.4306 0.297415 1.54768 0
M  V30 397 C 39.3936 -0.567375 2.22066 0
M  V30 398 C 40.3936 -1.06409 1.20556 0
M  V30 399 O 41.5836 -0.960691 1.45315 0
M  V30 400 C 38.7156 -1.78517 2.90421 0
M  V30 401 H 39.9086 0.0205534 2.99893 0
M  V30 402 H 37.4616 0.0482163 1.56226 0
M  V30 403 H 38.1966 -2.41303 2.16664 0
M  V30 404 H 37.9816 -1.43669 3.64831 0
M  V30 405 H 39.4716 -2.39964 3.41771 0
M  V30 406 N 39.9087 -1.5758 0.0250728 0
M  V30 407 C 41.1577 -1.90811 -0.653767 0
M  V30 408 C 41.4707 -0.90273 -1.73523 0
M  V30 409 O 42.6767 -1.12614 -2.47043 0
M  V30 410 C 41.1327 -3.38804 -1.21409 0
M  V30 411 C 40.7407 -4.47692 -0.166126 0
M  V30 412 C 42.4847 -3.81108 -1.86967 0
M  V30 413 C 40.3917 -5.86779 -0.737856 0
M  V30 414 H 39.3217 -0.712063 -0.247956 0
M  V30 415 H 41.9727 -1.83281 0.0897137 0
M  V30 416 H 40.3547 -3.41252 -2.00905 0
M  V30 417 H 41.5287 -4.56797 0.606079 0
M  V30 418 H 39.8437 -4.14565 0.390466 0
M  V30 419 H 42.4407 -4.82375 -2.30692 0
M  V30 420 H 42.7837 -3.15953 -2.71071 0
M  V30 421 H 43.3167 -3.81065 -1.14167 0
M  V30 422 H 40.0557 -6.55468 0.0649577 0
M  V30 423 H 39.5757 -5.81288 -1.47864 0
M  V30 424 H 41.2547 -6.35223 -1.22884 0
M  V30 425 N 41.3868 0.248026 -1.55636 0
M  V30 426 C 42.3348 1.32683 -1.91045 0
M  V30 427 C 43.3288 1.49883 -0.789401 0
M  V30 428 O 44.5348 1.51371 -0.974007 0
M  V30 429 H 40.9098 0.444272 -0.606734 0
M  V30 430 H 42.8808 1.00085 -2.81115 0
M  V30 431 C 41.6298 2.6755 -2.22064 0
M  V30 432 H 40.9528 2.55114 -3.07826 0
M  V30 433 H 42.3928 3.41912 -2.50743 0
M  V30 434 C 40.8518 3.20556 -1.0366 0
M  V30 435 O 41.3818 4.00695 -0.284016 0
M  V30 436 N 39.5878 2.78568 -0.82753 0
M  V30 437 H 39.1348 2.1351 -1.44123 0
M  V30 438 H 39.0928 3.14378 -0.0369803 0
M  V30 439 N 42.8649 1.48995 0.513639 0
M  V30 440 C 43.8279 1.64229 1.59879 0
M  V30 441 C 44.8279 0.514696 1.5234 0
M  V30 442 O 46.0179 0.78087 1.55718 0
M  V30 443 C 43.1499 1.62783 2.99524 0
M  V30 444 H 44.3429 2.61004 1.47705 0
M  V30 445 H 41.8959 1.37837 0.736936 0
M  V30 446 H 42.6309 0.675461 3.17188 0
M  V30 447 H 42.4159 2.4466 3.06404 0
M  V30 448 H 43.9059 1.76669 3.78388 0
M  V30 449 N 44.343 -0.763751 1.37857 0
M  V30 450 C 45.754 -1.3405 1.29952 0
M  V30 451 C 46.105 -1.96138 -0.0492898 0
M  V30 452 O 45.23 -1.94372 -0.951239 0
M  V30 453 C 45.825 -2.43729 2.35333 0
M  V30 454 C 44.384 -2.97151 2.31037 0
M  V30 455 C 43.531 -1.70438 2.18738 0
M  V30 456 H 46.482 -0.563396 1.48363 0
M  V30 457 H 46.503 -3.23412 2.00462 0
M  V30 458 H 46.015 -1.9851 3.33489 0
M  V30 459 H 44.116 -3.46724 1.3643 0
M  V30 460 H 44.229 -3.52221 3.24772 0
M  V30 461 H 42.593 -1.93673 1.65418 0
M  V30 462 H 43.376 -1.27312 3.18821 0
M  V30 463 N 45.8211 -1.22559 -0.990812 0
M  V30 464 C 47.0671 -1.05297 -1.73322 0
M  V30 465 C 47.4001 0.410655 -1.89808 0
M  V30 466 O 46.6751 1.30439 -1.44277 0
M  V30 467 C 46.9581 -1.76713 -3.13759 0
M  V30 468 C 46.8111 -3.30684 -3.04907 0
M  V30 469 C 48.1301 -1.52121 -4.12974 0
M  V30 470 H 45.2491 -0.38392 -0.629106 0
M  V30 471 H 47.8911 -1.50926 -1.15418 0
M  V30 472 H 46.0411 -1.37924 -3.63193 0
M  V30 473 H 47.7131 -3.7893 -2.63077 0
M  V30 474 H 45.9561 -3.60253 -2.41661 0
M  V30 475 H 46.6271 -3.75833 -4.04294 0
M  V30 476 H 49.1031 -1.85819 -3.72304 0
M  V30 477 H 47.9791 -2.04582 -5.0935 0
M  V30 478 H 48.2401 -0.454257 -4.3976 0
M  V30 479 N 47.2992 1.18797 -1.03562 0
M  V30 480 C 48.5272 1.92599 -0.755869 0
M  V30 481 C 48.9422 1.75886 0.686271 0
M  V30 482 O 48.2992 1.08517 1.46732 0
M  V30 483 C 48.3502 3.44159 -1.10619 0
M  V30 484 O 48.0712 3.60341 -2.4917 0
M  V30 485 C 49.5722 4.3507 -0.850214 0
M  V30 486 H 46.7922 0.611587 -0.276048 0
M  V30 487 H 49.3362 1.50742 -1.38192 0
M  V30 488 H 47.4912 3.83823 -0.525194 0
M  V30 489 H 47.9052 4.54128 -2.62427 0
M  V30 490 H 49.3792 5.39989 -1.14523 0
M  V30 491 H 49.8562 4.38673 0.215176 0
M  V30 492 H 50.4622 4.01097 -1.41426 0
M  V30 493 N 48.7773 0.814389 1.34928 0
M  V30 494 C 50.0173 0.404165 2.00364 0
M  V30 495 C 50.3813 -1.01166 1.63185 0
M  V30 496 O 51.5823 -1.52431 2.21401 0
M  V30 497 C 49.8533 0.590718 3.52484 0
M  V30 498 S 51.4123 0.272075 4.37956 0
M  V30 499 H 48.2303 0.15311 0.694319 0
M  V30 500 H 50.8323 1.05834 1.64376 0
M  V30 501 H 49.5363 1.62099 3.77031 0
M  V30 502 H 49.0673 -0.0785013 3.93322 0
M  V30 503 H 51.0823 -0.917405 4.87645 0
M  V30 504 N 50.2554 -1.46986 0.568584 0
M  V30 505 C 51.4954 -2.04336 0.0512999 0
M  V30 506 C 51.8594 -1.43214 -1.27881 0
M  V30 507 O 53.0604 -1.91679 -1.88448 0
M  V30 508 C 51.3314 -3.57389 -0.0282328 0
M  V30 509 S 52.8904 -4.36056 -0.489991 0
M  V30 510 H 49.7084 -0.71034 0.0306349 0
M  V30 511 H 52.3104 -1.80212 0.757891 0
M  V30 512 H 51.0144 -3.99395 0.944011 0
M  V30 513 H 50.5454 -3.86028 -0.75803 0
M  V30 514 H 52.5604 -4.6441 -1.74752 0
M  V30 515 N 51.7335 -0.305618 -1.54608 0
M  V30 516 C 52.9635 0.304333 -2.04346 0
M  V30 517 C 53.3715 1.47715 -1.18224 0
M  V30 518 O 52.7145 1.82591 -0.201577 0
M  V30 519 C 52.7765 0.819031 -3.50046 0
M  V30 520 C 52.4405 -0.22912 -4.56425 0
M  V30 521 C 53.4375 -1.05914 -5.08997 0
M  V30 522 C 51.1225 -0.372148 -5.0092 0
M  V30 523 C 53.1165 -2.01809 -6.04609 0
M  V30 524 C 50.8035 -1.33454 -5.9635 0
M  V30 525 C 51.8015 -2.15599 -6.48079 0
M  V30 526 O 51.4895 -3.10205 -7.41639 0
M  V30 527 H 51.2215 0.0693996 -0.672428 0
M  V30 528 H 53.7755 -0.444548 -2.00532 0
M  V30 529 H 52.0055 1.61852 -3.51199 0
M  V30 530 H 53.6945 1.34537 -3.82955 0
M  V30 531 H 54.4605 -0.959538 -4.75413 0
M  V30 532 H 50.3395 0.257304 -4.60281 0
M  V30 533 H 53.8835 -2.65966 -6.44909 0
M  V30 534 H 49.7805 -1.43485 -6.29351 0
M  V30 535 H 50.5485 -3.05237 -7.59455 0
M  V30 536 N 53.2116 1.57565 -0.0334293 0
M  V30 537 C 54.1596 2.1164 0.96496 0
M  V30 538 C 55.1536 1.04398 1.33407 0
M  V30 539 O 56.3596 1.22828 1.3158 0
M  V30 540 H 52.7346 0.676222 0.32898 0
M  V30 541 H 54.7056 2.94455 0.483614 0
M  V30 542 C 53.4546 2.66207 2.23672 0
M  V30 543 H 52.7776 3.48378 1.96145 0
M  V30 544 H 54.2176 3.07685 2.9173 0
M  V30 545 C 52.6766 1.59151 2.96939 0
M  V30 546 O 53.2066 0.993858 3.89211 0
M  V30 547 N 51.4126 1.31093 2.59351 0
M  V30 548 H 50.9596 1.7988 1.84393 0
M  V30 549 H 50.9176 0.596889 3.08682 0
M  V30 550 N 54.6897 -0.239769 1.55765 0
M  V30 551 C 55.9367 -0.966801 1.7793 0
M  V30 552 C 56.2647 -1.85046 0.599015 0
M  V30 553 O 55.5197 -1.91197 -0.417395 0
M  V30 554 C 55.8187 -1.852 3.05672 0
M  V30 555 C 55.4847 -1.1231 4.36689 0
M  V30 556 C 54.1467 -0.921689 4.72291 0
M  V30 557 C 56.4987 -0.607019 5.17653 0
M  V30 558 C 53.8267 -0.191996 5.86386 0
M  V30 559 C 56.1787 0.109241 6.32506 0
M  V30 560 C 54.8427 0.322073 6.66723 0
M  V30 561 H 54.1127 -0.353778 0.651093 0
M  V30 562 H 56.7597 -0.23634 1.90036 0
M  V30 563 H 55.0647 -2.64975 2.8861 0
M  V30 564 H 56.7617 -2.41635 3.20021 0
M  V30 565 H 53.3517 -1.29004 4.08725 0
M  V30 566 H 57.5357 -0.750153 4.90598 0
M  V30 567 H 52.7917 -0.0166949 6.11398 0
M  V30 568 H 56.9657 0.516737 6.9448 0
M  V30 569 H 54.5927 0.88944 7.54979 0
M  V30 570 N 56.1678 -1.49265 -0.50573 0
M  V30 571 C 57.3958 -1.62215 -1.28429 0
M  V30 572 C 57.8108 -0.291697 -1.86533 0
M  V30 573 O 57.1678 0.722233 -1.67601 0
M  V30 574 C 57.2188 -2.68735 -2.41793 0
M  V30 575 O 56.9398 -3.96619 -1.86078 0
M  V30 576 C 58.4408 -2.92346 -3.3324 0
M  V30 577 H 55.6608 -0.546239 -0.389697 0
M  V30 578 H 58.2048 -1.95265 -0.607609 0
M  V30 579 H 56.3598 -2.38476 -3.053 0
M  V30 580 H 56.7738 -4.55256 -2.60465 0
M  V30 581 H 58.2478 -3.70623 -4.09075 0
M  V30 582 H 58.7248 -2.02081 -3.89948 0
M  V30 583 H 59.3308 -3.24003 -2.75503 0
M  V30 584 N 57.6459 0.756429 -1.3826 0
M  V30 585 C 58.5939 1.89149 -1.35372 0
M  V30 586 C 59.5879 1.67691 -0.24004 0
M  V30 587 O 60.7939 1.75294 -0.408919 0
M  V30 588 H 57.1689 0.622271 -0.422236 0
M  V30 589 H 59.1399 1.88701 -2.31159 0
M  V30 590 C 57.8889 3.26599 -1.19284 0
M  V30 591 H 57.2119 3.43695 -2.0424 0
M  V30 592 H 58.6519 4.06274 -1.21316 0
M  V30 593 C 57.1109 3.3675 0.100454 0
M  V30 594 O 57.6409 3.86951 1.07851 0
M  V30 595 N 55.8469 2.90179 0.15633 0
M  V30 596 H 55.3939 2.49517 -0.640253 0
M  V30 597 H 55.3519 2.97352 1.02123 0
M  V30 598 N 59.124 1.23083 0.984299 0
M  V30 599 C 60.54 0.992637 1.24975 0
M  V30 600 C 60.74 -0.308618 1.99123 0
M  V30 601 O 59.796 -1.02905 2.30579 0
M  V30 602 C 61.109 2.19698 2.05312 0
M  V30 603 C 62.657 2.24147 2.18465 0
M  V30 604 C 63.132 3.44157 3.02192 0
M  V30 605 N 64.623 3.44372 3.09777 0
M  V30 606 C 65.358 4.33886 3.74874 0
M  V30 607 N 64.854 5.3363 4.41827 0
M  V30 608 N 66.647 4.21639 3.71721 0
M  V30 609 H 58.798 2.06731 0.487453 0
M  V30 610 H 61.061 0.906339 0.277944 0
M  V30 611 H 60.767 3.1411 1.58201 0
M  V30 612 H 60.641 2.20465 3.06064 0
M  V30 613 H 63.028 1.30277 2.64786 0
M  V30 614 H 63.109 2.27415 1.17115 0
M  V30 615 H 62.753 4.38332 2.56568 0
M  V30 616 H 62.683 3.3813 4.03702 0
M  V30 617 H 65.174 2.72201 2.62135 0
M  V30 618 H 65.487 5.98196 4.89266 0
M  V30 619 H 63.832 5.37534 4.40548 0
M  V30 620 H 67.023 3.42962 3.18582 0
M  V30 621 H 67.196 4.91604 4.22173 0
M  V30 622 N 60.6021 -1.18246 1.0419 0
M  V30 623 C 61.5491 -2.2192 0.634037 0
M  V30 624 C 62.5191 -1.62179 -0.358765 0
M  V30 625 O 63.7041 -1.89122 -0.252466 0
M  V30 626 C 60.8441 -3.451 0.00445535 0
M  V30 627 C 59.9571 -4.19174 1.04487 0
M  V30 628 C 59.0921 -5.29813 0.383676 0
M  V30 629 C 58.1311 -5.9566 1.4091 0
M  V30 630 N 57.2681 -6.97834 0.772784 0
M  V30 631 H 62.1081 -2.56164 1.52263 0
M  V30 632 H 59.6451 -1.25843 0.761701 0
M  V30 633 H 61.6031 -4.15485 -0.377919 0
M  V30 634 H 60.2331 -3.11472 -0.847652 0
M  V30 635 H 59.2851 -3.47604 1.54518 0
M  V30 636 H 60.5971 -4.64267 1.82368 0
M  V30 637 H 59.7511 -6.06677 -0.0528366 0
M  V30 638 H 58.4901 -4.85825 -0.427208 0
M  V30 639 H 57.4951 -5.17535 1.85574 0
M  V30 640 H 58.7201 -6.4173 2.22171 0
M  V30 641 H 56.6661 -6.55998 -0.0177708 0
M  V30 642 H 56.5831 -7.41186 1.48928 0
M  V30 643 H 57.8511 -7.78665 0.36071 0
M  V30 644 N 62.0802 -0.821533 -1.34494 0
M  V30 645 C 63.3292 -0.405355 -1.97585 0
M  V30 646 C 63.6422 1.03677 -1.65863 0
M  V30 647 O 64.8482 1.55679 -2.22433 0
M  V30 648 C 63.3042 -0.673861 -3.53535 0
M  V30 649 C 62.9122 -2.12951 -3.94152 0
M  V30 650 C 64.6562 -0.32378 -4.23263 0
M  V30 651 C 62.5632 -2.34298 -5.43009 0
M  V30 652 H 61.4932 -0.147836 -0.739365 0
M  V30 653 H 64.1442 -1.00769 -1.53355 0
M  V30 654 H 62.5262 -0.00137554 -3.96 0
M  V30 655 H 63.7002 -2.84104 -3.62797 0
M  V30 656 H 62.0152 -2.44089 -3.37356 0
M  V30 657 H 64.6122 -0.461126 -5.32708 0
M  V30 658 H 64.9552 0.731586 -4.09821 0
M  V30 659 H 65.4882 -0.950786 -3.8627 0
M  V30 660 H 62.2272 -3.38335 -5.61435 0
M  V30 661 H 61.7472 -1.67687 -5.75883 0
M  V30 662 H 63.4262 -2.16588 -6.09671 0
M  V30 663 N 63.5583 1.46682 -0.576371 0
M  V30 664 C 64.7833 2.07304 -0.0630475 0
M  V30 665 C 65.2083 1.42329 1.2298 0
M  V30 666 O 64.5663 0.504865 1.74129 0
M  V30 667 C 64.6143 3.60472 0.095895 0
M  V30 668 O 63.7183 3.95927 1.15394 0
M  V30 669 H 63.0593 0.661288 -0.0599463 0
M  V30 670 H 65.5893 1.88417 -0.797511 0
M  V30 671 H 65.5993 4.06865 0.304071 0
M  V30 672 H 64.2743 4.07157 -0.84828 0
M  V30 673 H 62.8513 3.61252 0.924724 0
M  V30 674 N 65.0364 0.313813 1.54444 0
M  V30 675 C 66.2824 -0.292108 2.00685 0
M  V30 676 C 66.6154 -1.52548 1.20177 0
M  V30 677 O 65.8904 -1.92452 0.281531 0
M  V30 678 C 66.1734 -0.635968 3.5444 0
M  V30 679 C 66.0264 0.607437 4.4568 0
M  V30 680 C 67.3454 -1.45747 4.15266 0
M  V30 681 H 64.4644 -0.104697 0.729526 0
M  V30 682 H 67.1064 0.428457 1.85106 0
M  V30 683 H 65.2564 -1.24986 3.67846 0
M  V30 684 H 66.9284 1.24581 4.44159 0
M  V30 685 H 65.1714 1.23822 4.15753 0
M  V30 686 H 65.8424 0.322515 5.51057 0
M  V30 687 H 68.3184 -0.938645 4.05375 0
M  V30 688 H 67.1944 -1.66683 5.2298 0
M  V30 689 H 67.4554 -2.45063 3.67963 0
M  V30 690 N 66.5145 -1.57545 0.0417849 0
M  V30 691 C 67.4465 -2.07904 -0.964799 0
M  V30 692 C 68.4595 -1.00497 -1.28079 0
M  V30 693 O 69.6485 -1.28087 -1.24322 0
M  V30 694 C 66.7485 -2.49928 -2.28887 0
M  V30 695 C 65.9215 -3.80562 -2.15619 0
M  V30 696 C 64.9805 -4.08999 -3.31069 0
M  V30 697 O 64.0065 -4.79061 -3.0739 0
M  V30 698 N 65.2085 -3.6017 -4.55256 0
M  V30 699 H 67.9735 -2.94886 -0.535029 0
M  V30 700 H 65.5345 -1.61252 -0.144681 0
M  V30 701 H 67.5265 -2.66034 -3.04972 0
M  V30 702 H 66.0965 -1.68245 -2.63463 0
M  V30 703 H 65.3165 -3.74129 -1.24183 0
M  V30 704 H 66.6045 -4.66126 -2.03971 0
M  V30 705 H 66.0025 -3.03512 -4.77386 0
M  V30 706 H 64.5595 -3.81532 -5.28466 0
M  V30 707 N 67.9926 0.231505 -1.5589 0
M  V30 708 C 69.4086 0.580748 -1.48659 0
M  V30 709 C 69.6086 1.87617 -0.73498 0
M  V30 710 O 68.6646 2.51046 -0.270586 0
M  V30 711 C 69.9776 0.669202 -2.93159 0
M  V30 712 C 71.5256 0.760499 -3.03621 0
M  V30 713 C 72.0006 0.880383 -4.49459 0
M  V30 714 N 73.4916 0.944861 -4.53461 0
M  V30 715 C 74.2266 1.05716 -5.63571 0
M  V30 716 N 73.7226 1.13403 -6.83456 0
M  V30 717 N 75.5156 1.09152 -5.514 0
M  V30 718 H 67.6666 -0.618695 -2.03189 0
M  V30 719 H 69.9296 -0.215728 -0.923128 0
M  V30 720 H 69.6356 -0.212904 -3.51055 0
M  V30 721 H 69.5096 1.5361 -3.44505 0
M  V30 722 H 71.8966 1.63305 -2.45796 0
M  V30 723 H 71.9776 -0.131864 -2.5546 0
M  V30 724 H 71.6216 0.0123284 -5.07899 0
M  V30 725 H 71.5516 1.78802 -4.95316 0
M  V30 726 H 74.0426 0.896176 -3.6712 0
M  V30 727 H 74.3556 1.21921 -7.63122 0
M  V30 728 H 72.7006 1.10333 -6.86186 0
M  V30 729 H 75.8916 1.02805 -4.56671 0
M  V30 730 H 76.0646 1.17558 -6.37247 0
M  V30 731 N 69.4707 1.49531 0.497807 0
M  V30 732 C 70.4007 1.6935 1.60757 0
M  V30 733 C 71.3817 0.542218 1.61227 0
M  V30 734 O 72.5667 0.778417 1.77917 0
M  V30 735 C 69.6967 1.76298 2.99226 0
M  V30 736 C 68.6507 2.91248 3.13622 0
M  V30 737 C 67.9767 2.83312 4.53474 0
M  V30 738 C 69.2767 4.3214 2.93346 0
M  V30 739 H 70.9707 2.62263 1.44425 0
M  V30 740 H 68.5167 1.26208 0.693367 0
M  V30 741 H 70.4697 1.88749 3.76765 0
M  V30 742 H 69.1937 0.799871 3.16654 0
M  V30 743 H 67.8527 2.78404 2.38509 0
M  V30 744 H 67.5007 1.84902 4.67782 0
M  V30 745 H 67.2007 3.60465 4.64046 0
M  V30 746 H 68.7247 2.97775 5.33069 0
M  V30 747 H 70.1387 4.45649 3.60652 0
M  V30 748 H 68.5357 5.1054 3.15387 0
M  V30 749 H 69.6057 4.46363 1.89441 0
M  V30 750 N 70.9488 -0.749086 1.3866 0
M  V30 751 C 71.9118 -1.84457 1.36045 0
M  V30 752 C 72.9118 -1.58682 0.260122 0
M  V30 753 O 74.1018 -1.66343 0.517261 0
M  V30 754 C 71.2338 -3.22008 1.11911 0
M  V30 755 H 72.4268 -1.88182 2.33512 0
M  V30 756 H 69.9798 -0.951266 1.24019 0
M  V30 757 H 70.7148 -3.2395 0.150686 0
M  V30 758 H 70.4998 -3.42111 1.91579 0
M  V30 759 H 71.9898 -4.0208 1.12788 0
M  V30 760 N 72.4269 -1.23603 -0.977757 0
M  V30 761 C 73.6519 -1.09735 -1.75991 0
M  V30 762 C 74.0769 0.346858 -1.84874 0
M  V30 763 O 73.4349 1.25093 -1.3123 0
M  V30 764 C 73.4829 -1.73051 -3.16363 0
M  V30 765 O 72.5869 -0.994452 -4.0023 0
M  V30 766 H 71.9279 -0.384476 -0.541364 0
M  V30 767 H 74.4579 -1.6371 -1.2272 0
M  V30 768 H 74.4679 -1.78398 -3.66931 0
M  V30 769 H 73.1429 -2.78137 -3.09213 0
M  V30 770 H 71.7199 -1.01812 -3.58732 0
M  V30 771 N 73.905 1.17692 -1.04816 0
M  V30 772 C 75.135 1.91508 -0.775128 0
M  V30 773 C 75.543 1.76844 0.67253 0
M  V30 774 O 74.886 1.10057 1.47082 0
M  V30 775 C 74.948 3.43167 -1.0713 0
M  V30 776 C 74.612 3.81612 -2.51438 0
M  V30 777 C 75.609 3.84772 -3.49638 0
M  V30 778 C 73.294 4.12687 -2.86348 0
M  V30 779 C 75.288 4.18469 -4.80794 0
M  V30 780 C 72.975 4.46053 -4.17708 0
M  V30 781 C 73.973 4.48921 -5.14741 0
M  V30 782 O 73.661 4.81504 -6.43746 0
M  V30 783 H 73.393 0.614575 -0.281555 0
M  V30 784 H 75.947 1.50206 -1.40098 0
M  V30 785 H 74.177 3.84745 -0.388342 0
M  V30 786 H 75.866 3.98239 -0.784883 0
M  V30 787 H 76.632 3.60893 -3.24008 0
M  V30 788 H 72.511 4.09627 -2.11486 0
M  V30 789 H 76.055 4.20623 -5.56527 0
M  V30 790 H 71.952 4.69393 -4.43103 0
M  V30 791 H 72.72 4.99377 -6.4851 0
M  V30 792 N 75.3831 0.828654 1.34056 0
M  V30 793 C 76.7991 0.515135 1.51058 0
M  V30 794 C 76.9991 -0.959581 1.77184 0
M  V30 795 O 76.0551 -1.74382 1.82612 0
M  V30 796 C 77.3681 1.37963 2.67183 0
M  V30 797 C 78.9161 1.37735 2.81066 0
M  V30 798 C 79.3911 2.22645 4.00241 0
M  V30 799 N 80.8821 2.203 4.07458 0
M  V30 800 C 81.6171 2.82744 4.98842 0
M  V30 801 N 81.1131 3.54201 5.9541 0
M  V30 802 N 82.9061 2.72268 4.91759 0
M  V30 803 H 75.0571 1.78343 1.15358 0
M  V30 804 H 77.3201 0.760304 0.566252 0
M  V30 805 H 77.0261 2.42714 2.54525 0
M  V30 806 H 76.9001 1.0484 3.62338 0
M  V30 807 H 79.2871 0.337593 2.93163 0
M  V30 808 H 79.3681 1.74859 1.86703 0
M  V30 809 H 79.0121 3.26674 3.88905 0
M  V30 810 H 78.9421 1.82869 4.93829 0
M  V30 811 H 81.4331 1.68327 3.38341 0
M  V30 812 H 81.7461 3.9908 6.61782 0
M  V30 813 H 80.0911 3.58308 5.95517 0
M  V30 814 H 83.2821 2.16014 4.15278 0
M  V30 815 H 83.4551 3.21219 5.62781 0
M  V30 816 N 76.8612 -1.46375 0.584142 0
M  V30 817 C 78.2772 -1.57694 0.245929 0
M  V30 818 C 78.4772 -1.57903 -1.25175 0
M  V30 819 O 77.5332 -1.49676 -2.03355 0
M  V30 820 C 78.8462 -2.87028 0.896402 0
M  V30 821 C 80.3942 -3.00662 0.870127 0
M  V30 822 C 80.8692 -4.32734 1.50017 0
M  V30 823 N 82.3602 -4.39436 1.46458 0
M  V30 824 C 83.0952 -5.40248 1.92144 0
M  V30 825 N 82.5912 -6.47726 2.4581 0
M  V30 826 N 84.3842 -5.31459 1.83052 0
M  V30 827 H 76.5352 -1.44483 1.55687 0
M  V30 828 H 78.7982 -0.689291 0.650831 0
M  V30 829 H 78.5042 -2.9269 1.95002 0
M  V30 830 H 78.3782 -3.75014 0.405486 0
M  V30 831 H 80.7652 -2.94581 -0.174871 0
M  V30 832 H 80.8462 -2.14148 1.39908 0
M  V30 833 H 80.4902 -4.39573 2.54437 0
M  V30 834 H 80.4202 -5.18025 0.946432 0
M  V30 835 H 82.9112 -3.62367 1.07231 0
M  V30 836 H 83.2242 -7.20863 2.78525 0
M  V30 837 H 81.5692 -6.48542 2.49836 0
M  V30 838 H 84.7602 -4.46396 1.40883 0
M  V30 839 H 84.9332 -6.09881 2.18973 0
M  V30 840 N 78.3393 -0.321999 -1.54275 0
M  V30 841 C 79.5883 0.281931 -1.9972 0
M  V30 842 C 79.9013 1.53369 -1.21397 0
M  V30 843 O 81.1073 2.21352 -1.57211 0
M  V30 844 C 79.5633 0.5529 -3.55628 0
M  V30 845 C 79.1713 -0.681721 -4.42783 0
M  V30 846 C 80.9153 1.11687 -4.09544 0
M  V30 847 C 78.8223 -0.382742 -5.9016 0
M  V30 848 H 77.7523 0.109124 -0.746062 0
M  V30 849 H 80.4033 -0.43398 -1.78294 0
M  V30 850 H 78.7853 1.32896 -3.73035 0
M  V30 851 H 79.9593 -1.45723 -4.37151 0
M  V30 852 H 78.2743 -1.1658 -3.99748 0
M  V30 853 H 80.8713 1.35515 -5.17242 0
M  V30 854 H 81.2143 2.06575 -3.61431 0
M  V30 855 H 81.7473 0.402032 -3.95763 0
M  V30 856 H 78.4863 -1.30076 -6.42464 0
M  V30 857 H 78.0063 0.355094 -5.98748 0
M  V30 858 H 79.6853 0.00800157 -6.47 0
M  V30 859 N 79.8174 1.5752 -0.0501392 0
M  V30 860 C 81.0454 1.96963 0.633492 0
M  V30 861 C 81.4604 0.927631 1.6444 0
M  V30 862 O 80.8174 -0.0882665 1.82286 0
M  V30 863 C 80.8684 3.36487 1.32132 0
M  V30 864 O 80.5894 4.36693 0.350894 0
M  V30 865 C 82.0904 3.90682 2.09481 0
M  V30 866 H 79.3104 0.648244 0.173266 0
M  V30 867 H 81.8544 2.0417 -0.116134 0
M  V30 868 H 80.0094 3.30434 2.02218 0
M  V30 869 H 80.4234 5.17702 0.841735 0
M  V30 870 H 81.8974 4.90591 2.5303 0
M  V30 871 H 82.3744 3.26053 2.94255 0
M  V30 872 H 82.9804 4.00069 1.44307 0
M  V30 873 N 81.2955 -0.223234 1.56011 0
M  V30 874 C 82.5205 -0.968978 1.83373 0
M  V30 875 C 82.9455 -1.77227 0.630254 0
M  V30 876 O 82.3035 -1.76345 -0.420959 0
M  V30 877 C 82.3515 -1.86363 3.08709 0
M  V30 878 O 81.4555 -2.95873 2.87285 0
M  V30 879 H 80.7965 -0.274461 0.604622 0
M  V30 880 H 83.3265 -0.237056 2.03222 0
M  V30 881 H 83.3365 -2.27376 3.38768 0
M  V30 882 H 82.0115 -1.27319 3.95933 0
M  V30 883 H 80.5885 -2.58818 2.68454 0
M  V30 884 N 82.7736 -1.49793 -0.48987 0
M  V30 885 C 83.9986 -1.63836 -1.27172 0
M  V30 886 C 84.4236 -0.31402 -1.8546 0
M  V30 887 O 83.7816 0.719803 -1.66399 0
M  V30 888 C 83.8296 -2.71797 -2.36978 0
M  V30 889 O 82.9336 -2.31744 -3.41128 0
M  V30 890 H 82.2746 -0.547997 -0.37496 0
M  V30 891 H 84.8046 -1.96053 -0.585191 0
M  V30 892 H 84.8146 -2.94305 -2.82575 0
M  V30 893 H 83.4896 -3.67923 -1.93921 0
M  V30 894 H 82.0666 -2.1961 -3.01373 0
M  V30 895 N 84.2517 0.741722 -1.39055 0
M  V30 896 C 85.1987 1.85566 -1.37237 0
M  V30 897 C 86.1687 1.64457 -0.233072 0
M  V30 898 O 87.3537 1.85957 -0.427147 0
M  V30 899 C 84.4937 3.23004 -1.215 0
M  V30 900 C 83.6067 3.55864 -2.44918 0
M  V30 901 C 82.7417 4.82669 -2.21821 0
M  V30 902 C 81.7807 5.08351 -3.40948 0
M  V30 903 N 80.9177 6.26356 -3.17211 0
M  V30 904 H 85.7577 1.86455 -2.32462 0
M  V30 905 H 83.2947 0.911176 -1.15482 0
M  V30 906 H 85.2527 4.02331 -1.10389 0
M  V30 907 H 83.8827 3.21411 -0.29908 0
M  V30 908 H 82.9347 2.7129 -2.66657 0
M  V30 909 H 84.2467 3.70765 -3.33668 0
M  V30 910 H 83.4007 5.69962 -2.07914 0
M  V30 911 H 82.1397 4.69929 -1.30454 0
M  V30 912 H 81.1447 4.19522 -3.55361 0
M  V30 913 H 82.3697 5.22981 -4.33207 0
M  V30 914 H 80.3157 6.14917 -2.28502 0
M  V30 915 H 80.2327 6.41813 -3.99515 0
M  V30 916 H 81.5007 7.16506 -3.06984 0
M  V30 917 N 85.7298 1.2412 0.971189 0
M  V30 918 C 86.9698 1.09066 1.7287 0
M  V30 919 C 87.3338 -0.364794 1.88503 0
M  V30 920 O 88.5348 -0.636748 2.61149 0
M  V30 921 C 86.8058 1.80629 3.08396 0
M  V30 922 S 88.3648 1.81263 3.99611 0
M  V30 923 H 85.1828 0.390145 0.594397 0
M  V30 924 H 87.7848 1.57397 1.15959 0
M  V30 925 H 86.4888 2.85647 2.94676 0
M  V30 926 H 86.0198 1.32617 3.70373 0
M  V30 927 H 88.0348 0.877804 4.88374 0
M  V30 928 N 87.2079 -1.17134 1.05439 0
M  V30 929 C 88.6189 -1.69084 0.791676 0
M  V30 930 C 88.9699 -1.83822 -0.685839 0
M  V30 931 O 88.0949 -1.52757 -1.53278 0
M  V30 932 C 88.6899 -3.07119 1.4305 0
M  V30 933 C 87.2489 -3.56225 1.21577 0
M  V30 934 C 86.3959 -2.32421 1.51247 0
M  V30 935 H 89.3469 -1.01617 1.219 0
M  V30 936 H 89.3679 -3.71087 0.84112 0
M  V30 937 H 88.8799 -2.9636 2.50584 0
M  V30 938 H 86.9809 -3.72257 0.159787 0
M  V30 939 H 87.0939 -4.38837 1.92246 0
M  V30 940 H 85.4579 -2.3701 0.932653 0
M  V30 941 H 86.2409 -2.24268 2.5992 0
M  V30 942 N 88.686 -0.835752 -1.33615 0
M  V30 943 C 89.633 -0.26473 -2.29277 0
M  V30 944 C 90.603 0.617712 -1.54187 0
M  V30 945 O 91.788 0.556641 -1.825 0
M  V30 946 C 88.928 0.556777 -3.40579 0
M  V30 947 C 88.041 -0.349339 -4.30585 0
M  V30 948 C 87.176 0.482969 -5.29 0
M  V30 949 C 86.215 -0.421732 -6.10645 0
M  V30 950 N 85.352 0.372262 -7.01112 0
M  V30 951 H 90.192 -1.08582 -2.77514 0
M  V30 952 H 87.729 -0.546927 -1.36554 0
M  V30 953 H 89.687 1.04852 -4.03809 0
M  V30 954 H 88.317 1.34286 -2.93542 0
M  V30 955 H 87.369 -0.959372 -3.68104 0
M  V30 956 H 88.681 -1.04445 -4.87742 0
M  V30 957 H 87.835 1.03866 -5.97743 0
M  V30 958 H 86.574 1.21153 -4.72412 0
M  V30 959 H 85.579 -0.989464 -5.40823 0
M  V30 960 H 86.804 -1.14861 -6.69316 0
M  V30 961 H 84.75 1.08426 -6.46977 0
M  V30 962 H 84.667 -0.264198 -7.55538 0
M  V30 963 H 85.935 0.910293 -7.74167 0
M  V30 964 N 90.1641 1.46063 -0.591896 0
M  V30 965 C 91.0741 2.34192 0.13831 0
M  V30 966 C 92.0901 1.50305 0.876608 0
M  V30 967 O 93.2661 1.8315 0.837728 0
M  V30 968 C 90.3311 3.27656 1.13326 0
M  V30 969 C 89.3921 4.27445 0.39863 0
M  V30 970 C 88.6251 5.16443 1.34618 0
M  V30 971 O 88.8481 5.08553 2.58321 0
M  V30 972 O 87.7821 5.95843 0.851768 0
M  V30 973 H 91.6081 2.98002 -0.58552 0
M  V30 974 H 89.1931 1.45188 -0.352239 0
M  V30 975 H 91.0751 3.85291 1.70671 0
M  V30 976 H 89.7501 2.6643 1.83839 0
M  V30 977 H 88.6571 3.73471 -0.216895 0
M  V30 978 H 89.9901 4.91482 -0.265709 0
M  V30 979 N 91.6422 0.330177 1.54103 0
M  V30 980 C 92.6052 -0.520144 2.2322 0
M  V30 981 C 93.6052 -1.03828 1.22786 0
M  V30 982 O 94.7952 -0.929652 1.4732 0
M  V30 983 C 91.9272 -1.72317 2.94142 0
M  V30 984 H 93.1202 0.0841605 2.99782 0
M  V30 985 H 90.6732 0.0813433 1.56088 0
M  V30 986 H 91.4082 -2.36653 2.21734 0
M  V30 987 H 91.1932 -1.35898 3.67796 0
M  V30 988 H 92.6832 -2.3266 3.46784 0
M  V30 989 N 93.1203 -1.57491 0.0584922 0
M  V30 990 C 94.3663 -1.93264 -0.614558 0
M  V30 991 C 94.6993 -0.937717 -1.7006 0
M  V30 992 O 93.9743 0.0351652 -1.94468 0
M  V30 993 C 94.2573 -3.3938 -1.20386 0
M  V30 994 C 94.1103 -4.49625 -0.125375 0
M  V30 995 C 95.4293 -3.86039 -2.11334 0
M  V30 996 H 92.5483 -0.702791 -0.221933 0
M  V30 997 H 95.1903 -1.8961 0.12175 0
M  V30 998 H 93.3403 -3.42626 -1.83139 0
M  V30 999 H 95.0123 -4.58506 0.506971 0
M  V30 1000 H 93.2553 -4.30354 0.545672 0
M  V30 1001 H 93.9263 -5.48967 -0.577861 0
M  V30 1002 H 96.4023 -3.84716 -1.58534 0
M  V30 1003 H 95.2783 -4.88914 -2.49507 0
M  V30 1004 H 95.5393 -3.23215 -3.01636 0
M  V30 1005 N 94.5984 0.214957 -1.56127 0
M  V30 1006 C 95.8474 0.936451 -1.78643 0
M  V30 1007 C 96.1604 1.85237 -0.628229 0
M  V30 1008 O 97.3664 2.613 -0.737186 0
M  V30 1009 C 95.8224 1.7154 -3.16389 0
M  V30 1010 C 95.4304 0.845299 -4.39953 0
M  V30 1011 C 97.1744 2.42772 -3.48227 0
M  V30 1012 C 95.0814 1.62198 -5.68723 0
M  V30 1013 H 94.0114 0.353401 -0.666051 0
M  V30 1014 H 96.6624 0.190169 -1.82512 0
M  V30 1015 H 95.0444 2.50484 -3.06715 0
M  V30 1016 H 96.2184 0.0959353 -4.607 0
M  V30 1017 H 94.5334 0.244789 -4.1568 0
M  V30 1018 H 97.1304 3.01394 -4.41663 0
M  V30 1019 H 97.4734 3.15984 -2.71035 0
M  V30 1020 H 98.0064 1.70813 -3.5926 0
M  V30 1021 H 94.7454 0.933011 -6.48826 0
M  V30 1022 H 94.2654 2.34579 -5.52026 0
M  V30 1023 H 95.9444 2.18095 -6.09133 0
M  V30 1024 N 96.0765 1.50051 0.48192 0
M  V30 1025 C 97.3235 1.60498 1.23477 0
M  V30 1026 C 97.6515 0.300331 1.92167 0
M  V30 1027 O 96.9065 -0.713094 1.82246 0
M  V30 1028 C 97.2055 2.72717 2.30998 0
M  V30 1029 C 96.8715 4.13572 1.79636 0
M  V30 1030 C 95.5335 4.519 1.65348 0
M  V30 1031 C 97.8855 5.01649 1.41412 0
M  V30 1032 C 95.2135 5.76057 1.11244 0
M  V30 1033 C 97.5655 6.26343 0.887538 0
M  V30 1034 C 96.2295 6.63483 0.731207 0
M  V30 1035 H 95.4995 0.587303 0.451836 0
M  V30 1036 H 98.1465 1.83948 0.532468 0
M  V30 1037 H 96.4515 2.43312 3.07094 0
M  V30 1038 H 98.1485 2.78006 2.88988 0
M  V30 1039 H 94.7385 3.83329 1.91721 0
M  V30 1040 H 98.9225 4.72679 1.51289 0
M  V30 1041 H 94.1785 6.03516 0.978686 0
M  V30 1042 H 98.3525 6.93958 0.582654 0
M  V30 1043 H 95.9795 7.59568 0.309806 0
M  V30 1044 N 97.5546 -0.734337 1.39446 0
M  V30 1045 C 98.5016 -1.84835 1.38219 0
M  V30 1046 C 99.4716 -1.64331 0.24179 0
M  V30 1047 O 100.657 -1.85728 0.437002 0
M  V30 1048 C 97.7966 -3.22355 1.23212 0
M  V30 1049 C 96.9096 -3.5456 2.46801 0
M  V30 1050 C 96.0446 -4.81485 2.24377 0
M  V30 1051 C 95.0836 -5.06536 3.43639 0
M  V30 1052 N 94.2206 -6.24665 3.20528 0
M  V30 1053 H 99.0606 -1.85219 2.33448 0
M  V30 1054 H 96.5976 -0.905039 1.15963 0
M  V30 1055 H 98.5556 -4.0174 1.12522 0
M  V30 1056 H 97.1856 -3.21248 0.316121 0
M  V30 1057 H 96.2376 -2.69872 2.68092 0
M  V30 1058 H 97.5496 -3.6899 3.3563 0
M  V30 1059 H 96.7036 -5.68852 2.10933 0
M  V30 1060 H 95.4426 -4.6923 1.32944 0
M  V30 1061 H 94.4476 -4.17632 3.5758 0
M  V30 1062 H 95.6726 -5.20676 4.35974 0
M  V30 1063 H 93.6186 -6.13696 2.3176 0
M  V30 1064 H 93.5356 -6.39685 4.02913 0
M  V30 1065 H 94.8036 -7.14868 3.10779 0
M  V30 1066 N 99.0327 -1.24633 -0.964593 0
M  V30 1067 C 100.261 -1.11501 -1.74285 0
M  V30 1068 C 100.676 0.332165 -1.85855 0
M  V30 1069 O 100.033 1.22903 -1.34911 0
M  V30 1070 C 100.084 -1.75258 -3.16175 0
M  V30 1071 O 99.8047 -3.14318 -3.05182 0
M  V30 1072 C 101.306 -1.67776 -4.10324 0
M  V30 1073 H 98.5257 -0.389407 -0.546446 0
M  V30 1074 H 101.07 -1.64801 -1.21083 0
M  V30 1075 H 99.2247 -1.25954 -3.66353 0
M  V30 1076 H 99.6387 -3.4551 -3.94618 0
M  V30 1077 H 101.113 -2.17064 -5.0753 0
M  V30 1078 H 101.59 -0.639584 -4.34518 0
M  V30 1079 H 102.196 -2.16522 -3.66058 0
M  V30 1080 N 100.511 1.16574 -1.06058 0
M  V30 1081 C 101.76 1.86385 -0.770944 0
M  V30 1082 C 102.073 1.82448 0.705129 0
M  V30 1083 O 103.279 2.47815 1.10905 0
M  V30 1084 C 101.735 3.34466 -1.32893 0
M  V30 1085 C 101.343 3.46883 -2.83507 0
M  V30 1086 C 103.087 4.09548 -1.11672 0
M  V30 1087 C 100.994 4.89036 -3.32562 0
M  V30 1088 H 99.9238 0.698181 -0.284709 0
M  V30 1089 H 102.575 1.31583 -1.27899 0
M  V30 1090 H 100.957 3.88859 -0.748662 0
M  V30 1091 H 102.131 3.02663 -3.47465 0
M  V30 1092 H 100.446 2.85232 -3.03368 0
M  V30 1093 H 103.043 5.14434 -1.45814 0
M  V30 1094 H 103.386 4.16264 -0.0549535 0
M  V30 1095 H 103.919 3.61387 -1.66265 0
M  V30 1096 H 100.658 4.87499 -4.38207 0
M  V30 1097 H 100.178 5.3389 -2.73351 0
M  V30 1098 H 101.857 5.57843 -3.2775 0
M  V30 1099 N 101.989 0.842826 1.3317 0
M  V30 1100 C 103.235 0.441099 1.97945 0
M  V30 1101 C 103.568 -0.998024 1.66593 0
M  V30 1102 O 102.843 -1.69839 0.947898 0
M  V30 1103 C 103.126 0.666841 3.53872 0
M  V30 1104 C 102.979 2.15352 3.94897 0
M  V30 1105 C 104.298 0.115544 4.39948 0
M  V30 1106 H 101.417 0.161739 0.719034 0
M  V30 1107 H 104.059 1.05907 1.57746 0
M  V30 1108 H 102.209 0.140828 3.88245 0
M  V30 1109 H 103.881 2.7447 3.70761 0
M  V30 1110 H 102.124 2.63653 3.44484 0
M  V30 1111 H 102.795 2.26221 5.03516 0
M  V30 1112 H 105.271 0.565213 4.12243 0
M  V30 1113 H 104.147 0.303152 5.48062 0
M  V30 1114 H 104.408 -0.980935 4.3108 0
M  V30 1115 N 103.467 -1.45747 0.599634 0
M  V30 1116 C 104.43 -2.28917 -0.113835 0
M  V30 1117 C 105.43 -1.3933 -0.802729 0
M  V30 1118 O 106.62 -1.61534 -0.652103 0
M  V30 1119 C 103.752 -3.20152 -1.17114 0
M  V30 1120 H 104.945 -2.93478 0.617289 0
M  V30 1121 H 102.498 -1.52137 0.358327 0
M  V30 1122 H 103.233 -2.60374 -1.93329 0
M  V30 1123 H 103.018 -3.86133 -0.681468 0
M  V30 1124 H 104.508 -3.82708 -1.67105 0
M  V30 1125 N 104.945 -0.338344 -1.53925 0
M  V30 1126 C 105.892 0.520845 -2.24846 0
M  V30 1127 C 106.862 1.09976 -1.24477 0
M  V30 1128 O 108.047 1.13735 -1.53196 0
M  V30 1129 C 105.187 1.6685 -3.02084 0
M  V30 1130 C 104.3 1.11739 -4.17299 0
M  V30 1131 C 103.435 2.23193 -4.82036 0
M  V30 1132 C 102.474 1.65407 -5.89328 0
M  V30 1133 N 101.611 2.70582 -6.47866 0
M  V30 1134 H 106.451 -0.0904881 -2.97863 0
M  V30 1135 H 103.988 -0.0564282 -1.46992 0
M  V30 1136 H 105.946 2.34407 -3.45122 0
M  V30 1137 H 104.576 2.2509 -2.31375 0
M  V30 1138 H 103.628 0.332919 -3.7894 0
M  V30 1139 H 104.94 0.654677 -4.94485 0
M  V30 1140 H 104.094 2.98626 -5.28117 0
M  V30 1141 H 102.833 2.72807 -4.04262 0
M  V30 1142 H 101.838 0.884779 -5.42634 0
M  V30 1143 H 103.063 1.16652 -6.69006 0
M  V30 1144 H 101.009 3.1946 -5.72959 0
M  V30 1145 H 100.926 2.28917 -7.20509 0
M  V30 1146 H 102.194 3.45799 -6.98601 0
M  V30 1147 N 106.423 1.57458 -0.0668435 0
M  V30 1148 C 107.333 2.15937 0.916975 0
M  V30 1149 C 108.349 1.12123 1.33058 0
M  V30 1150 O 109.525 1.44366 1.40429 0
M  V30 1151 C 106.59 2.70547 2.16807 0
M  V30 1152 C 105.651 3.89215 1.81135 0
M  V30 1153 C 104.884 4.41211 3.0028 0
M  V30 1154 O 105.107 3.92225 4.14144 0
M  V30 1155 O 104.041 5.32605 2.80384 0
M  V30 1156 H 107.867 3.00354 0.449561 0
M  V30 1157 H 105.452 1.48584 0.155949 0
M  V30 1158 H 107.334 3.0557 2.90181 0
M  V30 1159 H 106.009 1.89192 2.62656 0
M  V30 1160 H 104.916 3.59054 1.05028 0
M  V30 1161 H 106.249 4.71848 1.40073 0
M  V30 1162 N 107.901 -0.206675 1.56239 0
M  V30 1163 C 109.15 -0.926964 1.79138 0
M  V30 1164 C 109.463 -1.84901 0.638043 0
M  V30 1165 O 110.669 -2.60906 0.751033 0
M  V30 1166 C 109.125 -1.6986 3.17294 0
M  V30 1167 C 108.733 -0.821956 4.40395 0
M  V30 1168 C 110.477 -2.40922 3.4951 0
M  V30 1169 C 108.384 -1.59179 5.69575 0
M  V30 1170 H 107.314 -0.349864 0.667915 0
M  V30 1171 H 109.965 -0.180487 1.8261 0
M  V30 1172 H 108.347 -2.48853 3.08039 0
M  V30 1173 H 109.521 -0.0715019 4.60745 0
M  V30 1174 H 107.836 -0.222741 4.15804 0
M  V30 1175 H 110.433 -2.99047 4.43255 0
M  V30 1176 H 110.776 -3.14542 2.72707 0
M  V30 1177 H 111.309 -1.68905 3.60161 0
M  V30 1178 H 108.048 -0.898589 6.49312 0
M  V30 1179 H 107.568 -2.31648 5.53262 0
M  V30 1180 H 109.247 -2.14862 6.10281 0
M  V30 1181 N 109.379 -1.50304 -0.473955 0
M  V30 1182 C 110.619 -1.62786 -1.23612 0
M  V30 1183 C 110.983 -0.319786 -1.89318 0
M  V30 1184 O 112.184 -0.320012 -2.66888 0
M  V30 1185 C 110.455 -2.77351 -2.25414 0
M  V30 1186 S 112.014 -3.09948 -3.10608 0
M  V30 1187 H 108.832 -0.573895 -0.419721 0
M  V30 1188 H 111.434 -1.88076 -0.533623 0
M  V30 1189 H 110.138 -3.70879 -1.75719 0
M  V30 1190 H 109.669 -2.54137 -3.00296 0
M  V30 1191 H 111.684 -2.53553 -4.26527 0
M  V30 1192 N 110.857 0.726932 -1.39834 0
M  V30 1193 C 111.82 1.82269 -1.38962 0
M  V30 1194 C 112.82 1.58248 -0.285334 0
M  V30 1195 O 114.01 1.65499 -0.54366 0
M  V30 1196 C 111.142 3.20186 -1.17019 0
M  V30 1197 H 112.335 1.84443 -2.36476 0
M  V30 1198 H 109.888 0.931416 -1.25516 0
M  V30 1199 H 110.623 3.23669 -0.202204 0
M  V30 1200 H 110.408 3.3902 -1.96998 0
M  V30 1201 H 111.898 4.00235 -1.1917 0
M  V30 1202 N 112.336 1.25143 0.95797 0
M  V30 1203 C 113.613 1.00472 1.67823 0
M  V30 1204 C 113.993 -0.470056 2.058 0
M  V30 1205 O 113.341 -1.44663 1.76875 0
M  V30 1206 C 113.551 1.9372 2.90299 0
M  V30 1207 C 114.899 2.21371 3.62326 0
M  V30 1208 O 115.923 1.91451 3.00375 0
M  V30 1209 O 114.782 2.72231 4.7387 0
M  V30 1210 H 111.876 0.380752 0.734137 0
M  V30 1211 H 114.422 1.36283 1.01119 0
M  V30 1212 H 113.194 2.93316 2.59001 0
M  V30 1213 H 112.817 1.58286 3.64735 0
M  V30 1214 N 113.814 -1.1601 1.06675 0
M  V30 1215 C 115.225 -1.68235 0.809565 0
M  V30 1216 C 115.576 -1.8454 -0.666303 0
M  V30 1217 O 114.701 -1.54374 -1.5165 0
M  V30 1218 C 115.296 -3.05585 1.46299 0
M  V30 1219 C 113.855 -3.54915 1.25349 0
M  V30 1220 C 113.002 -2.30804 1.53703 0
M  V30 1221 H 115.953 -1.00318 1.22971 0
M  V30 1222 H 115.974 -3.70174 0.880431 0
M  V30 1223 H 115.486 -2.93686 2.53713 0
M  V30 1224 H 113.587 -3.72067 0.199261 0
M  V30 1225 H 113.7 -4.36774 1.9689 0
M  V30 1226 H 112.064 -2.36007 0.957739 0
M  V30 1227 H 112.847 -2.21499 2.62284 0
M  V30 1228 N 115.292 -0.849877 -1.32721 0
M  V30 1229 C 116.239 -0.289033 -2.28983 0
M  V30 1230 C 117.209 0.601324 -1.54833 0
M  V30 1231 O 118.394 0.537253 -1.8308 0
M  V30 1232 C 115.534 0.520623 -3.4115 0
M  V30 1233 C 114.647 -0.394989 -4.3019 0
M  V30 1234 C 113.782 0.426834 -5.29482 0
M  V30 1235 C 112.821 -0.486476 -6.10164 0
M  V30 1236 N 111.958 0.297879 -7.01468 0
M  V30 1237 H 116.798 -1.11519 -2.76347 0
M  V30 1238 H 114.335 -0.56138 -1.35967 0
M  V30 1239 H 116.293 1.00563 -4.04899 0
M  V30 1240 H 114.923 1.31165 -2.9495 0
M  V30 1241 H 113.975 -0.99836 -3.67065 0
M  V30 1242 H 115.287 -1.09612 -4.86607 0
M  V30 1243 H 114.441 0.975205 -5.98811 0
M  V30 1244 H 113.18 1.16136 -4.73671 0
M  V30 1245 H 112.185 -1.04677 -5.39743 0
M  V30 1246 H 113.41 -1.21953 -6.6806 0
M  V30 1247 H 111.356 1.01558 -6.48091 0
M  V30 1248 H 111.273 -0.344318 -7.55216 0
M  V30 1249 H 112.541 0.828131 -7.75089 0
M  V30 1250 N 116.77 1.45427 -0.607355 0
M  V30 1251 C 117.702 2.2871 0.149752 0
M  V30 1252 C 118.715 1.39937 0.831958 0
M  V30 1253 O 119.904 1.64313 0.697385 0
M  V30 1254 C 117.004 3.15673 1.23304 0
M  V30 1255 C 116.177 4.32722 0.637996 0
M  V30 1256 C 115.236 5.00895 1.61215 0
M  V30 1257 O 114.262 5.57697 1.13854 0
M  V30 1258 N 115.464 5.00159 2.94655 0
M  V30 1259 H 118.229 2.94328 -0.564882 0
M  V30 1260 H 115.79 1.55612 -0.446823 0
M  V30 1261 H 117.782 3.58144 1.88454 0
M  V30 1262 H 116.352 2.51965 1.8502 0
M  V30 1263 H 115.572 3.93734 -0.191572 0
M  V30 1264 H 116.86 5.08321 0.220665 0
M  V30 1265 H 116.258 4.553 3.35735 0
M  V30 1266 H 114.815 5.46495 3.55228 0
M  V30 1267 N 118.248 0.346503 1.53744 0
M  V30 1268 C 119.195 -0.508914 2.25119 0
M  V30 1269 C 120.165 -1.09315 1.25058 0
M  V30 1270 O 121.35 -1.12921 1.53797 0
M  V30 1271 C 118.49 -1.65246 3.02965 0
M  V30 1272 C 117.603 -1.09525 4.17886 0
M  V30 1273 C 116.738 -2.20634 4.83212 0
M  V30 1274 C 115.777 -1.62279 5.90196 0
M  V30 1275 N 114.914 -2.67143 6.49291 0
M  V30 1276 H 119.754 0.106283 2.9781 0
M  V30 1277 H 117.291 0.0642227 1.4696 0
M  V30 1278 H 119.249 -2.32574 3.4636 0
M  V30 1279 H 117.879 -2.2386 2.32565 0
M  V30 1280 H 116.931 -0.312818 3.79112 0
M  V30 1281 H 118.243 -0.628444 4.94825 0
M  V30 1282 H 117.397 -2.95821 5.29693 0
M  V30 1283 H 116.136 -2.70659 4.05703 0
M  V30 1284 H 115.141 -0.855989 5.43096 0
M  V30 1285 H 116.366 -1.13102 6.69615 0
M  V30 1286 H 114.312 -3.16417 5.74645 0
M  V30 1287 H 114.229 -2.25093 7.21713 0
M  V30 1288 H 115.497 -3.4209 7.00425 0
M  V30 1289 N 119.726 -1.57421 0.075193 0
M  V30 1290 C 120.972 -1.94716 -0.587998 0
M  V30 1291 C 121.327 -0.955205 -1.67014 0
M  V30 1292 O 120.62 0.0219842 -1.91587 0
M  V30 1293 C 120.814 -3.36428 -1.20626 0
M  V30 1294 C 120.643 -4.49317 -0.185541 0
M  V30 1295 C 119.413 -5.04772 0.23099 0
M  V30 1296 C 121.611 -5.11036 0.57854 0
M  V30 1297 N 119.593 -6.01204 1.24206 0
M  V30 1298 C 120.964 -6.02998 1.44199 0
M  V30 1299 C 123.019 -4.93844 0.634237 0
M  V30 1300 C 121.722 -6.79614 2.3562 0
M  V30 1301 C 123.748 -5.71106 1.53597 0
M  V30 1302 C 123.11 -6.6272 2.38709 0
M  V30 1303 H 119.209 -0.759536 -0.186089 0
M  V30 1304 H 121.793 -1.94097 0.153128 0
M  V30 1305 H 119.964 -3.37778 -1.9173 0
M  V30 1306 H 121.696 -3.60951 -1.8302 0
M  V30 1307 H 118.451 -4.73353 -0.152807 0
M  V30 1308 H 118.875 -6.54119 1.74521 0
M  V30 1309 H 123.517 -4.22799 -0.00960004 0
M  V30 1310 H 121.235 -7.49934 3.01038 0
M  V30 1311 H 124.821 -5.59824 1.58394 0
M  V30 1312 H 123.701 -7.2146 3.07352 0
M  V30 1313 N 121.204 0.198386 -1.56346 0
M  V30 1314 C 122.45 0.920648 -1.80698 0
M  V30 1315 C 122.783 1.83045 -0.648697 0
M  V30 1316 O 122.058 1.91308 0.350925 0
M  V30 1317 C 122.341 1.73971 -3.15287 0
M  V30 1318 C 122.194 0.85485 -4.41602 0
M  V30 1319 C 123.513 2.71296 -3.46535 0
M  V30 1320 H 120.632 0.333261 -0.657348 0
M  V30 1321 H 123.274 0.188198 -1.89066 0
M  V30 1322 H 121.424 2.36416 -3.08285 0
M  V30 1323 H 123.096 0.245362 -4.60647 0
M  V30 1324 H 121.339 0.161398 -4.335 0
M  V30 1325 H 122.01 1.46286 -5.32264 0
M  V30 1326 H 124.486 2.18983 -3.53816 0
M  V30 1327 H 123.362 3.2569 -4.41834 0
M  V30 1328 H 123.623 3.5018 -2.69864 0
M  V30 1329 N 122.682 1.50554 0.465978 0
M  V30 1330 C 123.614 1.65949 1.58093 0
M  V30 1331 C 124.627 0.540827 1.53554 0
M  V30 1332 O 125.816 0.814187 1.5885 0
M  V30 1333 C 122.916 1.63261 2.96983 0
M  V30 1334 C 122.089 2.91245 3.26336 0
M  V30 1335 C 121.148 2.8113 4.44806 0
M  V30 1336 O 120.174 3.55086 4.44862 0
M  V30 1337 N 121.376 1.95032 5.46756 0
M  V30 1338 H 124.141 2.62122 1.45301 0
M  V30 1339 H 121.702 1.48082 0.65448 0
M  V30 1340 H 123.694 1.54101 3.74212 0
M  V30 1341 H 122.264 0.748032 3.03518 0
M  V30 1342 H 121.484 3.14493 2.37672 0
M  V30 1343 H 122.772 3.76022 3.42761 0
M  V30 1344 H 122.17 1.3427 5.49534 0
M  V30 1345 H 120.727 1.91772 6.2295 0
M  V30 1346 N 124.16 -0.719506 1.40217 0
M  V30 1347 C 125.437 -1.47221 1.28784 0
M  V30 1348 C 125.817 -2.10883 -0.0956067 0
M  V30 1349 O 125.165 -1.99833 -1.10811 0
M  V30 1350 C 125.375 -2.5111 2.42373 0
M  V30 1351 C 126.723 -3.17053 2.82423 0
M  V30 1352 O 127.747 -2.61429 2.41937 0
M  V30 1353 O 126.606 -4.17742 3.52355 0
M  V30 1354 H 123.7 -0.654491 0.50554 0
M  V30 1355 H 126.246 -0.752014 1.52128 0
M  V30 1356 H 125.018 -2.02556 3.34793 0
M  V30 1357 H 124.641 -3.3067 2.20778 0
M  V30 1358 N 125.638 -1.25649 -0.95132 0
M  V30 1359 C 126.863 -1.13443 -1.73624 0
M  V30 1360 C 127.288 0.307565 -1.85568 0
M  V30 1361 O 126.646 1.22282 -1.33854 0
M  V30 1362 C 126.694 -1.79723 -3.12621 0
M  V30 1363 O 125.798 -1.07912 -3.98031 0
M  V30 1364 H 125.139 -0.395872 -0.533086 0
M  V30 1365 H 127.669 -1.66276 -1.1922 0
M  V30 1366 H 127.679 -1.86141 -3.63064 0
M  V30 1367 H 126.354 -2.84633 -3.03244 0
M  V30 1368 H 124.931 -1.09398 -3.56492 0
M  V30 1369 N 127.117 1.15442 -1.07289 0
M  V30 1370 C 128.05 2.19135 -0.636798 0
M  V30 1371 C 129.028 1.58884 0.34562 0
M  V30 1372 O 130.212 1.86805 0.252195 0
M  V30 1373 C 127.339 3.38638 0.0650014 0
M  V30 1374 C 126.385 4.17412 -0.87576 0
M  V30 1375 S 127.218 4.79882 -2.37642 0
M  V30 1376 C 128.374 6.02753 -1.6864 0
M  V30 1377 H 128.607 2.55787 -1.51526 0
M  V30 1378 H 126.14 1.26394 -0.886793 0
M  V30 1379 H 128.098 4.07873 0.463664 0
M  V30 1380 H 126.759 3.00331 0.919801 0
M  V30 1381 H 125.952 5.02909 -0.33143 0
M  V30 1382 H 125.554 3.53722 -1.21478 0
M  V30 1383 H 127.846 6.70113 -0.997753 0
M  V30 1384 H 128.789 6.61754 -2.51967 0
M  V30 1385 H 129.197 5.52355 -1.16465 0
M  V30 1386 N 128.595 0.856903 1.32268 0
M  V30 1387 C 129.872 0.382583 1.91822 0
M  V30 1388 C 130.252 -1.13407 1.78051 0
M  V30 1389 O 129.6 -1.95673 1.18001 0
M  V30 1390 C 129.81 0.849446 3.38505 0
M  V30 1391 C 131.158 0.867936 4.15634 0
M  V30 1392 O 132.182 0.794232 3.47232 0
M  V30 1393 O 131.041 0.972286 5.37781 0
M  V30 1394 H 128.135 0.112014 0.819379 0
M  V30 1395 H 130.681 0.943952 1.41024 0
M  V30 1396 H 129.453 1.89267 3.42482 0
M  V30 1397 H 129.076 0.265652 3.96712 0
M  V30 1398 N 130.073 -1.45103 0.615059 0
M  V30 1399 C 131.023 -2.27679 -0.120966 0
M  V30 1400 C 132.007 -1.3775 -0.831491 0
M  V30 1401 O 133.199 -1.61683 -0.720249 0
M  V30 1402 C 130.328 -3.24767 -1.1127 0
M  V30 1403 C 129.414 -4.22184 -0.402627 0
M  V30 1404 N 129.805 -5.02692 0.559884 0
M  V30 1405 C 128.103 -4.4125 -0.649202 0
M  V30 1406 C 128.804 -5.73421 0.977942 0
M  V30 1407 N 127.78 -5.42657 0.320104 0
M  V30 1408 H 131.582 -2.87325 0.618181 0
M  V30 1409 H 129.096 -1.56345 0.439304 0
M  V30 1410 H 131.093 -3.82666 -1.65446 0
M  V30 1411 H 129.753 -2.66682 -1.85232 0
M  V30 1412 H 130.764 -5.09354 0.936976 0
M  V30 1413 H 127.441 -3.9428 -1.37293 0
M  V30 1414 H 128.831 -6.48107 1.77222 0
M  V30 1415 N 131.551 -0.354651 -1.53558 0
M  V30 1416 C 132.481 0.489091 -2.2832 0
M  V30 1417 C 133.462 1.09324 -1.30316 0
M  V30 1418 O 134.647 1.11255 -1.59173 0
M  V30 1419 C 131.777 1.63456 -3.0643 0
M  V30 1420 C 130.731 1.1582 -4.12031 0
M  V30 1421 C 130.057 2.39305 -4.7816 0
M  V30 1422 C 131.357 0.250731 -5.21698 0
M  V30 1423 H 133.051 -0.134614 -2.99097 0
M  V30 1424 H 130.597 -0.0661826 -1.43848 0
M  V30 1425 H 132.55 2.23136 -3.57475 0
M  V30 1426 H 131.274 2.28533 -2.33325 0
M  V30 1427 H 129.933 0.584146 -3.61916 0
M  V30 1428 H 129.581 3.02814 -4.01637 0
M  V30 1429 H 129.281 2.08109 -5.49513 0
M  V30 1430 H 130.805 2.99691 -5.31994 0
M  V30 1431 H 132.219 0.754695 -5.68311 0
M  V30 1432 H 130.616 0.0301468 -6.00092 0
M  V30 1433 H 131.686 -0.710125 -4.79672 0
M  V30 1434 N 133.029 1.57378 -0.0835403 0
M  V30 1435 C 134.306 1.85363 0.624507 0
M  V30 1436 C 134.686 0.978239 1.87066 0
M  V30 1437 O 134.034 0.0475908 2.2845 0
M  V30 1438 C 134.244 3.35795 0.950947 0
M  V30 1439 C 135.592 4.03581 1.31939 0
M  V30 1440 O 136.616 3.40609 1.04232 0
M  V30 1441 O 135.475 5.14672 1.83779 0
M  V30 1442 H 132.569 0.766162 0.311329 0
M  V30 1443 H 135.115 1.69307 -0.115362 0
M  V30 1444 H 133.887 3.91244 0.0663899 0
M  V30 1445 H 133.51 3.57154 1.74719 0
M  V30 1446 N 134.507 -0.190092 1.56449 0
M  V30 1447 C 135.454 -1.23557 1.94942 0
M  V30 1448 C 136.424 -1.44972 0.810696 0
M  V30 1449 O 137.609 -1.58023 1.06927 0
M  V30 1450 C 134.749 -2.57416 2.2985 0
M  V30 1451 C 133.862 -2.43537 3.5681 0
M  V30 1452 C 132.997 -3.70134 3.81017 0
M  V30 1453 C 132.036 -3.51109 5.01387 0
M  V30 1454 N 131.173 -4.6973 5.21822 0
M  V30 1455 H 136.013 -0.900304 2.84075 0
M  V30 1456 H 133.55 -0.43318 1.40577 0
M  V30 1457 H 135.508 -3.35409 2.48106 0
M  V30 1458 H 134.138 -2.88975 1.43852 0
M  V30 1459 H 133.19 -1.56816 3.46573 0
M  V30 1460 H 134.502 -2.25415 4.4496 0
M  V30 1461 H 133.656 -4.56566 3.9954 0
M  V30 1462 H 132.395 -3.91215 2.91207 0
M  V30 1463 H 131.4 -2.63063 4.82782 0
M  V30 1464 H 132.625 -3.31468 5.9271 0
M  V30 1465 H 130.571 -4.91065 4.34961 0
M  V30 1466 H 130.488 -4.54452 6.0416 0
M  V30 1467 H 131.756 -5.57499 5.44808 0
M  V30 1468 N 135.985 -1.50799 -0.457987 0
M  V30 1469 C 136.917 -1.66786 -1.57211 0
M  V30 1470 C 137.93 -0.548962 -1.53265 0
M  V30 1471 O 139.119 -0.8226 -1.58416 0
M  V30 1472 C 136.219 -1.64834 -2.96113 0
M  V30 1473 C 135.392 -2.92971 -3.24787 0
M  V30 1474 C 134.451 -2.83485 -4.43309 0
M  V30 1475 O 133.477 -3.5744 -4.42973 0
M  V30 1476 N 134.679 -1.97929 -5.45714 0
M  V30 1477 H 137.444 -2.62889 -1.43909 0
M  V30 1478 H 135.005 -1.48427 -0.646617 0
M  V30 1479 H 136.997 -1.56084 -3.7339 0
M  V30 1480 H 135.567 -0.764118 -3.03117 0
M  V30 1481 H 134.787 -3.15749 -2.36 0
M  V30 1482 H 136.075 -3.77834 -3.40762 0
M  V30 1483 H 135.473 -1.37182 -5.48815 0
M  V30 1484 H 134.03 -1.95073 -6.21924 0
M  V30 1485 N 137.463 0.71206 -1.40597 0
M  V30 1486 C 138.691 1.50111 -1.42388 0
M  V30 1487 C 139.106 1.88784 -0.0245395 0
M  V30 1488 O 138.463 1.55681 0.952351 0
M  V30 1489 C 138.514 2.7742 -2.31776 0
M  V30 1490 O 138.235 2.40382 -3.66262 0
M  V30 1491 C 139.736 3.7129 -2.42196 0
M  V30 1492 H 136.956 0.46314 -0.485533 0
M  V30 1493 H 139.5 0.878068 -1.8469 0
M  V30 1494 H 137.655 3.36001 -1.92827 0
M  V30 1495 H 138.069 3.22324 -4.13772 0
M  V30 1496 H 139.543 4.57448 -3.08943 0
M  V30 1497 H 140.02 4.14641 -1.44809 0
M  V30 1498 H 140.626 3.18619 -2.81712 0
M  V30 1499 N 138.941 1.26152 0.944643 0
M  V30 1500 C 139.873 1.03199 2.04652 0
M  V30 1501 C 140.886 -0.00642356 1.62799 0
M  V30 1502 O 142.075 0.233263 1.76969 0
M  V30 1503 C 139.175 0.540111 3.34568 0
M  V30 1504 C 138.348 1.64697 4.05208 0
M  V30 1505 C 137.407 1.15374 5.13396 0
M  V30 1506 O 136.433 1.85013 5.38293 0
M  V30 1507 N 137.635 0.00031529 5.805 0
M  V30 1508 H 140.4 1.9808 2.2491 0
M  V30 1509 H 137.961 1.17491 1.11389 0
M  V30 1510 H 139.953 0.194401 4.04233 0
M  V30 1511 H 138.523 -0.315021 3.11009 0
M  V30 1512 H 137.743 2.16379 3.29506 0
M  V30 1513 H 139.031 2.3903 4.49157 0
M  V30 1514 H 138.429 -0.581336 5.62705 0
M  V30 1515 H 136.986 -0.286346 6.51171 0
M  V30 1516 N 140.419 -1.14872 1.07899 0
M  V30 1517 C 141.647 -1.89661 0.82683 0
M  V30 1518 C 142.062 -1.78312 -0.620519 0
M  V30 1519 O 141.419 -1.13888 -1.42604 0
M  V30 1520 C 141.47 -3.39817 1.23316 0
M  V30 1521 O 141.191 -3.50845 2.62372 0
M  V30 1522 C 142.692 -4.31615 1.0111 0
M  V30 1523 H 139.912 -0.60092 0.298557 0
M  V30 1524 H 142.456 -1.4551 1.43691 0
M  V30 1525 H 140.611 -3.8161 0.667286 0
M  V30 1526 H 141.025 -4.44076 2.79101 0
M  V30 1527 H 142.499 -5.35367 1.34486 0
M  V30 1528 H 142.976 -4.39169 -0.0522168 0
M  V30 1529 H 143.582 -3.95572 1.56215 0
M  V30 1530 N 141.898 -0.863906 -1.31812 0
M  V30 1531 C 143.309 -0.52522 -1.7916 0
M  V30 1532 C 143.66 0.957518 -1.71248 0
M  V30 1533 O 142.785 1.74734 -1.27659 0
M  V30 1534 C 143.38 -0.9466 -3.25307 0
M  V30 1535 C 141.939 -0.659668 -3.70574 0
M  V30 1536 C 141.086 -1.14126 -2.52726 0
M  V30 1537 H 144.037 -1.05022 -1.1898 0
M  V30 1538 H 144.058 -0.266766 -3.79564 0
M  V30 1539 H 143.57 -2.02579 -3.31034 0
M  V30 1540 H 141.671 0.408416 -3.70355 0
M  V30 1541 H 141.784 -1.23245 -4.62977 0
M  V30 1542 H 140.148 -0.561216 -2.4844 0
M  V30 1543 H 140.931 -2.22775 -2.61201 0
M  V30 1544 N 143.376 1.44774 -0.622745 0
M  V30 1545 C 144.323 2.30635 0.0871679 0
M  V30 1546 C 145.293 1.42994 0.845097 0
M  V30 1547 O 146.478 1.71907 0.827812 0
M  V30 1548 C 143.618 3.28144 1.06844 0
M  V30 1549 C 142.731 4.30888 0.309809 0
M  V30 1550 C 141.866 5.15494 1.28215 0
M  V30 1551 C 140.905 6.09953 0.512198 0
M  V30 1552 N 140.042 6.87287 1.43458 0
M  V30 1553 H 144.882 2.90803 -0.650974 0
M  V30 1554 H 142.419 1.43286 -0.33281 0
M  V30 1555 H 144.377 3.83157 1.65066 0
M  V30 1556 H 143.007 2.69695 1.77382 0
M  V30 1557 H 142.059 3.78414 -0.388181 0
M  V30 1558 H 143.371 4.97955 -0.290254 0
M  V30 1559 H 142.525 5.74983 1.93596 0
M  V30 1560 H 141.264 4.48481 1.91614 0
M  V30 1561 H 140.269 5.49581 -0.155151 0
M  V30 1562 H 141.494 6.78999 -0.116958 0
M  V30 1563 H 139.44 6.2295 2.05594 0
M  V30 1564 H 139.357 7.50763 0.888335 0
M  V30 1565 H 140.625 7.51306 2.07749 0
M  V30 1566 N 144.854 0.36279 1.53368 0
M  V30 1567 C 146.082 -0.228613 2.05633 0
M  V30 1568 C 146.497 -1.42676 1.23649 0
M  V30 1569 O 145.854 -1.80394 0.27647 0
M  V30 1570 C 145.905 -0.624845 3.56059 0
M  V30 1571 O 145.626 0.525675 4.34935 0
M  V30 1572 C 147.127 -1.27493 4.24571 0
M  V30 1573 H 144.347 -0.0407183 0.669763 0
M  V30 1574 H 146.891 0.520352 1.97769 0
M  V30 1575 H 145.046 -1.32373 3.64083 0
M  V30 1576 H 145.46 0.205969 5.24095 0
M  V30 1577 H 146.934 -1.50277 5.31151 0
M  V30 1578 H 147.411 -2.23439 3.78116 0
M  V30 1579 H 148.017 -0.617558 4.20792 0
M  V30 1580 O 146.371 -1.59827 0.231878 0
M  V30 1581 H 147.062 -1.90573 -0.346636 0
M  V30 END ATOM
M  V30 BEGIN BOND
M  V30 END BOND
M  V30 END CTAB
M  END
$$$$
