drugbank_target|Q873X9 Endochitinase B1 (DB03632; DB04350)
 OpenBabel12092120283D

  0  0  0     0  0            999 V3000
M  V30 BEGIN CTAB
M  V30 COUNTS 6582 6667 0 0 0
M  V30 BEGIN ATOM
M  V30 1 H -0.908 1.98254 -0.117106 0
M  V30 2 N 0 1.576 0 0
M  V30 3 C 0.933 2.03868 1.02534 0
M  V30 4 C 1.911 0.928543 1.3348 0
M  V30 5 O 3.095 1.19667 1.45644 0
M  V30 6 C 0.222 2.43627 2.35294 0
M  V30 7 C -0.732 3.65373 2.2001 0
M  V30 8 S 0.101 5.13292 1.52614 0
M  V30 9 C 1.257 5.56322 2.86805 0
M  V30 10 H 1.49 2.90518 0.631377 0
M  V30 11 H -0.977 1.52953 0.210867 0
M  V30 12 H 0.981 2.67203 3.11629 0
M  V30 13 H -0.358 1.57376 2.7183 0
M  V30 14 H -1.165 3.90944 3.18086 0
M  V30 15 H -1.563 3.418 1.51819 0
M  V30 16 H 0.729 5.58782 3.83104 0
M  V30 17 H 1.672 6.56266 2.65933 0
M  V30 18 H 2.08 4.83886 2.90714 0
M  V30 19 N 1.4781 -0.272755 1.55222 0
M  V30 20 C 2.8941 -0.619959 1.47067 0
M  V30 21 C 3.0941 -1.895 0.684978 0
M  V30 22 O 2.1501 -2.51675 0.203931 0
M  V30 23 C 3.4631 -0.746693 2.91282 0
M  V30 24 C 5.0111 -0.840731 3.01497 0
M  V30 25 C 5.4861 -0.99924 4.46967 0
M  V30 26 N 6.9771 -1.06476 4.50796 0
M  V30 27 C 7.7121 -1.20621 5.6057 0
M  V30 28 N 7.2081 -1.31483 6.80209 0
M  V30 29 N 9.0011 -1.23733 5.48312 0
M  V30 30 H 1.1521 0.564606 2.04758 0
M  V30 31 H 3.4151 0.191177 0.928523 0
M  V30 32 H 3.1211 0.119753 3.51496 0
M  V30 33 H 2.9951 -1.6269 3.40311 0
M  V30 34 H 5.3821 -1.69764 2.41379 0
M  V30 35 H 5.4631 0.0640874 2.5572 0
M  V30 36 H 5.1071 -0.146984 5.07687 0
M  V30 37 H 5.0371 -1.91871 4.90401 0
M  V30 38 H 7.5281 -0.993196 3.64615 0
M  V30 39 H 7.8411 -1.42111 7.59621 0
M  V30 40 H 6.1861 -1.28487 6.8302 0
M  V30 41 H 9.3771 -1.14877 4.53785 0
M  V30 42 H 9.5501 -1.34412 6.33906 0
M  V30 43 N 2.9562 -1.48159 -0.537278 0
M  V30 44 C 4.2032 -1.55804 -1.29349 0
M  V30 45 C 4.5312 -0.228802 -1.9315 0
M  V30 46 O 3.7862 0.780242 -1.79473 0
M  V30 47 C 4.0852 -2.63956 -2.40961 0
M  V30 48 C 3.7512 -4.0662 -1.94861 0
M  V30 49 C 2.4132 -4.45452 -1.82006 0
M  V30 50 C 4.7652 -4.96055 -1.59933 0
M  V30 51 C 2.0932 -5.71531 -1.32547 0
M  V30 52 C 4.4452 -6.22617 -1.11939 0
M  V30 53 C 3.1092 -6.60312 -0.976951 0
M  V30 54 H 2.3792 -0.570129 -0.473322 0
M  V30 55 H 5.0262 -1.81845 -0.600372 0
M  V30 56 H 3.3312 -2.31747 -3.15912 0
M  V30 57 H 5.0282 -2.67089 -2.99107 0
M  V30 58 H 1.6182 -3.75949 -2.05815 0
M  V30 59 H 5.8022 -4.66738 -1.68728 0
M  V30 60 H 1.0582 -5.99468 -1.202 0
M  V30 61 H 5.2322 -6.91318 -0.839811 0
M  V30 62 H 2.8592 -7.57895 -0.591501 0
M  V30 63 N 4.4343 0.785586 -1.36625 0
M  V30 64 C 5.3973 1.87999 -1.31107 0
M  V30 65 C 6.3973 1.59316 -0.217959 0
M  V30 66 O 7.5873 1.67656 -0.472977 0
M  V30 67 C 4.7193 3.24861 -1.03334 0
M  V30 68 H 5.9123 1.94307 -2.2844 0
M  V30 69 H 3.4653 0.983813 -1.21453 0
M  V30 70 H 4.2003 3.24235 -0.0647432 0
M  V30 71 H 3.9853 3.4707 -1.82441 0
M  V30 72 H 5.4753 4.04929 -1.02088 0
M  V30 73 N 5.9124 1.20967 1.01018 0
M  V30 74 C 7.1404 1.04956 1.78303 0
M  V30 75 C 7.5554 -0.400915 1.84494 0
M  V30 76 O 6.9124 -1.27826 1.30257 0
M  V30 77 C 6.9634 1.63403 3.22462 0
M  V30 78 O 6.6844 3.02775 3.16637 0
M  V30 79 C 8.1854 1.52432 4.16268 0
M  V30 80 H 5.4054 0.368858 0.560522 0
M  V30 81 H 7.9494 1.60193 1.27116 0
M  V30 82 H 6.1044 1.1227 3.70775 0
M  V30 83 H 6.5184 3.30626 4.07169 0
M  V30 84 H 7.9924 1.98078 5.15237 0
M  V30 85 H 8.4694 0.477875 4.36592 0
M  V30 86 H 9.0754 2.02787 3.73841 0
M  V30 87 N 7.3905 -1.2043 1.01659 0
M  V30 88 C 8.6155 -1.94318 0.724942 0
M  V30 89 C 9.0405 -1.74266 -0.708034 0
M  V30 90 O 8.3985 -1.03694 -1.48719 0
M  V30 91 C 8.4465 -3.44486 1.06591 0
M  V30 92 O 7.5505 -4.12017 0.177599 0
M  V30 93 H 6.8915 -0.60708 0.26898 0
M  V30 94 H 9.4215 -1.52861 1.35995 0
M  V30 95 H 9.4315 -3.95106 1.01762 0
M  V30 96 H 8.1065 -3.58404 2.10997 0
M  V30 97 H 6.6835 -3.71821 0.283421 0
M  V30 98 N 8.8686 -0.792821 -1.36206 0
M  V30 99 C 10.0966 -0.378825 -2.03402 0
M  V30 100 C 10.5116 1.00586 -1.59774 0
M  V30 101 O 9.8686 1.64574 -0.788764 0
M  V30 102 C 9.9196 -0.43683 -3.58851 0
M  V30 103 O 9.6406 -1.76691 -4.00889 0
M  V30 104 C 11.1416 -0.0138943 -4.43298 0
M  V30 105 H 8.3616 -0.155673 -0.652692 0
M  V30 106 H 10.9056 -1.07261 -1.74113 0
M  V30 107 H 9.0606 0.208575 -3.86838 0
M  V30 108 H 9.4746 -1.72011 -4.95492 0
M  V30 109 H 10.9486 -0.105615 -5.51899 0
M  V30 110 H 11.4256 1.03915 -4.2673 0
M  V30 111 H 12.0316 -0.63192 -4.20579 0
M  V30 112 N 10.3467 1.47872 -0.545128 0
M  V30 113 C 11.5957 2.01695 -0.0145033 0
M  V30 114 C 11.9087 1.42609 1.33873 0
M  V30 115 O 13.1147 1.88021 1.95858 0
M  V30 116 C 11.5707 3.59892 0.0245068 0
M  V30 117 C 11.1787 4.27966 -1.32475 0
M  V30 118 C 12.9227 4.21507 0.50316 0
M  V30 119 C 10.8297 5.78136 -1.2455 0
M  V30 120 H 9.7597 0.753998 -0.00165172 0
M  V30 121 H 12.4107 1.69985 -0.691175 0
M  V30 122 H 10.7927 3.88509 0.766575 0
M  V30 123 H 11.9667 4.11003 -2.08357 0
M  V30 124 H 10.2817 3.78286 -1.74036 0
M  V30 125 H 12.8787 5.31538 0.580656 0
M  V30 126 H 13.2217 3.87855 1.51243 0
M  V30 127 H 13.7547 3.97376 -0.183681 0
M  V30 128 H 10.4937 6.16388 -2.23039 0
M  V30 129 H 10.0137 5.97469 -0.528282 0
M  V30 130 H 11.6927 6.40099 -0.942488 0
M  V30 131 N 11.8248 0.280983 1.55075 0
M  V30 132 C 13.0708 -0.33461 2.00021 0
M  V30 133 C 13.4038 -1.55063 1.16915 0
M  V30 134 O 12.6788 -1.93006 0.240646 0
M  V30 135 C 12.9618 -0.711007 3.53011 0
M  V30 136 C 12.8148 0.512766 4.46868 0
M  V30 137 C 14.1338 -1.54522 4.12081 0
M  V30 138 H 11.2528 -0.120147 0.727141 0
M  V30 139 H 13.8948 0.389097 1.85973 0
M  V30 140 H 12.0448 -1.32761 3.65112 0
M  V30 141 H 13.7168 1.15131 4.46702 0
M  V30 142 H 11.9598 1.14975 4.18286 0
M  V30 143 H 12.6308 0.205556 5.51617 0
M  V30 144 H 15.1068 -1.02442 4.03293 0
M  V30 145 H 13.9828 -1.77739 5.19327 0
M  V30 146 H 14.2438 -2.52813 3.62682 0
M  V30 147 N 13.3029 -1.57598 0.00835791 0
M  V30 148 C 14.2499 -2.08945 -0.980346 0
M  V30 149 C 15.2199 -0.986738 -1.33614 0
M  V30 150 O 16.4049 -1.25968 -1.43306 0
M  V30 151 C 13.5449 -2.60425 -2.26435 0
M  V30 152 C 12.6579 -3.84628 -1.96685 0
M  V30 153 C 11.7929 -4.24579 -3.19228 0
M  V30 154 C 10.8319 -5.41596 -2.85202 0
M  V30 155 N 9.9689 -5.768 -4.00307 0
M  V30 156 H 14.8089 -2.93148 -0.535551 0
M  V30 157 H 12.3459 -1.44912 -0.252776 0
M  V30 158 H 14.3039 -2.88354 -3.01509 0
M  V30 159 H 12.9339 -1.79083 -2.68568 0
M  V30 160 H 11.9859 -3.63556 -1.11942 0
M  V30 161 H 13.2979 -4.69796 -1.67611 0
M  V30 162 H 12.4519 -4.53834 -4.02641 0
M  V30 163 H 11.1909 -3.38137 -3.51447 0
M  V30 164 H 10.1959 -5.12056 -2.00198 0
M  V30 165 H 11.4209 -6.29721 -2.54222 0
M  V30 166 H 9.3669 -4.93316 -4.32407 0
M  V30 167 H 9.2839 -6.5656 -3.74786 0
M  V30 168 H 10.5519 -6.10652 -4.84484 0
M  V30 169 N 14.781 0.264519 -1.55364 0
M  V30 170 C 16.027 0.99646 -1.76631 0
M  V30 171 C 16.36 1.85632 -0.570478 0
M  V30 172 O 15.635 1.89647 0.43175 0
M  V30 173 C 15.918 1.87187 -3.07625 0
M  V30 174 C 15.771 1.04138 -4.37579 0
M  V30 175 C 17.09 2.85749 -3.34717 0
M  V30 176 H 14.209 0.360841 -0.642622 0
M  V30 177 H 16.851 0.268218 -1.88097 0
M  V30 178 H 15.001 2.49279 -2.9798 0
M  V30 179 H 16.673 0.440517 -4.59192 0
M  V30 180 H 14.916 0.345115 -4.32425 0
M  V30 181 H 15.587 1.68729 -5.2558 0
M  V30 182 H 18.063 2.33793 -3.4421 0
M  V30 183 H 16.939 3.44136 -4.27623 0
M  V30 184 H 17.2 3.61311 -2.54768 0
M  V30 185 N 16.2591 1.48442 0.529413 0
M  V30 186 C 17.2221 1.62524 1.61612 0
M  V30 187 C 18.2221 0.498509 1.52877 0
M  V30 188 O 19.4121 0.76431 1.56537 0
M  V30 189 C 16.5441 1.59597 3.01233 0
M  V30 190 H 17.7371 2.59423 1.50465 0
M  V30 191 H 15.2901 1.37047 0.751514 0
M  V30 192 H 16.0251 0.641781 3.17886 0
M  V30 193 H 15.8101 2.41397 3.08982 0
M  V30 194 H 17.3001 1.72646 3.80241 0
M  V30 195 N 17.7372 -0.778329 1.37039 0
M  V30 196 C 18.6672 -1.90546 1.34962 0
M  V30 197 C 19.6482 -1.68681 0.219274 0
M  V30 198 O 20.8332 -1.89634 0.418624 0
M  V30 199 C 17.9632 -3.27734 1.14925 0
M  V30 200 C 16.9172 -3.64147 2.24902 0
M  V30 201 C 16.2432 -4.99806 1.89996 0
M  V30 202 C 17.5432 -3.71579 3.67051 0
M  V30 203 H 19.2372 -1.92541 2.29277 0
M  V30 204 H 16.7832 -0.924948 1.10366 0
M  V30 205 H 18.7362 -4.06215 1.12104 0
M  V30 206 H 17.4602 -3.26154 0.170631 0
M  V30 207 H 16.1192 -2.8797 2.26868 0
M  V30 208 H 15.7672 -4.94759 0.906796 0
M  V30 209 H 15.4672 -5.25139 2.63634 0
M  V30 210 H 16.9912 -5.80694 1.88749 0
M  V30 211 H 18.4052 -4.40227 3.67251 0
M  V30 212 H 16.8022 -4.08405 4.39688 0
M  V30 213 H 17.8722 -2.72404 4.01154 0
M  V30 214 N 19.2153 -1.21501 -1.00376 0
M  V30 215 C 20.1453 -0.999478 -2.11028 0
M  V30 216 C 21.1263 0.0759671 -1.6993 0
M  V30 217 O 22.3113 -0.0841106 -1.94018 0
M  V30 218 C 19.4413 -0.564709 -3.42678 0
M  V30 219 C 18.3953 -1.58486 -3.97576 0
M  V30 220 C 17.7213 -1.00628 -5.25146 0
M  V30 221 C 19.0213 -2.97204 -4.29496 0
M  V30 222 H 20.7153 -1.92495 -2.29317 0
M  V30 223 H 18.2613 -0.92693 -1.102 0
M  V30 224 H 20.2143 -0.401091 -4.19487 0
M  V30 225 H 18.9383 0.396411 -3.24185 0
M  V30 226 H 17.5973 -1.73606 -3.22888 0
M  V30 227 H 17.2453 -0.0368439 -5.02987 0
M  V30 228 H 16.9453 -1.68771 -5.62841 0
M  V30 229 H 18.4693 -0.854015 -6.04598 0
M  V30 230 H 19.8833 -2.8552 -4.97143 0
M  V30 231 H 18.2803 -3.62372 -4.78338 0
M  V30 232 H 19.3503 -3.47956 -3.3772 0
M  V30 233 N 20.6934 1.19889 -1.02296 0
M  V30 234 C 21.6234 2.25141 -0.619174 0
M  V30 235 C 22.6044 1.66051 0.368915 0
M  V30 236 O 23.7894 1.92546 0.252941 0
M  V30 237 C 20.9194 3.4728 0.0368783 0
M  V30 238 C 19.8734 4.19005 -0.872865 0
M  V30 239 C 19.1994 5.34637 -0.0822402 0
M  V30 240 C 20.4994 4.74452 -2.18387 0
M  V30 241 H 22.1934 2.59171 -1.49903 0
M  V30 242 H 19.7394 1.24579 -0.722222 0
M  V30 243 H 21.6924 4.20098 0.330958 0
M  V30 244 H 20.4164 3.12433 0.95149 0
M  V30 245 H 19.0754 3.48061 -1.15105 0
M  V30 246 H 18.7234 4.96034 0.83422 0
M  V30 247 H 18.4234 5.83557 -0.688149 0
M  V30 248 H 19.9474 6.10255 0.205238 0
M  V30 249 H 21.3614 5.39055 -1.95172 0
M  V30 250 H 19.7584 5.33834 -2.74119 0
M  V30 251 H 20.8284 3.92844 -2.84257 0
M  V30 252 N 22.1715 0.800033 1.35784 0
M  V30 253 C 23.3965 0.388511 2.03729 0
M  V30 254 C 23.8215 -0.990481 1.5991 0
M  V30 255 O 23.1795 -1.64013 0.772612 0
M  V30 256 C 23.2275 0.4726 3.5749 0
M  V30 257 O 22.3315 -0.51646 4.09153 0
M  V30 258 H 21.6725 0.163271 0.643614 0
M  V30 259 H 24.2025 1.0841 1.73518 0
M  V30 260 H 24.2125 0.34003 4.06581 0
M  V30 261 H 22.8875 1.47848 3.88734 0
M  V30 262 H 21.4645 -0.344673 3.71304 0
M  V30 263 N 23.6496 -1.47581 0.552962 0
M  V30 264 C 24.8746 -2.07378 0.0300593 0
M  V30 265 C 25.2996 -1.40355 -1.25229 0
M  V30 266 O 24.6576 -0.477099 -1.7491 0
M  V30 267 C 24.7056 -3.60274 -0.153231 0
M  V30 268 O 23.8096 -3.94041 -1.21678 0
M  V30 269 H 23.1506 -0.662158 0.0494182 0
M  V30 270 H 25.6806 -1.89662 0.767434 0
M  V30 271 H 25.6906 -4.0633 -0.368761 0
M  V30 272 H 24.3656 -4.08455 0.783397 0
M  V30 273 H 22.9426 -3.59735 -0.982079 0
M  V30 274 N 25.1277 -0.289203 -1.54924 0
M  V30 275 C 26.0577 0.58549 -2.2604 0
M  V30 276 C 27.0387 1.14753 -1.25562 0
M  V30 277 O 28.2237 1.17906 -1.54311 0
M  V30 278 C 25.3537 1.76305 -2.99222 0
M  V30 279 C 24.3077 1.33191 -4.06748 0
M  V30 280 C 23.6337 2.5937 -4.6758 0
M  V30 281 C 24.9337 0.471775 -5.20165 0
M  V30 282 H 26.6277 -0.00763532 -2.99399 0
M  V30 283 H 24.1737 -0.00511229 -1.43999 0
M  V30 284 H 26.1267 2.38097 -3.47689 0
M  V30 285 H 24.8507 2.38223 -2.23422 0
M  V30 286 H 23.5097 0.737121 -3.59113 0
M  V30 287 H 23.1577 3.19576 -3.88433 0
M  V30 288 H 22.8577 2.31228 -5.40192 0
M  V30 289 H 24.3817 3.21985 -5.18804 0
M  V30 290 H 25.7957 0.995056 -5.64599 0
M  V30 291 H 24.1927 0.284639 -5.99425 0
M  V30 292 H 25.2627 -0.506041 -4.82252 0
M  V30 293 N 26.6058 1.57591 -0.0167156 0
M  V30 294 C 27.8458 1.93145 0.668902 0
M  V30 295 C 28.2098 0.892406 1.7 0
M  V30 296 O 29.4108 1.13373 2.43721 0
M  V30 297 C 27.6818 3.33678 1.28039 0
M  V30 298 S 29.2408 3.91142 1.9888 0
M  V30 299 H 26.0588 0.67593 0.220545 0
M  V30 300 H 28.6608 1.95347 -0.0774105 0
M  V30 301 H 27.3648 4.07126 0.517339 0
M  V30 302 H 26.8958 3.3489 2.06427 0
M  V30 303 H 28.9108 3.73571 3.26587 0
M  V30 304 N 28.0839 -0.256276 1.55502 0
M  V30 305 C 29.3299 -0.987079 1.77157 0
M  V30 306 C 29.6629 -1.85327 0.580315 0
M  V30 307 O 28.9379 -1.89874 -0.421686 0
M  V30 308 C 29.2209 -1.85553 3.08613 0
M  V30 309 C 29.0739 -1.01816 4.38125 0
M  V30 310 C 30.3929 -2.8397 3.36228 0
M  V30 311 H 27.5119 -0.357428 0.644526 0
M  V30 312 H 30.1539 -0.258239 1.88237 0
M  V30 313 H 28.3039 -2.47695 2.99298 0
M  V30 314 H 29.9759 -0.416159 4.59419 0
M  V30 315 H 28.2189 -0.322178 4.32602 0
M  V30 316 H 28.8899 -1.65939 5.26468 0
M  V30 317 H 31.3659 -2.31964 3.45445 0
M  V30 318 H 30.2419 -3.41864 4.29442 0
M  V30 319 H 30.5029 -3.59955 2.56681 0
M  V30 320 N 29.562 -1.4872 -0.521534 0
M  V30 321 C 30.839 -1.4766 -1.2828 0
M  V30 322 C 31.219 -0.19292 -2.10217 0
M  V30 323 O 30.567 0.825193 -2.13079 0
M  V30 324 C 30.777 -2.74358 -2.15705 0
M  V30 325 C 32.125 -3.23028 -2.75569 0
M  V30 326 O 33.149 -2.75333 -2.25987 0
M  V30 327 O 32.008 -4.0604 -3.65778 0
M  V30 328 H 29.102 -0.590085 -0.579421 0
M  V30 329 H 31.648 -1.60963 -0.537492 0
M  V30 330 H 30.42 -3.59292 -1.54999 0
M  V30 331 H 30.043 -2.63816 -2.97467 0
M  V30 332 N 31.0401 0.771051 -1.3745 0
M  V30 333 C 32.0031 1.86598 -1.33093 0
M  V30 334 C 33.0031 1.59076 -0.234845 0
M  V30 335 O 34.1931 1.67145 -0.490732 0
M  V30 336 C 31.3251 3.23747 -1.06773 0
M  V30 337 H 32.5181 1.91873 -2.30488 0
M  V30 338 H 30.0711 0.970876 -1.2249 0
M  V30 339 H 30.8061 3.24148 -0.099129 0
M  V30 340 H 30.5911 3.45115 -1.86112 0
M  V30 341 H 32.0811 4.03824 -1.06377 0
M  V30 342 N 32.5182 1.22032 0.997298 0
M  V30 343 C 33.4812 0.987909 2.06816 0
M  V30 344 C 34.4812 -0.0440084 1.6074 0
M  V30 345 O 35.6712 0.194053 1.73116 0
M  V30 346 C 32.8032 0.49132 3.37341 0
M  V30 347 H 33.9962 1.93803 2.28868 0
M  V30 348 H 31.5492 1.03838 1.16822 0
M  V30 349 H 32.2842 -0.463364 3.20973 0
M  V30 350 H 32.0692 1.23575 3.72118 0
M  V30 351 H 33.5592 0.348824 4.16141 0
M  V30 352 N 33.9963 -1.19345 1.0293 0
M  V30 353 C 35.2423 -1.89318 0.727083 0
M  V30 354 C 35.5753 -1.79446 -0.742483 0
M  V30 355 O 34.8503 -1.1871 -1.54072 0
M  V30 356 C 35.1333 -3.40238 1.17942 0
M  V30 357 C 34.9863 -3.58979 2.71024 0
M  V30 358 C 36.3053 -4.33479 0.760548 0
M  V30 359 H 33.4243 -0.687475 0.265606 0
M  V30 360 H 36.0663 -1.40477 1.2793 0
M  V30 361 H 34.2163 -3.81964 0.709608 0
M  V30 362 H 35.8883 -3.26421 3.25955 0
M  V30 363 H 34.1313 -3.02018 3.11396 0
M  V30 364 H 34.8023 -4.64823 2.9773 0
M  V30 365 H 37.2783 -3.99469 1.16464 0
M  V30 366 H 36.1543 -5.37664 1.10493 0
M  V30 367 H 36.4153 -4.40813 -0.337063 0
M  V30 368 N 35.4744 -0.807222 -1.35358 0
M  V30 369 C 36.4074 -0.163572 -2.27613 0
M  V30 370 C 37.3854 0.670817 -1.48118 0
M  V30 371 O 38.5694 0.63796 -1.77376 0
M  V30 372 C 35.6964 0.773015 -3.29761 0
M  V30 373 C 34.7424 0.0181653 -4.26496 0
M  V30 374 S 35.5754 -1.31831 -5.19019 0
M  V30 375 C 36.7314 -0.38619 -6.24707 0
M  V30 376 H 36.9644 -0.945757 -2.81856 0
M  V30 377 H 34.4974 -0.602315 -1.42167 0
M  V30 378 H 36.4554 1.30788 -3.89108 0
M  V30 379 H 35.1164 1.52859 -2.74396 0
M  V30 380 H 34.3094 0.729534 -4.98692 0
M  V30 381 H 33.9114 -0.446761 -3.71322 0
M  V30 382 H 36.2034 0.428295 -6.76145 0
M  V30 383 H 37.1464 -1.07736 -6.99856 0
M  V30 384 H 37.5544 0.018398 -5.64497 0
M  V30 385 N 36.9525 1.47285 -0.560781 0
M  V30 386 C 38.1985 2.03347 -0.0463654 0
M  V30 387 C 38.5535 1.42702 1.2905 0
M  V30 388 O 37.8465 0.574619 1.8278 0
M  V30 389 C 38.0405 3.57258 0.100784 0
M  V30 390 C 37.8695 4.32827 -1.22027 0
M  V30 391 C 36.6395 4.72588 -1.78854 0
M  V30 392 C 38.8375 4.67739 -2.13834 0
M  V30 393 N 36.8195 5.32816 -3.04927 0
M  V30 394 C 38.1905 5.28307 -3.24487 0
M  V30 395 C 40.2455 4.49667 -2.13784 0
M  V30 396 C 38.9485 5.72711 -4.35194 0
M  V30 397 C 40.9745 4.95073 -3.23506 0
M  V30 398 C 40.3365 5.55693 -4.32879 0
M  V30 399 H 36.4355 0.779755 -0.0592166 0
M  V30 400 H 39.0195 1.79723 -0.748857 0
M  V30 401 H 37.1905 3.80642 0.772404 0
M  V30 402 H 38.9225 3.9996 0.617589 0
M  V30 403 H 35.6775 4.54656 -1.32609 0
M  V30 404 H 36.1015 5.67471 -3.69197 0
M  V30 405 H 40.7435 4.02154 -1.30507 0
M  V30 406 H 38.4615 6.19214 -5.1923 0
M  V30 407 H 42.0475 4.82859 -3.24559 0
M  V30 408 H 40.9275 5.90188 -5.1638 0
M  V30 409 N 38.4306 0.297415 1.54768 0
M  V30 410 C 39.3786 -0.596051 2.24833 0
M  V30 411 C 40.3726 -1.13992 1.25308 0
M  V30 412 O 41.5786 -1.09098 1.4317 0
M  V30 413 H 37.9536 -0.210814 0.721846 0
M  V30 414 H 39.9246 0.0174667 2.98395 0
M  V30 415 C 38.6736 -1.75818 2.99972 0
M  V30 416 H 37.9966 -1.3489 3.76357 0
M  V30 417 H 39.4366 -2.35949 3.52284 0
M  V30 418 C 37.8956 -2.66014 2.06732 0
M  V30 419 O 38.4256 -3.67009 1.63302 0
M  V30 420 N 36.6316 -2.33669 1.72763 0
M  V30 421 H 36.1786 -1.51586 2.08277 0
M  V30 422 H 36.1366 -2.94285 1.10652 0
M  V30 423 N 39.9087 -1.5758 0.0250728 0
M  V30 424 C 41.3247 -1.56124 -0.331282 0
M  V30 425 C 41.5247 -1.03029 -1.73169 0
M  V30 426 O 40.5807 -0.675215 -2.43305 0
M  V30 427 C 41.8937 -3.00139 -0.183584 0
M  V30 428 C 43.4417 -3.11946 -0.256654 0
M  V30 429 C 43.9167 -4.57793 -0.137792 0
M  V30 430 N 45.4077 -4.6279 -0.194904 0
M  V30 431 C 46.1427 -5.7326 -0.126655 0
M  V30 432 N 45.6387 -6.928 -0.00755288 0
M  V30 433 N 47.4317 -5.61811 -0.180348 0
M  V30 434 H 39.5827 -1.90424 0.94087 0
M  V30 435 H 41.8457 -0.875761 0.362968 0
M  V30 436 H 41.5517 -3.4292 0.780927 0
M  V30 437 H 41.4257 -3.64899 -0.955448 0
M  V30 438 H 43.8127 -2.69079 -1.21162 0
M  V30 439 H 43.8937 -2.49915 0.545517 0
M  V30 440 H 43.5377 -5.01339 0.813739 0
M  V30 441 H 43.4677 -5.17798 -0.958775 0
M  V30 442 H 45.9587 -3.76807 -0.287267 0
M  V30 443 H 46.2717 -7.72791 0.0379428 0
M  V30 444 H 44.6167 -6.94995 0.0271731 0
M  V30 445 H 47.8077 -4.6731 -0.271767 0
M  V30 446 H 47.9807 -6.47882 -0.123697 0
M  V30 447 N 41.3868 0.248026 -1.55636 0
M  V30 448 C 42.6638 0.998988 -1.68165 0
M  V30 449 C 43.0438 2.03409 -0.564621 0
M  V30 450 O 42.3918 2.24378 0.432076 0
M  V30 451 C 42.6018 1.63334 -3.0842 0
M  V30 452 C 43.9498 2.13562 -3.66983 0
M  V30 453 O 44.9738 1.73277 -3.11213 0
M  V30 454 O 43.8328 2.87526 -4.64749 0
M  V30 455 H 40.9268 0.464933 -0.683935 0
M  V30 456 H 43.4728 0.241902 -1.67967 0
M  V30 457 H 42.2448 0.884583 -3.8117 0
M  V30 458 H 41.8678 2.45666 -3.12624 0
M  V30 459 N 42.8649 1.48995 0.513639 0
M  V30 460 C 44.0929 1.61531 1.29288 0
M  V30 461 C 44.5079 0.281801 1.86685 0
M  V30 462 O 43.8649 -0.731111 1.67215 0
M  V30 463 C 43.9159 2.67449 2.43215 0
M  V30 464 O 43.6369 3.95626 1.88179 0
M  V30 465 C 45.1379 2.90575 3.34785 0
M  V30 466 H 42.3579 0.544165 0.392588 0
M  V30 467 H 44.9019 1.9494 0.617956 0
M  V30 468 H 43.0569 2.36853 3.0656 0
M  V30 469 H 43.4709 4.53868 2.62876 0
M  V30 470 H 44.9449 3.68449 4.11035 0
M  V30 471 H 45.4219 2.00011 3.91015 0
M  V30 472 H 46.0279 3.22538 2.77218 0
M  V30 473 N 44.343 -0.763751 1.37857 0
M  V30 474 C 45.568 -1.55805 1.36893 0
M  V30 475 C 45.993 -1.88054 -0.0416135 0
M  V30 476 O 45.351 -1.49825 -1.02089 0
M  V30 477 C 45.399 -2.84012 2.22192 0
M  V30 478 O 44.503 -3.78732 1.63204 0
M  V30 479 H 43.844 -0.471638 0.46739 0
M  V30 480 H 46.374 -0.944657 1.81487 0
M  V30 481 H 46.384 -3.33037 2.35691 0
M  V30 482 H 45.059 -2.59869 3.24716 0
M  V30 483 H 43.636 -3.37402 1.58791 0
M  V30 484 N 45.8211 -1.22559 -0.990812 0
M  V30 485 C 47.0461 -1.07862 -1.77145 0
M  V30 486 C 47.4711 0.366447 -1.84496 0
M  V30 487 O 46.8291 1.26478 -1.29896 0
M  V30 488 C 46.8771 -1.69686 -3.18181 0
M  V30 489 O 45.9811 -0.951946 -4.01263 0
M  V30 490 H 45.3221 -0.378712 -0.545411 0
M  V30 491 H 47.8521 -1.62399 -1.2445 0
M  V30 492 H 47.8621 -1.74496 -3.68802 0
M  V30 493 H 46.5371 -2.74841 -3.12146 0
M  V30 494 H 45.1141 -0.980011 -3.59792 0
M  V30 495 N 47.2992 1.18797 -1.03562 0
M  V30 496 C 48.5272 1.92599 -0.755869 0
M  V30 497 C 48.9422 1.75886 0.686271 0
M  V30 498 O 48.2992 1.08517 1.46732 0
M  V30 499 C 48.3502 3.44159 -1.10619 0
M  V30 500 O 48.0712 3.60341 -2.4917 0
M  V30 501 C 49.5722 4.3507 -0.850214 0
M  V30 502 H 46.7922 0.611587 -0.276048 0
M  V30 503 H 49.3362 1.50742 -1.38192 0
M  V30 504 H 47.4912 3.83823 -0.525194 0
M  V30 505 H 47.9052 4.54128 -2.62427 0
M  V30 506 H 49.3792 5.39989 -1.14523 0
M  V30 507 H 49.8562 4.38673 0.215176 0
M  V30 508 H 50.4622 4.01097 -1.41426 0
M  V30 509 N 48.7773 0.814389 1.34928 0
M  V30 510 C 50.0543 0.321363 1.92942 0
M  V30 511 C 50.4343 -1.19014 1.74353 0
M  V30 512 O 49.7823 -1.99328 1.11716 0
M  V30 513 C 49.9923 0.741323 3.41036 0
M  V30 514 C 51.3403 0.735266 4.18185 0
M  V30 515 O 52.3643 0.68336 3.49584 0
M  V30 516 O 51.2233 0.800703 5.40602 0
M  V30 517 H 48.3173 0.0858893 0.822528 0
M  V30 518 H 50.8633 0.898609 1.43955 0
M  V30 519 H 49.6353 1.78276 3.4833 0
M  V30 520 H 49.2583 0.139307 3.97356 0
M  V30 521 N 50.2554 -1.46986 0.568584 0
M  V30 522 C 51.1854 -2.32946 -0.160753 0
M  V30 523 C 52.1664 -1.44487 -0.897631 0
M  V30 524 O 53.3514 -1.73327 -0.875867 0
M  V30 525 C 50.4814 -3.26494 -1.18403 0
M  V30 526 C 49.4354 -4.24282 -0.562895 0
M  V30 527 C 48.7614 -5.07236 -1.69163 0
M  V30 528 C 50.0614 -5.19989 0.490761 0
M  V30 529 H 51.7554 -2.94175 0.556916 0
M  V30 530 H 49.3014 -1.4146 0.26927 0
M  V30 531 H 51.2544 -3.85477 -1.70251 0
M  V30 532 H 49.9784 -2.63343 -1.93179 0
M  V30 533 H 48.6374 -3.66541 -0.0656164 0
M  V30 534 H 48.2854 -4.4048 -2.42871 0
M  V30 535 H 47.9854 -5.7345 -1.28174 0
M  V30 536 H 49.5094 -5.6908 -2.21314 0
M  V30 537 H 50.9234 -5.73271 0.0579047 0
M  V30 538 H 49.3204 -5.94469 0.820165 0
M  V30 539 H 50.3904 -4.64777 1.3824 0
M  V30 540 N 51.7335 -0.305618 -1.54608 0
M  V30 541 C 52.6435 0.57778 -2.27374 0
M  V30 542 C 53.6595 1.14451 -1.31061 0
M  V30 543 O 54.8355 1.16831 -1.6405 0
M  V30 544 C 51.9005 1.73123 -3.00382 0
M  V30 545 C 50.9615 1.19812 -4.12242 0
M  V30 546 C 50.1945 2.2966 -4.81759 0
M  V30 547 O 50.4175 3.49651 -4.50666 0
M  V30 548 O 49.3515 1.96091 -5.69062 0
M  V30 549 H 53.1775 -0.012624 -3.03697 0
M  V30 550 H 50.7625 -0.0719184 -1.49227 0
M  V30 551 H 52.6445 2.40315 -3.4616 0
M  V30 552 H 51.3195 2.30815 -2.26949 0
M  V30 553 H 50.2265 0.491798 -3.70853 0
M  V30 554 H 51.5595 0.666566 -4.87666 0
M  V30 555 N 53.2116 1.57565 -0.0334293 0
M  V30 556 C 54.1746 2.09393 0.932048 0
M  V30 557 C 55.1746 1.00986 1.25134 0
M  V30 558 O 56.3646 1.27129 1.19096 0
M  V30 559 C 53.4966 2.56338 2.2473 0
M  V30 560 H 54.6896 2.95984 0.483085 0
M  V30 561 H 52.2426 1.54819 0.21468 0
M  V30 562 H 52.9776 1.7309 2.74245 0
M  V30 563 H 52.7626 3.35542 2.02865 0
M  V30 564 H 54.2526 2.96646 2.93923 0
M  V30 565 N 54.6897 -0.239769 1.55765 0
M  V30 566 C 56.1057 -0.588624 1.48349 0
M  V30 567 C 56.3057 -1.88005 0.72502 0
M  V30 568 O 55.3617 -2.51186 0.257269 0
M  V30 569 C 56.6747 -0.68474 2.928 0
M  V30 570 C 58.2227 -0.77659 3.03213 0
M  V30 571 C 58.6977 -0.904207 4.48986 0
M  V30 572 N 60.1887 -0.968896 4.52953 0
M  V30 573 C 60.9237 -1.08703 5.63002 0
M  V30 574 N 60.4197 -1.17026 6.82845 0
M  V30 575 N 62.2127 -1.12074 5.50814 0
M  V30 576 H 54.3637 0.607911 2.03515 0
M  V30 577 H 56.6267 0.21083 0.924259 0
M  V30 578 H 56.3327 0.194284 3.51163 0
M  V30 579 H 56.2067 -1.55435 3.43686 0
M  V30 580 H 58.5937 -1.64606 2.44926 0
M  V30 581 H 58.6747 0.118315 2.55526 0
M  V30 582 H 58.3187 -0.0392633 5.07885 0
M  V30 583 H 58.2487 -1.81426 4.9436 0
M  V30 584 H 60.7397 -0.915633 3.6664 0
M  V30 585 H 61.0527 -1.25966 7.62465 0
M  V30 586 H 59.3977 -1.13971 6.85591 0
M  V30 587 H 62.5887 -1.05226 4.5612 0
M  V30 588 H 62.7617 -1.20936 6.36615 0
M  V30 589 N 56.1678 -1.49265 -0.50573 0
M  V30 590 C 57.1308 -1.65075 -1.59006 0
M  V30 591 C 58.1308 -0.522768 -1.52065 0
M  V30 592 O 59.3208 -0.789117 -1.55302 0
M  V30 593 C 56.4528 -1.64369 -2.98656 0
M  V30 594 H 57.6458 -2.61784 -1.46319 0
M  V30 595 H 55.1988 -1.38226 -0.729616 0
M  V30 596 H 55.9338 -0.692272 -3.16825 0
M  V30 597 H 55.7188 -2.46282 -3.05103 0
M  V30 598 H 57.2088 -1.78674 -3.77446 0
M  V30 599 N 57.6459 0.756429 -1.3826 0
M  V30 600 C 58.8709 1.55077 -1.37717 0
M  V30 601 C 59.2959 1.88073 0.03164 0
M  V30 602 O 58.6539 1.50364 1.01293 0
M  V30 603 C 58.7019 2.8283 -2.23695 0
M  V30 604 O 57.8059 3.77862 -1.6521 0
M  V30 605 H 57.1469 0.469152 -0.469885 0
M  V30 606 H 59.6769 0.935019 -1.81985 0
M  V30 607 H 59.6869 3.31783 -2.37453 0
M  V30 608 H 58.3619 2.58144 -3.2609 0
M  V30 609 H 56.9389 3.36555 -1.60578 0
M  V30 610 N 59.124 1.23083 0.984299 0
M  V30 611 C 60.349 1.088 1.76571 0
M  V30 612 C 60.774 -0.356657 1.84688 0
M  V30 613 O 60.132 -1.25788 1.30565 0
M  V30 614 C 60.18 1.71371 3.17277 0
M  V30 615 O 59.284 0.973213 4.00752 0
M  V30 616 H 58.625 0.381599 0.543395 0
M  V30 617 H 61.155 1.63057 1.23587 0
M  V30 618 H 61.165 1.76449 3.67872 0
M  V30 619 H 59.84 2.76493 3.10684 0
M  V30 620 H 58.417 0.999078 3.59267 0
M  V30 621 N 60.6021 -1.18246 1.0419 0
M  V30 622 C 61.8501 -1.87886 0.744543 0
M  V30 623 C 62.1711 -1.8082 -0.730006 0
M  V30 624 O 61.4411 -1.22736 -1.52685 0
M  V30 625 H 60.0211 -0.695556 0.272417 0
M  V30 626 H 62.6831 -1.43494 1.31892 0
M  V30 627 H 61.7791 -2.9389 1.05049 0
M  V30 628 N 62.0802 -0.821533 -1.34494 0
M  V30 629 C 63.3102 -0.421272 -2.02259 0
M  V30 630 C 63.7182 0.977047 -1.6202 0
M  V30 631 O 63.0612 1.64348 -0.820703 0
M  V30 632 C 63.1232 -0.44231 -3.56769 0
M  V30 633 C 62.7872 -1.79372 -4.20327 0
M  V30 634 C 63.7842 -2.75435 -4.40944 0
M  V30 635 C 61.4692 -2.08182 -4.57127 0
M  V30 636 C 63.4632 -3.98482 -4.97484 0
M  V30 637 C 61.1502 -3.31489 -5.13379 0
M  V30 638 C 62.1482 -4.26457 -5.33501 0
M  V30 639 O 61.8362 -5.47585 -5.88562 0
M  V30 640 H 61.5682 -0.167473 -0.654927 0
M  V30 641 H 64.1222 -1.11073 -1.72777 0
M  V30 642 H 62.3522 0.303836 -3.85505 0
M  V30 643 H 64.0412 -0.0622925 -4.05852 0
M  V30 644 H 64.8072 -2.54473 -4.12878 0
M  V30 645 H 60.6862 -1.35066 -4.4077 0
M  V30 646 H 64.2302 -4.72618 -5.13106 0
M  V30 647 H 60.1272 -3.52316 -5.40873 0
M  V30 648 H 60.8952 -5.49086 -6.06998 0
M  V30 649 N 63.5583 1.46682 -0.576371 0
M  V30 650 C 64.9743 1.57822 -0.237562 0
M  V30 651 C 65.1743 1.57237 1.26011 0
M  V30 652 O 64.2303 1.48596 2.04146 0
M  V30 653 C 65.5433 2.87499 -0.881168 0
M  V30 654 C 67.0913 3.01119 -0.85417 0
M  V30 655 C 67.5663 4.33524 -1.4772 0
M  V30 656 N 69.0573 4.40207 -1.44125 0
M  V30 657 C 69.7923 5.4126 -1.89276 0
M  V30 658 N 69.2883 6.49021 -2.42371 0
M  V30 659 N 71.0813 5.32422 -1.80231 0
M  V30 660 H 63.2323 1.45306 -1.54919 0
M  V30 661 H 65.4953 0.692733 -0.647167 0
M  V30 662 H 65.2013 2.9372 -1.93447 0
M  V30 663 H 65.0753 3.75224 -0.385592 0
M  V30 664 H 67.4623 2.94485 0.190491 0
M  V30 665 H 67.5433 2.14887 -1.3877 0
M  V30 666 H 67.1873 4.40916 -2.52103 0
M  V30 667 H 67.1173 5.1852 -0.918947 0
M  V30 668 H 69.6083 3.62931 -1.05307 0
M  V30 669 H 69.9213 7.2233 -2.74698 0
M  V30 670 H 68.2663 6.49858 -2.46393 0
M  V30 671 H 71.4573 4.47137 -1.38514 0
M  V30 672 H 71.6303 6.11034 -2.15735 0
M  V30 673 N 65.0364 0.313813 1.54444 0
M  V30 674 C 66.2614 -0.296681 2.05267 0
M  V30 675 C 66.6864 -1.45757 1.18897 0
M  V30 676 O 66.0444 -1.80239 0.195886 0
M  V30 677 C 66.0924 -0.71831 3.53373 0
M  V30 678 O 65.1964 -1.82175 3.69981 0
M  V30 679 H 64.5374 -0.0554061 0.661684 0
M  V30 680 H 67.0674 0.459387 1.99376 0
M  V30 681 H 67.0774 -1.00364 3.95463 0
M  V30 682 H 65.7524 0.130821 4.15694 0
M  V30 683 H 64.3294 -1.53598 3.39797 0
M  V30 684 N 66.5145 -1.57545 0.0417849 0
M  V30 685 C 67.7605 -1.92601 -0.635021 0
M  V30 686 C 68.0935 -0.919627 -1.71045 0
M  V30 687 O 67.3685 0.0557892 -1.9442 0
M  V30 688 C 67.6515 -3.38085 -1.23979 0
M  V30 689 C 67.5045 -4.49467 -0.173057 0
M  V30 690 C 68.8235 -3.83776 -2.15416 0
M  V30 691 H 65.9425 -0.700397 -0.229374 0
M  V30 692 H 68.5845 -1.89728 0.101633 0
M  V30 693 H 66.7345 -3.40664 -1.86762 0
M  V30 694 H 68.4065 -4.59018 0.458312 0
M  V30 695 H 66.6495 -4.30909 0.499996 0
M  V30 696 H 67.3205 -5.48323 -0.636054 0
M  V30 697 H 69.7965 -3.83013 -1.62605 0
M  V30 698 H 68.6725 -4.8624 -2.54679 0
M  V30 699 H 68.9335 -3.19998 -3.05047 0
M  V30 700 N 67.9926 0.231505 -1.5589 0
M  V30 701 C 69.2386 0.95877 -1.78705 0
M  V30 702 C 69.5716 1.8438 -0.609725 0
M  V30 703 O 68.8466 1.90521 0.391426 0
M  V30 704 C 69.1296 1.8062 -3.11526 0
M  V30 705 C 68.9826 0.948328 -4.39689 0
M  V30 706 C 70.3016 2.78585 -3.40703 0
M  V30 707 H 67.4206 0.347129 -0.650131 0
M  V30 708 H 70.0626 0.228259 -1.88624 0
M  V30 709 H 68.2126 2.42902 -3.03201 0
M  V30 710 H 69.8846 0.343016 -4.60023 0
M  V30 711 H 68.1276 0.253314 -4.3306 0
M  V30 712 H 68.7986 1.57543 -5.29041 0
M  V30 713 H 71.2746 2.26439 -3.49091 0
M  V30 714 H 70.1506 3.34988 -4.34826 0
M  V30 715 H 70.4116 3.55825 -2.62375 0
M  V30 716 N 69.4707 1.49531 0.497807 0
M  V30 717 C 70.7007 1.62657 1.27382 0
M  V30 718 C 71.1087 0.298488 1.86831 0
M  V30 719 O 70.4517 -0.72647 1.68725 0
M  V30 720 C 70.5137 2.6393 2.44093 0
M  V30 721 C 70.1777 4.08195 2.05489 0
M  V30 722 C 71.1747 4.949 1.59279 0
M  V30 723 C 68.8597 4.53948 2.15026 0
M  V30 724 C 70.8537 6.25397 1.23113 0
M  V30 725 C 68.5407 5.84458 1.78473 0
M  V30 726 C 69.5387 6.70006 1.32591 0
M  V30 727 O 69.2267 7.98083 0.965327 0
M  V30 728 H 68.9587 0.550429 0.392434 0
M  V30 729 H 71.5127 1.96325 0.603801 0
M  V30 730 H 69.7427 2.25449 3.14181 0
M  V30 731 H 71.4317 2.66552 3.06113 0
M  V30 732 H 72.1977 4.60779 1.51354 0
M  V30 733 H 68.0767 3.87525 2.4969 0
M  V30 734 H 71.6207 6.92125 0.872299 0
M  V30 735 H 67.5177 6.18107 1.86048 0
M  V30 736 H 68.2857 8.11122 1.09652 0
M  V30 737 N 70.9488 -0.749086 1.3866 0
M  V30 738 C 72.1958 -1.50833 1.35114 0
M  V30 739 C 72.5238 -1.94415 -0.0574049 0
M  V30 740 O 71.7788 -1.66065 -1.03541 0
M  V30 741 C 72.0778 -2.7712 2.25697 0
M  V30 742 C 71.7438 -2.52477 3.73585 0
M  V30 743 C 70.4058 -2.45466 4.13884 0
M  V30 744 C 72.7578 -2.31066 4.67181 0
M  V30 745 C 70.0858 -2.15064 5.45861 0
M  V30 746 C 72.4378 -2.02183 5.9942 0
M  V30 747 C 71.1018 -1.93631 6.38798 0
M  V30 748 H 70.3718 -0.551936 0.494416 0
M  V30 749 H 73.0188 -0.860979 1.71054 0
M  V30 750 H 71.3238 -3.46528 1.82827 0
M  V30 751 H 73.0208 -3.35096 2.20254 0
M  V30 752 H 69.6108 -2.58807 3.41638 0
M  V30 753 H 73.7948 -2.35459 4.3689 0
M  V30 754 H 69.0508 -2.06954 5.75308 0
M  V30 755 H 73.2248 -1.8462 6.71482 0
M  V30 756 H 70.8518 -1.69839 7.40985 0
M  V30 757 N 72.4269 -1.23603 -0.977757 0
M  V30 758 C 73.6729 -1.07129 -1.72195 0
M  V30 759 C 74.0059 0.390501 -1.90233 0
M  V30 760 O 73.2809 1.28902 -1.45653 0
M  V30 761 C 73.5639 -1.80031 -3.11867 0
M  V30 762 C 73.4169 -3.33899 -3.01383 0
M  V30 763 C 74.7359 -1.56492 -4.11337 0
M  V30 764 H 71.8549 -0.390571 -0.624999 0
M  V30 765 H 74.4969 -1.52142 -1.13811 0
M  V30 766 H 72.6469 -1.41768 -3.6171 0
M  V30 767 H 74.3189 -3.81699 -2.59043 0
M  V30 768 H 72.5619 -3.62796 -2.37827 0
M  V30 769 H 73.2329 -3.801 -4.00285 0
M  V30 770 H 75.7089 -1.89757 -3.70313 0
M  V30 771 H 74.5849 -2.09973 -5.07151 0
M  V30 772 H 74.8459 -0.500874 -4.39254 0
M  V30 773 N 73.905 1.17692 -1.04816 0
M  V30 774 C 74.853 2.23632 -0.63966 0
M  V30 775 C 75.847 1.6601 0.337219 0
M  V30 776 O 77.053 1.78844 0.203693 0
M  V30 777 H 73.428 0.727949 -0.188665 0
M  V30 778 H 75.399 2.55387 -1.54337 0
M  V30 779 C 74.148 3.4769 -0.0264051 0
M  V30 780 H 73.471 3.92331 -0.769164 0
M  V30 781 H 74.911 4.23418 0.222098 0
M  V30 782 C 73.37 3.13807 1.22584 0
M  V30 783 O 73.9 3.28236 2.31569 0
M  V30 784 N 72.106 2.68065 1.12202 0
M  V30 785 H 71.653 2.56525 0.235133 0
M  V30 786 H 71.611 2.45767 1.96076 0
M  V30 787 N 75.3831 0.828654 1.34056 0
M  V30 788 C 76.6291 0.429279 1.98818 0
M  V30 789 C 76.9841 -0.998011 1.64492 0
M  V30 790 O 76.2771 -1.68652 0.909228 0
M  V30 791 C 76.4711 0.575226 3.52741 0
M  V30 792 C 76.3001 2.01515 4.02022 0
M  V30 793 C 75.0701 2.64825 4.30344 0
M  V30 794 C 77.2681 2.98261 4.18981 0
M  V30 795 N 75.2501 3.99998 4.65698 0
M  V30 796 C 76.6211 4.18356 4.57578 0
M  V30 797 C 78.6761 2.94802 4.01243 0
M  V30 798 C 77.3791 5.35454 4.80293 0
M  V30 799 C 79.4051 4.11121 4.25128 0
M  V30 800 C 78.7671 5.29969 4.64018 0
M  V30 801 H 74.8661 0.205304 0.754569 0
M  V30 802 H 77.4501 1.07457 1.62361 0
M  V30 803 H 75.6211 -0.0401962 3.88379 0
M  V30 804 H 77.3531 0.148292 4.04428 0
M  V30 805 H 74.1081 2.16027 4.21461 0
M  V30 806 H 74.5321 4.69653 4.87601 0
M  V30 807 H 79.1741 2.04054 3.70299 0
M  V30 808 H 76.8921 6.26755 5.10102 0
M  V30 809 H 80.4781 4.0985 4.12934 0
M  V30 810 H 79.3581 6.18479 4.82134 0
M  V30 811 N 76.8612 -1.46375 0.584142 0
M  V30 812 C 77.8242 -2.28784 -0.138108 0
M  V30 813 C 78.8242 -1.38471 -0.817462 0
M  V30 814 O 80.0142 -1.60833 -0.669199 0
M  V30 815 C 77.1462 -3.18892 -1.20503 0
M  V30 816 H 78.3392 -2.94117 0.586127 0
M  V30 817 H 75.8922 -1.52509 0.342171 0
M  V30 818 H 76.6272 -2.58309 -1.96079 0
M  V30 819 H 76.4122 -3.85388 -0.722384 0
M  V30 820 H 77.9022 -3.80914 -1.71155 0
M  V30 821 N 78.3393 -0.321999 -1.54275 0
M  V30 822 C 79.5883 0.281931 -1.9972 0
M  V30 823 C 79.9013 1.53369 -1.21397 0
M  V30 824 O 81.1073 2.21352 -1.57211 0
M  V30 825 C 79.5633 0.5529 -3.55628 0
M  V30 826 C 79.1713 -0.681721 -4.42783 0
M  V30 827 C 80.9153 1.11687 -4.09544 0
M  V30 828 C 78.8223 -0.382742 -5.9016 0
M  V30 829 H 77.7523 0.109124 -0.746062 0
M  V30 830 H 80.4033 -0.43398 -1.78294 0
M  V30 831 H 78.7853 1.32896 -3.73035 0
M  V30 832 H 79.9593 -1.45723 -4.37151 0
M  V30 833 H 78.2743 -1.1658 -3.99748 0
M  V30 834 H 80.8713 1.35515 -5.17242 0
M  V30 835 H 81.2143 2.06575 -3.61431 0
M  V30 836 H 81.7473 0.402032 -3.95763 0
M  V30 837 H 78.4863 -1.30076 -6.42464 0
M  V30 838 H 78.0063 0.355094 -5.98748 0
M  V30 839 H 79.6853 0.00800157 -6.47 0
M  V30 840 N 79.8174 1.5752 -0.0501392 0
M  V30 841 C 81.0474 1.96678 0.632573 0
M  V30 842 C 81.4554 0.926298 1.64974 0
M  V30 843 O 80.7984 -0.09802 1.83438 0
M  V30 844 C 80.8604 3.32068 1.37735 0
M  V30 845 C 80.5244 4.54076 0.516131 0
M  V30 846 C 81.5214 5.19445 -0.217357 0
M  V30 847 C 79.2064 5.00304 0.44736 0
M  V30 848 C 81.2004 6.29378 -1.00807 0
M  V30 849 C 78.8874 6.10114 -0.347038 0
M  V30 850 C 79.8854 6.74512 -1.07344 0
M  V30 851 O 79.5734 7.82211 -1.85477 0
M  V30 852 H 79.3054 0.652193 0.177821 0
M  V30 853 H 81.8594 2.05091 -0.112543 0
M  V30 854 H 80.0894 3.20206 2.16807 0
M  V30 855 H 81.7784 3.55981 1.95019 0
M  V30 856 H 82.5444 4.84689 -0.173688 0
M  V30 857 H 78.4234 4.49971 1.00235 0
M  V30 858 H 81.9674 6.79575 -1.57556 0
M  V30 859 H 77.8644 6.44307 -0.392349 0
M  V30 860 H 78.6324 7.98982 -1.77678 0
M  V30 861 N 81.2955 -0.223234 1.56011 0
M  V30 862 C 82.5435 -0.946003 1.78592 0
M  V30 863 C 82.8645 -1.84936 0.618349 0
M  V30 864 O 82.1345 -1.92473 -0.364833 0
M  V30 865 H 80.7145 -0.352298 0.658707 0
M  V30 866 H 83.3765 -0.235494 1.93472 0
M  V30 867 H 82.4725 -1.55381 2.70672 0
M  V30 868 N 82.7736 -1.49793 -0.48987 0
M  V30 869 C 84.1896 -1.36803 -0.822022 0
M  V30 870 C 84.3896 -0.409652 -1.97292 0
M  V30 871 O 83.4456 0.154614 -2.52026 0
M  V30 872 C 84.7586 -2.77768 -1.15175 0
M  V30 873 C 86.3066 -2.86549 -1.25931 0
M  V30 874 C 86.7816 -4.28306 -1.62228 0
M  V30 875 N 88.2726 -4.31169 -1.69256 0
M  V30 876 C 89.0076 -5.37832 -1.98807 0
M  V30 877 N 88.5036 -6.54726 -2.26507 0
M  V30 878 N 90.2966 -5.25258 -2.00152 0
M  V30 879 H 82.4476 -2.10691 0.268881 0
M  V30 880 H 84.7106 -0.946241 0.057728 0
M  V30 881 H 84.4166 -3.49648 -0.379335 0
M  V30 882 H 84.2906 -3.13836 -2.09253 0
M  V30 883 H 86.6776 -2.14899 -2.02243 0
M  V30 884 H 86.7586 -2.54049 -0.298776 0
M  V30 885 H 86.4026 -5.00486 -0.864622 0
M  V30 886 H 86.3326 -4.58279 -2.594 0
M  V30 887 H 88.8236 -3.4687 -1.49965 0
M  V30 888 H 89.1366 -7.31833 -2.48276 0
M  V30 889 H 87.4816 -6.57933 -2.23939 0
M  V30 890 H 90.6726 -4.32938 -1.77996 0
M  V30 891 H 90.8456 -6.08476 -2.22848 0
M  V30 892 N 84.2517 0.741722 -1.39055 0
M  V30 893 C 85.1997 1.87702 -1.3737 0
M  V30 894 C 86.1937 1.67427 -0.257812 0
M  V30 895 O 87.3997 1.7485 -0.427489 0
M  V30 896 H 83.7747 0.617757 -0.428812 0
M  V30 897 H 85.7457 1.86239 -2.33147 0
M  V30 898 C 84.4947 3.25315 -1.22741 0
M  V30 899 H 83.8177 3.41509 -2.07873 0
M  V30 900 H 85.2577 4.04964 -1.25618 0
M  V30 901 C 83.7167 3.36838 0.0647316 0
M  V30 902 O 84.2467 3.88073 1.03741 0
M  V30 903 N 82.4527 2.90329 0.125544 0
M  V30 904 H 81.9997 2.48823 -0.666682 0
M  V30 905 H 81.9577 2.98418 0.989639 0
M  V30 906 N 85.7298 1.2412 0.971189 0
M  V30 907 C 86.6798 0.997551 2.05019 0
M  V30 908 C 87.6638 -0.0597747 1.60789 0
M  V30 909 O 88.8558 0.153516 1.76333 0
M  V30 910 C 85.9848 0.600557 3.38006 0
M  V30 911 C 85.0708 1.69377 3.88809 0
M  V30 912 N 85.4618 2.92586 4.12586 0
M  V30 913 C 83.7598 1.57048 4.17435 0
M  V30 914 C 84.4608 3.63431 4.54195 0
M  V30 915 N 83.4368 2.90979 4.59165 0
M  V30 916 H 87.2388 1.93316 2.21374 0
M  V30 917 H 84.7528 1.14194 1.1547 0
M  V30 918 H 86.7498 0.40725 4.14906 0
M  V30 919 H 85.4098 -0.327903 3.2304 0
M  V30 920 H 86.4208 3.288 4.00139 0
M  V30 921 H 83.0978 0.709798 4.11422 0
M  V30 922 H 84.4878 4.69102 4.81033 0
M  V30 923 N 87.2079 -1.17134 1.05439 0
M  V30 924 C 88.1559 -2.23289 0.651511 0
M  V30 925 C 89.1499 -1.66186 -0.328411 0
M  V30 926 O 90.3559 -1.78949 -0.194206 0
M  V30 927 H 86.7309 -0.726938 0.192523 0
M  V30 928 H 88.7019 -2.54565 1.55689 0
M  V30 929 C 87.4509 -3.47671 0.0448436 0
M  V30 930 H 86.7739 -3.91918 0.78996 0
M  V30 931 H 88.2139 -4.2353 -0.19964 0
M  V30 932 C 86.6729 -3.14453 -1.20918 0
M  V30 933 O 87.2029 -3.29459 -2.29825 0
M  V30 934 N 85.4089 -2.68657 -1.10779 0
M  V30 935 H 84.9559 -2.56646 -0.221526 0
M  V30 936 H 84.9139 -2.46804 -1.9477 0
M  V30 937 N 88.686 -0.835752 -1.33615 0
M  V30 938 C 90.097 -0.487099 -1.80234 0
M  V30 939 C 90.448 0.993627 -1.69179 0
M  V30 940 O 89.573 1.77403 -1.23924 0
M  V30 941 C 90.168 -0.877385 -3.27242 0
M  V30 942 C 88.727 -0.580915 -3.7189 0
M  V30 943 C 87.874 -1.0874 -2.5509 0
M  V30 944 H 90.825 -1.02474 -1.2118 0
M  V30 945 H 90.846 -0.186195 -3.80044 0
M  V30 946 H 90.358 -1.95512 -3.35256 0
M  V30 947 H 88.459 0.486881 -3.69405 0
M  V30 948 H 88.572 -1.13396 -4.65487 0
M  V30 949 H 86.936 -0.508392 -2.49575 0
M  V30 950 H 87.719 -2.17184 -2.65868 0
M  V30 951 N 90.1641 1.46063 -0.591896 0
M  V30 952 C 91.0961 2.28539 0.174001 0
M  V30 953 C 92.1091 1.39047 0.846753 0
M  V30 954 O 93.2981 1.63564 0.714774 0
M  V30 955 C 90.3981 3.14347 1.26645 0
M  V30 956 C 89.5711 4.32021 0.683856 0
M  V30 957 C 88.6301 4.99157 1.66518 0
M  V30 958 O 87.6561 5.56458 1.19763 0
M  V30 959 N 88.8581 4.97005 2.99943 0
M  V30 960 H 91.6231 2.94911 -0.533633 0
M  V30 961 H 89.1841 1.56077 -0.430294 0
M  V30 962 H 91.1761 3.56125 1.92242 0
M  V30 963 H 89.7461 2.49988 1.87682 0
M  V30 964 H 88.9661 3.93915 -0.1498 0
M  V30 965 H 90.2541 5.08059 0.274567 0
M  V30 966 H 89.6521 4.51714 3.40545 0
M  V30 967 H 88.2091 5.42696 3.61004 0
M  V30 968 N 91.6422 0.330177 1.54103 0
M  V30 969 C 92.9192 -0.325007 1.92881 0
M  V30 970 C 93.2992 -1.6934 1.26045 0
M  V30 971 O 92.6472 -2.24855 0.406526 0
M  V30 972 C 92.8572 -0.410634 3.46576 0
M  V30 973 C 94.2052 -0.667801 4.19316 0
M  V30 974 O 95.2292 -0.49329 3.52768 0
M  V30 975 O 94.0882 -1.00491 5.37181 0
M  V30 976 H 91.1822 -0.186873 0.80561 0
M  V30 977 H 93.7282 0.380376 1.65382 0
M  V30 978 H 92.5002 0.550164 3.87413 0
M  V30 979 H 92.1232 -1.16333 3.802 0
M  V30 980 N 93.1203 -1.57491 0.0584922 0
M  V30 981 C 94.0503 -2.14988 -0.911178 0
M  V30 982 C 95.0313 -1.07343 -1.31952 0
M  V30 983 O 96.2163 -1.35318 -1.39294 0
M  V30 984 C 93.3463 -2.70078 -2.18347 0
M  V30 985 C 92.3003 -3.82771 -1.91495 0
M  V30 986 C 91.6263 -4.24408 -3.25241 0
M  V30 987 C 92.9263 -5.07592 -1.23075 0
M  V30 988 H 94.6203 -2.96263 -0.432246 0
M  V30 989 H 92.1663 -1.42512 -0.206469 0
M  V30 990 H 94.1193 -3.08943 -2.86587 0
M  V30 991 H 92.8433 -1.86005 -2.68458 0
M  V30 992 H 91.5023 -3.44389 -1.25664 0
M  V30 993 H 91.1503 -3.37275 -3.73168 0
M  V30 994 H 90.8503 -5.00366 -3.08071 0
M  V30 995 H 92.3743 -4.65879 -3.94701 0
M  V30 996 H 93.7883 -5.43857 -1.81362 0
M  V30 997 H 92.1853 -5.88741 -1.16207 0
M  V30 998 H 93.2553 -4.84454 -0.207847 0
M  V30 999 N 94.5984 0.214957 -1.56127 0
M  V30 1000 C 96.0094 0.781386 -1.69562 0
M  V30 1001 C 96.3604 1.84707 -0.66165 0
M  V30 1002 O 95.4854 2.156 0.185927 0
M  V30 1003 C 96.0804 1.42411 -3.07416 0
M  V30 1004 C 94.6394 1.93786 -3.22683 0
M  V30 1005 C 93.7864 0.800438 -2.65496 0
M  V30 1006 H 96.7374 -0.00980633 -1.58697 0
M  V30 1007 H 96.7584 2.29309 -3.0364 0
M  V30 1008 H 96.2704 0.64826 -3.82648 0
M  V30 1009 H 94.3714 2.74152 -2.52332 0
M  V30 1010 H 94.4844 2.1133 -4.29973 0
M  V30 1011 H 92.8484 1.2095 -2.2415 0
M  V30 1012 H 93.6314 0.0371471 -3.4328 0
M  V30 1013 N 96.0765 1.50051 0.48192 0
M  V30 1014 C 97.3225 1.60736 1.2366 0
M  V30 1015 C 97.6555 0.301786 1.91841 0
M  V30 1016 O 96.9305 -0.696025 1.8162 0
M  V30 1017 C 97.2135 2.78009 2.28874 0
M  V30 1018 C 97.0665 4.18416 1.65069 0
M  V30 1019 C 98.3855 2.90867 3.30279 0
M  V30 1020 H 95.5045 0.585031 0.448228 0
M  V30 1021 H 98.1465 1.82402 0.531946 0
M  V30 1022 H 96.2965 2.59667 2.88973 0
M  V30 1023 H 97.9685 4.48322 1.0865 0
M  V30 1024 H 96.2115 4.23177 0.954148 0
M  V30 1025 H 96.8825 4.96381 2.41474 0
M  V30 1026 H 99.3585 3.07623 2.80191 0
M  V30 1027 H 98.2345 3.74566 4.01238 0
M  V30 1028 H 98.4955 2.01021 3.93755 0
M  V30 1029 N 97.5546 -0.734337 1.39446 0
M  V30 1030 C 98.4646 -1.87879 1.40495 0
M  V30 1031 C 99.4806 -1.714 0.299672 0
M  V30 1032 O 100.657 -1.93991 0.541249 0
M  V30 1033 C 97.7216 -3.23477 1.24754 0
M  V30 1034 C 96.7826 -3.52344 2.45259 0
M  V30 1035 C 96.0156 -4.81473 2.30259 0
M  V30 1036 O 96.2386 -5.55237 1.30643 0
M  V30 1037 O 95.1726 -5.10254 3.19256 0
M  V30 1038 H 98.9986 -1.89949 2.36966 0
M  V30 1039 H 96.5836 -0.882243 1.20569 0
M  V30 1040 H 98.4656 -4.04509 1.18111 0
M  V30 1041 H 97.1406 -3.22176 0.313781 0
M  V30 1042 H 96.0476 -2.71396 2.57478 0
M  V30 1043 H 97.3806 -3.58426 3.37331 0
M  V30 1044 N 99.0327 -1.24633 -0.964593 0
M  V30 1045 C 100.449 -1.01239 -1.2338 0
M  V30 1046 C 100.649 0.2769 -1.99588 0
M  V30 1047 O 99.7047 0.992241 -2.32187 0
M  V30 1048 C 101.018 -2.22937 -2.01791 0
M  V30 1049 C 102.566 -2.27594 -2.14872 0
M  V30 1050 C 103.041 -3.48921 -2.96678 0
M  V30 1051 N 104.532 -3.49257 -3.04259 0
M  V30 1052 C 105.267 -4.39795 -3.67924 0
M  V30 1053 N 104.763 -5.40591 -4.33281 0
M  V30 1054 N 106.556 -4.275 -3.64966 0
M  V30 1055 H 98.7067 -2.0748 -0.454502 0
M  V30 1056 H 100.97 -0.910647 -0.26349 0
M  V30 1057 H 100.676 -3.16587 -1.53184 0
M  V30 1058 H 100.55 -2.25306 -3.02518 0
M  V30 1059 H 102.937 -1.34473 -2.6268 0
M  V30 1060 H 103.018 -2.2925 -1.13482 0
M  V30 1061 H 102.662 -4.42359 -2.49562 0
M  V30 1062 H 102.592 -3.4451 -3.98272 0
M  V30 1063 H 105.083 -2.76337 -2.57771 0
M  V30 1064 H 105.396 -6.05904 -4.79687 0
M  V30 1065 H 103.741 -5.44475 -4.3194 0
M  V30 1066 H 106.932 -3.47987 -3.13086 0
M  V30 1067 H 107.105 -4.98258 -4.14298 0
M  V30 1068 N 100.511 1.16574 -1.06058 0
M  V30 1069 C 101.441 2.23057 -0.690488 0
M  V30 1070 C 102.422 1.67141 0.315901 0
M  V30 1071 O 103.607 1.93253 0.191556 0
M  V30 1072 C 100.737 3.47222 -0.073625 0
M  V30 1073 C 99.6908 4.16016 -1.00573 0
M  V30 1074 C 99.0168 5.34104 -0.252289 0
M  V30 1075 C 100.317 4.67264 -2.33371 0
M  V30 1076 H 102.011 2.54271 -1.58072 0
M  V30 1077 H 99.5568 1.22218 -0.76149 0
M  V30 1078 H 101.51 4.20939 0.19714 0
M  V30 1079 H 100.234 3.15302 0.85161 0
M  V30 1080 H 98.8928 3.44223 -1.2612 0
M  V30 1081 H 98.5408 4.98437 0.675988 0
M  V30 1082 H 98.2408 5.81072 -0.873455 0
M  V30 1083 H 99.7648 6.10599 0.0109857 0
M  V30 1084 H 101.179 5.32573 -2.12223 0
M  V30 1085 H 99.5758 5.24843 -2.90963 0
M  V30 1086 H 100.646 3.83602 -2.96611 0
M  V30 1087 N 101.989 0.842826 1.3317 0
M  V30 1088 C 103.217 0.454055 2.01856 0
M  V30 1089 C 103.632 -0.94587 1.63397 0
M  V30 1090 O 102.989 -1.61534 0.849302 0
M  V30 1091 C 103.04 0.569715 3.56982 0
M  V30 1092 O 102.761 1.91448 3.94055 0
M  V30 1093 C 104.262 0.178412 4.42941 0
M  V30 1094 H 101.482 0.17979 0.646465 0
M  V30 1095 H 104.026 1.1365 1.70012 0
M  V30 1096 H 102.181 -0.0648587 3.87346 0
M  V30 1097 H 102.595 1.90282 4.88767 0
M  V30 1098 H 104.069 0.310376 5.51127 0
M  V30 1099 H 104.546 -0.880056 4.30293 0
M  V30 1100 H 105.152 0.787579 4.17944 0
M  V30 1101 N 103.467 -1.45747 0.599634 0
M  V30 1102 C 104.417 -2.27538 -0.145107 0
M  V30 1103 C 105.401 -1.3686 -0.846055 0
M  V30 1104 O 106.593 -1.6091 -0.737357 0
M  V30 1105 C 103.722 -3.23569 -1.14708 0
M  V30 1106 C 102.808 -4.21734 -0.447383 0
M  V30 1107 N 103.199 -5.03257 0.506535 0
M  V30 1108 C 101.497 -4.40536 -0.695966 0
M  V30 1109 C 102.198 -5.74426 0.917068 0
M  V30 1110 N 101.174 -5.42966 0.26253 0
M  V30 1111 H 104.976 -2.87965 0.587672 0
M  V30 1112 H 102.49 -1.56803 0.422697 0
M  V30 1113 H 104.487 -3.8089 -1.69495 0
M  V30 1114 H 103.147 -2.64702 -1.8805 0
M  V30 1115 H 104.158 -5.10319 0.882899 0
M  V30 1116 H 100.835 -3.92802 -1.41467 0
M  V30 1117 H 102.225 -6.4995 1.70338 0
M  V30 1118 N 104.945 -0.338344 -1.53925 0
M  V30 1119 C 106.191 0.260143 -2.01125 0
M  V30 1120 C 106.524 1.50617 -1.22589 0
M  V30 1121 O 105.799 1.91979 -0.312113 0
M  V30 1122 C 106.082 0.579499 -3.55407 0
M  V30 1123 C 105.935 -0.678264 -4.44657 0
M  V30 1124 C 107.254 1.39122 -4.17532 0
M  V30 1125 H 104.373 0.0930772 -0.731099 0
M  V30 1126 H 107.015 -0.457852 -1.84401 0
M  V30 1127 H 105.165 1.19118 -3.69788 0
M  V30 1128 H 106.837 -1.31631 -4.42121 0
M  V30 1129 H 105.08 -1.3042 -4.13731 0
M  V30 1130 H 105.751 -0.410143 -5.50474 0
M  V30 1131 H 108.227 0.874035 -4.06817 0
M  V30 1132 H 107.103 1.58342 -5.25565 0
M  V30 1133 H 107.364 2.39178 -3.71815 0
M  V30 1134 N 106.423 1.57458 -0.0668435 0
M  V30 1135 C 107.353 2.15468 0.899764 0
M  V30 1136 C 108.334 1.08042 1.31381 0
M  V30 1137 O 109.519 1.36054 1.38574 0
M  V30 1138 C 106.649 2.71232 2.16911 0
M  V30 1139 C 105.603 3.83781 1.89463 0
M  V30 1140 C 104.929 4.26127 3.22986 0
M  V30 1141 C 106.229 5.08238 1.20381 0
M  V30 1142 H 107.923 2.96488 0.416529 0
M  V30 1143 H 105.469 1.4262 0.198908 0
M  V30 1144 H 107.422 3.10458 2.84945 0
M  V30 1145 H 106.146 1.87426 2.67468 0
M  V30 1146 H 104.805 3.45051 1.23836 0
M  V30 1147 H 104.453 3.39249 3.71374 0
M  V30 1148 H 104.153 5.01993 3.05413 0
M  V30 1149 H 105.677 4.67966 3.92225 0
M  V30 1150 H 107.091 5.44811 1.78475 0
M  V30 1151 H 105.488 5.89349 1.13083 0
M  V30 1152 H 106.558 4.84558 0.182153 0
M  V30 1153 N 107.901 -0.206675 1.56239 0
M  V30 1154 C 109.131 -0.943975 1.83773 0
M  V30 1155 C 109.539 -1.77841 0.645703 0
M  V30 1156 O 108.882 -1.79403 -0.395008 0
M  V30 1157 C 108.944 -1.899 3.05251 0
M  V30 1158 C 108.608 -1.24764 4.39639 0
M  V30 1159 C 109.605 -0.630216 5.16066 0
M  V30 1160 C 107.29 -1.25496 4.8637 0
M  V30 1161 C 109.284 -0.0287946 6.37393 0
M  V30 1162 C 106.971 -0.649698 6.07637 0
M  V30 1163 C 107.969 -0.0376845 6.8299 0
M  V30 1164 O 107.657 0.55812 8.0196 0
M  V30 1165 H 107.389 -0.281508 0.614597 0
M  V30 1166 H 109.943 -0.222458 2.04192 0
M  V30 1167 H 108.173 -2.6599 2.80689 0
M  V30 1168 H 109.862 -2.5031 3.1953 0
M  V30 1169 H 110.628 -0.616785 4.81062 0
M  V30 1170 H 106.507 -1.72072 4.27683 0
M  V30 1171 H 110.051 0.449518 6.9615 0
M  V30 1172 H 105.948 -0.660592 6.42111 0
M  V30 1173 H 106.716 0.453891 8.17241 0
M  V30 1174 N 109.379 -1.50304 -0.473955 0
M  V30 1175 C 110.342 -1.6841 -1.55469 0
M  V30 1176 C 111.342 -0.554905 -1.50922 0
M  V30 1177 O 112.532 -0.821882 -1.53593 0
M  V30 1178 C 109.664 -1.70667 -2.95102 0
M  V30 1179 H 110.857 -2.64828 -1.40733 0
M  V30 1180 H 108.41 -1.39742 -0.700132 0
M  V30 1181 H 109.145 -0.75932 -3.15285 0
M  V30 1182 H 108.93 -2.52698 -2.9981 0
M  V30 1183 H 110.42 -1.8664 -3.73571 0
M  V30 1184 N 110.857 0.726932 -1.39834 0
M  V30 1185 C 112.104 1.48664 -1.37496 0
M  V30 1186 C 112.432 1.94482 0.0264678 0
M  V30 1187 O 111.687 1.67692 1.00886 0
M  V30 1188 C 111.986 2.73495 -2.30077 0
M  V30 1189 C 111.652 2.46502 -3.77555 0
M  V30 1190 C 110.314 2.3885 -4.17737 0
M  V30 1191 C 112.666 2.23604 -4.70798 0
M  V30 1192 C 109.994 2.06352 -5.49214 0
M  V30 1193 C 112.346 1.92622 -6.02561 0
M  V30 1194 C 111.01 1.83444 -6.41798 0
M  V30 1195 H 110.28 0.544001 -0.503135 0
M  V30 1196 H 112.927 0.833657 -1.72402 0
M  V30 1197 H 111.232 3.43575 -1.88317 0
M  V30 1198 H 112.929 3.31549 -2.25558 0
M  V30 1199 H 109.519 2.5334 -3.45712 0
M  V30 1200 H 113.703 2.28479 -4.40581 0
M  V30 1201 H 108.959 1.97776 -5.78528 0
M  V30 1202 H 113.133 1.73914 -6.74334 0
M  V30 1203 H 110.76 1.58029 -7.43593 0
M  V30 1204 N 112.336 1.25143 0.95797 0
M  V30 1205 C 113.299 1.05321 2.03569 0
M  V30 1206 C 114.299 0.007152 1.60798 0
M  V30 1207 O 115.489 0.24903 1.72411 0
M  V30 1208 C 112.621 0.598394 3.35607 0
M  V30 1209 H 113.814 2.00986 2.22586 0
M  V30 1210 H 111.367 1.07502 1.13459 0
M  V30 1211 H 112.102 -0.361014 3.22284 0
M  V30 1212 H 111.887 1.35351 3.67998 0
M  V30 1213 H 113.377 0.48104 4.1482 0
M  V30 1214 N 113.814 -1.1601 1.06675 0
M  V30 1215 C 114.762 -2.22586 0.675157 0
M  V30 1216 C 115.756 -1.66525 -0.310766 0
M  V30 1217 O 116.962 -1.79145 -0.175215 0
M  V30 1218 H 113.337 -0.724855 0.200223 0
M  V30 1219 H 115.308 -2.52899 1.58381 0
M  V30 1220 C 114.057 -3.47604 0.0817162 0
M  V30 1221 H 113.38 -3.91058 0.831484 0
M  V30 1222 H 114.82 -4.23718 -0.154708 0
M  V30 1223 C 113.279 -3.15718 -1.17576 0
M  V30 1224 O 113.809 -3.31878 -2.26318 0
M  V30 1225 N 112.015 -2.69816 -1.07923 0
M  V30 1226 H 111.562 -2.56866 -0.194293 0
M  V30 1227 H 111.52 -2.48855 -1.92141 0
M  V30 1228 N 115.292 -0.849877 -1.32721 0
M  V30 1229 C 116.538 -0.451591 -1.97708 0
M  V30 1230 C 116.871 0.989175 -1.6712 0
M  V30 1231 O 116.146 1.69334 -0.956891 0
M  V30 1232 C 116.429 -0.685598 -3.53513 0
M  V30 1233 C 116.282 -2.17444 -3.93749 0
M  V30 1234 C 117.601 -0.138874 -4.39881 0
M  V30 1235 H 114.72 -0.16555 -0.718166 0
M  V30 1236 H 117.362 -1.06742 -1.57182 0
M  V30 1237 H 115.512 -0.161416 -3.88165 0
M  V30 1238 H 117.184 -2.76433 -3.693 0
M  V30 1239 H 115.427 -2.65476 -3.43081 0
M  V30 1240 H 116.098 -2.28888 -5.02309 0
M  V30 1241 H 118.574 -0.587068 -4.11938 0
M  V30 1242 H 117.45 -0.332213 -5.47894 0
M  V30 1243 H 117.711 0.95806 -4.31594 0
M  V30 1244 N 116.77 1.45427 -0.607355 0
M  V30 1245 C 118.186 1.57283 -0.270985 0
M  V30 1246 C 118.386 1.59875 1.22647 0
M  V30 1247 O 117.442 1.52893 2.00948 0
M  V30 1248 C 118.755 2.85566 -0.941952 0
M  V30 1249 C 120.303 2.9924 -0.917849 0
M  V30 1250 C 120.778 4.30293 -1.56882 0
M  V30 1251 N 122.269 4.37051 -1.5343 0
M  V30 1252 C 123.004 5.37123 -2.00715 0
M  V30 1253 N 122.5 6.43734 -2.56084 0
M  V30 1254 N 124.293 5.28479 -1.91484 0
M  V30 1255 H 116.444 1.41988 -1.57966 0
M  V30 1256 H 118.707 0.67885 -0.661715 0
M  V30 1257 H 118.413 2.8955 -1.99633 0
M  V30 1258 H 118.287 3.74322 -0.465096 0
M  V30 1259 H 120.674 2.94822 0.127984 0
M  V30 1260 H 120.755 2.11895 -1.43297 0
M  V30 1261 H 120.399 4.35469 -2.61398 0
M  V30 1262 H 120.329 5.16454 -1.02873 0
M  V30 1263 H 122.82 3.60615 -1.12982 0
M  V30 1264 H 123.133 7.16341 -2.89958 0
M  V30 1265 H 121.478 6.44485 -2.60122 0
M  V30 1266 H 124.669 4.44098 -1.47967 0
M  V30 1267 H 124.842 6.0632 -2.28648 0
M  V30 1268 N 118.248 0.346503 1.53744 0
M  V30 1269 C 119.659 -0.136779 1.86198 0
M  V30 1270 C 120.01 -1.49749 1.26766 0
M  V30 1271 O 119.135 -2.08417 0.582355 0
M  V30 1272 C 119.73 -0.254966 3.37839 0
M  V30 1273 C 118.289 -0.682482 3.70161 0
M  V30 1274 C 117.436 0.181981 2.76702 0
M  V30 1275 H 120.387 0.565994 1.48264 0
M  V30 1276 H 120.408 -1.08195 3.64793 0
M  V30 1277 H 119.92 0.735526 3.81066 0
M  V30 1278 H 118.021 -1.68189 3.3248 0
M  V30 1279 H 118.134 -0.470326 4.76786 0
M  V30 1280 H 116.498 -0.34615 2.52337 0
M  V30 1281 H 117.281 1.16966 3.2276 0
M  V30 1282 N 119.726 -1.57421 0.075193 0
M  V30 1283 C 120.636 -2.1642 -0.905511 0
M  V30 1284 C 121.652 -1.12828 -1.32461 0
M  V30 1285 O 122.828 -1.45109 -1.39661 0
M  V30 1286 C 119.893 -2.71693 -2.15369 0
M  V30 1287 C 118.954 -3.90171 -1.79068 0
M  V30 1288 C 118.187 -4.42798 -2.97936 0
M  V30 1289 O 118.41 -3.94416 -4.12058 0
M  V30 1290 O 117.344 -5.34085 -2.77555 0
M  V30 1291 H 121.17 -3.00588 -0.433626 0
M  V30 1292 H 118.755 -1.48664 -0.148067 0
M  V30 1293 H 120.637 -3.07104 -2.88557 0
M  V30 1294 H 119.312 -1.90582 -2.61649 0
M  V30 1295 H 118.219 -3.59606 -1.03122 0
M  V30 1296 H 119.552 -4.72584 -1.37569 0
M  V30 1297 N 121.204 0.198386 -1.56346 0
M  V30 1298 C 122.432 0.935572 -1.84539 0
M  V30 1299 C 122.847 1.76989 -0.657281 0
M  V30 1300 O 122.204 1.78626 0.374043 0
M  V30 1301 C 122.255 1.8344 -3.11499 0
M  V30 1302 O 121.976 1.03377 -4.25728 0
M  V30 1303 C 123.477 2.68355 -3.52846 0
M  V30 1304 H 120.697 0.273126 -0.612897 0
M  V30 1305 H 123.241 0.20663 -2.03453 0
M  V30 1306 H 121.396 2.51701 -2.94492 0
M  V30 1307 H 121.81 1.64599 -4.98003 0
M  V30 1308 H 123.284 3.27085 -4.44657 0
M  V30 1309 H 123.761 3.41901 -2.75681 0
M  V30 1310 H 124.367 2.05471 -3.72373 0
M  V30 1311 N 122.682 1.50554 0.465978 0
M  V30 1312 C 123.93 1.61479 1.21528 0
M  V30 1313 C 124.251 0.319596 1.92363 0
M  V30 1314 O 123.521 -0.663194 1.84333 0
M  V30 1315 H 122.101 0.595055 0.451573 0
M  V30 1316 H 124.763 1.87355 0.53704 0
M  V30 1317 H 123.859 2.42846 1.96042 0
M  V30 1318 N 124.16 -0.719506 1.40217 0
M  V30 1319 C 125.07 -1.86378 1.42479 0
M  V30 1320 C 126.086 -1.71073 0.317834 0
M  V30 1321 O 127.262 -1.93406 0.561794 0
M  V30 1322 C 124.327 -3.22136 1.28178 0
M  V30 1323 C 123.388 -3.49723 2.48982 0
M  V30 1324 C 122.621 -4.79004 2.35353 0
M  V30 1325 O 122.844 -5.53821 1.36524 0
M  V30 1326 O 121.778 -5.06839 3.2465 0
M  V30 1327 H 125.604 -1.87425 2.38968 0
M  V30 1328 H 123.189 -0.869405 1.21498 0
M  V30 1329 H 125.071 -4.03234 1.22395 0
M  V30 1330 H 123.746 -3.21825 0.347934 0
M  V30 1331 H 122.653 -2.6865 2.60342 0
M  V30 1332 H 123.986 -3.54828 3.41113 0
M  V30 1333 N 125.638 -1.25649 -0.95132 0
M  V30 1334 C 126.884 -1.10757 -1.69884 0
M  V30 1335 C 127.217 0.350061 -1.91019 0
M  V30 1336 O 126.492 1.25783 -1.48354 0
M  V30 1337 C 126.775 -1.86606 -3.07978 0
M  V30 1338 C 126.628 -3.40217 -2.94232 0
M  V30 1339 C 127.947 -1.65182 -4.07925 0
M  V30 1340 H 125.066 -0.40374 -0.616574 0
M  V30 1341 H 127.708 -1.54521 -1.10558 0
M  V30 1342 H 125.858 -1.49409 -3.58621 0
M  V30 1343 H 127.53 -3.87108 -2.50889 0
M  V30 1344 H 125.773 -3.67759 -2.30078 0
M  V30 1345 H 126.444 -3.88505 -3.92133 0
M  V30 1346 H 128.92 -1.9757 -3.66204 0
M  V30 1347 H 127.796 -2.20683 -5.02583 0
M  V30 1348 H 128.057 -0.593933 -4.38092 0
M  V30 1349 N 127.117 1.15442 -1.07289 0
M  V30 1350 C 128.347 1.89821 -0.815576 0
M  V30 1351 C 128.755 1.7823 0.634867 0
M  V30 1352 O 128.098 1.13152 1.44715 0
M  V30 1353 C 128.16 3.40817 -1.14385 0
M  V30 1354 C 127.824 3.76193 -2.59476 0
M  V30 1355 C 128.821 3.77269 -3.57721 0
M  V30 1356 C 126.506 4.0652 -2.95037 0
M  V30 1357 C 128.5 4.08176 -4.89562 0
M  V30 1358 C 126.187 4.37092 -4.27076 0
M  V30 1359 C 127.185 4.37902 -5.24148 0
M  V30 1360 O 126.873 4.67741 -6.53815 0
M  V30 1361 H 126.605 0.608465 -0.294528 0
M  V30 1362 H 129.159 1.472 -1.43252 0
M  V30 1363 H 127.389 3.83835 -0.469865 0
M  V30 1364 H 129.078 3.96485 -0.869179 0
M  V30 1365 H 129.844 3.5394 -3.3159 0
M  V30 1366 H 125.723 4.05049 -2.20128 0
M  V30 1367 H 129.267 4.08723 -5.65324 0
M  V30 1368 H 125.164 4.59889 -4.5296 0
M  V30 1369 H 125.932 4.85509 -6.58957 0
M  V30 1370 N 128.595 0.856903 1.32268 0
M  V30 1371 C 129.528 0.247937 2.26849 0
M  V30 1372 C 130.506 -0.615382 1.50505 0
M  V30 1373 O 131.69 -0.571689 1.79622 0
M  V30 1374 C 128.817 -0.650093 3.32403 0
M  V30 1375 C 127.863 0.140138 4.2627 0
M  V30 1376 S 128.696 1.51004 5.13769 0
M  V30 1377 C 129.852 0.61778 6.22844 0
M  V30 1378 H 130.085 1.04971 2.78152 0
M  V30 1379 H 127.618 0.654665 1.39834 0
M  V30 1380 H 129.576 -1.16256 3.93694 0
M  V30 1381 H 128.237 -1.4257 2.7988 0
M  V30 1382 H 127.43 -0.543945 5.01056 0
M  V30 1383 H 127.032 0.584267 3.69408 0
M  V30 1384 H 129.324 -0.177053 6.77269 0
M  V30 1385 H 130.267 1.33636 6.95375 0
M  V30 1386 H 130.675 0.191124 5.64176 0
M  V30 1387 N 130.073 -1.45103 0.615059 0
M  V30 1388 C 131.301 -2.06553 0.11977 0
M  V30 1389 C 131.716 -1.45842 -1.19898 0
M  V30 1390 O 131.073 -0.575325 -1.73194 0
M  V30 1391 C 131.124 -3.61495 -0.018364 0
M  V30 1392 O 130.845 -4.19942 1.24822 0
M  V30 1393 C 132.346 -4.39947 -0.544237 0
M  V30 1394 H 129.566 -0.667096 0.0722739 0
M  V30 1395 H 132.11 -1.8623 0.84491 0
M  V30 1396 H 130.265 -3.81135 -0.693865 0
M  V30 1397 H 130.679 -5.13204 1.0827 0
M  V30 1398 H 132.153 -5.48838 -0.589953 0
M  V30 1399 H 132.63 -4.10255 -1.56805 0
M  V30 1400 H 133.236 -4.25188 0.0974703 0
M  V30 1401 N 131.551 -0.354651 -1.53558 0
M  V30 1402 C 132.828 0.294281 -1.93374 0
M  V30 1403 C 133.208 1.67313 -1.28723 0
M  V30 1404 O 132.556 2.24179 -0.442247 0
M  V30 1405 C 132.766 0.355445 -3.47185 0
M  V30 1406 C 134.114 0.601007 -4.20325 0
M  V30 1407 O 135.138 0.437106 -3.53508 0
M  V30 1408 O 133.997 0.919322 -5.38712 0
M  V30 1409 H 131.091 0.174033 -0.808481 0
M  V30 1410 H 133.637 -0.406638 -1.64756 0
M  V30 1411 H 132.409 -0.611729 -3.86489 0
M  V30 1412 H 132.032 1.1027 -3.82003 0
M  V30 1413 N 133.029 1.57378 -0.0835403 0
M  V30 1414 C 134.254 1.98682 0.594987 0
M  V30 1415 C 134.679 0.961969 1.61641 0
M  V30 1416 O 134.037 -0.0709989 1.81161 0
M  V30 1417 C 134.085 3.38988 1.2296 0
M  V30 1418 O 133.189 3.39208 2.34546 0
M  V30 1419 H 132.53 0.646368 0.152002 0
M  V30 1420 H 135.06 2.03961 -0.161533 0
M  V30 1421 H 135.07 3.76431 1.57366 0
M  V30 1422 H 133.745 4.13107 0.481228 0
M  V30 1423 H 132.322 3.13548 2.01846 0
M  V30 1424 N 134.507 -0.190092 1.56449 0
M  V30 1425 C 135.753 -0.906472 1.82084 0
M  V30 1426 C 136.108 -1.80677 0.661335 0
M  V30 1427 O 135.401 -1.88501 -0.343237 0
M  V30 1428 C 135.595 -1.75382 3.1141 0
M  V30 1429 C 135.424 -0.937053 4.39829 0
M  V30 1430 C 134.194 -0.619507 5.01488 0
M  V30 1431 C 136.392 -0.2874 5.13496 0
M  V30 1432 N 134.374 0.215367 6.13522 0
M  V30 1433 C 135.745 0.409454 6.18646 0
M  V30 1434 C 137.8 -0.203639 4.97483 0
M  V30 1435 C 136.503 1.1821 7.0952 0
M  V30 1436 C 138.529 0.555622 5.88784 0
M  V30 1437 C 137.891 1.24091 6.93384 0
M  V30 1438 H 133.99 -0.310931 0.717528 0
M  V30 1439 H 136.574 -0.174821 1.93914 0
M  V30 1440 H 134.745 -2.45703 3.00806 0
M  V30 1441 H 136.477 -2.41006 3.25112 0
M  V30 1442 H 133.232 -0.945126 4.64074 0
M  V30 1443 H 133.656 0.622562 6.74131 0
M  V30 1444 H 138.298 -0.719099 4.1664 0
M  V30 1445 H 136.016 1.70897 7.89823 0
M  V30 1446 H 139.602 0.621854 5.78467 0
M  V30 1447 H 138.482 1.81901 7.62812 0
M  V30 1448 N 135.985 -1.50799 -0.457987 0
M  V30 1449 C 136.948 -1.7005 -1.53674 0
M  V30 1450 C 137.948 -0.570881 -1.50325 0
M  V30 1451 O 139.138 -0.838126 -1.52712 0
M  V30 1452 C 136.27 -1.73788 -2.93276 0
M  V30 1453 H 137.463 -2.66306 -1.37917 0
M  V30 1454 H 135.016 -1.40477 -0.685271 0
M  V30 1455 H 135.751 -0.792717 -3.14462 0
M  V30 1456 H 135.536 -2.55864 -2.97113 0
M  V30 1457 H 137.026 -1.90591 -3.71571 0
M  V30 1458 N 137.463 0.71206 -1.40597 0
M  V30 1459 C 138.74 1.46536 -1.29563 0
M  V30 1460 C 139.12 2.10931 0.0844217 0
M  V30 1461 O 138.468 2.00418 1.0975 0
M  V30 1462 C 138.678 2.49821 -2.43701 0
M  V30 1463 C 140.026 3.15551 -2.841 0
M  V30 1464 O 141.05 2.60142 -2.4332 0
M  V30 1465 O 139.909 4.15867 -3.54566 0
M  V30 1466 H 137.003 0.651801 -0.509004 0
M  V30 1467 H 139.549 0.743935 -1.52524 0
M  V30 1468 H 138.321 2.00778 -3.35863 0
M  V30 1469 H 137.944 3.29495 -2.22528 0
M  V30 1470 N 138.941 1.26152 0.944643 0
M  V30 1471 C 140.19 1.10883 1.68487 0
M  V30 1472 C 140.503 -0.348153 1.92477 0
M  V30 1473 O 141.709 -0.621459 2.64292 0
M  V30 1474 C 140.165 1.93624 3.03377 0
M  V30 1475 C 139.773 3.43875 2.87148 0
M  V30 1476 C 141.517 1.86954 3.81115 0
M  V30 1477 C 139.424 4.18875 4.1749 0
M  V30 1478 H 138.354 0.41135 0.631907 0
M  V30 1479 H 141.005 1.50433 1.05082 0
M  V30 1480 H 139.387 1.46904 3.67743 0
M  V30 1481 H 140.561 3.98338 2.31653 0
M  V30 1482 H 138.876 3.51744 2.22856 0
M  V30 1483 H 141.473 2.40275 4.77673 0
M  V30 1484 H 141.816 0.839518 4.07747 0
M  V30 1485 H 142.349 2.31477 3.23517 0
M  V30 1486 H 139.088 5.22332 3.96043 0
M  V30 1487 H 138.608 3.69193 4.72712 0
M  V30 1488 H 140.287 4.27134 4.85968 0
M  V30 1489 N 140.419 -1.14872 1.07899 0
M  V30 1490 C 141.329 -2.2341 0.715915 0
M  V30 1491 C 142.345 -1.71808 -0.275306 0
M  V30 1492 O 143.521 -2.01039 -0.120545 0
M  V30 1493 C 140.586 -3.46474 0.125168 0
M  V30 1494 C 139.647 -4.13039 1.17034 0
M  V30 1495 C 138.88 -5.30229 0.607688 0
M  V30 1496 O 139.103 -5.675 -0.574497 0
M  V30 1497 O 138.037 -5.86444 1.35526 0
M  V30 1498 H 141.863 -2.56808 1.62121 0
M  V30 1499 H 139.448 -1.22702 0.852322 0
M  V30 1500 H 141.33 -4.20917 -0.201729 0
M  V30 1501 H 140.005 -3.14811 -0.753364 0
M  V30 1502 H 138.912 -3.40493 1.54968 0
M  V30 1503 H 140.245 -4.48796 2.02097 0
M  V30 1504 N 141.898 -0.863906 -1.31812 0
M  V30 1505 C 142.845 -0.313303 -2.28664 0
M  V30 1506 C 143.815 0.584868 -1.55462 0
M  V30 1507 O 145 0.517805 -1.83639 0
M  V30 1508 C 142.14 0.48441 -3.41683 0
M  V30 1509 C 141.253 -0.440594 -4.29747 0
M  V30 1510 C 140.388 0.370652 -5.29905 0
M  V30 1511 C 139.427 -0.551164 -6.09613 0
M  V30 1512 N 138.564 0.223462 -7.01744 0
M  V30 1513 H 143.404 -1.14444 -2.75148 0
M  V30 1514 H 140.941 -0.575769 -1.35364 0
M  V30 1515 H 142.899 0.962627 -4.05943 0
M  V30 1516 H 141.529 1.28029 -2.96325 0
M  V30 1517 H 140.581 -1.03724 -3.65986 0
M  V30 1518 H 141.893 -1.14767 -4.85417 0
M  V30 1519 H 141.047 0.911638 -5.99812 0
M  V30 1520 H 139.786 1.11105 -4.74876 0
M  V30 1521 H 138.791 -1.10396 -5.38603 0
M  V30 1522 H 140.016 -1.29032 -6.66729 0
M  V30 1523 H 137.962 0.946787 -6.49132 0
M  V30 1524 H 137.879 -0.424399 -7.54808 0
M  V30 1525 H 139.147 0.745876 -7.75923 0
M  V30 1526 N 143.376 1.44774 -0.622745 0
M  V30 1527 C 144.326 2.2774 0.108889 0
M  V30 1528 C 145.31 1.38189 0.824175 0
M  V30 1529 O 146.502 1.62063 0.711664 0
M  V30 1530 C 143.631 3.25353 1.09546 0
M  V30 1531 C 142.717 4.22392 0.380232 0
M  V30 1532 N 143.108 5.02388 -0.586535 0
M  V30 1533 C 141.406 4.41588 0.625792 0
M  V30 1534 C 142.107 5.72894 -1.00834 0
M  V30 1535 N 141.083 5.42479 -0.348878 0
M  V30 1536 H 144.885 2.86993 -0.63341 0
M  V30 1537 H 142.399 1.5611 -0.447589 0
M  V30 1538 H 144.396 3.83538 1.63414 0
M  V30 1539 H 143.056 2.6766 1.83815 0
M  V30 1540 H 144.067 5.0885 -0.963975 0
M  V30 1541 H 140.744 3.95003 1.352 0
M  V30 1542 H 142.134 6.47158 -1.80656 0
M  V30 1543 N 144.854 0.36279 1.53368 0
M  V30 1544 C 146.084 -0.228281 2.05335 0
M  V30 1545 C 146.492 -1.43226 1.23625 0
M  V30 1546 O 145.835 -1.81717 0.269206 0
M  V30 1547 C 145.897 -0.688549 3.52845 0
M  V30 1548 C 145.561 0.398362 4.5526 0
M  V30 1549 C 146.558 1.24732 5.04716 0
M  V30 1550 C 144.243 0.557805 4.99193 0
M  V30 1551 C 146.237 2.2411 5.96702 0
M  V30 1552 C 143.924 1.55495 5.90986 0
M  V30 1553 C 144.922 2.39503 6.39631 0
M  V30 1554 O 144.61 3.37517 7.29615 0
M  V30 1555 H 144.342 -0.044395 0.674541 0
M  V30 1556 H 146.896 0.518668 1.98744 0
M  V30 1557 H 145.126 -1.48706 3.56964 0
M  V30 1558 H 146.815 -1.20231 3.87685 0
M  V30 1559 H 147.581 1.13532 4.71525 0
M  V30 1560 H 143.46 -0.0862959 4.60919 0
M  V30 1561 H 147.004 2.89718 6.34594 0
M  V30 1562 H 142.901 1.66744 6.23592 0
M  V30 1563 H 143.669 3.33213 7.47604 0
M  V30 1564 N 146.332 -1.57332 0.0918853 0
M  V30 1565 C 147.743 -1.81496 -0.437739 0
M  V30 1566 C 148.094 -1.00727 -1.6837 0
M  V30 1567 O 147.219 -0.235694 -2.15113 0
M  V30 1568 C 147.814 -3.29197 -0.800939 0
M  V30 1569 C 146.373 -3.54136 -1.27532 0
M  V30 1570 C 145.52 -2.75979 -0.270392 0
M  V30 1571 H 148.471 -1.55494 0.317366 0
M  V30 1572 H 148.492 -3.42344 -1.66074 0
M  V30 1573 H 148.004 -3.87955 0.106078 0
M  V30 1574 H 146.105 -3.00705 -2.20016 0
M  V30 1575 H 146.218 -4.62792 -1.23938 0
M  V30 1576 H 144.582 -2.43349 -0.751872 0
M  V30 1577 H 145.365 -3.37484 0.629248 0
M  V30 1578 N 147.81 0.181792 -1.56548 0
M  V30 1579 C 149.058 0.89832 -1.81038 0
M  V30 1580 C 149.379 1.83232 -0.667164 0
M  V30 1581 O 148.649 1.93372 0.313673 0
M  V30 1582 H 147.229 0.33471 -0.667816 0
M  V30 1583 H 149.891 0.184116 -1.94028 0
M  V30 1584 H 148.987 1.4815 -2.74696 0
M  V30 1585 N 149.288 1.51039 0.449983 0
M  V30 1586 C 150.565 1.53612 1.21089 0
M  V30 1587 C 150.945 0.292997 2.09057 0
M  V30 1588 O 150.293 -0.72259 2.16774 0
M  V30 1589 C 150.503 2.84337 2.0237 0
M  V30 1590 C 151.851 3.35807 2.59843 0
M  V30 1591 O 152.875 2.85802 2.12593 0
M  V30 1592 O 151.734 4.23029 3.45989 0
M  V30 1593 H 148.828 0.617057 0.550608 0
M  V30 1594 H 151.374 1.63344 0.460082 0
M  V30 1595 H 150.146 3.66278 1.37681 0
M  V30 1596 H 149.769 2.77708 2.84542 0
M  V30 1597 N 150.766 -0.704594 1.40972 0
M  V30 1598 C 151.991 -1.49858 1.43378 0
M  V30 1599 C 152.416 -1.88061 0.038184 0
M  V30 1600 O 151.774 -1.5402 -0.956425 0
M  V30 1601 C 151.822 -2.74333 2.34038 0
M  V30 1602 O 150.926 -3.7147 1.7912 0
M  V30 1603 H 150.267 -0.45139 0.486974 0
M  V30 1604 H 152.797 -0.866832 1.8533 0
M  V30 1605 H 152.807 -3.22741 2.49604 0
M  V30 1606 H 151.482 -2.45863 3.35446 0
M  V30 1607 H 150.059 -3.30363 1.72958 0
M  V30 1608 N 152.244 -1.26651 -0.937939 0
M  V30 1609 C 153.49 -1.13562 -1.68746 0
M  V30 1610 C 153.845 0.317241 -1.89767 0
M  V30 1611 O 153.138 1.22939 -1.46957 0
M  V30 1612 C 153.332 -1.84168 -3.06295 0
M  V30 1613 C 153.161 -3.36171 -2.98696 0
M  V30 1614 C 151.931 -4.05468 -3.01535 0
M  V30 1615 C 154.129 -4.32312 -2.78588 0
M  V30 1616 N 152.111 -5.44118 -2.84269 0
M  V30 1617 C 153.482 -5.58159 -2.69924 0
M  V30 1618 C 155.537 -4.22524 -2.63396 0
M  V30 1619 C 154.24 -6.75335 -2.47618 0
M  V30 1620 C 156.266 -5.39411 -2.42466 0
M  V30 1621 C 155.628 -6.64208 -2.34536 0
M  V30 1622 H 151.727 -0.470361 -0.624728 0
M  V30 1623 H 154.311 -1.59982 -1.10968 0
M  V30 1624 H 152.482 -1.40219 -3.62206 0
M  V30 1625 H 154.214 -1.63674 -3.70126 0
M  V30 1626 H 150.969 -3.56854 -3.11372 0
M  V30 1627 H 151.393 -6.1693 -2.78795 0
M  V30 1628 H 156.035 -3.26771 -2.68292 0
M  V30 1629 H 153.753 -7.71182 -2.41463 0
M  V30 1630 H 157.339 -5.33711 -2.31611 0
M  V30 1631 H 156.219 -7.53129 -2.18555 0
M  V30 1632 N 153.722 1.14298 -1.08507 0
M  V30 1633 C 154.947 1.8976 -0.837001 0
M  V30 1634 C 155.372 1.78097 0.605228 0
M  V30 1635 O 154.73 1.12188 1.4242 0
M  V30 1636 C 154.778 3.37685 -1.26495 0
M  V30 1637 O 153.882 4.10281 -0.417514 0
M  V30 1638 H 153.223 0.590365 -0.303917 0
M  V30 1639 H 155.753 1.44672 -1.44676 0
M  V30 1640 H 155.763 3.88501 -1.24625 0
M  V30 1641 H 154.438 3.45492 -2.31534 0
M  V30 1642 H 153.015 3.69536 -0.499722 0
M  V30 1643 N 155.201 0.870884 1.31352 0
M  V30 1644 C 156.478 0.402907 1.91405 0
M  V30 1645 C 156.858 -1.11512 1.79244 0
M  V30 1646 O 156.206 -1.94411 1.2007 0
M  V30 1647 C 156.416 0.885301 3.37585 0
M  V30 1648 C 157.764 0.911971 4.14691 0
M  V30 1649 O 158.788 0.831016 3.46371 0
M  V30 1650 O 157.647 1.02927 5.3672 0
M  V30 1651 H 154.741 0.120698 0.818145 0
M  V30 1652 H 157.287 0.958857 1.40014 0
M  V30 1653 H 156.059 1.92889 3.40455 0
M  V30 1654 H 155.682 0.307714 3.96407 0
M  V30 1655 N 156.679 -1.44442 0.630414 0
M  V30 1656 C 157.907 -2.06414 0.141671 0
M  V30 1657 C 158.322 -1.47105 -1.18345 0
M  V30 1658 O 157.679 -0.593662 -1.72574 0
M  V30 1659 C 157.73 -3.61494 0.0199784 0
M  V30 1660 O 157.451 -4.18594 1.29269 0
M  V30 1661 C 158.952 -4.40499 -0.497544 0
M  V30 1662 H 156.172 -0.666292 0.0793452 0
M  V30 1663 H 158.716 -1.85323 0.864614 0
M  V30 1664 H 156.871 -3.8185 -0.653402 0
M  V30 1665 H 157.285 -5.12026 1.13707 0
M  V30 1666 H 158.759 -5.49433 -0.531708 0
M  V30 1667 H 159.236 -4.11895 -1.52445 0
M  V30 1668 H 159.842 -4.25061 0.142562 0
M  V30 1669 N 158.157 -0.370918 -1.53173 0
M  V30 1670 C 159.405 0.216673 -2.00935 0
M  V30 1671 C 159.726 1.48845 -1.25977 0
M  V30 1672 O 158.996 1.92286 -0.374551 0
M  V30 1673 H 157.576 0.0830565 -0.742368 0
M  V30 1674 H 160.238 -0.49838 -1.8842 0
M  V30 1675 H 159.334 0.439893 -3.08984 0
M  V30 1676 N 159.635 1.57281 -0.100228 0
M  V30 1677 C 160.583 2.15542 0.874328 0
M  V30 1678 C 161.577 1.09962 1.28859 0
M  V30 1679 O 162.783 1.28298 1.26252 0
M  V30 1680 H 159.158 0.689567 0.300003 0
M  V30 1681 H 161.129 2.96241 0.35829 0
M  V30 1682 C 159.878 2.75454 2.1218 0
M  V30 1683 H 159.201 3.56384 1.81193 0
M  V30 1684 H 160.641 3.19781 2.78417 0
M  V30 1685 C 159.1 1.71602 2.89921 0
M  V30 1686 O 159.63 1.15804 3.84646 0
M  V30 1687 N 157.836 1.41975 2.53558 0
M  V30 1688 H 157.383 1.87539 1.76598 0
M  V30 1689 H 157.341 0.727274 3.05873 0
M  V30 1690 N 161.113 -0.173488 1.56642 0
M  V30 1691 C 162.061 -1.23417 1.97157 0
M  V30 1692 C 163.055 -1.45946 0.860013 0
M  V30 1693 O 164.261 -1.46551 1.04512 0
M  V30 1694 H 160.636 -0.414818 0.62724 0
M  V30 1695 H 162.607 -0.865582 2.8557 0
M  V30 1696 C 161.356 -2.5665 2.34576 0
M  V30 1697 H 160.679 -2.40137 3.19647 0
M  V30 1698 H 162.119 -3.2956 2.6677 0
M  V30 1699 C 160.578 -3.15245 1.18836 0
M  V30 1700 O 161.108 -3.98883 0.474869 0
M  V30 1701 N 159.314 -2.74303 0.959497 0
M  V30 1702 H 158.861 -2.0639 1.54146 0
M  V30 1703 H 158.819 -3.13844 0.186932 0
M  V30 1704 N 162.591 -1.51276 -0.441967 0
M  V30 1705 C 163.837 -1.63958 -1.19355 0
M  V30 1706 C 164.17 -0.352543 -1.90973 0
M  V30 1707 O 163.445 0.647627 -1.83401 0
M  V30 1708 C 163.728 -2.83979 -2.21422 0
M  V30 1709 C 163.581 -4.22646 -1.53918 0
M  V30 1710 C 164.9 -2.99521 -3.22451 0
M  V30 1711 H 162.019 -0.596709 -0.432559 0
M  V30 1712 H 164.661 -1.83748 -0.483398 0
M  V30 1713 H 162.811 -2.67237 -2.81987 0
M  V30 1714 H 164.483 -4.51045 -0.967256 0
M  V30 1715 H 162.726 -4.25558 -0.841615 0
M  V30 1716 H 163.397 -5.02609 -2.28229 0
M  V30 1717 H 165.873 -3.14944 -2.71937 0
M  V30 1718 H 164.749 -3.85072 -3.91166 0
M  V30 1719 H 165.01 -2.11391 -3.88287 0
M  V30 1720 N 164.069 0.697108 -1.41344 0
M  V30 1721 C 165.299 1.48377 -1.43763 0
M  V30 1722 C 165.707 1.89156 -0.0408726 0
M  V30 1723 O 165.05 1.57239 0.949812 0
M  V30 1724 C 165.112 2.7781 -2.2817 0
M  V30 1725 C 164.776 2.59244 -3.76353 0
M  V30 1726 C 165.773 2.25292 -4.68551 0
M  V30 1727 C 163.458 2.74933 -4.20378 0
M  V30 1728 C 165.452 2.07264 -6.02761 0
M  V30 1729 C 163.139 2.56521 -5.54653 0
M  V30 1730 C 164.137 2.22737 -6.4566 0
M  V30 1731 O 163.825 2.04485 -7.77458 0
M  V30 1732 H 163.557 0.463842 -0.491759 0
M  V30 1733 H 166.111 0.865934 -1.86255 0
M  V30 1734 H 164.341 3.41995 -1.8049 0
M  V30 1735 H 166.03 3.39608 -2.22309 0
M  V30 1736 H 166.796 2.12787 -4.35829 0
M  V30 1737 H 162.675 3.00213 -3.49848 0
M  V30 1738 H 166.219 1.80817 -6.73759 0
M  V30 1739 H 162.116 2.68616 -5.86955 0
M  V30 1740 H 162.884 2.1926 -7.88586 0
M  V30 1741 N 165.547 1.27147 0.931209 0
M  V30 1742 C 166.795 1.13055 1.6752 0
M  V30 1743 C 167.116 -0.324791 1.92276 0
M  V30 1744 O 166.386 -1.22775 1.52654 0
M  V30 1745 H 164.966 0.415391 0.620854 0
M  V30 1746 H 167.628 1.59623 1.11833 0
M  V30 1747 H 166.724 1.65694 2.64485 0
M  V30 1748 N 167.025 -1.13721 1.09112 0
M  V30 1749 C 168.265 -1.86576 0.834801 0
M  V30 1750 C 168.629 -1.81435 -0.628122 0
M  V30 1751 O 169.83 -2.49497 -1.00024 0
M  V30 1752 C 168.101 -3.30872 1.35124 0
M  V30 1753 S 169.66 -4.21257 1.22832 0
M  V30 1754 H 166.478 -0.643666 0.302017 0
M  V30 1755 H 169.08 -1.37085 1.39385 0
M  V30 1756 H 167.784 -3.32166 2.41027 0
M  V30 1757 H 167.315 -3.85423 0.788185 0
M  V30 1758 H 169.33 -4.95884 0.177191 0
M  V30 1759 N 168.503 -0.877838 -1.30888 0
M  V30 1760 C 169.752 -0.488793 -1.95688 0
M  V30 1761 C 170.065 0.965485 -1.70111 0
M  V30 1762 O 171.271 1.46104 -2.28836 0
M  V30 1763 C 169.727 -0.823201 -3.50359 0
M  V30 1764 C 169.335 -2.29477 -3.84765 0
M  V30 1765 C 171.079 -0.503009 -4.21509 0
M  V30 1766 C 168.986 -2.57118 -5.32583 0
M  V30 1767 H 167.916 -0.179062 -0.732429 0
M  V30 1768 H 170.567 -1.07183 -1.48943 0
M  V30 1769 H 168.949 -0.169331 -3.95638 0
M  V30 1770 H 170.123 -2.99236 -3.5042 0
M  V30 1771 H 168.438 -2.58178 -3.267 0
M  V30 1772 H 171.035 -0.68665 -5.30273 0
M  V30 1773 H 171.378 0.557109 -4.12555 0
M  V30 1774 H 171.911 -1.11376 -3.8189 0
M  V30 1775 H 168.65 -3.61843 -5.4658 0
M  V30 1776 H 168.17 -1.91961 -5.68253 0
M  V30 1777 H 169.849 -2.42251 -5.99936 0
M  V30 1778 N 169.982 1.44106 -0.638065 0
M  V30 1779 C 170.929 2.30715 0.062701 0
M  V30 1780 C 171.899 1.43882 0.829883 0
M  V30 1781 O 173.084 1.72775 0.809532 0
M  V30 1782 C 170.224 3.29258 1.03358 0
M  V30 1783 C 169.337 4.31192 0.26409 0
M  V30 1784 C 168.472 5.16825 1.22741 0
M  V30 1785 C 167.511 6.10462 0.447475 0
M  V30 1786 N 166.648 6.8877 1.36161 0
M  V30 1787 H 171.488 2.90096 -0.681781 0
M  V30 1788 H 169.025 1.42925 -0.347988 0
M  V30 1789 H 170.983 3.84886 1.60992 0
M  V30 1790 H 169.613 2.71562 1.74511 0
M  V30 1791 H 168.665 3.77981 -0.428295 0
M  V30 1792 H 169.977 4.97619 -0.343052 0
M  V30 1793 H 169.131 5.77004 1.87487 0
M  V30 1794 H 167.87 4.50488 1.86847 0
M  V30 1795 H 166.875 5.49386 -0.213433 0
M  V30 1796 H 168.1 6.78837 -0.188968 0
M  V30 1797 H 166.046 6.25096 1.98975 0
M  V30 1798 H 165.963 7.51663 0.808656 0
M  V30 1799 H 167.231 7.53467 1.99769 0
M  V30 1800 N 171.46 0.379036 1.52974 0
M  V30 1801 C 172.392 -0.495963 2.2377 0
M  V30 1802 C 173.405 -1.03517 1.25651 0
M  V30 1803 O 174.594 -0.939249 1.51791 0
M  V30 1804 C 171.694 -1.69894 2.93239 0
M  V30 1805 C 170.867 -1.2889 4.17979 0
M  V30 1806 C 169.926 -2.35543 4.70538 0
M  V30 1807 O 168.952 -1.97375 5.33883 0
M  V30 1808 N 170.154 -3.67318 4.49508 0
M  V30 1809 H 172.919 0.110523 2.99496 0
M  V30 1810 H 170.48 0.204878 1.60598 0
M  V30 1811 H 172.472 -2.40747 3.25304 0
M  V30 1812 H 171.042 -2.212 2.20883 0
M  V30 1813 H 170.262 -0.409676 3.92065 0
M  V30 1814 H 171.55 -0.991443 4.99047 0
M  V30 1815 H 170.948 -4.01095 3.98923 0
M  V30 1816 H 169.505 -4.34235 4.8609 0
M  V30 1817 N 172.938 -1.57226 0.108567 0
M  V30 1818 C 173.868 -2.17778 -0.84232 0
M  V30 1819 C 174.849 -1.11487 -1.2847 0
M  V30 1820 O 176.034 -1.39681 -1.34918 0
M  V30 1821 C 173.164 -2.76888 -2.09644 0
M  V30 1822 C 172.118 -3.88669 -1.79221 0
M  V30 1823 C 171.444 -4.34541 -3.11574 0
M  V30 1824 C 172.744 -5.11251 -1.06864 0
M  V30 1825 H 174.438 -2.97489 -0.337774 0
M  V30 1826 H 171.984 -1.43097 -0.161025 0
M  V30 1827 H 173.937 -3.17904 -2.76614 0
M  V30 1828 H 172.661 -1.94451 -2.62405 0
M  V30 1829 H 171.32 -3.48213 -1.14644 0
M  V30 1830 H 170.968 -3.48977 -3.62249 0
M  V30 1831 H 170.668 -5.09914 -2.91996 0
M  V30 1832 H 172.192 -4.782 -3.7968 0
M  V30 1833 H 173.606 -5.49352 -1.63968 0
M  V30 1834 H 172.003 -5.9214 -0.974178 0
M  V30 1835 H 173.073 -4.8487 -0.0536168 0
M  V30 1836 N 174.416 0.165178 -1.56732 0
M  V30 1837 C 175.646 0.894919 -1.86212 0
M  V30 1838 C 176.054 1.76066 -0.692627 0
M  V30 1839 O 175.397 1.80387 0.347303 0
M  V30 1840 C 175.459 1.8174 -3.10179 0
M  V30 1841 C 175.123 1.13064 -4.42793 0
M  V30 1842 C 176.12 0.493169 -5.17556 0
M  V30 1843 C 173.805 1.12556 -4.89527 0
M  V30 1844 C 175.799 -0.140209 -6.37246 0
M  V30 1845 C 173.486 0.488366 -6.09145 0
M  V30 1846 C 174.484 -0.143411 -6.82849 0
M  V30 1847 O 174.172 -0.77055 -8.00199 0
M  V30 1848 H 173.904 0.265114 -0.621844 0
M  V30 1849 H 176.458 0.168242 -2.0471 0
M  V30 1850 H 174.688 2.58455 -2.87642 0
M  V30 1851 H 176.377 2.4175 -3.26055 0
M  V30 1852 H 177.143 0.489023 -4.82528 0
M  V30 1853 H 173.022 1.60672 -4.32094 0
M  V30 1854 H 176.566 -0.633932 -6.94714 0
M  V30 1855 H 172.463 0.490116 -6.43637 0
M  V30 1856 H 173.231 -0.670408 -8.1575 0
M  V30 1857 N 175.894 1.51508 0.433938 0
M  V30 1858 C 176.824 1.76016 1.53429 0
M  V30 1859 C 177.805 0.610112 1.58782 0
M  V30 1860 O 178.99 0.853177 1.74455 0
M  V30 1861 C 176.12 1.88831 2.9148 0
M  V30 1862 C 175.074 3.04288 3.00987 0
M  V30 1863 C 174.4 3.0229 4.4105 0
M  V30 1864 C 175.7 4.44193 2.74754 0
M  V30 1865 H 177.394 2.68152 1.33171 0
M  V30 1866 H 174.94 1.29035 0.639214 0
M  V30 1867 H 176.893 2.04559 3.6842 0
M  V30 1868 H 175.617 0.933455 3.12976 0
M  V30 1869 H 174.276 2.8827 2.26486 0
M  V30 1870 H 173.924 2.04576 4.59519 0
M  V30 1871 H 173.624 3.79822 4.4834 0
M  V30 1872 H 175.148 3.20116 5.1996 0
M  V30 1873 H 176.562 4.60544 3.41426 0
M  V30 1874 H 174.959 5.23457 2.9345 0
M  V30 1875 H 176.029 4.53996 1.70339 0
M  V30 1876 N 177.372 -0.689602 1.41712 0
M  V30 1877 C 178.302 -1.81577 1.46806 0
M  V30 1878 C 179.283 -1.66945 0.326105 0
M  V30 1879 O 180.468 -1.86588 0.538377 0
M  V30 1880 C 177.598 -3.19762 1.35535 0
M  V30 1881 C 176.552 -3.49107 2.47605 0
M  V30 1882 C 175.878 -4.86711 2.21397 0
M  V30 1883 C 177.178 -3.47483 3.89939 0
M  V30 1884 H 178.872 -1.7757 2.41058 0
M  V30 1885 H 176.418 -0.852887 1.16025 0
M  V30 1886 H 178.371 -3.98263 1.3771 0
M  V30 1887 H 177.095 -3.24409 0.377708 0
M  V30 1888 H 175.754 -2.72959 2.44722 0
M  V30 1889 H 175.402 -4.8799 1.21961 0
M  V30 1890 H 175.102 -5.0731 2.96497 0
M  V30 1891 H 176.626 -5.67515 2.25297 0
M  V30 1892 H 178.04 -4.1598 3.94505 0
M  V30 1893 H 176.437 -3.79615 4.64771 0
M  V30 1894 H 177.507 -2.46341 4.17665 0
M  V30 1895 N 178.85 -1.27639 -0.924453 0
M  V30 1896 C 179.797 -1.10644 -2.0255 0
M  V30 1897 C 180.767 -0.00658438 -1.66099 0
M  V30 1898 O 181.952 -0.16952 -1.90045 0
M  V30 1899 C 179.092 -0.76309 -3.36557 0
M  V30 1900 C 178.205 -1.94091 -3.85944 0
M  V30 1901 C 177.34 -1.53914 -5.08413 0
M  V30 1902 C 176.379 -2.68425 -5.50104 0
M  V30 1903 N 175.516 -2.28815 -6.63768 0
M  V30 1904 H 180.356 -2.04858 -2.16419 0
M  V30 1905 H 177.893 -1.01974 -1.06017 0
M  V30 1906 H 179.851 -0.544822 -4.13627 0
M  V30 1907 H 178.481 0.142102 -3.22487 0
M  V30 1908 H 177.533 -2.27162 -3.05125 0
M  V30 1909 H 178.845 -2.7998 -4.12811 0
M  V30 1910 H 177.999 -1.28231 -5.92994 0
M  V30 1911 H 176.738 -0.651391 -4.8333 0
M  V30 1912 H 175.743 -2.94819 -4.64071 0
M  V30 1913 H 176.968 -3.57826 -5.7718 0
M  V30 1914 H 174.914 -1.42495 -6.40337 0
M  V30 1915 H 174.831 -3.08242 -6.90306 0
M  V30 1916 H 176.099 -2.06387 -7.51681 0
M  V30 1917 N 180.328 1.1314 -1.09713 0
M  V30 1918 C 181.275 2.18642 -0.739196 0
M  V30 1919 C 182.245 1.63706 0.280978 0
M  V30 1920 O 183.43 1.90111 0.161946 0
M  V30 1921 C 180.57 3.44685 -0.169102 0
M  V30 1922 C 179.683 4.13711 -1.24367 0
M  V30 1923 C 178.818 5.27379 -0.636019 0
M  V30 1924 C 177.857 5.88259 -1.69169 0
M  V30 1925 N 176.994 6.93352 -1.10485 0
M  V30 1926 H 181.834 2.48607 -1.64312 0
M  V30 1927 H 179.371 1.22066 -0.820875 0
M  V30 1928 H 181.329 4.16815 0.179256 0
M  V30 1929 H 179.959 3.15161 0.698079 0
M  V30 1930 H 179.011 3.39835 -1.70927 0
M  V30 1931 H 180.323 4.55037 -2.04311 0
M  V30 1932 H 179.477 6.06238 -0.236677 0
M  V30 1933 H 178.216 4.8731 0.194928 0
M  V30 1934 H 177.221 5.08092 -2.10055 0
M  V30 1935 H 178.446 6.30399 -2.52536 0
M  V30 1936 H 176.392 6.55335 -0.295234 0
M  V30 1937 H 176.309 7.33236 -1.84121 0
M  V30 1938 H 177.577 7.76057 -0.73181 0
M  V30 1939 N 181.806 0.884767 1.30421 0
M  V30 1940 C 182.738 0.308655 2.27112 0
M  V30 1941 C 183.751 -0.536655 1.53701 0
M  V30 1942 O 184.94 -0.35624 1.74909 0
M  V30 1943 C 182.04 -0.579782 3.33904 0
M  V30 1944 C 181.213 0.236417 4.36761 0
M  V30 1945 C 180.272 -0.582482 5.22966 0
M  V30 1946 O 179.298 -0.00525502 5.692 0
M  V30 1947 N 180.5 -1.89163 5.48815 0
M  V30 1948 H 183.265 1.13964 2.77186 0
M  V30 1949 H 180.826 0.747731 1.43599 0
M  V30 1950 H 182.818 -1.13366 3.88497 0
M  V30 1951 H 181.388 -1.31144 2.83761 0
M  V30 1952 H 180.608 0.97174 3.82035 0
M  V30 1953 H 181.896 0.795924 5.02536 0
M  V30 1954 H 181.294 -2.38352 5.13035 0
M  V30 1955 H 179.851 -2.39296 6.06284 0
M  V30 1956 N 183.284 -1.43765 0.645699 0
M  V30 1957 C 184.232 -2.32516 -0.0624849 0
M  V30 1958 C 185.226 -1.48183 -0.820855 0
M  V30 1959 O 186.432 -1.64439 -0.732106 0
M  V30 1960 H 182.807 -0.750989 -0.0389864 0
M  V30 1961 H 184.778 -2.89979 0.703892 0
M  V30 1962 C 183.527 -3.32389 -1.02044 0
M  V30 1963 H 182.85 -3.97301 -0.446312 0
M  V30 1964 H 184.29 -3.97138 -1.48517 0
M  V30 1965 C 182.749 -2.62416 -2.11281 0
M  V30 1966 O 183.279 -2.434 -3.19561 0
M  V30 1967 N 181.485 -2.21913 -1.87624 0
M  V30 1968 H 181.032 -2.37578 -0.995703 0
M  V30 1969 H 180.99 -1.75424 -2.6091 0
M  V30 1970 N 184.763 -0.387143 -1.52771 0
M  V30 1971 C 186.179 -0.037007 -1.59557 0
M  V30 1972 C 186.379 1.44801 -1.40124 0
M  V30 1973 O 185.435 2.21227 -1.21716 0
M  V30 1974 C 186.748 -0.512256 -2.96305 0
M  V30 1975 C 188.296 -0.468328 -3.09476 0
M  V30 1976 C 188.771 -0.919731 -4.4867 0
M  V30 1977 N 190.262 -0.875656 -4.54848 0
M  V30 1978 C 190.997 -1.19637 -5.6078 0
M  V30 1979 N 190.493 -1.58745 -6.74368 0
M  V30 1980 N 192.286 -1.11776 -5.50874 0
M  V30 1981 H 184.437 -1.35395 -1.63652 0
M  V30 1982 H 186.7 -0.554818 -0.768688 0
M  V30 1983 H 186.406 -1.54935 -3.15734 0
M  V30 1984 H 186.28 0.089805 -3.77093 0
M  V30 1985 H 188.667 0.559671 -2.89744 0
M  V30 1986 H 188.748 -1.10616 -2.30646 0
M  V30 1987 H 188.392 -1.94595 -4.69143 0
M  V30 1988 H 188.322 -0.258927 -5.25963 0
M  V30 1989 H 190.813 -0.587843 -3.733 0
M  V30 1990 H 191.126 -1.81586 -7.51163 0
M  V30 1991 H 189.471 -1.6263 -6.75705 0
M  V30 1992 H 192.662 -0.811264 -4.61016 0
M  V30 1993 H 192.835 -1.37103 -6.3333 0
M  V30 1994 N 186.241 1.57166 -0.116904 0
M  V30 1995 C 187.189 2.16457 0.851418 0
M  V30 1996 C 188.183 1.11323 1.27686 0
M  V30 1997 O 189.389 1.2963 1.24884 0
M  V30 1998 H 185.764 0.69271 0.292672 0
M  V30 1999 H 187.735 2.96605 0.32685 0
M  V30 2000 C 186.484 2.77689 2.09246 0
M  V30 2001 H 185.807 3.58285 1.77402 0
M  V30 2002 H 187.247 3.22716 2.7501 0
M  V30 2003 C 185.706 1.74667 2.88085 0
M  V30 2004 O 186.236 1.19877 3.83396 0
M  V30 2005 N 184.442 1.44656 2.52038 0
M  V30 2006 H 183.989 1.89402 1.74599 0
M  V30 2007 H 183.947 0.759675 3.05084 0
M  V30 2008 N 187.719 -0.156864 1.56817 0
M  V30 2009 C 188.649 -1.19589 2.00551 0
M  V30 2010 C 189.63 -1.4536 0.883426 0
M  V30 2011 O 190.815 -1.56449 1.15054 0
M  V30 2012 C 187.945 -2.53143 2.37773 0
M  V30 2013 C 186.899 -2.41913 3.53075 0
M  V30 2014 C 186.225 -3.80088 3.76081 0
M  V30 2015 C 187.525 -1.91157 4.86062 0
M  V30 2016 H 189.219 -0.832293 2.87599 0
M  V30 2017 H 186.765 -0.398918 1.38364 0
M  V30 2018 H 188.718 -3.26047 2.66967 0
M  V30 2019 H 187.442 -2.91319 1.4765 0
M  V30 2020 H 186.101 -1.71462 3.24031 0
M  V30 2021 H 185.749 -4.15683 2.83225 0
M  V30 2022 H 185.449 -3.73439 4.53671 0
M  V30 2023 H 186.973 -4.54556 4.0769 0
M  V30 2024 H 188.387 -2.53846 5.14038 0
M  V30 2025 H 186.784 -1.95422 5.67389 0
M  V30 2026 H 187.854 -0.866673 4.77092 0
M  V30 2027 N 189.197 -1.51736 -0.425897 0
M  V30 2028 C 190.144 -1.73875 -1.51776 0
M  V30 2029 C 191.114 -0.580702 -1.55618 0
M  V30 2030 O 192.299 -0.81641 -1.72451 0
M  V30 2031 C 189.439 -1.88012 -2.89388 0
M  V30 2032 C 188.552 -3.15606 -2.94986 0
M  V30 2033 C 187.687 -3.20271 -4.23793 0
M  V30 2034 C 186.726 -4.42134 -4.23302 0
M  V30 2035 N 185.863 -4.44284 -5.43651 0
M  V30 2036 H 190.703 -2.67071 -1.32201 0
M  V30 2037 H 188.24 -1.32351 -0.642008 0
M  V30 2038 H 190.198 -1.9419 -3.69251 0
M  V30 2039 H 188.828 -0.98213 -3.07496 0
M  V30 2040 H 187.88 -3.18681 -2.07717 0
M  V30 2041 H 189.192 -4.05486 -2.90486 0
M  V30 2042 H 188.346 -3.25428 -5.12036 0
M  V30 2043 H 187.085 -2.28299 -4.30965 0
M  V30 2044 H 186.09 -4.3714 -3.3345 0
M  V30 2045 H 187.315 -5.35382 -4.17783 0
M  V30 2046 H 185.261 -3.55188 -5.51523 0
M  V30 2047 H 185.178 -5.27988 -5.41078 0
M  V30 2048 H 186.446 -4.53649 -6.33895 0
M  V30 2049 N 190.675 0.682077 -1.42076 0
M  V30 2050 C 191.921 1.44428 -1.42367 0
M  V30 2051 C 192.254 1.94164 -0.0373056 0
M  V30 2052 O 191.529 1.70429 0.937239 0
M  V30 2053 C 191.812 2.64654 -2.44194 0
M  V30 2054 C 191.665 2.20596 -3.91991 0
M  V30 2055 C 192.984 3.66865 -2.431 0
M  V30 2056 H 190.103 0.523834 -0.518428 0
M  V30 2057 H 192.745 0.77576 -1.73442 0
M  V30 2058 H 190.895 3.2169 -2.17826 0
M  V30 2059 H 192.567 1.68783 -4.29313 0
M  V30 2060 H 190.81 1.52242 -4.06208 0
M  V30 2061 H 191.481 3.06921 -4.58807 0
M  V30 2062 H 193.957 3.19531 -2.66532 0
M  V30 2063 H 192.833 4.48577 -3.16339 0
M  V30 2064 H 193.094 4.17493 -1.45437 0
M  V30 2065 N 192.153 1.28127 0.917671 0
M  V30 2066 C 193.083 1.14248 2.03641 0
M  V30 2067 C 194.064 0.0412748 1.7005 0
M  V30 2068 O 195.249 0.217566 1.92977 0
M  V30 2069 C 192.379 0.799431 3.37974 0
M  V30 2070 C 191.333 1.85497 3.85713 0
M  V30 2071 C 190.659 1.36565 5.16966 0
M  V30 2072 C 191.959 3.26085 4.08002 0
M  V30 2073 H 193.653 2.07835 2.15511 0
M  V30 2074 H 191.199 1.00064 1.03553 0
M  V30 2075 H 193.152 0.689114 4.15727 0
M  V30 2076 H 191.876 -0.172145 3.26146 0
M  V30 2077 H 190.535 1.95437 3.10161 0
M  V30 2078 H 190.183 0.383253 5.01538 0
M  V30 2079 H 189.883 2.07143 5.49878 0
M  V30 2080 H 191.407 1.26848 5.97279 0
M  V30 2081 H 192.821 3.19089 4.76293 0
M  V30 2082 H 191.218 3.94462 4.52238 0
M  V30 2083 H 192.288 3.70394 3.12948 0
M  V30 2084 N 193.631 -1.12557 1.10312 0
M  V30 2085 C 194.561 -2.20341 0.772798 0
M  V30 2086 C 195.542 -1.68198 -0.25365 0
M  V30 2087 O 196.727 -1.93831 -0.119699 0
M  V30 2088 C 193.857 -3.46709 0.202443 0
M  V30 2089 C 192.811 -4.11996 1.15943 0
M  V30 2090 C 192.137 -5.328 0.450345 0
M  V30 2091 C 193.437 -4.5828 2.50552 0
M  V30 2092 H 195.131 -2.48229 1.674 0
M  V30 2093 H 192.677 -1.19308 0.806326 0
M  V30 2094 H 194.63 -4.2138 -0.0407752 0
M  V30 2095 H 193.354 -3.18245 -0.734001 0
M  V30 2096 H 192.013 -3.39305 1.38808 0
M  V30 2097 H 191.661 -5.00602 -0.490531 0
M  V30 2098 H 191.361 -5.7743 1.08851 0
M  V30 2099 H 192.885 -6.10219 0.215642 0
M  V30 2100 H 194.299 -5.2433 2.31843 0
M  V30 2101 H 192.696 -5.13683 3.10242 0
M  V30 2102 H 193.766 -3.72329 3.10643 0
M  V30 2103 N 195.109 -0.891671 -1.2995 0
M  V30 2104 C 196.334 -0.527932 -2.00568 0
M  V30 2105 C 196.759 0.877969 -1.66353 0
M  V30 2106 O 196.117 1.58301 -0.883762 0
M  V30 2107 C 196.165 -0.717745 -3.53385 0
M  V30 2108 O 195.269 0.233376 -4.11739 0
M  V30 2109 H 194.61 -0.20722 -0.630837 0
M  V30 2110 H 197.14 -1.20105 -1.65638 0
M  V30 2111 H 197.15 -0.619307 -4.03272 0
M  V30 2112 H 195.825 -1.74276 -3.77625 0
M  V30 2113 H 194.402 0.0880706 -3.72796 0
M  V30 2114 N 196.587 1.43421 -0.653314 0
M  V30 2115 C 197.836 2.01032 -0.164076 0
M  V30 2116 C 198.149 1.52147 1.22926 0
M  V30 2117 O 199.355 2.02031 1.81371 0
M  V30 2118 C 197.811 3.59082 -0.24252 0
M  V30 2119 C 197.419 4.1696 -1.63855 0
M  V30 2120 C 199.163 4.24079 0.18911 0
M  V30 2121 C 197.07 5.67304 -1.67092 0
M  V30 2122 H 196 0.751798 -0.0575769 0
M  V30 2123 H 198.651 1.6439 -0.815362 0
M  V30 2124 H 197.033 3.93125 0.476276 0
M  V30 2125 H 198.207 3.94416 -2.38271 0
M  V30 2126 H 196.522 3.64335 -2.01616 0
M  V30 2127 H 199.119 5.34381 0.184775 0
M  V30 2128 H 199.462 3.98005 1.22056 0
M  V30 2129 H 199.995 3.94918 -0.477938 0
M  V30 2130 H 196.734 5.98145 -2.68146 0
M  V30 2131 H 196.254 5.91904 -0.970014 0
M  V30 2132 H 197.933 6.31344 -1.4147 0
M  V30 2133 N 198.065 0.39524 1.52563 0
M  V30 2134 C 199.313 -0.184678 2.01254 0
M  V30 2135 C 199.634 -1.46822 1.28329 0
M  V30 2136 O 198.904 -1.91666 0.405094 0
M  V30 2137 H 197.484 -0.0712355 0.743596 0
M  V30 2138 H 200.146 0.528293 1.87603 0
M  V30 2139 H 199.242 -0.390681 3.09645 0
M  V30 2140 N 199.544 -1.57102 0.125237 0
M  V30 2141 C 200.792 -1.95021 -0.530198 0
M  V30 2142 C 201.113 -1.00982 -1.66816 0
M  V30 2143 O 200.383 -0.0672693 -1.95784 0
M  V30 2144 H 198.963 -0.720046 -0.198853 0
M  V30 2145 H 201.625 -1.93916 0.19564 0
M  V30 2146 H 200.721 -2.98211 -0.920681 0
M  V30 2147 N 201.022 0.148545 -1.56898 0
M  V30 2148 C 202.268 0.857877 -1.84424 0
M  V30 2149 C 202.623 1.7886 -0.709006 0
M  V30 2150 O 201.916 1.89344 0.293139 0
M  V30 2151 C 202.11 1.67064 -3.1595 0
M  V30 2152 C 201.939 0.82011 -4.42159 0
M  V30 2153 C 200.709 0.486328 -5.02954 0
M  V30 2154 C 202.907 0.151155 -5.14078 0
M  V30 2155 N 200.889 -0.377956 -6.12735 0
M  V30 2156 C 202.26 -0.573333 -6.17343 0
M  V30 2157 C 204.315 0.0716685 -4.97848 0
M  V30 2158 C 203.018 -1.3698 -7.06137 0
M  V30 2159 C 205.044 -0.711532 -5.87104 0
M  V30 2160 C 204.406 -1.42431 -6.8985 0
M  V30 2161 H 200.505 0.291798 -0.725519 0
M  V30 2162 H 203.089 0.123347 -1.94309 0
M  V30 2163 H 201.26 2.37642 -3.07215 0
M  V30 2164 H 202.992 2.32302 -3.31388 0
M  V30 2165 H 199.747 0.821753 -4.66416 0
M  V30 2166 H 200.171 -0.801077 -6.72244 0
M  V30 2167 H 204.813 0.608381 -4.184 0
M  V30 2168 H 202.531 -1.91778 -7.85014 0
M  V30 2169 H 206.117 -0.775005 -5.76615 0
M  V30 2170 H 204.997 -2.02061 -7.57721 0
M  V30 2171 N 202.5 1.5196 0.417844 0
M  V30 2172 C 203.728 1.69426 1.18753 0
M  V30 2173 C 204.143 0.399955 1.84515 0
M  V30 2174 O 203.5 -0.623288 1.71527 0
M  V30 2175 C 203.551 2.82375 2.25714 0
M  V30 2176 O 203.272 4.06793 1.62638 0
M  V30 2177 C 204.773 3.11277 3.15628 0
M  V30 2178 H 201.993 0.568031 0.357186 0
M  V30 2179 H 204.537 1.98475 0.49273 0
M  V30 2180 H 202.692 2.5587 2.90877 0
M  V30 2181 H 203.106 4.69667 2.3348 0
M  V30 2182 H 204.58 3.93843 3.86771 0
M  V30 2183 H 205.057 2.24473 3.77503 0
M  V30 2184 H 205.663 3.39515 2.56144 0
M  V30 2185 N 203.978 -0.674533 1.42435 0
M  V30 2186 C 205.208 -1.46071 1.46105 0
M  V30 2187 C 205.616 -1.89067 0.0709605 0
M  V30 2188 O 204.959 -1.58731 -0.924677 0
M  V30 2189 C 205.021 -2.74145 2.32561 0
M  V30 2190 C 204.685 -2.53224 3.8043 0
M  V30 2191 C 205.682 -2.17809 4.72075 0
M  V30 2192 C 203.367 -2.6821 4.24698 0
M  V30 2193 C 205.361 -1.97648 6.05982 0
M  V30 2194 C 203.048 -2.47665 5.58664 0
M  V30 2195 C 204.046 -2.12437 6.49122 0
M  V30 2196 O 203.734 -1.9209 7.80613 0
M  V30 2197 H 203.466 -0.455959 0.499076 0
M  V30 2198 H 206.02 -0.836193 1.87609 0
M  V30 2199 H 204.25 -3.3908 1.85908 0
M  V30 2200 H 205.939 -3.36028 2.27683 0
M  V30 2201 H 206.705 -2.05826 4.39159 0
M  V30 2202 H 202.584 -2.94609 3.54579 0
M  V30 2203 H 206.128 -1.70075 6.7655 0
M  V30 2204 H 202.025 -2.59244 5.91154 0
M  V30 2205 H 202.793 -2.06686 7.91974 0
M  V30 2206 N 205.456 -1.28612 -0.910864 0
M  V30 2207 C 206.681 -1.1891 -1.69927 0
M  V30 2208 C 207.106 0.248372 -1.86453 0
M  V30 2209 O 206.464 1.17961 -1.37676 0
M  V30 2210 C 206.512 -1.89578 -3.06745 0
M  V30 2211 O 205.616 -1.20521 -3.94396 0
M  V30 2212 H 204.957 -0.412632 -0.520222 0
M  V30 2213 H 207.487 -1.69985 -1.1387 0
M  V30 2214 H 207.497 -1.97597 -3.56958 0
M  V30 2215 H 206.172 -2.94136 -2.94035 0
M  V30 2216 H 204.749 -1.20684 -3.52831 0
M  V30 2217 N 206.934 1.1197 -1.10907 0
M  V30 2218 C 208.345 1.65114 -0.871446 0
M  V30 2219 C 208.696 1.86885 0.597353 0
M  V30 2220 O 207.821 1.59896 1.45816 0
M  V30 2221 C 208.416 2.99944 -1.5754 0
M  V30 2222 C 206.975 3.50018 -1.38435 0
M  V30 2223 C 206.122 2.24941 -1.62164 0
M  V30 2224 H 209.073 0.956851 -1.2661 0
M  V30 2225 H 209.094 3.66651 -1.01721 0
M  V30 2226 H 208.606 2.84067 -2.64438 0
M  V30 2227 H 206.707 3.71071 -0.337214 0
M  V30 2228 H 206.82 4.29165 -2.12965 0
M  V30 2229 H 205.184 2.3229 -1.04467 0
M  V30 2230 H 205.967 2.11612 -2.70324 0
M  V30 2231 N 208.412 0.89855 1.29475 0
M  V30 2232 C 209.36 0.365253 2.29714 0
M  V30 2233 C 210.354 -0.534993 1.6073 0
M  V30 2234 O 211.56 -0.417921 1.75081 0
M  V30 2235 H 207.935 0.0994853 0.74539 0
M  V30 2236 H 209.906 1.22406 2.72138 0
M  V30 2237 C 208.655 -0.393159 3.4547 0
M  V30 2238 H 207.978 0.290332 3.98744 0
M  V30 2239 H 209.418 -0.731189 4.17648 0
M  V30 2240 C 207.877 -1.59539 2.9673 0
M  V30 2241 O 208.407 -2.69469 2.97908 0
M  V30 2242 N 206.613 -1.43716 2.52575 0
M  V30 2243 H 206.16 -0.542828 2.51816 0
M  V30 2244 H 206.118 -2.24288 2.20323 0
M  V30 2245 N 209.89 -1.43072 0.660911 0
M  V30 2246 C 211.137 -2.01721 0.177445 0
M  V30 2247 C 211.465 -1.5218 -1.21126 0
M  V30 2248 O 210.72 -0.708659 -1.82419 0
M  V30 2249 C 211.019 -3.57103 0.145563 0
M  V30 2250 C 210.685 -4.26021 1.47705 0
M  V30 2251 C 209.347 -4.44563 1.84165 0
M  V30 2252 C 211.699 -4.64983 2.35458 0
M  V30 2253 C 209.027 -4.99334 3.0803 0
M  V30 2254 C 211.379 -5.21127 3.58622 0
M  V30 2255 C 210.043 -5.37884 3.95268 0
M  V30 2256 H 209.313 -0.73815 0.0649317 0
M  V30 2257 H 211.96 -1.71446 0.853144 0
M  V30 2258 H 210.265 -3.86965 -0.61361 0
M  V30 2259 H 211.962 -4.00248 -0.2455 0
M  V30 2260 H 208.552 -4.11939 1.18339 0
M  V30 2261 H 212.736 -4.50343 2.08579 0
M  V30 2262 H 207.992 -5.10493 3.36462 0
M  V30 2263 H 212.166 -5.50262 4.26831 0
M  V30 2264 H 209.793 -5.80089 4.91325 0
M  V30 2265 N 211.368 -0.403325 -1.52352 0
M  V30 2266 C 212.331 0.413051 -2.25447 0
M  V30 2267 C 213.331 0.978513 -1.276 0
M  V30 2268 O 214.521 0.858305 -1.51587 0
M  V30 2269 C 211.653 1.58087 -3.02029 0
M  V30 2270 H 212.846 -0.227094 -2.99039 0
M  V30 2271 H 210.399 -0.155722 -1.55522 0
M  V30 2272 H 211.134 2.25804 -2.32772 0
M  V30 2273 H 210.919 1.18195 -3.73861 0
M  V30 2274 H 212.409 2.1585 -3.57489 0
M  V30 2275 N 212.846 1.57033 -0.133567 0
M  V30 2276 C 214.257 1.82593 0.389464 0
M  V30 2277 C 214.608 1.05156 1.6564 0
M  V30 2278 O 213.733 0.292644 2.14412 0
M  V30 2279 C 214.328 3.31204 0.713377 0
M  V30 2280 C 212.887 3.57393 1.18098 0
M  V30 2281 C 212.034 2.76598 0.197126 0
M  V30 2282 H 214.985 1.54598 -0.358481 0
M  V30 2283 H 215.006 3.46627 1.56939 0
M  V30 2284 H 214.518 3.87537 -0.2089 0
M  V30 2285 H 212.619 3.06433 2.11966 0
M  V30 2286 H 212.732 4.65915 1.11624 0
M  V30 2287 H 211.096 2.45257 0.687088 0
M  V30 2288 H 211.879 3.35697 -0.718504 0
M  V30 2289 N 214.325 -0.140222 1.56975 0
M  V30 2290 C 215.288 -1.15689 1.97861 0
M  V30 2291 C 216.288 -1.3549 0.865974 0
M  V30 2292 O 217.478 -1.32367 1.13246 0
M  V30 2293 C 214.61 -2.51582 2.30042 0
M  V30 2294 H 215.803 -0.805971 2.88867 0
M  V30 2295 H 213.356 -0.383801 1.51515 0
M  V30 2296 H 214.091 -2.91632 1.41849 0
M  V30 2297 H 213.876 -2.38569 3.11171 0
M  V30 2298 H 215.366 -3.24792 2.62488 0
M  V30 2299 N 215.803 -1.52179 -0.40978 0
M  V30 2300 C 216.766 -1.74853 -1.48186 0
M  V30 2301 C 217.766 -0.618417 -1.48433 0
M  V30 2302 O 218.956 -0.886286 -1.49969 0
M  V30 2303 C 216.088 -1.8303 -2.87598 0
M  V30 2304 H 217.281 -2.70559 -1.29374 0
M  V30 2305 H 214.834 -1.42586 -0.640233 0
M  V30 2306 H 215.569 -0.89236 -3.11781 0
M  V30 2307 H 215.354 -2.65187 -2.88822 0
M  V30 2308 H 216.844 -2.02316 -3.65319 0
M  V30 2309 N 217.281 0.66697 -1.42791 0
M  V30 2310 C 218.506 1.46004 -1.47301 0
M  V30 2311 C 218.931 1.87894 -0.0880317 0
M  V30 2312 O 218.289 1.56502 0.915253 0
M  V30 2313 C 218.337 2.68031 -2.41229 0
M  V30 2314 O 217.441 3.6659 -1.88906 0
M  V30 2315 H 216.782 0.43832 -0.49877 0
M  V30 2316 H 219.312 0.817391 -1.87563 0
M  V30 2317 H 219.322 3.1601 -2.58073 0
M  V30 2318 H 217.997 2.36883 -3.41847 0
M  V30 2319 H 216.574 3.25661 -1.81656 0
M  V30 2320 N 218.759 1.29093 0.90403 0
M  V30 2321 C 219.987 1.19689 1.68766 0
M  V30 2322 C 220.402 -0.243113 1.87228 0
M  V30 2323 O 219.759 -1.16326 1.40621 0
M  V30 2324 C 219.81 1.90144 3.07453 0
M  V30 2325 O 219.531 3.2852 2.89838 0
M  V30 2326 C 221.032 1.87162 4.01852 0
M  V30 2327 H 218.252 0.415035 0.527244 0
M  V30 2328 H 220.796 1.7039 1.13082 0
M  V30 2329 H 218.951 1.43289 3.59926 0
M  V30 2330 H 219.365 3.63944 3.77684 0
M  V30 2331 H 220.839 2.41032 4.96596 0
M  V30 2332 H 221.316 0.84617 4.30972 0
M  V30 2333 H 221.922 2.33741 3.5531 0
M  V30 2334 N 220.237 -1.11381 1.11499 0
M  V30 2335 C 221.514 -1.7955 0.775965 0
M  V30 2336 C 221.894 -1.97859 -0.73588 0
M  V30 2337 O 221.242 -1.56376 -1.66609 0
M  V30 2338 C 221.452 -3.13196 1.53977 0
M  V30 2339 C 222.8 -3.88227 1.71944 0
M  V30 2340 O 223.824 -3.22887 1.50407 0
M  V30 2341 O 222.683 -5.05477 2.07738 0
M  V30 2342 H 219.777 -0.777728 0.28119 0
M  V30 2343 H 222.323 -1.18118 1.21845 0
M  V30 2344 H 221.095 -2.95229 2.56818 0
M  V30 2345 H 220.718 -3.82342 1.09088 0
M  V30 2346 N 221.715 -0.905404 -1.28997 0
M  V30 2347 C 222.678 -0.392253 -2.25819 0
M  V30 2348 C 223.678 0.476753 -1.5357 0
M  V30 2349 O 224.868 0.280994 -1.71919 0
M  V30 2350 C 222 0.438588 -3.38067 0
M  V30 2351 H 223.193 -1.24743 -2.72725 0
M  V30 2352 H 220.746 -0.684051 -1.40536 0
M  V30 2353 H 221.481 1.31352 -2.96508 0
M  V30 2354 H 221.266 -0.184167 -3.91667 0
M  V30 2355 H 222.756 0.78873 -4.10084 0
M  V30 2356 N 223.193 1.4272 -0.668489 0
M  V30 2357 C 224.441 2.01226 -0.187769 0
M  V30 2358 C 224.762 1.53092 1.2078 0
M  V30 2359 O 224.032 0.74993 1.80977 0
M  V30 2360 H 222.612 0.744041 -0.0664272 0
M  V30 2361 H 225.274 1.74723 -0.863583 0
M  V30 2362 H 224.37 3.11556 -0.184166 0
M  V30 2363 N 224.671 0.411399 1.52136 0
M  V30 2364 C 226.087 0.0623865 1.59478 0
M  V30 2365 C 226.287 -1.42554 1.4241 0
M  V30 2366 O 225.343 -2.19263 1.2522 0
M  V30 2367 C 226.656 0.559331 2.95452 0
M  V30 2368 C 228.204 0.517503 3.08692 0
M  V30 2369 C 228.679 0.990994 4.4715 0
M  V30 2370 N 230.17 0.947908 4.53397 0
M  V30 2371 C 230.905 1.28544 5.58806 0
M  V30 2372 N 230.401 1.69454 6.71757 0
M  V30 2373 N 232.194 1.20526 5.49026 0
M  V30 2374 H 224.345 1.37982 1.61477 0
M  V30 2375 H 226.608 0.566977 0.759764 0
M  V30 2376 H 226.314 1.59938 3.1323 0
M  V30 2377 H 226.188 -0.0298014 3.77188 0
M  V30 2378 H 228.575 -0.513505 2.90598 0
M  V30 2379 H 228.656 1.14272 2.28857 0
M  V30 2380 H 228.3 2.02034 4.65988 0
M  V30 2381 H 228.23 0.34257 5.25485 0
M  V30 2382 H 230.721 0.647157 3.72317 0
M  V30 2383 H 231.034 1.93513 7.48179 0
M  V30 2384 H 229.379 1.73359 6.73032 0
M  V30 2385 H 232.57 0.884505 4.59667 0
M  V30 2386 H 232.743 1.47161 6.31069 0
M  V30 2387 N 226.149 -1.5696 0.141893 0
M  V30 2388 C 227.096 -2.16501 -0.799737 0
M  V30 2389 C 228.066 -1.09643 -1.24771 0
M  V30 2390 O 229.251 -1.3766 -1.32115 0
M  V30 2391 C 226.391 -2.78679 -2.03549 0
M  V30 2392 C 225.504 -3.99914 -1.6338 0
M  V30 2393 C 224.639 -4.50106 -2.82096 0
M  V30 2394 C 223.678 -5.63819 -2.38275 0
M  V30 2395 N 222.815 -6.08651 -3.49983 0
M  V30 2396 H 227.655 -2.96632 -0.285179 0
M  V30 2397 H 225.192 -1.46533 -0.129053 0
M  V30 2398 H 227.15 -3.1287 -2.75986 0
M  V30 2399 H 225.78 -2.012 -2.52425 0
M  V30 2400 H 224.832 -3.71735 -0.807279 0
M  V30 2401 H 226.144 -4.82311 -1.27192 0
M  V30 2402 H 225.298 -4.86325 -3.62729 0
M  V30 2403 H 224.037 -3.66706 -3.21525 0
M  V30 2404 H 223.042 -5.2718 -1.56081 0
M  V30 2405 H 224.267 -6.49 -1.99938 0
M  V30 2406 H 222.213 -5.28188 -3.89042 0
M  V30 2407 H 222.13 -6.85961 -3.17794 0
M  V30 2408 H 223.398 -6.49515 -4.30988 0
M  V30 2409 N 227.627 0.131896 -1.57047 0
M  V30 2410 C 228.575 1.18146 -2.0036 0
M  V30 2411 C 229.569 1.43614 -0.898406 0
M  V30 2412 O 230.775 1.43729 -1.08361 0
M  V30 2413 H 227.15 0.398042 -0.638018 0
M  V30 2414 H 229.121 0.789564 -2.87765 0
M  V30 2415 C 227.87 2.50341 -2.41298 0
M  V30 2416 H 227.193 2.31578 -3.25902 0
M  V30 2417 H 228.633 3.22371 -2.75414 0
M  V30 2418 C 227.092 3.11984 -1.27153 0
M  V30 2419 O 227.622 3.97484 -0.580459 0
M  V30 2420 N 225.828 2.71662 -1.03189 0
M  V30 2421 H 225.375 2.02231 -1.59564 0
M  V30 2422 H 225.333 3.13238 -0.270077 0
M  V30 2423 N 229.106 1.52395 0.401703 0
M  V30 2424 C 230.353 1.66817 1.14796 0
M  V30 2425 C 230.681 0.401772 1.90305 0
M  V30 2426 O 229.936 -0.615487 1.85769 0
M  V30 2427 C 230.235 2.84578 2.16217 0
M  V30 2428 C 229.901 4.22513 1.5746 0
M  V30 2429 C 228.563 4.60029 1.41161 0
M  V30 2430 C 230.915 5.0844 1.14622 0
M  V30 2431 C 228.243 5.81144 0.80552 0
M  V30 2432 C 230.595 6.30167 0.55428 0
M  V30 2433 C 229.259 6.66426 0.378482 0
M  V30 2434 H 228.529 0.610428 0.420069 0
M  V30 2435 H 231.176 1.86512 0.434212 0
M  V30 2436 H 229.481 2.59248 2.93764 0
M  V30 2437 H 231.178 2.92933 2.73845 0
M  V30 2438 H 227.768 3.92953 1.71132 0
M  V30 2439 H 231.952 4.80034 1.26021 0
M  V30 2440 H 227.208 6.07855 0.657399 0
M  V30 2441 H 231.382 6.96071 0.213983 0
M  V30 2442 H 229.009 7.60143 -0.0932606 0
M  V30 2443 N 230.584 -0.659388 1.43143 0
M  V30 2444 C 231.547 -1.75432 1.47501 0
M  V30 2445 C 232.547 -1.56707 0.360512 0
M  V30 2446 O 233.737 -1.62717 0.622002 0
M  V30 2447 C 230.869 -3.14239 1.32162 0
M  V30 2448 H 232.062 -1.7295 2.45006 0
M  V30 2449 H 229.615 -0.870469 1.29817 0
M  V30 2450 H 230.35 -3.22336 0.356401 0
M  V30 2451 H 230.135 -3.29235 2.12948 0
M  V30 2452 H 231.625 -3.94094 1.3813 0
M  V30 2453 N 232.062 -1.29571 -0.897171 0
M  V30 2454 C 233.009 -1.14916 -2.00158 0
M  V30 2455 C 233.979 -0.0418149 -1.66047 0
M  V30 2456 O 235.164 -0.209793 -1.89643 0
M  V30 2457 C 232.304 -0.834307 -3.34863 0
M  V30 2458 C 231.417 -2.02234 -3.8174 0
M  V30 2459 C 230.552 -1.64664 -5.05034 0
M  V30 2460 C 229.591 -2.80033 -5.44286 0
M  V30 2461 N 228.728 -2.42843 -6.58765 0
M  V30 2462 H 233.568 -2.09403 -2.12025 0
M  V30 2463 H 231.105 -1.042 -1.0383 0
M  V30 2464 H 233.063 -0.632436 -4.12379 0
M  V30 2465 H 231.693 0.0736656 -3.22716 0
M  V30 2466 H 230.745 -2.33583 -3.00238 0
M  V30 2467 H 232.057 -2.88673 -4.06779 0
M  V30 2468 H 231.211 -1.4078 -5.9014 0
M  V30 2469 H 229.95 -0.753766 -4.8184 0
M  V30 2470 H 228.955 -3.04596 -4.57713 0
M  V30 2471 H 230.18 -3.69989 -5.6946 0
M  V30 2472 H 228.126 -1.56046 -6.3717 0
M  V30 2473 H 228.043 -3.22815 -6.83613 0
M  V30 2474 H 229.311 -2.22285 -7.47134 0
M  V30 2475 N 233.54 1.10788 -1.12088 0
M  V30 2476 C 234.768 1.86461 -0.896651 0
M  V30 2477 C 235.183 1.80492 0.553912 0
M  V30 2478 O 234.54 1.19102 1.38278 0
M  V30 2479 C 234.591 3.35006 -1.35843 0
M  V30 2480 O 234.312 3.40866 -2.75213 0
M  V30 2481 C 235.813 4.27565 -1.1706 0
M  V30 2482 H 233.033 0.589425 -0.320654 0
M  V30 2483 H 235.577 1.40076 -1.48993 0
M  V30 2484 H 233.732 3.7887 -0.808458 0
M  V30 2485 H 234.146 4.33411 -2.9539 0
M  V30 2486 H 235.62 5.30007 -1.54263 0
M  V30 2487 H 236.097 4.3906 -0.110814 0
M  V30 2488 H 236.703 3.89501 -1.70789 0
M  V30 2489 N 235.018 0.912232 1.28515 0
M  V30 2490 C 235.981 0.404223 2.25607 0
M  V30 2491 C 236.981 -0.468602 1.53821 0
M  V30 2492 O 238.171 -0.271873 1.72065 0
M  V30 2493 C 235.303 -0.420653 3.38295 0
M  V30 2494 H 236.496 1.26188 2.7206 0
M  V30 2495 H 234.049 0.691495 1.40171 0
M  V30 2496 H 234.784 -1.29777 2.97201 0
M  V30 2497 H 234.569 0.204935 3.91564 0
M  V30 2498 H 236.059 -0.766971 4.10496 0
M  V30 2499 N 236.496 -1.42363 0.676048 0
M  V30 2500 C 237.742 -2.0182 0.199125 0
M  V30 2501 C 238.075 -1.53339 -1.19168 0
M  V30 2502 O 237.35 -0.736124 -1.80032 0
M  V30 2503 C 237.633 -3.59331 0.235144 0
M  V30 2504 C 237.486 -4.17989 1.66149 0
M  V30 2505 C 238.805 -4.3813 -0.41595 0
M  V30 2506 H 235.924 -0.733293 0.0738311 0
M  V30 2507 H 238.566 -1.69368 0.86107 0
M  V30 2508 H 236.716 -3.87109 -0.328487 0
M  V30 2509 H 238.388 -4.0116 2.27747 0
M  V30 2510 H 236.631 -3.7377 2.20178 0
M  V30 2511 H 237.302 -5.27126 1.63837 0
M  V30 2512 H 239.778 -4.16051 0.0638529 0
M  V30 2513 H 238.654 -5.47717 -0.360115 0
M  V30 2514 H 238.915 -4.16101 -1.49373 0
M  V30 2515 N 237.974 -0.419461 -1.51915 0
M  V30 2516 C 238.921 0.400927 -2.27291 0
M  V30 2517 C 239.891 1.03224 -1.30131 0
M  V30 2518 O 241.076 1.05455 -1.59009 0
M  V30 2519 C 238.216 1.50603 -3.10504 0
M  V30 2520 C 237.329 0.89462 -4.22635 0
M  V30 2521 C 236.464 1.97328 -4.93189 0
M  V30 2522 C 235.503 1.33935 -5.97267 0
M  V30 2523 N 234.64 2.3586 -6.61298 0
M  V30 2524 H 239.48 -0.248251 -2.96964 0
M  V30 2525 H 237.017 -0.134266 -1.46486 0
M  V30 2526 H 238.975 2.15783 -3.57062 0
M  V30 2527 H 237.605 2.12509 -2.42981 0
M  V30 2528 H 236.657 0.131583 -3.80172 0
M  V30 2529 H 237.969 0.391641 -4.9726 0
M  V30 2530 H 237.123 2.70211 -5.43204 0
M  V30 2531 H 235.862 2.50994 -4.18155 0
M  V30 2532 H 234.867 0.595896 -5.46561 0
M  V30 2533 H 236.092 0.810252 -6.74249 0
M  V30 2534 H 234.038 2.88639 -5.89087 0
M  V30 2535 H 233.955 1.90403 -7.3163 0
M  V30 2536 H 235.223 3.08282 -7.15949 0
M  V30 2537 N 239.452 1.56882 -0.150215 0
M  V30 2538 C 240.382 2.19935 0.784284 0
M  V30 2539 C 241.363 1.14854 1.25469 0
M  V30 2540 O 242.548 1.43209 1.31168 0
M  V30 2541 C 239.678 2.82349 2.02229 0
M  V30 2542 C 238.632 3.93285 1.68853 0
M  V30 2543 C 237.958 4.42649 2.99944 0
M  V30 2544 C 239.258 5.13904 0.932714 0
M  V30 2545 H 240.952 2.9828 0.258781 0
M  V30 2546 H 238.498 1.43473 0.123029 0
M  V30 2547 H 240.451 3.25126 2.68088 0
M  V30 2548 H 239.175 2.0134 2.57157 0
M  V30 2549 H 237.834 3.5113 1.05371 0
M  V30 2550 H 237.482 3.58458 3.52869 0
M  V30 2551 H 237.182 5.17476 2.78374 0
M  V30 2552 H 238.706 4.88099 3.66868 0
M  V30 2553 H 240.12 5.53506 1.49345 0
M  V30 2554 H 238.517 5.94515 0.81684 0
M  V30 2555 H 239.587 4.84842 -0.0749568 0
M  V30 2556 N 240.93 -0.123565 1.57115 0
M  V30 2557 C 241.86 -1.15309 2.03042 0
M  V30 2558 C 242.841 -1.43454 0.914061 0
M  V30 2559 O 244.026 -1.53973 1.18347 0
M  V30 2560 C 241.156 -2.48043 2.43089 0
M  V30 2561 C 240.11 -2.3437 3.58127 0
M  V30 2562 C 239.436 -3.72026 3.84059 0
M  V30 2563 C 240.736 -1.80804 4.90007 0
M  V30 2564 H 242.43 -0.771102 2.893 0
M  V30 2565 H 239.976 -0.369479 1.39179 0
M  V30 2566 H 241.929 -3.20311 2.73823 0
M  V30 2567 H 240.653 -2.88122 1.53796 0
M  V30 2568 H 239.312 -1.64551 3.27595 0
M  V30 2569 H 238.96 -4.09582 2.91979 0
M  V30 2570 H 238.66 -3.63732 4.6149 0
M  V30 2571 H 240.184 -4.45806 4.1724 0
M  V30 2572 H 241.598 -2.42886 5.19307 0
M  V30 2573 H 239.995 -1.83343 5.71407 0
M  V30 2574 H 241.065 -0.76528 4.78823 0
M  V30 2575 N 242.408 -1.52605 -0.393616 0
M  V30 2576 C 243.34 -1.73303 -1.49995 0
M  V30 2577 C 244.353 -0.613473 -1.50799 0
M  V30 2578 O 245.542 -0.889049 -1.54784 0
M  V30 2579 C 242.642 -1.77245 -2.88855 0
M  V30 2580 C 241.815 -3.06483 -3.12069 0
M  V30 2581 C 240.874 -3.02033 -4.30886 0
M  V30 2582 O 239.9 -3.75907 -4.27414 0
M  V30 2583 N 241.102 -2.20897 -5.36828 0
M  V30 2584 H 243.867 -2.68756 -1.32629 0
M  V30 2585 H 241.428 -1.51036 -0.583083 0
M  V30 2586 H 243.42 -1.7178 -3.66434 0
M  V30 2587 H 241.99 -0.891993 -2.99603 0
M  V30 2588 H 241.21 -3.25474 -2.22396 0
M  V30 2589 H 242.498 -3.91947 -3.2443 0
M  V30 2590 H 241.896 -1.60336 -5.42502 0
M  V30 2591 H 240.453 -2.21275 -6.13091 0
M  V30 2592 N 243.887 0.651787 -1.4349 0
M  V30 2593 C 245.164 1.40909 -1.35661 0
M  V30 2594 C 245.544 2.11099 -0.00511733 0
M  V30 2595 O 244.892 2.04892 1.0115 0
M  V30 2596 C 245.102 2.3926 -2.54078 0
M  V30 2597 C 246.45 3.03217 -2.97228 0
M  V30 2598 O 247.474 2.49588 -2.54135 0
M  V30 2599 O 246.333 4.00455 -3.71885 0
M  V30 2600 H 243.427 0.629625 -0.536191 0
M  V30 2601 H 245.973 0.678575 -1.55542 0
M  V30 2602 H 244.745 1.86352 -3.44076 0
M  V30 2603 H 244.368 3.1976 -2.36303 0
M  V30 2604 N 245.365 1.30045 0.890287 0
M  V30 2605 C 246.295 1.18541 2.01172 0
M  V30 2606 C 247.276 0.0773356 1.69924 0
M  V30 2607 O 248.461 0.25845 1.92473 0
M  V30 2608 C 245.591 0.870941 3.36202 0
M  V30 2609 C 244.545 1.93637 3.81692 0
M  V30 2610 C 243.871 1.475 5.13953 0
M  V30 2611 C 245.171 3.34666 4.00994 0
M  V30 2612 H 246.865 2.12359 2.11054 0
M  V30 2613 H 244.411 1.02238 1.01407 0
M  V30 2614 H 246.364 0.777141 4.14172 0
M  V30 2615 H 245.088 -0.102926 3.26438 0
M  V30 2616 H 243.747 2.01972 3.05946 0
M  V30 2617 H 243.395 0.489551 5.00612 0
M  V30 2618 H 243.095 2.1876 5.4536 0
M  V30 2619 H 244.619 1.39489 5.94454 0
M  V30 2620 H 246.033 3.2912 4.69417 0
M  V30 2621 H 244.43 4.03966 4.43769 0
M  V30 2622 H 245.5 3.76949 3.05021 0
M  V30 2623 N 246.843 -1.10192 1.12674 0
M  V30 2624 C 248.091 -1.81845 0.881861 0
M  V30 2625 C 248.412 -1.85737 -0.593867 0
M  V30 2626 O 247.682 -1.33724 -1.4316 0
M  V30 2627 H 246.262 -0.673432 0.323261 0
M  V30 2628 H 248.924 -1.33316 1.42172 0
M  V30 2629 H 248.02 -2.85288 1.2656 0
M  V30 2630 N 248.321 -0.919034 -1.28029 0
M  V30 2631 C 249.568 -0.554934 -1.94748 0
M  V30 2632 C 249.896 0.90231 -1.72304 0
M  V30 2633 O 249.151 1.65767 -1.04018 0
M  V30 2634 C 249.45 -0.816855 -3.4794 0
M  V30 2635 C 249.116 -2.25448 -3.90492 0
M  V30 2636 C 247.778 -2.64752 -4.01821 0
M  V30 2637 C 250.13 -3.18977 -4.12193 0
M  V30 2638 C 247.458 -3.96727 -4.32232 0
M  V30 2639 C 249.81 -4.50523 -4.44086 0
M  V30 2640 C 248.474 -4.89673 -4.53626 0
M  V30 2641 H 247.744 -0.203065 -0.712633 0
M  V30 2642 H 250.391 -1.16136 -1.52265 0
M  V30 2643 H 248.696 -0.127677 -3.91592 0
M  V30 2644 H 250.393 -0.514238 -3.97689 0
M  V30 2645 H 246.983 -1.93952 -3.82205 0
M  V30 2646 H 251.167 -2.89817 -4.02889 0
M  V30 2647 H 246.423 -4.26754 -4.37825 0
M  V30 2648 H 250.597 -5.23005 -4.59825 0
M  V30 2649 H 248.224 -5.91969 -4.76946 0
M  V30 2650 N 249.799 1.42003 -0.683588 0
M  V30 2651 C 251.076 1.95112 -0.138075 0
M  V30 2652 C 251.456 1.62359 1.34918 0
M  V30 2653 O 250.804 0.924311 2.08971 0
M  V30 2654 C 251.014 3.46505 -0.416581 0
M  V30 2655 C 252.362 4.23254 -0.337834 0
M  V30 2656 O 253.386 3.54468 -0.35082 0
M  V30 2657 O 252.245 5.45743 -0.287596 0
M  V30 2658 H 249.339 0.826961 -0.00797996 0
M  V30 2659 H 251.885 1.51784 -0.758924 0
M  V30 2660 H 250.657 3.63582 -1.4465 0
M  V30 2661 H 250.28 3.969 0.235839 0
M  V30 2662 N 251.277 0.427512 1.51691 0
M  V30 2663 C 252.525 -0.141948 2.01601 0
M  V30 2664 C 252.846 -1.44067 1.31414 0
M  V30 2665 O 252.116 -1.90763 0.445658 0
M  V30 2666 H 250.696 -0.0554468 0.744939 0
M  V30 2667 H 253.358 0.567968 1.86441 0
M  V30 2668 H 252.454 -0.324913 3.10404 0
M  V30 2669 N 252.755 -1.56801 0.158532 0
M  V30 2670 C 253.685 -2.20347 -0.772609 0
M  V30 2671 C 254.666 -1.15518 -1.24859 0
M  V30 2672 O 255.851 -1.43902 -1.30406 0
M  V30 2673 C 252.981 -2.83417 -2.00729 0
M  V30 2674 C 251.935 -3.94174 -1.66765 0
M  V30 2675 C 251.261 -4.44233 -2.97592 0
M  V30 2676 C 252.561 -5.14392 -0.905447 0
M  V30 2677 H 254.255 -2.98413 -0.242959 0
M  V30 2678 H 251.801 -1.43537 -0.115419 0
M  V30 2679 H 253.754 -3.26543 -2.6636 0
M  V30 2680 H 252.478 -2.02701 -2.56086 0
M  V30 2681 H 251.137 -3.51684 -1.03508 0
M  V30 2682 H 250.785 -3.60325 -3.50963 0
M  V30 2683 H 250.485 -5.18945 -2.75626 0
M  V30 2684 H 252.009 -4.90037 -3.64274 0
M  V30 2685 H 253.423 -5.5429 -1.46408 0
M  V30 2686 H 251.82 -5.9494 -0.7853 0
M  V30 2687 H 252.89 -4.84795 0.100668 0
M  V30 2688 N 254.233 0.115231 -1.57178 0
M  V30 2689 C 255.51 0.852873 -1.76027 0
M  V30 2690 C 255.89 1.97892 -0.73498 0
M  V30 2691 O 255.238 2.27232 0.24036 0
M  V30 2692 C 255.448 1.36608 -3.21153 0
M  V30 2693 C 256.796 1.81692 -3.83762 0
M  V30 2694 O 257.82 1.46278 -3.24779 0
M  V30 2695 O 256.679 2.47104 -4.87444 0
M  V30 2696 H 253.773 0.405296 -0.720877 0
M  V30 2697 H 256.319 0.0986785 -1.69413 0
M  V30 2698 H 255.091 0.558357 -3.87296 0
M  V30 2699 H 254.714 2.18287 -3.3232 0
M  V30 2700 N 255.711 1.52812 0.385517 0
M  V30 2701 C 256.96 1.67249 1.12741 0
M  V30 2702 C 257.273 0.4205 1.91027 0
M  V30 2703 O 258.479 0.445064 2.67827 0
M  V30 2704 C 256.935 2.95583 2.05326 0
M  V30 2705 C 256.543 4.27974 1.32447 0
M  V30 2706 C 258.287 3.19386 2.7963 0
M  V30 2707 C 256.194 5.47412 2.23818 0
M  V30 2708 H 255.124 0.6231 0.424573 0
M  V30 2709 H 257.775 1.79309 0.389924 0
M  V30 2710 H 256.157 2.77277 2.82725 0
M  V30 2711 H 257.331 4.56844 0.602495 0
M  V30 2712 H 255.646 4.10459 0.700885 0
M  V30 2713 H 258.243 4.05801 3.48181 0
M  V30 2714 H 258.586 2.34604 3.43899 0
M  V30 2715 H 259.119 3.38274 2.09322 0
M  V30 2716 H 255.858 6.34612 1.64157 0
M  V30 2717 H 255.378 5.22849 2.93921 0
M  V30 2718 H 257.057 5.81423 2.83824 0
M  V30 2719 N 257.189 -0.644168 1.43834 0
M  V30 2720 C 258.466 -1.40188 1.36406 0
M  V30 2721 C 258.846 -2.11094 0.0163124 0
M  V30 2722 O 258.194 -2.05426 -1.00062 0
M  V30 2723 C 258.404 -2.3791 2.55343 0
M  V30 2724 C 259.752 -3.01637 2.98832 0
M  V30 2725 O 260.776 -2.48237 2.55455 0
M  V30 2726 O 259.635 -3.98477 3.74003 0
M  V30 2727 H 256.729 -0.626773 0.539523 0
M  V30 2728 H 259.275 -0.670317 1.559 0
M  V30 2729 H 258.047 -1.84525 3.4506 0
M  V30 2730 H 257.67 -3.18503 2.37995 0
M  V30 2731 N 258.668 -1.30515 -0.883378 0
M  V30 2732 C 259.914 -1.20617 -1.63778 0
M  V30 2733 C 260.269 0.236469 -1.90941 0
M  V30 2734 O 259.562 1.16596 -1.52039 0
M  V30 2735 C 259.756 -1.96994 -2.98209 0
M  V30 2736 C 259.585 -3.48537 -2.84169 0
M  V30 2737 C 258.355 -4.17893 -2.84067 0
M  V30 2738 C 260.553 -4.43738 -2.60001 0
M  V30 2739 N 258.535 -5.55685 -2.60936 0
M  V30 2740 C 259.906 -5.69105 -2.46007 0
M  V30 2741 C 261.961 -4.33316 -2.45239 0
M  V30 2742 C 260.664 -6.8523 -2.18752 0
M  V30 2743 C 262.69 -5.4921 -2.19369 0
M  V30 2744 C 262.052 -6.73558 -2.06153 0
M  V30 2745 H 258.151 -0.496434 -0.604216 0
M  V30 2746 H 260.735 -1.64544 -1.04083 0
M  V30 2747 H 258.906 -1.55455 -3.55933 0
M  V30 2748 H 260.638 -1.79225 -3.62851 0
M  V30 2749 H 257.393 -3.69739 -2.95956 0
M  V30 2750 H 257.817 -6.28199 -2.52378 0
M  V30 2751 H 262.459 -3.37856 -2.54191 0
M  V30 2752 H 260.177 -7.80729 -2.08537 0
M  V30 2753 H 263.763 -5.43054 -2.08766 0
M  V30 2754 H 262.643 -7.61721 -1.86416 0
M  V30 2755 N 260.146 1.09593 -1.13257 0
M  V30 2756 C 261.056 2.19739 -0.821691 0
M  V30 2757 C 262.072 1.72926 0.19302 0
M  V30 2758 O 263.248 2.01385 0.0244895 0
M  V30 2759 C 260.313 3.45482 -0.290333 0
M  V30 2760 C 259.374 4.06985 -1.36607 0
M  V30 2761 C 258.607 5.26726 -0.859975 0
M  V30 2762 O 258.83 5.69594 0.303082 0
M  V30 2763 O 257.764 5.7931 -1.63351 0
M  V30 2764 H 261.59 2.48781 -1.74189 0
M  V30 2765 H 259.175 1.18496 -0.909894 0
M  V30 2766 H 261.057 4.214 0.000674022 0
M  V30 2767 H 259.732 3.18047 0.602306 0
M  V30 2768 H 258.639 3.32712 -1.71037 0
M  V30 2769 H 259.972 4.38643 -2.23279 0
M  V30 2770 N 261.624 0.925811 1.2754 0
M  V30 2771 C 262.854 0.580666 1.98272 0
M  V30 2772 C 263.262 -0.845207 1.69272 0
M  V30 2773 O 262.605 -1.57306 0.948707 0
M  V30 2774 C 262.667 0.724418 3.52126 0
M  V30 2775 C 262.331 2.12206 4.04744 0
M  V30 2776 C 263.328 3.09604 4.17662 0
M  V30 2777 C 261.013 2.4385 4.39138 0
M  V30 2778 C 263.007 4.36755 4.64246 0
M  V30 2779 C 260.694 3.71237 4.85414 0
M  V30 2780 C 261.692 4.67503 4.97926 0
M  V30 2781 O 261.38 5.92624 5.43187 0
M  V30 2782 H 261.112 0.218987 0.639547 0
M  V30 2783 H 263.666 1.24452 1.63404 0
M  V30 2784 H 261.896 0.0034663 3.867 0
M  V30 2785 H 263.585 0.384607 4.04074 0
M  V30 2786 H 264.351 2.86478 3.91351 0
M  V30 2787 H 260.23 1.69665 4.28643 0
M  V30 2788 H 263.774 5.11898 4.73927 0
M  V30 2789 H 259.671 3.94182 5.11166 0
M  V30 2790 H 260.439 5.95585 5.61445 0
M  V30 2791 N 263.102 -1.41638 0.69111 0
M  V30 2792 C 264.513 -1.84346 0.295517 0
M  V30 2793 C 264.864 -1.57833 -1.16547 0
M  V30 2794 O 263.989 -1.04648 -1.89414 0
M  V30 2795 C 264.584 -3.34636 0.529575 0
M  V30 2796 C 263.143 -3.7593 0.187944 0
M  V30 2797 C 262.29 -2.65082 0.814052 0
M  V30 2798 H 265.241 -1.31253 0.892092 0
M  V30 2799 H 265.262 -3.79903 -0.213148 0
M  V30 2800 H 264.774 -3.53901 1.59297 0
M  V30 2801 H 262.875 -3.62268 -0.871367 0
M  V30 2802 H 262.988 -4.74808 0.63985 0
M  V30 2803 H 261.352 -2.53528 0.244017 0
M  V30 2804 H 262.135 -2.87167 1.88123 0
M  V30 2805 N 264.58 -0.43555 -1.51462 0
M  V30 2806 C 265.49 0.383001 -2.31453 0
M  V30 2807 C 266.506 1.02931 -1.4029 0
M  V30 2808 O 267.682 1.02507 -1.73362 0
M  V30 2809 C 264.747 1.47043 -3.13973 0
M  V30 2810 C 263.808 0.844433 -4.20913 0
M  V30 2811 C 263.041 1.88004 -4.9949 0
M  V30 2812 O 263.264 3.10199 -4.78678 0
M  V30 2813 O 262.198 1.47157 -5.83634 0
M  V30 2814 H 266.024 -0.269964 -3.02498 0
M  V30 2815 H 263.609 -0.19813 -1.4808 0
M  V30 2816 H 265.491 2.10113 -3.65281 0
M  V30 2817 H 264.166 2.10751 -2.45695 0
M  V30 2818 H 263.073 0.175729 -3.73687 0
M  V30 2819 H 264.406 0.250869 -4.9156 0
M  V30 2820 N 266.058 1.56714 -0.166846 0
M  V30 2821 C 267.006 2.19056 0.782123 0
M  V30 2822 C 268 1.15328 1.24079 0
M  V30 2823 O 269.206 1.33537 1.20697 0
M  V30 2824 H 265.581 0.70167 0.270486 0
M  V30 2825 H 267.552 2.97494 0.232322 0
M  V30 2826 C 266.301 2.84206 2.00306 0
M  V30 2827 H 265.624 3.63748 1.65914 0
M  V30 2828 H 267.064 3.31302 2.64604 0
M  V30 2829 C 265.523 1.83744 2.82382 0
M  V30 2830 O 266.053 1.32014 3.79388 0
M  V30 2831 N 264.259 1.52601 2.47308 0
M  V30 2832 H 263.806 1.9486 1.68485 0
M  V30 2833 H 263.764 0.856351 3.02513 0
M  V30 2834 N 267.536 -0.106894 1.57237 0
M  V30 2835 C 268.813 -0.843526 1.76477 0
M  V30 2836 C 269.193 -1.97499 0.745464 0
M  V30 2837 O 268.541 -2.27357 -0.228306 0
M  V30 2838 C 268.751 -1.34903 3.21873 0
M  V30 2839 C 270.099 -1.79654 3.8472 0
M  V30 2840 O 271.123 -1.44554 3.2555 0
M  V30 2841 O 269.982 -2.44515 4.88748 0
M  V30 2842 H 267.076 -0.401468 0.723016 0
M  V30 2843 H 269.622 -0.0896927 1.69463 0
M  V30 2844 H 268.394 -0.53781 3.87586 0
M  V30 2845 H 268.017 -2.16522 3.33473 0
M  V30 2846 N 269.014 -1.53014 -0.377408 0
M  V30 2847 C 269.946 -1.74884 -1.48149 0
M  V30 2848 C 270.959 -0.629433 -1.5014 0
M  V30 2849 O 272.148 -0.905416 -1.53833 0
M  V30 2850 C 269.248 -1.80299 -2.86959 0
M  V30 2851 C 268.421 -3.09776 -3.08801 0
M  V30 2852 C 267.48 -3.06586 -4.27658 0
M  V30 2853 O 266.506 -3.80419 -4.23403 0
M  V30 2854 N 267.708 -2.26578 -5.34455 0
M  V30 2855 H 270.473 -2.70147 -1.29771 0
M  V30 2856 H 268.034 -1.51646 -0.56703 0
M  V30 2857 H 270.026 -1.75657 -3.64591 0
M  V30 2858 H 268.596 -0.92372 -2.98641 0
M  V30 2859 H 267.816 -3.27815 -2.18931 0
M  V30 2860 H 269.104 -3.95366 -3.20255 0
M  V30 2861 H 268.502 -1.66081 -5.40771 0
M  V30 2862 H 267.059 -2.27766 -6.10709 0
M  V30 2863 N 270.492 0.636531 -1.44174 0
M  V30 2864 C 271.424 1.7618 -1.46606 0
M  V30 2865 C 272.437 1.58768 -0.360091 0
M  V30 2866 O 273.626 1.67181 -0.625518 0
M  V30 2867 C 270.726 3.13833 -1.27915 0
M  V30 2868 C 269.899 3.57753 -2.51658 0
M  V30 2869 C 268.958 4.74265 -2.27945 0
M  V30 2870 O 267.984 4.82852 -3.01401 0
M  V30 2871 N 269.186 5.65604 -1.30662 0
M  V30 2872 H 271.951 1.74567 -2.43612 0
M  V30 2873 H 269.512 0.820924 -1.39544 0
M  V30 2874 H 271.504 3.8949 -1.09907 0
M  V30 2875 H 270.074 3.10121 -0.39293 0
M  V30 2876 H 269.294 2.72362 -2.84978 0
M  V30 2877 H 270.582 3.83847 -3.33974 0
M  V30 2878 H 269.98 5.61354 -0.699844 0
M  V30 2879 H 268.537 6.40913 -1.18634 0
M  V30 2880 N 271.97 1.30982 0.876444 0
M  V30 2881 C 272.933 1.18054 1.96459 0
M  V30 2882 C 273.933 0.109399 1.60427 0
M  V30 2883 O 275.123 0.358173 1.70478 0
M  V30 2884 C 272.255 0.810616 3.31122 0
M  V30 2885 H 273.448 2.14735 2.09354 0
M  V30 2886 H 271.001 1.145 1.06392 0
M  V30 2887 H 271.736 -0.155322 3.23928 0
M  V30 2888 H 271.521 1.58481 3.58645 0
M  V30 2889 H 273.011 0.743876 4.10921 0
M  V30 2890 N 273.449 -1.08991 1.13837 0
M  V30 2891 C 274.397 -2.17841 0.815347 0
M  V30 2892 C 275.391 -1.68164 -0.204233 0
M  V30 2893 O 276.597 -1.79897 -0.0609304 0
M  V30 2894 H 272.972 -0.710654 0.245915 0
M  V30 2895 H 274.943 -2.42315 1.74143 0
M  V30 2896 C 273.692 -3.46381 0.302614 0
M  V30 2897 H 273.015 -3.84979 1.0785 0
M  V30 2898 H 274.455 -4.23844 0.115074 0
M  V30 2899 C 272.914 -3.22556 -0.972591 0
M  V30 2900 O 273.444 -3.45599 -2.04754 0
M  V30 2901 N 271.65 -2.76134 -0.905455 0
M  V30 2902 H 271.197 -2.57582 -0.0305421 0
M  V30 2903 H 271.155 -2.60571 -1.75926 0
M  V30 2904 N 274.927 -0.932562 -1.27047 0
M  V30 2905 C 276.204 -0.49377 -1.89265 0
M  V30 2906 C 276.584 1.02833 -1.8436 0
M  V30 2907 O 275.932 1.88461 -1.29209 0
M  V30 2908 C 276.142 -1.04536 -3.32976 0
M  V30 2909 C 277.49 -1.10879 -4.09867 0
M  V30 2910 O 278.514 -0.995327 -3.42011 0
M  V30 2911 O 277.373 -1.28417 -5.31198 0
M  V30 2912 H 274.467 -0.159596 -0.811454 0
M  V30 2913 H 277.013 -1.02457 -1.3528 0
M  V30 2914 H 275.785 -2.08913 -3.30864 0
M  V30 2915 H 275.408 -0.496494 -3.94488 0
M  V30 2916 N 276.405 1.4127 -0.698611 0
M  V30 2917 C 277.652 2.0118 -0.230865 0
M  V30 2918 C 277.98 1.55338 1.17049 0
M  V30 2919 O 277.235 0.756775 1.80475 0
M  V30 2920 C 277.534 3.56592 -0.240192 0
M  V30 2921 C 277.2 4.21955 -1.58948 0
M  V30 2922 C 275.862 4.39524 -1.95887 0
M  V30 2923 C 278.214 4.58576 -2.47704 0
M  V30 2924 C 275.542 4.90992 -3.2116 0
M  V30 2925 C 277.894 5.11435 -3.72313 0
M  V30 2926 C 276.558 5.27215 -4.0939 0
M  V30 2927 H 275.828 0.736169 -0.0844796 0
M  V30 2928 H 278.475 1.69124 -0.8983 0
M  V30 2929 H 276.78 3.88456 0.510797 0
M  V30 2930 H 278.477 4.00758 0.139296 0
M  V30 2931 H 275.067 4.08657 -1.29219 0
M  V30 2932 H 279.251 4.44654 -2.20445 0
M  V30 2933 H 274.507 5.01393 -3.49878 0
M  V30 2934 H 278.681 5.38752 -4.4127 0
M  V30 2935 H 276.308 5.66859 -5.06533 0
M  V30 2936 N 277.883 0.443576 1.51229 0
M  V30 2937 C 279.129 -0.120975 2.02439 0
M  V30 2938 C 279.462 -1.41815 1.32674 0
M  V30 2939 O 278.737 -1.89373 0.443622 0
M  V30 2940 C 279.02 -0.333291 3.58554 0
M  V30 2941 C 278.873 0.982968 4.38928 0
M  V30 2942 C 280.192 -1.10028 4.26124 0
M  V30 2943 H 277.311 -0.0424923 0.735774 0
M  V30 2944 H 279.953 0.583794 1.80809 0
M  V30 2945 H 278.103 -0.933614 3.77115 0
M  V30 2946 H 279.775 1.61775 4.32003 0
M  V30 2947 H 278.018 1.58611 4.03763 0
M  V30 2948 H 278.689 0.788379 5.46341 0
M  V30 2949 H 281.165 -0.591711 4.11871 0
M  V30 2950 H 280.041 -1.21761 5.35225 0
M  V30 2951 H 280.302 -2.12996 3.87408 0
M  V30 2952 N 279.361 -1.56624 0.175154 0
M  V30 2953 C 280.291 -2.21155 -0.749195 0
M  V30 2954 C 281.272 -1.16836 -1.23626 0
M  V30 2955 O 282.457 -1.45277 -1.28873 0
M  V30 2956 C 279.587 -2.8553 -1.97711 0
M  V30 2957 C 278.541 -3.95921 -1.62575 0
M  V30 2958 C 277.867 -4.47365 -2.92864 0
M  V30 2959 C 279.167 -5.15323 -0.850838 0
M  V30 2960 H 280.861 -2.98653 -0.211295 0
M  V30 2961 H 278.407 -1.43651 -0.100188 0
M  V30 2962 H 280.36 -3.2935 -2.62881 0
M  V30 2963 H 279.084 -2.05406 -2.53921 0
M  V30 2964 H 277.743 -3.52762 -0.997719 0
M  V30 2965 H 277.391 -3.64027 -3.47122 0
M  V30 2966 H 277.091 -5.21839 -2.70106 0
M  V30 2967 H 278.615 -4.93873 -3.59056 0
M  V30 2968 H 280.029 -5.55812 -1.40521 0
M  V30 2969 H 278.426 -5.95739 -0.722154 0
M  V30 2970 H 279.496 -4.84661 0.152082 0
M  V30 2971 N 280.839 0.0985539 -1.57292 0
M  V30 2972 C 281.769 1.12064 -2.04851 0
M  V30 2973 C 282.75 1.41981 -0.936767 0
M  V30 2974 O 283.935 1.52071 -1.20781 0
M  V30 2975 C 281.065 2.44144 -2.47004 0
M  V30 2976 C 280.019 2.28643 -3.6181 0
M  V30 2977 C 279.345 3.65869 -3.89929 0
M  V30 2978 C 280.645 1.72986 -4.92822 0
M  V30 2979 H 282.339 0.724979 -2.9049 0
M  V30 2980 H 279.885 0.34729 -1.39749 0
M  V30 2981 H 281.838 3.15914 -2.78884 0
M  V30 2982 H 280.562 2.85639 -1.5836 0
M  V30 2983 H 279.221 1.59318 -3.30172 0
M  V30 2984 H 278.869 4.04885 -2.98458 0
M  V30 2985 H 278.569 3.56344 -4.67218 0
M  V30 2986 H 280.093 4.39112 -4.2428 0
M  V30 2987 H 281.507 2.34593 -5.23105 0
M  V30 2988 H 279.904 1.74229 -5.74251 0
M  V30 2989 H 280.974 0.689007 -4.7998 0
M  V30 2990 N 282.317 1.53212 0.369288 0
M  V30 2991 C 283.247 1.82365 1.45826 0
M  V30 2992 C 284.228 0.676907 1.56051 0
M  V30 2993 O 285.413 0.926401 1.70679 0
M  V30 2994 C 282.543 2.01023 2.83208 0
M  V30 2995 C 281.497 3.1678 2.8781 0
M  V30 2996 C 280.823 3.20724 4.27832 0
M  V30 2997 C 282.123 4.55447 2.55667 0
M  V30 2998 H 283.817 2.73559 1.21678 0
M  V30 2999 H 281.363 1.3163 0.583911 0
M  V30 3000 H 283.316 2.20001 3.59413 0
M  V30 3001 H 282.04 1.06536 3.08736 0
M  V30 3002 H 280.699 2.97616 2.14056 0
M  V30 3003 H 280.347 2.23882 4.50429 0
M  V30 3004 H 280.047 3.98496 4.31827 0
M  V30 3005 H 281.571 3.41881 5.05915 0
M  V30 3006 H 282.985 4.74611 3.21586 0
M  V30 3007 H 281.382 5.35432 2.70984 0
M  V30 3008 H 282.452 4.60812 1.5093 0
M  V30 3009 N 283.795 -0.628877 1.44509 0
M  V30 3010 C 284.742 -1.74074 1.51549 0
M  V30 3011 C 285.712 -1.62084 0.363021 0
M  V30 3012 O 286.897 -1.81975 0.573567 0
M  V30 3013 C 284.037 -3.12328 1.46784 0
M  V30 3014 C 283.15 -3.35277 2.72422 0
M  V30 3015 C 282.285 -4.63515 2.59475 0
M  V30 3016 C 281.324 -4.7965 3.80266 0
M  V30 3017 N 280.461 -5.99168 3.65981 0
M  V30 3018 H 285.301 -1.67392 2.46544 0
M  V30 3019 H 282.838 -0.816527 1.22357 0
M  V30 3020 H 284.796 -3.92286 1.42012 0
M  V30 3021 H 283.426 -3.18018 0.553544 0
M  V30 3022 H 282.478 -2.49242 2.87372 0
M  V30 3023 H 283.79 -3.43078 3.62076 0
M  V30 3024 H 282.944 -5.51638 2.52548 0
M  V30 3025 H 281.683 -4.58076 1.67384 0
M  V30 3026 H 280.688 -3.89957 3.87574 0
M  V30 3027 H 281.913 -4.86902 4.73395 0
M  V30 3028 H 279.859 -5.94814 2.76644 0
M  V30 3029 H 279.776 -6.08035 4.49254 0
M  V30 3030 H 281.044 -6.89846 3.6295 0
M  V30 3031 N 285.273 -1.31445 -0.869486 0
M  V30 3032 C 286.183 -1.21097 -2.0093 0
M  V30 3033 C 287.199 -0.127584 -1.73532 0
M  V30 3034 O 288.375 -0.345477 -1.98415 0
M  V30 3035 C 285.44 -0.919378 -3.34288 0
M  V30 3036 C 284.501 -2.08971 -3.75006 0
M  V30 3037 C 283.734 -1.81194 -5.02001 0
M  V30 3038 O 283.957 -0.747296 -5.65484 0
M  V30 3039 O 282.891 -2.66883 -5.39497 0
M  V30 3040 H 286.717 -2.16883 -2.12592 0
M  V30 3041 H 284.302 -1.11189 -0.997868 0
M  V30 3042 H 286.184 -0.772625 -4.14257 0
M  V30 3043 H 284.859 0.00844772 -3.23699 0
M  V30 3044 H 283.766 -2.29187 -2.95676 0
M  V30 3045 H 285.099 -2.9998 -3.90221 0
M  V30 3046 N 286.751 1.08385 -1.14413 0
M  V30 3047 C 287.997 1.81044 -0.913834 0
M  V30 3048 C 288.33 1.86004 0.558209 0
M  V30 3049 O 287.605 1.33606 1.4135 0
M  V30 3050 C 287.888 3.26648 -1.51569 0
M  V30 3051 C 287.741 3.29895 -3.0576 0
M  V30 3052 C 289.06 4.23629 -1.19273 0
M  V30 3053 H 286.179 0.65727 -0.333414 0
M  V30 3054 H 288.821 1.26896 -1.41412 0
M  V30 3055 H 286.971 3.72889 -1.09023 0
M  V30 3056 H 288.643 2.91977 -3.57137 0
M  V30 3057 H 286.886 2.69163 -3.40197 0
M  V30 3058 H 287.557 4.32516 -3.42977 0
M  V30 3059 H 290.033 3.85727 -1.56057 0
M  V30 3060 H 288.909 5.23822 -1.64017 0
M  V30 3061 H 289.17 4.41968 -0.108068 0
M  V30 3062 N 288.23 0.939286 1.26551 0
M  V30 3063 C 289.646 0.641304 1.46149 0
M  V30 3064 C 289.846 -0.805964 1.84679 0
M  V30 3065 O 288.902 -1.58278 1.96734 0
M  V30 3066 C 290.215 1.6011 2.54529 0
M  V30 3067 C 291.763 1.6106 2.68382 0
M  V30 3068 C 292.238 2.55765 3.79932 0
M  V30 3069 N 293.729 2.5404 3.87322 0
M  V30 3070 C 294.464 3.24004 4.73085 0
M  V30 3071 N 293.96 4.03388 5.63249 0
M  V30 3072 N 295.753 3.12965 4.66914 0
M  V30 3073 H 287.904 1.87478 0.998285 0
M  V30 3074 H 290.167 0.805559 0.499779 0
M  V30 3075 H 289.873 2.63412 2.33039 0
M  V30 3076 H 289.747 1.35171 3.52149 0
M  V30 3077 H 292.134 0.584835 2.89247 0
M  V30 3078 H 292.215 1.90053 1.71212 0
M  V30 3079 H 291.859 3.58458 3.5982 0
M  V30 3080 H 291.789 2.24063 4.76554 0
M  V30 3081 H 294.28 1.96396 3.22858 0
M  V30 3082 H 294.593 4.5373 6.25579 0
M  V30 3083 H 292.938 4.07489 5.63008 0
M  V30 3084 H 296.129 2.50432 3.95476 0
M  V30 3085 H 296.302 3.67759 5.33533 0
M  V30 3086 N 289.708 -1.40897 0.706093 0
M  V30 3087 C 290.936 -2.05373 0.250887 0
M  V30 3088 C 291.351 -1.53172 -1.10381 0
M  V30 3089 O 290.708 -0.684305 -1.69185 0
M  V30 3090 C 290.759 -3.6088 0.211571 0
M  V30 3091 O 290.48 -4.11153 1.51276 0
M  V30 3092 C 291.981 -4.42517 -0.263346 0
M  V30 3093 H 289.201 -0.66115 0.114552 0
M  V30 3094 H 291.745 -1.80479 0.961635 0
M  V30 3095 H 289.9 -3.84777 -0.450073 0
M  V30 3096 H 290.314 -5.05279 1.40689 0
M  V30 3097 H 291.788 -5.51479 -0.239718 0
M  V30 3098 H 292.265 -4.19396 -1.30397 0
M  V30 3099 H 292.871 -4.23708 0.367677 0
M  V30 3100 N 291.186 -0.45159 -1.50991 0
M  V30 3101 C 292.149 0.341117 -2.26647 0
M  V30 3102 C 293.149 0.937422 -1.30649 0
M  V30 3103 O 294.339 0.809644 -1.54241 0
M  V30 3104 C 291.471 1.48398 -3.06905 0
M  V30 3105 H 292.664 -0.322117 -2.98165 0
M  V30 3106 H 290.217 -0.205122 -1.54948 0
M  V30 3107 H 290.952 2.18284 -2.39838 0
M  V30 3108 H 290.737 1.06241 -3.77432 0
M  V30 3109 H 292.227 2.04367 -3.64176 0
M  V30 3110 N 292.664 1.56529 -0.183458 0
M  V30 3111 C 293.594 2.21549 0.737456 0
M  V30 3112 C 294.575 1.17489 1.23005 0
M  V30 3113 O 295.76 1.45959 1.281 0
M  V30 3114 C 292.89 2.86575 1.96194 0
M  V30 3115 C 291.844 3.96778 1.60473 0
M  V30 3116 C 291.17 4.48911 2.90487 0
M  V30 3117 C 292.47 5.15767 0.823497 0
M  V30 3118 H 294.164 2.98761 0.195453 0
M  V30 3119 H 291.71 1.43702 0.0925686 0
M  V30 3120 H 293.663 3.30739 2.61131 0
M  V30 3121 H 292.387 2.06749 2.52828 0
M  V30 3122 H 291.046 3.53286 0.978997 0
M  V30 3123 H 290.694 3.65862 3.45186 0
M  V30 3124 H 290.394 5.23265 2.67335 0
M  V30 3125 H 291.918 4.95771 3.56432 0
M  V30 3126 H 293.332 5.56549 1.37571 0
M  V30 3127 H 291.729 5.96114 0.690551 0
M  V30 3128 H 292.799 4.84574 -0.177782 0
M  V30 3129 N 294.142 -0.090211 1.57342 0
M  V30 3130 C 295.419 -0.824761 1.77361 0
M  V30 3131 C 295.799 -1.96698 0.76637 0
M  V30 3132 O 295.147 -2.27586 -0.204179 0
M  V30 3133 C 295.357 -1.31481 3.23286 0
M  V30 3134 C 296.705 -1.75563 3.86604 0
M  V30 3135 O 297.729 -1.41093 3.27065 0
M  V30 3136 O 296.588 -2.39317 4.91314 0
M  V30 3137 H 293.682 -0.393776 0.727234 0
M  V30 3138 H 296.228 -0.0717138 1.69548 0
M  V30 3139 H 295 -0.496671 3.88135 0
M  V30 3140 H 294.623 -2.12973 3.35751 0
M  V30 3141 N 295.62 -1.53406 -0.361157 0
M  V30 3142 C 296.845 -1.74024 -1.12829 0
M  V30 3143 C 297.27 -0.470069 -1.82132 0
M  V30 3144 O 296.628 0.57619 -1.719 0
M  V30 3145 C 296.676 -2.90903 -2.13091 0
M  V30 3146 O 295.78 -2.59821 -3.20261 0
M  V30 3147 H 295.121 -0.577804 -0.327168 0
M  V30 3148 H 297.651 -2.00307 -0.41693 0
M  V30 3149 H 297.661 -3.17194 -2.56616 0
M  V30 3150 H 296.336 -3.83034 -1.62042 0
M  V30 3151 H 294.913 -2.44362 -2.81677 0
M  V30 3152 N 297.098 0.621204 -1.44841 0
M  V30 3153 C 298.328 1.40548 -1.51426 0
M  V30 3154 C 298.736 1.88673 -0.141083 0
M  V30 3155 O 298.079 1.62053 0.865128 0
M  V30 3156 C 298.141 2.65325 -2.42576 0
M  V30 3157 C 297.805 2.3893 -3.89566 0
M  V30 3158 C 298.802 2.00138 -4.79834 0
M  V30 3159 C 296.487 2.52263 -4.3436 0
M  V30 3160 C 298.481 1.75021 -6.129 0
M  V30 3161 C 296.168 2.2676 -5.67471 0
M  V30 3162 C 297.166 1.88199 -6.56559 0
M  V30 3163 O 296.854 1.62986 -7.87204 0
M  V30 3164 H 296.586 0.437122 -0.515655 0
M  V30 3165 H 299.14 0.765987 -1.90583 0
M  V30 3166 H 297.37 3.31947 -1.98364 0
M  V30 3167 H 299.059 3.27347 -2.39998 0
M  V30 3168 H 299.825 1.89386 -4.46495 0
M  V30 3169 H 295.704 2.81246 -3.65269 0
M  V30 3170 H 299.248 1.44848 -6.82396 0
M  V30 3171 H 295.145 2.37125 -6.00368 0
M  V30 3172 H 295.913 1.7715 -7.991 0
M  V30 3173 N 298.576 1.31904 0.862503 0
M  V30 3174 C 299.801 1.25135 1.65397 0
M  V30 3175 C 300.226 -0.179 1.87246 0
M  V30 3176 O 299.584 -1.1277 1.4196 0
M  V30 3177 C 299.632 2.00832 2.99498 0
M  V30 3178 O 298.736 1.35075 3.89652 0
M  V30 3179 H 298.077 0.431655 0.504549 0
M  V30 3180 H 300.607 1.74094 1.07483 0
M  V30 3181 H 300.617 2.10709 3.49379 0
M  V30 3182 H 299.292 3.04847 2.82916 0
M  V30 3183 H 297.869 1.33696 3.48109 0
M  V30 3184 N 300.054 -1.07777 1.14986 0
M  V30 3185 C 301.017 -2.13041 0.845358 0
M  V30 3186 C 302.017 -1.60071 -0.152931 0
M  V30 3187 O 303.207 -1.74033 0.0761879 0
M  V30 3188 C 300.339 -3.39896 0.261383 0
M  V30 3189 H 301.532 -2.41485 1.77834 0
M  V30 3190 H 299.085 -1.23595 0.956757 0
M  V30 3191 H 299.82 -3.17091 -0.68 0
M  V30 3192 H 299.605 -3.79642 0.980514 0
M  V30 3193 H 301.095 -4.17548 0.0657687 0
M  V30 3194 N 301.532 -0.945985 -1.26051 0
M  V30 3195 C 302.495 -0.463897 -2.24456 0
M  V30 3196 C 303.495 0.427655 -1.55009 0
M  V30 3197 O 304.685 0.226157 -1.72726 0
M  V30 3198 C 301.817 0.330812 -3.39291 0
M  V30 3199 H 303.01 -1.33357 -2.68619 0
M  V30 3200 H 300.563 -0.728416 -1.38289 0
M  V30 3201 H 301.298 1.21852 -3.00537 0
M  V30 3202 H 301.083 -0.308679 -3.90883 0
M  V30 3203 H 302.573 0.657865 -4.12386 0
M  V30 3204 N 303.011 1.40521 -0.713556 0
M  V30 3205 C 303.959 2.32549 -0.0485227 0
M  V30 3206 C 304.953 1.51931 0.74922 0
M  V30 3207 O 306.159 1.67745 0.652816 0
M  V30 3208 H 302.534 0.751994 0.00311138 0
M  V30 3209 H 304.505 2.86291 -0.841443 0
M  V30 3210 C 303.254 3.36879 0.860687 0
M  V30 3211 H 302.577 3.98978 0.256246 0
M  V30 3212 H 304.017 4.03772 1.294 0
M  V30 3213 C 302.476 2.72197 1.9852 0
M  V30 3214 O 303.006 2.5837 3.07584 0
M  V30 3215 N 301.212 2.30612 1.76823 0
M  V30 3216 H 300.759 2.42059 0.881217 0
M  V30 3217 H 300.717 1.87672 2.52243 0
M  V30 3218 N 304.489 0.459591 1.5075 0
M  V30 3219 C 305.452 -0.329093 2.26825 0
M  V30 3220 C 306.452 -0.930481 1.31144 0
M  V30 3221 O 307.642 -0.801453 1.54669 0
M  V30 3222 C 304.774 -1.46768 3.07688 0
M  V30 3223 H 305.967 0.337924 2.9799 0
M  V30 3224 H 303.52 0.213336 1.54837 0
M  V30 3225 H 304.255 -2.17009 2.40993 0
M  V30 3226 H 304.04 -1.04238 3.77991 0
M  V30 3227 H 305.53 -2.02433 3.65254 0
M  V30 3228 N 305.967 -1.56429 0.191757 0
M  V30 3229 C 307.215 -1.97095 -0.447006 0
M  V30 3230 C 307.536 -1.07967 -1.62383 0
M  V30 3231 O 306.806 -0.150248 -1.95323 0
M  V30 3232 H 305.386 -0.727832 -0.168135 0
M  V30 3233 H 308.048 -1.92911 0.27771 0
M  V30 3234 H 307.144 -3.01848 -0.793371 0
M  V30 3235 N 307.445 0.0818655 -1.57387 0
M  V30 3236 C 308.693 0.781368 -1.86384 0
M  V30 3237 C 309.014 1.78618 -0.782342 0
M  V30 3238 O 308.284 1.94976 0.190061 0
M  V30 3239 H 306.864 0.291562 -0.687751 0
M  V30 3240 H 309.526 0.060348 -1.94807 0
M  V30 3241 H 308.622 1.3038 -2.83562 0
M  V30 3242 N 308.923 1.53595 0.353017 0
M  V30 3243 C 309.855 1.77219 1.45348 0
M  V30 3244 C 310.868 0.65324 1.49119 0
M  V30 3245 O 312.057 0.929775 1.52373 0
M  V30 3246 C 309.157 1.84841 2.84055 0
M  V30 3247 C 308.33 3.14649 3.03833 0
M  V30 3248 C 307.389 3.13351 4.22727 0
M  V30 3249 O 306.415 3.87107 4.17297 0
M  V30 3250 N 307.617 2.35052 5.30783 0
M  V30 3251 H 310.382 2.72178 1.25457 0
M  V30 3252 H 307.943 1.52528 0.542833 0
M  V30 3253 H 309.935 1.81435 3.61751 0
M  V30 3254 H 308.505 0.971114 2.97133 0
M  V30 3255 H 307.725 3.31256 2.13689 0
M  V30 3256 H 309.013 4.00411 3.13925 0
M  V30 3257 H 308.411 1.74663 5.38061 0
M  V30 3258 H 306.968 2.37453 6.07009 0
M  V30 3259 N 310.401 -0.613514 1.45168 0
M  V30 3260 C 311.351 -1.71871 1.49815 0
M  V30 3261 C 312.335 -1.56774 0.362021 0
M  V30 3262 O 313.527 -1.66212 0.608493 0
M  V30 3263 C 310.656 -3.1061 1.46207 0
M  V30 3264 C 309.742 -3.31114 2.64999 0
M  V30 3265 N 310.133 -3.21904 3.90143 0
M  V30 3266 C 308.431 -3.61966 2.6057 0
M  V30 3267 C 309.132 -3.43577 4.69393 0
M  V30 3268 N 308.108 -3.67287 4.00751 0
M  V30 3269 H 311.91 -1.63235 2.444 0
M  V30 3270 H 309.424 -0.816577 1.40377 0
M  V30 3271 H 311.421 -3.8989 1.4762 0
M  V30 3272 H 310.081 -3.20399 0.52673 0
M  V30 3273 H 311.092 -3.00436 4.21852 0
M  V30 3274 H 307.769 -3.78629 1.75916 0
M  V30 3275 H 309.159 -3.41901 5.78406 0
M  V30 3276 N 311.879 -1.3236 -0.855495 0
M  V30 3277 C 313.126 -1.22872 -1.60962 0
M  V30 3278 C 313.454 0.209658 -1.93367 0
M  V30 3279 O 312.709 1.16243 -1.57436 0
M  V30 3280 C 313.008 -2.03275 -2.93963 0
M  V30 3281 C 312.674 -3.5264 -2.80991 0
M  V30 3282 C 311.336 -3.93364 -2.7716 0
M  V30 3283 C 313.688 -4.47626 -2.66983 0
M  V30 3284 C 311.016 -5.27319 -2.572 0
M  V30 3285 C 313.368 -5.81723 -2.48558 0
M  V30 3286 C 312.032 -6.2165 -2.4312 0
M  V30 3287 H 311.302 -0.44962 -0.589001 0
M  V30 3288 H 313.949 -1.63777 -0.992442 0
M  V30 3289 H 312.254 -1.55095 -3.59795 0
M  V30 3290 H 313.951 -1.93303 -3.51333 0
M  V30 3291 H 310.541 -3.20295 -2.84797 0
M  V30 3292 H 314.725 -4.17084 -2.68988 0
M  V30 3293 H 309.981 -5.57311 -2.51424 0
M  V30 3294 H 314.155 -6.5494 -2.36699 0
M  V30 3295 H 311.782 -7.25388 -2.27412 0
M  V30 3296 N 313.357 1.07166 -1.15556 0
M  V30 3297 C 314.287 2.16403 -0.877046 0
M  V30 3298 C 315.268 1.69217 0.173111 0
M  V30 3299 O 316.453 1.94181 0.027084 0
M  V30 3300 C 313.583 3.45349 -0.367632 0
M  V30 3301 C 312.537 4.05995 -1.35468 0
M  V30 3302 C 311.863 5.30045 -0.704038 0
M  V30 3303 C 313.163 4.45804 -2.72132 0
M  V30 3304 H 314.857 2.39959 -1.79053 0
M  V30 3305 H 312.403 1.15325 -0.862331 0
M  V30 3306 H 314.356 4.21095 -0.160317 0
M  V30 3307 H 313.08 3.21385 0.581326 0
M  V30 3308 H 311.739 3.32296 -1.54839 0
M  V30 3309 H 311.387 5.02373 0.251128 0
M  V30 3310 H 311.087 5.71579 -1.36277 0
M  V30 3311 H 312.611 6.08495 -0.50654 0
M  V30 3312 H 314.025 5.12671 -2.56595 0
M  V30 3313 H 312.422 4.98296 -3.34397 0
M  V30 3314 H 313.492 3.57083 -3.28054 0
M  V30 3315 N 314.835 0.952656 1.25548 0
M  V30 3316 C 315.765 0.489287 2.28316 0
M  V30 3317 C 316.746 -0.463359 1.63667 0
M  V30 3318 O 317.931 -0.36274 1.90782 0
M  V30 3319 C 315.061 -0.235603 3.465 0
M  V30 3320 C 314.015 0.631593 4.23314 0
M  V30 3321 C 313.341 -0.223923 5.34231 0
M  V30 3322 C 314.641 1.90871 4.86174 0
M  V30 3323 H 316.335 1.34822 2.67326 0
M  V30 3324 H 313.881 0.649728 1.28509 0
M  V30 3325 H 315.834 -0.570882 4.17515 0
M  V30 3326 H 314.558 -1.12877 3.06474 0
M  V30 3327 H 313.217 0.949929 3.54079 0
M  V30 3328 H 312.865 -1.11678 4.90446 0
M  V30 3329 H 312.565 0.35299 5.86539 0
M  V30 3330 H 314.089 -0.554214 6.0808 0
M  V30 3331 H 315.503 1.63997 5.49343 0
M  V30 3332 H 313.9 2.43112 5.4865 0
M  V30 3333 H 314.97 2.61304 4.08471 0
M  V30 3334 N 316.313 -1.40141 0.720998 0
M  V30 3335 C 317.541 -2.05096 0.272656 0
M  V30 3336 C 317.956 -1.54334 -1.0875 0
M  V30 3337 O 317.313 -0.702211 -1.6845 0
M  V30 3338 C 317.364 -3.60636 0.249835 0
M  V30 3339 O 317.085 -4.09526 1.55629 0
M  V30 3340 C 318.586 -4.42772 -0.216396 0
M  V30 3341 H 315.806 -0.659897 0.121558 0
M  V30 3342 H 318.35 -1.79449 0.980723 0
M  V30 3343 H 316.505 -3.85232 -0.409237 0
M  V30 3344 H 316.919 -5.03758 1.4604 0
M  V30 3345 H 318.393 -5.51702 -0.181212 0
M  V30 3346 H 318.87 -4.20756 -1.25941 0
M  V30 3347 H 319.476 -4.23294 0.412596 0
M  V30 3348 N 317.792 -0.46758 -1.50504 0
M  V30 3349 C 319.038 0.0887532 -2.02606 0
M  V30 3350 C 319.371 1.39686 -1.34913 0
M  V30 3351 O 318.646 1.88644 -0.473694 0
M  V30 3352 C 318.929 0.276206 -3.59039 0
M  V30 3353 C 318.782 -1.05267 -4.37309 0
M  V30 3354 C 320.101 1.03235 -4.27821 0
M  V30 3355 H 317.22 0.0307814 -0.736357 0
M  V30 3356 H 319.862 -0.612485 -1.79857 0
M  V30 3357 H 318.012 0.8735 -3.78553 0
M  V30 3358 H 319.684 -1.68628 -4.29374 0
M  V30 3359 H 317.927 -1.65015 -4.01189 0
M  V30 3360 H 318.598 -0.875197 -5.45018 0
M  V30 3361 H 321.074 0.526111 -4.12761 0
M  V30 3362 H 319.95 1.1323 -5.37094 0
M  V30 3363 H 320.211 2.06806 -3.90748 0
M  V30 3364 N 319.27 1.56325 -0.20005 0
M  V30 3365 C 320.233 2.18084 0.705132 0
M  V30 3366 C 321.233 1.13666 1.1374 0
M  V30 3367 O 322.423 1.39023 1.04968 0
M  V30 3368 C 319.555 2.78689 1.96329 0
M  V30 3369 H 320.748 2.99435 0.167023 0
M  V30 3370 H 318.301 1.56221 0.0495725 0
M  V30 3371 H 319.036 2.0115 2.5438 0
M  V30 3372 H 318.821 3.55133 1.66202 0
M  V30 3373 H 320.311 3.26096 2.60866 0
M  V30 3374 N 320.748 -0.0735177 1.57428 0
M  V30 3375 C 321.973 -0.789787 1.91774 0
M  V30 3376 C 322.398 -1.70413 0.796306 0
M  V30 3377 O 321.756 -1.79555 -0.250961 0
M  V30 3378 C 321.804 -1.5609 3.25067 0
M  V30 3379 O 320.908 -2.67144 3.14178 0
M  V30 3380 H 320.249 -0.215582 0.628029 0
M  V30 3381 H 322.779 -0.0422781 2.04556 0
M  V30 3382 H 322.789 -1.94052 3.58898 0
M  V30 3383 H 321.464 -0.890015 4.06265 0
M  V30 3384 H 320.041 -2.32052 2.91901 0
M  V30 3385 N 322.226 -1.5378 -0.344866 0
M  V30 3386 C 323.637 -1.62428 -0.920552 0
M  V30 3387 C 323.988 -0.504747 -1.89596 0
M  V30 3388 O 323.113 0.365711 -2.13287 0
M  V30 3389 C 323.708 -2.94419 -1.67639 0
M  V30 3390 C 322.267 -3.05333 -2.20111 0
M  V30 3391 C 321.414 -2.57866 -1.01982 0
M  V30 3392 H 324.365 -1.58222 -0.123042 0
M  V30 3393 H 324.386 -2.83384 -2.53917 0
M  V30 3394 H 323.898 -3.7588 -0.966224 0
M  V30 3395 H 321.999 -2.28502 -2.94308 0
M  V30 3396 H 322.112 -4.10778 -2.46573 0
M  V30 3397 H 320.476 -2.13241 -1.39285 0
M  V30 3398 H 321.259 -3.41765 -0.324308 0
M  V30 3399 N 323.704 0.605807 -1.45491 0
M  V30 3400 C 324.667 1.69836 -1.5391 0
M  V30 3401 C 325.667 1.55261 -0.418424 0
M  V30 3402 O 326.857 1.60296 -0.681965 0
M  V30 3403 C 323.989 3.09117 -1.43734 0
M  V30 3404 H 325.182 1.63738 -2.51257 0
M  V30 3405 H 322.735 0.821689 -1.32959 0
M  V30 3406 H 323.47 3.20791 -0.475788 0
M  V30 3407 H 323.255 3.21104 -2.25021 0
M  V30 3408 H 324.745 3.88696 -1.52661 0
M  V30 3409 N 325.182 1.32811 0.848464 0
M  V30 3410 C 326.43 1.23479 1.59991 0
M  V30 3411 C 326.751 -0.201853 1.93952 0
M  V30 3412 O 326.021 -1.12818 1.60153 0
M  V30 3413 H 324.601 0.454034 0.593179 0
M  V30 3414 H 327.263 1.66412 1.01455 0
M  V30 3415 H 326.359 1.82178 2.53412 0
M  V30 3416 N 326.66 -1.06551 1.16123 0
M  V30 3417 C 328.071 -1.60768 0.949232 0
M  V30 3418 C 328.422 -1.89523 -0.507508 0
M  V30 3419 O 327.547 -1.66671 -1.38021 0
M  V30 3420 C 328.142 -2.92086 1.71671 0
M  V30 3421 C 326.701 -3.43015 1.54977 0
M  V30 3422 C 325.848 -2.16947 1.72711 0
M  V30 3423 H 328.799 -0.895354 1.31031 0
M  V30 3424 H 328.82 -3.6138 1.19099 0
M  V30 3425 H 328.332 -2.71127 2.7769 0
M  V30 3426 H 326.433 -3.69039 0.513873 0
M  V30 3427 H 326.546 -4.18516 2.33198 0
M  V30 3428 H 324.91 -2.27041 1.15431 0
M  V30 3429 H 325.693 -1.98473 2.80113 0
M  V30 3430 N 328.138 -0.959301 -1.25041 0
M  V30 3431 C 329.415 -0.533805 -1.88175 0
M  V30 3432 C 329.795 0.988994 -1.865 0
M  V30 3433 O 329.143 1.85677 -1.33177 0
M  V30 3434 C 329.353 -1.11575 -3.30684 0
M  V30 3435 C 330.701 -1.19548 -4.07423 0
M  V30 3436 O 331.725 -1.06765 -3.39823 0
M  V30 3437 O 330.584 -1.39656 -5.28354 0
M  V30 3438 H 327.678 -0.176772 -0.807887 0
M  V30 3439 H 330.224 -1.05303 -1.33076 0
M  V30 3440 H 328.996 -2.15884 -3.26358 0
M  V30 3441 H 328.619 -0.580059 -3.93346 0
M  V30 3442 N 329.616 1.39756 -0.72842 0
M  V30 3443 C 330.563 2.30647 -0.0841519 0
M  V30 3444 C 331.533 1.48869 0.7367 0
M  V30 3445 O 332.718 1.77574 0.698015 0
M  V30 3446 C 329.858 3.35165 0.822091 0
M  V30 3447 C 328.971 4.31999 -0.0106663 0
M  V30 3448 C 328.106 5.23585 0.896241 0
M  V30 3449 C 327.145 6.12072 0.0583381 0
M  V30 3450 N 326.282 6.96035 0.920818 0
M  V30 3451 H 331.122 2.85173 -0.864891 0
M  V30 3452 H 328.659 1.40422 -0.438179 0
M  V30 3453 H 330.617 3.94345 1.36189 0
M  V30 3454 H 329.247 2.8211 1.56888 0
M  V30 3455 H 328.299 3.74492 -0.66781 0
M  V30 3456 H 329.611 4.9443 -0.658825 0
M  V30 3457 H 328.765 5.87759 1.50412 0
M  V30 3458 H 327.504 4.61459 1.57819 0
M  V30 3459 H 326.509 5.46916 -0.562389 0
M  V30 3460 H 327.734 6.76261 -0.6203 0
M  V30 3461 H 325.68 6.36485 1.58818 0
M  V30 3462 H 325.597 7.55284 0.32899 0
M  V30 3463 H 326.865 7.64646 1.51447 0
M  V30 3464 N 331.094 0.475555 1.50254 0
M  V30 3465 C 332.343 -0.0795996 2.01543 0
M  V30 3466 C 332.656 -1.4038 1.36209 0
M  V30 3467 O 333.862 -2.04415 1.7868 0
M  V30 3468 C 332.318 -0.192363 3.59386 0
M  V30 3469 C 331.926 1.12367 4.33679 0
M  V30 3470 C 333.67 -0.699238 4.18701 0
M  V30 3471 C 331.577 0.974453 5.83317 0
M  V30 3472 H 330.507 -0.0335228 0.753254 0
M  V30 3473 H 333.158 0.611128 1.73025 0
M  V30 3474 H 331.54 -0.946974 3.84511 0
M  V30 3475 H 332.714 1.88958 4.20276 0
M  V30 3476 H 331.029 1.562 3.85993 0
M  V30 3477 H 333.626 -0.827978 5.28251 0
M  V30 3478 H 333.969 -1.69171 3.80377 0
M  V30 3479 H 334.502 -0.00188807 3.978 0
M  V30 3480 H 331.241 1.94042 6.26121 0
M  V30 3481 H 330.761 0.248998 5.99283 0
M  V30 3482 H 332.44 0.642867 6.43798 0
M  V30 3483 N 332.573 -1.56217 0.208337 0
M  V30 3484 C 333.52 -2.19699 -0.707192 0
M  V30 3485 C 334.49 -1.14836 -1.20008 0
M  V30 3486 O 335.675 -1.4314 -1.26157 0
M  V30 3487 C 332.815 -2.87061 -1.91546 0
M  V30 3488 C 331.928 -4.06483 -1.46271 0
M  V30 3489 C 331.063 -4.61665 -2.62752 0
M  V30 3490 C 330.102 -5.73417 -2.14147 0
M  V30 3491 N 329.239 -6.22948 -3.23853 0
M  V30 3492 H 334.079 -2.97575 -0.159111 0
M  V30 3493 H 331.616 -1.46948 -0.0667874 0
M  V30 3494 H 333.574 -3.24294 -2.62468 0
M  V30 3495 H 332.204 -2.11725 -2.43664 0
M  V30 3496 H 331.256 -3.74825 -0.648886 0
M  V30 3497 H 332.568 -4.87271 -1.06622 0
M  V30 3498 H 331.722 -5.01272 -3.41776 0
M  V30 3499 H 330.461 -3.80013 -3.05682 0
M  V30 3500 H 329.466 -5.33326 -1.33581 0
M  V30 3501 H 330.691 -6.56897 -1.72232 0
M  V30 3502 H 328.637 -5.44213 -3.6629 0
M  V30 3503 H 328.554 -6.98823 -2.88414 0
M  V30 3504 H 329.822 -6.6721 -4.03052 0
M  V30 3505 N 334.051 0.0651679 -1.57465 0
M  V30 3506 C 335.297 0.764193 -1.87851 0
M  V30 3507 C 335.63 1.76889 -0.801495 0
M  V30 3508 O 334.905 1.93594 0.187528 0
M  V30 3509 C 335.188 1.46625 -3.28897 0
M  V30 3510 C 335.041 0.477515 -4.47258 0
M  V30 3511 C 336.36 2.4095 -3.68281 0
M  V30 3512 H 333.479 0.276351 -0.683227 0
M  V30 3513 H 336.121 0.0272868 -1.8998 0
M  V30 3514 H 334.271 2.09438 -3.27212 0
M  V30 3515 H 335.943 -0.145922 -4.61069 0
M  V30 3516 H 334.186 -0.206576 -4.33308 0
M  V30 3517 H 334.857 1.0065 -5.42746 0
M  V30 3518 H 337.333 1.88209 -3.71102 0
M  V30 3519 H 336.209 2.87072 -4.67847 0
M  V30 3520 H 336.47 3.26049 -2.98571 0
M  V30 3521 N 335.529 1.53961 0.336706 0
M  V30 3522 C 336.459 1.85417 1.41925 0
M  V30 3523 C 337.44 0.709856 1.5458 0
M  V30 3524 O 338.625 0.962396 1.68676 0
M  V30 3525 C 335.755 2.06985 2.78881 0
M  V30 3526 C 334.709 3.22813 2.81026 0
M  V30 3527 C 334.035 3.29727 4.20932 0
M  V30 3528 C 335.335 4.60767 2.45949 0
M  V30 3529 H 337.029 2.76079 1.15848 0
M  V30 3530 H 334.575 1.32839 0.555859 0
M  V30 3531 H 336.528 2.27575 3.54665 0
M  V30 3532 H 335.252 1.13061 3.06406 0
M  V30 3533 H 333.911 3.0209 2.07695 0
M  V30 3534 H 333.559 2.33385 4.45579 0
M  V30 3535 H 333.259 4.07566 4.23277 0
M  V30 3536 H 334.783 3.52536 4.98549 0
M  V30 3537 H 336.197 4.81325 3.11446 0
M  V30 3538 H 334.594 5.4106 2.59566 0
M  V30 3539 H 335.664 4.6391 1.41122 0
M  V30 3540 N 337.007 -0.598083 1.45811 0
M  V30 3541 C 337.957 -1.70272 1.51629 0
M  V30 3542 C 338.941 -1.56382 0.378629 0
M  V30 3543 O 340.133 -1.65557 0.626087 0
M  V30 3544 C 337.262 -3.09042 1.49493 0
M  V30 3545 C 336.348 -3.28284 2.68496 0
M  V30 3546 N 336.739 -3.17748 3.93535 0
M  V30 3547 C 335.037 -3.59182 2.64394 0
M  V30 3548 C 335.738 -3.38579 4.7301 0
M  V30 3549 N 334.714 -3.63016 4.04624 0
M  V30 3550 H 338.516 -1.60634 2.46118 0
M  V30 3551 H 336.03 -0.801642 1.41235 0
M  V30 3552 H 338.027 -3.88302 1.51747 0
M  V30 3553 H 336.687 -3.19823 0.560683 0
M  V30 3554 H 337.698 -2.95944 4.25014 0
M  V30 3555 H 334.375 -3.76742 1.79922 0
M  V30 3556 H 335.765 -3.35747 5.82 0
M  V30 3557 N 338.485 -1.33259 -0.841409 0
M  V30 3558 C 339.415 -1.25926 -1.96634 0
M  V30 3559 C 340.396 -0.140349 -1.6952 0
M  V30 3560 O 341.581 -0.329707 -1.91381 0
M  V30 3561 C 338.711 -0.99512 -3.32738 0
M  V30 3562 C 337.665 -2.0767 -3.74242 0
M  V30 3563 C 336.991 -1.66474 -5.08125 0
M  V30 3564 C 338.291 -3.49318 -3.88297 0
M  V30 3565 H 339.985 -2.20046 -2.03027 0
M  V30 3566 H 337.531 -1.05931 -0.975425 0
M  V30 3567 H 339.484 -0.930323 -4.11002 0
M  V30 3568 H 338.208 -0.0183004 -3.26595 0
M  V30 3569 H 336.867 -2.13187 -2.98239 0
M  V30 3570 H 336.515 -0.675012 -4.9845 0
M  V30 3571 H 336.215 -2.3885 -5.36865 0
M  V30 3572 H 337.739 -1.61455 -5.88867 0
M  V30 3573 H 339.153 -3.46316 -4.56879 0
M  V30 3574 H 337.55 -4.20158 -4.28471 0
M  V30 3575 H 338.62 -3.8801 -2.9082 0
M  V30 3576 N 339.963 1.05934 -1.16686 0
M  V30 3577 C 340.91 2.13499 -0.876748 0
M  V30 3578 C 341.88 1.65162 0.176299 0
M  V30 3579 O 343.065 1.90757 0.0407143 0
M  V30 3580 C 340.205 3.42912 -0.387967 0
M  V30 3581 C 339.318 4.04964 -1.50426 0
M  V30 3582 C 338.453 5.22266 -0.970125 0
M  V30 3583 C 337.492 5.76309 -2.06238 0
M  V30 3584 N 336.629 6.84922 -1.54356 0
M  V30 3585 H 341.469 2.37654 -1.7979 0
M  V30 3586 H 339.006 1.16598 -0.896843 0
M  V30 3587 H 340.964 4.17111 -0.086186 0
M  V30 3588 H 339.594 3.18963 0.496235 0
M  V30 3589 H 338.646 3.28277 -1.92193 0
M  V30 3590 H 339.958 4.41122 -2.32836 0
M  V30 3591 H 339.112 6.03506 -0.621743 0
M  V30 3592 H 337.851 4.87564 -0.115377 0
M  V30 3593 H 336.856 4.93704 -2.41942 0
M  V30 3594 H 338.081 6.13062 -2.92115 0
M  V30 3595 H 336.027 6.52131 -0.711406 0
M  V30 3596 H 335.944 7.20043 -2.30379 0
M  V30 3597 H 337.212 7.69832 -1.22387 0
M  V30 3598 N 341.441 0.965919 1.2453 0
M  V30 3599 C 342.718 0.543777 1.87889 0
M  V30 3600 C 343.098 -0.97909 1.87021 0
M  V30 3601 O 342.446 -1.84969 1.3416 0
M  V30 3602 C 342.656 1.13327 3.30088 0
M  V30 3603 C 344.004 1.21707 4.06783 0
M  V30 3604 O 345.028 1.08566 3.39252 0
M  V30 3605 O 343.887 1.42456 5.27606 0
M  V30 3606 H 340.981 0.181054 0.806938 0
M  V30 3607 H 343.527 1.06007 1.32516 0
M  V30 3608 H 342.299 2.17612 3.25209 0
M  V30 3609 H 341.922 0.600911 3.93033 0
M  V30 3610 N 342.919 -1.39368 0.735821 0
M  V30 3611 C 343.852 -2.28155 0.0451175 0
M  V30 3612 C 344.83 -1.44433 -0.746852 0
M  V30 3613 O 346.014 -1.73823 -0.729237 0
M  V30 3614 C 343.141 -3.253 -0.943266 0
M  V30 3615 C 342.187 -4.25826 -0.239685 0
M  V30 3616 S 343.02 -5.25166 1.04693 0
M  V30 3617 C 344.176 -6.2587 0.0611639 0
M  V30 3618 H 344.409 -2.86388 0.79807 0
M  V30 3619 H 341.942 -1.45104 0.527653 0
M  V30 3620 H 343.9 -3.81789 -1.50824 0
M  V30 3621 H 342.561 -2.66085 -1.66906 0
M  V30 3622 H 341.754 -4.94229 -0.987596 0
M  V30 3623 H 341.356 -3.73141 0.253274 0
M  V30 3624 H 343.648 -6.73007 -0.778941 0
M  V30 3625 H 344.591 -7.04508 0.712362 0
M  V30 3626 H 344.999 -5.63639 -0.311602 0
M  V30 3627 N 344.397 -0.483516 -1.5 0
M  V30 3628 C 345.674 0.129337 -1.95172 0
M  V30 3629 C 346.054 1.55802 -1.4244 0
M  V30 3630 O 345.402 2.19625 -0.630649 0
M  V30 3631 C 345.612 0.0599251 -3.48949 0
M  V30 3632 C 346.96 0.242617 -4.23906 0
M  V30 3633 O 347.984 0.135933 -3.55941 0
M  V30 3634 O 346.843 0.459454 -5.44565 0
M  V30 3635 H 343.937 0.104887 -0.820322 0
M  V30 3636 H 346.483 -0.544807 -1.60717 0
M  V30 3637 H 345.255 -0.937079 -3.79914 0
M  V30 3638 H 344.878 0.774984 -3.89974 0
M  V30 3639 N 345.875 1.56104 -0.216619 0
M  V30 3640 C 346.807 2.17339 0.72776 0
M  V30 3641 C 347.82 1.14109 1.16116 0
M  V30 3642 O 349.009 1.4111 1.09317 0
M  V30 3643 C 346.109 2.73818 1.99693 0
M  V30 3644 C 345.282 4.02168 1.71988 0
M  V30 3645 C 344.341 4.43259 2.83562 0
M  V30 3646 O 343.367 5.10257 2.52244 0
M  V30 3647 N 344.569 4.08535 4.12407 0
M  V30 3648 H 347.334 2.99005 0.203983 0
M  V30 3649 H 344.895 1.61861 -0.0354289 0
M  V30 3650 H 346.887 2.9828 2.73516 0
M  V30 3651 H 345.457 1.96483 2.43132 0
M  V30 3652 H 344.677 3.85612 0.818337 0
M  V30 3653 H 345.965 4.85907 1.50903 0
M  V30 3654 H 345.363 3.54687 4.40696 0
M  V30 3655 H 343.92 4.37901 4.8279 0
M  V30 3656 N 347.353 -0.0568162 1.57498 0
M  V30 3657 C 348.285 -1.09292 2.01464 0
M  V30 3658 C 349.298 -1.34112 0.922913 0
M  V30 3659 O 350.487 -1.32089 1.20062 0
M  V30 3660 C 347.587 -2.44068 2.35125 0
M  V30 3661 C 346.76 -2.38995 3.66333 0
M  V30 3662 C 345.819 -3.55997 3.87495 0
M  V30 3663 O 344.845 -3.36746 4.58901 0
M  V30 3664 N 346.047 -4.76888 3.30996 0
M  V30 3665 H 348.812 -0.718386 2.90963 0
M  V30 3666 H 346.373 -0.245235 1.60032 0
M  V30 3667 H 348.365 -3.21011 2.46443 0
M  V30 3668 H 346.935 -2.73468 1.5144 0
M  V30 3669 H 346.155 -1.47336 3.65631 0
M  V30 3670 H 347.443 -2.3272 4.52458 0
M  V30 3671 H 346.841 -4.95431 2.73065 0
M  V30 3672 H 345.398 -5.51291 3.47738 0
M  V30 3673 N 348.832 -1.54138 -0.328536 0
M  V30 3674 C 349.762 -1.86167 -1.40939 0
M  V30 3675 C 350.743 -0.718044 -1.54202 0
M  V30 3676 O 351.928 -0.971328 -1.68163 0
M  V30 3677 C 349.058 -2.08461 -2.77779 0
M  V30 3678 C 348.012 -3.24299 -2.7931 0
M  V30 3679 C 347.338 -3.31955 -4.19178 0
M  V30 3680 C 348.638 -4.62065 -2.43502 0
M  V30 3681 H 350.332 -2.76689 -1.14383 0
M  V30 3682 H 347.878 -1.33132 -0.548806 0
M  V30 3683 H 349.831 -2.29453 -3.53454 0
M  V30 3684 H 348.555 -1.14684 -3.05802 0
M  V30 3685 H 347.214 -3.03187 -2.0609 0
M  V30 3686 H 346.862 -2.35745 -4.44335 0
M  V30 3687 H 346.562 -4.09805 -4.2111 0
M  V30 3688 H 348.086 -3.55175 -4.96672 0
M  V30 3689 H 349.5 -4.8297 -3.08889 0
M  V30 3690 H 347.897 -5.42429 -2.56693 0
M  V30 3691 H 348.967 -4.64652 -1.38659 0
M  V30 3692 N 350.31 0.590341 -1.46126 0
M  V30 3693 C 351.587 1.35029 -1.41515 0
M  V30 3694 C 351.967 2.10888 -0.0946472 0
M  V30 3695 O 351.315 2.08998 0.923693 0
M  V30 3696 C 351.525 2.28269 -2.63997 0
M  V30 3697 C 352.873 2.90338 -3.09821 0
M  V30 3698 O 353.897 2.38585 -2.64492 0
M  V30 3699 O 352.756 3.84321 -3.88535 0
M  V30 3700 H 349.85 0.606317 -0.562413 0
M  V30 3701 H 352.396 0.611994 -1.58281 0
M  V30 3702 H 351.168 1.71591 -3.51671 0
M  V30 3703 H 350.791 3.0945 -2.49652 0
M  V30 3704 N 351.788 1.33704 0.83433 0
M  V30 3705 C 353.035 1.25417 1.58987 0
M  V30 3706 C 353.363 -0.178869 1.93676 0
M  V30 3707 O 352.618 -1.13723 1.59265 0
M  V30 3708 C 352.917 2.07926 2.90692 0
M  V30 3709 C 352.583 3.57066 2.75345 0
M  V30 3710 C 351.245 3.97724 2.70867 0
M  V30 3711 C 353.597 4.51817 2.59828 0
M  V30 3712 C 350.925 5.31344 2.48778 0
M  V30 3713 C 353.277 5.85604 2.39272 0
M  V30 3714 C 351.941 6.25439 2.33199 0
M  V30 3715 H 351.211 0.458934 0.581774 0
M  V30 3716 H 353.858 1.65335 0.966261 0
M  V30 3717 H 352.163 1.608 3.57282 0
M  V30 3718 H 353.86 1.98868 3.48213 0
M  V30 3719 H 350.45 3.24785 2.79665 0
M  V30 3720 H 354.634 4.21311 2.62319 0
M  V30 3721 H 349.89 5.61241 2.42526 0
M  V30 3722 H 354.064 6.58623 2.2625 0
M  V30 3723 H 351.691 7.28914 2.15843 0
M  V30 3724 N 353.266 -1.05314 1.17247 0
M  V30 3725 C 354.512 -1.78699 0.971513 0
M  V30 3726 C 354.867 -1.85932 -0.494692 0
M  V30 3727 O 354.16 -1.34716 -1.36243 0
M  V30 3728 C 354.354 -3.2229 1.54479 0
M  V30 3729 C 354.183 -3.29052 3.06521 0
M  V30 3730 C 352.953 -3.3841 3.75242 0
M  V30 3731 C 355.151 -3.18095 4.04129 0
M  V30 3732 N 353.133 -3.34289 5.14902 0
M  V30 3733 C 354.504 -3.21331 5.30232 0
M  V30 3734 C 356.559 -3.02049 3.95817 0
M  V30 3735 C 355.262 -3.10169 6.4899 0
M  V30 3736 C 357.288 -2.92228 5.14156 0
M  V30 3737 C 356.65 -2.96096 6.39145 0
M  V30 3738 H 352.749 -0.66628 0.409383 0
M  V30 3739 H 355.333 -1.25553 1.4881 0
M  V30 3740 H 353.504 -3.7381 1.05455 0
M  V30 3741 H 355.236 -3.83905 1.28059 0
M  V30 3742 H 351.991 -3.43621 3.25917 0
M  V30 3743 H 352.415 -3.35702 5.87906 0
M  V30 3744 H 357.057 -2.97897 3.00029 0
M  V30 3745 H 354.775 -3.13076 7.44989 0
M  V30 3746 H 358.361 -2.80885 5.09505 0
M  V30 3747 H 357.241 -2.88568 7.29176 0
M  V30 3748 N 354.744 -0.972509 -1.24016 0
M  V30 3749 C 355.692 -0.498562 -2.27194 0
M  V30 3750 C 356.686 0.440372 -1.63576 0
M  V30 3751 O 357.892 0.315133 -1.7722 0
M  V30 3752 H 354.267 -0.142775 -0.738322 0
M  V30 3753 H 356.238 -1.38065 -2.64539 0
M  V30 3754 C 354.987 0.191072 -3.47175 0
M  V30 3755 H 354.31 -0.522318 -3.96373 0
M  V30 3756 H 355.75 0.486445 -4.212 0
M  V30 3757 C 354.209 1.41967 -3.05527 0
M  V30 3758 O 354.739 2.51642 -3.13112 0
M  V30 3759 N 352.945 1.28746 -2.60524 0
M  V30 3760 H 352.492 0.395089 -2.54552 0
M  V30 3761 H 352.45 2.11061 -2.33025 0
M  V30 3762 N 356.222 1.38976 -0.743202 0
M  V30 3763 C 357.152 2.33171 -0.123873 0
M  V30 3764 C 358.133 1.54336 0.71516 0
M  V30 3765 O 359.318 1.82696 0.658467 0
M  V30 3766 C 356.448 3.38474 0.777978 0
M  V30 3767 C 355.402 4.27979 0.0424758 0
M  V30 3768 C 354.728 5.2405 1.06189 0
M  V30 3769 C 356.028 5.10155 -1.1198 0
M  V30 3770 H 357.722 2.85213 -0.910709 0
M  V30 3771 H 355.268 1.37133 -0.439388 0
M  V30 3772 H 357.221 4.03328 1.22084 0
M  V30 3773 H 355.945 2.84891 1.59702 0
M  V30 3774 H 354.604 3.64616 -0.380853 0
M  V30 3775 H 354.252 4.66758 1.87472 0
M  V30 3776 H 353.952 5.84785 0.574485 0
M  V30 3777 H 355.476 5.9178 1.50428 0
M  V30 3778 H 356.89 5.68307 -0.75499 0
M  V30 3779 H 355.287 5.80073 -1.53738 0
M  V30 3780 H 356.357 4.44504 -1.93764 0
M  V30 3781 N 357.7 0.491464 1.49741 0
M  V30 3782 C 358.633 -0.338464 2.25676 0
M  V30 3783 C 359.611 -0.978676 1.29849 0
M  V30 3784 O 360.795 -1.01064 1.59117 0
M  V30 3785 C 357.922 -1.47588 3.04853 0
M  V30 3786 C 356.968 -0.951 4.15762 0
M  V30 3787 S 357.801 0.150626 5.35288 0
M  V30 3788 C 358.957 -0.990178 6.18018 0
M  V30 3789 H 359.19 0.306068 2.9572 0
M  V30 3790 H 356.723 0.276622 1.51902 0
M  V30 3791 H 358.681 -2.12764 3.51058 0
M  V30 3792 H 357.342 -2.09199 2.34296 0
M  V30 3793 H 356.535 -1.80311 4.70642 0
M  V30 3794 H 356.137 -0.376607 3.72099 0
M  V30 3795 H 358.429 -1.89748 6.50386 0
M  V30 3796 H 359.372 -0.480205 7.0647 0
M  V30 3797 H 359.78 -1.25321 5.50413 0
M  V30 3798 N 359.178 -1.55987 0.224894 0
M  V30 3799 C 360.141 -2.19178 -0.670348 0
M  V30 3800 C 361.141 -1.15461 -1.11917 0
M  V30 3801 O 362.331 -1.40675 -1.02743 0
M  V30 3802 C 359.463 -2.81777 -1.9187 0
M  V30 3803 H 360.656 -2.99662 -0.119364 0
M  V30 3804 H 358.209 -1.5628 -0.0247128 0
M  V30 3805 H 358.944 -2.05172 -2.51147 0
M  V30 3806 H 358.729 -3.57732 -1.60531 0
M  V30 3807 H 360.219 -3.30205 -2.55645 0
M  V30 3808 N 360.656 0.0484629 -1.57525 0
M  V30 3809 C 361.886 0.754326 -1.92337 0
M  V30 3810 C 362.294 1.70443 -0.82132 0
M  V30 3811 O 361.637 1.82466 0.21254 0
M  V30 3812 C 361.699 1.58231 -3.22805 0
M  V30 3813 C 361.363 0.799074 -4.4996 0
M  V30 3814 C 362.36 0.1079 -5.19788 0
M  V30 3815 C 360.045 0.759345 -4.96527 0
M  V30 3816 C 362.039 -0.612516 -6.3445 0
M  V30 3817 C 359.726 0.0351713 -6.1109 0
M  V30 3818 C 360.724 -0.649537 -6.79904 0
M  V30 3819 O 360.412 -1.36199 -7.92278 0
M  V30 3820 H 360.144 0.218257 -0.639797 0
M  V30 3821 H 362.698 0.0159295 -2.05394 0
M  V30 3822 H 360.928 2.36406 -3.06021 0
M  V30 3823 H 362.617 2.16898 -3.43089 0
M  V30 3824 H 363.383 0.129748 -4.84826 0
M  V30 3825 H 359.262 1.28177 -4.42822 0
M  V30 3826 H 362.806 -1.14751 -6.88097 0
M  V30 3827 H 358.703 0.0113314 -6.45499 0
M  V30 3828 H 359.471 -1.27366 -8.0853 0
M  V30 3829 N 362.134 1.5431 0.320358 0
M  V30 3830 C 363.411 1.63322 1.07635 0
M  V30 3831 C 363.791 0.46912 2.05821 0
M  V30 3832 O 363.139 -0.536274 2.22118 0
M  V30 3833 C 363.349 3.00465 1.77544 0
M  V30 3834 C 364.697 3.56621 2.30449 0
M  V30 3835 O 365.721 3.02791 1.87606 0
M  V30 3836 O 364.58 4.5083 3.08892 0
M  V30 3837 H 361.674 0.661502 0.496331 0
M  V30 3838 H 364.22 1.66656 0.319992 0
M  V30 3839 H 362.992 3.76629 1.06143 0
M  V30 3840 H 362.615 3.00824 2.59982 0
M  V30 3841 N 363.613 -0.582584 1.46437 0
M  V30 3842 C 364.843 -1.36484 1.55099 0
M  V30 3843 C 365.251 -1.88233 0.191056 0
M  V30 3844 O 364.594 -1.6429 -0.821858 0
M  V30 3845 C 364.656 -2.588 2.49525 0
M  V30 3846 C 364.32 -2.28517 3.95764 0
M  V30 3847 C 365.317 -1.87346 4.84972 0
M  V30 3848 C 363.002 -2.40658 4.40896 0
M  V30 3849 C 364.996 -1.5871 6.17325 0
M  V30 3850 C 362.683 -2.11635 5.73284 0
M  V30 3851 C 363.681 -1.70725 6.61318 0
M  V30 3852 O 363.369 -1.42057 7.91249 0
M  V30 3853 H 363.101 -0.423297 0.527063 0
M  V30 3854 H 365.655 -0.715188 1.92547 0
M  V30 3855 H 363.885 -3.26571 2.07095 0
M  V30 3856 H 365.574 -3.20868 2.48593 0
M  V30 3857 H 366.34 -1.77481 4.5136 0
M  V30 3858 H 362.219 -2.71463 3.72598 0
M  V30 3859 H 365.763 -1.26704 6.85997 0
M  V30 3860 H 361.66 -2.21124 6.06444 0
M  V30 3861 H 362.428 -1.55901 8.03515 0
M  V30 3862 N 365.091 -1.34144 -0.827227 0
M  V30 3863 C 366.054 -1.25264 -1.91942 0
M  V30 3864 C 367.054 -0.168866 -1.59911 0
M  V30 3865 O 368.244 -0.421198 -1.69031 0
M  V30 3866 C 365.376 -0.932952 -3.27885 0
M  V30 3867 H 366.569 -2.22357 -2.0124 0
M  V30 3868 H 364.122 -1.1837 -1.0207 0
M  V30 3869 H 364.857 0.0349917 -3.24281 0
M  V30 3870 H 364.642 -1.71682 -3.52516 0
M  V30 3871 H 366.132 -0.895874 -4.07877 0
M  V30 3872 N 366.569 1.04691 -1.17803 0
M  V30 3873 C 367.817 1.7743 -0.967617 0
M  V30 3874 C 368.138 1.88359 0.504574 0
M  V30 3875 O 367.408 1.40402 1.36617 0
M  V30 3876 H 365.988 0.657242 -0.355024 0
M  V30 3877 H 368.65 1.2638 -1.48371 0
M  V30 3878 H 367.746 2.78924 -1.40027 0
M  V30 3879 N 368.047 0.979072 1.23499 0
M  V30 3880 C 369.272 0.664845 1.96455 0
M  V30 3881 C 369.697 -0.761287 1.72006 0
M  V30 3882 O 369.055 -1.51837 0.990713 0
M  V30 3883 C 369.103 0.959479 3.47601 0
M  V30 3884 O 368.207 0.0508168 4.12369 0
M  V30 3885 H 367.548 0.250185 0.615064 0
M  V30 3886 H 370.078 1.31231 1.5697 0
M  V30 3887 H 370.088 0.895642 3.98048 0
M  V30 3888 H 368.763 1.99876 3.64723 0
M  V30 3889 H 367.34 0.16895 3.72517 0
M  V30 3890 N 369.525 -1.3858 0.750561 0
M  V30 3891 C 370.772 -2.00184 0.305373 0
M  V30 3892 C 371.1 -1.59575 -1.11203 0
M  V30 3893 O 370.355 -0.823236 -1.77542 0
M  V30 3894 C 370.654 -3.55455 0.372373 0
M  V30 3895 C 370.32 -4.15765 1.745 0
M  V30 3896 C 368.982 -4.31951 2.12065 0
M  V30 3897 C 371.334 -4.49067 2.64553 0
M  V30 3898 C 368.662 -4.78734 3.39162 0
M  V30 3899 C 371.014 -4.97265 3.91038 0
M  V30 3900 C 369.678 -5.11658 4.28676 0
M  V30 3901 H 368.948 -0.732526 0.111744 0
M  V30 3902 H 371.595 -1.65673 0.960451 0
M  V30 3903 H 369.9 -3.90084 -0.366272 0
M  V30 3904 H 371.597 -4.00999 0.00953918 0
M  V30 3905 H 368.187 -4.03579 1.44297 0
M  V30 3906 H 372.371 -4.36166 2.36796 0
M  V30 3907 H 367.627 -4.88062 3.68246 0
M  V30 3908 H 371.801 -5.22003 4.60962 0
M  V30 3909 H 369.428 -5.47668 5.27222 0
M  V30 3910 N 371.003 -0.499398 -1.49478 0
M  V30 3911 C 372.228 0.044722 -2.07352 0
M  V30 3912 C 372.653 1.30207 -1.35749 0
M  V30 3913 O 372.011 1.76516 -0.413732 0
M  V30 3914 C 372.059 0.283013 -3.59488 0
M  V30 3915 O 371.163 1.35804 -3.89398 0
M  V30 3916 H 370.504 -0.0255147 -0.66351 0
M  V30 3917 H 373.034 -0.698561 -1.92305 0
M  V30 3918 H 373.044 0.515007 -4.04737 0
M  V30 3919 H 371.719 -0.635636 -4.11014 0
M  V30 3920 H 370.296 1.11113 -3.55961 0
M  V30 3921 N 372.481 1.55866 -0.233164 0
M  V30 3922 C 373.706 2.03449 0.402906 0
M  V30 3923 C 374.131 1.11166 1.51736 0
M  V30 3924 O 373.489 0.101996 1.81013 0
M  V30 3925 C 373.537 3.49165 0.9009 0
M  V30 3926 O 372.641 3.60019 2.01147 0
M  V30 3927 H 371.982 0.657913 0.0897025 0
M  V30 3928 H 374.512 2.01493 -0.355201 0
M  V30 3929 H 374.522 3.89716 1.2077 0
M  V30 3930 H 373.197 4.15813 0.0852889 0
M  V30 3931 H 371.774 3.3136 1.71042 0
M  V30 3932 N 373.959 -0.0401083 1.57549 0
M  V30 3933 C 374.889 -1.04384 2.08869 0
M  V30 3934 C 375.87 -1.38407 0.988817 0
M  V30 3935 O 377.055 -1.47483 1.26342 0
M  V30 3936 C 374.185 -2.34808 2.55895 0
M  V30 3937 C 373.139 -2.15057 3.70047 0
M  V30 3938 C 372.465 -3.51145 4.03239 0
M  V30 3939 C 373.765 -1.54576 4.98902 0
M  V30 3940 H 375.459 -0.616666 2.92981 0
M  V30 3941 H 373.005 -0.295184 1.40942 0
M  V30 3942 H 374.958 -3.05346 2.90417 0
M  V30 3943 H 373.682 -2.79565 1.68853 0
M  V30 3944 H 372.341 -1.46954 3.35857 0
M  V30 3945 H 371.989 -3.93529 3.13279 0
M  V30 3946 H 371.689 -3.38758 4.80122 0
M  V30 3947 H 373.213 -4.23062 4.40285 0
M  V30 3948 H 374.627 -2.15017 5.31451 0
M  V30 3949 H 373.024 -1.52796 5.80322 0
M  V30 3950 H 374.094 -0.51039 4.82206 0
M  V30 3951 N 375.437 -1.54477 -0.31217 0
M  V30 3952 C 376.662 -1.77526 -1.07235 0
M  V30 3953 C 377.087 -0.527775 -1.80544 0
M  V30 3954 O 376.445 0.52121 -1.73646 0
M  V30 3955 C 376.493 -2.97535 -2.03728 0
M  V30 3956 O 375.597 -2.69878 -3.11833 0
M  V30 3957 H 374.938 -0.58792 -0.30862 0
M  V30 3958 H 377.468 -2.01532 -0.352993 0
M  V30 3959 H 377.478 -3.25198 -2.46395 0
M  V30 3960 H 376.153 -3.87996 -1.49774 0
M  V30 3961 H 374.73 -2.53199 -2.7376 0
M  V30 3962 N 376.915 0.57481 -1.46744 0
M  V30 3963 C 378.163 1.33009 -1.52161 0
M  V30 3964 C 378.484 1.94185 -0.178092 0
M  V30 3965 O 377.754 1.7899 0.796196 0
M  V30 3966 H 376.334 0.493873 -0.560445 0
M  V30 3967 H 378.996 0.672589 -1.82927 0
M  V30 3968 H 378.092 2.13273 -2.27862 0
M  V30 3969 N 378.394 1.34581 0.820102 0
M  V30 3970 C 379.344 1.22943 1.92013 0
M  V30 3971 C 380.328 0.127802 1.60392 0
M  V30 3972 O 381.52 0.357737 1.73347 0
M  V30 3973 C 378.649 0.989938 3.28717 0
M  V30 3974 C 377.735 2.13486 3.66449 0
M  V30 3975 N 378.126 3.38625 3.75722 0
M  V30 3976 C 376.424 2.04573 3.96315 0
M  V30 3977 C 377.125 4.13832 4.08801 0
M  V30 3978 N 376.101 3.42451 4.22171 0
M  V30 3979 H 379.903 2.17771 1.97365 0
M  V30 3980 H 377.417 1.2686 1.01392 0
M  V30 3981 H 379.414 0.887462 4.07345 0
M  V30 3982 H 378.074 0.0503691 3.24661 0
M  V30 3983 H 379.085 3.73143 3.59144 0
M  V30 3984 H 375.762 1.1839 4.00362 0
M  V30 3985 H 377.152 5.21909 4.23156 0
M  V30 3986 N 379.872 -1.04064 1.18357 0
M  V30 3987 C 380.804 -2.12114 0.868358 0
M  V30 3988 C 381.817 -1.62247 -0.134045 0
M  V30 3989 O 383.006 -1.78253 0.0937933 0
M  V30 3990 C 380.106 -3.37773 0.276132 0
M  V30 3991 C 379.279 -4.16874 1.3242 0
M  V30 3992 C 378.338 -5.20861 0.747662 0
M  V30 3993 O 377.364 -5.51141 1.42239 0
M  V30 3994 N 378.566 -5.78715 -0.454823 0
M  V30 3995 H 381.331 -2.39748 1.79836 0
M  V30 3996 H 378.892 -1.20258 1.08396 0
M  V30 3997 H 380.884 -4.04513 -0.123133 0
M  V30 3998 H 379.454 -3.07581 -0.557895 0
M  V30 3999 H 378.674 -3.45456 1.89878 0
M  V30 4000 H 379.962 -4.66516 2.03078 0
M  V30 4001 H 379.36 -5.56415 -1.02073 0
M  V30 4002 H 377.917 -6.46921 -0.79601 0
M  V30 4003 N 381.35 -0.985608 -1.22978 0
M  V30 4004 C 382.313 -0.535071 -2.22867 0
M  V30 4005 C 383.313 0.378123 -1.56291 0
M  V30 4006 O 384.503 0.171092 -1.73358 0
M  V30 4007 C 381.635 0.222702 -3.40172 0
M  V30 4008 H 382.828 -1.41835 -2.6424 0
M  V30 4009 H 380.381 -0.772042 -1.35901 0
M  V30 4010 H 381.116 1.12229 -3.04262 0
M  V30 4011 H 380.901 -0.43288 -3.89703 0
M  V30 4012 H 382.391 0.526335 -4.1427 0
M  V30 4013 N 382.828 1.3818 -0.7579 0
M  V30 4014 C 383.776 2.32277 -0.122482 0
M  V30 4015 C 384.77 1.54238 0.700505 0
M  V30 4016 O 385.976 1.69737 0.599119 0
M  V30 4017 H 382.351 0.751712 -0.0208143 0
M  V30 4018 H 384.322 2.83469 -0.932099 0
M  V30 4019 C 383.071 3.39447 0.753076 0
M  V30 4020 H 382.394 3.99591 0.129184 0
M  V30 4021 H 383.834 4.07684 1.16489 0
M  V30 4022 C 382.293 2.78375 1.8976 0
M  V30 4023 O 382.823 2.68025 2.99208 0
M  V30 4024 N 381.029 2.36121 1.69397 0
M  V30 4025 H 380.576 2.4474 0.803762 0
M  V30 4026 H 380.534 1.95602 2.46145 0
M  V30 4027 N 384.306 0.507319 1.49211 0
M  V30 4028 C 385.552 -0.0350047 2.0277 0
M  V30 4029 C 385.885 -1.3606 1.38569 0
M  V30 4030 O 385.16 -1.87321 0.523542 0
M  V30 4031 C 385.443 -0.180916 3.59645 0
M  V30 4032 C 385.296 1.16825 4.34364 0
M  V30 4033 C 386.615 -0.918558 4.30407 0
M  V30 4034 H 383.734 -0.0112473 0.736914 0
M  V30 4035 H 386.376 0.659956 1.7817 0
M  V30 4036 H 384.526 -0.772826 3.80736 0
M  V30 4037 H 386.198 1.79952 4.24753 0
M  V30 4038 H 384.441 1.75594 3.96673 0
M  V30 4039 H 385.112 1.01939 5.42506 0
M  V30 4040 H 387.588 -0.41649 4.1401 0
M  V30 4041 H 386.464 -0.989505 5.39907 0
M  V30 4042 H 386.725 -1.96373 3.96093 0
M  V30 4043 N 385.784 -1.5574 0.241426 0
M  V30 4044 C 387.014 -2.02913 -0.38857 0
M  V30 4045 C 387.422 -1.12014 -1.52478 0
M  V30 4046 O 386.765 -0.125903 -1.83268 0
M  V30 4047 C 386.827 -3.4636 -0.963075 0
M  V30 4048 C 386.491 -4.56982 0.0401916 0
M  V30 4049 C 387.488 -5.12941 0.847766 0
M  V30 4050 C 385.173 -5.0203 0.164699 0
M  V30 4051 C 387.167 -6.12437 1.76636 0
M  V30 4052 C 384.854 -6.01358 1.0868 0
M  V30 4053 C 385.852 -6.5644 1.88616 0
M  V30 4054 O 385.54 -7.53831 2.79273 0
M  V30 4055 H 385.272 -0.668983 -0.0971452 0
M  V30 4056 H 387.826 -2.02198 0.361248 0
M  V30 4057 H 386.056 -3.44206 -1.76235 0
M  V30 4058 H 387.745 -3.77065 -1.50257 0
M  V30 4059 H 388.511 -4.78974 0.762133 0
M  V30 4060 H 384.39 -4.58824 -0.447411 0
M  V30 4061 H 387.934 -6.55355 2.39071 0
M  V30 4062 H 383.831 -6.34746 1.17338 0
M  V30 4063 H 384.599 -7.71428 2.73572 0
M  V30 4064 N 387.262 0.0317525 -1.57568 0
M  V30 4065 C 388.21 1.05165 -2.07468 0
M  V30 4066 C 389.204 1.3761 -0.98792 0
M  V30 4067 O 390.41 1.36546 -1.17282 0
M  V30 4068 H 386.785 0.35666 -0.66204 0
M  V30 4069 H 388.756 0.604958 -2.92203 0
M  V30 4070 C 387.505 2.34488 -2.56731 0
M  V30 4071 H 386.828 2.10383 -3.39969 0
M  V30 4072 H 388.268 3.04203 -2.95358 0
M  V30 4073 C 386.727 3.03266 -1.46736 0
M  V30 4074 O 387.257 3.92988 -0.832069 0
M  V30 4075 N 385.463 2.6455 -1.20256 0
M  V30 4076 H 385.01 1.91674 -1.72102 0
M  V30 4077 H 384.968 3.10886 -0.468737 0
M  V30 4078 N 388.74 1.54641 0.303973 0
M  V30 4079 C 390.017 1.64455 1.05896 0
M  V30 4080 C 390.397 0.490923 2.05312 0
M  V30 4081 O 389.745 -0.512685 2.22674 0
M  V30 4082 C 389.955 3.02331 1.74347 0
M  V30 4083 C 391.303 3.59045 2.26653 0
M  V30 4084 O 392.327 3.04764 1.84384 0
M  V30 4085 O 391.186 4.54081 3.04093 0
M  V30 4086 H 388.28 0.666729 0.489287 0
M  V30 4087 H 390.826 1.66986 0.302298 0
M  V30 4088 H 389.598 3.77734 1.02142 0
M  V30 4089 H 389.221 3.03565 2.56777 0
M  V30 4090 N 390.218 -0.567019 1.47046 0
M  V30 4091 C 391.446 -1.35027 1.56765 0
M  V30 4092 C 391.861 -1.8758 0.214316 0
M  V30 4093 O 391.218 -1.64471 -0.790919 0
M  V30 4094 C 391.269 -2.52698 2.58507 0
M  V30 4095 O 390.99 -2.0232 3.88585 0
M  V30 4096 C 392.491 -3.45043 2.78316 0
M  V30 4097 H 389.711 -0.41195 0.529658 0
M  V30 4098 H 392.255 -0.687832 1.92585 0
M  V30 4099 H 390.41 -3.149 2.25648 0
M  V30 4100 H 390.824 -2.79068 4.44096 0
M  V30 4101 H 392.298 -4.2405 3.53391 0
M  V30 4102 H 392.775 -3.97971 1.85784 0
M  V30 4103 H 393.381 -2.88665 3.12334 0
M  V30 4104 N 391.696 -1.35014 -0.812953 0
M  V30 4105 C 392.921 -1.31187 -1.60639 0
M  V30 4106 C 393.346 0.109382 -1.87782 0
M  V30 4107 O 392.704 1.07424 -1.46047 0
M  V30 4108 C 392.752 -2.11809 -2.91838 0
M  V30 4109 O 391.856 -1.49444 -3.8437 0
M  V30 4110 H 391.197 -0.450084 -0.488181 0
M  V30 4111 H 393.727 -1.77963 -1.00947 0
M  V30 4112 H 393.737 -2.23531 -3.41318 0
M  V30 4113 H 392.412 -3.15137 -2.71407 0
M  V30 4114 H 390.989 -1.46524 -3.42907 0
M  V30 4115 N 393.175 1.03435 -1.18907 0
M  V30 4116 C 394.123 2.13703 -0.918353 0
M  V30 4117 C 395.117 1.68947 0.123767 0
M  V30 4118 O 396.323 1.79983 -0.0249701 0
M  V30 4119 H 392.698 0.698112 -0.279542 0
M  V30 4120 H 394.669 2.33731 -1.85506 0
M  V30 4121 C 393.418 3.44542 -0.467532 0
M  V30 4122 H 392.741 3.79394 -1.26095 0
M  V30 4123 H 394.181 4.22812 -0.317164 0
M  V30 4124 C 392.64 3.26829 0.817588 0
M  V30 4125 O 393.17 3.54975 1.88031 0
M  V30 4126 N 391.376 2.80139 0.772677 0
M  V30 4127 H 390.923 2.57434 -0.0923883 0
M  V30 4128 H 390.881 2.68668 1.63294 0
M  V30 4129 N 394.653 0.992116 1.22453 0
M  V30 4130 C 396.064 0.702776 1.72968 0
M  V30 4131 C 396.415 -0.780399 1.80012 0
M  V30 4132 O 395.54 -1.61007 1.44589 0
M  V30 4133 C 396.135 1.26903 3.14135 0
M  V30 4134 C 394.694 1.02909 3.62059 0
M  V30 4135 C 393.841 1.38969 2.39964 0
M  V30 4136 H 396.792 1.16457 1.07812 0
M  V30 4137 H 396.813 0.647223 3.74955 0
M  V30 4138 H 396.325 2.34851 3.08977 0
M  V30 4139 H 394.426 -0.0337979 3.72585 0
M  V30 4140 H 394.539 1.69191 4.48231 0
M  V30 4141 H 392.903 0.808279 2.41535 0
M  V30 4142 H 393.686 2.4792 2.37467 0
M  V30 4143 N 396.131 -1.37776 0.765217 0
M  V30 4144 C 397.061 -2.32945 0.160953 0
M  V30 4145 C 398.042 -1.55454 -0.690516 0
M  V30 4146 O 399.227 -1.83721 -0.629318 0
M  V30 4147 C 396.357 -3.39669 -0.724031 0
M  V30 4148 C 395.311 -4.27992 0.0256173 0
M  V30 4149 C 394.637 -5.25673 -0.978383 0
M  V30 4150 C 395.937 -5.08309 1.20082 0
M  V30 4151 H 397.631 -2.83728 0.955969 0
M  V30 4152 H 395.177 -1.36416 0.461149 0
M  V30 4153 H 397.13 -4.05219 -1.15652 0
M  V30 4154 H 395.854 -2.87396 -1.5515 0
M  V30 4155 H 394.513 -3.63964 0.438812 0
M  V30 4156 H 394.161 -4.69682 -1.80022 0
M  V30 4157 H 393.861 -5.85625 -0.481378 0
M  V30 4158 H 395.385 -5.94098 -1.40995 0
M  V30 4159 H 396.799 -5.67034 0.845307 0
M  V30 4160 H 395.196 -5.77554 1.62947 0
M  V30 4161 H 396.266 -4.41365 2.00811 0
M  V30 4162 N 397.609 -0.515225 -1.4894 0
M  V30 4163 C 398.834 0.022727 -2.07388 0
M  V30 4164 C 399.259 1.2876 -1.37122 0
M  V30 4165 O 398.617 1.76067 -0.432431 0
M  V30 4166 C 398.665 0.244869 -3.59768 0
M  V30 4167 O 397.769 1.31667 -3.90817 0
M  V30 4168 H 397.11 -0.0325506 -0.663202 0
M  V30 4169 H 399.64 -0.718918 -1.91553 0
M  V30 4170 H 399.65 0.47205 -4.0526 0
M  V30 4171 H 398.325 -0.679194 -4.10317 0
M  V30 4172 H 396.902 1.07331 -3.5712 0
M  V30 4173 N 399.087 1.5561 -0.249682 0
M  V30 4174 C 400.315 2.03411 0.378352 0
M  V30 4175 C 400.73 1.12886 1.51335 0
M  V30 4176 O 400.087 0.143833 1.81932 0
M  V30 4177 C 400.138 3.50537 0.88351 0
M  V30 4178 O 399.859 4.37614 -0.20626 0
M  V30 4179 C 401.36 4.14113 1.58195 0
M  V30 4180 H 398.58 0.664994 0.08958 0
M  V30 4181 H 401.124 2.01044 -0.374357 0
M  V30 4182 H 399.279 3.5343 1.58639 0
M  V30 4183 H 399.693 5.24199 0.177782 0
M  V30 4184 H 401.167 5.18741 1.8871 0
M  V30 4185 H 401.644 3.60767 2.50487 0
M  V30 4186 H 402.25 4.15151 0.923573 0
M  V30 4187 N 400.565 -0.0233959 1.57583 0
M  V30 4188 C 401.976 -0.56927 1.77809 0
M  V30 4189 C 402.327 -1.75284 0.881472 0
M  V30 4190 O 401.452 -2.1626 0.0777805 0
M  V30 4191 C 402.047 -1.03949 3.22459 0
M  V30 4192 C 400.606 -1.53084 3.43864 0
M  V30 4193 C 399.753 -0.471454 2.73263 0
M  V30 4194 H 402.704 0.202825 1.57399 0
M  V30 4195 H 402.725 -1.90661 3.29285 0
M  V30 4196 H 402.237 -0.177865 3.87692 0
M  V30 4197 H 400.338 -2.41414 2.83814 0
M  V30 4198 H 400.451 -1.57443 4.52491 0
M  V30 4199 H 398.815 -0.927788 2.37201 0
M  V30 4200 H 399.598 0.380808 3.41181 0
M  V30 4201 N 402.043 -1.548 -0.295768 0
M  V30 4202 C 403.29 -1.74329 -1.03032 0
M  V30 4203 C 403.618 -0.531915 -1.87085 0
M  V30 4204 O 402.873 0.486052 -1.89568 0
M  V30 4205 C 403.172 -2.98797 -1.961 0
M  V30 4206 C 402.838 -4.32356 -1.2798 0
M  V30 4207 C 401.5 -4.68661 -1.09135 0
M  V30 4208 C 403.852 -5.15128 -0.793243 0
M  V30 4209 C 401.18 -5.85312 -0.403269 0
M  V30 4210 C 403.532 -6.32488 -0.118854 0
M  V30 4211 C 402.196 -6.6745 0.0815043 0
M  V30 4212 H 401.466 -0.637916 -0.37702 0
M  V30 4213 H 404.113 -1.8906 -0.304696 0
M  V30 4214 H 402.418 -2.78869 -2.75207 0
M  V30 4215 H 404.115 -3.11102 -2.53015 0
M  V30 4216 H 400.705 -4.03808 -1.43655 0
M  V30 4217 H 404.889 -4.87575 -0.92653 0
M  V30 4218 H 400.145 -6.1094 -0.237098 0
M  V30 4219 H 404.319 -6.95892 0.266035 0
M  V30 4220 H 401.946 -7.57695 0.616685 0
M  V30 4221 N 403.521 0.559213 -1.47345 0
M  V30 4222 C 404.469 1.68747 -1.60085 0
M  V30 4223 C 405.463 1.628 -0.46825 0
M  V30 4224 O 406.669 1.68009 -0.645977 0
M  V30 4225 H 403.044 0.558329 -0.503759 0
M  V30 4226 H 405.015 1.55138 -2.54902 0
M  V30 4227 C 403.764 3.07103 -1.63042 0
M  V30 4228 H 403.087 3.12361 -2.49541 0
M  V30 4229 H 404.527 3.85743 -1.76006 0
M  V30 4230 C 402.986 3.34935 -0.363357 0
M  V30 4231 O 403.516 3.98102 0.536416 0
M  V30 4232 N 401.722 2.89574 -0.244 0
M  V30 4233 H 401.269 2.38348 -0.977133 0
M  V30 4234 H 401.227 3.08566 0.602836 0
M  V30 4235 N 404.999 1.35443 0.805782 0
M  V30 4236 C 406.227 1.31878 1.59423 0
M  V30 4237 C 406.642 -0.103562 1.88516 0
M  V30 4238 O 405.999 -1.05575 1.48863 0
M  V30 4239 C 406.05 2.12426 2.92502 0
M  V30 4240 O 405.771 3.49115 2.6467 0
M  V30 4241 C 407.272 2.16455 3.86862 0
M  V30 4242 H 404.492 0.453002 0.495005 0
M  V30 4243 H 407.036 1.78309 1.00131 0
M  V30 4244 H 405.191 1.69593 3.48306 0
M  V30 4245 H 405.605 3.90957 3.49647 0
M  V30 4246 H 407.079 2.77204 4.77349 0
M  V30 4247 H 407.556 1.16352 4.23508 0
M  V30 4248 H 408.162 2.59453 3.36993 0
M  V30 4249 N 406.477 -1.02803 1.19454 0
M  V30 4250 C 407.409 -2.11181 0.890807 0
M  V30 4251 C 408.422 -1.6238 -0.116829 0
M  V30 4252 O 409.611 -1.78144 0.112694 0
M  V30 4253 C 406.711 -3.37461 0.311942 0
M  V30 4254 C 405.884 -4.15446 1.36834 0
M  V30 4255 C 404.943 -5.20039 0.802864 0
M  V30 4256 O 403.969 -5.49602 1.48077 0
M  V30 4257 N 405.171 -5.79165 -0.393417 0
M  V30 4258 H 407.936 -2.37827 1.82369 0
M  V30 4259 H 405.497 -1.19101 1.09666 0
M  V30 4260 H 407.489 -4.0462 -0.0802225 0
M  V30 4261 H 406.059 -3.08156 -0.52524 0
M  V30 4262 H 405.279 -3.43423 1.93531 0
M  V30 4263 H 406.567 -4.64335 2.08015 0
M  V30 4264 H 405.965 -5.57466 -0.961658 0
M  V30 4265 H 404.522 -6.47729 -0.727351 0
M  V30 4266 N 407.956 -0.998596 -1.21925 0
M  V30 4267 C 409.184 -0.696286 -1.94832 0
M  V30 4268 C 409.599 0.740032 -1.73692 0
M  V30 4269 O 408.956 1.5 -1.03953 0
M  V30 4270 C 409.007 -0.999833 -3.47398 0
M  V30 4271 O 408.728 -2.37972 -3.67833 0
M  V30 4272 C 410.229 -0.716025 -4.37479 0
M  V30 4273 H 407.449 -0.257111 -0.619786 0
M  V30 4274 H 409.993 -1.33491 -1.54921 0
M  V30 4275 H 408.148 -0.406918 -3.85257 0
M  V30 4276 H 408.562 -2.48338 -4.61983 0
M  V30 4277 H 410.036 -0.978642 -5.43256 0
M  V30 4278 H 410.513 0.349968 -4.37803 0
M  V30 4279 H 411.119 -1.29025 -4.05256 0
M  V30 4280 N 409.434 1.37368 -0.772513 0
M  V30 4281 C 410.397 2.28601 -0.165541 0
M  V30 4282 C 411.397 1.48062 0.627238 0
M  V30 4283 O 412.587 1.68268 0.450715 0
M  V30 4284 C 409.719 3.32023 0.772897 0
M  V30 4285 H 410.912 2.83787 -0.969787 0
M  V30 4286 H 408.465 1.46647 -0.540775 0
M  V30 4287 H 409.2 2.81962 1.60212 0
M  V30 4288 H 408.985 3.91555 0.206585 0
M  V30 4289 H 410.475 4.00197 1.19298 0
M  V30 4290 N 410.912 0.523116 1.48665 0
M  V30 4291 C 411.842 -0.23231 2.32342 0
M  V30 4292 C 412.823 -0.941637 1.41659 0
M  V30 4293 O 414.008 -0.928751 1.70552 0
M  V30 4294 C 411.138 -1.28387 3.22698 0
M  V30 4295 C 410.092 -0.693098 4.22351 0
M  V30 4296 C 409.418 -1.8468 5.01794 0
M  V30 4297 C 410.718 0.33063 5.21252 0
M  V30 4298 H 412.412 0.466192 2.95748 0
M  V30 4299 H 409.958 0.225643 1.42221 0
M  V30 4300 H 411.911 -1.82024 3.80059 0
M  V30 4301 H 410.635 -2.01186 2.57278 0
M  V30 4302 H 409.294 -0.178299 3.66166 0
M  V30 4303 H 408.942 -2.56301 4.32804 0
M  V30 4304 H 408.642 -1.45747 5.69238 0
M  V30 4305 H 410.166 -2.38709 5.62006 0
M  V30 4306 H 411.58 -0.118407 5.73178 0
M  V30 4307 H 409.977 0.636974 5.9671 0
M  V30 4308 H 411.047 1.23883 4.68808 0
M  V30 4309 N 412.39 -1.55475 0.257931 0
M  V30 4310 C 413.667 -1.91155 -0.414629 0
M  V30 4311 C 414.047 -1.18008 -1.75035 0
M  V30 4312 O 413.395 -0.301193 -2.26506 0
M  V30 4313 C 413.605 -3.44283 -0.571859 0
M  V30 4314 C 414.953 -4.15744 -0.862678 0
M  V30 4315 O 415.977 -3.50083 -0.657314 0
M  V30 4316 O 414.836 -5.31909 -1.2544 0
M  V30 4317 H 411.93 -0.796016 -0.22425 0
M  V30 4318 H 414.476 -1.66976 0.302814 0
M  V30 4319 H 413.248 -3.89558 0.368844 0
M  V30 4320 H 412.871 -3.7436 -1.33943 0
M  V30 4321 N 413.868 0.0150385 -1.57593 0
M  V30 4322 C 414.798 1.01047 -2.10503 0
M  V30 4323 C 415.779 1.36816 -1.01071 0
M  V30 4324 O 416.964 1.45455 -1.28672 0
M  V30 4325 C 414.094 2.30708 -2.59598 0
M  V30 4326 C 413.048 2.09142 -3.73421 0
M  V30 4327 C 412.374 3.44685 -4.08774 0
M  V30 4328 C 413.674 1.46619 -5.01298 0
M  V30 4329 H 415.368 0.569978 -2.93925 0
M  V30 4330 H 412.914 0.272724 -1.41394 0
M  V30 4331 H 414.867 3.00687 -2.95238 0
M  V30 4332 H 413.591 2.76843 -1.73279 0
M  V30 4333 H 412.25 1.41592 -3.38153 0
M  V30 4334 H 411.898 3.88495 -3.195 0
M  V30 4335 H 411.598 3.31077 -4.8545 0
M  V30 4336 H 413.122 4.16004 -4.4696 0
M  V30 4337 H 414.536 2.06535 -5.34805 0
M  V30 4338 H 412.933 1.43544 -5.82679 0
M  V30 4339 H 414.003 0.433611 -4.82957 0
M  V30 4340 N 415.346 1.54954 0.287554 0
M  V30 4341 C 416.576 1.78622 1.03816 0
M  V30 4342 C 416.984 0.552451 1.80955 0
M  V30 4343 O 416.327 -0.487665 1.77109 0
M  V30 4344 C 416.389 2.94975 2.055 0
M  V30 4345 C 416.053 4.32565 1.47433 0
M  V30 4346 C 417.05 5.12096 0.897436 0
M  V30 4347 C 414.735 4.79195 1.50591 0
M  V30 4348 C 416.729 6.36383 0.359851 0
M  V30 4349 C 414.416 6.03441 0.964459 0
M  V30 4350 C 415.414 6.81872 0.392413 0
M  V30 4351 O 415.102 8.03777 -0.140788 0
M  V30 4352 H 414.834 0.599144 0.313053 0
M  V30 4353 H 417.388 2.02761 0.328225 0
M  V30 4354 H 415.618 2.66493 2.80211 0
M  V30 4355 H 417.307 3.06097 2.6657 0
M  V30 4356 H 418.073 4.77209 0.865841 0
M  V30 4357 H 413.952 4.18167 1.94055 0
M  V30 4358 H 417.496 6.97545 -0.0872951 0
M  V30 4359 H 413.393 6.37813 0.993246 0
M  V30 4360 H 414.161 8.18495 -0.0287617 0
M  V30 4361 N 416.824 -0.551391 1.4764 0
M  V30 4362 C 418.24 -0.877887 1.33287 0
M  V30 4363 C 418.44 -1.98817 0.327721 0
M  V30 4364 O 417.496 -2.51171 -0.258695 0
M  V30 4365 C 418.809 -1.26563 2.72768 0
M  V30 4366 C 420.357 -1.37673 2.81097 0
M  V30 4367 C 420.832 -1.79799 4.21232 0
M  V30 4368 N 422.323 -1.8694 4.23802 0
M  V30 4369 C 423.058 -2.20876 5.29151 0
M  V30 4370 N 422.554 -2.53386 6.448 0
M  V30 4371 N 424.347 -2.217 5.16532 0
M  V30 4372 H 416.498 0.18153 2.11623 0
M  V30 4373 H 418.761 0.0185514 0.947818 0
M  V30 4374 H 418.467 -0.523591 3.47781 0
M  V30 4375 H 418.341 -2.22052 3.04915 0
M  V30 4376 H 420.728 -2.10956 2.06353 0
M  V30 4377 H 420.809 -0.40357 2.52596 0
M  V30 4378 H 420.453 -1.07083 4.96483 0
M  V30 4379 H 420.383 -2.78128 4.4716 0
M  V30 4380 H 422.874 -1.64179 3.40373 0
M  V30 4381 H 423.187 -2.78325 7.20941 0
M  V30 4382 H 421.532 -2.50953 6.48111 0
M  V30 4383 H 424.723 -1.95745 4.25207 0
M  V30 4384 H 424.896 -2.47818 5.98741 0
M  V30 4385 N 418.302 -1.35869 -0.798587 0
M  V30 4386 C 419.265 -1.29307 -1.89242 0
M  V30 4387 C 420.265 -0.202747 -1.59517 0
M  V30 4388 O 421.455 -0.456957 -1.681 0
M  V30 4389 C 418.587 -1.00229 -3.25833 0
M  V30 4390 H 419.78 -2.26576 -1.96478 0
M  V30 4391 H 417.333 -1.20509 -0.995358 0
M  V30 4392 H 418.068 -0.033801 -3.24282 0
M  V30 4393 H 417.853 -1.79121 -3.48795 0
M  V30 4394 H 419.343 -0.98219 -4.05885 0
M  V30 4395 N 419.78 1.02168 -1.19998 0
M  V30 4396 C 421.028 1.75338 -1.00504 0
M  V30 4397 C 421.349 1.89387 0.464506 0
M  V30 4398 O 420.619 1.43268 1.33608 0
M  V30 4399 H 419.199 0.649564 -0.368885 0
M  V30 4400 H 421.861 1.23205 -1.51018 0
M  V30 4401 H 420.957 2.75892 -1.45912 0
M  V30 4402 N 421.258 1.00505 1.21394 0
M  V30 4403 C 422.506 0.686415 1.90086 0
M  V30 4404 C 422.827 -0.785264 1.7849 0
M  V30 4405 O 422.097 -1.56387 1.17983 0
M  V30 4406 H 420.677 0.2509 0.703604 0
M  V30 4407 H 423.339 1.27417 1.47482 0
M  V30 4408 H 422.435 0.959621 2.96981 0
M  V30 4409 N 422.737 -1.36956 0.779787 0
M  V30 4410 C 423.983 -1.99787 0.348281 0
M  V30 4411 C 424.316 -1.61756 -1.07465 0
M  V30 4412 O 423.591 -0.867639 -1.74075 0
M  V30 4413 C 423.874 -3.56597 0.50104 0
M  V30 4414 C 423.727 -4.04513 1.96697 0
M  V30 4415 C 425.046 -4.40008 -0.0898097 0
M  V30 4416 H 422.165 -0.725796 0.128022 0
M  V30 4417 H 424.807 -1.62514 0.984331 0
M  V30 4418 H 422.957 -3.88479 -0.0404347 0
M  V30 4419 H 424.629 -3.83161 2.56876 0
M  V30 4420 H 422.872 -3.56408 2.47297 0
M  V30 4421 H 423.543 -5.1352 2.02486 0
M  V30 4422 H 426.019 -4.14431 0.372293 0
M  V30 4423 H 424.895 -5.4888 0.0471605 0
M  V30 4424 H 425.156 -4.26035 -1.18096 0
M  V30 4425 N 424.215 -0.530993 -1.48385 0
M  V30 4426 C 425.626 -0.0907905 -1.86479 0
M  V30 4427 C 425.977 1.33213 -1.44044 0
M  V30 4428 O 425.102 1.99783 -0.831615 0
M  V30 4429 C 425.697 -0.157987 -3.38431 0
M  V30 4430 C 424.256 0.227026 -3.75715 0
M  V30 4431 C 423.403 -0.5173 -2.72432 0
M  V30 4432 H 426.354 -0.742186 -1.40276 0
M  V30 4433 H 426.375 0.630053 -3.75247 0
M  V30 4434 H 425.887 -1.19372 -3.69286 0
M  V30 4435 H 423.988 1.26486 -3.50474 0
M  V30 4436 H 424.101 -0.113288 -4.78966 0
M  V30 4437 H 422.465 0.0365527 -2.54674 0
M  V30 4438 H 423.248 -1.55368 -3.0613 0
M  V30 4439 N 425.693 1.55336 -0.266172 0
M  V30 4440 C 426.656 2.20878 0.612001 0
M  V30 4441 C 427.656 1.18388 1.08816 0
M  V30 4442 O 428.846 1.4335 0.989774 0
M  V30 4443 C 425.978 2.86765 1.84332 0
M  V30 4444 H 427.171 2.99873 0.0398718 0
M  V30 4445 H 424.724 1.56291 -0.0167309 0
M  V30 4446 H 425.459 2.11759 2.45619 0
M  V30 4447 H 425.244 3.61862 1.5099 0
M  V30 4448 H 426.734 3.36867 2.46801 0
M  V30 4449 N 427.171 -0.0066808 1.57599 0
M  V30 4450 C 428.119 -1.01851 2.09115 0
M  V30 4451 C 429.113 -1.36021 1.00969 0
M  V30 4452 O 430.319 -1.34663 1.19439 0
M  V30 4453 H 426.694 -0.346083 0.667631 0
M  V30 4454 H 428.665 -0.558394 2.93129 0
M  V30 4455 C 427.414 -2.30374 2.60429 0
M  V30 4456 H 426.737 -2.04947 3.43273 0
M  V30 4457 H 428.177 -2.99466 3.00161 0
M  V30 4458 C 426.636 -3.00893 1.51542 0
M  V30 4459 O 427.166 -3.91614 0.894484 0
M  V30 4460 N 425.372 -2.62603 1.2445 0
M  V30 4461 H 424.919 -1.88911 1.75129 0
M  V30 4462 H 424.877 -3.10101 0.518137 0
M  V30 4463 N 428.649 -1.55105 -0.279332 0
M  V30 4464 C 429.596 -1.8755 -1.34513 0
M  V30 4465 C 430.566 -0.726384 -1.49375 0
M  V30 4466 O 431.751 -0.977063 -1.63884 0
M  V30 4467 C 428.891 -2.14738 -2.70151 0
M  V30 4468 C 428.004 -3.42285 -2.63562 0
M  V30 4469 C 427.139 -3.59206 -3.91337 0
M  V30 4470 C 426.178 -4.80467 -3.79233 0
M  V30 4471 N 425.315 -4.94079 -4.98829 0
M  V30 4472 H 430.155 -2.78456 -1.06143 0
M  V30 4473 H 427.692 -1.37867 -0.512936 0
M  V30 4474 H 429.65 -2.28501 -3.49061 0
M  V30 4475 H 428.28 -1.27075 -2.96735 0
M  V30 4476 H 427.332 -3.37029 -1.76397 0
M  V30 4477 H 428.644 -4.31328 -2.50515 0
M  V30 4478 H 427.798 -3.72751 -4.78687 0
M  V30 4479 H 426.537 -2.68337 -4.07243 0
M  V30 4480 H 425.542 -4.66932 -2.90266 0
M  V30 4481 H 426.767 -5.72765 -3.64852 0
M  V30 4482 H 424.713 -4.06139 -5.15158 0
M  V30 4483 H 424.63 -5.77156 -4.8829 0
M  V30 4484 H 425.898 -5.12003 -5.8777 0
M  V30 4485 N 430.127 0.543554 -1.4793 0
M  V30 4486 C 431.376 1.29649 -1.54512 0
M  V30 4487 C 431.689 1.94382 -0.217973 0
M  V30 4488 O 432.895 2.71017 -0.161908 0
M  V30 4489 C 431.351 2.35175 -2.72435 0
M  V30 4490 C 430.959 1.76572 -4.11736 0
M  V30 4491 C 432.703 3.11564 -2.8832 0
M  V30 4492 C 430.61 2.79958 -5.20939 0
M  V30 4493 H 429.54 0.487541 -0.57517 0
M  V30 4494 H 432.191 0.575708 -1.74235 0
M  V30 4495 H 430.573 3.10229 -2.46118 0
M  V30 4496 H 431.747 1.07799 -4.48013 0
M  V30 4497 H 430.062 1.12722 -4.00852 0
M  V30 4498 H 432.659 3.88794 -3.67074 0
M  V30 4499 H 433.002 3.66594 -1.97268 0
M  V30 4500 H 433.535 2.43623 -3.14472 0
M  V30 4501 H 430.274 2.29766 -6.13912 0
M  V30 4502 H 429.794 3.47101 -4.89164 0
M  V30 4503 H 431.473 3.43198 -5.48474 0
M  V30 4504 N 431.605 1.3629 0.791371 0
M  V30 4505 C 432.851 1.30605 1.55146 0
M  V30 4506 C 433.184 -0.115042 1.93859 0
M  V30 4507 O 432.459 -1.06798 1.62556 0
M  V30 4508 C 432.742 2.22692 2.82985 0
M  V30 4509 C 432.595 3.73489 2.50651 0
M  V30 4510 C 433.914 2.13588 3.84796 0
M  V30 4511 H 431.033 0.475761 0.562868 0
M  V30 4512 H 433.675 1.66825 0.909358 0
M  V30 4513 H 431.825 1.91933 3.37778 0
M  V30 4514 H 433.497 4.14758 2.01924 0
M  V30 4515 H 431.74 3.93021 1.83622 0
M  V30 4516 H 432.411 4.3333 3.41949 0
M  V30 4517 H 434.887 2.40659 3.39445 0
M  V30 4518 H 433.763 2.80195 4.71998 0
M  V30 4519 H 434.024 1.12256 4.27611 0
M  V30 4520 N 433.083 -1.0153 1.20538 0
M  V30 4521 C 434.013 -2.11972 0.979295 0
M  V30 4522 C 434.994 -1.6985 -0.0921787 0
M  V30 4523 O 436.179 -1.94089 0.0655932 0
M  V30 4524 C 433.309 -3.43201 0.531984 0
M  V30 4525 C 432.263 -3.9907 1.54685 0
M  V30 4526 C 431.589 -5.26082 0.956127 0
M  V30 4527 C 432.889 -4.32313 2.93092 0
M  V30 4528 H 434.583 -2.31143 1.90298 0
M  V30 4529 H 432.129 -1.11079 0.916372 0
M  V30 4530 H 434.082 -4.1985 0.361044 0
M  V30 4531 H 432.806 -3.23792 -0.427327 0
M  V30 4532 H 431.465 -3.2453 1.70517 0
M  V30 4533 H 431.113 -5.02999 -0.0111538 0
M  V30 4534 H 430.813 -5.64426 1.63393 0
M  V30 4535 H 432.337 -6.05386 0.796284 0
M  V30 4536 H 433.751 -4.99845 2.80763 0
M  V30 4537 H 432.148 -4.81774 3.57791 0
M  V30 4538 H 433.218 -3.41025 3.44717 0
M  V30 4539 N 434.561 -1.01147 -1.20859 0
M  V30 4540 C 435.809 -0.696486 -1.89719 0
M  V30 4541 C 436.13 0.775788 -1.78904 0
M  V30 4542 O 435.4 1.55759 -1.18811 0
M  V30 4543 H 433.98 -0.254628 -0.702263 0
M  V30 4544 H 436.642 -1.28197 -1.46804 0
M  V30 4545 H 435.738 -0.975357 -2.96468 0
M  V30 4546 N 436.039 1.36541 -0.78704 0
M  V30 4547 C 436.972 2.27831 -0.129765 0
M  V30 4548 C 437.95 1.47105 0.692732 0
M  V30 4549 O 439.134 1.7641 0.664222 0
M  V30 4550 C 436.261 3.28577 0.821883 0
M  V30 4551 C 435.307 4.26422 0.0814771 0
M  V30 4552 S 436.14 5.20919 -1.24112 0
M  V30 4553 C 437.296 6.25212 -0.293409 0
M  V30 4554 H 437.529 2.83229 -0.903811 0
M  V30 4555 H 435.062 1.43046 -0.581144 0
M  V30 4556 H 437.02 3.87123 1.3655 0
M  V30 4557 H 435.681 2.72096 1.56916 0
M  V30 4558 H 434.874 4.97554 0.803485 0
M  V30 4559 H 434.476 3.71944 -0.391589 0
M  V30 4560 H 436.768 6.75435 0.528622 0
M  V30 4561 H 437.711 7.01378 -0.973344 0
M  V30 4562 H 438.119 5.64407 0.102196 0
M  V30 4563 N 437.518 0.538854 1.48102 0
M  V30 4564 C 438.929 0.100679 1.86428 0
M  V30 4565 C 439.28 -1.32447 1.44749 0
M  V30 4566 O 438.405 -1.99339 0.842199 0
M  V30 4567 C 439 0.175933 3.38343 0
M  V30 4568 C 437.559 -0.207098 3.7583 0
M  V30 4569 C 436.706 0.531741 2.72154 0
M  V30 4570 H 439.657 0.749614 1.3988 0
M  V30 4571 H 439.678 -0.610144 3.75576 0
M  V30 4572 H 439.19 1.21328 3.68648 0
M  V30 4573 H 437.291 -1.24626 3.5114 0
M  V30 4574 H 437.404 0.138687 4.78899 0
M  V30 4575 H 435.768 -0.0230462 2.5469 0
M  V30 4576 H 436.551 1.56989 3.05302 0
M  V30 4577 N 438.996 -1.55193 0.274407 0
M  V30 4578 C 439.926 -2.25471 -0.607032 0
M  V30 4579 C 440.907 -1.24461 -1.15946 0
M  V30 4580 O 442.092 -1.53179 -1.19373 0
M  V30 4581 C 439.222 -2.97526 -1.79153 0
M  V30 4582 C 438.176 -4.05459 -1.37067 0
M  V30 4583 C 437.502 -4.65084 -2.6382 0
M  V30 4584 C 438.802 -5.19691 -0.521389 0
M  V30 4585 H 440.496 -2.99393 -0.0209343 0
M  V30 4586 H 438.042 -1.43997 -0.00862866 0
M  V30 4587 H 439.995 -3.45402 -2.41404 0
M  V30 4588 H 438.719 -2.21138 -2.40344 0
M  V30 4589 H 437.378 -3.58393 -0.771355 0
M  V30 4590 H 437.026 -3.85365 -3.23268 0
M  V30 4591 H 436.726 -5.37961 -2.36372 0
M  V30 4592 H 438.25 -5.15708 -3.26921 0
M  V30 4593 H 439.664 -5.63623 -1.04889 0
M  V30 4594 H 438.061 -5.99126 -0.341825 0
M  V30 4595 H 439.131 -4.82713 0.46 0
M  V30 4596 N 440.474 -0.00167713 -1.576 0
M  V30 4597 C 441.704 0.692754 -1.94639 0
M  V30 4598 C 442.112 1.67744 -0.87513 0
M  V30 4599 O 441.455 1.8305 0.154382 0
M  V30 4600 C 441.517 1.47881 -3.27676 0
M  V30 4601 C 441.181 0.655518 -4.52274 0
M  V30 4602 C 442.178 -0.0575214 -5.19868 0
M  V30 4603 C 439.863 0.600994 -4.98692 0
M  V30 4604 C 441.857 -0.814052 -6.3218 0
M  V30 4605 C 439.544 -0.15926 -6.10892 0
M  V30 4606 C 440.542 -0.865515 -6.77494 0
M  V30 4607 O 440.23 -1.61336 -7.87544 0
M  V30 4608 H 439.962 0.197792 -0.646417 0
M  V30 4609 H 442.516 -0.049423 -2.05341 0
M  V30 4610 H 440.746 2.2655 -3.13388 0
M  V30 4611 H 442.435 2.05874 -3.49816 0
M  V30 4612 H 443.201 -0.0245611 -4.84994 0
M  V30 4613 H 439.08 1.14025 -4.46676 0
M  V30 4614 H 442.624 -1.36584 -6.84098 0
M  V30 4615 H 438.521 -0.194035 -6.45208 0
M  V30 4616 H 439.289 -1.53025 -8.04068 0
M  V30 4617 N 441.952 1.55251 0.271103 0
M  V30 4618 C 443.2 1.75599 1.00047 0
M  V30 4619 C 443.521 0.561188 1.8675 0
M  V30 4620 O 442.791 -0.423846 1.9126 0
M  V30 4621 H 441.371 0.647562 0.372387 0
M  V30 4622 H 444.033 1.92656 0.294876 0
M  V30 4623 H 443.129 2.65766 1.6363 0
M  V30 4624 N 443.43 -0.535701 1.48216 0
M  V30 4625 C 444.846 -0.863701 1.3421 0
M  V30 4626 C 445.046 -1.98458 0.34879 0
M  V30 4627 O 444.102 -2.51432 -0.23204 0
M  V30 4628 C 445.415 -1.23662 2.74095 0
M  V30 4629 C 446.963 -1.34683 2.82541 0
M  V30 4630 C 447.438 -1.75322 4.23115 0
M  V30 4631 N 448.929 -1.82434 4.2576 0
M  V30 4632 C 449.664 -2.15252 5.31464 0
M  V30 4633 N 449.16 -2.46533 6.47452 0
M  V30 4634 N 450.953 -2.16209 5.18855 0
M  V30 4635 H 443.104 0.203965 2.11418 0
M  V30 4636 H 445.367 0.0286033 0.947568 0
M  V30 4637 H 445.073 -0.486674 3.48316 0
M  V30 4638 H 444.947 -2.18805 3.07253 0
M  V30 4639 H 447.334 -2.08756 2.08579 0
M  V30 4640 H 447.415 -0.376756 2.5301 0
M  V30 4641 H 447.059 -1.01812 4.97591 0
M  V30 4642 H 446.989 -2.7337 4.50085 0
M  V30 4643 H 449.48 -1.6056 3.42095 0
M  V30 4644 H 449.793 -2.70662 7.23852 0
M  V30 4645 H 448.138 -2.44065 6.50736 0
M  V30 4646 H 451.329 -1.91224 4.2726 0
M  V30 4647 H 451.502 -2.41453 6.01335 0
M  V30 4648 N 444.908 -1.36708 -0.784132 0
M  V30 4649 C 446.133 -1.34565 -1.5782 0
M  V30 4650 C 446.558 0.0695257 -1.87971 0
M  V30 4651 O 445.916 1.04302 -1.48293 0
M  V30 4652 C 445.964 -2.17952 -2.87279 0
M  V30 4653 O 445.068 -1.57563 -3.81114 0
M  V30 4654 H 444.409 -0.460337 -0.478524 0
M  V30 4655 H 446.939 -1.80064 -0.971495 0
M  V30 4656 H 446.949 -2.30721 -3.365 0
M  V30 4657 H 445.624 -3.20823 -2.64661 0
M  V30 4658 H 444.201 -1.53764 -3.39722 0
M  V30 4659 N 446.386 1.0089 -1.21074 0
M  V30 4660 C 447.633 1.74607 -1.0256 0
M  V30 4661 C 447.961 1.89426 0.44136 0
M  V30 4662 O 447.216 1.42266 1.34384 0
M  V30 4663 C 447.515 3.16335 -1.66334 0
M  V30 4664 C 447.181 3.21474 -3.16173 0
M  V30 4665 C 445.843 3.22583 -3.57062 0
M  V30 4666 C 448.195 3.19025 -4.12156 0
M  V30 4667 C 445.523 3.18925 -4.92446 0
M  V30 4668 C 447.875 3.16909 -5.47496 0
M  V30 4669 C 446.539 3.16326 -5.87787 0
M  V30 4670 H 445.809 0.638933 -0.375294 0
M  V30 4671 H 448.456 1.18274 -1.50611 0
M  V30 4672 H 446.761 3.75876 -1.10566 0
M  V30 4673 H 448.458 3.72083 -1.49516 0
M  V30 4674 H 445.048 3.2135 -2.83605 0
M  V30 4675 H 449.232 3.17332 -3.81595 0
M  V30 4676 H 444.488 3.16809 -5.22917 0
M  V30 4677 H 448.662 3.13968 -6.21609 0
M  V30 4678 H 446.289 3.13246 -6.92662 0
M  V30 4679 N 447.864 1.01787 1.20321 0
M  V30 4680 C 448.827 0.593972 2.2137 0
M  V30 4681 C 449.827 -0.336553 1.57239 0
M  V30 4682 O 451.017 -0.125069 1.7375 0
M  V30 4683 C 448.149 -0.132433 3.40643 0
M  V30 4684 H 449.342 1.48791 2.60387 0
M  V30 4685 H 446.895 0.807803 1.33807 0
M  V30 4686 H 447.63 -1.04123 3.0713 0
M  V30 4687 H 447.415 0.53605 3.88418 0
M  V30 4688 H 448.905 -0.416314 4.1552 0
M  V30 4689 N 449.342 -1.36122 0.79427 0
M  V30 4690 C 450.29 -2.31871 0.184023 0
M  V30 4691 C 451.284 -1.56041 -0.659365 0
M  V30 4692 O 452.49 -1.71266 -0.553906 0
M  V30 4693 H 448.865 -0.750896 0.0407373 0
M  V30 4694 H 450.836 -2.80898 1.00693 0
M  V30 4695 C 449.585 -3.41324 -0.662813 0
M  V30 4696 H 448.908 -3.99793 -0.0231944 0
M  V30 4697 H 450.348 -4.10629 -1.05639 0
M  V30 4698 C 448.807 -2.83308 -1.82313 0
M  V30 4699 O 449.337 -2.75863 -2.91997 0
M  V30 4700 N 447.543 -2.40529 -1.63077 0
M  V30 4701 H 447.09 -2.46785 -0.738591 0
M  V30 4702 H 447.048 -2.02059 -2.40872 0
M  V30 4703 N 450.82 -0.546701 -1.47814 0
M  V30 4704 C 452.048 -0.0232857 -2.06887 0
M  V30 4705 C 452.463 1.26571 -1.4009 0
M  V30 4706 O 451.82 1.7569 -0.493906 0
M  V30 4707 C 451.871 0.186975 -3.61016 0
M  V30 4708 O 451.592 -1.05097 -4.25307 0
M  V30 4709 C 453.093 0.748872 -4.36929 0
M  V30 4710 H 450.313 -0.0410763 -0.669742 0
M  V30 4711 H 452.857 -0.757117 -1.89968 0
M  V30 4712 H 451.012 0.870903 -3.77484 0
M  V30 4713 H 451.426 -0.842121 -5.17695 0
M  V30 4714 H 452.9 0.845334 -5.45489 0
M  V30 4715 H 453.377 1.75772 -4.02493 0
M  V30 4716 H 453.983 0.100979 -4.2518 0
M  V30 4717 N 452.299 1.55045 -0.282633 0
M  V30 4718 C 453.576 1.9179 0.384166 0
M  V30 4719 C 453.956 1.20778 1.73136 0
M  V30 4720 O 453.304 0.33719 2.25998 0
M  V30 4721 C 453.514 3.45149 0.517014 0
M  V30 4722 C 454.862 4.17064 0.796427 0
M  V30 4723 O 455.886 3.51084 0.601535 0
M  V30 4724 O 454.745 5.33837 1.16962 0
M  V30 4725 H 451.839 0.799483 0.211558 0
M  V30 4726 H 454.385 1.66474 -0.32934 0
M  V30 4727 H 453.157 3.88922 -0.430772 0
M  V30 4728 H 452.78 3.76443 1.2797 0
M  V30 4729 N 453.777 0.010035 1.57597 0
M  V30 4730 C 455.025 -0.671371 1.90623 0
M  V30 4731 C 455.346 -1.73753 0.885151 0
M  V30 4732 O 454.616 -1.95752 -0.0760611 0
M  V30 4733 H 453.196 -0.250968 0.703579 0
M  V30 4734 H 455.858 0.0533325 1.94827 0
M  V30 4735 H 454.954 -1.13626 2.90681 0
M  V30 4736 N 455.255 -1.55392 -0.262866 0
M  V30 4737 C 456.666 -1.67079 -0.833158 0
M  V30 4738 C 457.017 -0.604539 -1.86654 0
M  V30 4739 O 456.142 0.252138 -2.14926 0
M  V30 4740 C 456.737 -3.02891 -1.51797 0
M  V30 4741 C 455.296 -3.16571 -2.03617 0
M  V30 4742 C 454.443 -2.62909 -0.881701 0
M  V30 4743 H 457.394 -1.58652 -0.0389986 0
M  V30 4744 H 457.415 -2.96445 -2.38538 0
M  V30 4745 H 456.927 -3.80473 -0.765619 0
M  V30 4746 H 455.028 -2.43782 -2.81782 0
M  V30 4747 H 455.141 -4.23271 -2.24452 0
M  V30 4748 H 453.505 -2.20324 -1.27786 0
M  V30 4749 H 454.288 -3.43003 -0.14269 0
M  V30 4750 N 456.733 0.527833 -1.48498 0
M  V30 4751 C 457.981 1.28101 -1.56316 0
M  V30 4752 C 458.302 1.9352 -0.239781 0
M  V30 4753 O 457.572 1.81433 0.738849 0
M  V30 4754 H 456.152 0.475793 -0.575873 0
M  V30 4755 H 458.814 0.614052 -1.84974 0
M  V30 4756 H 457.91 2.05916 -2.34532 0
M  V30 4757 N 458.211 1.37122 0.776871 0
M  V30 4758 C 459.158 1.3247 1.88998 0
M  V30 4759 C 460.128 0.191143 1.64997 0
M  V30 4760 O 461.313 0.379683 1.86984 0
M  V30 4761 C 458.453 1.13241 3.25992 0
M  V30 4762 C 457.566 2.35782 3.61982 0
M  V30 4763 C 456.701 2.09465 4.88158 0
M  V30 4764 C 455.74 3.279 5.16864 0
M  V30 4765 N 454.877 3.01167 6.34226 0
M  V30 4766 H 459.717 2.27642 1.9231 0
M  V30 4767 H 457.254 1.13125 0.94027 0
M  V30 4768 H 459.212 1.00115 4.0501 0
M  V30 4769 H 457.842 0.217186 3.22069 0
M  V30 4770 H 456.894 2.59666 2.77989 0
M  V30 4771 H 458.206 3.24125 3.79137 0
M  V30 4772 H 457.36 1.93341 5.75069 0
M  V30 4773 H 456.099 1.18452 4.73097 0
M  V30 4774 H 455.104 3.44569 4.2843 0
M  V30 4775 H 456.329 4.19757 5.33836 0
M  V30 4776 H 454.275 2.12779 6.20533 0
M  V30 4777 H 454.192 3.83052 6.51772 0
M  V30 4778 H 455.46 2.88649 7.24087 0
M  V30 4779 N 459.689 -1.00246 1.21608 0
M  V30 4780 C 461.1 -1.55511 1.03312 0
M  V30 4781 C 461.451 -1.91946 -0.406332 0
M  V30 4782 O 460.576 -1.73753 -1.28992 0
M  V30 4783 C 461.171 -2.82576 1.86913 0
M  V30 4784 C 459.73 -3.34318 1.72941 0
M  V30 4785 C 458.877 -2.07487 1.83968 0
M  V30 4786 H 461.828 -0.824638 1.35593 0
M  V30 4787 H 461.849 -3.54559 1.38087 0
M  V30 4788 H 461.361 -2.56026 2.91672 0
M  V30 4789 H 459.462 -3.65797 0.70877 0
M  V30 4790 H 459.575 -4.05566 2.55055 0
M  V30 4791 H 457.939 -2.20603 1.27304 0
M  V30 4792 H 458.722 -1.83346 2.9024 0
M  V30 4793 N 461.167 -1.02423 -1.1978 0
M  V30 4794 C 462.397 -0.736387 -1.93031 0
M  V30 4795 C 462.805 0.708023 -1.75453 0
M  V30 4796 O 462.148 1.4927 -1.07071 0
M  V30 4797 C 462.21 -1.00194 -3.45255 0
M  V30 4798 C 461.874 -2.43698 -3.86601 0
M  V30 4799 C 462.871 -3.41814 -3.91738 0
M  V30 4800 C 460.556 -2.77975 -4.18372 0
M  V30 4801 C 462.55 -4.72265 -4.28071 0
M  V30 4802 C 460.237 -4.08636 -4.54378 0
M  V30 4803 C 461.235 -5.05592 -4.59201 0
M  V30 4804 O 460.923 -6.33914 -4.94376 0
M  V30 4805 H 460.655 -0.269116 -0.620123 0
M  V30 4806 H 463.209 -1.37043 -1.52998 0
M  V30 4807 H 461.439 -0.310747 -3.85449 0
M  V30 4808 H 463.128 -0.704488 -3.9974 0
M  V30 4809 H 463.894 -3.16671 -3.67348 0
M  V30 4810 H 459.773 -2.0319 -4.13805 0
M  V30 4811 H 463.317 -5.4794 -4.3175 0
M  V30 4812 H 459.214 -4.33556 -4.78226 0
M  V30 4813 H 459.982 -6.38317 -5.12341 0
M  V30 4814 N 462.645 1.35699 -0.801477 0
M  V30 4815 C 463.593 2.3177 -0.196317 0
M  V30 4816 C 464.587 1.56388 0.651081 0
M  V30 4817 O 465.793 1.71557 0.544815 0
M  V30 4818 H 462.168 0.750669 -0.0447189 0
M  V30 4819 H 464.139 2.8036 -1.02181 0
M  V30 4820 C 462.888 3.41671 0.644702 0
M  V30 4821 H 462.211 3.998 0.0019921 0
M  V30 4822 H 463.651 4.11184 1.0346 0
M  V30 4823 C 462.11 2.84271 1.80808 0
M  V30 4824 O 462.64 2.77408 2.9053 0
M  V30 4825 N 460.846 2.41391 1.61799 0
M  V30 4826 H 460.393 2.47173 0.725493 0
M  V30 4827 H 460.351 2.03334 2.39797 0
M  V30 4828 N 464.123 0.554532 1.47522 0
M  V30 4829 C 465.371 0.0294208 2.02079 0
M  V30 4830 C 465.692 -1.32411 1.43151 0
M  V30 4831 O 464.962 -1.863 0.605728 0
M  V30 4832 H 463.542 0.00788672 0.746958 0
M  V30 4833 H 466.204 0.723934 1.80956 0
M  V30 4834 H 465.3 -0.0606745 3.12041 0
M  V30 4835 N 465.601 -1.54893 0.290851 0
M  V30 4836 C 466.847 -2.0023 -0.321867 0
M  V30 4837 C 467.18 -1.179 -1.54316 0
M  V30 4838 O 466.455 -0.25293 -1.92848 0
M  V30 4839 C 466.738 -3.53456 -0.688515 0
M  V30 4840 C 466.591 -4.46532 0.541209 0
M  V30 4841 C 467.91 -4.13057 -1.51895 0
M  V30 4842 H 465.029 -0.727891 -0.115515 0
M  V30 4843 H 467.671 -1.85722 0.400931 0
M  V30 4844 H 465.821 -3.6595 -1.30433 0
M  V30 4845 H 467.493 -4.4596 1.17973 0
M  V30 4846 H 465.736 -4.17545 1.17636 0
M  V30 4847 H 466.407 -5.51475 0.240675 0
M  V30 4848 H 468.883 -4.03937 -0.99872 0
M  V30 4849 H 467.759 -5.20448 -1.74429 0
M  V30 4850 H 468.02 -3.64284 -2.50498 0
M  V30 4851 N 467.08 -0.0183926 -1.57589 0
M  V30 4852 C 468.328 0.661253 -1.90976 0
M  V30 4853 C 468.649 1.73281 -0.894353 0
M  V30 4854 O 467.919 1.9579 0.0656788 0
M  V30 4855 H 466.499 0.247233 -0.704901 0
M  V30 4856 H 469.161 -0.0636639 -1.94796 0
M  V30 4857 H 468.257 1.12083 -2.9128 0
M  V30 4858 N 468.558 1.5553 0.254621 0
M  V30 4859 C 469.49 1.86104 1.33783 0
M  V30 4860 C 470.503 0.746752 1.44663 0
M  V30 4861 O 471.692 1.0248 1.46151 0
M  V30 4862 C 468.792 2.02532 2.71724 0
M  V30 4863 C 467.965 3.33335 2.83208 0
M  V30 4864 C 467.024 3.396 4.01943 0
M  V30 4865 O 466.05 4.12862 3.91834 0
M  V30 4866 N 467.252 2.68332 5.1476 0
M  V30 4867 H 470.017 2.79605 1.07893 0
M  V30 4868 H 467.578 1.55672 0.444732 0
M  V30 4869 H 469.57 2.04074 3.4948 0
M  V30 4870 H 468.14 1.15811 2.90356 0
M  V30 4871 H 467.36 3.44176 1.92189 0
M  V30 4872 H 468.648 4.19565 2.87824 0
M  V30 4873 H 468.046 2.08528 5.25864 0
M  V30 4874 H 466.603 2.75575 5.90679 0
M  V30 4875 N 470.036 -0.519951 1.48776 0
M  V30 4876 C 471.284 -1.2727 1.56993 0
M  V30 4877 C 471.605 -1.9339 0.25004 0
M  V30 4878 O 470.875 -1.81822 -0.729216 0
M  V30 4879 H 469.455 -0.472732 0.578389 0
M  V30 4880 H 472.117 -0.604234 1.85297 0
M  V30 4881 H 471.213 -2.04669 2.3562 0
M  V30 4882 N 471.514 -1.37532 -0.769588 0
M  V30 4883 C 472.739 -1.36231 -1.56384 0
M  V30 4884 C 473.164 0.0495849 -1.88035 0
M  V30 4885 O 472.522 1.02723 -1.49391 0
M  V30 4886 C 472.57 -2.20986 -2.84952 0
M  V30 4887 O 471.674 -1.61597 -3.79421 0
M  V30 4888 H 471.015 -0.465387 -0.473615 0
M  V30 4889 H 473.545 -1.81085 -0.952342 0
M  V30 4890 H 473.555 -2.34277 -3.34034 0
M  V30 4891 H 472.23 -3.23612 -2.61243 0
M  V30 4892 H 470.807 -1.57359 -3.38072 0
M  V30 4893 N 472.992 0.995999 -1.22138 0
M  V30 4894 C 474.238 1.7386 -1.05567 0
M  V30 4895 C 474.593 1.8808 0.405418 0
M  V30 4896 O 473.886 1.41062 1.29661 0
M  V30 4897 C 474.08 3.14553 -1.6968 0
M  V30 4898 C 473.909 3.14053 -3.21871 0
M  V30 4899 C 472.679 3.20121 -3.90961 0
M  V30 4900 C 474.877 2.98451 -4.18845 0
M  V30 4901 N 472.859 3.09342 -5.30265 0
M  V30 4902 C 474.23 2.95667 -5.4496 0
M  V30 4903 C 476.285 2.8282 -4.09777 0
M  V30 4904 C 474.988 2.78852 -6.63049 0
M  V30 4905 C 477.014 2.67364 -5.27513 0
M  V30 4906 C 476.376 2.65264 -6.52544 0
M  V30 4907 H 472.475 0.645989 -0.440706 0
M  V30 4908 H 475.059 1.1831 -1.54631 0
M  V30 4909 H 473.23 3.68353 -1.2317 0
M  V30 4910 H 474.962 3.77358 -1.4623 0
M  V30 4911 H 471.717 3.27679 -3.4194 0
M  V30 4912 H 472.141 3.0727 -6.03253 0
M  V30 4913 H 476.783 2.83243 -3.139 0
M  V30 4914 H 474.501 2.77175 -7.59078 0
M  V30 4915 H 478.087 2.56256 -5.22326 0
M  V30 4916 H 476.967 2.5345 -7.42114 0
M  V30 4917 N 474.47 1.03057 1.19235 0
M  V30 4918 C 475.38 0.622922 2.26179 0
M  V30 4919 C 476.396 -0.346113 1.70523 0
M  V30 4920 O 477.572 -0.203572 2.00369 0
M  V30 4921 C 474.637 -0.0182063 3.46695 0
M  V30 4922 C 473.698 0.998546 4.17526 0
M  V30 4923 C 472.931 0.387917 5.32288 0
M  V30 4924 O 473.154 -0.808668 5.64639 0
M  V30 4925 O 472.088 1.1116 5.91546 0
M  V30 4926 H 475.914 1.51363 2.63292 0
M  V30 4927 H 473.499 0.800856 1.26122 0
M  V30 4928 H 475.381 -0.375606 4.19723 0
M  V30 4929 H 474.056 -0.882895 3.11427 0
M  V30 4930 H 472.963 1.40756 3.4661 0
M  V30 4931 H 474.296 1.83366 4.56769 0
M  V30 4932 N 475.948 -1.35272 0.808662 0
M  V30 4933 C 476.896 -2.31663 0.208606 0
M  V30 4934 C 477.89 -1.56731 -0.642778 0
M  V30 4935 O 479.096 -1.71843 -0.53571 0
M  V30 4936 H 475.471 -0.750421 0.0486993 0
M  V30 4937 H 477.442 -2.79814 1.03666 0
M  V30 4938 C 476.191 -3.42008 -0.626573 0
M  V30 4939 H 475.514 -3.99795 0.0192103 0
M  V30 4940 H 476.954 -4.11727 -1.01278 0
M  V30 4941 C 475.413 -2.85226 -1.79298 0
M  V30 4942 O 475.943 -2.78945 -2.89055 0
M  V30 4943 N 474.149 -2.42245 -1.60516 0
M  V30 4944 H 473.696 -2.47554 -0.712375 0
M  V30 4945 H 473.654 -2.04603 -2.38715 0
M  V30 4946 N 477.426 -0.562348 -1.47226 0
M  V30 4947 C 478.674 -0.0401371 -2.0206 0
M  V30 4948 C 478.995 1.3165 -1.43852 0
M  V30 4949 O 478.265 1.85976 -0.615599 0
M  V30 4950 H 476.845 -0.0118479 -0.746906 0
M  V30 4951 H 479.507 -0.73352 -1.8057 0
M  V30 4952 H 478.603 0.0441254 -3.12069 0
M  V30 4953 N 478.904 1.54736 -0.299062 0
M  V30 4954 C 480.15 2.00397 0.311244 0
M  V30 4955 C 480.483 1.18716 1.53688 0
M  V30 4956 O 479.758 0.263154 1.92712 0
M  V30 4957 C 480.041 3.53817 0.669761 0
M  V30 4958 C 479.894 4.46239 -0.564882 0
M  V30 4959 C 481.213 4.13856 1.49702 0
M  V30 4960 H 478.332 0.728493 0.111653 0
M  V30 4961 H 480.974 1.85506 -0.410774 0
M  V30 4962 H 479.124 3.66637 1.28491 0
M  V30 4963 H 480.796 4.45328 -1.20337 0
M  V30 4964 H 479.039 4.16916 -1.19849 0
M  V30 4965 H 479.71 5.5134 -0.269918 0
M  V30 4966 H 482.186 4.04461 0.977284 0
M  V30 4967 H 481.062 5.21365 1.71666 0
M  V30 4968 H 481.323 3.65608 2.48563 0
M  V30 4969 N 480.382 0.0267497 1.57577 0
M  V30 4970 C 481.628 -0.647596 1.92815 0
M  V30 4971 C 481.983 -1.69872 0.903396 0
M  V30 4972 O 481.276 -1.91429 -0.0808881 0
M  V30 4973 C 481.47 -1.30914 3.3256 0
M  V30 4974 C 481.299 -0.323621 4.48534 0
M  V30 4975 C 480.069 0.0756607 5.05243 0
M  V30 4976 C 482.267 0.42112 5.12573 0
M  V30 4977 N 480.249 1.0566 6.04739 0
M  V30 4978 C 481.62 1.25589 6.07147 0
M  V30 4979 C 483.675 0.482077 4.95561 0
M  V30 4980 C 482.378 2.1461 6.86538 0
M  V30 4981 C 484.404 1.35962 5.75559 0
M  V30 4982 C 483.766 2.18217 6.69747 0
M  V30 4983 H 479.865 -0.209357 0.753454 0
M  V30 4984 H 482.449 0.0933695 1.94476 0
M  V30 4985 H 480.62 -2.02026 3.31723 0
M  V30 4986 H 482.352 -1.94033 3.55153 0
M  V30 4987 H 479.107 -0.298294 4.7266 0
M  V30 4988 H 479.531 1.54324 6.59176 0
M  V30 4989 H 484.173 -0.139609 4.22569 0
M  V30 4990 H 481.891 2.77835 7.58837 0
M  V30 4991 H 485.477 1.41105 5.6443 0
M  V30 4992 H 484.357 2.85022 7.3057 0
M  V30 4993 N 481.861 -1.55662 -0.24637 0
M  V30 4994 C 483.138 -1.68272 -0.997198 0
M  V30 4995 C 483.518 -0.566785 -2.03349 0
M  V30 4996 O 482.866 0.429688 -2.24424 0
M  V30 4997 C 483.076 -3.08594 -1.63006 0
M  V30 4998 C 484.424 -3.6721 -2.13171 0
M  V30 4999 O 485.448 -3.11397 -1.72946 0
M  V30 5000 O 484.307 -4.65054 -2.87031 0
M  V30 5001 H 481.401 -0.684429 -0.464205 0
M  V30 5002 H 483.947 -1.67993 -0.240114 0
M  V30 5003 H 482.719 -3.81264 -0.880527 0
M  V30 5004 H 482.342 -3.12886 -2.45333 0
M  V30 5005 N 483.339 0.512053 -1.4905 0
M  V30 5006 C 484.569 1.28928 -1.61434 0
M  V30 5007 C 484.977 1.87107 -0.280647 0
M  V30 5008 O 484.32 1.68024 0.742537 0
M  V30 5009 C 484.382 2.466 -2.61588 0
M  V30 5010 C 484.046 2.09375 -4.06216 0
M  V30 5011 C 485.043 1.63994 -4.93358 0
M  V30 5012 C 482.728 2.19348 -4.51876 0
M  V30 5013 C 484.722 1.29076 -6.24194 0
M  V30 5014 C 482.409 1.84041 -5.82728 0
M  V30 5015 C 483.407 1.38978 -6.68711 0
M  V30 5016 O 483.095 1.04144 -7.97126 0
M  V30 5017 H 482.827 0.397668 -0.546659 0
M  V30 5018 H 485.381 0.622507 -1.9574 0
M  V30 5019 H 483.611 3.16318 -2.22441 0
M  V30 5020 H 485.3 3.08642 -2.63619 0
M  V30 5021 H 486.066 1.55744 -4.59313 0
M  V30 5022 H 481.945 2.53376 -3.85125 0
M  V30 5023 H 485.489 0.938303 -6.91261 0
M  V30 5024 H 481.386 1.91938 -6.16304 0
M  V30 5025 H 482.154 1.17387 -8.10039 0
M  V30 5026 N 484.817 1.37938 0.762283 0
M  V30 5027 C 485.764 1.34467 1.87583 0
M  V30 5028 C 486.734 0.208633 1.64785 0
M  V30 5029 O 487.919 0.399494 1.86571 0
M  V30 5030 C 485.059 1.16692 3.24772 0
M  V30 5031 C 484.172 2.39608 3.59461 0
M  V30 5032 C 483.307 2.14631 4.85908 0
M  V30 5033 C 482.346 3.33364 5.13357 0
M  V30 5034 N 481.483 3.07877 6.30996 0
M  V30 5035 H 486.323 2.29669 1.89885 0
M  V30 5036 H 483.86 1.14116 0.928219 0
M  V30 5037 H 485.818 1.04405 4.03925 0
M  V30 5038 H 484.448 0.251333 3.2182 0
M  V30 5039 H 483.5 2.626 2.75219 0
M  V30 5040 H 484.812 3.28128 3.75678 0
M  V30 5041 H 483.966 1.99429 5.72986 0
M  V30 5042 H 482.705 1.23463 4.71814 0
M  V30 5043 H 481.71 3.49094 4.24751 0
M  V30 5044 H 482.935 4.25395 5.29354 0
M  V30 5045 H 480.881 2.19348 6.18241 0
M  V30 5046 H 480.798 3.89944 6.47673 0
M  V30 5047 H 482.066 2.96313 7.20985 0
M  V30 5048 N 486.295 -0.989507 1.22664 0
M  V30 5049 C 487.258 -2.06183 1.00106 0
M  V30 5050 C 488.258 -1.60765 -0.0337726 0
M  V30 5051 O 489.448 -1.72989 0.205072 0
M  V30 5052 C 486.58 -3.37021 0.51279 0
M  V30 5053 H 487.773 -2.27629 1.95256 0
M  V30 5054 H 485.326 -1.16158 1.0458 0
M  V30 5055 H 486.061 -3.21261 -0.442917 0
M  V30 5056 H 485.846 -3.71323 1.25942 0
M  V30 5057 H 487.336 -4.1591 0.375315 0
M  V30 5058 N 487.773 -1.03688 -1.18687 0
M  V30 5059 C 488.703 -0.645407 -2.24403 0
M  V30 5060 C 489.684 0.349511 -1.66471 0
M  V30 5061 O 490.869 0.230453 -1.92828 0
M  V30 5062 C 487.999 -0.00365337 -3.473 0
M  V30 5063 C 486.953 -0.921705 -4.17958 0
M  V30 5064 C 486.279 -0.144629 -5.34504 0
M  V30 5065 C 487.579 -2.23909 -4.71871 0
M  V30 5066 H 489.273 -1.52917 -2.57404 0
M  V30 5067 H 486.819 -0.736711 -1.23728 0
M  V30 5068 H 488.772 0.281908 -4.20456 0
M  V30 5069 H 487.496 0.914963 -3.13522 0
M  V30 5070 H 486.155 -1.19159 -3.46694 0
M  V30 5071 H 485.803 0.776274 -4.96974 0
M  V30 5072 H 485.503 -0.756206 -5.82714 0
M  V30 5073 H 487.027 0.134004 -6.10453 0
M  V30 5074 H 488.441 -2.0145 -5.36741 0
M  V30 5075 H 486.838 -2.8033 -5.30599 0
M  V30 5076 H 487.908 -2.88822 -3.895 0
M  V30 5077 N 489.251 1.34841 -0.815825 0
M  V30 5078 C 490.662 1.80937 -0.46029 0
M  V30 5079 C 491.013 1.67685 1.01863 0
M  V30 5080 O 490.138 1.21277 1.79223 0
M  V30 5081 C 490.733 3.28509 -0.828708 0
M  V30 5082 C 489.292 3.72712 -0.525644 0
M  V30 5083 C 488.439 2.56676 -1.04941 0
M  V30 5084 H 491.39 1.22688 -1.00664 0
M  V30 5085 H 491.411 3.80279 -0.129757 0
M  V30 5086 H 490.923 3.38122 -1.90513 0
M  V30 5087 H 489.024 3.68642 0.541666 0
M  V30 5088 H 489.137 4.67119 -1.06474 0
M  V30 5089 H 487.501 2.50302 -0.471286 0
M  V30 5090 H 488.284 2.69063 -2.13214 0
M  V30 5091 N 490.729 0.570148 1.46925 0
M  V30 5092 C 491.661 -0.207909 2.28255 0
M  V30 5093 C 492.674 -0.867301 1.37774 0
M  V30 5094 O 493.863 -0.738976 1.62485 0
M  V30 5095 C 490.963 -1.31298 3.12433 0
M  V30 5096 C 490.136 -0.747915 4.30958 0
M  V30 5097 C 489.195 -1.7391 4.9663 0
M  V30 5098 O 488.221 -1.2801 5.54619 0
M  V30 5099 N 489.423 -3.07288 4.92498 0
M  V30 5100 H 492.188 0.489794 2.95671 0
M  V30 5101 H 489.749 0.407076 1.56699 0
M  V30 5102 H 491.741 -1.97507 3.53232 0
M  V30 5103 H 490.311 -1.91373 2.47175 0
M  V30 5104 H 489.531 0.0913066 3.94094 0
M  V30 5105 H 490.819 -0.349958 5.07595 0
M  V30 5106 H 490.217 -3.47213 4.46609 0
M  V30 5107 H 488.774 -3.69021 5.37277 0
M  V30 5108 N 492.207 -1.54576 0.307264 0
M  V30 5109 C 493.17 -2.22423 -0.553224 0
M  V30 5110 C 494.17 -1.21231 -1.05639 0
M  V30 5111 O 495.36 -1.45923 -0.951419 0
M  V30 5112 C 492.492 -2.91552 -1.76664 0
M  V30 5113 H 493.685 -2.99874 0.0396484 0
M  V30 5114 H 491.238 -1.56192 0.0581629 0
M  V30 5115 H 491.973 -2.18196 -2.39918 0
M  V30 5116 H 491.758 -3.65738 -1.41343 0
M  V30 5117 H 493.248 -3.43292 -2.37783 0
M  V30 5118 N 493.685 -0.035106 -1.57561 0
M  V30 5119 C 494.933 0.64096 -1.91667 0
M  V30 5120 C 495.254 1.72323 -0.912681 0
M  V30 5121 O 494.524 1.95849 0.0449089 0
M  V30 5122 H 493.104 0.239743 -0.707483 0
M  V30 5123 H 495.766 -0.084321 -1.94718 0
M  V30 5124 H 494.862 1.08987 -2.92452 0
M  V30 5125 N 495.163 1.55791 0.238111 0
M  V30 5126 C 496.126 1.90239 1.27835 0
M  V30 5127 C 497.126 0.779552 1.4064 0
M  V30 5128 O 498.316 1.04747 1.3919 0
M  V30 5129 C 495.448 2.13859 2.65475 0
M  V30 5130 H 496.641 2.83262 0.985034 0
M  V30 5131 H 494.194 1.48818 0.477799 0
M  V30 5132 H 494.929 1.23334 2.99932 0
M  V30 5133 H 494.714 2.95643 2.57561 0
M  V30 5134 H 496.204 2.41664 3.40571 0
M  V30 5135 N 496.642 -0.504142 1.49319 0
M  V30 5136 C 497.87 -1.28256 1.62351 0
M  V30 5137 C 498.285 -1.86502 0.293682 0
M  V30 5138 O 497.642 -1.67678 -0.720449 0
M  V30 5139 C 497.693 -2.41507 2.68992 0
M  V30 5140 O 497.414 -1.85656 3.96817 0
M  V30 5141 C 498.915 -3.32929 2.927 0
M  V30 5142 H 496.135 -0.389115 0.546654 0
M  V30 5143 H 498.679 -0.605531 1.95329 0
M  V30 5144 H 496.834 -3.05046 2.38801 0
M  V30 5145 H 497.248 -2.59981 4.55533 0
M  V30 5146 H 498.722 -4.0868 3.71058 0
M  V30 5147 H 499.199 -3.89733 2.02496 0
M  V30 5148 H 499.805 -2.75158 3.24296 0
M  V30 5149 N 498.12 -1.38341 -0.754957 0
M  V30 5150 C 499.03 -1.3769 -1.89944 0
M  V30 5151 C 500.046 -0.274194 -1.71826 0
M  V30 5152 O 501.222 -0.512391 -1.94773 0
M  V30 5153 C 498.287 -1.19938 -3.25293 0
M  V30 5154 C 497.348 -2.40001 -3.55946 0
M  V30 5155 C 496.581 -2.23087 -4.84838 0
M  V30 5156 O 496.804 -1.22386 -5.57116 0
M  V30 5157 O 495.738 -3.11646 -5.14937 0
M  V30 5158 H 499.564 -2.3412 -1.93446 0
M  V30 5159 H 497.149 -1.19246 -0.900044 0
M  V30 5160 H 499.031 -1.12093 -4.06218 0
M  V30 5161 H 497.706 -0.265919 -3.22606 0
M  V30 5162 H 496.613 -2.53421 -2.75188 0
M  V30 5163 H 497.946 -3.31973 -3.63394 0
M  V30 5164 N 499.598 0.982988 -1.23187 0
M  V30 5165 C 500.548 2.05962 -0.977942 0
M  V30 5166 C 501.532 1.60725 0.0751148 0
M  V30 5167 O 502.724 1.76471 -0.136683 0
M  V30 5168 C 499.853 3.38564 -0.568276 0
M  V30 5169 C 498.939 3.90407 -1.6566 0
M  V30 5170 N 499.33 4.15359 -2.88635 0
M  V30 5171 C 497.628 4.18915 -1.53058 0
M  V30 5172 C 498.329 4.57642 -3.5908 0
M  V30 5173 N 497.305 4.6192 -2.86584 0
M  V30 5174 H 501.107 2.23208 -1.91195 0
M  V30 5175 H 498.621 1.16555 -1.13087 0
M  V30 5176 H 500.618 4.15276 -0.36764 0
M  V30 5177 H 499.278 3.22712 0.358713 0
M  V30 5178 H 500.289 4.03258 -3.24966 0
M  V30 5179 H 496.966 4.12081 -0.670506 0
M  V30 5180 H 498.356 4.85488 -4.6449 0
M  V30 5181 N 501.076 1.04316 1.18135 0
M  V30 5182 C 502.322 0.749128 1.88457 0
M  V30 5183 C 502.655 -0.72149 1.803 0
M  V30 5184 O 501.93 -1.52676 1.205 0
M  V30 5185 C 502.213 1.21905 3.38838 0
M  V30 5186 C 502.066 2.75195 3.55792 0
M  V30 5187 C 503.385 0.811085 4.32561 0
M  V30 5188 H 500.504 0.273611 0.684329 0
M  V30 5189 H 503.146 1.29561 1.38975 0
M  V30 5190 H 501.296 0.754137 3.8111 0
M  V30 5191 H 502.968 3.29743 3.22595 0
M  V30 5192 H 501.211 3.14899 2.98364 0
M  V30 5193 H 501.882 3.03135 4.61317 0
M  V30 5194 H 504.358 1.21118 3.98082 0
M  V30 5195 H 503.234 1.16761 5.36338 0
M  V30 5196 H 503.495 -0.285596 4.41177 0
M  V30 5197 N 502.554 -1.34406 0.822964 0
M  V30 5198 C 503.484 -2.32052 0.259608 0
M  V30 5199 C 504.465 -1.58243 -0.623961 0
M  V30 5200 O 505.65 -1.86224 -0.55083 0
M  V30 5201 C 502.78 -3.42434 -0.579314 0
M  V30 5202 C 501.734 -4.27499 0.20712 0
M  V30 5203 C 501.06 -5.29349 -0.754547 0
M  V30 5204 C 502.36 -5.02758 1.41533 0
M  V30 5205 H 504.054 -2.79418 1.07545 0
M  V30 5206 H 501.6 -1.34338 0.518593 0
M  V30 5207 H 503.553 -4.0976 -0.983612 0
M  V30 5208 H 502.277 -2.93717 -1.4282 0
M  V30 5209 H 500.936 -3.61776 0.592787 0
M  V30 5210 H 500.584 -4.76895 -1.59939 0
M  V30 5211 H 500.284 -5.8714 -0.232561 0
M  V30 5212 H 501.808 -5.99544 -1.1567 0
M  V30 5213 H 503.222 -5.62938 1.08504 0
M  V30 5214 H 501.619 -5.70123 1.87296 0
M  V30 5215 H 502.689 -4.32451 2.1935 0
M  V30 5216 N 504.032 -0.577932 -1.46621 0
M  V30 5217 C 505.443 -0.150071 -1.86096 0
M  V30 5218 C 505.794 1.28563 -1.48209 0
M  V30 5219 O 504.919 1.97036 -0.894754 0
M  V30 5220 C 505.514 -0.265576 -3.37758 0
M  V30 5221 C 504.073 0.10738 -3.76247 0
M  V30 5222 C 503.22 -0.603711 -2.70649 0
M  V30 5223 H 506.171 -0.786438 -1.37844 0
M  V30 5224 H 506.192 0.510352 -3.77062 0
M  V30 5225 H 505.704 -1.3106 -3.65301 0
M  V30 5226 H 503.805 1.15272 -3.54321 0
M  V30 5227 H 503.918 -0.26561 -4.78363 0
M  V30 5228 H 502.282 -0.0444884 -2.54661 0
M  V30 5229 H 503.065 -1.65029 -3.01032 0
M  V30 5230 N 505.51 1.54411 -0.315457 0
M  V30 5231 C 506.787 1.92562 0.343398 0
M  V30 5232 C 507.167 1.24423 1.70535 0
M  V30 5233 O 506.515 0.385051 2.25232 0
M  V30 5234 C 506.725 3.46168 0.443687 0
M  V30 5235 C 508.073 4.18659 0.707783 0
M  V30 5236 O 509.097 3.52281 0.52693 0
M  V30 5237 O 507.956 5.36198 1.05612 0
M  V30 5238 H 505.05 0.80379 0.194552 0
M  V30 5239 H 507.596 1.65738 -0.364577 0
M  V30 5240 H 506.368 3.8792 -0.513172 0
M  V30 5241 H 505.991 3.79073 1.19956 0
M  V30 5242 N 506.988 0.0434614 1.5754 0
M  V30 5243 C 508.237 -0.631454 1.91561 0
M  V30 5244 C 508.55 -1.72457 0.92292 0
M  V30 5245 O 509.756 -2.45712 1.15489 0
M  V30 5246 C 508.212 -1.17447 3.40197 0
M  V30 5247 C 507.82 -0.113867 4.47855 0
M  V30 5248 C 509.564 -1.82507 3.83264 0
M  V30 5249 C 507.471 -0.669326 5.876 0
M  V30 5250 H 506.401 -0.239629 0.714908 0
M  V30 5251 H 509.052 0.111097 1.83163 0
M  V30 5252 H 507.434 -1.96909 3.43574 0
M  V30 5253 H 508.608 0.659348 4.56058 0
M  V30 5254 H 506.923 0.438821 4.14081 0
M  V30 5255 H 509.52 -2.25047 4.85034 0
M  V30 5256 H 509.863 -2.67365 3.19095 0
M  V30 5257 H 510.396 -1.09712 3.82372 0
M  V30 5258 H 507.135 0.141449 6.55347 0
M  V30 5259 H 506.655 -1.4107 5.82974 0
M  V30 5260 H 508.334 -1.15463 6.36614 0
M  V30 5261 N 508.466 -1.55915 -0.229846 0
M  V30 5262 C 509.399 -1.86734 -1.3117 0
M  V30 5263 C 510.377 -0.723947 -1.45595 0
M  V30 5264 O 511.561 -0.971462 -1.61539 0
M  V30 5265 C 508.688 -2.06707 -2.68309 0
M  V30 5266 C 507.734 -3.2938 -2.70944 0
M  V30 5267 S 508.567 -4.85547 -2.25842 0
M  V30 5268 C 509.723 -5.08546 -3.64873 0
M  V30 5269 H 509.956 -2.78204 -1.04832 0
M  V30 5270 H 507.489 -1.48243 -0.431681 0
M  V30 5271 H 509.447 -2.18898 -3.47267 0
M  V30 5272 H 508.108 -1.16049 -2.91876 0
M  V30 5273 H 507.301 -3.40374 -3.71701 0
M  V30 5274 H 506.903 -3.16004 -2.00044 0
M  V30 5275 H 509.195 -4.96935 -4.60502 0
M  V30 5276 H 510.138 -6.10465 -3.58801 0
M  V30 5277 H 510.546 -4.36314 -3.58176 0
M  V30 5278 N 509.944 0.496216 -1.49584 0
M  V30 5279 C 510.907 1.57952 -1.66084 0
M  V30 5280 C 511.907 1.51729 -0.53244 0
M  V30 5281 O 513.097 1.54796 -0.79899 0
M  V30 5282 C 510.229 2.97604 -1.66268 0
M  V30 5283 H 511.422 1.44649 -2.6271 0
M  V30 5284 H 508.975 0.7208 -1.38687 0
M  V30 5285 H 509.71 3.16378 -0.712432 0
M  V30 5286 H 509.495 3.03528 -2.4822 0
M  V30 5287 H 510.985 3.76301 -1.81073 0
M  V30 5288 N 511.423 1.38739 0.74761 0
M  V30 5289 C 512.648 1.38702 1.54197 0
M  V30 5290 C 513.073 -0.019664 1.8809 0
M  V30 5291 O 512.431 -1.00333 1.51006 0
M  V30 5292 C 512.479 2.25492 2.814 0
M  V30 5293 O 511.583 1.67613 3.76802 0
M  V30 5294 H 510.924 0.472863 0.466151 0
M  V30 5295 H 513.454 1.82577 0.923413 0
M  V30 5296 H 513.464 2.39561 3.30264 0
M  V30 5297 H 512.139 3.27727 2.56062 0
M  V30 5298 H 510.716 1.62718 3.35526 0
M  V30 5299 N 512.901 -0.976442 1.23707 0
M  V30 5300 C 514.131 -1.75087 1.09673 0
M  V30 5301 C 514.539 -1.85852 -0.354344 0
M  V30 5302 O 513.882 -1.33985 -1.25673 0
M  V30 5303 C 513.944 -3.19272 1.65245 0
M  V30 5304 C 513.608 -3.32004 3.14042 0
M  V30 5305 C 514.605 -3.18017 4.11292 0
M  V30 5306 C 512.29 -3.56525 3.53829 0
M  V30 5307 C 514.284 -3.28363 5.46312 0
M  V30 5308 C 511.971 -3.6651 4.88993 0
M  V30 5309 C 512.969 -3.52439 5.85043 0
M  V30 5310 O 512.657 -3.62063 7.1775 0
M  V30 5311 H 512.389 -0.556164 0.384262 0
M  V30 5312 H 514.943 -1.23518 1.64111 0
M  V30 5313 H 513.173 -3.72107 1.05231 0
M  V30 5314 H 514.862 -3.7849 1.46629 0
M  V30 5315 H 515.628 -2.98966 3.81896 0
M  V30 5316 H 511.507 -3.66547 2.79579 0
M  V30 5317 H 515.051 -3.17297 6.21263 0
M  V30 5318 H 510.948 -3.85072 5.18063 0
M  V30 5319 H 511.716 -3.78833 7.25553 0
M  V30 5320 N 514.379 -1.04941 -1.1758 0
M  V30 5321 C 515.604 -0.778253 -1.92245 0
M  V30 5322 C 516.029 0.659707 -1.76152 0
M  V30 5323 O 515.387 1.45803 -1.07755 0
M  V30 5324 C 515.435 -1.16051 -3.41416 0
M  V30 5325 O 514.539 -0.291153 -4.11371 0
M  V30 5326 H 513.88 -0.285619 -0.599431 0
M  V30 5327 H 516.41 -1.40159 -1.49052 0
M  V30 5328 H 516.42 -1.12619 -3.92149 0
M  V30 5329 H 515.095 -2.208 -3.52449 0
M  V30 5330 H 513.672 -0.385851 -3.70898 0
M  V30 5331 N 515.857 1.33968 -0.830081 0
M  V30 5332 C 517.087 2.01987 -0.434142 0
M  V30 5333 C 517.495 1.62639 0.96671 0
M  V30 5334 O 516.838 0.831151 1.63822 0
M  V30 5335 C 516.9 3.5648 -0.465018 0
M  V30 5336 C 516.564 4.19176 -1.82045 0
M  V30 5337 C 517.561 4.39181 -2.78237 0
M  V30 5338 C 515.246 4.55792 -2.11089 0
M  V30 5339 C 517.24 4.94937 -4.01642 0
M  V30 5340 C 514.927 5.11258 -3.34752 0
M  V30 5341 C 515.925 5.30775 -4.29845 0
M  V30 5342 O 515.613 5.85064 -5.51322 0
M  V30 5343 H 515.345 0.653847 -0.171639 0
M  V30 5344 H 517.899 1.72066 -1.12171 0
M  V30 5345 H 516.129 3.8569 0.279284 0
M  V30 5346 H 517.818 4.05804 -0.0881334 0
M  V30 5347 H 518.584 4.11249 -2.57097 0
M  V30 5348 H 514.463 4.39901 -1.3787 0
M  V30 5349 H 518.007 5.10086 -4.75876 0
M  V30 5350 H 513.904 5.38619 -3.55753 0
M  V30 5351 H 514.672 6.03489 -5.5294 0
M  V30 5352 N 517.335 0.585699 1.46312 0
M  V30 5353 C 518.612 0.00542031 1.95599 0
M  V30 5354 C 518.992 -1.45619 1.52834 0
M  V30 5355 O 518.34 -2.14759 0.780446 0
M  V30 5356 C 518.55 0.180601 3.48532 0
M  V30 5357 C 519.898 0.049979 4.24571 0
M  V30 5358 O 520.922 0.109589 3.56031 0
M  V30 5359 O 519.781 -0.0832226 5.46437 0
M  V30 5360 H 516.875 -0.0481281 0.825598 0
M  V30 5361 H 519.421 0.654227 1.56582 0
M  V30 5362 H 518.193 1.19657 3.72556 0
M  V30 5363 H 517.816 -0.504498 3.94386 0
M  V30 5364 N 518.813 -1.54241 0.323641 0
M  V30 5365 C 519.776 -2.22997 -0.529602 0
M  V30 5366 C 520.776 -1.22345 -1.04347 0
M  V30 5367 O 521.966 -1.46924 -0.935889 0
M  V30 5368 C 519.098 -2.93409 -1.73562 0
M  V30 5369 H 520.291 -2.99815 0.0714518 0
M  V30 5370 H 517.844 -1.56121 0.0747258 0
M  V30 5371 H 518.579 -2.20729 -2.37591 0
M  V30 5372 H 518.364 -3.67217 -1.37456 0
M  V30 5373 H 519.854 -3.45794 -2.34128 0
M  V30 5374 N 520.291 -0.0518155 -1.57515 0
M  V30 5375 C 521.519 0.631395 -1.9703 0
M  V30 5376 C 521.934 1.64341 -0.92938 0
M  V30 5377 O 521.291 1.82296 0.0863266 0
M  V30 5378 C 521.342 1.31774 -3.36627 0
M  V30 5379 O 521.063 0.346247 -4.3673 0
M  V30 5380 C 522.564 2.09065 -3.90905 0
M  V30 5381 H 519.784 0.172576 -0.648428 0
M  V30 5382 H 522.328 -0.118306 -2.04158 0
M  V30 5383 H 520.483 2.01867 -3.30649 0
M  V30 5384 H 520.897 0.836226 -5.17791 0
M  V30 5385 H 522.371 2.52508 -4.9086 0
M  V30 5386 H 522.848 2.93908 -3.26366 0
M  V30 5387 H 523.454 1.43882 -4.00223 0
M  V30 5388 N 521.769 1.56035 0.221574 0
M  V30 5389 C 522.717 1.93269 1.29421 0
M  V30 5390 C 523.711 0.814727 1.48521 0
M  V30 5391 O 524.917 0.999559 1.49696 0
M  V30 5392 H 521.292 0.614188 0.43391 0
M  V30 5393 H 523.263 2.82773 0.952987 0
M  V30 5394 C 522.012 2.26573 2.63742 0
M  V30 5395 H 521.335 3.12112 2.49853 0
M  V30 5396 H 522.775 2.5651 3.37607 0
M  V30 5397 C 521.234 1.09086 3.1875 0
M  V30 5398 O 521.764 0.351985 4.00155 0
M  V30 5399 N 519.97 0.874693 2.77124 0
M  V30 5400 H 519.517 1.47726 2.11033 0
M  V30 5401 H 519.475 0.0903349 3.1427 0
M  V30 5402 N 523.247 -0.488276 1.49845 0
M  V30 5403 C 524.194 -1.58836 1.67451 0
M  V30 5404 C 525.164 -1.57886 0.515857 0
M  V30 5405 O 526.349 -1.75679 0.744403 0
M  V30 5406 C 523.489 -2.96915 1.75885 0
M  V30 5407 C 522.602 -3.07784 3.03138 0
M  V30 5408 C 521.737 -4.36673 3.02473 0
M  V30 5409 C 520.776 -4.41222 4.24252 0
M  V30 5410 N 519.913 -5.61557 4.21424 0
M  V30 5411 H 524.753 -1.43131 2.61376 0
M  V30 5412 H 522.29 -0.696186 1.29583 0
M  V30 5413 H 524.248 -3.76965 1.78755 0
M  V30 5414 H 522.878 -3.11295 0.85414 0
M  V30 5415 H 521.93 -2.20717 3.09819 0
M  V30 5416 H 523.242 -3.07005 3.93128 0
M  V30 5417 H 522.396 -5.25055 3.03977 0
M  V30 5418 H 521.135 -4.40037 2.10283 0
M  V30 5419 H 520.14 -3.5124 4.22978 0
M  V30 5420 H 521.365 -4.39564 5.17649 0
M  V30 5421 H 519.311 -5.65738 3.32078 0
M  V30 5422 H 519.228 -5.62447 5.05163 0
M  V30 5423 H 520.496 -6.52111 4.2705 0
M  V30 5424 N 524.725 -1.39134 -0.740242 0
M  V30 5425 C 525.972 -1.36071 -1.49969 0
M  V30 5426 C 526.3 0.0450245 -1.94448 0
M  V30 5427 O 525.555 1.02482 -1.66721 0
M  V30 5428 C 525.854 -2.27457 -2.75678 0
M  V30 5429 C 525.52 -3.75185 -2.50094 0
M  V30 5430 C 524.182 -4.15439 -2.42825 0
M  V30 5431 C 526.534 -4.68643 -2.28086 0
M  V30 5432 C 523.862 -5.4722 -2.11584 0
M  V30 5433 C 526.214 -6.00695 -1.98363 0
M  V30 5434 C 524.878 -6.40018 -1.8956 0
M  V30 5435 H 524.148 -0.497921 -0.548777 0
M  V30 5436 H 526.795 -1.71599 -0.85007 0
M  V30 5437 H 525.1 -1.8503 -3.45356 0
M  V30 5438 H 526.797 -2.22384 -3.33686 0
M  V30 5439 H 523.387 -3.43279 -2.56627 0
M  V30 5440 H 527.571 -4.3838 -2.32672 0
M  V30 5441 H 522.827 -5.76615 -2.03287 0
M  V30 5442 H 527.001 -6.72644 -1.80341 0
M  V30 5443 H 524.628 -7.42051 -1.65117 0
M  V30 5444 N 526.204 0.969867 -1.24223 0
M  V30 5445 C 527.134 2.08191 -1.05729 0
M  V30 5446 C 528.115 1.70075 0.0290765 0
M  V30 5447 O 529.3 1.93712 -0.137583 0
M  V30 5448 C 526.43 3.40991 -0.658995 0
M  V30 5449 C 525.384 3.93054 -1.69389 0
M  V30 5450 C 524.71 5.22171 -1.15072 0
M  V30 5451 C 526.01 4.21137 -3.08935 0
M  V30 5452 H 527.704 2.23921 -1.98746 0
M  V30 5453 H 525.25 1.07602 -0.956967 0
M  V30 5454 H 527.203 4.18221 -0.51662 0
M  V30 5455 H 525.927 3.25155 0.30686 0
M  V30 5456 H 524.586 3.17977 -1.82444 0
M  V30 5457 H 524.234 5.02694 -0.175539 0
M  V30 5458 H 523.934 5.57973 -1.84229 0
M  V30 5459 H 525.458 6.02013 -1.02042 0
M  V30 5460 H 526.872 4.8908 -2.99121 0
M  V30 5461 H 525.269 4.68163 -3.75425 0
M  V30 5462 H 526.339 3.27996 -3.57137 0
M  V30 5463 N 527.682 1.05563 1.17022 0
M  V30 5464 C 528.931 0.763036 1.8671 0
M  V30 5465 C 529.244 -0.712857 1.82147 0
M  V30 5466 O 530.45 -1.11955 2.47343 0
M  V30 5467 C 528.906 1.31474 3.35026 0
M  V30 5468 C 528.514 2.82034 3.48081 0
M  V30 5469 C 530.258 1.09935 4.10018 0
M  V30 5470 C 528.165 3.30486 4.90442 0
M  V30 5471 H 527.095 0.281747 0.699382 0
M  V30 5472 H 529.746 1.2734 1.32124 0
M  V30 5473 H 528.128 0.732171 3.89173 0
M  V30 5474 H 529.302 3.46178 3.04133 0
M  V30 5475 H 527.617 3.02156 2.86515 0
M  V30 5476 H 530.214 1.43632 5.15048 0
M  V30 5477 H 530.557 0.0373072 4.16283 0
M  V30 5478 H 531.09 1.64732 3.62089 0
M  V30 5479 H 527.829 4.36137 4.89352 0
M  V30 5480 H 527.349 2.71086 5.35044 0
M  V30 5481 H 529.028 3.25382 5.59227 0
M  V30 5482 N 529.16 -1.33526 0.837174 0
M  V30 5483 C 530.385 -2.0258 0.444545 0
M  V30 5484 C 530.81 -1.6258 -0.946006 0
M  V30 5485 O 530.168 -0.817548 -1.6182 0
M  V30 5486 C 530.216 -3.5605 0.571006 0
M  V30 5487 O 529.32 -4.10422 -0.403431 0
M  V30 5488 H 528.661 -0.638866 0.180958 0
M  V30 5489 H 531.191 -1.70462 1.13154 0
M  V30 5490 H 531.201 -4.05488 0.452024 0
M  V30 5491 H 529.876 -3.84509 1.58512 0
M  V30 5492 H 528.453 -3.72113 -0.242147 0
M  V30 5493 N 530.638 -0.59345 -1.46 0
M  V30 5494 C 531.868 -0.0889642 -2.06408 0
M  V30 5495 C 532.276 1.22597 -1.44106 0
M  V30 5496 O 531.619 1.75448 -0.544398 0
M  V30 5497 C 531.681 0.139902 -3.59228 0
M  V30 5498 C 531.345 -1.09107 -4.43784 0
M  V30 5499 C 532.342 -2.00577 -4.79651 0
M  V30 5500 C 530.027 -1.31593 -4.84756 0
M  V30 5501 C 532.021 -3.12873 -5.55328 0
M  V30 5502 C 529.708 -2.44192 -5.60191 0
M  V30 5503 C 530.706 -3.34661 -5.95392 0
M  V30 5504 O 530.394 -4.45302 -6.69299 0
M  V30 5505 H 530.126 -0.0594613 -0.67338 0
M  V30 5506 H 532.68 -0.817 -1.88452 0
M  V30 5507 H 530.91 0.922672 -3.75531 0
M  V30 5508 H 532.599 0.594228 -4.01527 0
M  V30 5509 H 533.365 -1.84425 -4.48567 0
M  V30 5510 H 529.244 -0.620801 -4.56801 0
M  V30 5511 H 532.788 -3.83511 -5.82722 0
M  V30 5512 H 528.685 -2.60303 -5.90688 0
M  V30 5513 H 529.453 -4.43805 -6.87735 0
M  V30 5514 N 532.116 1.54067 -0.331816 0
M  V30 5515 C 533.393 1.92915 0.322955 0
M  V30 5516 C 533.773 1.26225 1.69205 0
M  V30 5517 O 533.121 0.408919 2.24811 0
M  V30 5518 C 533.331 3.46619 0.406946 0
M  V30 5519 C 534.679 4.19386 0.663339 0
M  V30 5520 O 535.703 3.5282 0.489536 0
M  V30 5521 O 534.562 5.37288 0.999193 0
M  V30 5522 H 531.656 0.805808 0.186016 0
M  V30 5523 H 534.202 1.65342 -0.382135 0
M  V30 5524 H 532.974 3.87354 -0.554287 0
M  V30 5525 H 532.597 3.80324 1.15929 0
M  V30 5526 N 533.594 0.0601682 1.57485 0
M  V30 5527 C 534.542 -0.928899 2.13247 0
M  V30 5528 C 535.536 -1.31616 1.06647 0
M  V30 5529 O 536.742 -1.29476 1.25043 0
M  V30 5530 H 533.117 -0.317455 0.681708 0
M  V30 5531 H 535.088 -0.433566 2.95233 0
M  V30 5532 C 533.837 -2.19121 2.69965 0
M  V30 5533 H 533.16 -1.90204 3.51657 0
M  V30 5534 H 534.6 -2.86465 3.12592 0
M  V30 5535 C 533.059 -2.94195 1.64168 0
M  V30 5536 O 533.589 -3.87468 1.05978 0
M  V30 5537 N 531.795 -2.57089 1.35476 0
M  V30 5538 H 531.342 -1.81314 1.82984 0
M  V30 5539 H 531.3 -3.07624 0.649196 0
M  V30 5540 N 535.072 -1.5615 -0.213296 0
M  V30 5541 C 536.483 -1.69645 -0.779582 0
M  V30 5542 C 536.834 -0.663615 -1.84636 0
M  V30 5543 O 535.959 0.183633 -2.15619 0
M  V30 5544 C 536.554 -3.07567 -1.42084 0
M  V30 5545 C 535.113 -3.22889 -1.93442 0
M  V30 5546 C 534.26 -2.65581 -0.797612 0
M  V30 5547 H 537.211 -1.58696 0.0114951 0
M  V30 5548 H 537.232 -3.03884 -2.28986 0
M  V30 5549 H 536.744 -3.82716 -0.644187 0
M  V30 5550 H 534.845 -2.52623 -2.73884 0
M  V30 5551 H 534.958 -4.30197 -2.10872 0
M  V30 5552 H 533.322 -2.24278 -1.20712 0
M  V30 5553 H 534.105 -3.43284 -0.033494 0
M  V30 5554 N 536.55 0.480323 -1.50102 0
M  V30 5555 C 537.482 1.59669 -1.64433 0
M  V30 5556 C 538.495 1.54063 -0.52615 0
M  V30 5557 O 539.684 1.59619 -0.798992 0
M  V30 5558 C 536.784 2.98527 -1.6042 0
M  V30 5559 C 535.957 3.291 -2.88117 0
M  V30 5560 C 535.016 4.47468 -2.76873 0
M  V30 5561 O 534.042 4.4823 -3.50825 0
M  V30 5562 N 535.244 5.48593 -1.89806 0
M  V30 5563 H 538.009 1.47795 -2.60723 0
M  V30 5564 H 535.57 0.66858 -1.4745 0
M  V30 5565 H 537.562 3.75666 -1.50523 0
M  V30 5566 H 536.132 3.04218 -0.719036 0
M  V30 5567 H 535.352 2.40662 -3.12211 0
M  V30 5568 H 536.64 3.46334 -3.72734 0
M  V30 5569 H 536.038 5.50791 -1.2902 0
M  V30 5570 H 534.595 6.24752 -1.85819 0
M  V30 5571 N 538.028 1.39524 0.732853 0
M  V30 5572 C 539.274 1.37068 1.49467 0
M  V30 5573 C 539.607 -0.0327166 1.94172 0
M  V30 5574 O 538.882 -0.998071 1.66939 0
M  V30 5575 C 539.165 2.34494 2.73285 0
M  V30 5576 C 539.018 3.83784 2.34585 0
M  V30 5577 C 540.337 2.29717 3.75391 0
M  V30 5578 H 537.456 0.499206 0.542183 0
M  V30 5579 H 540.098 1.70532 0.837783 0
M  V30 5580 H 538.248 2.06087 3.29333 0
M  V30 5581 H 539.92 4.22949 1.84151 0
M  V30 5582 H 538.163 4.00455 1.66787 0
M  V30 5583 H 538.834 4.47444 3.23262 0
M  V30 5584 H 541.31 2.54839 3.28932 0
M  V30 5585 H 540.186 2.99962 4.59689 0
M  V30 5586 H 540.447 1.30291 4.22465 0
M  V30 5587 N 539.506 -0.963266 1.24736 0
M  V30 5588 C 540.469 -2.04013 1.04457 0
M  V30 5589 C 541.469 -1.608 0.000335555 0
M  V30 5590 O 542.659 -1.72515 0.241719 0
M  V30 5591 C 539.791 -3.35858 0.584162 0
M  V30 5592 H 540.984 -2.23436 2.00041 0
M  V30 5593 H 538.537 -1.13914 1.07021 0
M  V30 5594 H 539.272 -3.22128 -0.374673 0
M  V30 5595 H 539.057 -3.68568 1.3379 0
M  V30 5596 H 540.547 -4.1502 0.463451 0
M  V30 5597 N 540.985 -1.06182 -1.16461 0
M  V30 5598 C 541.933 -0.665716 -2.2287 0
M  V30 5599 C 542.927 0.317822 -1.66392 0
M  V30 5600 O 544.133 0.182807 -1.79069 0
M  V30 5601 H 540.508 -0.197148 -0.725697 0
M  V30 5602 H 542.479 -1.57307 -2.53569 0
M  V30 5603 C 541.228 -0.0669803 -3.47635 0
M  V30 5604 H 540.551 -0.814899 -3.91407 0
M  V30 5605 H 541.991 0.172669 -4.23648 0
M  V30 5606 C 540.45 1.18913 -3.15216 0
M  V30 5607 O 540.98 2.27723 -3.30916 0
M  V30 5608 N 539.186 1.09066 -2.69357 0
M  V30 5609 H 538.733 0.20518 -2.56782 0
M  V30 5610 H 538.691 1.93195 -2.48039 0
M  V30 5611 N 542.463 1.3308 -0.844243 0
M  V30 5612 C 543.393 2.3161 -0.296493 0
M  V30 5613 C 544.374 1.59215 0.598707 0
M  V30 5614 O 545.559 1.87077 0.521134 0
M  V30 5615 C 542.689 3.43313 0.524762 0
M  V30 5616 C 541.643 4.27115 -0.275106 0
M  V30 5617 C 540.969 5.30483 0.670236 0
M  V30 5618 C 542.269 5.00443 -1.49514 0
M  V30 5619 H 543.963 2.77672 -1.11976 0
M  V30 5620 H 541.509 1.33496 -0.539899 0
M  V30 5621 H 543.462 4.11273 0.918298 0
M  V30 5622 H 542.186 2.95952 1.3813 0
M  V30 5623 H 540.845 3.60787 -0.650267 0
M  V30 5624 H 540.493 4.79379 1.52332 0
M  V30 5625 H 540.193 5.87435 0.139123 0
M  V30 5626 H 541.717 6.01308 1.06117 0
M  V30 5627 H 543.131 5.61141 -1.17447 0
M  V30 5628 H 541.528 5.67071 -1.96343 0
M  V30 5629 H 542.598 4.28906 -2.26202 0
M  V30 5630 N 543.941 0.601185 1.45683 0
M  V30 5631 C 544.888 -0.121396 2.30481 0
M  V30 5632 C 545.858 -0.866232 1.41724 0
M  V30 5633 O 547.043 -0.85324 1.70659 0
M  V30 5634 C 544.183 -1.11704 3.26521 0
M  V30 5635 C 543.296 -0.373741 4.3038 0
M  V30 5636 C 542.431 -1.35854 5.13534 0
M  V30 5637 C 541.47 -0.602689 6.09126 0
M  V30 5638 N 540.607 -1.53645 6.85082 0
M  V30 5639 H 545.447 0.607732 2.91737 0
M  V30 5640 H 542.984 0.311502 1.43764 0
M  V30 5641 H 544.942 -1.70735 3.80664 0
M  V30 5642 H 543.572 -1.81366 2.67032 0
M  V30 5643 H 542.624 0.331962 3.78949 0
M  V30 5644 H 543.936 0.2163 4.98331 0
M  V30 5645 H 543.09 -2.02111 5.72046 0
M  V30 5646 H 541.829 -1.98251 4.45587 0
M  V30 5647 H 540.834 0.0735482 5.49751 0
M  V30 5648 H 542.059 0.0161467 6.79098 0
M  V30 5649 H 540.005 -2.14819 6.1983 0
M  V30 5650 H 539.922 -0.999688 7.49361 0
M  V30 5651 H 541.19 -2.1888 7.48139 0
M  V30 5652 N 545.419 -1.53889 0.339982 0
M  V30 5653 C 546.644 -2.05741 -0.261798 0
M  V30 5654 C 547.069 -1.21354 -1.43718 0
M  V30 5655 O 546.427 -0.22645 -1.7988 0
M  V30 5656 C 546.475 -3.54542 -0.658228 0
M  V30 5657 O 545.579 -3.7302 -1.75869 0
M  V30 5658 H 544.92 -0.662529 -0.0441672 0
M  V30 5659 H 547.45 -1.98568 0.493161 0
M  V30 5660 H 547.46 -3.9711 -0.936368 0
M  V30 5661 H 546.135 -4.15412 0.201358 0
M  V30 5662 H 544.712 -3.42355 -1.47809 0
M  V30 5663 N 546.897 -0.0685191 -1.57451 0
M  V30 5664 C 548.145 0.60016 -1.92983 0
M  V30 5665 C 548.466 1.70348 -0.949028 0
M  V30 5666 O 547.736 1.959 0.00335647 0
M  V30 5667 H 546.316 0.224682 -0.712409 0
M  V30 5668 H 548.978 -0.125605 -1.94495 0
M  V30 5669 H 548.074 1.02759 -2.94698 0
M  V30 5670 N 548.375 1.56261 0.205012 0
M  V30 5671 C 549.605 1.83874 0.942018 0
M  V30 5672 C 550.013 0.647595 1.77772 0
M  V30 5673 O 549.356 -0.393098 1.79445 0
M  V30 5674 C 549.418 3.05453 1.89575 0
M  V30 5675 C 549.082 4.39772 1.24296 0
M  V30 5676 C 550.079 5.16133 0.624724 0
M  V30 5677 C 547.764 4.86504 1.24978 0
M  V30 5678 C 549.758 6.37396 0.0220117 0
M  V30 5679 C 547.445 6.07705 0.643232 0
M  V30 5680 C 548.443 6.82993 0.0304164 0
M  V30 5681 O 548.131 8.019 -0.566654 0
M  V30 5682 H 547.863 0.614896 0.280854 0
M  V30 5683 H 550.417 2.04215 0.220285 0
M  V30 5684 H 548.647 2.80972 2.65691 0
M  V30 5685 H 550.336 3.19797 2.4997 0
M  V30 5686 H 551.102 4.81127 0.611666 0
M  V30 5687 H 546.981 4.27865 1.71616 0
M  V30 5688 H 550.525 6.96102 -0.456926 0
M  V30 5689 H 546.422 6.42181 0.653759 0
M  V30 5690 H 547.19 8.17192 -0.462588 0
M  V30 5691 N 549.853 -0.472356 1.50355 0
M  V30 5692 C 551.102 -1.2213 1.60522 0
M  V30 5693 C 551.415 -1.9312 0.310466 0
M  V30 5694 O 552.621 -2.69936 0.291029 0
M  V30 5695 C 551.077 -2.21909 2.83345 0
M  V30 5696 C 550.685 -1.56727 4.19691 0
M  V30 5697 C 552.429 -2.97453 3.02856 0
M  V30 5698 C 550.336 -2.54785 5.33703 0
M  V30 5699 H 549.266 -0.459543 0.597776 0
M  V30 5700 H 551.917 -0.491922 1.76783 0
M  V30 5701 H 550.299 -2.98133 2.60639 0
M  V30 5702 H 551.473 -0.863007 4.52646 0
M  V30 5703 H 549.788 -0.934685 4.05774 0
M  V30 5704 H 552.385 -3.70838 3.85205 0
M  V30 5705 H 552.728 -3.56764 2.14534 0
M  V30 5706 H 553.261 -2.28342 3.25737 0
M  V30 5707 H 550 -2.00214 6.24175 0
M  V30 5708 H 549.52 -3.23367 5.05167 0
M  V30 5709 H 551.199 -3.16639 5.64224 0
M  V30 5710 N 551.331 -1.39911 -0.725443 0
M  V30 5711 C 552.278 -1.39393 -1.83952 0
M  V30 5712 C 553.248 -0.252249 -1.64173 0
M  V30 5713 O 554.433 -0.44882 -1.85446 0
M  V30 5714 C 551.573 -1.25262 -3.21564 0
M  V30 5715 C 550.686 -2.49054 -3.52982 0
M  V30 5716 C 549.821 -2.27439 -4.80047 0
M  V30 5717 C 548.86 -3.46857 -5.04338 0
M  V30 5718 N 547.997 -3.24499 -6.22611 0
M  V30 5719 H 552.837 -2.34622 -1.83729 0
M  V30 5720 H 550.374 -1.16537 -0.897636 0
M  V30 5721 H 552.332 -1.15077 -4.01015 0
M  V30 5722 H 550.962 -0.33657 -3.21041 0
M  V30 5723 H 550.014 -2.69805 -2.6816 0
M  V30 5724 H 551.326 -3.37973 -3.66846 0
M  V30 5725 H 550.48 -2.14551 -5.67497 0
M  V30 5726 H 549.219 -1.35929 -4.68374 0
M  V30 5727 H 548.224 -3.60232 -4.15346 0
M  V30 5728 H 549.449 -4.3928 -5.17889 0
M  V30 5729 H 547.395 -2.35663 -6.12208 0
M  V30 5730 H 547.312 -4.06978 -6.37106 0
M  V30 5731 H 548.58 -3.15325 -7.12875 0
M  V30 5732 N 552.809 0.956637 -1.25245 0
M  V30 5733 C 554.034 1.74104 -1.12706 0
M  V30 5734 C 554.459 1.85436 0.315429 0
M  V30 5735 O 553.817 1.33334 1.22848 0
M  V30 5736 C 553.865 3.1338 -1.78396 0
M  V30 5737 O 552.969 3.98485 -1.06224 0
M  V30 5738 H 552.31 0.53476 -0.393609 0
M  V30 5739 H 554.84 1.19924 -1.65769 0
M  V30 5740 H 554.85 3.6385 -1.846 0
M  V30 5741 H 553.525 3.04448 -2.83345 0
M  V30 5742 H 552.102 3.56952 -1.07886 0
M  V30 5743 N 554.287 1.06798 1.15896 0
M  V30 5744 C 555.217 0.704677 2.22613 0
M  V30 5745 C 556.198 -0.305252 1.67339 0
M  V30 5746 O 557.383 -0.179247 1.93371 0
M  V30 5747 C 554.513 0.0957325 3.47168 0
M  V30 5748 C 553.467 1.0322 4.15367 0
M  V30 5749 C 552.793 0.286293 5.33933 0
M  V30 5750 C 554.093 2.36341 4.65768 0
M  V30 5751 H 555.787 1.59688 2.53259 0
M  V30 5752 H 553.333 0.769257 1.21731 0
M  V30 5753 H 555.286 -0.170333 4.21056 0
M  V30 5754 H 554.01 -0.831516 3.15838 0
M  V30 5755 H 552.669 1.28309 3.43413 0
M  V30 5756 H 552.317 -0.644237 4.98857 0
M  V30 5757 H 552.017 0.910436 5.80504 0
M  V30 5758 H 553.541 0.0278938 6.10594 0
M  V30 5759 H 554.955 2.1561 5.31211 0
M  V30 5760 H 553.352 2.94299 5.2298 0
M  V30 5761 H 554.422 2.99047 3.81705 0
M  V30 5762 N 555.766 -1.3263 0.851289 0
M  V30 5763 C 557.014 -1.96978 0.452128 0
M  V30 5764 C 557.335 -1.67715 -0.99482 0
M  V30 5765 O 556.605 -0.98259 -1.69476 0
M  V30 5766 H 555.185 -0.72873 0.164202 0
M  V30 5767 H 557.847 -1.61774 1.08698 0
M  V30 5768 H 556.943 -3.06387 0.594407 0
M  V30 5769 N 557.244 -0.608902 -1.45362 0
M  V30 5770 C 558.174 0.0964526 -2.33301 0
M  V30 5771 C 559.155 0.857444 -1.46908 0
M  V30 5772 O 560.34 0.827735 -1.75676 0
M  V30 5773 C 557.47 1.09354 -3.29635 0
M  V30 5774 C 556.424 0.445676 -4.25673 0
M  V30 5775 C 555.75 1.5511 -5.11708 0
M  V30 5776 C 557.05 -0.633972 -5.18438 0
M  V30 5777 H 558.744 -0.637829 -2.92527 0
M  V30 5778 H 556.29 -0.308178 -1.40664 0
M  V30 5779 H 558.243 1.59556 -3.90025 0
M  V30 5780 H 556.967 1.85843 -2.6857 0
M  V30 5781 H 555.626 -0.0354897 -3.66583 0
M  V30 5782 H 555.274 2.30631 -4.4701 0
M  V30 5783 H 554.974 1.12311 -5.76767 0
M  V30 5784 H 556.498 2.05537 -5.74967 0
M  V30 5785 H 557.912 -0.215974 -5.72893 0
M  V30 5786 H 556.309 -0.983789 -5.91981 0
M  V30 5787 H 557.379 -1.51005 -4.60788 0
M  V30 5788 N 558.722 1.53707 -0.348139 0
M  V30 5789 C 559.97 2.00591 0.246478 0
M  V30 5790 C 560.291 1.23753 1.50699 0
M  V30 5791 O 559.561 0.345964 1.92821 0
M  V30 5792 H 558.141 0.741053 0.0940679 0
M  V30 5793 H 560.803 1.89139 -0.470354 0
M  V30 5794 H 559.899 3.08297 0.485714 0
M  V30 5795 N 560.2 0.0768682 1.57412 0
M  V30 5796 C 561.448 -0.589918 1.93299 0
M  V30 5797 C 561.769 -1.69842 0.958049 0
M  V30 5798 O 561.039 -1.95899 0.00703261 0
M  V30 5799 H 559.619 -0.220901 0.713591 0
M  V30 5800 H 562.281 0.135917 1.94425 0
M  V30 5801 H 561.377 -1.01195 2.95239 0
M  V30 5802 N 561.678 -1.56367 -0.196722 0
M  V30 5803 C 562.641 -1.93561 -1.22746 0
M  V30 5804 C 563.641 -0.816566 -1.38524 0
M  V30 5805 O 564.831 -1.084 -1.36363 0
M  V30 5806 C 561.963 -2.20823 -2.59712 0
M  V30 5807 H 563.156 -2.85774 -0.909586 0
M  V30 5808 H 560.709 -1.50032 -0.438174 0
M  V30 5809 H 561.444 -1.31243 -2.96557 0
M  V30 5810 H 561.229 -3.02368 -2.49632 0
M  V30 5811 H 562.719 -2.50608 -3.34044 0
M  V30 5812 N 563.156 0.464375 -1.50603 0
M  V30 5813 C 564.089 1.58052 -1.64605 0
M  V30 5814 C 565.067 1.54914 -0.494016 0
M  V30 5815 O 566.251 1.74438 -0.714393 0
M  V30 5816 C 563.378 2.96634 -1.63481 0
M  V30 5817 C 562.424 3.17901 -2.84325 0
M  V30 5818 S 563.257 2.97083 -4.45536 0
M  V30 5819 C 564.413 4.37994 -4.47115 0
M  V30 5820 H 564.646 1.45937 -2.59017 0
M  V30 5821 H 562.179 0.652189 -1.39949 0
M  V30 5822 H 564.137 3.76527 -1.63517 0
M  V30 5823 H 562.798 3.06134 -0.702928 0
M  V30 5824 H 561.991 4.19158 -2.79862 0
M  V30 5825 H 561.593 2.45792 -2.81891 0
M  V30 5826 H 563.885 5.30743 -4.21091 0
M  V30 5827 H 564.828 4.47499 -5.48772 0
M  V30 5828 H 565.236 4.20386 -3.76743 0
M  V30 5829 N 564.634 1.40294 0.718013 0
M  V30 5830 C 565.88 1.39648 1.47885 0
M  V30 5831 C 566.235 -0.0023879 1.924 0
M  V30 5832 O 565.528 -0.972304 1.65096 0
M  V30 5833 C 565.722 2.31814 2.72024 0
M  V30 5834 C 565.551 3.80523 2.3965 0
M  V30 5835 C 564.321 4.49351 2.3111 0
M  V30 5836 C 566.519 4.72077 2.04079 0
M  V30 5837 N 564.501 5.83305 1.91385 0
M  V30 5838 C 565.872 5.94809 1.74935 0
M  V30 5839 C 567.927 4.59935 1.90694 0
M  V30 5840 C 566.63 7.06755 1.33753 0
M  V30 5841 C 568.656 5.7182 1.50915 0
M  V30 5842 C 568.018 6.93637 1.22668 0
M  V30 5843 H 564.117 0.566263 0.539324 0
M  V30 5844 H 566.701 1.75986 0.832891 0
M  V30 5845 H 564.872 1.97607 3.34374 0
M  V30 5846 H 566.604 2.22042 3.38348 0
M  V30 5847 H 563.359 4.03002 2.4877 0
M  V30 5848 H 563.783 6.54239 1.74068 0
M  V30 5849 H 568.425 3.66274 2.11194 0
M  V30 5850 H 566.143 8.00302 1.11995 0
M  V30 5851 H 569.729 5.64421 1.4114 0
M  V30 5852 H 568.609 7.78743 0.923502 0
M  V30 5853 N 566.112 -0.949982 1.2575 0
M  V30 5854 C 567.358 -1.69822 1.11947 0
M  V30 5855 C 567.713 -1.89455 -0.335334 0
M  V30 5856 O 567.006 -1.45778 -1.24336 0
M  V30 5857 C 567.2 -3.08039 1.81237 0
M  V30 5858 C 567.029 -3.0189 3.33305 0
M  V30 5859 C 565.799 -3.05391 4.02573 0
M  V30 5860 C 567.997 -2.827 4.29634 0
M  V30 5861 N 565.979 -2.89449 5.4138 0
M  V30 5862 C 567.35 -2.75237 5.55558 0
M  V30 5863 C 569.405 -2.67416 4.19992 0
M  V30 5864 C 568.108 -2.54051 6.72942 0
M  V30 5865 C 570.134 -2.47602 5.37073 0
M  V30 5866 C 569.496 -2.40863 6.6194 0
M  V30 5867 H 565.595 -0.629188 0.464378 0
M  V30 5868 H 568.179 -1.1249 1.58916 0
M  V30 5869 H 566.35 -3.63528 1.36756 0
M  V30 5870 H 568.082 -3.71671 1.60134 0
M  V30 5871 H 564.837 -3.14763 3.53866 0
M  V30 5872 H 565.261 -2.84669 6.14241 0
M  V30 5873 H 569.903 -2.71398 3.24196 0
M  V30 5874 H 567.621 -2.48811 7.68842 0
M  V30 5875 H 571.207 -2.36694 5.31477 0
M  V30 5876 H 570.087 -2.25732 7.51009 0
M  V30 5877 N 567.59 -1.07411 -1.15328 0
M  V30 5878 C 568.867 -0.710732 -1.82231 0
M  V30 5879 C 569.247 0.806732 -1.95077 0
M  V30 5880 O 568.595 1.72139 -1.50268 0
M  V30 5881 C 568.805 -1.42586 -3.18544 0
M  V30 5882 C 570.153 -1.57836 -3.94174 0
M  V30 5883 O 571.177 -1.38669 -3.281 0
M  V30 5884 O 570.036 -1.8938 -5.12638 0
M  V30 5885 H 567.13 -0.25297 -0.78736 0
M  V30 5886 H 569.676 -1.17508 -1.22434 0
M  V30 5887 H 568.448 -2.46008 -3.04296 0
M  V30 5888 H 568.071 -0.952332 -3.86026 0
M  V30 5889 N 569.068 1.32177 -0.85831 0
M  V30 5890 C 570.293 2.01847 -0.476718 0
M  V30 5891 C 570.718 1.64065 0.920021 0
M  V30 5892 O 570.076 0.843189 1.60499 0
M  V30 5893 C 570.124 3.55097 -0.627578 0
M  V30 5894 O 569.228 4.11012 0.338086 0
M  V30 5895 H 568.569 0.635907 -0.191099 0
M  V30 5896 H 571.099 1.68641 -1.15851 0
M  V30 5897 H 571.109 4.04718 -0.516476 0
M  V30 5898 H 569.784 3.81938 -1.64609 0
M  V30 5899 H 568.361 3.72451 0.182917 0
M  V30 5900 N 570.547 0.616602 1.45037 0
M  V30 5901 C 571.772 0.120192 2.07051 0
M  V30 5902 C 572.197 -1.19008 1.45666 0
M  V30 5903 O 571.555 -1.7267 0.552692 0
M  V30 5904 C 571.603 0.00354901 3.606 0
M  V30 5905 O 570.707 -1.04431 3.98958 0
M  V30 5906 H 570.048 0.0781599 0.659384 0
M  V30 5907 H 572.578 0.849167 1.86146 0
M  V30 5908 H 572.588 -0.191754 4.07549 0
M  V30 5909 H 571.263 0.960239 4.04663 0
M  V30 5910 H 569.84 -0.824749 3.63665 0
M  V30 5911 N 572.025 -1.5352 0.356285 0
M  V30 5912 C 573.25 -2.06007 -0.239961 0
M  V30 5913 C 573.675 -1.22872 -1.42422 0
M  V30 5914 O 573.033 -0.245516 -1.7963 0
M  V30 5915 C 573.081 -3.5522 -0.620587 0
M  V30 5916 O 572.185 -3.74864 -1.71902 0
M  V30 5917 H 571.526 -0.662961 -0.0371377 0
M  V30 5918 H 574.056 -1.98033 0.514194 0
M  V30 5919 H 574.066 -3.98081 -0.894197 0
M  V30 5920 H 572.741 -4.15175 0.245407 0
M  V30 5921 H 571.318 -3.43904 -1.44169 0
M  V30 5922 N 573.503 -0.0852151 -1.57369 0
M  V30 5923 C 574.78 0.622534 -1.85429 0
M  V30 5924 C 575.16 1.86962 -0.980229 0
M  V30 5925 O 574.508 2.28445 -0.0500219 0
M  V30 5926 C 574.718 0.947374 -3.35896 0
M  V30 5927 C 576.066 1.31509 -4.03721 0
M  V30 5928 O 577.09 1.03869 -3.40719 0
M  V30 5929 O 575.949 1.83231 -5.14868 0
M  V30 5930 H 573.043 0.310513 -0.766492 0
M  V30 5931 H 575.589 -0.117164 -1.69295 0
M  V30 5932 H 574.361 0.0622264 -3.91251 0
M  V30 5933 H 573.984 1.74338 -3.5734 0
M  V30 5934 N 574.981 1.5647 0.188427 0
M  V30 5935 C 575.928 1.95073 1.23349 0
M  V30 5936 C 576.898 0.812238 1.44886 0
M  V30 5937 O 578.083 1.07095 1.57909 0
M  V30 5938 C 575.223 2.30124 2.57171 0
M  V30 5939 C 574.336 3.57069 2.43157 0
M  V30 5940 C 573.471 3.81411 3.69729 0
M  V30 5941 C 572.51 5.0176 3.50575 0
M  V30 5942 N 571.647 5.22321 4.69175 0
M  V30 5943 H 576.487 2.84171 0.89728 0
M  V30 5944 H 574.024 1.40623 0.431683 0
M  V30 5945 H 575.982 2.48463 3.35145 0
M  V30 5946 H 574.612 1.44159 2.88822 0
M  V30 5947 H 573.664 3.4674 1.56447 0
M  V30 5948 H 574.976 4.452 2.24942 0
M  V30 5949 H 574.13 4.00026 4.56141 0
M  V30 5950 H 572.869 2.91624 3.90905 0
M  V30 5951 H 571.874 4.83061 2.62549 0
M  V30 5952 H 573.099 5.93063 3.30837 0
M  V30 5953 H 571.045 4.35483 4.90602 0
M  V30 5954 H 570.962 6.04643 4.53809 0
M  V30 5955 H 572.23 5.45401 5.56919 0
M  V30 5956 N 576.459 -0.456382 1.50847 0
M  V30 5957 C 577.687 -1.23026 1.66349 0
M  V30 5958 C 578.102 -1.85473 0.352868 0
M  V30 5959 O 577.459 -1.69885 -0.666739 0
M  V30 5960 C 577.51 -2.32827 2.76539 0
M  V30 5961 O 577.231 -1.72938 4.02522 0
M  V30 5962 C 578.732 -3.23448 3.03144 0
M  V30 5963 H 575.952 -0.371527 0.558756 0
M  V30 5964 H 578.496 -0.543082 1.97157 0
M  V30 5965 H 576.651 -2.97294 2.48384 0
M  V30 5966 H 577.065 -2.45357 4.63573 0
M  V30 5967 H 578.539 -3.96669 3.83872 0
M  V30 5968 H 579.016 -3.83094 2.14793 0
M  V30 5969 H 579.622 -2.64702 3.32886 0
M  V30 5970 N 577.937 -1.40673 -0.710563 0
M  V30 5971 C 579.185 -1.38947 -1.46759 0
M  V30 5972 C 579.506 0.00572879 -1.94999 0
M  V30 5973 O 578.776 0.961358 -1.70689 0
M  V30 5974 H 577.356 -0.5114 -0.544499 0
M  V30 5975 H 580.018 -1.75773 -0.842012 0
M  V30 5976 H 579.114 -2.06745 -2.33801 0
M  V30 5977 N 579.415 0.9433 -1.26252 0
M  V30 5978 C 580.64 1.72898 -1.14547 0
M  V30 5979 C 581.065 1.85761 0.295743 0
M  V30 5980 O 580.423 1.3463 1.21427 0
M  V30 5981 C 580.471 3.11471 -1.8171 0
M  V30 5982 O 579.575 3.97336 -1.10445 0
M  V30 5983 H 578.916 0.530555 -0.399259 0
M  V30 5984 H 581.446 1.18159 -1.67032 0
M  V30 5985 H 581.456 3.61872 -1.88449 0
M  V30 5986 H 580.131 3.01425 -2.86558 0
M  V30 5987 H 578.708 3.55788 -1.11666 0
M  V30 5988 N 580.893 1.08022 1.14757 0
M  V30 5989 C 582.17 0.720386 1.81851 0
M  V30 5990 C 582.55 -0.796375 1.95502 0
M  V30 5991 O 581.898 -1.71339 1.51179 0
M  V30 5992 C 582.108 1.44273 3.17783 0
M  V30 5993 C 583.456 1.59925 3.93331 0
M  V30 5994 O 584.48 1.40407 3.2736 0
M  V30 5995 O 583.339 1.92096 5.11626 0
M  V30 5996 H 580.433 0.257142 0.786007 0
M  V30 5997 H 582.979 1.18155 1.21809 0
M  V30 5998 H 581.751 2.47618 3.02987 0
M  V30 5999 H 581.374 0.97279 3.85516 0
M  V30 6000 N 582.371 -1.3172 0.865308 0
M  V30 6001 C 583.596 -2.01591 0.487415 0
M  V30 6002 C 584.021 -1.6455 -0.911307 0
M  V30 6003 O 583.379 -0.851689 -1.6005 0
M  V30 6004 C 583.427 -3.54759 0.646401 0
M  V30 6005 O 582.531 -4.11185 -0.316284 0
M  V30 6006 H 581.872 -0.634884 0.194468 0
M  V30 6007 H 584.402 -1.68024 1.16744 0
M  V30 6008 H 584.412 -4.04438 0.537932 0
M  V30 6009 H 583.087 -3.8106 1.66632 0
M  V30 6010 H 581.664 -3.72543 -0.163162 0
M  V30 6011 N 583.85 -0.624285 -1.44708 0
M  V30 6012 C 584.779 0.0717025 -2.3339 0
M  V30 6013 C 585.76 0.841814 -1.47809 0
M  V30 6014 O 586.946 0.809056 -1.76544 0
M  V30 6015 C 584.076 1.05852 -3.30776 0
M  V30 6016 C 583.029 0.400503 -4.26122 0
M  V30 6017 C 582.356 1.49674 -5.13324 0
M  V30 6018 C 583.656 -0.688924 -5.17737 0
M  V30 6019 H 585.35 -0.668819 -2.91834 0
M  V30 6020 H 582.896 -0.32308 -1.40329 0
M  V30 6021 H 584.849 1.5541 -3.91696 0
M  V30 6022 H 583.572 1.82984 -2.70526 0
M  V30 6023 H 582.231 -0.0743687 -3.66525 0
M  V30 6024 H 581.88 2.25877 -4.49431 0
M  V30 6025 H 581.58 1.06188 -5.77926 0
M  V30 6026 H 583.104 1.99427 -5.77115 0
M  V30 6027 H 584.518 -0.276724 -5.72632 0
M  V30 6028 H 582.915 -1.04652 -5.90904 0
M  V30 6029 H 583.985 -1.55884 -4.5916 0
M  V30 6030 N 585.328 1.53329 -0.364422 0
M  V30 6031 C 586.577 2.00421 0.226747 0
M  V30 6032 C 586.89 1.25581 1.49963 0
M  V30 6033 O 588.096 1.63256 2.16933 0
M  V30 6034 C 586.552 3.57017 0.454618 0
M  V30 6035 C 586.16 4.40734 -0.803568 0
M  V30 6036 C 587.904 4.12468 1.00351 0
M  V30 6037 C 585.811 5.8888 -0.545345 0
M  V30 6038 H 584.741 0.748787 0.0885082 0
M  V30 6039 H 587.392 1.7703 -0.482983 0
M  V30 6040 H 585.774 3.76558 1.22558 0
M  V30 6041 H 586.948 4.32967 -1.57723 0
M  V30 6042 H 585.263 3.96381 -1.27559 0
M  V30 6043 H 587.86 5.20783 1.212 0
M  V30 6044 H 588.203 3.6699 1.9653 0
M  V30 6045 H 588.736 3.96721 0.29274 0
M  V30 6046 H 585.475 6.38633 -1.47743 0
M  V30 6047 H 584.995 5.99499 0.189842 0
M  V30 6048 H 586.674 6.46776 -0.170425 0
M  V30 6049 N 586.806 0.0935595 1.57322 0
M  V30 6050 C 588.034 -0.578934 1.98635 0
M  V30 6051 C 588.449 -1.61819 0.972626 0
M  V30 6052 O 587.806 -1.82461 -0.0379638 0
M  V30 6053 C 587.857 -1.22802 3.40003 0
M  V30 6054 O 587.578 -0.230334 4.37494 0
M  V30 6055 C 589.079 -1.98627 3.96311 0
M  V30 6056 H 586.299 -0.155324 0.652775 0
M  V30 6057 H 588.843 0.172393 2.03772 0
M  V30 6058 H 586.998 -1.93029 3.35885 0
M  V30 6059 H 587.412 -0.698649 5.19826 0
M  V30 6060 H 588.886 -2.39405 4.97382 0
M  V30 6061 H 589.363 -2.85151 3.34044 0
M  V30 6062 H 589.969 -1.3322 4.03897 0
M  V30 6063 N 588.284 -1.56567 -0.180126 0
M  V30 6064 C 589.512 -1.85618 -0.913972 0
M  V30 6065 C 589.927 -0.677892 -1.7621 0
M  V30 6066 O 589.284 0.353171 -1.7905 0
M  V30 6067 C 589.335 -3.13619 -1.79793 0
M  V30 6068 O 589.056 -4.26906 -0.98402 0
M  V30 6069 C 590.557 -3.55954 -2.64219 0
M  V30 6070 H 587.777 -0.616043 -0.265954 0
M  V30 6071 H 590.321 -2.03681 -0.182872 0
M  V30 6072 H 588.476 -2.97409 -2.48247 0
M  V30 6073 H 588.89 -4.9989 -1.58776 0
M  V30 6074 H 590.364 -4.48444 -3.21873 0
M  V30 6075 H 590.841 -2.79653 -3.38661 0
M  V30 6076 H 591.447 -3.74746 -2.01111 0
M  V30 6077 N 589.762 0.448376 -1.51087 0
M  V30 6078 C 591.008 1.20049 -1.6345 0
M  V30 6079 C 591.341 1.91121 -0.344444 0
M  V30 6080 O 590.616 1.83125 0.655396 0
M  V30 6081 C 590.899 2.22624 -2.83038 0
M  V30 6082 C 590.752 1.55708 -4.21989 0
M  V30 6083 C 592.071 3.23718 -2.98152 0
M  V30 6084 H 589.19 0.435085 -0.59487 0
M  V30 6085 H 591.832 0.491183 -1.83541 0
M  V30 6086 H 589.982 2.83117 -2.66039 0
M  V30 6087 H 591.654 0.986367 -4.50631 0
M  V30 6088 H 589.897 0.859647 -4.25197 0
M  V30 6089 H 590.568 2.30357 -5.01637 0
M  V30 6090 H 593.044 2.73269 -3.13788 0
M  V30 6091 H 591.92 3.92795 -3.83411 0
M  V30 6092 H 592.181 3.89179 -2.09743 0
M  V30 6093 N 591.24 1.41047 0.703093 0
M  V30 6094 C 592.486 1.40207 1.46526 0
M  V30 6095 C 592.819 0.00847763 1.94198 0
M  V30 6096 O 592.094 -0.962437 1.69019 0
M  V30 6097 C 592.377 2.40238 2.6825 0
M  V30 6098 C 592.23 3.88674 2.26391 0
M  V30 6099 C 593.549 2.37627 3.70434 0
M  V30 6100 H 590.668 0.510594 0.531472 0
M  V30 6101 H 593.31 1.72271 0.801422 0
M  V30 6102 H 591.46 2.13026 3.24888 0
M  V30 6103 H 593.132 4.2676 1.75138 0
M  V30 6104 H 591.375 4.03903 1.58255 0
M  V30 6105 H 592.046 4.542 3.13698 0
M  V30 6106 H 594.522 2.61759 3.23452 0
M  V30 6107 H 593.398 3.09645 4.53223 0
M  V30 6108 H 593.659 1.39223 4.19606 0
M  V30 6109 N 592.718 -0.936591 1.26751 0
M  V30 6110 C 593.666 -2.0573 1.08527 0
M  V30 6111 C 594.66 -1.69397 0.0108784 0
M  V30 6112 O 595.866 -1.79215 0.167915 0
M  V30 6113 H 592.241 -0.673691 0.334133 0
M  V30 6114 H 594.212 -2.1825 2.03493 0
M  V30 6115 C 592.961 -3.39738 0.739845 0
M  V30 6116 H 592.284 -3.68174 1.55845 0
M  V30 6117 H 593.724 -4.18955 0.652149 0
M  V30 6118 C 592.183 -3.32292 -0.555288 0
M  V30 6119 O 592.713 -3.68794 -1.59229 0
M  V30 6120 N 590.919 -2.85394 -0.54762 0
M  V30 6121 H 590.466 -2.55886 0.296667 0
M  V30 6122 H 590.424 -2.80795 -1.41427 0
M  V30 6123 N 594.196 -1.08629 -1.14182 0
M  V30 6124 C 595.159 -0.722027 -2.1753 0
M  V30 6125 C 596.159 0.244305 -1.58933 0
M  V30 6126 O 597.349 0.0235545 -1.74184 0
M  V30 6127 C 594.481 -0.0663966 -3.40835 0
M  V30 6128 H 595.674 -1.63719 -2.51269 0
M  V30 6129 H 593.227 -0.884442 -1.28869 0
M  V30 6130 H 593.962 0.860389 -3.12678 0
M  V30 6131 H 593.747 -0.761598 -3.84632 0
M  V30 6132 H 595.237 0.173346 -4.1724 0
M  V30 6133 N 595.674 1.31259 -0.872281 0
M  V30 6134 C 596.604 2.30929 -0.345554 0
M  V30 6135 C 597.585 1.60449 0.5648 0
M  V30 6136 O 598.77 1.8814 0.481335 0
M  V30 6137 C 595.9 3.44348 0.451823 0
M  V30 6138 C 594.854 4.26435 -0.365641 0
M  V30 6139 C 594.18 5.31785 0.557562 0
M  V30 6140 C 595.48 4.97159 -1.60095 0
M  V30 6141 H 597.174 2.75234 -1.17841 0
M  V30 6142 H 594.72 1.3232 -0.568094 0
M  V30 6143 H 596.673 4.13128 0.830854 0
M  V30 6144 H 595.397 2.98816 1.31821 0
M  V30 6145 H 594.056 3.59326 -0.726649 0
M  V30 6146 H 593.704 4.82502 1.4213 0
M  V30 6147 H 593.404 5.87598 0.0144878 0
M  V30 6148 H 594.928 6.03424 0.933387 0
M  V30 6149 H 596.342 5.58523 -1.29323 0
M  V30 6150 H 594.739 5.62779 -2.08327 0
M  V30 6151 H 595.809 4.24012 -2.35249 0
M  V30 6152 N 597.152 0.631951 1.44375 0
M  V30 6153 C 598.4 0.136497 2.01639 0
M  V30 6154 C 598.721 -1.24637 1.49969 0
M  V30 6155 O 597.991 -1.82827 0.70363 0
M  V30 6156 H 596.571 0.0474703 0.74549 0
M  V30 6157 H 599.233 0.818837 1.76865 0
M  V30 6158 H 598.329 0.104817 3.11924 0
M  V30 6159 N 598.631 -1.53133 0.372548 0
M  V30 6160 C 599.879 -2.00958 -0.214534 0
M  V30 6161 C 600.2 -1.26135 -1.48711 0
M  V30 6162 O 599.47 -0.376597 -1.92246 0
M  V30 6163 H 598.05 -0.742456 -0.0822664 0
M  V30 6164 H 600.712 -1.88367 0.500385 0
M  V30 6165 H 599.808 -3.09031 -0.436605 0
M  V30 6166 N 600.109 -0.101901 -1.5727 0
M  V30 6167 C 601.337 0.568392 -1.98939 0
M  V30 6168 C 601.752 1.61301 -0.981194 0
M  V30 6169 O 601.109 1.82478 0.0282869 0
M  V30 6170 C 601.16 1.20997 -3.40649 0
M  V30 6171 O 600.881 0.207129 -4.3761 0
M  V30 6172 C 602.382 1.96523 -3.97358 0
M  V30 6173 H 599.602 0.15186 -0.65359 0
M  V30 6174 H 602.146 -0.183198 -2.03678 0
M  V30 6175 H 600.301 1.91245 -3.36904 0
M  V30 6176 H 600.715 0.671071 -5.20189 0
M  V30 6177 H 602.189 2.36764 -4.98645 0
M  V30 6178 H 602.666 2.83376 -3.35552 0
M  V30 6179 H 603.272 1.31076 -4.04598 0
M  V30 6180 N 601.587 1.56661 0.17182 0
M  V30 6181 C 602.835 1.81606 0.886774 0
M  V30 6182 C 603.156 0.678818 1.82803 0
M  V30 6183 O 602.426 -0.301354 1.93568 0
M  V30 6184 H 601.006 0.669934 0.330451 0
M  V30 6185 H 603.668 1.94142 0.171757 0
M  V30 6186 H 602.764 2.75634 1.46398 0
M  V30 6187 N 603.065 -0.440357 1.51323 0
M  V30 6188 C 604.311 -1.19181 1.64085 0
M  V30 6189 C 604.644 -1.90936 0.354575 0
M  V30 6190 O 603.919 -1.8347 -0.645675 0
M  V30 6191 C 604.202 -2.2112 2.84215 0
M  V30 6192 C 604.055 -1.53468 4.22809 0
M  V30 6193 C 605.374 -3.22133 2.99864 0
M  V30 6194 H 602.493 -0.431924 0.597169 0
M  V30 6195 H 605.135 -0.481443 1.83799 0
M  V30 6196 H 603.285 -2.81703 2.67537 0
M  V30 6197 H 604.957 -0.962455 4.51148 0
M  V30 6198 H 603.2 -0.837086 4.25647 0
M  V30 6199 H 603.871 -2.27694 5.02852 0
M  V30 6200 H 606.347 -2.71601 3.15233 0
M  V30 6201 H 605.223 -3.90756 3.85488 0
M  V30 6202 H 605.484 -3.88061 2.11804 0
M  V30 6203 N 604.543 -1.41418 -0.695603 0
M  V30 6204 C 605.79 -1.40774 -1.45564 0
M  V30 6205 C 606.118 -0.0168604 -1.94493 0
M  V30 6206 O 605.373 0.971259 -1.69897 0
M  V30 6207 C 605.672 -2.36112 -2.68302 0
M  V30 6208 C 605.338 -3.82952 -2.38031 0
M  V30 6209 C 604 -4.22954 -2.29486 0
M  V30 6210 C 606.352 -4.75662 -2.13061 0
M  V30 6211 C 603.68 -5.53674 -1.94067 0
M  V30 6212 C 606.032 -6.06702 -1.79151 0
M  V30 6213 C 604.696 -6.45725 -1.69102 0
M  V30 6214 H 603.966 -0.515128 -0.532658 0
M  V30 6215 H 606.613 -1.74216 -0.795047 0
M  V30 6216 H 604.918 -1.95924 -3.39295 0
M  V30 6217 H 606.615 -2.32887 -3.26442 0
M  V30 6218 H 603.205 -3.5127 -2.45576 0
M  V30 6219 H 607.389 -4.45561 -2.18608 0
M  V30 6220 H 602.645 -5.8279 -1.8484 0
M  V30 6221 H 606.819 -6.78041 -1.5885 0
M  V30 6222 H 604.446 -7.46929 -1.41426 0
M  V30 6223 N 606.021 0.929856 -1.27246 0
M  V30 6224 C 606.931 2.0636 -1.11592 0
M  V30 6225 C 607.947 1.73938 -0.046496 0
M  V30 6226 O 609.123 1.9981 -0.252544 0
M  V30 6227 C 606.188 3.38213 -0.762437 0
M  V30 6228 C 605.249 3.84346 -1.9125 0
M  V30 6229 C 604.482 5.09906 -1.57579 0
M  V30 6230 O 604.705 5.68354 -0.482694 0
M  V30 6231 O 603.639 5.51359 -2.41426 0
M  V30 6232 H 607.465 2.22478 -2.0673 0
M  V30 6233 H 605.05 1.04865 -1.06413 0
M  V30 6234 H 606.932 4.1741 -0.57854 0
M  V30 6235 H 605.607 3.23307 0.159439 0
M  V30 6236 H 604.514 3.06045 -2.15144 0
M  V30 6237 H 605.847 4.0379 -2.81451 0
M  V30 6238 N 607.499 1.09233 1.13605 0
M  V30 6239 C 608.431 0.687794 2.18637 0
M  V30 6240 C 609.444 -0.26936 1.60556 0
M  V30 6241 O 610.633 -0.0557162 1.78413 0
M  V30 6242 C 607.733 -0.00751901 3.38899 0
M  V30 6243 C 606.906 0.97067 4.26494 0
M  V30 6244 C 605.965 0.309129 5.25291 0
M  V30 6245 O 604.991 0.956149 5.61112 0
M  V30 6246 N 606.193 -0.937555 5.72879 0
M  V30 6247 H 608.958 1.59141 2.53957 0
M  V30 6248 H 606.519 0.979515 1.28907 0
M  V30 6249 H 608.511 -0.461238 4.02063 0
M  V30 6250 H 607.081 -0.813353 3.01833 0
M  V30 6251 H 606.301 1.603 3.60135 0
M  V30 6252 H 607.589 1.63323 4.81875 0
M  V30 6253 H 606.987 -1.48281 5.4592 0
M  V30 6254 H 605.544 -1.33463 6.3799 0
M  V30 6255 N 608.977 -1.30795 0.87923 0
M  V30 6256 C 610.202 -2.01063 0.508769 0
M  V30 6257 C 610.627 -1.65508 -0.893803 0
M  V30 6258 O 609.985 -0.868616 -1.59138 0
M  V30 6259 C 610.033 -3.54054 0.683991 0
M  V30 6260 O 609.137 -4.11498 -0.272654 0
M  V30 6261 H 608.478 -0.632786 0.201191 0
M  V30 6262 H 611.008 -1.66776 1.18519 0
M  V30 6263 H 611.018 -4.03845 0.580798 0
M  V30 6264 H 609.693 -3.79271 1.70665 0
M  V30 6265 H 608.27 -3.72695 -0.12364 0
M  V30 6266 N 610.455 -0.639598 -1.44038 0
M  V30 6267 C 611.387 0.0987684 -2.28987 0
M  V30 6268 C 612.4 0.80058 -1.41755 0
M  V30 6269 O 613.589 0.660611 -1.65826 0
M  V30 6270 C 610.689 1.16242 -3.18341 0
M  V30 6271 C 609.862 0.541447 -4.34036 0
M  V30 6272 C 608.921 1.50017 -5.04362 0
M  V30 6273 O 607.947 1.01403 -5.60095 0
M  V30 6274 N 609.149 2.83441 -5.06598 0
M  V30 6275 H 611.914 -0.630305 -2.92997 0
M  V30 6276 H 609.475 -0.481376 -1.54578 0
M  V30 6277 H 611.467 1.80429 -3.62253 0
M  V30 6278 H 610.037 1.79362 -2.56024 0
M  V30 6279 H 609.257 -0.27923 -3.9321 0
M  V30 6280 H 610.545 0.107379 -5.08687 0
M  V30 6281 H 609.943 3.2551 -4.62666 0
M  V30 6282 H 608.5 3.42966 -5.54272 0
M  V30 6283 N 611.933 1.52934 -0.380664 0
M  V30 6284 C 612.881 2.27727 0.47361 0
M  V30 6285 C 613.875 1.31288 1.0705 0
M  V30 6286 O 615.081 1.4886 1.01197 0
M  V30 6287 H 611.456 0.732189 0.171475 0
M  V30 6288 H 613.427 2.97864 -0.178785 0
M  V30 6289 C 612.176 3.0904 1.59341 0
M  V30 6290 H 611.499 3.831 1.14343 0
M  V30 6291 H 612.939 3.64527 2.16555 0
M  V30 6292 C 611.398 2.20813 2.54447 0
M  V30 6293 O 611.928 1.82907 3.57642 0
M  V30 6294 N 610.134 1.85145 2.23986 0
M  V30 6295 H 609.681 2.16169 1.40103 0
M  V30 6296 H 609.639 1.26402 2.87871 0
M  V30 6297 N 613.412 0.11024 1.57214 0
M  V30 6298 C 614.322 -0.857077 2.18383 0
M  V30 6299 C 615.338 -1.29915 1.1575 0
M  V30 6300 O 616.514 -1.36394 1.48184 0
M  V30 6301 C 613.579 -2.09264 2.76423 0
M  V30 6302 C 612.64 -1.70333 3.94063 0
M  V30 6303 C 611.873 -2.87999 4.49324 0
M  V30 6304 O 612.096 -4.0317 4.03497 0
M  V30 6305 O 611.03 -2.6559 5.40135 0
M  V30 6306 H 614.856 -0.366561 3.0148 0
M  V30 6307 H 612.441 -0.114914 1.48957 0
M  V30 6308 H 614.323 -2.81644 3.13456 0
M  V30 6309 H 612.998 -2.57339 1.96363 0
M  V30 6310 H 611.905 -0.950864 3.61814 0
M  V30 6311 H 613.238 -1.27007 4.75531 0
M  V30 6312 N 614.89 -1.56749 -0.16351 0
M  V30 6313 C 615.82 -2.00042 -1.20438 0
M  V30 6314 C 616.801 -0.877256 -1.45733 0
M  V30 6315 O 617.986 -1.1439 -1.56935 0
M  V30 6316 C 615.116 -2.36697 -2.54149 0
M  V30 6317 C 614.07 -3.52046 -2.43408 0
M  V30 6318 C 613.396 -3.74466 -3.81679 0
M  V30 6319 C 614.696 -4.85247 -1.93216 0
M  V30 6320 H 616.39 -2.87244 -0.844477 0
M  V30 6321 H 613.936 -1.38194 -0.40478 0
M  V30 6322 H 615.889 -2.65582 -3.27176 0
M  V30 6323 H 614.613 -1.46414 -2.91943 0
M  V30 6324 H 613.272 -3.23301 -1.72834 0
M  V30 6325 H 612.92 -2.81461 -4.1688 0
M  V30 6326 H 612.62 -4.52084 -3.75359 0
M  V30 6327 H 614.144 -4.0576 -4.5628 0
M  V30 6328 H 615.558 -5.12957 -2.56023 0
M  V30 6329 H 613.955 -5.66556 -1.97825 0
M  V30 6330 H 615.025 -4.7672 -0.88689 0
M  V30 6331 N 616.368 0.432326 -1.51554 0
M  V30 6332 C 617.645 1.19288 -1.55015 0
M  V30 6333 C 618.025 2.08701 -0.317375 0
M  V30 6334 O 617.373 2.17602 0.697243 0
M  V30 6335 C 617.583 1.99037 -2.86679 0
M  V30 6336 C 618.931 2.55907 -3.38817 0
M  V30 6337 O 619.955 2.09243 -2.88263 0
M  V30 6338 O 618.814 3.41029 -4.27038 0
M  V30 6339 H 615.908 0.543369 -0.623441 0
M  V30 6340 H 618.454 0.440988 -1.6387 0
M  V30 6341 H 617.226 1.33397 -3.6786 0
M  V30 6342 H 616.849 2.81281 -2.8101 0
M  V30 6343 N 617.846 1.41785 0.688094 0
M  V30 6344 C 619.076 1.44705 1.47459 0
M  V30 6345 C 619.484 0.052916 1.89126 0
M  V30 6346 O 618.827 -0.939781 1.57841 0
M  V30 6347 C 618.889 2.29935 2.76352 0
M  V30 6348 C 618.553 3.77996 2.56843 0
M  V30 6349 C 619.55 4.69976 2.22304 0
M  V30 6350 C 617.235 4.2212 2.7225 0
M  V30 6351 C 619.229 6.04068 2.03421 0
M  V30 6352 C 616.916 5.56275 2.52985 0
M  V30 6353 C 617.914 6.47065 2.18621 0
M  V30 6354 O 617.602 7.78744 1.9953 0
M  V30 6355 H 617.334 0.494703 0.460701 0
M  V30 6356 H 619.888 1.86802 0.854057 0
M  V30 6357 H 618.118 1.82664 3.40839 0
M  V30 6358 H 619.807 2.24467 3.38186 0
M  V30 6359 H 620.573 4.37175 2.10008 0
M  V30 6360 H 616.452 3.51752 2.97979 0
M  V30 6361 H 619.996 6.74897 1.76523 0
M  V30 6362 H 615.893 5.88653 2.64873 0
M  V30 6363 H 616.661 7.89966 2.14234 0
M  V30 6364 N 619.324 -0.923095 1.27737 0
M  V30 6365 C 620.735 -1.48626 1.12993 0
M  V30 6366 C 621.086 -1.94142 -0.283439 0
M  V30 6367 O 620.211 -1.81605 -1.17681 0
M  V30 6368 C 620.806 -2.70117 2.04505 0
M  V30 6369 C 619.365 -3.22642 1.93853 0
M  V30 6370 C 618.512 -1.95368 1.96791 0
M  V30 6371 H 621.463 -0.736737 1.40563 0
M  V30 6372 H 621.484 -3.4506 1.60356 0
M  V30 6373 H 620.996 -2.36959 3.07363 0
M  V30 6374 H 619.097 -3.60549 0.939968 0
M  V30 6375 H 619.21 -3.88525 2.80331 0
M  V30 6376 H 617.574 -2.12061 1.41076 0
M  V30 6377 H 618.357 -1.64517 3.01312 0
M  V30 6378 N 620.802 -1.09834 -1.13024 0
M  V30 6379 C 622.048 -0.83819 -1.84668 0
M  V30 6380 C 622.381 0.634645 -1.83537 0
M  V30 6381 O 621.656 1.46753 -1.27647 0
M  V30 6382 C 621.939 -1.37933 -3.32636 0
M  V30 6383 C 621.792 -2.91857 -3.42257 0
M  V30 6384 C 623.111 -1.01654 -4.28199 0
M  V30 6385 H 620.23 -0.30595 -0.670495 0
M  V30 6386 H 622.872 -1.36044 -1.32635 0
M  V30 6387 H 621.022 -0.935111 -3.77078 0
M  V30 6388 H 622.694 -3.44759 -3.06495 0
M  V30 6389 H 620.937 -3.28776 -2.83 0
M  V30 6390 H 621.608 -3.24799 -4.46329 0
M  V30 6391 H 624.084 -1.39973 -3.9185 0
M  V30 6392 H 622.96 -1.42217 -5.30156 0
M  V30 6393 H 623.221 0.0747794 -4.42037 0
M  V30 6394 N 622.28 1.30327 -0.886154 0
M  V30 6395 C 623.505 2.0079 -0.519425 0
M  V30 6396 C 623.93 1.65979 0.885013 0
M  V30 6397 O 623.288 0.877043 1.58675 0
M  V30 6398 C 623.336 3.53686 -0.702758 0
M  V30 6399 O 622.44 4.11637 0.250828 0
M  V30 6400 H 621.781 0.63171 -0.204544 0
M  V30 6401 H 624.311 1.66145 -1.19402 0
M  V30 6402 H 624.321 4.03531 -0.602207 0
M  V30 6403 H 622.996 3.78361 -1.72673 0
M  V30 6404 H 621.573 3.72755 0.103873 0
M  V30 6405 N 623.758 0.647228 1.43697 0
M  V30 6406 C 624.69 -0.0866232 2.29036 0
M  V30 6407 C 625.703 -0.793051 1.42178 0
M  V30 6408 O 626.892 -0.651807 1.66174 0
M  V30 6409 C 623.992 -1.14552 3.18953 0
M  V30 6410 C 623.165 -0.518422 4.34317 0
M  V30 6411 C 622.224 -1.4734 5.05151 0
M  V30 6412 O 621.25 -0.984312 5.60625 0
M  V30 6413 N 622.452 -2.8075 5.08094 0
M  V30 6414 H 625.217 0.645834 2.92659 0
M  V30 6415 H 622.778 0.489567 1.54321 0
M  V30 6416 H 624.77 -1.78505 3.63205 0
M  V30 6417 H 623.34 -1.78001 2.56971 0
M  V30 6418 H 622.56 0.300079 3.93056 0
M  V30 6419 H 623.848 -0.080401 5.08736 0
M  V30 6420 H 623.246 -3.23052 4.64386 0
M  V30 6421 H 621.803 -3.40022 5.56083 0
M  V30 6422 N 625.236 -1.5273 0.388769 0
M  V30 6423 C 626.466 -2.05693 -0.193397 0
M  V30 6424 C 626.874 -1.26038 -1.41107 0
M  V30 6425 O 626.217 -0.30001 -1.81234 0
M  V30 6426 C 626.279 -3.53962 -0.628561 0
M  V30 6427 C 625.943 -4.54519 0.475576 0
M  V30 6428 C 626.94 -5.02526 1.33281 0
M  V30 6429 C 624.625 -4.98174 0.642453 0
M  V30 6430 C 626.619 -5.92812 2.34205 0
M  V30 6431 C 624.306 -5.88262 1.65503 0
M  V30 6432 C 625.304 -6.35473 2.50325 0
M  V30 6433 O 624.992 -7.23781 3.49852 0
M  V30 6434 H 624.724 -0.675197 -0.0329395 0
M  V30 6435 H 627.278 -1.97835 0.552326 0
M  V30 6436 H 625.508 -3.59437 -1.42625 0
M  V30 6437 H 627.197 -3.89669 -1.13633 0
M  V30 6438 H 627.963 -4.6953 1.21519 0
M  V30 6439 H 623.842 -4.60999 -0.00805093 0
M  V30 6440 H 627.386 -6.29585 3.00447 0
M  V30 6441 H 623.283 -6.20672 1.77304 0
M  V30 6442 H 624.051 -7.4184 3.45855 0
M  V30 6443 N 626.714 -0.118576 -1.57153 0
M  V30 6444 C 627.991 0.583062 -1.86708 0
M  V30 6445 C 628.371 1.84841 -1.01967 0
M  V30 6446 O 627.719 2.28288 -0.0984673 0
M  V30 6447 C 627.929 0.875912 -3.3783 0
M  V30 6448 C 629.277 1.22916 -4.0642 0
M  V30 6449 O 630.301 0.966188 -3.42846 0
M  V30 6450 O 629.16 1.72269 -5.18638 0
M  V30 6451 H 626.254 0.294185 -0.772906 0
M  V30 6452 H 628.8 -0.153048 -1.69008 0
M  V30 6453 H 627.572 -0.0207776 -3.91294 0
M  V30 6454 H 627.195 1.66719 -3.60958 0
M  V30 6455 N 628.193 1.56834 0.155195 0
M  V30 6456 C 629.141 1.98584 1.21107 0
M  V30 6457 C 630.135 0.876987 1.44932 0
M  V30 6458 O 631.341 1.06215 1.45322 0
M  V30 6459 H 627.716 0.632039 0.407469 0
M  V30 6460 H 629.687 2.86561 0.832195 0
M  V30 6461 C 628.436 2.37555 2.53895 0
M  V30 6462 H 627.759 3.22428 2.3639 0
M  V30 6463 H 629.199 2.70598 3.26424 0
M  V30 6464 C 627.658 1.22507 3.13837 0
M  V30 6465 O 628.188 0.521388 3.98302 0
M  V30 6466 N 626.394 0.991444 2.73164 0
M  V30 6467 H 625.941 1.56544 2.04577 0
M  V30 6468 H 625.899 0.223546 3.13604 0
M  V30 6469 N 629.671 -0.424282 1.51781 0
M  V30 6470 C 630.601 -1.52305 1.7699 0
M  V30 6471 C 631.582 -1.5839 0.620209 0
M  V30 6472 O 632.767 -1.73908 0.864268 0
M  V30 6473 C 629.897 -2.90271 1.90683 0
M  V30 6474 C 628.851 -2.99043 3.06198 0
M  V30 6475 C 628.177 -4.39116 3.05092 0
M  V30 6476 C 629.477 -2.7192 4.45934 0
M  V30 6477 H 631.171 -1.31461 2.68995 0
M  V30 6478 H 628.717 -0.630985 1.29439 0
M  V30 6479 H 630.67 -3.6711 2.06901 0
M  V30 6480 H 629.394 -3.12376 0.953365 0
M  V30 6481 H 628.053 -2.24646 2.89706 0
M  V30 6482 H 627.701 -4.58207 2.07498 0
M  V30 6483 H 627.401 -4.45912 3.82669 0
M  V30 6484 H 628.925 -5.17911 3.2342 0
M  V30 6485 H 630.339 -3.38487 4.62709 0
M  V30 6486 H 628.736 -2.90111 5.25315 0
M  V30 6487 H 629.806 -1.67445 4.55072 0
M  V30 6488 N 631.149 -1.42148 -0.680565 0
M  V30 6489 C 632.565 -1.24947 -0.992995 0
M  V30 6490 C 632.765 -0.149527 -2.00944 0
M  V30 6491 O 631.821 0.481145 -2.47873 0
M  V30 6492 C 633.134 -2.60426 -1.5033 0
M  V30 6493 C 634.682 -2.67733 -1.62137 0
M  V30 6494 C 635.157 -4.03564 -2.16565 0
M  V30 6495 N 636.648 -4.05488 -2.23905 0
M  V30 6496 C 637.383 -5.07401 -2.67081 0
M  V30 6497 N 636.879 -6.19698 -3.09751 0
M  V30 6498 N 638.672 -4.94758 -2.66778 0
M  V30 6499 H 630.823 -2.12399 -0.0074788 0
M  V30 6500 H 633.086 -0.94571 -0.0658529 0
M  V30 6501 H 632.792 -3.41743 -0.830947 0
M  V30 6502 H 632.666 -2.83949 -2.483 0
M  V30 6503 H 635.053 -1.86765 -2.2848 0
M  V30 6504 H 635.134 -2.48004 -0.626713 0
M  V30 6505 H 634.778 -4.84987 -1.50833 0
M  V30 6506 H 634.708 -4.20641 -3.1681 0
M  V30 6507 H 637.199 -3.24415 -1.93812 0
M  V30 6508 H 637.512 -6.93318 -3.41365 0
M  V30 6509 H 635.857 -6.23212 -3.07623 0
M  V30 6510 H 639.048 -4.06105 -2.32801 0
M  V30 6511 H 639.221 -5.74317 -3.00107 0
M  V30 6512 N 632.627 0.916307 -1.28225 0
M  V30 6513 C 633.575 2.03977 -1.11786 0
M  V30 6514 C 634.569 1.69358 -0.0378265 0
M  V30 6515 O 635.775 1.78925 -0.196405 0
M  V30 6516 H 632.15 0.66829 -0.344809 0
M  V30 6517 H 634.121 2.14985 -2.06939 0
M  V30 6518 C 632.87 3.38518 -0.7938 0
M  V30 6519 H 632.193 3.65649 -1.61682 0
M  V30 6520 H 633.633 4.17864 -0.718719 0
M  V30 6521 C 632.092 3.33134 0.502353 0
M  V30 6522 O 632.622 3.71281 1.53341 0
M  V30 6523 N 630.828 2.86229 0.502147 0
M  V30 6524 H 630.375 2.55382 -0.337338 0
M  V30 6525 H 630.333 2.83009 1.36942 0
M  V30 6526 N 634.105 1.10431 1.1244 0
M  V30 6527 C 635.353 0.845045 1.83585 0
M  V30 6528 C 635.674 -0.631168 1.84503 0
M  V30 6529 O 634.944 -1.45825 1.30813 0
M  V30 6530 H 633.524 0.309628 0.679809 0
M  V30 6531 H 636.186 1.39458 1.36153 0
M  V30 6532 H 635.282 1.20786 2.8778 0
M  V30 6533 N 635.583 -1.29855 0.893053 0
M  V30 6534 C 636.516 -2.26079 0.3104 0
M  V30 6535 C 637.494 -1.52145 -0.573644 0
M  V30 6536 O 638.678 -1.8113 -0.521937 0
M  V30 6537 C 635.805 -3.34069 -0.558179 0
M  V30 6538 C 634.851 -4.25721 0.257638 0
M  V30 6539 S 635.684 -5.09409 1.65114 0
M  V30 6540 C 636.84 -6.20903 0.789307 0
M  V30 6541 H 637.073 -2.75151 1.12602 0
M  V30 6542 H 634.606 -1.37975 0.692978 0
M  V30 6543 H 636.564 -3.9675 -1.05355 0
M  V30 6544 H 635.225 -2.83705 -1.34797 0
M  V30 6545 H 634.418 -5.02366 -0.405562 0
M  V30 6546 H 634.02 -3.67656 0.685917 0
M  V30 6547 H 636.312 -6.77499 0.00978451 0
M  V30 6548 H 637.255 -6.91426 1.52762 0
M  V30 6549 H 637.663 -5.63435 0.346634 0
M  V30 6550 N 637.061 -0.65484 -1.43351 0
M  V30 6551 C 637.993 0.0744757 -2.29079 0
M  V30 6552 C 639.006 0.7855 -1.42596 0
M  V30 6553 O 640.195 0.642986 -1.66517 0
M  V30 6554 C 637.295 1.12859 -3.19556 0
M  V30 6555 C 636.468 0.495381 -4.34586 0
M  V30 6556 C 635.527 1.44659 -5.05925 0
M  V30 6557 O 634.553 0.954567 -5.61139 0
M  V30 6558 N 635.755 2.78051 -5.09576 0
M  V30 6559 H 638.52 -0.661346 -2.92312 0
M  V30 6560 H 636.081 -0.497744 -1.54059 0
M  V30 6561 H 638.073 1.76577 -3.64147 0
M  V30 6562 H 636.643 1.76636 -2.57912 0
M  V30 6563 H 635.863 -0.32092 -3.92892 0
M  V30 6564 H 637.151 0.0534203 -5.08772 0
M  V30 6565 H 636.549 3.20584 -4.66093 0
M  V30 6566 H 635.106 3.37068 -5.57878 0
M  V30 6567 N 638.539 1.52521 -0.396863 0
M  V30 6568 C 639.767 2.06091 0.18275 0
M  V30 6569 C 640.182 1.26796 1.39886 0
M  V30 6570 O 639.539 0.316585 1.79733 0
M  V30 6571 C 639.59 3.57362 0.545377 0
M  V30 6572 O 639.311 4.33656 -0.622428 0
M  V30 6573 C 640.812 4.27305 1.18004 0
M  V30 6574 H 638.032 0.670504 0.025789 0
M  V30 6575 H 640.576 1.96561 -0.564276 0
M  V30 6576 H 638.731 3.66941 1.2423 0
M  V30 6577 H 639.145 5.23507 -0.322662 0
M  V30 6578 H 640.619 5.34366 1.38408 0
M  V30 6579 H 641.096 3.83 2.1496 0
M  V30 6580 H 641.702 4.22064 0.523671 0
M  V30 6581 O 640.056 0.267423 1.59271 0
M  V30 6582 H 640.747 -0.304099 1.91298 0
M  V30 END ATOM
M  V30 BEGIN BOND
M  V30 END BOND
M  V30 END CTAB
M  END
$$$$
