drugbank_target|Q9S400 3-phosphoshikimate 1-carboxyvinyltransferase (DB04328; DB04539)
 OpenBabel12092119593D

  0  0  0     0  0            999 V3000
M  V30 BEGIN CTAB
M  V30 COUNTS 6533 6573 0 0 0
M  V30 BEGIN ATOM
M  V30 1 H -0.908 1.98254 -0.117106 0
M  V30 2 N 0 1.576 0 0
M  V30 3 C 0.933 2.03868 1.02534 0
M  V30 4 C 1.911 0.928543 1.3348 0
M  V30 5 O 3.095 1.19667 1.45644 0
M  V30 6 C 0.222 2.43627 2.35294 0
M  V30 7 C -0.732 3.65373 2.2001 0
M  V30 8 S 0.101 5.13292 1.52614 0
M  V30 9 C 1.257 5.56322 2.86805 0
M  V30 10 H 1.49 2.90518 0.631377 0
M  V30 11 H -0.977 1.52953 0.210867 0
M  V30 12 H 0.981 2.67203 3.11629 0
M  V30 13 H -0.358 1.57376 2.7183 0
M  V30 14 H -1.165 3.90944 3.18086 0
M  V30 15 H -1.563 3.418 1.51819 0
M  V30 16 H 0.729 5.58782 3.83104 0
M  V30 17 H 1.672 6.56266 2.65933 0
M  V30 18 H 2.08 4.83886 2.90714 0
M  V30 19 N 1.4781 -0.272755 1.55222 0
M  V30 20 C 2.4251 -1.33716 1.88119 0
M  V30 21 C 3.3951 -1.49066 0.73271 0
M  V30 22 O 4.5801 -1.63469 0.984002 0
M  V30 23 C 1.7201 -2.69238 2.15882 0
M  V30 24 C 0.8331 -2.62108 3.43399 0
M  V30 25 C -0.0319 -3.89811 3.60861 0
M  V30 26 C -0.9929 -3.77193 4.8207 0
M  V30 27 N -1.8559 -4.9673 4.96189 0
M  V30 28 H 2.9841 -1.04962 2.78903 0
M  V30 29 H 0.5211 -0.507088 1.38083 0
M  V30 30 H 2.4791 -3.48089 2.29978 0
M  V30 31 H 1.1091 -2.96194 1.28331 0
M  V30 32 H 0.1611 -1.74967 3.37773 0
M  V30 33 H 1.4731 -2.48685 4.32386 0
M  V30 34 H 0.6271 -4.77103 3.74777 0
M  V30 35 H -0.6339 -4.06102 2.7006 0
M  V30 36 H -1.6289 -2.88284 4.68159 0
M  V30 37 H -0.4039 -3.62421 5.74307 0
M  V30 38 H -2.4579 -5.13431 4.08319 0
M  V30 39 H -2.5409 -4.85839 5.79221 0
M  V30 40 H -1.2729 -5.85594 5.1449 0
M  V30 41 N 2.9562 -1.48159 -0.537278 0
M  V30 42 C 3.8862 -1.65029 -1.6519 0
M  V30 43 C 4.8672 -0.499281 -1.62607 0
M  V30 44 O 6.0522 -0.730972 -1.79918 0
M  V30 45 C 3.1822 -1.68303 -3.03795 0
M  V30 46 C 2.1362 -2.8283 -3.21234 0
M  V30 47 C 1.4622 -2.71189 -4.60826 0
M  V30 48 C 2.7622 -4.24211 -3.04701 0
M  V30 49 H 4.4562 -2.58341 -1.51328 0
M  V30 50 H 2.0022 -1.24325 -0.726585 0
M  V30 51 H 3.9552 -1.78693 -3.81637 0
M  V30 52 H 2.6792 -0.715635 -3.18663 0
M  V30 53 H 1.3382 -2.71983 -2.45807 0
M  V30 54 H 0.9862 -1.72435 -4.7252 0
M  V30 55 H 0.6862 -3.48035 -4.7344 0
M  V30 56 H 2.2102 -2.83537 -5.40777 0
M  V30 57 H 3.6242 -4.3593 -3.72341 0
M  V30 58 H 2.0212 -5.01998 -3.28813 0
M  V30 59 H 3.0912 -4.41184 -2.01209 0
M  V30 60 N 4.4343 0.785586 -1.36625 0
M  V30 61 C 5.3813 1.89838 -1.31264 0
M  V30 62 C 6.3513 1.65115 -0.180633 0
M  V30 63 O 7.5363 1.87222 -0.36777 0
M  V30 64 C 4.6763 3.26706 -1.11163 0
M  V30 65 C 3.7893 3.63476 -2.33472 0
M  V30 66 C 2.9243 4.89481 -2.06353 0
M  V30 67 C 1.9633 5.18941 -3.24602 0
M  V30 68 N 1.1003 6.36131 -2.97123 0
M  V30 69 H 5.9403 1.93756 -2.26413 0
M  V30 70 H 3.4773 0.947454 -1.12524 0
M  V30 71 H 5.4353 4.05639 -0.975337 0
M  V30 72 H 4.0653 3.222 -0.196674 0
M  V30 73 H 3.1173 2.79636 -2.57891 0
M  V30 74 H 4.4293 3.81193 -3.21704 0
M  V30 75 H 3.5833 5.76288 -1.89675 0
M  V30 76 H 2.3223 4.73841 -1.15437 0
M  V30 77 H 1.3273 4.30615 -3.41834 0
M  V30 78 H 2.5523 5.36498 -4.16349 0
M  V30 79 H 0.4983 6.21875 -2.08823 0
M  V30 80 H 0.4153 6.54198 -3.78894 0
M  V30 81 H 1.6833 7.2591 -2.84033 0
M  V30 82 N 5.9124 1.20967 1.01018 0
M  V30 83 C 7.1404 1.04956 1.78303 0
M  V30 84 C 7.5554 -0.400915 1.84494 0
M  V30 85 O 6.9124 -1.27826 1.30257 0
M  V30 86 C 6.9634 1.63403 3.22462 0
M  V30 87 O 6.6844 3.02775 3.16637 0
M  V30 88 C 8.1854 1.52432 4.16268 0
M  V30 89 H 5.4054 0.368858 0.560522 0
M  V30 90 H 7.9494 1.60193 1.27116 0
M  V30 91 H 6.1044 1.1227 3.70775 0
M  V30 92 H 6.5184 3.30626 4.07169 0
M  V30 93 H 7.9924 1.98078 5.15237 0
M  V30 94 H 8.4694 0.477875 4.36592 0
M  V30 95 H 9.0754 2.02787 3.73841 0
M  V30 96 N 7.3905 -1.2043 1.01659 0
M  V30 97 C 8.3385 -2.25249 0.580143 0
M  V30 98 C 9.3325 -1.65057 -0.381115 0
M  V30 99 O 10.5385 -1.78241 -0.251039 0
M  V30 100 H 6.9135 -0.732695 0.169299 0
M  V30 101 H 8.8845 -2.59389 1.47512 0
M  V30 102 C 7.6335 -3.47638 -0.065788 0
M  V30 103 H 6.9565 -3.94233 0.664874 0
M  V30 104 H 8.3965 -4.2268 -0.334282 0
M  V30 105 C 6.8555 -3.10447 -1.3086 0
M  V30 106 O 7.3855 -3.21981 -2.4019 0
M  V30 107 N 5.5915 -2.64996 -1.1927 0
M  V30 108 H 5.1385 -2.55811 -0.303064 0
M  V30 109 H 5.0965 -2.40482 -2.02523 0
M  V30 110 N 8.8686 -0.792821 -1.36206 0
M  V30 111 C 10.1176 -0.363353 -1.984 0
M  V30 112 C 10.4306 1.07172 -1.63626 0
M  V30 113 O 11.6366 1.60362 -2.19081 0
M  V30 114 C 10.0926 -0.59872 -3.54885 0
M  V30 115 C 9.7006 -2.04543 -3.9858 0
M  V30 116 C 11.4446 -0.233926 -4.23855 0
M  V30 117 C 9.3516 -2.22727 -5.47856 0
M  V30 118 H 8.2816 -0.13212 -0.742334 0
M  V30 119 H 10.9326 -0.974935 -1.55458 0
M  V30 120 H 9.3146 0.0826222 -3.95914 0
M  V30 121 H 10.4886 -2.76345 -3.68741 0
M  V30 122 H 8.8036 -2.36879 -3.42458 0
M  V30 123 H 11.4006 -0.348027 -5.33566 0
M  V30 124 H 11.7436 0.818351 -4.08177 0
M  V30 125 H 12.2766 -0.868639 -3.882 0
M  V30 126 H 9.0156 -3.2635 -5.68486 0
M  V30 127 H 8.5356 -1.55434 -5.7931 0
M  V30 128 H 10.2146 -2.03607 -6.14128 0
M  V30 129 N 10.3467 1.47872 -0.545128 0
M  V30 130 C 11.7627 1.5829 -0.204032 0
M  V30 131 C 11.9627 1.54529 1.29317 0
M  V30 132 O 11.0187 1.44232 2.07252 0
M  V30 133 C 12.3317 2.89304 -0.819987 0
M  V30 134 C 13.8797 3.02864 -0.790105 0
M  V30 135 C 14.3547 4.3656 -1.38491 0
M  V30 136 N 15.8457 4.43165 -1.34755 0
M  V30 137 C 16.5807 5.45153 -1.77753 0
M  V30 138 N 16.0767 6.54016 -2.2855 0
M  V30 139 N 17.8697 5.36125 -1.68897 0
M  V30 140 H 10.0207 1.4856 -1.51802 0
M  V30 141 H 12.2837 0.706305 -0.632327 0
M  V30 142 H 11.9897 2.97757 -1.87173 0
M  V30 143 H 11.8637 3.75957 -0.305915 0
M  V30 144 H 14.2507 2.94014 0.252913 0
M  V30 145 H 14.3317 2.17782 -1.34181 0
M  V30 146 H 13.9757 4.46164 -2.42693 0
M  V30 147 H 13.9057 5.20353 -0.808754 0
M  V30 148 H 16.3967 3.65083 -0.975855 0
M  V30 149 H 16.7097 7.27994 -2.59314 0
M  V30 150 H 15.0547 6.54938 -2.32553 0
M  V30 151 H 18.2457 4.49975 -1.28998 0
M  V30 152 H 18.4187 6.15472 -2.02726 0
M  V30 153 N 11.8248 0.280983 1.55075 0
M  V30 154 C 12.7748 -0.618585 2.19448 0
M  V30 155 C 13.7588 -1.11401 1.16098 0
M  V30 156 O 14.9508 -1.0581 1.41891 0
M  V30 157 C 12.0798 -1.79951 2.92357 0
M  V30 158 C 11.1658 -1.321 4.03002 0
M  V30 159 N 11.5568 -0.559044 5.02701 0
M  V30 160 C 9.8548 -1.60346 4.16179 0
M  V30 161 C 10.5558 -0.306722 5.80891 0
M  V30 162 N 9.5318 -0.880825 5.36416 0
M  V30 163 H 13.3338 -0.0286638 2.93886 0
M  V30 164 H 10.8478 0.0848104 1.62178 0
M  V30 165 H 12.8448 -2.45531 3.36927 0
M  V30 166 H 11.5048 -2.39333 2.19431 0
M  V30 167 H 12.5158 -0.205827 5.17491 0
M  V30 168 H 9.1928 -2.20621 3.54447 0
M  V30 169 H 10.5828 0.30391 6.71212 0
M  V30 170 N 13.3029 -1.57598 0.00835791 0
M  V30 171 C 14.2329 -2.1198 -0.979113 0
M  V30 172 C 15.2139 -1.03091 -1.35301 0
M  V30 173 O 16.3989 -1.30818 -1.43528 0
M  V30 174 C 13.5289 -2.62995 -2.26828 0
M  V30 175 C 12.4829 -3.76485 -2.03576 0
M  V30 176 C 11.8089 -4.13846 -3.38579 0
M  V30 177 C 13.1089 -5.0342 -1.39161 0
M  V30 178 H 14.8029 -2.94738 -0.526281 0
M  V30 179 H 12.3489 -1.41783 -0.251704 0
M  V30 180 H 14.3019 -2.99669 -2.96271 0
M  V30 181 H 13.0259 -1.7737 -2.7424 0
M  V30 182 H 11.6849 -3.40217 -1.36557 0
M  V30 183 H 11.3329 -3.25232 -3.83709 0
M  V30 184 H 11.0329 -4.90312 -3.23834 0
M  V30 185 H 12.5569 -4.53086 -4.09323 0
M  V30 186 H 13.9709 -5.37812 -1.98573 0
M  V30 187 H 12.3679 -5.84746 -1.34878 0
M  V30 188 H 13.4379 -4.83548 -0.361868 0
M  V30 189 N 14.781 0.264519 -1.55364 0
M  V30 190 C 15.731 1.32966 -1.85214 0
M  V30 191 C 16.715 1.44306 -0.711653 0
M  V30 192 O 17.907 1.47844 -0.973192 0
M  V30 193 C 15.036 2.68839 -2.13495 0
M  V30 194 C 14.122 2.61575 -3.33825 0
M  V30 195 N 14.513 2.23933 -4.53528 0
M  V30 196 C 12.811 2.92621 -3.36584 0
M  V30 197 C 13.512 2.26868 -5.35636 0
M  V30 198 N 12.488 2.65677 -4.74254 0
M  V30 199 H 16.29 1.02884 -2.75304 0
M  V30 200 H 13.804 0.473157 -1.55354 0
M  V30 201 H 15.801 3.45685 -2.33039 0
M  V30 202 H 14.461 2.99802 -1.24694 0
M  V30 203 H 15.472 1.95769 -4.79474 0
M  V30 204 H 12.149 3.2824 -2.58002 0
M  V30 205 H 13.539 2.00254 -6.41364 0
M  V30 206 N 16.2591 1.48442 0.529413 0
M  V30 207 C 17.5071 1.56179 1.28267 0
M  V30 208 C 17.8281 0.237721 1.93546 0
M  V30 209 O 17.0981 -0.740779 1.81354 0
M  V30 210 H 15.6781 0.575367 0.476405 0
M  V30 211 H 18.3401 1.84909 0.61602 0
M  V30 212 H 17.4361 2.34312 2.06165 0
M  V30 213 N 17.7372 -0.778329 1.37039 0
M  V30 214 C 18.9622 -1.57248 1.35233 0
M  V30 215 C 19.3872 -1.87999 -0.0615568 0
M  V30 216 O 18.7452 -1.48734 -1.03672 0
M  V30 217 C 18.7932 -2.86353 2.19167 0
M  V30 218 O 17.8972 -3.80442 1.59178 0
M  V30 219 H 17.2382 -0.476569 0.462362 0
M  V30 220 H 19.7682 -0.963853 1.80474 0
M  V30 221 H 19.7782 -3.35519 2.32145 0
M  V30 222 H 18.4532 -2.63299 3.21942 0
M  V30 223 H 17.0302 -3.39067 1.55203 0
M  V30 224 N 19.2153 -1.21501 -1.00376 0
M  V30 225 C 20.4643 -1.02718 -1.73586 0
M  V30 226 C 20.7773 0.439589 -1.90596 0
M  V30 227 O 21.9833 0.746848 -2.61026 0
M  V30 228 C 20.4393 -1.78929 -3.1227 0
M  V30 229 C 20.0473 -3.29783 -3.03228 0
M  V30 230 C 21.7913 -1.68557 -3.89601 0
M  V30 231 C 19.6983 -3.98479 -4.36999 0
M  V30 232 H 18.6283 -0.380733 -0.650814 0
M  V30 233 H 21.2793 -1.45248 -1.1214 0
M  V30 234 H 19.6613 -1.29192 -3.74333 0
M  V30 235 H 20.8353 -3.86832 -2.50395 0
M  V30 236 H 19.1503 -3.40711 -2.39385 0
M  V30 237 H 21.7473 -2.17211 -4.88593 0
M  V30 238 H 22.0903 -0.644021 -4.11288 0
M  V30 239 H 22.6233 -2.15778 -3.34193 0
M  V30 240 H 19.3623 -5.02841 -4.20513 0
M  V30 241 H 18.8823 -3.46219 -4.89788 0
M  V30 242 H 20.5613 -4.03462 -5.05794 0
M  V30 243 N 20.6934 1.19889 -1.02296 0
M  V30 244 C 22.1094 1.41462 -0.738954 0
M  V30 245 C 22.3094 1.89721 0.678846 0
M  V30 246 O 21.3654 2.07016 1.4457 0
M  V30 247 C 22.6784 2.43083 -1.77005 0
M  V30 248 C 24.2264 2.5684 -1.78892 0
M  V30 249 C 24.7014 3.61709 -2.80945 0
M  V30 250 N 26.1924 3.69199 -2.79725 0
M  V30 251 C 26.9274 4.50019 -3.55345 0
M  V30 252 N 26.4234 5.34592 -4.40662 0
M  V30 253 N 28.2164 4.44612 -3.43914 0
M  V30 254 H 20.3674 0.868827 -1.93817 0
M  V30 255 H 22.6304 0.44399 -0.837602 0
M  V30 256 H 22.3364 2.14636 -2.78612 0
M  V30 257 H 22.2104 3.4217 -1.58744 0
M  V30 258 H 24.5974 2.84614 -0.779674 0
M  V30 259 H 24.6784 1.57927 -2.01228 0
M  V30 260 H 24.3224 3.34678 -3.82038 0
M  V30 261 H 24.2524 4.60259 -2.5587 0
M  V30 262 H 26.7434 3.08794 -2.17842 0
M  V30 263 H 27.0564 5.93363 -4.95116 0
M  V30 264 H 25.4014 5.34073 -4.44737 0
M  V30 265 H 28.5924 3.7758 -2.76679 0
M  V30 266 H 28.7654 5.0736 -4.031 0
M  V30 267 N 22.1715 0.800033 1.35784 0
M  V30 268 C 23.4175 0.377901 1.99248 0
M  V30 269 C 23.7505 -1.05052 1.63333 0
M  V30 270 O 23.0255 -1.72768 0.893385 0
M  V30 271 C 23.3085 0.553922 3.55814 0
M  V30 272 C 23.1615 2.0268 4.01548 0
M  V30 273 C 24.4805 -0.0244802 4.40093 0
M  V30 274 H 21.5995 0.138782 0.723815 0
M  V30 275 H 24.2415 1.00835 1.61035 0
M  V30 276 H 22.3915 0.0172398 3.88496 0
M  V30 277 H 24.0635 2.62536 3.79305 0
M  V30 278 H 22.3065 2.5256 3.52698 0
M  V30 279 H 22.9775 2.10087 5.10458 0
M  V30 280 H 25.4535 0.433775 4.13833 0
M  V30 281 H 24.3295 0.128637 5.48749 0
M  V30 282 H 24.5905 -1.11758 4.27741 0
M  V30 283 N 23.6496 -1.47581 0.552962 0
M  V30 284 C 25.0606 -1.86324 0.118463 0
M  V30 285 C 25.4116 -1.46006 -1.3106 0
M  V30 286 O 24.5366 -0.861182 -1.98526 0
M  V30 287 C 25.1316 -3.3816 0.20821 0
M  V30 288 C 23.6906 -3.7601 -0.171226 0
M  V30 289 C 22.8376 -2.71634 0.557686 0
M  V30 290 H 25.7886 -1.39159 0.762928 0
M  V30 291 H 25.8096 -3.76141 -0.574278 0
M  V30 292 H 25.3216 -3.67473 1.24841 0
M  V30 293 H 23.4226 -3.52313 -1.21269 0
M  V30 294 H 23.5356 -4.78745 0.184379 0
M  V30 295 H 21.8996 -2.547 0.00125792 0
M  V30 296 H 22.6826 -3.0379 1.59896 0
M  V30 297 N 25.1277 -0.289203 -1.54924 0
M  V30 298 C 26.3757 0.322879 -1.99504 0
M  V30 299 C 26.6967 1.55313 -1.1791 0
M  V30 300 O 25.9667 1.94001 -0.272097 0
M  V30 301 H 24.5467 0.122291 -0.736922 0
M  V30 302 H 27.2087 -0.397802 -1.90797 0
M  V30 303 H 26.3047 0.603061 -3.06218 0
M  V30 304 N 26.6058 1.57591 -0.0167156 0
M  V30 305 C 27.8828 1.82547 0.702564 0
M  V30 306 C 28.2628 0.898018 1.91047 0
M  V30 307 O 27.6108 -0.0493456 2.28447 0
M  V30 308 C 27.8208 3.31459 1.09251 0
M  V30 309 C 29.1688 3.97622 1.48937 0
M  V30 310 O 30.1928 3.35881 1.18584 0
M  V30 311 O 29.0518 5.06415 2.05442 0
M  V30 312 H 26.1458 0.752268 0.343544 0
M  V30 313 H 28.6918 1.69644 -0.0434495 0
M  V30 314 H 27.4638 3.9061 0.23227 0
M  V30 315 H 27.0868 3.49422 1.89709 0
M  V30 316 N 28.0839 -0.256276 1.55502 0
M  V30 317 C 29.0309 -1.31714 1.89526 0
M  V30 318 C 30.0009 -1.4828 0.748479 0
M  V30 319 O 31.1859 -1.62416 1.00128 0
M  V30 320 C 28.3259 -2.66933 2.18725 0
M  V30 321 C 27.4389 -2.58452 3.4616 0
M  V30 322 C 26.5739 -3.85961 3.64976 0
M  V30 323 C 25.6129 -3.72059 4.86044 0
M  V30 324 N 24.7499 -4.9144 5.01429 0
M  V30 325 H 29.5899 -1.01998 2.80001 0
M  V30 326 H 27.1269 -0.492413 1.38613 0
M  V30 327 H 29.0849 -3.4563 2.33657 0
M  V30 328 H 27.7149 -2.94816 1.31466 0
M  V30 329 H 26.7669 -1.71374 3.3961 0
M  V30 330 H 28.0789 -2.44085 4.34999 0
M  V30 331 H 27.2329 -4.73101 3.79816 0
M  V30 332 H 25.9719 -4.03215 2.74353 0
M  V30 333 H 24.9769 -2.83302 4.7119 0
M  V30 334 H 26.2019 -3.56309 5.78118 0
M  V30 335 H 24.1479 -5.09072 4.13741 0
M  V30 336 H 24.0649 -4.79668 5.84341 0
M  V30 337 H 25.3329 -5.80104 5.20672 0
M  V30 338 N 29.562 -1.4872 -0.521534 0
M  V30 339 C 30.787 -1.61101 -1.30618 0
M  V30 340 C 31.212 -0.274611 -1.86085 0
M  V30 341 O 30.57 0.754937 -1.64834 0
M  V30 342 C 30.618 -2.66709 -2.4269 0
M  V30 343 O 29.722 -2.24456 -3.45967 0
M  V30 344 H 29.063 -0.539921 -0.386499 0
M  V30 345 H 31.593 -1.94767 -0.626645 0
M  V30 346 H 31.603 -2.88245 -2.88754 0
M  V30 347 H 30.278 -3.63727 -2.01682 0
M  V30 348 H 28.855 -2.13168 -3.05964 0
M  V30 349 N 31.0401 0.771051 -1.3745 0
M  V30 350 C 32.2891 1.52491 -1.3202 0
M  V30 351 C 32.6021 1.9538 0.0927347 0
M  V30 352 O 33.8081 2.70159 0.269503 0
M  V30 353 C 32.2641 2.75366 -2.31736 0
M  V30 354 C 31.8721 2.39573 -3.78562 0
M  V30 355 C 33.6161 3.53307 -2.35318 0
M  V30 356 C 31.5231 3.58954 -4.70007 0
M  V30 357 H 30.4531 0.572506 -0.490666 0
M  V30 358 H 33.1041 0.844474 -1.62914 0
M  V30 359 H 31.4861 3.45303 -1.93861 0
M  V30 360 H 32.6601 1.77415 -4.25277 0
M  V30 361 H 30.9751 1.74805 -3.77932 0
M  V30 362 H 33.5721 4.42039 -3.00842 0
M  V30 363 H 33.9151 3.93217 -1.36698 0
M  V30 364 H 34.4481 2.90367 -2.71904 0
M  V30 365 H 31.1871 3.24125 -5.69757 0
M  V30 366 H 30.7071 4.20214 -4.27996 0
M  V30 367 H 32.3861 4.25758 -4.87175 0
M  V30 368 N 32.5182 1.22032 0.997298 0
M  V30 369 C 33.7432 1.06921 1.77715 0
M  V30 370 C 34.1682 -0.376226 1.84299 0
M  V30 371 O 33.5262 -1.27165 1.29223 0
M  V30 372 C 33.5742 1.67996 3.19076 0
M  V30 373 O 32.6782 0.930653 4.01762 0
M  V30 374 H 32.0192 0.375814 0.547412 0
M  V30 375 H 34.5492 1.61737 1.25309 0
M  V30 376 H 34.5592 1.72538 3.69723 0
M  V30 377 H 33.2342 2.73182 3.13599 0
M  V30 378 H 31.8112 0.960917 3.60307 0
M  V30 379 N 33.9963 -1.19345 1.0293 0
M  V30 380 C 34.9463 -2.20472 0.58104 0
M  V30 381 C 35.9303 -1.56578 -0.370442 0
M  V30 382 O 37.1223 -1.75963 -0.191344 0
M  V30 383 C 34.2513 -3.43236 -0.066306 0
M  V30 384 C 33.3373 -4.14274 0.907642 0
M  V30 385 N 33.7283 -4.61492 2.07023 0
M  V30 386 C 32.0263 -4.39966 0.731177 0
M  V30 387 C 32.7273 -5.1605 2.68454 0
M  V30 388 N 31.7033 -5.06875 1.96414 0
M  V30 389 H 35.5053 -2.54659 1.46717 0
M  V30 390 H 33.0193 -1.35423 0.896345 0
M  V30 391 H 35.0163 -4.14927 -0.405068 0
M  V30 392 H 33.6763 -3.10549 -0.948118 0
M  V30 393 H 34.6873 -4.56304 2.44963 0
M  V30 394 H 31.3643 -4.17377 -0.101507 0
M  V30 395 H 32.7543 -5.6287 3.66915 0
M  V30 396 N 35.4744 -0.807222 -1.35358 0
M  V30 397 C 36.8904 -0.491038 -1.51858 0
M  V30 398 C 37.0904 0.987648 -1.75635 0
M  V30 399 O 36.1464 1.77265 -1.79815 0
M  V30 400 C 37.4594 -1.33695 -2.69344 0
M  V30 401 C 39.0074 -1.33246 -2.83222 0
M  V30 402 C 39.4824 -2.1625 -4.03733 0
M  V30 403 N 40.9734 -2.1379 -4.10911 0
M  V30 404 C 41.7084 -2.74772 -5.03277 0
M  V30 405 N 41.2044 -3.44684 -6.0097 0
M  V30 406 N 42.9974 -2.6441 -4.96028 0
M  V30 407 H 35.1484 -1.76485 -1.18181 0
M  V30 408 H 37.4114 -0.751199 -0.578276 0
M  V30 409 H 37.1174 -2.38634 -2.58354 0
M  V30 410 H 36.9914 -0.990618 -3.6396 0
M  V30 411 H 39.3784 -0.290911 -2.93663 0
M  V30 412 H 39.4594 -1.71866 -1.89461 0
M  V30 413 H 39.1034 -3.20445 -3.94052 0
M  V30 414 H 39.0334 -1.74989 -4.96675 0
M  V30 415 H 41.5244 -1.62923 -3.40976 0
M  V30 416 H 41.8374 -3.88501 -6.68047 0
M  V30 417 H 40.1824 -3.48788 -6.01142 0
M  V30 418 H 43.3734 -2.0938 -4.18662 0
M  V30 419 H 43.5464 -3.12225 -5.6782 0
M  V30 420 N 36.9525 1.47285 -0.560781 0
M  V30 421 C 38.1775 2.07359 -0.0410566 0
M  V30 422 C 38.6025 1.41017 1.24483 0
M  V30 423 O 37.9605 0.486368 1.74654 0
M  V30 424 C 38.0085 3.6035 0.134123 0
M  V30 425 O 37.1125 3.94681 1.19587 0
M  V30 426 H 36.4535 0.661887 -0.0529291 0
M  V30 427 H 38.9835 1.89252 -0.777482 0
M  V30 428 H 38.9935 4.0652 0.347207 0
M  V30 429 H 37.6685 4.08034 -0.805047 0
M  V30 430 H 36.2455 3.60251 0.962987 0
M  V30 431 N 38.4306 0.297415 1.54768 0
M  V30 432 C 39.6796 -0.313669 1.99246 0
M  V30 433 C 39.9926 -1.55281 1.18942 0
M  V30 434 O 41.1986 -2.23825 1.5367 0
M  V30 435 C 39.6546 -0.609407 3.54703 0
M  V30 436 C 39.2626 0.611192 4.43811 0
M  V30 437 C 41.0066 -1.18188 4.07715 0
M  V30 438 C 38.9136 0.288805 5.90694 0
M  V30 439 H 37.8436 -0.120979 0.744231 0
M  V30 440 H 40.4946 0.40556 1.78962 0
M  V30 441 H 38.8766 -1.38813 3.70873 0
M  V30 442 H 40.0506 1.3875 4.39414 0
M  V30 443 H 38.3656 1.10205 4.01552 0
M  V30 444 H 40.9626 -1.43727 5.15021 0
M  V30 445 H 41.3056 -2.12299 3.58099 0
M  V30 446 H 41.8386 -0.464944 3.95074 0
M  V30 447 H 38.5776 1.19838 6.44453 0
M  V30 448 H 38.0976 -0.450305 5.98107 0
M  V30 449 H 39.7766 -0.110933 6.46905 0
M  V30 450 N 39.9087 -1.5758 0.0250728 0
M  V30 451 C 41.1577 -1.90811 -0.653767 0
M  V30 452 C 41.4707 -0.90273 -1.73523 0
M  V30 453 O 42.6767 -1.12614 -2.47043 0
M  V30 454 C 41.1327 -3.38804 -1.21409 0
M  V30 455 C 40.7407 -4.47692 -0.166126 0
M  V30 456 C 42.4847 -3.81108 -1.86967 0
M  V30 457 C 40.3917 -5.86779 -0.737856 0
M  V30 458 H 39.3217 -0.712063 -0.247956 0
M  V30 459 H 41.9727 -1.83281 0.0897137 0
M  V30 460 H 40.3547 -3.41252 -2.00905 0
M  V30 461 H 41.5287 -4.56797 0.606079 0
M  V30 462 H 39.8437 -4.14565 0.390466 0
M  V30 463 H 42.4407 -4.82375 -2.30692 0
M  V30 464 H 42.7837 -3.15953 -2.71071 0
M  V30 465 H 43.3167 -3.81065 -1.14167 0
M  V30 466 H 40.0557 -6.55468 0.0649577 0
M  V30 467 H 39.5757 -5.81288 -1.47864 0
M  V30 468 H 41.2547 -6.35223 -1.22884 0
M  V30 469 N 41.3868 0.248026 -1.55636 0
M  V30 470 C 42.6338 0.976224 -1.77415 0
M  V30 471 C 42.9618 1.85361 -0.589193 0
M  V30 472 O 42.2168 1.90973 0.427529 0
M  V30 473 C 42.5158 1.86819 -3.04686 0
M  V30 474 C 42.1818 1.14625 -4.36087 0
M  V30 475 C 40.8438 0.946723 -4.71795 0
M  V30 476 C 43.1958 0.634463 -5.17324 0
M  V30 477 C 40.5238 0.223091 -5.86276 0
M  V30 478 C 42.8758 -0.0756959 -6.32555 0
M  V30 479 C 41.5398 -0.286711 -6.66884 0
M  V30 480 H 40.8098 0.357226 -0.649208 0
M  V30 481 H 43.4568 0.246415 -1.89908 0
M  V30 482 H 41.7618 2.66502 -2.872 0
M  V30 483 H 43.4588 2.43329 -3.18735 0
M  V30 484 H 40.0488 1.3117 -4.08035 0
M  V30 485 H 44.2328 0.77616 -4.90193 0
M  V30 486 H 39.4888 0.0491185 -6.1138 0
M  V30 487 H 43.6628 -0.479899 -6.94745 0
M  V30 488 H 41.2898 -0.849389 -7.5544 0
M  V30 489 N 42.8649 1.48995 0.513639 0
M  V30 490 C 44.1129 1.57531 1.26604 0
M  V30 491 C 44.4339 0.258236 1.93283 0
M  V30 492 O 43.7039 -0.721502 1.8213 0
M  V30 493 H 42.2839 0.580387 0.470276 0
M  V30 494 H 44.9459 1.85552 0.596373 0
M  V30 495 H 44.0419 2.36486 2.03669 0
M  V30 496 N 44.343 -0.763751 1.37857 0
M  V30 497 C 45.568 -1.55805 1.36893 0
M  V30 498 C 45.993 -1.88054 -0.0416135 0
M  V30 499 O 45.351 -1.49825 -1.02089 0
M  V30 500 C 45.399 -2.84012 2.22192 0
M  V30 501 O 44.503 -3.78732 1.63204 0
M  V30 502 H 43.844 -0.471638 0.46739 0
M  V30 503 H 46.374 -0.944657 1.81487 0
M  V30 504 H 46.384 -3.33037 2.35691 0
M  V30 505 H 45.059 -2.59869 3.24716 0
M  V30 506 H 43.636 -3.37402 1.58791 0
M  V30 507 N 45.8211 -1.22559 -0.990812 0
M  V30 508 C 46.7511 -1.0218 -2.09956 0
M  V30 509 C 47.7321 0.0579394 -1.70001 0
M  V30 510 O 48.9171 -0.104684 -1.93918 0
M  V30 511 C 46.0471 -0.601023 -3.4206 0
M  V30 512 C 45.0011 -1.62694 -3.95872 0
M  V30 513 C 44.3271 -1.06193 -5.24049 0
M  V30 514 C 45.6271 -3.01743 -4.2632 0
M  V30 515 H 47.3211 -1.94916 -2.27262 0
M  V30 516 H 44.8671 -0.938566 -1.09211 0
M  V30 517 H 46.8201 -0.445561 -4.19038 0
M  V30 518 H 45.5441 0.362005 -3.24588 0
M  V30 519 H 44.2031 -1.77021 -3.21028 0
M  V30 520 H 43.8511 -0.0901903 -5.02919 0
M  V30 521 H 43.5511 -1.74732 -5.61019 0
M  V30 522 H 45.0751 -0.918092 -6.03658 0
M  V30 523 H 46.4891 -2.90777 -4.94087 0
M  V30 524 H 44.8861 -3.67425 -4.74467 0
M  V30 525 H 45.9561 -3.51518 -3.34011 0
M  V30 526 N 47.2992 1.18797 -1.03562 0
M  V30 527 C 48.2622 2.20464 -0.626769 0
M  V30 528 C 49.2622 1.57721 0.313173 0
M  V30 529 O 50.4522 1.73917 0.0992615 0
M  V30 530 C 47.5842 3.40802 0.0818498 0
M  V30 531 H 48.7772 2.58149 -1.5264 0
M  V30 532 H 46.3302 1.32593 -0.827578 0
M  V30 533 H 47.0652 3.08642 0.995518 0
M  V30 534 H 46.8502 3.8758 -0.593652 0
M  V30 535 H 48.3402 4.16092 0.354584 0
M  V30 536 N 48.7773 0.814389 1.34928 0
M  V30 537 C 49.6873 0.231978 2.3345 0
M  V30 538 C 50.7033 -0.629139 1.62228 0
M  V30 539 O 51.8793 -0.539052 1.94052 0
M  V30 540 C 48.9443 -0.603482 3.41407 0
M  V30 541 C 48.0053 0.279037 4.28392 0
M  V30 542 C 47.2383 -0.516643 5.31193 0
M  V30 543 O 47.4613 -1.75068 5.4287 0
M  V30 544 O 46.3953 0.0965652 6.01823 0
M  V30 545 H 50.2213 1.04721 2.85074 0
M  V30 546 H 47.8063 0.576343 1.37836 0
M  V30 547 H 49.6883 -1.07908 4.0735 0
M  V30 548 H 48.3633 -1.39618 2.92042 0
M  V30 549 H 47.2703 0.801948 3.65403 0
M  V30 550 H 48.6033 1.03588 4.81176 0
M  V30 551 N 50.2554 -1.46986 0.568584 0
M  V30 552 C 51.5034 -2.02041 0.0487022 0
M  V30 553 C 51.8244 -1.44408 -1.31039 0
M  V30 554 O 51.0944 -0.623477 -1.85714 0
M  V30 555 H 49.6744 -0.746849 0.015014 0
M  V30 556 H 52.3364 -1.80257 0.741168 0
M  V30 557 H 51.4324 -3.12085 -0.0308961 0
M  V30 558 N 51.7335 -0.305618 -1.54608 0
M  V30 559 C 52.6435 0.57778 -2.27374 0
M  V30 560 C 53.6595 1.14451 -1.31061 0
M  V30 561 O 54.8355 1.16831 -1.6405 0
M  V30 562 C 51.9005 1.73123 -3.00382 0
M  V30 563 C 50.9615 1.19812 -4.12242 0
M  V30 564 C 50.1945 2.2966 -4.81759 0
M  V30 565 O 50.4175 3.49651 -4.50666 0
M  V30 566 O 49.3515 1.96091 -5.69062 0
M  V30 567 H 53.1775 -0.012624 -3.03697 0
M  V30 568 H 50.7625 -0.0719184 -1.49227 0
M  V30 569 H 52.6445 2.40315 -3.4616 0
M  V30 570 H 51.3195 2.30815 -2.26949 0
M  V30 571 H 50.2265 0.491798 -3.70853 0
M  V30 572 H 51.5595 0.666566 -4.87666 0
M  V30 573 N 53.2116 1.57565 -0.0334293 0
M  V30 574 C 54.4396 1.9628 0.654347 0
M  V30 575 C 54.8546 0.910138 1.65414 0
M  V30 576 O 54.2116 -0.107595 1.82183 0
M  V30 577 C 54.2626 3.35067 1.35693 0
M  V30 578 O 53.9836 4.36296 0.397191 0
M  V30 579 C 55.4846 3.88439 2.13613 0
M  V30 580 H 52.7046 0.646369 0.180132 0
M  V30 581 H 55.2486 2.04282 -0.0944721 0
M  V30 582 H 53.4036 3.2827 2.05712 0
M  V30 583 H 53.8176 5.1678 0.896597 0
M  V30 584 H 55.2916 4.8788 2.58219 0
M  V30 585 H 55.7686 3.22914 2.97696 0
M  V30 586 H 56.3746 3.98516 1.48543 0
M  V30 587 N 54.6897 -0.239769 1.55765 0
M  V30 588 C 55.6367 -1.29696 1.90913 0
M  V30 589 C 56.6067 -1.47478 0.764164 0
M  V30 590 O 57.7917 -1.61345 1.01845 0
M  V30 591 C 54.9317 -2.64598 2.21544 0
M  V30 592 C 54.0447 -2.54765 3.48882 0
M  V30 593 C 53.1797 -3.82069 3.69049 0
M  V30 594 C 52.2187 -3.66883 4.89963 0
M  V30 595 N 51.3557 -4.86094 5.06614 0
M  V30 596 H 56.1957 -0.990224 2.81067 0
M  V30 597 H 53.7327 -0.477684 1.39128 0
M  V30 598 H 55.6907 -3.43132 2.3731 0
M  V30 599 H 54.3207 -2.93405 1.34585 0
M  V30 600 H 53.3727 -1.67763 3.41409 0
M  V30 601 H 54.6847 -2.39457 4.37563 0
M  V30 602 H 53.8387 -4.69046 3.84812 0
M  V30 603 H 52.5777 -4.00282 2.78614 0
M  V30 604 H 51.5827 -2.78289 4.74168 0
M  V30 605 H 52.8077 -3.50157 5.81865 0
M  V30 606 H 50.7537 -5.04655 4.19117 0
M  V30 607 H 50.6707 -4.73443 5.89396 0
M  V30 608 H 51.9387 -5.74549 5.26795 0
M  V30 609 N 56.1678 -1.49265 -0.50573 0
M  V30 610 C 57.4138 -1.58748 -1.26202 0
M  V30 611 C 57.7468 -0.271227 -1.92297 0
M  V30 612 O 57.0218 0.724831 -1.80489 0
M  V30 613 C 57.3048 -2.74332 -2.33268 0
M  V30 614 C 57.1578 -4.15737 -1.71705 0
M  V30 615 C 58.4768 -2.85576 -3.34865 0
M  V30 616 H 55.5958 -0.577826 -0.457478 0
M  V30 617 H 58.2378 -1.81532 -0.560897 0
M  V30 618 H 56.3878 -2.55036 -2.93068 0
M  V30 619 H 58.0598 -4.46537 -1.15769 0
M  V30 620 H 56.3028 -4.21605 -1.02135 0
M  V30 621 H 56.9738 -4.92477 -2.49341 0
M  V30 622 H 59.4498 -3.03127 -2.8505 0
M  V30 623 H 58.3258 -3.68135 -4.07146 0
M  V30 624 H 58.5868 -1.94732 -3.96903 0
M  V30 625 N 57.6459 0.756429 -1.3826 0
M  V30 626 C 58.8759 1.54341 -1.3734 0
M  V30 627 C 59.2839 1.89159 0.0393917 0
M  V30 628 O 58.6269 1.5307 1.01565 0
M  V30 629 C 58.6889 2.87238 -2.16182 0
M  V30 630 C 58.3529 2.74973 -3.65019 0
M  V30 631 C 59.3499 2.44962 -4.58574 0
M  V30 632 C 57.0349 2.92515 -4.08338 0
M  V30 633 C 59.0289 2.32642 -5.93428 0
M  V30 634 C 56.7159 2.79815 -5.43274 0
M  V30 635 C 57.7139 2.49921 -6.35632 0
M  V30 636 O 57.4019 2.37275 -7.68086 0
M  V30 637 H 57.1339 0.484281 -0.471643 0
M  V30 638 H 59.6879 0.944152 -1.82414 0
M  V30 639 H 57.9179 3.49342 -1.65822 0
M  V30 640 H 59.6069 3.48731 -2.07705 0
M  V30 641 H 60.3729 2.31081 -4.26412 0
M  V30 642 H 56.2519 3.14781 -3.368 0
M  V30 643 H 59.7959 2.0923 -6.65484 0
M  V30 644 H 55.6929 2.93269 -5.75034 0
M  V30 645 H 56.4609 2.52509 -7.78577 0
M  V30 646 N 59.124 1.23083 0.984299 0
M  V30 647 C 60.401 0.9689 1.69917 0
M  V30 648 C 60.781 -0.513604 2.04757 0
M  V30 649 O 60.129 -1.48383 1.73767 0
M  V30 650 C 60.339 1.87518 2.94343 0
M  V30 651 C 61.687 2.13636 3.6694 0
M  V30 652 O 62.711 1.85036 3.04368 0
M  V30 653 O 61.57 2.62119 4.79537 0
M  V30 654 H 58.664 0.365095 0.742048 0
M  V30 655 H 61.21 1.34107 1.03987 0
M  V30 656 H 59.982 2.87756 2.65164 0
M  V30 657 H 59.605 1.50514 3.6801 0
M  V30 658 N 60.6021 -1.18246 1.0419 0
M  V30 659 C 61.8511 -1.87588 0.741194 0
M  V30 660 C 62.1641 -1.81303 -0.734066 0
M  V30 661 O 63.3701 -2.46019 -1.14834 0
M  V30 662 C 61.8261 -3.36538 1.27555 0
M  V30 663 C 61.4341 -3.51349 2.77953 0
M  V30 664 C 63.1781 -4.11273 1.05143 0
M  V30 665 C 61.0851 -4.94265 3.2474 0
M  V30 666 H 60.0151 -0.702622 0.273565 0
M  V30 667 H 62.6661 -1.33601 1.25789 0
M  V30 668 H 61.0481 -3.9 0.686703 0
M  V30 669 H 62.2221 -3.08153 3.42605 0
M  V30 670 H 60.5371 -2.90022 2.98791 0
M  V30 671 H 63.1341 -5.16689 1.37611 0
M  V30 672 H 63.4771 -4.16298 -0.0112774 0
M  V30 673 H 64.0101 -3.63987 1.60495 0
M  V30 674 H 60.7491 -4.94408 4.30396 0
M  V30 675 H 60.2691 -5.38172 2.64823 0
M  V30 676 H 61.9481 -5.62987 3.18834 0
M  V30 677 N 62.0802 -0.821533 -1.34494 0
M  V30 678 C 63.0102 -0.257138 -2.3208 0
M  V30 679 C 63.9912 0.625645 -1.58176 0
M  V30 680 O 65.1762 0.552811 -1.86166 0
M  V30 681 C 62.3062 0.582958 -3.42372 0
M  V30 682 C 61.2602 -0.202571 -4.2752 0
M  V30 683 C 60.5862 0.760179 -5.29269 0
M  V30 684 C 61.8862 -1.40998 -5.02908 0
M  V30 685 H 63.5802 -1.07247 -2.79532 0
M  V30 686 H 61.1262 -0.517163 -1.34393 0
M  V30 687 H 63.0792 0.987972 -4.09655 0
M  V30 688 H 61.8032 1.43133 -2.93565 0
M  V30 689 H 60.4622 -0.588936 -3.61838 0
M  V30 690 H 60.1102 1.60447 -4.76724 0
M  V30 691 H 59.8102 0.238809 -5.87115 0
M  V30 692 H 61.3342 1.16308 -5.9942 0
M  V30 693 H 62.7482 -1.07905 -5.63054 0
M  V30 694 H 61.1452 -1.86689 -5.70322 0
M  V30 695 H 62.2152 -2.1889 -4.32684 0
M  V30 696 N 63.5583 1.46682 -0.576371 0
M  V30 697 C 64.9743 1.57822 -0.237562 0
M  V30 698 C 65.1743 1.57237 1.26011 0
M  V30 699 O 64.2303 1.48596 2.04146 0
M  V30 700 C 65.5433 2.87499 -0.881168 0
M  V30 701 C 67.0913 3.01119 -0.85417 0
M  V30 702 C 67.5663 4.33524 -1.4772 0
M  V30 703 N 69.0573 4.40207 -1.44125 0
M  V30 704 C 69.7923 5.4126 -1.89276 0
M  V30 705 N 69.2883 6.49021 -2.42371 0
M  V30 706 N 71.0813 5.32422 -1.80231 0
M  V30 707 H 63.2323 1.45306 -1.54919 0
M  V30 708 H 65.4953 0.692733 -0.647167 0
M  V30 709 H 65.2013 2.9372 -1.93447 0
M  V30 710 H 65.0753 3.75224 -0.385592 0
M  V30 711 H 67.4623 2.94485 0.190491 0
M  V30 712 H 67.5433 2.14887 -1.3877 0
M  V30 713 H 67.1873 4.40916 -2.52103 0
M  V30 714 H 67.1173 5.1852 -0.918947 0
M  V30 715 H 69.6083 3.62931 -1.05307 0
M  V30 716 H 69.9213 7.2233 -2.74698 0
M  V30 717 H 68.2663 6.49858 -2.46393 0
M  V30 718 H 71.4573 4.47137 -1.38514 0
M  V30 719 H 71.6303 6.11034 -2.15735 0
M  V30 720 N 65.0364 0.313813 1.54444 0
M  V30 721 C 66.2844 -0.291099 1.99993 0
M  V30 722 C 66.6054 -1.53418 1.20366 0
M  V30 723 O 65.8754 -1.93544 0.302927 0
M  V30 724 H 64.4554 -0.110552 0.738774 0
M  V30 725 H 67.1174 0.428106 1.9014 0
M  V30 726 H 66.2134 -0.554268 3.07139 0
M  V30 727 N 66.5145 -1.57545 0.0417849 0
M  V30 728 C 67.4245 -2.14451 -0.951213 0
M  V30 729 C 68.4405 -1.09992 -1.34825 0
M  V30 730 O 69.6165 -1.42114 -1.42708 0
M  V30 731 C 66.6815 -2.67063 -2.21084 0
M  V30 732 C 65.7425 -3.86284 -1.87304 0
M  V30 733 C 64.9755 -4.36378 -3.07261 0
M  V30 734 O 65.1985 -3.85587 -4.20332 0
M  V30 735 O 64.1325 -5.28077 -2.88822 0
M  V30 736 H 67.9585 -2.99601 -0.497287 0
M  V30 737 H 65.5435 -1.48317 -0.179567 0
M  V30 738 H 67.4255 -3.00914 -2.95006 0
M  V30 739 H 66.1005 -1.84989 -2.65633 0
M  V30 740 H 65.0075 -3.57338 -1.10727 0
M  V30 741 H 66.3405 -4.6956 -1.47562 0
M  V30 742 N 67.9926 0.231505 -1.5589 0
M  V30 743 C 69.2696 0.981096 -1.69215 0
M  V30 744 C 69.6496 2.02799 -0.586164 0
M  V30 745 O 68.9976 2.24823 0.408253 0
M  V30 746 C 69.2076 1.60054 -3.10135 0
M  V30 747 C 70.5556 2.09658 -3.69227 0
M  V30 748 O 71.5796 1.69967 -3.13033 0
M  V30 749 O 70.4386 2.8258 -4.67772 0
M  V30 750 H 67.5326 0.457653 -0.688827 0
M  V30 751 H 70.0786 0.224073 -1.68214 0
M  V30 752 H 68.8506 0.844105 -3.82087 0
M  V30 753 H 68.4736 2.42336 -3.15212 0
M  V30 754 N 69.4707 1.49531 0.497807 0
M  V30 755 C 70.7167 1.59415 1.25358 0
M  V30 756 C 71.0497 0.281422 1.9215 0
M  V30 757 O 70.3247 -0.715249 1.80871 0
M  V30 758 C 70.6077 2.75566 2.3181 0
M  V30 759 C 70.4607 4.16642 1.69498 0
M  V30 760 C 71.7797 2.87347 3.33346 0
M  V30 761 H 68.8987 0.580244 0.454408 0
M  V30 762 H 71.5407 1.81827 0.551262 0
M  V30 763 H 69.6907 2.56587 2.91711 0
M  V30 764 H 71.3627 4.47145 1.13399 0
M  V30 765 H 69.6057 4.22141 0.998978 0
M  V30 766 H 70.2767 4.93792 2.46725 0
M  V30 767 H 72.7527 3.04634 2.83438 0
M  V30 768 H 71.6287 3.70289 4.05188 0
M  V30 769 H 71.8897 1.96834 3.95865 0
M  V30 770 N 70.9488 -0.749086 1.3866 0
M  V30 771 C 71.8788 -1.8764 1.38973 0
M  V30 772 C 72.8598 -1.68178 0.255004 0
M  V30 773 O 74.0448 -1.88704 0.458754 0
M  V30 774 C 71.1748 -3.25222 1.21851 0
M  V30 775 C 70.1288 -3.59295 2.32575 0
M  V30 776 C 69.4548 -4.95663 2.00555 0
M  V30 777 C 70.7548 -3.63709 3.7485 0
M  V30 778 H 72.4488 -1.87635 2.3331 0
M  V30 779 H 69.9948 -0.901329 1.12303 0
M  V30 780 H 71.9478 -4.03746 1.20695 0
M  V30 781 H 70.6718 -3.25719 0.239775 0
M  V30 782 H 69.3308 -2.83093 2.32925 0
M  V30 783 H 68.9788 -4.92724 1.01154 0
M  V30 784 H 68.6788 -5.19429 2.74714 0
M  V30 785 H 70.2028 -5.7656 2.01024 0
M  V30 786 H 71.6168 -4.32338 3.76506 0
M  V30 787 H 70.0138 -3.98986 4.48252 0
M  V30 788 H 71.0838 -2.63834 4.06841 0
M  V30 789 N 72.4269 -1.23603 -0.977757 0
M  V30 790 C 73.6519 -1.09735 -1.75991 0
M  V30 791 C 74.0769 0.346858 -1.84874 0
M  V30 792 O 73.4349 1.25093 -1.3123 0
M  V30 793 C 73.4829 -1.73051 -3.16363 0
M  V30 794 O 72.5869 -0.994452 -4.0023 0
M  V30 795 H 71.9279 -0.384476 -0.541364 0
M  V30 796 H 74.4579 -1.6371 -1.2272 0
M  V30 797 H 74.4679 -1.78398 -3.66931 0
M  V30 798 H 73.1429 -2.78137 -3.09213 0
M  V30 799 H 71.7199 -1.01812 -3.58732 0
M  V30 800 N 73.905 1.17692 -1.04816 0
M  V30 801 C 75.133 1.91786 -0.776254 0
M  V30 802 C 75.548 1.76604 0.667577 0
M  V30 803 O 74.905 1.10067 1.45573 0
M  V30 804 C 74.956 3.42967 -1.14263 0
M  V30 805 O 74.677 3.57678 -2.52978 0
M  V30 806 C 76.178 4.34144 -0.896311 0
M  V30 807 H 73.398 0.608624 -0.282519 0
M  V30 808 H 75.942 1.49268 -1.39783 0
M  V30 809 H 74.097 3.83245 -0.565874 0
M  V30 810 H 74.511 4.51319 -2.67229 0
M  V30 811 H 75.985 5.38744 -1.20244 0
M  V30 812 H 76.462 4.38876 0.168636 0
M  V30 813 H 77.068 3.99574 -1.45672 0
M  V30 814 N 75.3831 0.828654 1.34056 0
M  V30 815 C 76.3161 0.199763 2.27324 0
M  V30 816 C 77.2941 -0.647168 1.49166 0
M  V30 817 O 78.4781 -0.609661 1.78369 0
M  V30 818 C 75.6051 -0.720455 3.30949 0
M  V30 819 C 74.6511 0.0496888 4.26471 0
M  V30 820 S 75.4841 1.40072 5.16856 0
M  V30 821 C 76.6401 0.485527 6.24014 0
M  V30 822 H 76.8731 0.990478 2.80316 0
M  V30 823 H 74.4061 0.624857 1.41191 0
M  V30 824 H 76.3641 -1.24581 3.91139 0
M  V30 825 H 75.0251 -1.48474 2.76793 0
M  V30 826 H 74.2181 -0.650104 4.9979 0
M  V30 827 H 73.8201 0.505779 3.70564 0
M  V30 828 H 76.1121 -0.320672 6.76741 0
M  V30 829 H 77.0551 1.18856 6.98054 0
M  V30 830 H 77.4631 0.0714109 5.64455 0
M  V30 831 N 76.8612 -1.46375 0.584142 0
M  V30 832 C 77.7932 -2.28443 -0.186119 0
M  V30 833 C 78.8062 -1.38596 -0.854115 0
M  V30 834 O 79.9952 -1.63183 -0.723438 0
M  V30 835 C 77.0952 -3.13671 -1.28311 0
M  V30 836 C 76.2682 -4.31652 -0.706758 0
M  V30 837 C 75.3272 -4.98267 -1.69163 0
M  V30 838 O 74.3532 -5.55815 -1.22712 0
M  V30 839 N 75.5552 -4.95408 -3.02575 0
M  V30 840 H 78.3202 -2.9519 0.517986 0
M  V30 841 H 75.8812 -1.56303 0.42201 0
M  V30 842 H 77.8732 -3.55101 -1.94128 0
M  V30 843 H 76.4432 -2.48989 -1.89005 0
M  V30 844 H 75.6632 -3.93989 0.128908 0
M  V30 845 H 76.9512 -5.07906 -0.301506 0
M  V30 846 H 76.3492 -4.49902 -3.42936 0
M  V30 847 H 74.9062 -5.40774 -3.63877 0
M  V30 848 N 78.3393 -0.321999 -1.54275 0
M  V30 849 C 79.5853 0.281461 -2.00837 0
M  V30 850 C 79.9183 1.51909 -1.20985 0
M  V30 851 O 79.1933 1.923 -0.291733 0
M  V30 852 C 79.4763 0.617162 -3.54772 0
M  V30 853 C 79.3293 -0.631064 -4.45351 0
M  V30 854 C 80.6483 1.43542 -4.16033 0
M  V30 855 H 77.7673 0.100826 -0.730071 0
M  V30 856 H 80.4093 -0.438268 -1.84876 0
M  V30 857 H 78.5593 1.23034 -3.68504 0
M  V30 858 H 80.2313 -1.26934 -4.43492 0
M  V30 859 H 78.4743 -1.26025 -4.15091 0
M  V30 860 H 79.1453 -0.351735 -5.50878 0
M  V30 861 H 81.6213 0.917134 -4.05867 0
M  V30 862 H 80.4973 1.63907 -5.23856 0
M  V30 863 H 80.7583 2.43108 -3.69257 0
M  V30 864 N 79.8174 1.5752 -0.0501392 0
M  V30 865 C 81.0644 1.9265 0.623874 0
M  V30 866 C 81.3924 0.928411 1.70912 0
M  V30 867 O 80.6474 -0.0594525 1.9561 0
M  V30 868 C 80.9464 3.34467 1.25963 0
M  V30 869 C 80.6124 4.49883 0.302689 0
M  V30 870 C 79.2744 4.81184 0.0393636 0
M  V30 871 C 81.6264 5.20002 -0.353205 0
M  V30 872 C 78.9544 5.79951 -0.887308 0
M  V30 873 C 81.3064 6.1976 -1.26806 0
M  V30 874 C 79.9704 6.49491 -1.54007 0
M  V30 875 H 79.2404 0.704957 0.228292 0
M  V30 876 H 81.8874 1.91146 -0.116398 0
M  V30 877 H 80.1924 3.32333 2.07514 0
M  V30 878 H 81.8894 3.58928 1.78806 0
M  V30 879 H 78.4794 4.25457 0.518109 0
M  V30 880 H 82.6634 4.96033 -0.162854 0
M  V30 881 H 77.9194 6.01322 -1.10553 0
M  V30 882 H 82.0934 6.73205 -1.78236 0
M  V30 883 H 79.7204 7.25837 -2.25976 0
M  V30 884 N 81.2955 -0.223234 1.56011 0
M  V30 885 C 82.7115 -0.572856 1.48965 0
M  V30 886 C 82.9115 -1.87225 0.74492 0
M  V30 887 O 81.9675 -2.50899 0.283896 0
M  V30 888 C 83.2805 -0.653646 2.9351 0
M  V30 889 C 84.8285 -0.744386 3.0402 0
M  V30 890 C 85.3035 -0.856535 4.49919 0
M  V30 891 N 86.7945 -0.9208 4.53955 0
M  V30 892 C 87.5295 -1.02726 5.64123 0
M  V30 893 N 87.0255 -1.09777 6.84047 0
M  V30 894 N 88.8185 -1.06226 5.51971 0
M  V30 895 H 80.9695 0.629462 2.02858 0
M  V30 896 H 83.2325 0.220621 0.921971 0
M  V30 897 H 82.9385 0.231518 3.50937 0
M  V30 898 H 82.8125 -1.51781 3.45315 0
M  V30 899 H 85.1995 -1.61999 2.46658 0
M  V30 900 H 85.2805 0.14541 2.55386 0
M  V30 901 H 84.9245 0.0146069 5.07898 0
M  V30 902 H 84.8545 -1.76172 4.96257 0
M  V30 903 H 87.3455 -0.876694 3.6759 0
M  V30 904 H 87.6585 -1.17872 7.63758 0
M  V30 905 H 86.0035 -1.06693 6.86762 0
M  V30 906 H 89.1945 -1.00382 4.5721 0
M  V30 907 H 89.3675 -1.14177 6.37862 0
M  V30 908 N 82.7736 -1.49793 -0.48987 0
M  V30 909 C 84.0506 -1.50348 -1.25119 0
M  V30 910 C 84.4306 -0.237466 -2.0976 0
M  V30 911 O 83.7786 0.77981 -2.14782 0
M  V30 912 C 83.9886 -2.78872 -2.09837 0
M  V30 913 C 85.3366 -3.288 -2.68655 0
M  V30 914 O 86.3606 -2.80065 -2.20096 0
M  V30 915 O 85.2196 -4.13707 -3.57083 0
M  V30 916 H 82.3136 -0.602242 -0.566775 0
M  V30 917 H 84.8596 -1.62067 -0.503229 0
M  V30 918 H 83.6316 -3.62499 -1.47343 0
M  V30 919 H 83.2546 -2.70066 -2.91805 0
M  V30 920 N 84.2517 0.741722 -1.39055 0
M  V30 921 C 85.1817 1.869 -1.39966 0
M  V30 922 C 86.1627 1.6804 -0.26392 0
M  V30 923 O 87.3477 1.88458 -0.468755 0
M  V30 924 C 84.4777 3.24572 -1.23574 0
M  V30 925 C 83.4317 3.58056 -2.34477 0
M  V30 926 C 82.7577 4.94593 -2.0318 0
M  V30 927 C 84.0577 3.61716 -3.76774 0
M  V30 928 H 85.7517 1.86395 -2.34302 0
M  V30 929 H 83.2977 0.895361 -1.1278 0
M  V30 930 H 85.2507 4.031 -1.22834 0
M  V30 931 H 83.9747 3.25587 -0.257045 0
M  V30 932 H 82.6337 2.81854 -2.34423 0
M  V30 933 H 82.2817 4.92181 -1.03765 0
M  V30 934 H 81.9817 5.17964 -2.77465 0
M  V30 935 H 83.5057 5.75486 -2.04079 0
M  V30 936 H 84.9197 4.30335 -3.78794 0
M  V30 937 H 83.3167 3.96603 -4.50362 0
M  V30 938 H 84.3867 2.61672 -4.08235 0
M  V30 939 N 85.7298 1.2412 0.971189 0
M  V30 940 C 86.9778 1.07668 1.71032 0
M  V30 941 C 87.2988 -0.385797 1.91146 0
M  V30 942 O 86.5688 -1.27569 1.4867 0
M  V30 943 H 85.1488 0.395429 0.633755 0
M  V30 944 H 87.8108 1.55984 1.16855 0
M  V30 945 H 86.9068 1.57195 2.69622 0
M  V30 946 N 87.2079 -1.17134 1.05439 0
M  V30 947 C 88.4539 -1.87733 0.767077 0
M  V30 948 C 88.7869 -1.8098 -0.704253 0
M  V30 949 O 88.0619 -1.21951 -1.5152 0
M  V30 950 C 88.3449 -3.37659 1.25133 0
M  V30 951 C 88.1979 -3.53149 2.78578 0
M  V30 952 C 89.5169 -4.31768 0.852324 0
M  V30 953 H 86.6359 -0.681687 0.280129 0
M  V30 954 H 89.2779 -1.37732 1.30881 0
M  V30 955 H 87.4279 -3.80373 0.790469 0
M  V30 956 H 89.0999 -3.19434 3.32806 0
M  V30 957 H 87.3429 -2.95345 3.17732 0
M  V30 958 H 88.0139 -4.58403 3.07523 0
M  V30 959 H 90.4899 -3.96909 1.24911 0
M  V30 960 H 89.3659 -5.35199 1.21873 0
M  V30 961 H 89.6269 -4.41429 -0.243485 0
M  V30 962 N 88.686 -0.835752 -1.33615 0
M  V30 963 C 89.596 -0.269088 -2.33052 0
M  V30 964 C 90.612 0.603251 -1.63208 0
M  V30 965 O 91.788 0.508112 -1.94885 0
M  V30 966 C 88.853 0.549091 -3.42324 0
M  V30 967 C 87.914 -0.347156 -4.27894 0
M  V30 968 C 87.147 0.43207 -5.31948 0
M  V30 969 O 87.37 1.66409 -5.45586 0
M  V30 970 O 86.304 -0.192298 -6.01593 0
M  V30 971 H 90.13 -1.09243 -2.83372 0
M  V30 972 H 87.715 -0.598198 -1.36901 0
M  V30 973 H 89.597 1.01414 -4.09015 0
M  V30 974 H 88.272 1.34955 -2.94226 0
M  V30 975 H 87.179 -0.859979 -3.64081 0
M  V30 976 H 88.512 -1.1123 -4.79467 0
M  V30 977 N 90.1641 1.46063 -0.591896 0
M  V30 978 C 91.4131 2.01547 -0.0786637 0
M  V30 979 C 91.7261 1.46796 1.29268 0
M  V30 980 O 92.9321 1.94157 1.89777 0
M  V30 981 C 91.3881 3.59787 -0.0900024 0
M  V30 982 C 90.9961 4.23534 -1.46023 0
M  V30 983 C 92.7401 4.22895 0.368806 0
M  V30 984 C 90.6471 5.73881 -1.4288 0
M  V30 985 H 89.5771 0.753564 -0.0256388 0
M  V30 986 H 92.2281 1.677 -0.744905 0
M  V30 987 H 90.6101 3.90752 0.642586 0
M  V30 988 H 91.7841 4.04167 -2.21328 0
M  V30 989 H 90.0991 3.72558 -1.85982 0
M  V30 990 H 92.6961 5.33116 0.411258 0
M  V30 991 H 93.0391 3.9247 1.38827 0
M  V30 992 H 93.5721 3.9659 -0.31001 0
M  V30 993 H 90.3111 6.0898 -2.42536 0
M  V30 994 H 89.8311 5.95486 -0.718095 0
M  V30 995 H 91.5101 6.36776 -1.14565 0
M  V30 996 N 91.6422 0.330177 1.54103 0
M  V30 997 C 92.5522 -0.541534 2.28264 0
M  V30 998 C 93.5682 -1.12351 1.32866 0
M  V30 999 O 94.7442 -1.14206 1.65888 0
M  V30 1000 C 91.8092 -1.68322 3.03098 0
M  V30 1001 C 90.8702 -1.13238 4.14096 0
M  V30 1002 C 90.1032 -2.21966 4.85352 0
M  V30 1003 O 90.3262 -3.42437 4.56172 0
M  V30 1004 O 89.2602 -1.87013 5.7211 0
M  V30 1005 H 93.0862 0.060938 3.03639 0
M  V30 1006 H 90.6712 0.09565 1.49093 0
M  V30 1007 H 92.5532 -2.34777 3.49939 0
M  V30 1008 H 91.2282 -2.27176 2.30593 0
M  V30 1009 H 90.1352 -0.432736 3.71589 0
M  V30 1010 H 91.4682 -0.588898 4.88664 0
M  V30 1011 N 93.1203 -1.57491 0.0584922 0
M  V30 1012 C 94.3973 -1.84346 -0.653918 0
M  V30 1013 C 94.7773 -0.948355 -1.88599 0
M  V30 1014 O 94.1253 -0.0112403 -2.28497 0
M  V30 1015 C 94.3353 -3.34239 -1.00425 0
M  V30 1016 C 95.6833 -4.01431 -1.38342 0
M  V30 1017 O 96.7073 -3.38907 -1.09637 0
M  V30 1018 O 95.5663 -5.11683 -1.91943 0
M  V30 1019 H 92.6603 -0.761112 -0.323478 0
M  V30 1020 H 95.2063 -1.6947 0.0884125 0
M  V30 1021 H 93.9783 -3.91089 -0.128625 0
M  V30 1022 H 93.6013 -3.54329 -1.80378 0
M  V30 1023 N 94.5984 0.214957 -1.56127 0
M  V30 1024 C 95.5454 1.26642 -1.92952 0
M  V30 1025 C 96.5154 1.46244 -0.78753 0
M  V30 1026 O 97.7004 1.59704 -1.04399 0
M  V30 1027 C 94.8404 2.6104 -2.25726 0
M  V30 1028 C 93.9534 2.49183 -3.52891 0
M  V30 1029 C 93.0884 3.76149 -3.7508 0
M  V30 1030 C 92.1274 3.59041 -4.95738 0
M  V30 1031 N 91.2644 4.77972 -5.14283 0
M  V30 1032 H 96.1044 0.945384 -2.82607 0
M  V30 1033 H 93.6414 0.455489 -1.3987 0
M  V30 1034 H 95.5994 3.39313 -2.42739 0
M  V30 1035 H 94.2294 2.91227 -1.39236 0
M  V30 1036 H 93.2814 1.6231 -3.44034 0
M  V30 1037 H 94.5934 2.32466 -4.41318 0
M  V30 1038 H 93.7474 4.62865 -3.92226 0
M  V30 1039 H 92.4864 3.95799 -2.84947 0
M  V30 1040 H 91.4914 2.7071 -4.78535 0
M  V30 1041 H 92.7164 3.40856 -5.87362 0
M  V30 1042 H 90.6624 4.97923 -4.27093 0
M  V30 1043 H 90.5794 4.64006 -5.96853 0
M  V30 1044 H 91.8474 5.66096 -5.35869 0
M  V30 1045 N 96.0765 1.50051 0.48192 0
M  V30 1046 C 97.3535 1.51009 1.2432 0
M  V30 1047 C 97.7335 0.248587 2.09631 0
M  V30 1048 O 97.0815 -0.768409 2.15192 0
M  V30 1049 C 97.2915 2.79981 2.08355 0
M  V30 1050 C 98.6395 3.3022 2.66908 0
M  V30 1051 O 99.6635 2.81228 2.18607 0
M  V30 1052 O 98.5225 4.15595 3.54884 0
M  V30 1053 H 95.6165 0.605239 0.563573 0
M  V30 1054 H 98.1625 1.62332 0.494627 0
M  V30 1055 H 96.9345 3.63275 1.45419 0
M  V30 1056 H 96.5575 2.7161 2.90368 0
M  V30 1057 N 97.5546 -0.734337 1.39446 0
M  V30 1058 C 98.8026 -1.49096 1.36436 0
M  V30 1059 C 99.1236 -1.94961 -0.0388255 0
M  V30 1060 O 98.3936 -1.69033 -0.990191 0
M  V30 1061 H 96.9736 -0.5531 0.502085 0
M  V30 1062 H 99.6356 -0.871725 1.74319 0
M  V30 1063 H 98.7316 -2.37276 2.02747 0
M  V30 1064 N 99.0327 -1.24633 -0.964593 0
M  V30 1065 C 100.279 -1.08949 -1.71049 0
M  V30 1066 C 100.612 0.370302 -1.90637 0
M  V30 1067 O 99.8867 1.27349 -1.47011 0
M  V30 1068 C 100.17 -1.83329 -3.0994 0
M  V30 1069 C 100.023 -3.37077 -2.97824 0
M  V30 1070 C 101.342 -1.60846 -4.09654 0
M  V30 1071 H 98.4607 -0.397178 -0.620821 0
M  V30 1072 H 101.103 -1.5334 -1.12191 0
M  V30 1073 H 99.2527 -1.45597 -3.60186 0
M  V30 1074 H 100.925 -3.84425 -2.5498 0
M  V30 1075 H 99.1677 -3.65298 -2.33965 0
M  V30 1076 H 99.8387 -3.84324 -3.96231 0
M  V30 1077 H 102.315 -1.93674 -3.68279 0
M  V30 1078 H 101.191 -2.1534 -5.04896 0
M  V30 1079 H 101.452 -0.547434 -4.38698 0
M  V30 1080 N 100.511 1.16574 -1.06058 0
M  V30 1081 C 101.76 1.86385 -0.770944 0
M  V30 1082 C 102.073 1.82448 0.705129 0
M  V30 1083 O 103.279 2.47815 1.10905 0
M  V30 1084 C 101.735 3.34466 -1.32893 0
M  V30 1085 C 101.343 3.46883 -2.83507 0
M  V30 1086 C 103.087 4.09548 -1.11672 0
M  V30 1087 C 100.994 4.89036 -3.32562 0
M  V30 1088 H 99.9238 0.698181 -0.284709 0
M  V30 1089 H 102.575 1.31583 -1.27899 0
M  V30 1090 H 100.957 3.88859 -0.748662 0
M  V30 1091 H 102.131 3.02663 -3.47465 0
M  V30 1092 H 100.446 2.85232 -3.03368 0
M  V30 1093 H 103.043 5.14434 -1.45814 0
M  V30 1094 H 103.386 4.16264 -0.0549535 0
M  V30 1095 H 103.919 3.61387 -1.66265 0
M  V30 1096 H 100.658 4.87499 -4.38207 0
M  V30 1097 H 100.178 5.3389 -2.73351 0
M  V30 1098 H 101.857 5.57843 -3.2775 0
M  V30 1099 N 101.989 0.842826 1.3317 0
M  V30 1100 C 103.217 0.454055 2.01856 0
M  V30 1101 C 103.632 -0.94587 1.63397 0
M  V30 1102 O 102.989 -1.61534 0.849302 0
M  V30 1103 C 103.04 0.569715 3.56982 0
M  V30 1104 O 102.761 1.91448 3.94055 0
M  V30 1105 C 104.262 0.178412 4.42941 0
M  V30 1106 H 101.482 0.17979 0.646465 0
M  V30 1107 H 104.026 1.1365 1.70012 0
M  V30 1108 H 102.181 -0.0648587 3.87346 0
M  V30 1109 H 102.595 1.90282 4.88767 0
M  V30 1110 H 104.069 0.310376 5.51127 0
M  V30 1111 H 104.546 -0.880056 4.30293 0
M  V30 1112 H 105.152 0.787579 4.17944 0
M  V30 1113 N 103.467 -1.45747 0.599634 0
M  V30 1114 C 104.716 -2.01502 0.0893511 0
M  V30 1115 C 105.029 -1.4748 -1.28488 0
M  V30 1116 O 106.235 -1.95161 -1.88745 0
M  V30 1117 C 104.691 -3.59735 0.109082 0
M  V30 1118 C 104.299 -4.22754 1.48267 0
M  V30 1119 C 106.043 -4.23085 -0.346374 0
M  V30 1120 C 103.95 -5.73115 1.45921 0
M  V30 1121 H 102.88 -0.753417 0.0296347 0
M  V30 1122 H 105.531 -1.67303 0.753788 0
M  V30 1123 H 103.913 -3.91087 -0.621854 0
M  V30 1124 H 105.087 -4.02987 2.23468 0
M  V30 1125 H 103.402 -3.71567 1.87955 0
M  V30 1126 H 105.999 -5.33327 -0.38298 0
M  V30 1127 H 106.342 -3.93201 -1.36743 0
M  V30 1128 H 106.875 -3.9642 0.331038 0
M  V30 1129 H 103.614 -6.07685 2.45762 0
M  V30 1130 H 103.134 -5.95097 0.749665 0
M  V30 1131 H 104.813 -6.3616 1.17941 0
M  V30 1132 N 104.945 -0.338344 -1.53925 0
M  V30 1133 C 105.877 0.555117 -2.22376 0
M  V30 1134 C 106.89 1.06812 -1.22862 0
M  V30 1135 O 108.079 0.979163 -1.49247 0
M  V30 1136 C 105.179 1.77609 -2.88631 0
M  V30 1137 C 104.352 1.39927 -4.14414 0
M  V30 1138 C 103.411 2.47936 -4.64127 0
M  V30 1139 O 102.437 2.11461 -5.28463 0
M  V30 1140 N 103.639 3.79107 -4.39612 0
M  V30 1141 H 106.404 -0.0310778 -2.99684 0
M  V30 1142 H 103.965 -0.162226 -1.61085 0
M  V30 1143 H 105.957 2.49287 -3.18807 0
M  V30 1144 H 104.527 2.26978 -2.14941 0
M  V30 1145 H 103.747 0.513481 -3.90841 0
M  V30 1146 H 105.035 1.12341 -4.96243 0
M  V30 1147 H 104.433 4.11531 -3.88148 0
M  V30 1148 H 102.99 4.4697 -4.74406 0
M  V30 1149 N 106.423 1.57458 -0.0668435 0
M  V30 1150 C 107.671 1.92919 0.602214 0
M  V30 1151 C 107.992 0.947215 1.70449 0
M  V30 1152 O 107.262 -0.00544117 1.95899 0
M  V30 1153 H 105.842 0.71217 0.22544 0
M  V30 1154 H 108.504 1.94508 -0.123535 0
M  V30 1155 H 107.6 2.94589 1.03073 0
M  V30 1156 N 107.901 -0.206675 1.56239 0
M  V30 1157 C 109.147 -0.930218 1.80208 0
M  V30 1158 C 109.48 -1.83387 0.638981 0
M  V30 1159 O 108.755 -1.91119 -0.361066 0
M  V30 1160 C 109.038 -1.75641 3.1436 0
M  V30 1161 C 108.891 -0.878257 4.41142 0
M  V30 1162 C 110.21 -2.73129 3.45092 0
M  V30 1163 H 107.329 -0.336742 0.655571 0
M  V30 1164 H 109.971 -0.198222 1.88963 0
M  V30 1165 H 108.121 -2.38048 3.07027 0
M  V30 1166 H 109.793 -0.269787 4.6051 0
M  V30 1167 H 108.036 -0.184385 4.33408 0
M  V30 1168 H 108.707 -1.49106 5.3148 0
M  V30 1169 H 111.183 -2.20856 3.52649 0
M  V30 1170 H 110.059 -3.28028 4.40101 0
M  V30 1171 H 110.32 -3.51606 2.68003 0
M  V30 1172 N 109.379 -1.50304 -0.473955 0
M  V30 1173 C 110.627 -1.60832 -1.22382 0
M  V30 1174 C 110.948 -0.30939 -1.9253 0
M  V30 1175 O 110.218 0.67296 -1.83978 0
M  V30 1176 H 108.798 -0.592652 -0.454723 0
M  V30 1177 H 111.46 -1.87068 -0.546968 0
M  V30 1178 H 110.556 -2.41803 -1.97327 0
M  V30 1179 N 110.857 0.726932 -1.39834 0
M  V30 1180 C 111.79 1.8501 -1.33592 0
M  V30 1181 C 112.768 1.61262 -0.208191 0
M  V30 1182 O 113.952 1.84422 -0.389981 0
M  V30 1183 C 111.079 3.21143 -1.07633 0
M  V30 1184 C 110.125 3.63737 -2.22705 0
M  V30 1185 S 110.958 3.72167 -3.85035 0
M  V30 1186 C 112.114 5.11077 -3.61318 0
M  V30 1187 H 112.347 1.90022 -2.28646 0
M  V30 1188 H 109.88 0.892595 -1.25985 0
M  V30 1189 H 111.838 3.99747 -0.933415 0
M  V30 1190 H 110.499 3.13776 -0.142526 0
M  V30 1191 H 109.692 4.62551 -2.00155 0
M  V30 1192 H 109.294 2.9236 -2.33242 0
M  V30 1193 H 111.586 5.97656 -3.19083 0
M  V30 1194 H 112.529 5.38658 -4.59623 0
M  V30 1195 H 112.937 4.81135 -2.95245 0
M  V30 1196 N 112.336 1.25143 0.95797 0
M  V30 1197 C 113.299 1.05321 2.03569 0
M  V30 1198 C 114.299 0.007152 1.60798 0
M  V30 1199 O 115.489 0.24903 1.72411 0
M  V30 1200 C 112.621 0.598394 3.35607 0
M  V30 1201 H 113.814 2.00986 2.22586 0
M  V30 1202 H 111.367 1.07502 1.13459 0
M  V30 1203 H 112.102 -0.361014 3.22284 0
M  V30 1204 H 111.887 1.35351 3.67998 0
M  V30 1205 H 113.377 0.48104 4.1482 0
M  V30 1206 N 113.814 -1.1601 1.06675 0
M  V30 1207 C 115.062 -1.86264 0.784229 0
M  V30 1208 C 115.383 -1.82328 -0.691488 0
M  V30 1209 O 114.653 -1.25947 -1.50047 0
M  V30 1210 H 113.233 -0.689621 0.28711 0
M  V30 1211 H 115.895 -1.40664 1.34906 0
M  V30 1212 H 114.991 -2.91595 1.11259 0
M  V30 1213 N 115.292 -0.849877 -1.32721 0
M  V30 1214 C 116.222 -0.306308 -2.31482 0
M  V30 1215 C 117.203 0.591952 -1.59468 0
M  V30 1216 O 118.388 0.513199 -1.87296 0
M  V30 1217 C 115.518 0.510204 -3.43532 0
M  V30 1218 C 114.472 -0.293209 -4.26994 0
M  V30 1219 C 113.798 0.647743 -5.30762 0
M  V30 1220 C 115.098 -1.51634 -4.99804 0
M  V30 1221 H 116.792 -1.13153 -2.77195 0
M  V30 1222 H 114.338 -0.545553 -1.33266 0
M  V30 1223 H 116.291 0.900856 -4.11658 0
M  V30 1224 H 115.015 1.36874 -2.96535 0
M  V30 1225 H 113.674 -0.665555 -3.60508 0
M  V30 1226 H 113.322 1.50299 -4.8002 0
M  V30 1227 H 113.022 0.11422 -5.87489 0
M  V30 1228 H 114.546 1.03567 -6.01753 0
M  V30 1229 H 115.96 -1.19824 -5.60638 0
M  V30 1230 H 114.357 -1.98745 -5.66234 0
M  V30 1231 H 115.427 -2.28018 -4.27943 0
M  V30 1232 N 116.77 1.45427 -0.607355 0
M  V30 1233 C 117.717 2.3053 0.111625 0
M  V30 1234 C 118.687 1.4209 0.860216 0
M  V30 1235 O 119.872 1.71019 0.845998 0
M  V30 1236 C 117.012 3.26992 1.10319 0
M  V30 1237 C 116.125 4.30535 0.355493 0
M  V30 1238 C 115.26 5.14105 1.33676 0
M  V30 1239 C 114.299 6.09376 0.576862 0
M  V30 1240 N 113.436 6.85727 1.5074 0
M  V30 1241 H 118.276 2.91477 -0.620093 0
M  V30 1242 H 115.813 1.43631 -0.317594 0
M  V30 1243 H 117.771 3.81385 1.6912 0
M  V30 1244 H 116.401 2.67799 1.80232 0
M  V30 1245 H 115.453 3.78805 -0.348023 0
M  V30 1246 H 116.765 4.98235 -0.237423 0
M  V30 1247 H 115.919 5.72897 1.99684 0
M  V30 1248 H 114.658 4.46423 1.9636 0
M  V30 1249 H 113.663 5.49715 -0.0968519 0
M  V30 1250 H 114.888 6.79085 -0.0449341 0
M  V30 1251 H 112.834 6.20735 2.12189 0
M  V30 1252 H 112.751 7.49778 0.967913 0
M  V30 1253 H 114.019 7.4906 2.15706 0
M  V30 1254 N 118.248 0.346503 1.53744 0
M  V30 1255 C 119.211 -0.496439 2.23759 0
M  V30 1256 C 120.211 -1.0252 1.2388 0
M  V30 1257 O 121.401 -0.913974 1.48297 0
M  V30 1258 C 118.533 -1.69187 2.95954 0
M  V30 1259 H 119.726 0.115952 2.99676 0
M  V30 1260 H 117.279 0.0978939 1.55993 0
M  V30 1261 H 118.014 -2.34288 2.24231 0
M  V30 1262 H 117.799 -1.31989 3.69217 0
M  V30 1263 H 119.289 -2.28969 3.49232 0
M  V30 1264 N 119.726 -1.57421 0.075193 0
M  V30 1265 C 121.137 -1.81021 -0.456964 0
M  V30 1266 C 121.488 -0.98936 -1.69429 0
M  V30 1267 O 120.613 -0.212865 -2.15351 0
M  V30 1268 C 121.208 -3.28329 -0.83581 0
M  V30 1269 C 119.767 -3.52764 -1.31281 0
M  V30 1270 C 118.914 -2.75676 -0.299648 0
M  V30 1271 H 121.865 -1.55822 0.300856 0
M  V30 1272 H 121.886 -3.40564 -1.69696 0
M  V30 1273 H 121.398 -3.88046 0.0649238 0
M  V30 1274 H 119.499 -2.98355 -2.23193 0
M  V30 1275 H 119.612 -4.61451 -1.28839 0
M  V30 1276 H 117.976 -2.42538 -0.777641 0
M  V30 1277 H 118.759 -3.38132 0.593417 0
M  V30 1278 N 121.204 0.198386 -1.56346 0
M  V30 1279 C 122.136 1.26987 -1.90806 0
M  V30 1280 C 123.149 1.41877 -0.798419 0
M  V30 1281 O 124.338 1.42362 -1.07682 0
M  V30 1282 C 121.438 2.64246 -2.12196 0
M  V30 1283 C 120.611 2.71007 -3.43328 0
M  V30 1284 C 119.67 3.89439 -3.5387 0
M  V30 1285 O 118.696 3.76695 -4.26719 0
M  V30 1286 N 119.898 5.04752 -2.86715 0
M  V30 1287 H 122.663 0.977433 -2.83313 0
M  V30 1288 H 120.224 0.388322 -1.57174 0
M  V30 1289 H 122.216 3.41896 -2.1654 0
M  V30 1290 H 120.786 2.85992 -1.26204 0
M  V30 1291 H 120.006 1.79657 -3.50881 0
M  V30 1292 H 121.294 2.72512 -4.29668 0
M  V30 1293 H 120.692 5.18004 -2.2735 0
M  V30 1294 H 119.249 5.8036 -2.96691 0
M  V30 1295 N 122.682 1.50554 0.465978 0
M  V30 1296 C 123.63 1.70324 1.58406 0
M  V30 1297 C 124.624 0.569139 1.59553 0
M  V30 1298 O 125.83 0.749776 1.63641 0
M  V30 1299 H 122.205 0.537688 0.525734 0
M  V30 1300 H 124.176 2.64104 1.38894 0
M  V30 1301 C 122.925 1.81928 2.96307 0
M  V30 1302 H 122.248 2.68586 2.96144 0
M  V30 1303 H 123.688 1.99784 3.73982 0
M  V30 1304 C 122.147 0.572095 3.32007 0
M  V30 1305 O 122.677 -0.286416 4.00678 0
M  V30 1306 N 120.883 0.424606 2.87481 0
M  V30 1307 H 120.43 1.12427 2.31771 0
M  V30 1308 H 120.388 -0.408697 3.11732 0
M  V30 1309 N 124.16 -0.719506 1.40217 0
M  V30 1310 C 125.123 -1.8153 1.39927 0
M  V30 1311 C 126.123 -1.58095 0.293723 0
M  V30 1312 O 127.313 -1.65209 0.552429 0
M  V30 1313 C 124.445 -3.19561 1.18716 0
M  V30 1314 H 125.638 -1.83186 2.37451 0
M  V30 1315 H 123.191 -0.924746 1.26008 0
M  V30 1316 H 123.926 -3.23557 0.219366 0
M  V30 1317 H 123.711 -3.3797 1.98793 0
M  V30 1318 H 125.201 -3.99598 1.21291 0
M  V30 1319 N 125.638 -1.25649 -0.95132 0
M  V30 1320 C 126.568 -1.08808 -2.06599 0
M  V30 1321 C 127.549 0.00382547 -1.701 0
M  V30 1322 O 128.734 -0.166325 -1.93486 0
M  V30 1323 C 125.864 -0.709542 -3.39975 0
M  V30 1324 C 124.818 -1.75206 -3.90496 0
M  V30 1325 C 124.144 -1.22811 -5.20405 0
M  V30 1326 C 125.444 -3.15153 -4.16504 0
M  V30 1327 H 127.138 -2.02048 -2.20946 0
M  V30 1328 H 124.684 -0.972835 -1.06169 0
M  V30 1329 H 126.637 -0.578649 -4.17408 0
M  V30 1330 H 125.361 0.258556 -3.25575 0
M  V30 1331 H 124.02 -1.87145 -3.15234 0
M  V30 1332 H 123.668 -0.250145 -5.02378 0
M  V30 1333 H 123.368 -1.92492 -5.55176 0
M  V30 1334 H 124.892 -1.10968 -6.00432 0
M  V30 1335 H 126.306 -3.06349 -4.84586 0
M  V30 1336 H 124.703 -3.82333 -4.62538 0
M  V30 1337 H 125.773 -3.61966 -3.22658 0
M  V30 1338 N 127.117 1.15442 -1.07289 0
M  V30 1339 C 128.065 2.22225 -0.686952 0
M  V30 1340 C 129.059 1.66688 0.30193 0
M  V30 1341 O 130.265 1.79236 0.165712 0
M  V30 1342 H 126.64 0.723783 -0.204064 0
M  V30 1343 H 128.611 2.52056 -1.5972 0
M  V30 1344 C 127.36 3.47556 -0.100149 0
M  V30 1345 H 126.683 3.90612 -0.852211 0
M  V30 1346 H 128.123 4.23794 0.132235 0
M  V30 1347 C 126.582 3.16337 1.159 0
M  V30 1348 O 127.112 3.33074 2.24555 0
M  V30 1349 N 125.318 2.70385 1.06491 0
M  V30 1350 H 124.865 2.56966 0.180668 0
M  V30 1351 H 124.823 2.49871 1.90819 0
M  V30 1352 N 128.595 0.856903 1.32268 0
M  V30 1353 C 129.528 0.247937 2.26849 0
M  V30 1354 C 130.506 -0.615382 1.50505 0
M  V30 1355 O 131.69 -0.571689 1.79622 0
M  V30 1356 C 128.817 -0.650093 3.32403 0
M  V30 1357 C 127.863 0.140138 4.2627 0
M  V30 1358 S 128.696 1.51004 5.13769 0
M  V30 1359 C 129.852 0.61778 6.22844 0
M  V30 1360 H 130.085 1.04971 2.78152 0
M  V30 1361 H 127.618 0.654665 1.39834 0
M  V30 1362 H 129.576 -1.16256 3.93694 0
M  V30 1363 H 128.237 -1.4257 2.7988 0
M  V30 1364 H 127.43 -0.543945 5.01056 0
M  V30 1365 H 127.032 0.584267 3.69408 0
M  V30 1366 H 129.324 -0.177053 6.77269 0
M  V30 1367 H 130.267 1.33636 6.95375 0
M  V30 1368 H 130.675 0.191124 5.64176 0
M  V30 1369 N 130.073 -1.45103 0.615059 0
M  V30 1370 C 131.321 -2.01784 0.112955 0
M  V30 1371 C 131.642 -1.48504 -1.26378 0
M  V30 1372 O 130.912 -0.682245 -1.83636 0
M  V30 1373 H 129.492 -0.745993 0.0387668 0
M  V30 1374 H 132.154 -1.77808 0.798141 0
M  V30 1375 H 131.25 -3.12025 0.0684069 0
M  V30 1376 N 131.551 -0.354651 -1.53558 0
M  V30 1377 C 132.499 0.512195 -2.26891 0
M  V30 1378 C 133.493 1.09263 -1.29452 0
M  V30 1379 O 134.699 1.03709 -1.47121 0
M  V30 1380 H 131.074 0.183878 -0.729173 0
M  V30 1381 H 133.045 -0.128202 -2.98124 0
M  V30 1382 C 131.794 1.64563 -3.06291 0
M  V30 1383 H 131.117 1.20829 -3.81104 0
M  V30 1384 H 132.557 2.22711 -3.60799 0
M  V30 1385 C 131.016 2.58158 -2.16462 0
M  V30 1386 O 131.546 3.60695 -1.76811 0
M  V30 1387 N 129.752 2.27096 -1.81317 0
M  V30 1388 H 129.299 1.43751 -2.1376 0
M  V30 1389 H 129.257 2.89975 -1.21498 0
M  V30 1390 N 133.029 1.57378 -0.0835403 0
M  V30 1391 C 134.254 1.98682 0.594987 0
M  V30 1392 C 134.679 0.961969 1.61641 0
M  V30 1393 O 134.037 -0.0709989 1.81161 0
M  V30 1394 C 134.085 3.38988 1.2296 0
M  V30 1395 O 133.189 3.39208 2.34546 0
M  V30 1396 H 132.53 0.646368 0.152002 0
M  V30 1397 H 135.06 2.03961 -0.161533 0
M  V30 1398 H 135.07 3.76431 1.57366 0
M  V30 1399 H 133.745 4.13107 0.481228 0
M  V30 1400 H 132.322 3.13548 2.01846 0
M  V30 1401 N 134.507 -0.190092 1.56449 0
M  V30 1402 C 135.755 -0.907908 1.80559 0
M  V30 1403 C 136.076 -1.83583 0.657438 0
M  V30 1404 O 135.346 -1.93203 -0.323924 0
M  V30 1405 H 133.926 -0.338247 0.666032 0
M  V30 1406 H 136.588 -0.194403 1.93928 0
M  V30 1407 H 135.684 -1.49604 2.73907 0
M  V30 1408 N 135.985 -1.50799 -0.457987 0
M  V30 1409 C 137.213 -1.66218 -1.23203 0
M  V30 1410 C 137.628 -0.350894 -1.85511 0
M  V30 1411 O 136.985 0.668546 -1.69814 0
M  V30 1412 C 137.036 -2.76291 -2.33121 0
M  V30 1413 O 136.757 -4.02338 -1.73366 0
M  V30 1414 C 138.258 -3.028 -3.2377 0
M  V30 1415 H 135.478 -0.558361 -0.372121 0
M  V30 1416 H 138.022 -1.97099 -0.545179 0
M  V30 1417 H 136.177 -2.48068 -2.97558 0
M  V30 1418 H 136.591 -4.63312 -2.4585 0
M  V30 1419 H 138.065 -3.8345 -3.97077 0
M  V30 1420 H 138.542 -2.14385 -3.83322 0
M  V30 1421 H 139.148 -3.32604 -2.65056 0
M  V30 1422 N 137.463 0.71206 -1.40597 0
M  V30 1423 C 138.688 1.50617 -1.42581 0
M  V30 1424 C 139.113 1.88079 -0.0282102 0
M  V30 1425 O 138.471 1.53511 0.964579 0
M  V30 1426 C 138.519 2.7557 -2.3258 0
M  V30 1427 O 137.623 3.72414 -1.77148 0
M  V30 1428 H 136.964 0.453966 -0.484573 0
M  V30 1429 H 139.494 0.876649 -1.84868 0
M  V30 1430 H 139.504 3.2406 -2.47889 0
M  V30 1431 H 138.179 2.47639 -3.34138 0
M  V30 1432 H 136.756 3.31276 -1.71204 0
M  V30 1433 N 138.941 1.26152 0.944643 0
M  V30 1434 C 140.19 1.10883 1.68487 0
M  V30 1435 C 140.503 -0.348153 1.92477 0
M  V30 1436 O 141.709 -0.621459 2.64292 0
M  V30 1437 C 140.165 1.93624 3.03377 0
M  V30 1438 C 139.773 3.43875 2.87148 0
M  V30 1439 C 141.517 1.86954 3.81115 0
M  V30 1440 C 139.424 4.18875 4.1749 0
M  V30 1441 H 138.354 0.41135 0.631907 0
M  V30 1442 H 141.005 1.50433 1.05082 0
M  V30 1443 H 139.387 1.46904 3.67743 0
M  V30 1444 H 140.561 3.98338 2.31653 0
M  V30 1445 H 138.876 3.51744 2.22856 0
M  V30 1446 H 141.473 2.40275 4.77673 0
M  V30 1447 H 141.816 0.839518 4.07747 0
M  V30 1448 H 142.349 2.31477 3.23517 0
M  V30 1449 H 139.088 5.22332 3.96043 0
M  V30 1450 H 138.608 3.69193 4.72712 0
M  V30 1451 H 140.287 4.27134 4.85968 0
M  V30 1452 N 140.419 -1.14872 1.07899 0
M  V30 1453 C 141.835 -1.37776 0.805606 0
M  V30 1454 C 142.035 -1.92743 -0.587555 0
M  V30 1455 O 141.091 -2.13678 -1.34528 0
M  V30 1456 C 142.404 -2.34361 1.88402 0
M  V30 1457 C 143.952 -2.48012 1.90942 0
M  V30 1458 C 144.427 -3.47893 2.97883 0
M  V30 1459 N 145.918 -3.55433 2.97021 0
M  V30 1460 C 146.653 -4.32553 3.76412 0
M  V30 1461 N 146.149 -5.12959 4.65666 0
M  V30 1462 N 147.942 -4.27697 3.64735 0
M  V30 1463 H 140.093 -0.775365 1.97742 0
M  V30 1464 H 142.356 -0.403521 0.857831 0
M  V30 1465 H 142.062 -2.01098 2.88535 0
M  V30 1466 H 141.936 -3.34206 1.74889 0
M  V30 1467 H 144.323 -2.8057 0.914579 0
M  V30 1468 H 144.404 -1.48147 2.08534 0
M  V30 1469 H 144.048 -3.16069 3.97571 0
M  V30 1470 H 143.978 -4.47527 2.77538 0
M  V30 1471 H 146.469 -2.98048 2.32326 0
M  V30 1472 H 146.782 -5.69065 5.22862 0
M  V30 1473 H 145.127 -5.12245 4.69712 0
M  V30 1474 H 148.318 -3.63949 2.94378 0
M  V30 1475 H 148.491 -4.8755 4.26848 0
M  V30 1476 N 141.898 -0.863906 -1.31812 0
M  V30 1477 C 142.828 -0.330843 -2.31144 0
M  V30 1478 C 143.809 0.575005 -1.60087 0
M  V30 1479 O 144.994 0.493304 -1.8783 0
M  V30 1480 C 142.124 0.47374 -3.44054 0
M  V30 1481 C 141.078 -0.338481 -4.26659 0
M  V30 1482 C 140.404 0.591412 -5.31419 0
M  V30 1483 C 141.704 -1.56926 -4.98168 0
M  V30 1484 H 143.398 -1.16086 -2.75979 0
M  V30 1485 H 140.944 -0.559657 -1.32679 0
M  V30 1486 H 142.897 0.857143 -4.12591 0
M  V30 1487 H 141.621 1.33721 -2.9797 0
M  V30 1488 H 140.28 -0.703754 -3.59782 0
M  V30 1489 H 139.928 1.45199 -4.81587 0
M  V30 1490 H 139.628 0.0519022 -5.87577 0
M  V30 1491 H 141.152 0.97179 -6.02817 0
M  V30 1492 H 142.566 -1.25764 -5.59336 0
M  V30 1493 H 140.963 -2.04739 -5.64094 0
M  V30 1494 H 142.033 -2.32544 -4.25501 0
M  V30 1495 N 143.376 1.44774 -0.622745 0
M  V30 1496 C 144.625 2.01334 -0.121397 0
M  V30 1497 C 144.938 1.49505 1.26125 0
M  V30 1498 O 146.144 1.98139 1.85616 0
M  V30 1499 C 144.6 3.59516 -0.166298 0
M  V30 1500 C 144.208 4.20342 -1.54974 0
M  V30 1501 C 145.952 4.23582 0.279021 0
M  V30 1502 C 143.859 5.70721 -1.55021 0
M  V30 1503 H 142.789 0.752851 -0.0416172 0
M  V30 1504 H 145.44 1.66083 -0.780309 0
M  V30 1505 H 143.822 3.92027 0.559557 0
M  V30 1506 H 144.996 3.99381 -2.29851 0
M  V30 1507 H 143.311 3.68529 -1.93843 0
M  V30 1508 H 145.908 5.33868 0.298083 0
M  V30 1509 H 146.251 3.95327 1.30471 0
M  V30 1510 H 146.784 3.95843 -0.394063 0
M  V30 1511 H 143.523 6.03698 -2.55399 0
M  V30 1512 H 143.043 5.93829 -0.844245 0
M  V30 1513 H 144.722 6.34203 -1.28047 0
M  V30 1514 N 144.854 0.36279 1.53368 0
M  V30 1515 C 146.079 -0.231226 2.06107 0
M  V30 1516 C 146.504 -1.419 1.23474 0
M  V30 1517 O 145.862 -1.79524 0.253128 0
M  V30 1518 C 145.91 -0.605523 3.5548 0
M  V30 1519 O 145.014 -1.70312 3.7559 0
M  V30 1520 H 144.355 -0.034327 0.663112 0
M  V30 1521 H 146.885 0.522584 1.97814 0
M  V30 1522 H 146.895 -0.877314 3.98456 0
M  V30 1523 H 145.57 0.263004 4.15068 0
M  V30 1524 H 144.147 -1.4271 3.44512 0
M  V30 1525 N 146.332 -1.57332 0.0918853 0
M  V30 1526 C 147.58 -1.93853 -0.571446 0
M  V30 1527 C 147.901 -0.974212 -1.6892 0
M  V30 1528 O 147.171 -0.0257254 -1.95883 0
M  V30 1529 H 145.751 -0.715666 -0.214082 0
M  V30 1530 H 148.413 -1.94287 0.154464 0
M  V30 1531 H 147.509 -2.96191 -0.983729 0
M  V30 1532 N 147.81 0.181792 -1.56548 0
M  V30 1533 C 149.056 0.901431 -1.81665 0
M  V30 1534 C 149.389 1.82347 -0.668075 0
M  V30 1535 O 148.664 1.91669 0.330615 0
M  V30 1536 C 148.947 1.70618 -3.17115 0
M  V30 1537 C 148.8 0.807964 -4.42484 0
M  V30 1538 C 150.119 2.67605 -3.49393 0
M  V30 1539 H 147.238 0.32627 -0.660846 0
M  V30 1540 H 149.88 0.168134 -1.89255 0
M  V30 1541 H 148.03 2.33133 -3.10775 0
M  V30 1542 H 149.702 0.19649 -4.60881 0
M  V30 1543 H 147.945 0.115411 -4.33646 0
M  V30 1544 H 148.616 1.40632 -5.33785 0
M  V30 1545 H 151.092 2.15218 -3.56118 0
M  V30 1546 H 149.968 3.20985 -4.45264 0
M  V30 1547 H 150.229 3.47298 -2.73563 0
M  V30 1548 N 149.288 1.51039 0.449983 0
M  V30 1549 C 150.218 1.74379 1.55288 0
M  V30 1550 C 151.199 0.593236 1.5942 0
M  V30 1551 O 152.384 0.834625 1.7535 0
M  V30 1552 C 149.514 1.85728 2.93466 0
M  V30 1553 C 148.468 3.01078 3.04197 0
M  V30 1554 C 147.794 2.97595 4.44231 0
M  V30 1555 C 149.094 4.41254 2.7945 0
M  V30 1556 H 150.788 2.66725 1.36008 0
M  V30 1557 H 148.334 1.2835 0.652864 0
M  V30 1558 H 150.287 2.0064 3.70569 0
M  V30 1559 H 149.011 0.900207 3.13949 0
M  V30 1560 H 147.67 2.85851 2.29531 0
M  V30 1561 H 147.318 1.99691 4.61663 0
M  V30 1562 H 147.018 3.75046 4.52343 0
M  V30 1563 H 148.542 3.14583 5.23326 0
M  V30 1564 H 149.956 4.56897 3.46292 0
M  V30 1565 H 148.353 5.20315 2.98985 0
M  V30 1566 H 149.423 4.52164 1.75144 0
M  V30 1567 N 150.766 -0.704594 1.40972 0
M  V30 1568 C 151.729 -1.80035 1.41845 0
M  V30 1569 C 152.729 -1.57774 0.310474 0
M  V30 1570 O 153.919 -1.64613 0.56992 0
M  V30 1571 C 151.051 -3.18284 1.22098 0
M  V30 1572 H 152.244 -1.80658 2.3938 0
M  V30 1573 H 149.797 -0.911329 1.26982 0
M  V30 1574 H 150.532 -3.23306 0.253672 0
M  V30 1575 H 150.317 -3.35843 2.02366 0
M  V30 1576 H 151.807 -3.98289 1.25522 0
M  V30 1577 N 152.244 -1.26651 -0.937939 0
M  V30 1578 C 153.492 -1.12165 -1.68118 0
M  V30 1579 C 153.813 0.334983 -1.92101 0
M  V30 1580 O 153.083 1.23583 -1.52 0
M  V30 1581 H 151.663 -0.412093 -0.623048 0
M  V30 1582 H 154.325 -1.59027 -1.12678 0
M  V30 1583 H 153.421 -1.64289 -2.6536 0
M  V30 1584 N 153.722 1.14298 -1.08507 0
M  V30 1585 C 154.685 2.17607 -0.719711 0
M  V30 1586 C 155.685 1.58907 0.245997 0
M  V30 1587 O 156.875 1.74181 0.0254081 0
M  V30 1588 C 154.007 3.40842 -0.0627695 0
M  V30 1589 H 155.2 2.51443 -1.63452 0
M  V30 1590 H 152.753 1.28963 -0.88307 0
M  V30 1591 H 153.488 3.12587 0.863716 0
M  V30 1592 H 153.273 3.84713 -0.757504 0
M  V30 1593 H 154.763 4.17221 0.177786 0
M  V30 1594 N 155.201 0.870884 1.31352 0
M  V30 1595 C 156.478 0.402907 1.91405 0
M  V30 1596 C 156.858 -1.11512 1.79244 0
M  V30 1597 O 156.206 -1.94411 1.2007 0
M  V30 1598 C 156.416 0.885301 3.37585 0
M  V30 1599 C 157.764 0.911971 4.14691 0
M  V30 1600 O 158.788 0.831016 3.46371 0
M  V30 1601 O 157.647 1.02927 5.3672 0
M  V30 1602 H 154.741 0.120698 0.818145 0
M  V30 1603 H 157.287 0.958857 1.40014 0
M  V30 1604 H 156.059 1.92889 3.40455 0
M  V30 1605 H 155.682 0.307714 3.96407 0
M  V30 1606 N 156.679 -1.44442 0.630414 0
M  V30 1607 C 157.926 -2.02052 0.134617 0
M  V30 1608 C 158.254 -1.49576 -1.24327 0
M  V30 1609 O 157.509 -0.669806 -1.83881 0
M  V30 1610 C 157.808 -3.57332 0.0697835 0
M  V30 1611 C 157.474 -4.29058 1.38635 0
M  V30 1612 C 156.136 -4.4837 1.74694 0
M  V30 1613 C 158.488 -4.69872 2.25543 0
M  V30 1614 C 155.816 -5.05756 2.97369 0
M  V30 1615 C 158.168 -5.28616 3.47487 0
M  V30 1616 C 156.832 -5.46147 3.8377 0
M  V30 1617 H 156.102 -0.739361 0.0492598 0
M  V30 1618 H 158.749 -1.73217 0.816586 0
M  V30 1619 H 157.054 -3.85577 -0.695553 0
M  V30 1620 H 158.751 -3.99637 -0.330344 0
M  V30 1621 H 155.341 -4.14357 1.09574 0
M  V30 1622 H 159.525 -4.54666 1.98979 0
M  V30 1623 H 154.781 -5.17515 3.25558 0
M  V30 1624 H 158.955 -5.59192 4.15063 0
M  V30 1625 H 156.582 -5.9038 4.7891 0
M  V30 1626 N 158.157 -0.370918 -1.53173 0
M  V30 1627 C 159.067 0.480823 -2.2962 0
M  V30 1628 C 160.083 1.08789 -1.35798 0
M  V30 1629 O 161.259 1.09768 -1.68858 0
M  V30 1630 C 158.324 1.60227 -3.07454 0
M  V30 1631 C 157.385 1.0222 -4.16953 0
M  V30 1632 C 156.618 2.0902 -4.91066 0
M  V30 1633 O 156.841 3.30222 -4.65091 0
M  V30 1634 O 155.775 1.71778 -5.76867 0
M  V30 1635 H 159.601 -0.141421 -3.03371 0
M  V30 1636 H 157.186 -0.135146 -1.48787 0
M  V30 1637 H 159.068 2.25417 -3.56041 0
M  V30 1638 H 157.743 2.20982 -2.36535 0
M  V30 1639 H 156.65 0.334064 -3.72605 0
M  V30 1640 H 157.983 0.459131 -4.90054 0
M  V30 1641 N 159.635 1.57281 -0.100228 0
M  V30 1642 C 160.881 1.94826 0.563101 0
M  V30 1643 C 161.214 0.982475 1.67514 0
M  V30 1644 O 160.489 0.0164069 1.94493 0
M  V30 1645 C 160.772 3.42453 1.11346 0
M  V30 1646 C 160.625 4.498 0.00612081 0
M  V30 1647 C 161.944 3.91506 2.01024 0
M  V30 1648 H 159.063 0.708428 0.203221 0
M  V30 1649 H 161.705 1.8922 -0.171979 0
M  V30 1650 H 159.855 3.47361 1.7399 0
M  V30 1651 H 161.527 4.57 -0.628357 0
M  V30 1652 H 159.77 4.28756 -0.659581 0
M  V30 1653 H 160.441 5.50306 0.432109 0
M  V30 1654 H 162.917 3.88784 1.48278 0
M  V30 1655 H 161.793 4.95358 2.36457 0
M  V30 1656 H 162.054 3.31099 2.92961 0
M  V30 1657 N 161.113 -0.173488 1.56642 0
M  V30 1658 C 162.023 -1.23482 1.99473 0
M  V30 1659 C 163.039 -1.48567 0.905752 0
M  V30 1660 O 164.215 -1.60758 1.21321 0
M  V30 1661 C 161.28 -2.55444 2.34413 0
M  V30 1662 C 160.341 -2.38241 3.57127 0
M  V30 1663 C 159.574 -3.63909 3.90392 0
M  V30 1664 O 159.797 -4.68996 3.24653 0
M  V30 1665 O 158.731 -3.58149 4.83749 0
M  V30 1666 H 162.557 -0.901279 2.90018 0
M  V30 1667 H 160.142 -0.380185 1.44482 0
M  V30 1668 H 162.024 -3.33292 2.57865 0
M  V30 1669 H 160.699 -2.88382 1.4703 0
M  V30 1670 H 159.606 -1.58431 3.38896 0
M  V30 1671 H 160.939 -2.10228 4.45045 0
M  V30 1672 N 162.591 -1.51276 -0.441967 0
M  V30 1673 C 163.524 -1.66933 -1.55591 0
M  V30 1674 C 164.502 -0.516958 -1.54163 0
M  V30 1675 O 165.686 -0.740209 -1.73358 0
M  V30 1676 C 162.813 -1.67866 -2.94174 0
M  V30 1677 C 161.859 -2.89013 -3.13646 0
M  V30 1678 S 162.692 -4.49897 -2.90436 0
M  V30 1679 C 163.848 -4.53568 -4.31308 0
M  V30 1680 H 164.081 -2.61155 -1.42076 0
M  V30 1681 H 161.614 -1.40902 -0.631341 0
M  V30 1682 H 163.572 -1.69089 -3.74058 0
M  V30 1683 H 162.233 -0.748296 -3.05056 0
M  V30 1684 H 161.426 -2.86054 -4.14957 0
M  V30 1685 H 161.028 -2.85509 -2.4158 0
M  V30 1686 H 163.32 -4.28924 -5.24434 0
M  V30 1687 H 164.263 -5.55355 -4.39303 0
M  V30 1688 H 164.671 -3.82943 -4.14747 0
M  V30 1689 N 164.069 0.697108 -1.41344 0
M  V30 1690 C 165.316 1.45714 -1.40619 0
M  V30 1691 C 165.644 1.94494 -0.0147907 0
M  V30 1692 O 164.899 1.69794 0.973066 0
M  V30 1693 C 165.198 2.68553 -2.35826 0
M  V30 1694 C 164.864 2.38438 -3.82698 0
M  V30 1695 C 163.526 2.29936 -4.22709 0
M  V30 1696 C 165.878 2.13567 -4.75435 0
M  V30 1697 C 163.206 1.94656 -5.53467 0
M  V30 1698 C 165.558 1.79797 -6.06511 0
M  V30 1699 C 164.222 1.69789 -6.45545 0
M  V30 1700 H 163.492 0.533206 -0.51456 0
M  V30 1701 H 166.139 0.796901 -1.74131 0
M  V30 1702 H 164.444 3.39503 -1.95563 0
M  V30 1703 H 166.141 3.2669 -2.32539 0
M  V30 1704 H 162.731 2.4595 -3.51008 0
M  V30 1705 H 166.915 2.19082 -4.45328 0
M  V30 1706 H 162.171 1.8546 -5.82593 0
M  V30 1707 H 166.345 1.59572 -6.77872 0
M  V30 1708 H 163.972 1.4222 -7.46778 0
M  V30 1709 N 165.547 1.27147 0.931209 0
M  V30 1710 C 166.795 1.13055 1.6752 0
M  V30 1711 C 167.116 -0.324791 1.92276 0
M  V30 1712 O 166.386 -1.22775 1.52654 0
M  V30 1713 H 164.966 0.415391 0.620854 0
M  V30 1714 H 167.628 1.59623 1.11833 0
M  V30 1715 H 166.724 1.65694 2.64485 0
M  V30 1716 N 167.025 -1.13721 1.09112 0
M  V30 1717 C 168.302 -1.81155 0.737706 0
M  V30 1718 C 168.682 -1.96253 -0.777683 0
M  V30 1719 O 168.03 -1.52807 -1.69889 0
M  V30 1720 C 168.24 -3.16392 1.47299 0
M  V30 1721 C 169.588 -3.91787 1.63671 0
M  V30 1722 O 170.612 -3.26005 1.43524 0
M  V30 1723 O 169.471 -5.0977 1.96969 0
M  V30 1724 H 166.565 -0.783518 0.26463 0
M  V30 1725 H 169.111 -1.20676 1.19312 0
M  V30 1726 H 167.883 -3.0061 2.50498 0
M  V30 1727 H 167.506 -3.8457 1.00953 0
M  V30 1728 N 168.503 -0.877838 -1.30888 0
M  V30 1729 C 169.78 -0.413052 -1.91189 0
M  V30 1730 C 170.16 1.1056 -1.79832 0
M  V30 1731 O 169.508 1.93771 -1.21099 0
M  V30 1732 C 169.718 -0.903191 -3.3711 0
M  V30 1733 C 171.066 -0.93395 -4.14201 0
M  V30 1734 O 172.09 -0.849373 -3.45925 0
M  V30 1735 O 170.949 -1.05772 -5.36167 0
M  V30 1736 H 168.043 -0.125035 -0.817493 0
M  V30 1737 H 170.589 -0.966269 -1.39504 0
M  V30 1738 H 169.361 -1.94692 -3.39427 0
M  V30 1739 H 168.984 -0.328732 -3.96239 0
M  V30 1740 N 169.982 1.44106 -0.638065 0
M  V30 1741 C 171.207 2.0685 -0.150916 0
M  V30 1742 C 171.632 1.47417 1.16833 0
M  V30 1743 O 170.99 0.578264 1.71831 0
M  V30 1744 C 171.038 3.60555 -0.05708 0
M  V30 1745 O 170.142 4.00465 0.984972 0
M  V30 1746 H 169.483 0.658151 -0.0879399 0
M  V30 1747 H 172.013 1.84865 -0.876707 0
M  V30 1748 H 172.023 4.07789 0.131232 0
M  V30 1749 H 170.698 4.03193 -1.02021 0
M  V30 1750 H 169.275 3.64849 0.770672 0
M  V30 1751 N 171.46 0.379036 1.52974 0
M  V30 1752 C 172.39 -0.452706 2.29069 0
M  V30 1753 C 173.371 -1.07237 1.32039 0
M  V30 1754 O 174.556 -1.08708 1.60923 0
M  V30 1755 C 171.686 -1.5856 3.08992 0
M  V30 1756 C 170.64 -1.0925 4.13822 0
M  V30 1757 C 169.966 -2.31668 4.81907 0
M  V30 1758 C 171.266 -0.167702 5.22031 0
M  V30 1759 H 172.96 0.182181 2.98845 0
M  V30 1760 H 170.506 0.0890592 1.43724 0
M  V30 1761 H 172.459 -2.1742 3.6098 0
M  V30 1762 H 171.183 -2.24792 2.36931 0
M  V30 1763 H 169.842 -0.526494 3.628 0
M  V30 1764 H 169.49 -2.96386 4.06404 0
M  V30 1765 H 169.19 -1.9934 5.52754 0
M  V30 1766 H 170.714 -2.91189 5.36695 0
M  V30 1767 H 172.128 -0.664186 5.6944 0
M  V30 1768 H 170.525 0.0653265 6.00064 0
M  V30 1769 H 171.595 0.786347 4.78482 0
M  V30 1770 N 172.938 -1.57226 0.108567 0
M  V30 1771 C 174.163 -1.99604 -0.563303 0
M  V30 1772 C 174.588 -0.987563 -1.6009 0
M  V30 1773 O 173.946 0.0421687 -1.81251 0
M  V30 1774 C 173.994 -3.40902 -1.17552 0
M  V30 1775 O 173.098 -3.42896 -2.2912 0
M  V30 1776 H 172.439 -0.648704 -0.1417 0
M  V30 1777 H 174.969 -2.03679 0.193961 0
M  V30 1778 H 174.979 -3.78886 -1.51357 0
M  V30 1779 H 173.654 -4.1382 -0.415445 0
M  V30 1780 H 172.231 -3.1672 -1.96832 0
M  V30 1781 N 174.416 0.165178 -1.56732 0
M  V30 1782 C 175.363 1.2044 -1.96883 0
M  V30 1783 C 176.333 1.43664 -0.833657 0
M  V30 1784 O 177.518 1.56302 -1.09427 0
M  V30 1785 C 174.658 2.53727 -2.33916 0
M  V30 1786 C 173.771 2.3783 -3.6064 0
M  V30 1787 C 172.906 3.64026 -3.86857 0
M  V30 1788 C 171.945 3.43088 -5.06909 0
M  V30 1789 N 171.082 4.61369 -5.29229 0
M  V30 1790 H 175.922 0.854996 -2.85471 0
M  V30 1791 H 173.459 0.41076 -1.41249 0
M  V30 1792 H 175.417 3.31419 -2.53411 0
M  V30 1793 H 174.047 2.8665 -1.48431 0
M  V30 1794 H 173.099 1.51282 -3.49024 0
M  V30 1795 H 174.411 2.18308 -4.4849 0
M  V30 1796 H 173.565 4.50152 -4.06753 0
M  V30 1797 H 172.304 3.86533 -2.97394 0
M  V30 1798 H 171.309 2.55349 -4.86906 0
M  V30 1799 H 172.534 3.21997 -5.97909 0
M  V30 1800 H 170.48 4.84084 -4.42718 0
M  V30 1801 H 170.397 4.44783 -6.11313 0
M  V30 1802 H 171.665 5.48761 -5.53608 0
M  V30 1803 N 175.894 1.51508 0.433938 0
M  V30 1804 C 177.31 1.39759 0.770682 0
M  V30 1805 C 177.51 0.482594 1.95636 0
M  V30 1806 O 176.566 -0.0609691 2.52426 0
M  V30 1807 C 177.879 2.81851 1.04787 0
M  V30 1808 C 179.427 2.91025 1.1521 0
M  V30 1809 C 179.902 4.34032 1.46219 0
M  V30 1810 N 181.393 4.37154 1.53136 0
M  V30 1811 C 182.128 5.4484 1.78709 0
M  V30 1812 N 181.624 6.62682 2.02051 0
M  V30 1813 N 183.417 5.32324 1.80519 0
M  V30 1814 H 175.568 2.09548 -0.346892 0
M  V30 1815 H 177.831 0.943446 -0.0928074 0
M  V30 1816 H 177.537 3.50815 0.249304 0
M  V30 1817 H 177.411 3.21386 1.97461 0
M  V30 1818 H 179.798 2.22257 1.94128 0
M  V30 1819 H 179.879 2.54983 0.204281 0
M  V30 1820 H 179.523 5.03351 0.678274 0
M  V30 1821 H 179.453 4.6759 2.42212 0
M  V30 1822 H 181.944 3.52197 1.36987 0
M  V30 1823 H 182.257 7.40543 2.20943 0
M  V30 1824 H 180.602 6.65791 1.99366 0
M  V30 1825 H 183.793 4.39246 1.61805 0
M  V30 1826 H 183.966 6.16328 2.00111 0
M  V30 1827 N 177.372 -0.689602 1.41712 0
M  V30 1828 C 178.783 -1.26973 1.36875 0
M  V30 1829 C 179.134 -1.96124 0.054748 0
M  V30 1830 O 178.259 -1.99141 -0.84687 0
M  V30 1831 C 178.854 -2.30912 2.47922 0
M  V30 1832 C 177.413 -2.84486 2.46464 0
M  V30 1833 C 176.56 -1.58603 2.27465 0
M  V30 1834 H 179.511 -0.48396 1.51141 0
M  V30 1835 H 179.532 -3.12331 2.17323 0
M  V30 1836 H 179.044 -1.80554 3.43543 0
M  V30 1837 H 177.145 -3.39005 1.54617 0
M  V30 1838 H 177.258 -3.34511 3.42986 0
M  V30 1839 H 175.622 -1.84632 1.75451 0
M  V30 1840 H 176.405 -1.10233 3.25121 0
M  V30 1841 N 178.85 -1.27639 -0.924453 0
M  V30 1842 C 179.783 -1.04966 -2.02626 0
M  V30 1843 C 180.761 0.0309505 -1.62571 0
M  V30 1844 O 181.945 -0.114846 -1.8815 0
M  V30 1845 C 179.072 -0.59292 -3.3347 0
M  V30 1846 C 178.118 -1.66858 -3.92506 0
M  V30 1847 S 178.951 -3.2619 -4.24689 0
M  V30 1848 C 180.107 -2.82325 -5.58609 0
M  V30 1849 H 180.34 -1.98252 -2.21547 0
M  V30 1850 H 177.873 -1.11506 -1.06798 0
M  V30 1851 H 179.831 -0.336086 -4.09122 0
M  V30 1852 H 178.492 0.319939 -3.12466 0
M  V30 1853 H 177.685 -1.30038 -4.86935 0
M  V30 1854 H 177.287 -1.87766 -3.2345 0
M  V30 1855 H 179.579 -2.2783 -6.38044 0
M  V30 1856 H 180.522 -3.75511 -6.00331 0
M  V30 1857 H 180.93 -2.21367 -5.19285 0
M  V30 1858 N 180.328 1.1314 -1.09713 0
M  V30 1859 C 181.605 1.80762 -0.747302 0
M  V30 1860 C 181.985 1.96663 0.767265 0
M  V30 1861 O 181.333 1.53706 1.69076 0
M  V30 1862 C 181.543 3.15606 -1.48975 0
M  V30 1863 C 182.891 3.90914 -1.65746 0
M  V30 1864 O 183.915 3.25239 -1.45251 0
M  V30 1865 O 182.774 5.08718 -1.9967 0
M  V30 1866 H 179.868 0.782103 -0.268782 0
M  V30 1867 H 182.414 1.20041 -1.19951 0
M  V30 1868 H 181.186 2.99278 -2.52088 0
M  V30 1869 H 180.809 3.84029 -1.02991 0
M  V30 1870 N 181.806 0.884767 1.30421 0
M  V30 1871 C 183.222 0.57874 1.48737 0
M  V30 1872 C 183.422 -0.883567 1.81095 0
M  V30 1873 O 182.478 -1.6648 1.89844 0
M  V30 1874 C 183.791 1.49171 2.61091 0
M  V30 1875 C 185.339 1.49532 2.74971 0
M  V30 1876 C 185.814 2.39421 3.90438 0
M  V30 1877 N 187.305 2.37383 3.97748 0
M  V30 1878 C 188.04 3.03647 4.86401 0
M  V30 1879 N 187.536 3.79136 5.79852 0
M  V30 1880 N 189.329 2.9288 4.79768 0
M  V30 1881 H 181.48 1.83075 1.0769 0
M  V30 1882 H 183.743 0.783637 0.533495 0
M  V30 1883 H 183.449 2.53291 2.44001 0
M  V30 1884 H 183.323 1.20113 3.57565 0
M  V30 1885 H 185.71 0.46163 2.91467 0
M  V30 1886 H 185.791 1.8262 1.79119 0
M  V30 1887 H 185.435 3.42874 3.74699 0
M  V30 1888 H 185.365 2.03649 4.85628 0
M  V30 1889 H 187.856 1.82525 3.30897 0
M  V30 1890 H 188.169 4.26789 6.4426 0
M  V30 1891 H 186.514 3.83243 5.79784 0
M  V30 1892 H 189.705 2.33433 4.05742 0
M  V30 1893 H 189.878 3.448 5.4865 0
M  V30 1894 N 183.284 -1.43765 0.645699 0
M  V30 1895 C 184.53 -2.02197 0.156271 0
M  V30 1896 C 184.863 -1.50776 -1.22393 0
M  V30 1897 O 184.138 -0.697771 -1.81553 0
M  V30 1898 C 184.421 -3.59749 0.158872 0
M  V30 1899 C 184.274 -4.21419 1.57245 0
M  V30 1900 C 185.593 -4.37149 -0.50879 0
M  V30 1901 H 182.712 -0.734694 0.0582602 0
M  V30 1902 H 185.354 -1.71157 0.824951 0
M  V30 1903 H 183.504 -3.86325 -0.410525 0
M  V30 1904 H 185.176 -4.059 2.19186 0
M  V30 1905 H 183.419 -3.78356 2.122 0
M  V30 1906 H 184.09 -5.30482 1.52619 0
M  V30 1907 H 186.566 -4.16093 -0.024412 0
M  V30 1908 H 185.442 -5.4683 -0.476213 0
M  V30 1909 H 185.703 -4.12839 -1.58165 0
M  V30 1910 N 184.763 -0.387143 -1.52771 0
M  V30 1911 C 185.991 0.195869 -2.05971 0
M  V30 1912 C 186.406 1.40691 -1.25903 0
M  V30 1913 O 185.763 1.79931 -0.305134 0
M  V30 1914 C 185.814 0.56812 -3.57008 0
M  V30 1915 O 185.535 -0.594803 -4.34043 0
M  V30 1916 C 187.036 1.20723 -4.26545 0
M  V30 1917 H 184.256 0.0300578 -0.670326 0
M  V30 1918 H 186.8 -0.551749 -1.96916 0
M  V30 1919 H 184.955 1.26564 -3.66143 0
M  V30 1920 H 185.369 -0.289322 -5.23701 0
M  V30 1921 H 186.843 1.41807 -5.33474 0
M  V30 1922 H 187.32 2.17395 -3.81623 0
M  V30 1923 H 187.926 0.550535 -4.21722 0
M  V30 1924 N 186.241 1.57166 -0.116904 0
M  V30 1925 C 187.171 2.18222 0.830759 0
M  V30 1926 C 188.152 1.12167 1.27877 0
M  V30 1927 O 189.337 1.40394 1.34176 0
M  V30 1928 C 186.467 2.77996 2.08172 0
M  V30 1929 C 185.421 3.89614 1.77157 0
M  V30 1930 C 184.747 4.36187 3.09265 0
M  V30 1931 C 186.047 5.1181 1.04151 0
M  V30 1932 H 187.741 2.97664 0.321992 0
M  V30 1933 H 185.287 1.4318 0.153434 0
M  V30 1934 H 187.24 3.19366 2.74924 0
M  V30 1935 H 185.964 1.9584 2.6137 0
M  V30 1936 H 184.623 3.48816 1.12796 0
M  V30 1937 H 184.271 3.50893 3.60393 0
M  V30 1938 H 183.971 5.11455 2.89288 0
M  V30 1939 H 185.495 4.80207 3.77139 0
M  V30 1940 H 186.909 5.50214 1.61052 0
M  V30 1941 H 185.306 5.92648 0.942762 0
M  V30 1942 H 186.376 4.84892 0.0279022 0
M  V30 1943 N 187.719 -0.156864 1.56817 0
M  V30 1944 C 189.13 -0.717916 1.72345 0
M  V30 1945 C 189.481 -1.82124 0.729747 0
M  V30 1946 O 188.606 -2.16141 -0.105781 0
M  V30 1947 C 189.201 -1.30904 3.12489 0
M  V30 1948 C 187.76 -1.81676 3.29653 0
M  V30 1949 C 186.907 -0.701349 2.68284 0
M  V30 1950 H 189.858 0.0686989 1.58551 0
M  V30 1951 H 189.879 -2.17882 3.11942 0
M  V30 1952 H 189.391 -0.505796 3.8479 0
M  V30 1953 H 187.492 -2.64598 2.62333 0
M  V30 1954 H 187.605 -1.95226 4.3752 0
M  V30 1955 H 185.969 -1.12548 2.28484 0
M  V30 1956 H 186.752 0.0902846 3.43181 0
M  V30 1957 N 189.197 -1.51736 -0.425897 0
M  V30 1958 C 190.127 -1.76827 -1.52494 0
M  V30 1959 C 191.108 -0.618524 -1.58456 0
M  V30 1960 O 192.293 -0.862416 -1.74 0
M  V30 1961 C 189.423 -1.90374 -2.90474 0
M  V30 1962 C 188.377 -3.0588 -2.99369 0
M  V30 1963 C 187.703 -3.04625 -4.3944 0
M  V30 1964 C 189.003 -4.45644 -2.72394 0
M  V30 1965 H 190.697 -2.68855 -1.31748 0
M  V30 1966 H 188.243 -1.29372 -0.632362 0
M  V30 1967 H 190.196 -2.0651 -3.6733 0
M  V30 1968 H 188.92 -0.95004 -3.12477 0
M  V30 1969 H 187.579 -2.89467 -2.24954 0
M  V30 1970 H 187.227 -2.0701 -4.58428 0
M  V30 1971 H 186.927 -3.82195 -4.46319 0
M  V30 1972 H 188.451 -3.22869 -5.18255 0
M  V30 1973 H 189.865 -4.62348 -3.38979 0
M  V30 1974 H 188.262 -5.25006 -2.9067 0
M  V30 1975 H 189.332 -4.54893 -1.67929 0
M  V30 1976 N 190.675 0.682077 -1.42076 0
M  V30 1977 C 191.622 1.79578 -1.44984 0
M  V30 1978 C 192.592 1.6332 -0.302614 0
M  V30 1979 O 193.777 1.83978 -0.505633 0
M  V30 1980 C 190.917 3.1756 -1.35091 0
M  V30 1981 C 190.03 3.45156 -2.59791 0
M  V30 1982 C 189.165 4.72826 -2.42093 0
M  V30 1983 C 188.204 4.93433 -3.62202 0
M  V30 1984 N 187.341 6.12338 -3.43491 0
M  V30 1985 H 192.181 1.76427 -2.40161 0
M  V30 1986 H 189.718 0.861376 -1.19242 0
M  V30 1987 H 191.676 3.97287 -1.27354 0
M  V30 1988 H 190.306 3.19854 -0.435133 0
M  V30 1989 H 189.358 2.59736 -2.77923 0
M  V30 1990 H 190.67 3.5628 -3.49094 0
M  V30 1991 H 189.824 5.60631 -2.319 0
M  V30 1992 H 188.563 4.63973 -1.50268 0
M  V30 1993 H 187.568 4.04073 -3.72834 0
M  V30 1994 H 188.793 5.04136 -4.54998 0
M  V30 1995 H 186.739 6.04672 -2.54377 0
M  V30 1996 H 186.656 6.2429 -4.26377 0
M  V30 1997 H 187.924 7.02841 -3.37097 0
M  V30 1998 N 192.153 1.28127 0.917671 0
M  V30 1999 C 193.1 1.11717 2.0196 0
M  V30 2000 C 194.07 0.0153929 1.66093 0
M  V30 2001 O 195.255 0.179596 1.89953 0
M  V30 2002 C 192.395 0.780927 3.36148 0
M  V30 2003 C 191.508 1.96135 3.84909 0
M  V30 2004 C 190.643 1.56609 5.0759 0
M  V30 2005 C 189.682 2.71339 5.48673 0
M  V30 2006 N 188.819 2.32332 6.62545 0
M  V30 2007 H 193.659 2.06003 2.15329 0
M  V30 2008 H 191.196 1.02535 1.05475 0
M  V30 2009 H 193.154 0.56675 4.13333 0
M  V30 2010 H 191.784 -0.124998 3.22558 0
M  V30 2011 H 190.836 2.28777 3.03916 0
M  V30 2012 H 192.148 2.82165 4.1132 0
M  V30 2013 H 191.302 1.31374 5.92305 0
M  V30 2014 H 190.041 0.677014 4.82978 0
M  V30 2015 H 189.046 2.97276 4.62501 0
M  V30 2016 H 190.271 3.60882 5.75274 0
M  V30 2017 H 188.217 1.45889 6.39572 0
M  V30 2018 H 188.134 3.11899 6.88662 0
M  V30 2019 H 189.402 2.10371 7.50576 0
M  V30 2020 N 193.631 -1.12557 1.10312 0
M  V30 2021 C 194.564 -2.1737 0.694674 0
M  V30 2022 C 195.542 -1.59745 -0.303373 0
M  V30 2023 O 196.726 -1.87408 -0.202578 0
M  V30 2024 C 193.853 -3.38691 0.0248052 0
M  V30 2025 C 192.899 -4.14943 0.986121 0
M  V30 2026 S 193.732 -4.73413 2.50281 0
M  V30 2027 C 194.888 -5.9807 1.84562 0
M  V30 2028 H 195.121 -2.5168 1.58255 0
M  V30 2029 H 192.654 -1.23998 0.919992 0
M  V30 2030 H 194.612 -4.08959 -0.355361 0
M  V30 2031 H 193.273 -3.02664 -0.839851 0
M  V30 2032 H 192.466 -5.01854 0.464651 0
M  V30 2033 H 192.068 -3.50377 1.30813 0
M  V30 2034 H 194.36 -6.67232 1.17507 0
M  V30 2035 H 195.303 -6.54841 2.69423 0
M  V30 2036 H 195.711 -5.49073 1.31069 0
M  V30 2037 N 195.109 -0.891671 -1.2995 0
M  V30 2038 C 196.357 -0.512486 -1.95494 0
M  V30 2039 C 196.678 0.942776 -1.70695 0
M  V30 2040 O 195.948 1.66374 -1.03424 0
M  V30 2041 H 194.528 -0.186533 -0.723336 0
M  V30 2042 H 197.19 -1.13621 -1.58355 0
M  V30 2043 H 196.286 -0.688342 -3.04415 0
M  V30 2044 N 196.587 1.43421 -0.653314 0
M  V30 2045 C 197.833 2.02111 -0.166992 0
M  V30 2046 C 198.166 1.51423 1.21592 0
M  V30 2047 O 197.441 0.707389 1.8118 0
M  V30 2048 C 197.724 3.5966 -0.177948 0
M  V30 2049 C 197.577 4.20579 -1.59478 0
M  V30 2050 C 198.896 4.37413 0.4856 0
M  V30 2051 H 196.015 0.734374 -0.0621557 0
M  V30 2052 H 198.657 1.70717 -0.834016 0
M  V30 2053 H 196.807 3.86537 0.390032 0
M  V30 2054 H 198.479 4.04732 -2.21336 0
M  V30 2055 H 196.722 3.77226 -2.14204 0
M  V30 2056 H 197.393 5.29665 -1.5543 0
M  V30 2057 H 199.869 4.161 0.00234528 0
M  V30 2058 H 198.745 5.47075 0.447207 0
M  V30 2059 H 199.006 4.13672 1.55974 0
M  V30 2060 N 198.065 0.39524 1.52563 0
M  V30 2061 C 199.29 -0.187456 2.06551 0
M  V30 2062 C 199.715 -1.39249 1.26457 0
M  V30 2063 O 199.073 -1.78947 0.291151 0
M  V30 2064 C 199.121 -0.529985 3.56684 0
M  V30 2065 O 198.225 -1.62307 3.79118 0
M  V30 2066 H 197.566 -0.0202537 0.663691 0
M  V30 2067 H 200.096 0.564426 1.96661 0
M  V30 2068 H 200.106 -0.792598 4.00227 0
M  V30 2069 H 198.781 0.350987 4.14416 0
M  V30 2070 H 197.358 -1.3537 3.47461 0
M  V30 2071 N 199.544 -1.57102 0.125237 0
M  V30 2072 C 200.793 -1.94582 -0.531095 0
M  V30 2073 C 201.106 -1.01126 -1.6743 0
M  V30 2074 O 202.312 -1.28097 -2.39381 0
M  V30 2075 C 200.768 -3.45839 -0.996164 0
M  V30 2076 C 200.376 -4.47842 0.118926 0
M  V30 2077 C 202.12 -3.92227 -1.62352 0
M  V30 2078 C 200.027 -5.90284 -0.363192 0
M  V30 2079 H 198.957 -0.726391 -0.20217 0
M  V30 2080 H 201.608 -1.82339 0.206092 0
M  V30 2081 H 199.99 -3.53338 -1.78796 0
M  V30 2082 H 201.164 -4.52018 0.895358 0
M  V30 2083 H 199.479 -4.11243 0.653324 0
M  V30 2084 H 202.076 -4.96069 -1.99548 0
M  V30 2085 H 202.419 -3.32552 -2.50429 0
M  V30 2086 H 202.952 -3.87554 -0.897019 0
M  V30 2087 H 199.691 -6.53728 0.481679 0
M  V30 2088 H 199.211 -5.89515 -1.10597 0
M  V30 2089 H 200.89 -6.41752 -0.822377 0
M  V30 2090 N 201.022 0.148545 -1.56898 0
M  V30 2091 C 202.247 0.880385 -1.87787 0
M  V30 2092 C 202.672 1.74018 -0.714093 0
M  V30 2093 O 202.03 1.78153 0.336343 0
M  V30 2094 C 202.078 1.71422 -3.17249 0
M  V30 2095 O 201.182 2.8183 -3.01074 0
M  V30 2096 H 200.523 0.245301 -0.617028 0
M  V30 2097 H 203.053 0.139826 -2.04122 0
M  V30 2098 H 203.063 2.10954 -3.49231 0
M  V30 2099 H 201.738 1.08284 -4.01556 0
M  V30 2100 H 200.315 2.45715 -2.80497 0
M  V30 2101 N 202.5 1.5196 0.417844 0
M  V30 2102 C 203.748 1.65263 1.16329 0
M  V30 2103 C 204.069 0.380634 1.91249 0
M  V30 2104 O 203.339 -0.604214 1.86349 0
M  V30 2105 H 201.919 0.60912 0.432414 0
M  V30 2106 H 204.581 1.88969 0.477162 0
M  V30 2107 H 203.677 2.4896 1.88217 0
M  V30 2108 N 203.978 -0.674533 1.42435 0
M  V30 2109 C 204.91 -1.80005 1.41883 0
M  V30 2110 C 205.923 -1.59667 0.31787 0
M  V30 2111 O 207.112 -1.68781 0.580973 0
M  V30 2112 C 204.212 -3.17114 1.19549 0
M  V30 2113 C 203.385 -3.64299 2.42084 0
M  V30 2114 C 202.444 -4.80142 2.15291 0
M  V30 2115 O 201.47 -4.90673 2.88493 0
M  V30 2116 N 202.672 -5.68869 1.1562 0
M  V30 2117 H 205.437 -1.80964 2.38898 0
M  V30 2118 H 202.998 -0.857633 1.37318 0
M  V30 2119 H 204.99 -3.92267 0.995417 0
M  V30 2120 H 203.56 -3.11053 0.310569 0
M  V30 2121 H 202.78 -2.79822 2.77657 0
M  V30 2122 H 204.068 -3.92567 3.23679 0
M  V30 2123 H 203.466 -5.63012 0.550765 0
M  V30 2124 H 202.023 -6.43833 1.016 0
M  V30 2125 N 205.456 -1.28612 -0.910864 0
M  V30 2126 C 206.684 -1.18792 -1.69399 0
M  V30 2127 C 207.099 0.253039 -1.87097 0
M  V30 2128 O 206.456 1.17071 -1.40003 0
M  V30 2129 C 206.507 -1.88511 -3.08457 0
M  V30 2130 O 206.228 -3.26979 -2.91576 0
M  V30 2131 C 207.729 -1.85029 -4.02839 0
M  V30 2132 H 204.949 -0.412233 -0.529438 0
M  V30 2133 H 207.493 -1.69788 -1.13984 0
M  V30 2134 H 205.648 -1.41379 -3.60681 0
M  V30 2135 H 206.062 -3.61936 -3.79608 0
M  V30 2136 H 207.536 -2.38395 -4.97867 0
M  V30 2137 H 208.013 -0.823303 -4.31414 0
M  V30 2138 H 208.619 -2.31853 -3.56545 0
M  V30 2139 N 206.934 1.1197 -1.10907 0
M  V30 2140 C 207.844 2.21433 -0.774896 0
M  V30 2141 C 208.86 1.72478 0.229657 0
M  V30 2142 O 210.036 2.01288 0.0672008 0
M  V30 2143 C 207.101 3.4602 -0.216986 0
M  V30 2144 C 206.162 4.09791 -1.27944 0
M  V30 2145 C 205.395 5.28431 -0.748055 0
M  V30 2146 O 205.618 5.68823 0.423833 0
M  V30 2147 O 204.552 5.82644 -1.51027 0
M  V30 2148 H 208.378 2.5242 -1.68873 0
M  V30 2149 H 205.963 1.20399 -0.884555 0
M  V30 2150 H 207.845 4.21304 0.090059 0
M  V30 2151 H 206.52 3.16698 0.669633 0
M  V30 2152 H 205.427 3.36265 -1.63941 0
M  V30 2153 H 206.76 4.4328 -2.13925 0
M  V30 2154 N 208.412 0.89855 1.29475 0
M  V30 2155 C 209.828 0.594483 1.48115 0
M  V30 2156 C 210.028 -0.86431 1.82022 0
M  V30 2157 O 209.084 -1.64457 1.91599 0
M  V30 2158 C 210.397 1.51932 2.59494 0
M  V30 2159 C 211.945 1.5244 2.7337 0
M  V30 2160 C 212.42 2.43548 3.87877 0
M  V30 2161 N 213.911 2.41589 3.95208 0
M  V30 2162 C 214.646 3.08789 4.83153 0
M  V30 2163 N 214.142 3.85265 5.75798 0
M  V30 2164 N 215.935 2.97952 4.76635 0
M  V30 2165 H 208.086 1.84207 1.05742 0
M  V30 2166 H 210.349 0.789251 0.525154 0
M  V30 2167 H 210.055 2.55865 2.41301 0
M  V30 2168 H 209.929 1.23899 3.56271 0
M  V30 2169 H 212.316 0.492518 2.90961 0
M  V30 2170 H 212.397 1.8451 1.77172 0
M  V30 2171 H 212.041 3.46829 3.71041 0
M  V30 2172 H 211.971 2.08788 4.83441 0
M  V30 2173 H 214.462 1.86025 3.28943 0
M  V30 2174 H 214.775 4.33598 6.39697 0
M  V30 2175 H 213.12 3.89371 5.75687 0
M  V30 2176 H 216.311 2.37723 4.03244 0
M  V30 2177 H 216.484 3.50599 5.44962 0
M  V30 2178 N 209.89 -1.43072 0.660911 0
M  V30 2179 C 211.167 -1.95307 0.107017 0
M  V30 2180 C 211.547 -1.60192 -1.37484 0
M  V30 2181 O 210.895 -0.890949 -2.10415 0
M  V30 2182 C 211.105 -3.47124 0.361402 0
M  V30 2183 C 212.453 -4.23738 0.270455 0
M  V30 2184 O 213.477 -3.54981 0.294382 0
M  V30 2185 O 212.336 -5.46131 0.200737 0
M  V30 2186 H 209.43 -0.826984 -0.00517729 0
M  V30 2187 H 211.976 -1.52972 0.734681 0
M  V30 2188 H 210.748 -3.65837 1.38848 0
M  V30 2189 H 210.371 -3.96475 -0.298953 0
M  V30 2190 N 211.368 -0.403325 -1.52352 0
M  V30 2191 C 212.298 0.416205 -2.29761 0
M  V30 2192 C 213.279 1.05123 -1.33728 0
M  V30 2193 O 214.464 1.06134 -1.62632 0
M  V30 2194 C 211.594 1.53624 -3.11475 0
M  V30 2195 C 210.548 1.02653 -4.15507 0
M  V30 2196 C 209.874 2.23971 -4.85532 0
M  V30 2197 C 211.174 0.08463 -5.22231 0
M  V30 2198 H 212.868 -0.229701 -2.98518 0
M  V30 2199 H 210.414 -0.111913 -1.43564 0
M  V30 2200 H 212.367 2.1165 -3.64393 0
M  V30 2201 H 211.091 2.20994 -2.40477 0
M  V30 2202 H 209.75 0.46871 -3.63591 0
M  V30 2203 H 209.398 2.89883 -4.11068 0
M  V30 2204 H 209.098 1.90521 -5.55856 0
M  V30 2205 H 210.622 2.82614 -5.41259 0
M  V30 2206 H 212.036 0.573509 -5.70424 0
M  V30 2207 H 210.433 -0.160783 -5.99885 0
M  V30 2208 H 211.503 -0.86237 -4.7717 0
M  V30 2209 N 212.846 1.57033 -0.133567 0
M  V30 2210 C 214.257 1.82593 0.389464 0
M  V30 2211 C 214.608 1.05156 1.6564 0
M  V30 2212 O 213.733 0.292644 2.14412 0
M  V30 2213 C 214.328 3.31204 0.713377 0
M  V30 2214 C 212.887 3.57393 1.18098 0
M  V30 2215 C 212.034 2.76598 0.197126 0
M  V30 2216 H 214.985 1.54598 -0.358481 0
M  V30 2217 H 215.006 3.46627 1.56939 0
M  V30 2218 H 214.518 3.87537 -0.2089 0
M  V30 2219 H 212.619 3.06433 2.11966 0
M  V30 2220 H 212.732 4.65915 1.11624 0
M  V30 2221 H 211.096 2.45257 0.687088 0
M  V30 2222 H 211.879 3.35697 -0.718504 0
M  V30 2223 N 214.325 -0.140222 1.56975 0
M  V30 2224 C 215.736 -0.699596 1.73097 0
M  V30 2225 C 216.087 -1.8134 0.749022 0
M  V30 2226 O 215.212 -2.16241 -0.0828503 0
M  V30 2227 C 215.807 -1.27582 3.1386 0
M  V30 2228 C 214.366 -1.78169 3.31561 0
M  V30 2229 C 213.513 -0.672855 2.69013 0
M  V30 2230 H 216.464 0.0855115 1.58469 0
M  V30 2231 H 216.485 -2.14561 3.14235 0
M  V30 2232 H 215.997 -0.464955 3.85305 0
M  V30 2233 H 214.098 -2.61801 2.65124 0
M  V30 2234 H 214.211 -1.90574 4.39566 0
M  V30 2235 H 212.575 -1.10118 2.29665 0
M  V30 2236 H 213.358 0.126679 3.43066 0
M  V30 2237 N 215.803 -1.52179 -0.40978 0
M  V30 2238 C 216.733 -1.78435 -1.5061 0
M  V30 2239 C 217.714 -0.635295 -1.57791 0
M  V30 2240 O 218.899 -0.880823 -1.73076 0
M  V30 2241 C 216.029 -1.93444 -2.88439 0
M  V30 2242 C 214.983 -3.09038 -2.96108 0
M  V30 2243 C 214.309 -3.09268 -4.36185 0
M  V30 2244 C 215.609 -4.48508 -2.67652 0
M  V30 2245 H 217.303 -2.70237 -1.28889 0
M  V30 2246 H 214.849 -1.30036 -0.618605 0
M  V30 2247 H 216.802 -2.10394 -3.65119 0
M  V30 2248 H 215.526 -0.983129 -3.11452 0
M  V30 2249 H 214.185 -2.91837 -2.21872 0
M  V30 2250 H 213.833 -2.11861 -4.56206 0
M  V30 2251 H 213.533 -3.86907 -4.42241 0
M  V30 2252 H 215.057 -3.28348 -5.14801 0
M  V30 2253 H 216.471 -4.65918 -3.34056 0
M  V30 2254 H 214.868 -5.28059 -2.85085 0
M  V30 2255 H 215.938 -4.56649 -1.63095 0
M  V30 2256 N 217.281 0.66697 -1.42791 0
M  V30 2257 C 218.697 0.981027 -1.25889 0
M  V30 2258 C 218.897 2.00793 -0.168695 0
M  V30 2259 O 217.953 2.48321 0.45747 0
M  V30 2260 C 219.266 1.47838 -2.61848 0
M  V30 2261 C 220.814 1.59575 -2.69267 0
M  V30 2262 C 221.289 2.12704 -4.05612 0
M  V30 2263 N 222.78 2.20026 -4.07606 0
M  V30 2264 C 223.515 2.62227 -5.09926 0
M  V30 2265 N 223.011 3.03824 -6.22626 0
M  V30 2266 N 224.804 2.62045 -4.97281 0
M  V30 2267 H 216.955 -0.0127891 -2.12396 0
M  V30 2268 H 219.218 0.0568258 -0.946295 0
M  V30 2269 H 218.924 0.798299 -3.4252 0
M  V30 2270 H 218.798 2.45579 -2.86305 0
M  V30 2271 H 221.185 2.26687 -1.88936 0
M  V30 2272 H 221.266 0.60302 -2.48591 0
M  V30 2273 H 220.91 1.46198 -4.86404 0
M  V30 2274 H 220.84 3.12782 -4.23645 0
M  V30 2275 H 223.331 1.90708 -3.2625 0
M  V30 2276 H 223.644 3.34734 -6.96544 0
M  V30 2277 H 221.989 3.01662 -6.26119 0
M  V30 2278 H 225.18 2.28916 -4.08308 0
M  V30 2279 H 225.353 2.94613 -5.77154 0
M  V30 2280 N 218.759 1.29093 0.90403 0
M  V30 2281 C 219.689 1.16401 2.02418 0
M  V30 2282 C 220.67 0.0593085 1.69997 0
M  V30 2283 O 221.855 0.238021 1.92736 0
M  V30 2284 C 218.985 0.835233 3.37107 0
M  V30 2285 C 217.939 1.89578 3.83724 0
M  V30 2286 C 217.265 1.42041 5.15489 0
M  V30 2287 C 218.565 3.30394 4.04521 0
M  V30 2288 H 220.259 2.10109 2.13295 0
M  V30 2289 H 217.805 1.01157 1.02486 0
M  V30 2290 H 219.758 0.733169 4.14973 0
M  V30 2291 H 218.482 -0.137543 3.2631 0
M  V30 2292 H 217.141 1.98715 3.08071 0
M  V30 2293 H 216.789 0.436426 5.01103 0
M  V30 2294 H 216.489 2.12964 5.4765 0
M  V30 2295 H 218.013 1.33176 5.959 0
M  V30 2296 H 219.427 3.24123 4.72882 0
M  V30 2297 H 217.824 3.99237 4.48029 0
M  V30 2298 H 218.894 3.73692 3.09002 0
M  V30 2299 N 220.237 -1.11381 1.11499 0
M  V30 2300 C 221.184 -2.17439 0.773887 0
M  V30 2301 C 222.154 -1.64132 -0.254899 0
M  V30 2302 O 223.339 -1.90345 -0.13168 0
M  V30 2303 C 220.479 -3.44373 0.223917 0
M  V30 2304 C 219.592 -4.1168 1.30934 0
M  V30 2305 C 218.727 -5.263 0.71984 0
M  V30 2306 C 217.766 -5.85493 1.78507 0
M  V30 2307 N 216.903 -6.91507 1.21502 0
M  V30 2308 H 221.743 -2.45962 1.68246 0
M  V30 2309 H 219.28 -1.20744 0.840191 0
M  V30 2310 H 221.238 -4.17047 -0.112921 0
M  V30 2311 H 219.868 -3.16232 -0.647851 0
M  V30 2312 H 218.92 -3.37073 1.76312 0
M  V30 2313 H 220.232 -4.51729 2.11524 0
M  V30 2314 H 219.386 -6.05785 0.333094 0
M  V30 2315 H 218.125 -4.87559 -0.117377 0
M  V30 2316 H 217.13 -5.04686 2.18111 0
M  V30 2317 H 218.355 -6.26301 2.62533 0
M  V30 2318 H 216.301 -6.54783 0.399455 0
M  V30 2319 H 216.218 -7.30214 1.95763 0
M  V30 2320 H 217.486 -7.74795 0.855181 0
M  V30 2321 N 221.715 -0.905404 -1.28997 0
M  V30 2322 C 222.963 -0.533192 -1.9494 0
M  V30 2323 C 223.284 0.924618 -1.71685 0
M  V30 2324 O 222.554 1.65268 -1.05183 0
M  V30 2325 H 221.134 -0.194194 -0.721317 0
M  V30 2326 H 223.796 -1.15294 -1.57141 0
M  V30 2327 H 222.892 -0.72059 -3.03667 0
M  V30 2328 N 223.193 1.4272 -0.668489 0
M  V30 2329 C 224.421 2.05966 -0.196348 0
M  V30 2330 C 224.836 1.50191 1.14403 0
M  V30 2331 O 224.193 0.639208 1.7094 0
M  V30 2332 C 224.244 3.61314 -0.115815 0
M  V30 2333 O 223.965 4.1502 -1.40322 0
M  V30 2334 C 225.466 4.41663 0.380579 0
M  V30 2335 H 222.686 0.663954 -0.0969829 0
M  V30 2336 H 225.23 1.82966 -0.913446 0
M  V30 2337 H 223.385 3.83448 0.551931 0
M  V30 2338 H 223.799 5.08832 -1.27243 0
M  V30 2339 H 225.273 5.5065 0.385848 0
M  V30 2340 H 225.75 4.15792 1.41471 0
M  V30 2341 H 226.356 4.24534 -0.255209 0
M  V30 2342 N 224.671 0.411399 1.52136 0
M  V30 2343 C 225.618 -0.412975 2.27075 0
M  V30 2344 C 226.588 -1.03912 1.29582 0
M  V30 2345 O 227.773 -1.06296 1.58448 0
M  V30 2346 C 224.913 -1.52247 3.09701 0
M  V30 2347 C 224.026 -0.917021 4.22155 0
M  V30 2348 C 223.161 -1.9994 4.92135 0
M  V30 2349 C 222.2 -1.37101 5.96548 0
M  V30 2350 N 221.337 -2.39364 6.60038 0
M  V30 2351 H 226.177 0.232499 2.97092 0
M  V30 2352 H 223.714 0.126496 1.46555 0
M  V30 2353 H 225.672 -2.17674 3.55913 0
M  V30 2354 H 224.302 -2.13794 2.41851 0
M  V30 2355 H 223.354 -0.151742 3.80097 0
M  V30 2356 H 224.666 -0.418006 4.97045 0
M  V30 2357 H 223.82 -2.73088 5.41763 0
M  V30 2358 H 222.559 -2.53208 4.16818 0
M  V30 2359 H 221.564 -0.624873 5.46237 0
M  V30 2360 H 222.789 -0.845998 6.7381 0
M  V30 2361 H 220.735 -2.91759 5.87548 0
M  V30 2362 H 220.652 -1.9428 7.3061 0
M  V30 2363 H 221.92 -3.12074 7.14304 0
M  V30 2364 N 226.149 -1.5696 0.141893 0
M  V30 2365 C 227.097 -2.17784 -0.816874 0
M  V30 2366 C 228.091 -1.1334 -1.25899 0
M  V30 2367 O 229.297 -1.316 -1.22806 0
M  V30 2368 H 225.672 -0.697278 -0.281615 0
M  V30 2369 H 227.643 -2.97087 -0.279621 0
M  V30 2370 C 226.392 -2.80983 -2.04802 0
M  V30 2371 H 225.715 -3.61062 -1.7168 0
M  V30 2372 H 227.155 -3.2705 -2.69841 0
M  V30 2373 C 225.614 -1.79228 -2.8527 0
M  V30 2374 O 226.144 -1.25962 -3.8144 0
M  V30 2375 N 224.35 -1.48647 -2.49704 0
M  V30 2376 H 223.897 -1.92155 -1.71564 0
M  V30 2377 H 223.855 -0.808115 -3.03837 0
M  V30 2378 N 227.627 0.131896 -1.57047 0
M  V30 2379 C 228.557 1.16384 -2.02428 0
M  V30 2380 C 229.538 1.43936 -0.90644 0
M  V30 2381 O 230.723 1.54599 -1.17528 0
M  V30 2382 C 227.853 2.49328 -2.4177 0
M  V30 2383 C 226.807 2.36266 -3.56879 0
M  V30 2384 C 226.133 3.74057 -3.8208 0
M  V30 2385 C 227.433 1.834 -4.89042 0
M  V30 2386 H 229.127 0.786433 -2.88887 0
M  V30 2387 H 226.673 0.376855 -1.38981 0
M  V30 2388 H 228.626 3.21759 -2.7212 0
M  V30 2389 H 227.35 2.88934 -1.52266 0
M  V30 2390 H 226.009 1.66286 -3.26718 0
M  V30 2391 H 225.657 4.11125 -2.89803 0
M  V30 2392 H 225.357 3.66174 -4.59554 0
M  V30 2393 H 226.881 4.48012 -4.1487 0
M  V30 2394 H 228.295 2.45636 -5.18011 0
M  V30 2395 H 226.692 1.8637 -5.70426 0
M  V30 2396 H 227.762 0.790662 -4.7841 0
M  V30 2397 N 229.106 1.52395 0.401703 0
M  V30 2398 C 230.522 1.41363 0.740864 0
M  V30 2399 C 230.722 0.523982 1.94568 0
M  V30 2400 O 229.778 -0.00741204 2.52499 0
M  V30 2401 C 231.091 2.84011 0.987847 0
M  V30 2402 C 232.639 2.93404 1.09011 0
M  V30 2403 C 233.114 4.37036 1.3698 0
M  V30 2404 N 234.605 4.40304 1.43829 0
M  V30 2405 C 235.34 5.48508 1.67112 0
M  V30 2406 N 234.836 6.66819 1.87949 0
M  V30 2407 N 236.629 5.36034 1.69187 0
M  V30 2408 H 228.78 2.08765 -0.391262 0
M  V30 2409 H 231.043 0.941265 -0.112798 0
M  V30 2410 H 230.749 3.51265 0.174835 0
M  V30 2411 H 230.623 3.25502 1.906 0
M  V30 2412 H 233.01 2.26325 1.8937 0
M  V30 2413 H 233.091 2.55359 0.15015 0
M  V30 2414 H 232.735 5.04676 0.571353 0
M  V30 2415 H 232.665 4.72623 2.3224 0
M  V30 2416 H 235.156 3.55024 1.29486 0
M  V30 2417 H 235.469 7.45063 2.05185 0
M  V30 2418 H 233.814 6.6987 1.85199 0
M  V30 2419 H 237.005 4.42579 1.52451 0
M  V30 2420 H 237.178 6.20434 1.86993 0
M  V30 2421 N 230.584 -0.659388 1.43143 0
M  V30 2422 C 231.995 -1.24041 1.39537 0
M  V30 2423 C 232.346 -1.95963 0.0963364 0
M  V30 2424 O 231.471 -2.00892 -0.804438 0
M  V30 2425 C 232.066 -2.25601 2.52764 0
M  V30 2426 C 230.625 -2.79195 2.52443 0
M  V30 2427 C 229.772 -1.53743 2.30778 0
M  V30 2428 H 232.723 -0.451792 1.52133 0
M  V30 2429 H 232.744 -3.07651 2.23899 0
M  V30 2430 H 232.256 -1.73226 3.47296 0
M  V30 2431 H 230.357 -3.35649 1.61773 0
M  V30 2432 H 230.47 -3.2716 3.50004 0
M  V30 2433 H 228.834 -1.80869 1.79328 0
M  V30 2434 H 229.617 -1.03312 3.27386 0
M  V30 2435 N 232.062 -1.29571 -0.897171 0
M  V30 2436 C 233.311 -1.1706 -1.64256 0
M  V30 2437 C 233.624 0.276476 -1.93636 0
M  V30 2438 O 234.83 0.52294 -2.66416 0
M  V30 2439 C 233.286 -2.0475 -2.95982 0
M  V30 2440 C 232.894 -3.54295 -2.74187 0
M  V30 2441 C 234.638 -2.0097 -3.73914 0
M  V30 2442 C 232.545 -4.34081 -4.01656 0
M  V30 2443 H 231.475 -0.43452 -0.616205 0
M  V30 2444 H 234.126 -1.54229 -0.994268 0
M  V30 2445 H 232.508 -1.60452 -3.62038 0
M  V30 2446 H 233.682 -4.06662 -2.1671 0
M  V30 2447 H 231.997 -3.59773 -2.09648 0
M  V30 2448 H 234.594 -2.57838 -4.68427 0
M  V30 2449 H 234.937 -0.990273 -4.0435 0
M  V30 2450 H 235.47 -2.43325 -3.14703 0
M  V30 2451 H 232.209 -5.36671 -3.76384 0
M  V30 2452 H 231.729 -3.86483 -4.58684 0
M  V30 2453 H 233.408 -4.44877 -4.69781 0
M  V30 2454 N 233.54 1.10788 -1.12088 0
M  V30 2455 C 234.49 2.15158 -0.754401 0
M  V30 2456 C 235.474 1.59026 0.244846 0
M  V30 2457 O 236.666 1.76927 0.0509097 0
M  V30 2458 C 233.795 3.42677 -0.206657 0
M  V30 2459 C 232.881 4.05751 -1.23398 0
M  V30 2460 N 233.272 4.43582 -2.43041 0
M  V30 2461 C 231.57 4.32764 -1.07848 0
M  V30 2462 C 232.271 4.93085 -3.08613 0
M  V30 2463 N 231.247 4.89664 -2.36072 0
M  V30 2464 H 235.049 2.42195 -1.6649 0
M  V30 2465 H 232.563 1.27872 -1.00112 0
M  V30 2466 H 234.56 4.16834 0.0740646 0
M  V30 2467 H 233.22 3.17101 0.698342 0
M  V30 2468 H 234.231 4.35395 -2.80449 0
M  V30 2469 H 230.908 4.16863 -0.230483 0
M  V30 2470 H 232.298 5.31933 -4.10483 0
M  V30 2471 N 235.018 0.912232 1.28515 0
M  V30 2472 C 236.248 0.559604 1.98877 0
M  V30 2473 C 236.656 -0.863113 1.68366 0
M  V30 2474 O 235.999 -1.58304 0.931969 0
M  V30 2475 C 236.061 0.68703 3.52874 0
M  V30 2476 C 235.725 2.07901 4.06972 0
M  V30 2477 C 236.722 3.05157 4.20922 0
M  V30 2478 C 234.407 2.39178 4.417 0
M  V30 2479 C 236.401 4.31806 4.68852 0
M  V30 2480 C 234.088 3.66068 4.89324 0
M  V30 2481 C 235.086 4.62195 5.02856 0
M  V30 2482 O 234.774 5.86829 5.49442 0
M  V30 2483 H 234.506 0.212191 0.641834 0
M  V30 2484 H 237.06 1.22712 1.64715 0
M  V30 2485 H 235.29 -0.0375486 3.86682 0
M  V30 2486 H 236.979 0.341727 4.04459 0
M  V30 2487 H 237.745 2.82311 3.94367 0
M  V30 2488 H 233.624 1.65109 4.30418 0
M  V30 2489 H 237.168 5.06842 4.79329 0
M  V30 2490 H 233.065 3.88739 5.15318 0
M  V30 2491 H 233.833 5.89597 5.6773 0
M  V30 2492 N 236.496 -1.42363 0.676048 0
M  V30 2493 C 237.406 -2.346 -0.00153389 0
M  V30 2494 C 238.422 -1.5516 -0.787485 0
M  V30 2495 O 239.598 -1.87723 -0.729521 0
M  V30 2496 C 236.663 -3.33705 -0.940298 0
M  V30 2497 C 235.724 -4.29042 -0.148739 0
M  V30 2498 C 234.957 -5.23413 -1.04279 0
M  V30 2499 O 235.18 -5.22749 -2.28232 0
M  V30 2500 O 234.114 -5.99795 -0.502925 0
M  V30 2501 H 237.94 -2.94082 0.758268 0
M  V30 2502 H 235.525 -1.42888 0.436289 0
M  V30 2503 H 237.407 -3.94586 -1.47917 0
M  V30 2504 H 236.082 -2.76695 -1.67993 0
M  V30 2505 H 234.989 -3.71571 0.43427 0
M  V30 2506 H 236.322 -4.89097 0.551805 0
M  V30 2507 N 237.974 -0.419461 -1.51915 0
M  V30 2508 C 238.904 0.391813 -2.30189 0
M  V30 2509 C 239.885 1.03699 -1.34836 0
M  V30 2510 O 241.07 1.04403 -1.63748 0
M  V30 2511 C 238.2 1.50312 -3.13087 0
M  V30 2512 C 237.154 0.9824 -4.16573 0
M  V30 2513 C 236.48 2.18809 -4.8788 0
M  V30 2514 C 237.78 0.0292356 -5.22292 0
M  V30 2515 H 239.474 -0.26135 -2.98257 0
M  V30 2516 H 237.02 -0.127134 -1.43438 0
M  V30 2517 H 238.973 2.07773 -3.66617 0
M  V30 2518 H 237.697 2.18431 -2.42807 0
M  V30 2519 H 236.356 0.430119 -3.64068 0
M  V30 2520 H 236.004 2.85507 -4.14119 0
M  V30 2521 H 235.704 1.84615 -5.57845 0
M  V30 2522 H 237.228 2.76858 -5.44226 0
M  V30 2523 H 238.642 0.512976 -5.71 0
M  V30 2524 H 237.039 -0.2244 -5.9968 0
M  V30 2525 H 238.109 -0.912931 -4.76228 0
M  V30 2526 N 239.452 1.56882 -0.150215 0
M  V30 2527 C 240.863 1.82995 0.370076 0
M  V30 2528 C 241.214 1.06907 1.64515 0
M  V30 2529 O 240.339 0.315369 2.1409 0
M  V30 2530 C 240.934 3.31942 0.678208 0
M  V30 2531 C 239.493 3.58625 1.14301 0
M  V30 2532 C 238.64 2.76792 0.167778 0
M  V30 2533 H 241.591 1.54209 -0.374858 0
M  V30 2534 H 241.612 3.48272 1.53254 0
M  V30 2535 H 241.124 3.87294 -0.249991 0
M  V30 2536 H 239.225 3.08664 2.08704 0
M  V30 2537 H 239.338 4.67073 1.06676 0
M  V30 2538 H 237.702 2.45972 0.661037 0
M  V30 2539 H 238.485 3.34916 -0.754069 0
M  V30 2540 N 240.93 -0.123565 1.57115 0
M  V30 2541 C 242.179 -0.830704 1.83799 0
M  V30 2542 C 242.492 -1.81259 0.735158 0
M  V30 2543 O 243.698 -2.56558 0.888278 0
M  V30 2544 C 242.154 -1.52802 3.25852 0
M  V30 2545 C 241.762 -0.587356 4.44133 0
M  V30 2546 C 243.506 -2.22056 3.61789 0
M  V30 2547 C 241.413 -1.28764 5.77212 0
M  V30 2548 H 240.343 -0.313967 0.685522 0
M  V30 2549 H 242.994 -0.0834359 1.8331 0
M  V30 2550 H 241.376 -2.32175 3.20797 0
M  V30 2551 H 242.55 0.172829 4.60476 0
M  V30 2552 H 240.865 -0.00201892 4.164 0
M  V30 2553 H 243.462 -2.75131 4.58483 0
M  V30 2554 H 243.805 -2.99644 2.88997 0
M  V30 2555 H 244.338 -1.49576 3.68608 0
M  V30 2556 H 241.077 -0.55314 6.53162 0
M  V30 2557 H 240.597 -2.01995 5.64764 0
M  V30 2558 H 242.276 -1.8221 6.20813 0
M  V30 2559 N 242.408 -1.52605 -0.393616 0
M  V30 2560 C 243.371 -1.76415 -1.46323 0
M  V30 2561 C 244.371 -0.634126 -1.47768 0
M  V30 2562 O 245.561 -0.902142 -1.4902 0
M  V30 2563 C 242.693 -1.8607 -2.85641 0
M  V30 2564 H 243.886 -2.71916 -1.26498 0
M  V30 2565 H 241.439 -1.43257 -0.625073 0
M  V30 2566 H 242.174 -0.925378 -3.10817 0
M  V30 2567 H 241.959 -2.68235 -2.85993 0
M  V30 2568 H 243.449 -2.06179 -3.63153 0
M  V30 2569 N 243.887 0.651787 -1.4349 0
M  V30 2570 C 245.112 1.44434 -1.48841 0
M  V30 2571 C 245.537 1.8779 -0.107955 0
M  V30 2572 O 244.895 1.57464 0.898602 0
M  V30 2573 C 244.943 2.65458 -2.44059 0
M  V30 2574 O 244.047 3.64566 -1.92784 0
M  V30 2575 H 243.388 0.433005 -0.503391 0
M  V30 2576 H 245.918 0.797451 -1.88419 0
M  V30 2577 H 245.928 3.13255 -2.6141 0
M  V30 2578 H 244.603 2.33244 -3.4434 0
M  V30 2579 H 243.18 3.23716 -1.851 0
M  V30 2580 N 245.365 1.30045 0.890287 0
M  V30 2581 C 246.328 1.15963 1.977 0
M  V30 2582 C 247.328 0.0923777 1.60534 0
M  V30 2583 O 248.518 0.340071 1.70848 0
M  V30 2584 C 245.65 0.775451 3.31963 0
M  V30 2585 H 246.843 2.12502 2.11619 0
M  V30 2586 H 244.396 1.13366 1.07601 0
M  V30 2587 H 245.131 -0.189671 3.23745 0
M  V30 2588 H 244.916 1.54668 3.60306 0
M  V30 2589 H 246.406 0.700251 4.11687 0
M  V30 2590 N 246.843 -1.10192 1.12674 0
M  V30 2591 C 247.775 -2.16418 0.754701 0
M  V30 2592 C 248.788 -1.61309 -0.21986 0
M  V30 2593 O 249.977 -1.785 -0.000826841 0
M  V30 2594 C 247.077 -3.38762 0.096698 0
M  V30 2595 C 246.25 -4.23307 1.10136 0
M  V30 2596 C 245.309 -5.24092 0.470513 0
M  V30 2597 O 244.335 -5.57906 1.12824 0
M  V30 2598 N 245.537 -5.75491 -0.760948 0
M  V30 2599 H 248.302 -2.48943 1.66875 0
M  V30 2600 H 245.863 -1.25834 1.01869 0
M  V30 2601 H 247.855 -4.03291 -0.337384 0
M  V30 2602 H 246.425 -3.04192 -0.720153 0
M  V30 2603 H 245.645 -3.55036 1.71299 0
M  V30 2604 H 246.933 -4.76624 1.78064 0
M  V30 2605 H 246.331 -5.50222 -1.31424 0
M  V30 2606 H 244.888 -6.41792 -1.13781 0
M  V30 2607 N 248.321 -0.919034 -1.28029 0
M  V30 2608 C 249.567 -0.555757 -1.95036 0
M  V30 2609 C 249.9 0.899198 -1.72128 0
M  V30 2610 O 249.175 1.64023 -1.04531 0
M  V30 2611 C 249.458 -0.872024 -3.49382 0
M  V30 2612 C 249.311 -2.3801 -3.81669 0
M  V30 2613 C 250.63 -0.37185 -4.38526 0
M  V30 2614 H 247.749 -0.203386 -0.708381 0
M  V30 2615 H 250.391 -1.14924 -1.51303 0
M  V30 2616 H 248.541 -0.366946 -3.86763 0
M  V30 2617 H 250.213 -2.9562 -3.54128 0
M  V30 2618 H 248.456 -2.83289 -3.28526 0
M  V30 2619 H 249.127 -2.55192 -4.8947 0
M  V30 2620 H 251.603 -0.804602 -4.08247 0
M  V30 2621 H 250.479 -0.622173 -5.45362 0
M  V30 2622 H 250.74 0.727934 -4.36066 0
M  V30 2623 N 249.799 1.42003 -0.683588 0
M  V30 2624 C 250.746 2.30798 -0.0107309 0
M  V30 2625 C 251.716 1.4645 0.783688 0
M  V30 2626 O 252.901 1.75263 0.754156 0
M  V30 2627 C 250.041 3.3238 0.928306 0
M  V30 2628 C 249.154 4.31814 0.126776 0
M  V30 2629 C 248.289 5.20468 1.06236 0
M  V30 2630 C 247.328 6.11577 0.253035 0
M  V30 2631 N 246.465 6.92754 1.14179 0
M  V30 2632 H 251.305 2.8778 -0.773727 0
M  V30 2633 H 248.842 1.41745 -0.393283 0
M  V30 2634 H 250.8 3.89813 1.48666 0
M  V30 2635 H 249.43 2.76976 1.65783 0
M  V30 2636 H 248.482 3.76427 -0.54833 0
M  V30 2637 H 249.794 4.96276 -0.501192 0
M  V30 2638 H 248.948 5.82677 1.69035 0
M  V30 2639 H 247.687 4.56204 1.7242 0
M  V30 2640 H 246.692 5.48428 -0.388108 0
M  V30 2641 H 247.917 6.77892 -0.404839 0
M  V30 2642 H 245.863 6.3111 1.78987 0
M  V30 2643 H 245.78 7.53855 0.569111 0
M  V30 2644 H 247.048 7.59441 1.75697 0
M  V30 2645 N 251.277 0.427512 1.51691 0
M  V30 2646 C 252.502 -0.143601 2.06902 0
M  V30 2647 C 252.927 -1.36536 1.29382 0
M  V30 2648 O 252.285 -1.78289 0.329043 0
M  V30 2649 C 252.333 -0.454207 3.57728 0
M  V30 2650 O 251.437 -1.54228 3.82475 0
M  V30 2651 H 250.778 -0.00617128 0.663971 0
M  V30 2652 H 253.308 0.606014 1.95419 0
M  V30 2653 H 253.318 -0.707525 4.01818 0
M  V30 2654 H 251.993 0.438812 4.13579 0
M  V30 2655 H 250.57 -1.2797 3.50254 0
M  V30 2656 N 252.755 -1.56801 0.158532 0
M  V30 2657 C 253.718 -2.16138 -0.762705 0
M  V30 2658 C 254.718 -1.1061 -1.16713 0
M  V30 2659 O 255.908 -1.36191 -1.08617 0
M  V30 2660 C 253.04 -2.73386 -2.03649 0
M  V30 2661 H 254.233 -2.98886 -0.246354 0
M  V30 2662 H 251.786 -1.56035 -0.0909744 0
M  V30 2663 H 252.521 -1.94335 -2.59623 0
M  V30 2664 H 252.306 -3.50601 -1.75559 0
M  V30 2665 H 253.796 -3.19065 -2.6942 0
M  V30 2666 N 254.233 0.115231 -1.57178 0
M  V30 2667 C 255.163 1.1423 -2.03651 0
M  V30 2668 C 256.144 1.42967 -0.921655 0
M  V30 2669 O 257.329 1.53343 -1.19162 0
M  V30 2670 C 254.459 2.4675 -2.44401 0
M  V30 2671 C 253.413 2.32467 -3.59365 0
M  V30 2672 C 252.739 3.69984 -3.86026 0
M  V30 2673 C 254.039 1.78203 -4.90959 0
M  V30 2674 H 255.733 0.755749 -2.89705 0
M  V30 2675 H 253.279 0.362093 -1.39373 0
M  V30 2676 H 255.232 3.18854 -2.75517 0
M  V30 2677 H 253.956 2.87302 -1.55322 0
M  V30 2678 H 252.615 1.62811 -3.28463 0
M  V30 2679 H 252.263 4.08028 -2.94147 0
M  V30 2680 H 251.963 3.61279 -4.63412 0
M  V30 2681 H 253.487 4.43587 -4.19599 0
M  V30 2682 H 254.901 2.40128 -5.20587 0
M  V30 2683 H 253.298 1.8031 -5.72371 0
M  V30 2684 H 254.368 0.739876 -4.79222 0
M  V30 2685 N 255.711 1.52812 0.385517 0
M  V30 2686 C 256.644 1.72592 1.49289 0
M  V30 2687 C 257.622 0.573819 1.52138 0
M  V30 2688 O 258.806 0.80404 1.70492 0
M  V30 2689 C 255.933 1.78669 2.87741 0
M  V30 2690 C 254.979 3.00455 3.02703 0
M  V30 2691 S 255.812 4.60366 2.73538 0
M  V30 2692 C 256.968 4.69263 4.14177 0
M  V30 2693 H 257.201 2.66248 1.32285 0
M  V30 2694 H 254.734 1.43148 0.578611 0
M  V30 2695 H 256.692 1.82855 3.67524 0
M  V30 2696 H 255.353 0.861 3.02069 0
M  V30 2697 H 254.546 3.01258 4.04054 0
M  V30 2698 H 254.148 2.94278 2.30817 0
M  V30 2699 H 256.44 4.48092 5.08153 0
M  V30 2700 H 257.383 5.71276 4.18388 0
M  V30 2701 H 257.791 3.98072 4.00249 0
M  V30 2702 N 257.189 -0.644168 1.43834 0
M  V30 2703 C 258.436 -1.40395 1.4593 0
M  V30 2704 C 258.764 -1.94305 0.0869658 0
M  V30 2705 O 258.019 -1.73288 -0.909378 0
M  V30 2706 C 258.318 -2.59615 2.45631 0
M  V30 2707 C 257.984 -2.2407 3.91284 0
M  V30 2708 C 256.646 -2.14089 4.30952 0
M  V30 2709 C 258.998 -1.95775 4.83034 0
M  V30 2710 C 256.326 -1.73981 5.6031 0
M  V30 2711 C 258.678 -1.57163 6.12766 0
M  V30 2712 C 257.342 -1.45713 6.51402 0
M  V30 2713 H 256.612 -0.513741 0.533995 0
M  V30 2714 H 259.259 -0.731724 1.76969 0
M  V30 2715 H 257.564 -3.32011 2.08028 0
M  V30 2716 H 259.261 -3.17834 2.44504 0
M  V30 2717 H 255.851 -2.32753 3.59895 0
M  V30 2718 H 260.035 -2.02403 4.53152 0
M  V30 2719 H 255.291 -1.63709 5.89075 0
M  V30 2720 H 259.465 -1.34303 6.83327 0
M  V30 2721 H 257.092 -1.14406 7.51542 0
M  V30 2722 N 258.668 -1.30515 -0.883378 0
M  V30 2723 C 259.631 -1.1701 -1.97082 0
M  V30 2724 C 260.631 -0.10089 -1.60483 0
M  V30 2725 O 261.821 -0.349127 -1.70666 0
M  V30 2726 C 258.953 -0.793045 -3.31547 0
M  V30 2727 H 260.146 -2.13622 -2.10489 0
M  V30 2728 H 257.699 -1.13935 -1.06998 0
M  V30 2729 H 258.434 0.172499 -3.23841 0
M  V30 2730 H 258.219 -1.56576 -3.5948 0
M  V30 2731 H 259.709 -0.722073 -4.1131 0
M  V30 2732 N 260.146 1.09593 -1.13257 0
M  V30 2733 C 261.109 2.14359 -0.811358 0
M  V30 2734 C 262.109 1.59808 0.178377 0
M  V30 2735 O 263.299 1.74132 -0.0484911 0
M  V30 2736 C 260.431 3.40269 -0.207276 0
M  V30 2737 H 261.624 2.44284 -1.73969 0
M  V30 2738 H 259.177 1.25102 -0.936973 0
M  V30 2739 H 259.912 3.15969 0.73036 0
M  V30 2740 H 259.697 3.81154 -0.919992 0
M  V30 2741 H 261.187 4.176 0.000667944 0
M  V30 2742 N 261.624 0.925811 1.2754 0
M  V30 2743 C 262.554 0.440748 2.29303 0
M  V30 2744 C 263.535 -0.497971 1.62648 0
M  V30 2745 O 264.72 -0.403126 1.8997 0
M  V30 2746 C 261.85 -0.309048 3.45922 0
M  V30 2747 C 260.804 0.54166 4.24559 0
M  V30 2748 C 260.13 -0.337191 5.33636 0
M  V30 2749 C 261.43 1.80516 4.90114 0
M  V30 2750 H 263.124 1.29121 2.70126 0
M  V30 2751 H 260.67 0.622323 1.29858 0
M  V30 2752 H 262.623 -0.659315 4.1621 0
M  V30 2753 H 261.347 -1.19352 3.04011 0
M  V30 2754 H 260.006 0.874609 3.56014 0
M  V30 2755 H 259.654 -1.22056 4.87966 0
M  V30 2756 H 259.354 0.228497 5.87156 0
M  V30 2757 H 260.878 -0.683072 6.06767 0
M  V30 2758 H 262.292 1.52307 5.52698 0
M  V30 2759 H 260.689 2.3142 5.53683 0
M  V30 2760 H 261.759 2.52581 4.13921 0
M  V30 2761 N 263.102 -1.41638 0.69111 0
M  V30 2762 C 264.034 -2.29194 -0.0161523 0
M  V30 2763 C 265.047 -1.44549 -0.748955 0
M  V30 2764 O 266.236 -1.681 -0.6004 0
M  V30 2765 C 263.336 -3.22325 -1.0469 0
M  V30 2766 C 262.509 -4.35706 -0.384621 0
M  V30 2767 C 261.568 -5.09443 -1.31737 0
M  V30 2768 O 260.594 -5.63386 -0.811451 0
M  V30 2769 N 261.796 -5.16487 -2.64993 0
M  V30 2770 H 264.561 -2.90534 0.735523 0
M  V30 2771 H 262.122 -1.52742 0.53679 0
M  V30 2772 H 264.114 -3.68522 -1.67252 0
M  V30 2773 H 262.684 -2.62323 -1.70015 0
M  V30 2774 H 261.904 -3.91948 0.420804 0
M  V30 2775 H 263.192 -5.08743 0.0760765 0
M  V30 2776 H 262.59 -4.741 -3.08619 0
M  V30 2777 H 261.147 -5.66276 -3.22761 0
M  V30 2778 N 264.58 -0.43555 -1.51462 0
M  V30 2779 C 265.543 0.365137 -2.26273 0
M  V30 2780 C 266.543 0.951227 -1.29647 0
M  V30 2781 O 267.733 0.825958 -1.53374 0
M  V30 2782 C 264.865 1.51645 -3.05314 0
M  V30 2783 H 266.058 -0.290474 -2.9849 0
M  V30 2784 H 263.611 -0.188676 -1.55157 0
M  V30 2785 H 264.346 2.20816 -2.3751 0
M  V30 2786 H 264.131 1.10238 -3.76284 0
M  V30 2787 H 265.621 2.08218 -3.61987 0
M  V30 2788 N 266.058 1.56714 -0.166846 0
M  V30 2789 C 267.005 2.17746 0.765193 0
M  V30 2790 C 267.975 1.11614 1.23011 0
M  V30 2791 O 269.16 1.39745 1.29908 0
M  V30 2792 C 266.3 2.81882 1.9909 0
M  V30 2793 C 265.413 4.02462 1.56997 0
M  V30 2794 C 264.548 4.54537 2.749 0
M  V30 2795 C 263.587 5.67538 2.29275 0
M  V30 2796 N 262.724 6.14142 3.40255 0
M  V30 2797 H 267.564 2.97048 0.237952 0
M  V30 2798 H 265.101 1.4672 0.105725 0
M  V30 2799 H 267.059 3.17221 2.70974 0
M  V30 2800 H 265.689 2.05191 2.49192 0
M  V30 2801 H 264.741 3.72973 0.748037 0
M  V30 2802 H 266.053 4.84273 1.19503 0
M  V30 2803 H 265.207 4.92035 3.54946 0
M  V30 2804 H 263.946 3.71774 3.1565 0
M  V30 2805 H 262.951 5.29597 1.47674 0
M  V30 2806 H 264.176 6.52099 1.89588 0
M  V30 2807 H 262.122 5.3431 3.8059 0
M  V30 2808 H 262.039 6.9093 3.06841 0
M  V30 2809 H 263.307 6.56289 4.206 0
M  V30 2810 N 267.536 -0.106894 1.57237 0
M  V30 2811 C 268.784 -0.810921 1.85117 0
M  V30 2812 C 269.105 -1.7984 0.753827 0
M  V30 2813 O 268.375 -1.94649 -0.221056 0
M  V30 2814 H 266.955 -0.302466 0.683025 0
M  V30 2815 H 269.617 -0.0913324 1.94686 0
M  V30 2816 H 268.713 -1.34875 2.81452 0
M  V30 2817 N 269.014 -1.53014 -0.377408 0
M  V30 2818 C 269.924 -1.81557 -1.48574 0
M  V30 2819 C 270.94 -0.703102 -1.59162 0
M  V30 2820 O 272.116 -0.99192 -1.75279 0
M  V30 2821 C 269.181 -1.9889 -2.83978 0
M  V30 2822 C 268.242 -3.22801 -2.83016 0
M  V30 2823 C 267.475 -3.39298 -4.11962 0
M  V30 2824 O 267.698 -2.60345 -5.0752 0
M  V30 2825 O 266.632 -4.32604 -4.18494 0
M  V30 2826 H 270.458 -2.75695 -1.27382 0
M  V30 2827 H 268.043 -1.38248 -0.566373 0
M  V30 2828 H 269.925 -2.11931 -3.6423 0
M  V30 2829 H 268.6 -1.07942 -3.05172 0
M  V30 2830 H 267.507 -3.15193 -2.01505 0
M  V30 2831 H 268.84 -4.13632 -2.66775 0
M  V30 2832 N 270.492 0.636531 -1.44174 0
M  V30 2833 C 271.717 1.42847 -1.50364 0
M  V30 2834 C 272.142 1.87665 -0.127867 0
M  V30 2835 O 271.5 1.58408 0.88185 0
M  V30 2836 C 271.548 2.62854 -2.4686 0
M  V30 2837 O 270.652 3.62501 -1.9664 0
M  V30 2838 H 269.993 0.427642 -0.507955 0
M  V30 2839 H 272.523 0.777422 -1.89255 0
M  V30 2840 H 272.533 3.10465 -2.64718 0
M  V30 2841 H 271.208 2.29578 -3.46795 0
M  V30 2842 H 269.785 3.21735 -1.88523 0
M  V30 2843 N 271.97 1.30982 0.876444 0
M  V30 2844 C 273.216 1.20474 1.63138 0
M  V30 2845 C 273.549 -0.238096 1.92735 0
M  V30 2846 O 272.824 -1.1692 1.55435 0
M  V30 2847 C 273.107 2.04244 2.96574 0
M  V30 2848 C 272.96 3.56793 2.73896 0
M  V30 2849 C 274.279 1.88684 3.97601 0
M  V30 2850 H 271.398 0.439001 0.591985 0
M  V30 2851 H 274.04 1.60704 1.01361 0
M  V30 2852 H 272.19 1.70063 3.493 0
M  V30 2853 H 273.862 4.01077 2.27892 0
M  V30 2854 H 272.105 3.80548 2.08245 0
M  V30 2855 H 272.776 4.10706 3.68815 0
M  V30 2856 H 275.252 2.18584 3.54062 0
M  V30 2857 H 274.128 2.4961 4.88862 0
M  V30 2858 H 274.389 0.848343 4.33884 0
M  V30 2859 N 273.449 -1.08991 1.13837 0
M  V30 2860 C 274.698 -1.80631 0.897509 0
M  V30 2861 C 275.011 -1.86872 -0.57777 0
M  V30 2862 O 276.217 -2.54866 -0.935701 0
M  V30 2863 C 274.673 -3.24517 1.55618 0
M  V30 2864 C 274.281 -3.26529 3.0673 0
M  V30 2865 C 276.025 -4.00882 1.3962 0
M  V30 2866 C 273.932 -4.64965 3.65461 0
M  V30 2867 H 272.862 -0.67691 0.332129 0
M  V30 2868 H 275.513 -1.2246 1.3666 0
M  V30 2869 H 273.895 -3.82778 1.01476 0
M  V30 2870 H 275.069 -2.78008 3.67489 0
M  V30 2871 H 273.384 -2.63656 3.22296 0
M  V30 2872 H 275.981 -5.03167 1.80906 0
M  V30 2873 H 276.324 -4.14896 0.341578 0
M  V30 2874 H 276.857 -3.49075 1.90766 0
M  V30 2875 H 273.596 -4.56153 4.70749 0
M  V30 2876 H 273.116 -5.13792 3.09481 0
M  V30 2877 H 274.795 -5.3394 3.654 0
M  V30 2878 N 274.927 -0.932562 -1.27047 0
M  V30 2879 C 276.176 -0.571351 -1.93439 0
M  V30 2880 C 276.489 0.892467 -1.74053 0
M  V30 2881 O 277.695 1.36267 -2.34826 0
M  V30 2882 C 276.151 -0.97106 -3.46552 0
M  V30 2883 C 275.759 -2.4559 -3.74686 0
M  V30 2884 C 277.503 -0.681333 -4.18997 0
M  V30 2885 C 275.41 -2.79475 -5.21198 0
M  V30 2886 H 274.34 -0.209966 -0.724176 0
M  V30 2887 H 276.991 -1.13403 -1.44263 0
M  V30 2888 H 275.373 -0.336983 -3.94564 0
M  V30 2889 H 276.547 -3.13829 -3.37414 0
M  V30 2890 H 274.862 -2.71802 -3.15456 0
M  V30 2891 H 277.459 -0.910939 -5.26883 0
M  V30 2892 H 277.802 0.381628 -4.14547 0
M  V30 2893 H 278.335 -1.27473 -3.76823 0
M  V30 2894 H 275.074 -3.847 -5.30741 0
M  V30 2895 H 274.594 -2.1589 -5.596 0
M  V30 2896 H 276.273 -2.67478 -5.89122 0
M  V30 2897 N 276.405 1.4127 -0.698611 0
M  V30 2898 C 277.315 2.34573 -0.0357891 0
M  V30 2899 C 278.331 1.56393 0.762701 0
M  V30 2900 O 279.507 1.8886 0.699564 0
M  V30 2901 C 276.572 3.35159 0.887089 0
M  V30 2902 C 275.633 4.29225 0.0804634 0
M  V30 2903 C 274.866 5.25006 0.959387 0
M  V30 2904 O 275.089 5.26314 2.19886 0
M  V30 2905 O 274.023 6.00519 0.407439 0
M  V30 2906 H 277.849 2.92838 -0.804957 0
M  V30 2907 H 275.434 1.42175 -0.458966 0
M  V30 2908 H 277.316 3.9689 1.41621 0
M  V30 2909 H 275.991 2.79333 1.6357 0
M  V30 2910 H 274.898 3.70833 -0.493328 0
M  V30 2911 H 276.231 4.88157 -0.629547 0
M  V30 2912 N 277.883 0.443576 1.51229 0
M  V30 2913 C 278.83 -0.364716 2.279 0
M  V30 2914 C 279.8 -1.0114 1.31757 0
M  V30 2915 O 280.985 -1.02912 1.60667 0
M  V30 2916 C 278.125 -1.45644 3.12861 0
M  V30 2917 C 277.238 -0.827269 4.24005 0
M  V30 2918 C 276.373 -1.89456 4.96266 0
M  V30 2919 C 275.412 -1.24416 5.99322 0
M  V30 2920 N 274.549 -2.25309 6.64966 0
M  V30 2921 H 279.389 0.295464 2.96532 0
M  V30 2922 H 276.926 0.157554 1.46254 0
M  V30 2923 H 278.884 -2.10076 3.6045 0
M  V30 2924 H 277.514 -2.08616 2.46331 0
M  V30 2925 H 276.566 -0.0710839 3.80334 0
M  V30 2926 H 277.878 -0.312481 4.9782 0
M  V30 2927 H 277.032 -2.61535 5.47434 0
M  V30 2928 H 275.771 -2.4431 4.22095 0
M  V30 2929 H 274.776 -0.508868 5.4744 0
M  V30 2930 H 276.001 -0.702882 6.75453 0
M  V30 2931 H 273.947 -2.79231 5.93604 0
M  V30 2932 H 273.864 -1.78739 7.34567 0
M  V30 2933 H 275.132 -2.96853 7.20763 0
M  V30 2934 N 279.361 -1.56624 0.175154 0
M  V30 2935 C 280.271 -2.21741 -0.766042 0
M  V30 2936 C 281.287 -1.21023 -1.25018 0
M  V30 2937 O 282.463 -1.53697 -1.3015 0
M  V30 2938 C 279.528 -2.84839 -1.97655 0
M  V30 2939 C 278.589 -4.00769 -1.53892 0
M  V30 2940 C 277.822 -4.60849 -2.69173 0
M  V30 2941 O 278.045 -4.19823 -3.86141 0
M  V30 2942 O 276.979 -5.50655 -2.43028 0
M  V30 2943 H 280.805 -3.02738 -0.241585 0
M  V30 2944 H 278.39 -1.49305 -0.053222 0
M  V30 2945 H 280.272 -3.24834 -2.68442 0
M  V30 2946 H 278.947 -2.06836 -2.48999 0
M  V30 2947 H 277.854 -3.65436 -0.80044 0
M  V30 2948 H 279.187 -4.80376 -1.07236 0
M  V30 2949 N 280.839 0.0985539 -1.57292 0
M  V30 2950 C 282.069 0.815135 -1.8984 0
M  V30 2951 C 282.477 1.7297 -0.766679 0
M  V30 2952 O 281.82 1.81698 0.270483 0
M  V30 2953 C 281.882 1.6842 -3.17608 0
M  V30 2954 C 281.546 0.94182 -4.4719 0
M  V30 2955 C 282.543 0.273212 -5.19182 0
M  V30 2956 C 280.228 0.916927 -4.9386 0
M  V30 2957 C 282.222 -0.410361 -6.36078 0
M  V30 2958 C 279.909 0.229567 -6.10669 0
M  V30 2959 C 280.907 -0.432902 -6.81627 0
M  V30 2960 O 280.595 -1.10925 -7.9621 0
M  V30 2961 H 280.327 0.238501 -0.632529 0
M  V30 2962 H 282.881 0.0812659 -2.05239 0
M  V30 2963 H 281.111 2.46022 -2.98345 0
M  V30 2964 H 282.8 2.27704 -3.36015 0
M  V30 2965 H 283.566 0.283927 -4.84168 0
M  V30 2966 H 279.445 1.42201 -4.3852 0
M  V30 2967 H 282.989 -0.928013 -6.914 0
M  V30 2968 H 278.886 0.216686 -6.45136 0
M  V30 2969 H 279.654 -1.01579 -8.12172 0
M  V30 2970 N 282.317 1.53212 0.369288 0
M  V30 2971 C 283.545 1.73119 1.13303 0
M  V30 2972 C 283.96 0.458455 1.83149 0
M  V30 2973 O 283.317 -0.568403 1.73423 0
M  V30 2974 C 283.368 2.89413 2.16616 0
M  V30 2975 O 283.089 4.11761 1.49614 0
M  V30 2976 C 284.59 3.21161 3.05566 0
M  V30 2977 H 281.81 0.579107 0.338934 0
M  V30 2978 H 284.354 1.99942 0.429338 0
M  V30 2979 H 282.509 2.64994 2.82589 0
M  V30 2980 H 282.923 4.76858 2.18419 0
M  V30 2981 H 284.397 4.05949 3.74045 0
M  V30 2982 H 284.874 2.36369 3.70171 0
M  V30 2983 H 285.48 3.47492 2.45213 0
M  V30 2984 N 283.795 -0.628877 1.44509 0
M  V30 2985 C 285.211 -0.947305 1.28446 0
M  V30 2986 C 285.411 -2.00275 0.221872 0
M  V30 2987 O 284.467 -2.49447 -0.391471 0
M  V30 2988 C 285.78 -1.40843 2.65676 0
M  V30 2989 C 287.328 -1.52379 2.73404 0
M  V30 2990 C 287.803 -2.01875 4.11109 0
M  V30 2991 N 289.294 -2.09142 4.13296 0
M  V30 2992 C 290.029 -2.48615 5.16699 0
M  V30 2993 N 289.525 -2.87209 6.30462 0
M  V30 2994 N 291.318 -2.48768 5.04054 0
M  V30 2995 H 283.469 0.0690977 2.12288 0
M  V30 2996 H 285.732 -0.0317164 0.947469 0
M  V30 2997 H 285.438 -0.707206 3.44516 0
M  V30 2998 H 285.312 -2.37902 2.92716 0
M  V30 2999 H 287.699 -2.21598 1.9488 0
M  V30 3000 H 287.78 -0.536898 2.50102 0
M  V30 3001 H 287.424 -1.3325 4.90109 0
M  V30 3002 H 287.354 -3.0144 4.31789 0
M  V30 3003 H 289.845 -1.81991 3.31191 0
M  V30 3004 H 290.158 -3.16149 7.05174 0
M  V30 3005 H 288.503 -2.84955 6.33897 0
M  V30 3006 H 291.694 -2.18009 4.14234 0
M  V30 3007 H 291.867 -2.79207 5.84763 0
M  V30 3008 N 285.273 -1.31445 -0.869486 0
M  V30 3009 C 286.221 -1.19067 -1.99814 0
M  V30 3010 C 287.215 -0.0988569 -1.69111 0
M  V30 3011 O 288.421 -0.260781 -1.78101 0
M  V30 3012 H 284.796 -0.368677 -0.655425 0
M  V30 3013 H 286.767 -2.14555 -2.07385 0
M  V30 3014 C 285.516 -0.915323 -3.35436 0
M  V30 3015 H 284.839 -1.74759 -3.59582 0
M  V30 3016 H 286.279 -0.868895 -4.15001 0
M  V30 3017 C 284.738 0.381928 -3.34728 0
M  V30 3018 O 285.268 1.39857 -3.76567 0
M  V30 3019 N 283.474 0.398633 -2.87853 0
M  V30 3020 H 283.021 -0.429186 -2.54 0
M  V30 3021 H 282.979 1.26651 -2.87762 0
M  V30 3022 N 286.751 1.08385 -1.14413 0
M  V30 3023 C 287.701 2.13509 -0.79987 0
M  V30 3024 C 288.685 1.5951 0.211059 0
M  V30 3025 O 289.877 1.76995 0.0133694 0
M  V30 3026 C 287.006 3.42162 -0.279297 0
M  V30 3027 C 286.092 4.03042 -1.31976 0
M  V30 3028 N 286.483 4.38327 -2.52395 0
M  V30 3029 C 284.781 4.30379 -1.17004 0
M  V30 3030 C 285.482 4.86428 -3.19003 0
M  V30 3031 N 284.458 4.84547 -2.46405 0
M  V30 3032 H 288.26 2.38609 -1.7159 0
M  V30 3033 H 285.774 1.2572 -1.02802 0
M  V30 3034 H 287.771 4.16898 -0.0143688 0
M  V30 3035 H 286.431 3.18511 0.630923 0
M  V30 3036 H 287.442 4.29349 -2.89621 0
M  V30 3037 H 284.119 4.16281 -0.318854 0
M  V30 3038 H 285.509 5.23107 -4.21674 0
M  V30 3039 N 288.23 0.939286 1.26551 0
M  V30 3040 C 289.458 0.602536 1.97932 0
M  V30 3041 C 289.873 -0.82206 1.69964 0
M  V30 3042 O 289.23 -1.54789 0.966784 0
M  V30 3043 C 289.281 0.832946 3.51773 0
M  V30 3044 O 289.002 2.20151 3.78768 0
M  V30 3045 C 290.503 0.506483 4.40397 0
M  V30 3046 H 287.723 0.227248 0.631347 0
M  V30 3047 H 290.267 1.25948 1.61113 0
M  V30 3048 H 288.422 0.222644 3.8676 0
M  V30 3049 H 288.836 2.26013 4.73306 0
M  V30 3050 H 290.31 0.718333 5.47306 0
M  V30 3051 H 290.787 -0.558451 4.35635 0
M  V30 3052 H 291.393 1.09543 4.10951 0
M  V30 3053 N 289.708 -1.40897 0.706093 0
M  V30 3054 C 290.618 -2.3455 0.0482286 0
M  V30 3055 C 291.634 -1.56796 -0.754396 0
M  V30 3056 O 292.81 -1.89228 -0.689538 0
M  V30 3057 C 289.875 -3.35625 -0.869303 0
M  V30 3058 C 288.936 -4.29261 -0.0576994 0
M  V30 3059 C 288.169 -5.25508 -0.931531 0
M  V30 3060 O 288.392 -5.27472 -2.17092 0
M  V30 3061 O 287.326 -6.00727 -0.375587 0
M  V30 3062 H 291.152 -2.92407 0.820476 0
M  V30 3063 H 288.737 -1.4193 0.4665 0
M  V30 3064 H 290.619 -3.97635 -1.39514 0
M  V30 3065 H 289.294 -2.80196 -1.62086 0
M  V30 3066 H 288.201 -3.70566 0.512988 0
M  V30 3067 H 289.534 -4.87817 0.655426 0
M  V30 3068 N 291.186 -0.45159 -1.50991 0
M  V30 3069 C 292.463 0.170707 -1.94854 0
M  V30 3070 C 292.843 1.58788 -1.39103 0
M  V30 3071 O 292.191 2.20913 -0.583921 0
M  V30 3072 C 292.401 0.133929 -3.48743 0
M  V30 3073 C 293.749 0.33248 -4.23296 0
M  V30 3074 O 294.773 0.211403 -3.55572 0
M  V30 3075 O 293.632 0.57486 -5.43468 0
M  V30 3076 H 290.726 0.122264 -0.817912 0
M  V30 3077 H 293.272 -0.510594 -1.61836 0
M  V30 3078 H 292.044 -0.856283 -3.81816 0
M  V30 3079 H 291.667 0.857529 -3.88242 0
M  V30 3080 N 292.664 1.56529 -0.183458 0
M  V30 3081 C 293.597 2.14417 0.781052 0
M  V30 3082 C 294.575 1.07761 1.21763 0
M  V30 3083 O 295.759 1.35807 1.30724 0
M  V30 3084 C 292.886 2.69361 2.05335 0
M  V30 3085 C 291.932 3.885 1.75982 0
M  V30 3086 S 292.765 5.27568 0.918256 0
M  V30 3087 C 293.921 5.85926 2.20095 0
M  V30 3088 H 294.154 2.95893 0.2889 0
M  V30 3089 H 291.687 1.54368 0.0313844 0
M  V30 3090 H 293.645 3.01662 2.78406 0
M  V30 3091 H 292.306 1.87949 2.51663 0
M  V30 3092 H 291.499 4.25314 2.70415 0
M  V30 3093 H 291.101 3.57149 1.10999 0
M  V30 3094 H 293.393 5.99579 3.15453 0
M  V30 3095 H 294.336 6.82761 1.87731 0
M  V30 3096 H 294.744 5.14438 2.32409 0
M  V30 3097 N 294.142 -0.090211 1.57342 0
M  V30 3098 C 295.072 -1.10976 2.05443 0
M  V30 3099 C 296.053 -1.41482 0.944284 0
M  V30 3100 O 297.238 -1.51428 1.21586 0
M  V30 3101 C 294.368 -2.42831 2.48295 0
M  V30 3102 C 293.322 -2.26721 3.63018 0
M  V30 3103 C 292.648 -3.63796 3.91863 0
M  V30 3104 C 293.948 -1.7037 4.93732 0
M  V30 3105 H 295.642 -0.709564 2.9087 0
M  V30 3106 H 293.188 -0.339874 1.39932 0
M  V30 3107 H 295.141 -3.14431 2.80555 0
M  V30 3108 H 293.865 -2.84795 1.59873 0
M  V30 3109 H 292.524 -1.57565 3.31012 0
M  V30 3110 H 292.172 -4.03297 3.00601 0
M  V30 3111 H 291.872 -3.53861 4.69101 0
M  V30 3112 H 293.396 -4.36855 4.26603 0
M  V30 3113 H 294.81 -2.31816 5.24342 0
M  V30 3114 H 293.207 -1.71181 5.75167 0
M  V30 3115 H 294.277 -0.663542 4.80339 0
M  V30 3116 N 295.62 -1.53406 -0.361157 0
M  V30 3117 C 296.567 -1.80156 -1.44265 0
M  V30 3118 C 297.537 -0.646183 -1.53015 0
M  V30 3119 O 298.722 -0.888818 -1.68833 0
M  V30 3120 C 295.862 -2.00116 -2.81154 0
M  V30 3121 C 294.975 -3.27833 -2.81335 0
M  V30 3122 C 294.11 -3.37957 -4.09828 0
M  V30 3123 C 293.149 -4.59689 -4.04168 0
M  V30 3124 N 292.286 -4.66942 -5.24318 0
M  V30 3125 H 297.126 -2.72438 -1.20754 0
M  V30 3126 H 294.663 -1.34954 -0.585296 0
M  V30 3127 H 296.621 -2.09677 -3.60682 0
M  V30 3128 H 295.251 -1.11167 -3.03054 0
M  V30 3129 H 294.303 -3.27204 -1.94014 0
M  V30 3130 H 295.615 -4.17442 -2.73027 0
M  V30 3131 H 294.769 -3.46853 -4.97773 0
M  V30 3132 H 293.508 -2.46372 -4.20894 0
M  V30 3133 H 292.513 -4.50889 -3.14609 0
M  V30 3134 H 293.738 -5.5262 -3.947 0
M  V30 3135 H 291.684 -3.7826 -5.35962 0
M  V30 3136 H 291.601 -5.50462 -5.18197 0
M  V30 3137 H 292.869 -4.80127 -6.14084 0
M  V30 3138 N 297.098 0.621204 -1.44841 0
M  V30 3139 C 298.03 1.74615 -1.48466 0
M  V30 3140 C 299.043 1.58377 -0.37691 0
M  V30 3141 O 300.232 1.66508 -0.643215 0
M  V30 3142 C 297.332 3.12459 -1.31236 0
M  V30 3143 C 296.505 3.55064 -2.55438 0
M  V30 3144 C 295.564 4.71821 -2.32963 0
M  V30 3145 O 294.59 4.79628 -3.06505 0
M  V30 3146 N 295.792 5.64186 -1.36654 0
M  V30 3147 H 298.557 1.71973 -2.45449 0
M  V30 3148 H 296.118 0.806077 -1.40407 0
M  V30 3149 H 298.11 3.88302 -1.14032 0
M  V30 3150 H 296.68 3.09686 -0.4258 0
M  V30 3151 H 295.9 2.69324 -2.87851 0
M  V30 3152 H 297.188 3.80284 -3.38026 0
M  V30 3153 H 296.586 5.6058 -0.759344 0
M  V30 3154 H 295.143 6.39618 -1.25425 0
M  V30 3155 N 298.576 1.31904 0.862503 0
M  V30 3156 C 299.823 1.22017 1.61611 0
M  V30 3157 C 300.151 -0.21991 1.93253 0
M  V30 3158 O 299.406 -1.17076 1.56817 0
M  V30 3159 C 299.705 2.01713 2.95037 0
M  V30 3160 C 299.371 3.51145 2.82857 0
M  V30 3161 C 298.033 3.91889 2.79243 0
M  V30 3162 C 300.385 4.46204 2.69353 0
M  V30 3163 C 297.713 5.25947 2.59993 0
M  V30 3164 C 300.065 5.80397 2.5164 0
M  V30 3165 C 298.729 6.20352 2.46413 0
M  V30 3166 H 297.999 0.44649 0.591378 0
M  V30 3167 H 300.646 1.63248 1.00111 0
M  V30 3168 H 298.951 1.53185 3.60613 0
M  V30 3169 H 300.648 1.91437 3.52353 0
M  V30 3170 H 297.238 3.1878 2.86491 0
M  V30 3171 H 301.422 4.15652 2.71196 0
M  V30 3172 H 296.678 5.5597 2.54376 0
M  V30 3173 H 300.852 6.53676 2.40169 0
M  V30 3174 H 298.479 7.24172 2.31256 0
M  V30 3175 N 300.054 -1.07777 1.14986 0
M  V30 3176 C 301.302 -1.79934 0.920235 0
M  V30 3177 C 301.623 -1.86955 -0.554336 0
M  V30 3178 O 300.893 -1.36731 -1.40291 0
M  V30 3179 H 299.473 -0.666424 0.337473 0
M  V30 3180 H 302.135 -1.3027 1.44968 0
M  V30 3181 H 301.231 -2.82539 1.32583 0
M  V30 3182 N 301.532 -0.945985 -1.26051 0
M  V30 3183 C 302.78 -0.594941 -1.93145 0
M  V30 3184 C 303.101 0.86953 -1.7454 0
M  V30 3185 O 302.371 1.61838 -1.10387 0
M  V30 3186 H 300.951 -0.217044 -0.714773 0
M  V30 3187 H 303.613 -1.20235 -1.53393 0
M  V30 3188 H 302.709 -0.816835 -3.01221 0
M  V30 3189 N 303.011 1.40521 -0.713556 0
M  V30 3190 C 303.961 2.27971 -0.036165 0
M  V30 3191 C 304.945 1.43151 0.734623 0
M  V30 3192 O 306.137 1.66261 0.607158 0
M  V30 3193 C 303.266 3.31661 0.886331 0
M  V30 3194 C 302.352 4.23955 0.110836 0
M  V30 3195 N 302.743 4.97641 -0.904847 0
M  V30 3196 C 301.041 4.44674 0.343692 0
M  V30 3197 C 301.742 5.65322 -1.37064 0
M  V30 3198 N 300.718 5.39162 -0.693168 0
M  V30 3199 H 304.52 2.82384 -0.814645 0
M  V30 3200 H 302.034 1.52948 -0.545963 0
M  V30 3201 H 304.031 3.93154 1.38692 0
M  V30 3202 H 302.691 2.78808 1.66421 0
M  V30 3203 H 303.702 5.01689 -1.28563 0
M  V30 3204 H 300.379 4.02801 1.09805 0
M  V30 3205 H 301.769 6.34359 -2.21447 0
M  V30 3206 N 304.489 0.459591 1.5075 0
M  V30 3207 C 305.419 -0.330644 2.31147 0
M  V30 3208 C 306.4 -1.00087 1.37538 0
M  V30 3209 O 307.585 -1.00025 1.66459 0
M  V30 3210 C 304.715 -1.41958 3.16962 0
M  V30 3211 C 303.669 -0.871608 4.19031 0
M  V30 3212 C 302.995 -2.05797 4.9351 0
M  V30 3213 C 304.295 0.109251 5.22186 0
M  V30 3214 H 305.989 0.340336 2.97459 0
M  V30 3215 H 303.535 0.165119 1.4305 0
M  V30 3216 H 305.488 -1.9798 3.71997 0
M  V30 3217 H 304.212 -2.11917 2.48513 0
M  V30 3218 H 302.871 -0.333442 3.6508 0
M  V30 3219 H 302.519 -2.74427 4.21544 0
M  V30 3220 H 302.219 -1.6976 5.62544 0
M  V30 3221 H 303.743 -2.62331 5.51375 0
M  V30 3222 H 305.157 -0.361405 5.7216 0
M  V30 3223 H 303.554 0.383316 5.98875 0
M  V30 3224 H 304.624 1.03887 4.73641 0
M  V30 3225 N 305.967 -1.56429 0.191757 0
M  V30 3226 C 307.192 -2.02309 -0.456706 0
M  V30 3227 C 307.617 -1.07103 -1.5463 0
M  V30 3228 O 306.975 -0.0539677 -1.8122 0
M  V30 3229 C 307.023 -3.46654 -0.993159 0
M  V30 3230 O 306.127 -3.54559 -2.10622 0
M  V30 3231 H 305.468 -0.655303 -0.107114 0
M  V30 3232 H 307.998 -2.02364 0.301653 0
M  V30 3233 H 308.008 -3.86377 -1.31061 0
M  V30 3234 H 306.683 -4.1544 -0.195504 0
M  V30 3235 H 305.26 -3.26708 -1.79767 0
M  V30 3236 N 307.445 0.0818655 -1.57387 0
M  V30 3237 C 308.691 0.784074 -1.8703 0
M  V30 3238 C 309.024 1.77729 -0.782689 0
M  V30 3239 O 308.299 1.93384 0.208051 0
M  V30 3240 C 308.582 1.50105 -3.27323 0
M  V30 3241 C 308.435 0.524925 -4.46727 0
M  V30 3242 C 309.754 2.44843 -3.65705 0
M  V30 3243 H 306.873 0.283582 -0.680257 0
M  V30 3244 H 309.515 0.0474352 -1.89941 0
M  V30 3245 H 307.665 2.12897 -3.24972 0
M  V30 3246 H 309.337 -0.0970111 -4.61198 0
M  V30 3247 H 307.58 -0.160606 -4.33503 0
M  V30 3248 H 308.251 1.064 -5.41648 0
M  V30 3249 H 310.727 1.92135 -3.69085 0
M  V30 3250 H 309.603 2.92018 -4.64776 0
M  V30 3251 H 309.864 3.29197 -2.95096 0
M  V30 3252 N 308.923 1.53595 0.353017 0
M  V30 3253 C 310.2 1.61002 1.11075 0
M  V30 3254 C 310.58 0.425356 2.0677 0
M  V30 3255 O 309.928 -0.583267 2.2093 0
M  V30 3256 C 310.138 2.96631 1.83877 0
M  V30 3257 C 311.486 3.51653 2.37961 0
M  V30 3258 O 312.51 2.98743 1.93987 0
M  V30 3259 O 311.369 4.44177 3.18386 0
M  V30 3260 H 308.463 0.650825 0.510251 0
M  V30 3261 H 311.009 1.6594 0.35527 0
M  V30 3262 H 309.781 3.74293 1.14108 0
M  V30 3263 H 309.404 2.95242 2.66304 0
M  V30 3264 N 310.401 -0.613514 1.45168 0
M  V30 3265 C 311.649 -1.36997 1.48581 0
M  V30 3266 C 311.97 -1.94589 0.126545 0
M  V30 3267 O 311.24 -1.76816 -0.843372 0
M  V30 3268 H 309.82 -0.508558 0.547154 0
M  V30 3269 H 312.482 -0.720853 1.81079 0
M  V30 3270 H 311.578 -2.1924 2.22127 0
M  V30 3271 N 311.879 -1.3236 -0.855495 0
M  V30 3272 C 312.826 -1.21225 -1.964 0
M  V30 3273 C 313.796 -0.0946204 -1.6583 0
M  V30 3274 O 314.981 -0.27002 -1.8888 0
M  V30 3275 C 312.121 -0.940419 -3.32039 0
M  V30 3276 C 311.234 -2.14276 -3.75113 0
M  V30 3277 C 310.369 -1.80648 -4.9954 0
M  V30 3278 C 309.408 -2.97208 -5.35102 0
M  V30 3279 N 308.545 -2.63678 -6.50706 0
M  V30 3280 H 313.385 -2.16042 -2.05255 0
M  V30 3281 H 310.922 -1.07451 -1.00463 0
M  V30 3282 H 312.88 -0.763311 -4.10158 0
M  V30 3283 H 311.51 -0.0290413 -3.22787 0
M  V30 3284 H 310.562 -2.43017 -2.92655 0
M  V30 3285 H 311.874 -3.01468 -3.97389 0
M  V30 3286 H 311.028 -1.59484 -5.85363 0
M  V30 3287 H 309.767 -0.906678 -4.79198 0
M  V30 3288 H 308.772 -3.19004 -4.47791 0
M  V30 3289 H 309.997 -3.87918 -5.57401 0
M  V30 3290 H 307.943 -1.76238 -6.31883 0
M  V30 3291 H 307.86 -3.444 -6.72997 0
M  V30 3292 H 309.128 -2.45942 -7.39684 0
M  V30 3293 N 313.357 1.07166 -1.15556 0
M  V30 3294 C 314.304 2.14417 -0.854055 0
M  V30 3295 C 315.274 1.64965 0.193806 0
M  V30 3296 O 316.459 1.90703 0.0609443 0
M  V30 3297 C 313.599 3.43304 -0.351574 0
M  V30 3298 C 312.712 4.06537 -1.46123 0
M  V30 3299 C 311.847 5.23266 -0.914677 0
M  V30 3300 C 310.886 5.78464 -2.00114 0
M  V30 3301 N 310.023 6.86521 -1.47083 0
M  V30 3302 H 314.863 2.39548 -1.77259 0
M  V30 3303 H 312.4 1.17543 -0.884425 0
M  V30 3304 H 314.358 4.17179 -0.0419409 0
M  V30 3305 H 312.988 3.18419 0.530037 0
M  V30 3306 H 312.04 3.30297 -1.88701 0
M  V30 3307 H 313.352 4.43567 -2.28144 0
M  V30 3308 H 312.506 6.04131 -0.557698 0
M  V30 3309 H 311.245 4.87658 -0.0636583 0
M  V30 3310 H 310.25 4.96243 -2.36692 0
M  V30 3311 H 311.475 6.16126 -2.85597 0
M  V30 3312 H 309.421 6.52849 -0.642198 0
M  V30 3313 H 309.338 7.22446 -2.22729 0
M  V30 3314 H 310.606 7.71087 -1.14215 0
M  V30 3315 N 314.835 0.952656 1.25548 0
M  V30 3316 C 316.084 0.602053 1.92505 0
M  V30 3317 C 316.397 -0.864663 1.75451 0
M  V30 3318 O 317.603 -1.32514 2.36965 0
M  V30 3319 C 316.059 1.02607 3.44963 0
M  V30 3320 C 315.667 2.51519 3.70732 0
M  V30 3321 C 317.411 0.747905 4.1786 0
M  V30 3322 C 315.318 2.87732 5.16686 0
M  V30 3323 H 314.248 0.22146 0.720744 0
M  V30 3324 H 316.899 1.15684 1.42441 0
M  V30 3325 H 315.281 0.399712 3.93978 0
M  V30 3326 H 316.455 3.19157 3.32378 0
M  V30 3327 H 314.77 2.76786 3.11092 0
M  V30 3328 H 317.367 0.994647 5.25367 0
M  V30 3329 H 317.71 -0.315629 4.15102 0
M  V30 3330 H 318.243 1.33452 3.74747 0
M  V30 3331 H 314.982 3.93095 5.24554 0
M  V30 3332 H 314.502 2.24765 5.56094 0
M  V30 3333 H 316.181 2.76817 5.84792 0
M  V30 3334 N 316.313 -1.40141 0.720998 0
M  V30 3335 C 317.541 -2.05096 0.272656 0
M  V30 3336 C 317.956 -1.54334 -1.0875 0
M  V30 3337 O 317.313 -0.702211 -1.6845 0
M  V30 3338 C 317.364 -3.60636 0.249835 0
M  V30 3339 O 317.085 -4.09526 1.55629 0
M  V30 3340 C 318.586 -4.42772 -0.216396 0
M  V30 3341 H 315.806 -0.659897 0.121558 0
M  V30 3342 H 318.35 -1.79449 0.980723 0
M  V30 3343 H 316.505 -3.85232 -0.409237 0
M  V30 3344 H 316.919 -5.03758 1.4604 0
M  V30 3345 H 318.393 -5.51702 -0.181212 0
M  V30 3346 H 318.87 -4.20756 -1.25941 0
M  V30 3347 H 319.476 -4.23294 0.412596 0
M  V30 3348 N 317.792 -0.46758 -1.50504 0
M  V30 3349 C 319.038 0.0887532 -2.02606 0
M  V30 3350 C 319.371 1.39686 -1.34913 0
M  V30 3351 O 318.646 1.88644 -0.473694 0
M  V30 3352 C 318.929 0.276206 -3.59039 0
M  V30 3353 C 318.782 -1.05267 -4.37309 0
M  V30 3354 C 320.101 1.03235 -4.27821 0
M  V30 3355 H 317.22 0.0307814 -0.736357 0
M  V30 3356 H 319.862 -0.612485 -1.79857 0
M  V30 3357 H 318.012 0.8735 -3.78553 0
M  V30 3358 H 319.684 -1.68628 -4.29374 0
M  V30 3359 H 317.927 -1.65015 -4.01189 0
M  V30 3360 H 318.598 -0.875197 -5.45018 0
M  V30 3361 H 321.074 0.526111 -4.12761 0
M  V30 3362 H 319.95 1.1323 -5.37094 0
M  V30 3363 H 320.211 2.06806 -3.90748 0
M  V30 3364 N 319.27 1.56325 -0.20005 0
M  V30 3365 C 320.202 2.16555 0.750771 0
M  V30 3366 C 321.215 1.12871 1.1732 0
M  V30 3367 O 322.404 1.39943 1.10807 0
M  V30 3368 C 319.504 2.71684 2.02586 0
M  V30 3369 C 318.677 4.00321 1.76244 0
M  V30 3370 C 317.736 4.40227 2.88248 0
M  V30 3371 O 316.762 5.07552 2.57642 0
M  V30 3372 N 317.964 4.04138 4.16717 0
M  V30 3373 H 320.729 2.98772 0.235685 0
M  V30 3374 H 318.29 1.6189 -0.0182594 0
M  V30 3375 H 320.282 2.95363 2.76664 0
M  V30 3376 H 318.852 1.93893 2.45202 0
M  V30 3377 H 318.072 3.84723 0.85919 0
M  V30 3378 H 319.36 4.84279 1.56048 0
M  V30 3379 H 318.758 3.49993 4.44434 0
M  V30 3380 H 317.315 4.32756 4.87407 0
M  V30 3381 N 320.748 -0.0735177 1.57428 0
M  V30 3382 C 321.996 -0.771472 1.86796 0
M  V30 3383 C 322.317 -1.78201 0.791804 0
M  V30 3384 O 321.587 -1.95074 -0.179718 0
M  V30 3385 H 320.167 -0.28791 0.689287 0
M  V30 3386 H 322.829 -0.0500161 1.94836 0
M  V30 3387 H 321.925 -1.28874 2.8425 0
M  V30 3388 N 322.226 -1.5378 -0.344866 0
M  V30 3389 C 323.637 -1.62428 -0.920552 0
M  V30 3390 C 323.988 -0.504747 -1.89596 0
M  V30 3391 O 323.113 0.365711 -2.13287 0
M  V30 3392 C 323.708 -2.94419 -1.67639 0
M  V30 3393 C 322.267 -3.05333 -2.20111 0
M  V30 3394 C 321.414 -2.57866 -1.01982 0
M  V30 3395 H 324.365 -1.58222 -0.123042 0
M  V30 3396 H 324.386 -2.83384 -2.53917 0
M  V30 3397 H 323.898 -3.7588 -0.966224 0
M  V30 3398 H 321.999 -2.28502 -2.94308 0
M  V30 3399 H 322.112 -4.10778 -2.46573 0
M  V30 3400 H 320.476 -2.13241 -1.39285 0
M  V30 3401 H 321.259 -3.41765 -0.324308 0
M  V30 3402 N 323.704 0.605807 -1.45491 0
M  V30 3403 C 324.636 1.73031 -1.5031 0
M  V30 3404 C 325.649 1.57968 -0.393687 0
M  V30 3405 O 326.838 1.65817 -0.660839 0
M  V30 3406 C 323.938 3.11049 -1.34543 0
M  V30 3407 C 323.111 3.52334 -2.59189 0
M  V30 3408 C 322.17 4.69323 -2.37954 0
M  V30 3409 O 321.196 4.7635 -3.11575 0
M  V30 3410 N 322.398 5.62705 -1.4263 0
M  V30 3411 H 325.163 1.6936 -2.4726 0
M  V30 3412 H 322.724 0.79114 -1.41254 0
M  V30 3413 H 324.716 3.87071 -1.18144 0
M  V30 3414 H 323.286 3.09217 -0.458623 0
M  V30 3415 H 322.506 2.66256 -2.90691 0
M  V30 3416 H 323.794 3.76677 -3.42041 0
M  V30 3417 H 323.192 5.59744 -0.818758 0
M  V30 3418 H 321.749 6.38252 -1.32202 0
M  V30 3419 N 325.182 1.32811 0.848464 0
M  V30 3420 C 326.129 1.22265 1.95755 0
M  V30 3421 C 327.099 0.103413 1.65778 0
M  V30 3422 O 328.284 0.280033 1.88734 0
M  V30 3423 C 325.424 0.958014 3.31536 0
M  V30 3424 C 324.537 2.16262 3.73971 0
M  V30 3425 C 323.672 1.83295 4.98575 0
M  V30 3426 C 322.711 3.00041 5.33518 0
M  V30 3427 N 321.848 2.67125 6.49299 0
M  V30 3428 H 326.688 2.17128 2.04107 0
M  V30 3429 H 324.225 1.07982 0.998913 0
M  V30 3430 H 326.183 0.785052 4.09747 0
M  V30 3431 H 324.813 0.046159 3.22767 0
M  V30 3432 H 323.865 2.44565 2.91362 0
M  V30 3433 H 325.177 3.03572 3.95785 0
M  V30 3434 H 324.331 1.62586 5.84509 0
M  V30 3435 H 323.07 0.932078 4.7871 0
M  V30 3436 H 322.075 3.21374 4.46093 0
M  V30 3437 H 323.3 3.90869 5.55336 0
M  V30 3438 H 321.246 1.79586 6.3094 0
M  V30 3439 H 321.163 3.47965 6.71161 0
M  V30 3440 H 322.431 2.49861 7.3837 0
M  V30 3441 N 326.66 -1.06551 1.16123 0
M  V30 3442 C 327.59 -2.15935 0.88851 0
M  V30 3443 C 328.571 -1.69306 -0.164135 0
M  V30 3444 O 329.756 -1.94193 -0.0167857 0
M  V30 3445 C 326.886 -3.45149 0.385942 0
M  V30 3446 C 325.84 -4.05271 1.3762 0
M  V30 3447 C 325.166 -5.29664 0.732137 0
M  V30 3448 C 326.466 -4.44355 2.74493 0
M  V30 3449 H 328.16 -2.39006 1.80323 0
M  V30 3450 H 325.706 -1.14866 0.868435 0
M  V30 3451 H 327.659 -4.21004 0.182647 0
M  V30 3452 H 326.383 -3.21689 -0.564274 0
M  V30 3453 H 325.042 -3.3147 1.56599 0
M  V30 3454 H 324.69 -5.02499 -0.224483 0
M  V30 3455 H 324.39 -5.70848 1.39307 0
M  V30 3456 H 325.914 -6.08218 0.538802 0
M  V30 3457 H 327.328 -5.11303 2.59311 0
M  V30 3458 H 325.725 -4.96515 3.37035 0
M  V30 3459 H 326.795 -3.55339 3.29943 0
M  V30 3460 N 328.138 -0.959301 -1.25041 0
M  V30 3461 C 329.366 -0.633949 -1.96948 0
M  V30 3462 C 329.781 0.794916 -1.7125 0
M  V30 3463 O 329.138 1.53231 -0.991287 0
M  V30 3464 C 329.189 -0.888805 -3.50403 0
M  V30 3465 O 328.91 -2.26149 -3.75218 0
M  V30 3466 C 330.411 -0.576482 -4.39536 0
M  V30 3467 H 327.631 -0.237263 -0.627652 0
M  V30 3468 H 330.175 -1.28495 -1.59089 0
M  V30 3469 H 328.33 -0.284145 -3.86357 0
M  V30 3470 H 328.744 -2.33514 -4.6965 0
M  V30 3471 H 330.218 -0.805314 -5.46094 0
M  V30 3472 H 330.695 0.489075 -4.36468 0
M  V30 3473 H 331.301 -1.16067 -4.09156 0
M  V30 3474 N 329.616 1.39756 -0.72842 0
M  V30 3475 C 330.864 2.00248 -0.272946 0
M  V30 3476 C 331.185 1.58077 1.14178 0
M  V30 3477 O 330.455 0.826014 1.77634 0
M  V30 3478 H 329.035 0.740554 -0.0979247 0
M  V30 3479 H 331.697 1.70903 -0.936912 0
M  V30 3480 H 330.793 3.10495 -0.316142 0
M  V30 3481 N 331.094 0.475555 1.50254 0
M  V30 3482 C 332.026 -0.352649 2.26471 0
M  V30 3483 C 333.039 -0.953165 1.3198 0
M  V30 3484 O 334.228 -0.840815 1.57457 0
M  V30 3485 C 331.328 -1.50902 3.0345 0
M  V30 3486 C 330.501 -1.02047 4.25329 0
M  V30 3487 C 329.56 -2.05142 4.84565 0
M  V30 3488 O 328.586 -1.63023 5.45355 0
M  V30 3489 N 329.788 -3.37987 4.71959 0
M  V30 3490 H 332.553 0.300767 2.98187 0
M  V30 3491 H 330.114 0.306598 1.5897 0
M  V30 3492 H 332.106 -2.19572 3.39956 0
M  V30 3493 H 330.676 -2.06705 2.34504 0
M  V30 3494 H 329.896 -0.159507 3.93877 0
M  V30 3495 H 331.184 -0.672061 5.04342 0
M  V30 3496 H 330.582 -3.74913 4.23623 0
M  V30 3497 H 329.139 -4.02443 5.12721 0
M  V30 3498 N 332.573 -1.56217 0.208337 0
M  V30 3499 C 333.52 -2.19699 -0.707192 0
M  V30 3500 C 334.49 -1.14836 -1.20008 0
M  V30 3501 O 335.675 -1.4314 -1.26157 0
M  V30 3502 C 332.815 -2.87061 -1.91546 0
M  V30 3503 C 331.928 -4.06483 -1.46271 0
M  V30 3504 C 331.063 -4.61665 -2.62752 0
M  V30 3505 C 330.102 -5.73417 -2.14147 0
M  V30 3506 N 329.239 -6.22948 -3.23853 0
M  V30 3507 H 334.079 -2.97575 -0.159111 0
M  V30 3508 H 331.616 -1.46948 -0.0667874 0
M  V30 3509 H 333.574 -3.24294 -2.62468 0
M  V30 3510 H 332.204 -2.11725 -2.43664 0
M  V30 3511 H 331.256 -3.74825 -0.648886 0
M  V30 3512 H 332.568 -4.87271 -1.06622 0
M  V30 3513 H 331.722 -5.01272 -3.41776 0
M  V30 3514 H 330.461 -3.80013 -3.05682 0
M  V30 3515 H 329.466 -5.33326 -1.33581 0
M  V30 3516 H 330.691 -6.56897 -1.72232 0
M  V30 3517 H 328.637 -5.44213 -3.6629 0
M  V30 3518 H 328.554 -6.98823 -2.88414 0
M  V30 3519 H 329.822 -6.6721 -4.03052 0
M  V30 3520 N 334.051 0.0651679 -1.57465 0
M  V30 3521 C 335.297 0.764193 -1.87851 0
M  V30 3522 C 335.63 1.76889 -0.801495 0
M  V30 3523 O 334.905 1.93594 0.187528 0
M  V30 3524 C 335.188 1.46625 -3.28897 0
M  V30 3525 C 335.041 0.477515 -4.47258 0
M  V30 3526 C 336.36 2.4095 -3.68281 0
M  V30 3527 H 333.479 0.276351 -0.683227 0
M  V30 3528 H 336.121 0.0272868 -1.8998 0
M  V30 3529 H 334.271 2.09438 -3.27212 0
M  V30 3530 H 335.943 -0.145922 -4.61069 0
M  V30 3531 H 334.186 -0.206576 -4.33308 0
M  V30 3532 H 334.857 1.0065 -5.42746 0
M  V30 3533 H 337.333 1.88209 -3.71102 0
M  V30 3534 H 336.209 2.87072 -4.67847 0
M  V30 3535 H 336.47 3.26049 -2.98571 0
M  V30 3536 N 335.529 1.53961 0.336706 0
M  V30 3537 C 336.775 1.7179 1.07777 0
M  V30 3538 C 337.108 0.483263 1.88091 0
M  V30 3539 O 336.383 -0.519747 1.87427 0
M  V30 3540 C 336.666 2.98558 2.01334 0
M  V30 3541 C 336.519 4.32245 1.24437 0
M  V30 3542 C 337.838 3.21023 3.01052 0
M  V30 3543 H 334.957 0.625089 0.390426 0
M  V30 3544 H 337.599 1.86641 0.35567 0
M  V30 3545 H 335.749 2.86028 2.62908 0
M  V30 3546 H 337.421 4.56637 0.654243 0
M  V30 3547 H 335.664 4.30344 0.546458 0
M  V30 3548 H 336.335 5.17137 1.93063 0
M  V30 3549 H 338.811 3.32929 2.49595 0
M  V30 3550 H 337.687 4.11104 3.6371 0
M  V30 3551 H 337.948 2.37637 3.72802 0
M  V30 3552 N 337.007 -0.598083 1.45811 0
M  V30 3553 C 338.253 -1.35882 1.50545 0
M  V30 3554 C 338.586 -1.93616 0.150445 0
M  V30 3555 O 337.861 -1.75604 -0.83628 0
M  V30 3556 C 338.144 -2.49966 2.59208 0
M  V30 3557 C 337.997 -1.97367 4.04186 0
M  V30 3558 C 339.316 -3.52068 2.64076 0
M  V30 3559 H 336.435 -0.492717 0.548087 0
M  V30 3560 H 339.077 -0.673319 1.77669 0
M  V30 3561 H 337.227 -3.08443 2.3621 0
M  V30 3562 H 338.899 -1.43466 4.38423 0
M  V30 3563 H 337.142 -1.283 4.14393 0
M  V30 3564 H 337.813 -2.79649 4.75921 0
M  V30 3565 H 340.289 -3.03448 2.84708 0
M  V30 3566 H 339.165 -4.2937 3.41954 0
M  V30 3567 H 339.426 -4.08304 1.69531 0
M  V30 3568 N 338.485 -1.33259 -0.841409 0
M  V30 3569 C 339.896 -1.22066 -1.41269 0
M  V30 3570 C 340.247 0.161479 -1.95534 0
M  V30 3571 O 339.372 1.06094 -1.88608 0
M  V30 3572 C 339.967 -2.20996 -2.568 0
M  V30 3573 C 338.526 -2.13649 -3.09888 0
M  V30 3574 C 337.673 -2.08623 -1.82679 0
M  V30 3575 H 340.624 -1.44895 -0.647395 0
M  V30 3576 H 340.645 -1.81621 -3.34356 0
M  V30 3577 H 340.157 -3.2158 -2.17274 0
M  V30 3578 H 338.258 -1.16359 -3.53965 0
M  V30 3579 H 338.371 -3.04079 -3.70234 0
M  V30 3580 H 336.735 -1.54061 -2.02824 0
M  V30 3581 H 337.518 -3.1101 -1.45353 0
M  V30 3582 N 339.963 1.05934 -1.16686 0
M  V30 3583 C 341.211 1.78447 -0.948744 0
M  V30 3584 C 341.532 1.87813 0.524523 0
M  V30 3585 O 340.802 1.38945 1.38098 0
M  V30 3586 H 339.382 0.660971 -0.348033 0
M  V30 3587 H 342.044 1.27947 -1.47022 0
M  V30 3588 H 341.14 2.80394 -1.37061 0
M  V30 3589 N 341.441 0.965919 1.2453 0
M  V30 3590 C 342.718 0.543777 1.87889 0
M  V30 3591 C 343.098 -0.97909 1.87021 0
M  V30 3592 O 342.446 -1.84969 1.3416 0
M  V30 3593 C 342.656 1.13327 3.30088 0
M  V30 3594 C 344.004 1.21707 4.06783 0
M  V30 3595 O 345.028 1.08566 3.39252 0
M  V30 3596 O 343.887 1.42456 5.27606 0
M  V30 3597 H 340.981 0.181054 0.806938 0
M  V30 3598 H 343.527 1.06007 1.32516 0
M  V30 3599 H 342.299 2.17612 3.25209 0
M  V30 3600 H 341.922 0.600911 3.93033 0
M  V30 3601 N 342.919 -1.39368 0.735821 0
M  V30 3602 C 344.168 -1.99733 0.281004 0
M  V30 3603 C 344.481 -1.59055 -1.13846 0
M  V30 3604 O 345.687 -2.12262 -1.69284 0
M  V30 3605 C 344.143 -3.57057 0.451462 0
M  V30 3606 C 343.751 -4.06697 1.87886 0
M  V30 3607 C 345.495 -4.2446 0.0584616 0
M  V30 3608 C 343.402 -5.56598 1.99883 0
M  V30 3609 H 342.332 -0.747163 0.101311 0
M  V30 3610 H 344.983 -1.59357 0.909819 0
M  V30 3611 H 343.365 -3.95234 -0.246263 0
M  V30 3612 H 344.539 -3.79853 2.60861 0
M  V30 3613 H 342.854 -3.5196 2.22515 0
M  V30 3614 H 345.451 -5.34549 0.127099 0
M  V30 3615 H 345.794 -4.04444 -0.986433 0
M  V30 3616 H 346.327 -3.9146 0.707374 0
M  V30 3617 H 343.066 -5.81494 3.02564 0
M  V30 3618 H 342.586 -5.85242 1.31346 0
M  V30 3619 H 344.265 -6.22022 1.78039 0
M  V30 3620 N 344.397 -0.483516 -1.5 0
M  V30 3621 C 345.622 0.0667119 -2.07293 0
M  V30 3622 C 346.047 1.3164 -1.3436 0
M  V30 3623 O 345.405 1.76945 -0.394987 0
M  V30 3624 C 345.453 0.321126 -3.59167 0
M  V30 3625 O 344.557 1.39927 -3.87936 0
M  V30 3626 H 343.898 -0.0184758 -0.663743 0
M  V30 3627 H 346.428 -0.678125 -1.93035 0
M  V30 3628 H 346.438 0.557906 -4.04168 0
M  V30 3629 H 345.113 -0.592007 -4.11665 0
M  V30 3630 H 343.69 1.14882 -3.54763 0
M  V30 3631 N 345.875 1.56104 -0.216619 0
M  V30 3632 C 347.1 2.0301 0.424462 0
M  V30 3633 C 347.525 1.0955 1.52907 0
M  V30 3634 O 346.883 0.0827914 1.81111 0
M  V30 3635 C 346.931 3.4819 0.937883 0
M  V30 3636 O 346.035 3.57865 2.04955 0
M  V30 3637 H 345.376 0.656925 0.0966755 0
M  V30 3638 H 347.906 2.01859 -0.33381 0
M  V30 3639 H 347.916 3.88413 1.24897 0
M  V30 3640 H 346.591 4.15699 0.129387 0
M  V30 3641 H 345.168 3.29527 1.74546 0
M  V30 3642 N 347.353 -0.0568162 1.57498 0
M  V30 3643 C 348.316 -1.05038 2.03715 0
M  V30 3644 C 349.316 -1.30709 0.936577 0
M  V30 3645 O 350.506 -1.26178 1.20103 0
M  V30 3646 C 347.638 -2.39034 2.43055 0
M  V30 3647 H 348.831 -0.651715 2.92733 0
M  V30 3648 H 346.384 -0.302947 1.53336 0
M  V30 3649 H 347.119 -2.83703 1.57108 0
M  V30 3650 H 346.904 -2.21739 3.2338 0
M  V30 3651 H 348.394 -3.10421 2.79336 0
M  V30 3652 N 348.832 -1.54138 -0.328536 0
M  V30 3653 C 349.795 -1.82462 -1.38709 0
M  V30 3654 C 350.795 -0.696229 -1.44946 0
M  V30 3655 O 351.985 -0.964535 -1.4506 0
M  V30 3656 C 349.117 -1.98018 -2.77492 0
M  V30 3657 H 350.31 -2.77037 -1.14851 0
M  V30 3658 H 347.863 -1.45779 -0.563751 0
M  V30 3659 H 348.598 -1.05637 -3.06613 0
M  V30 3660 H 348.383 -2.80124 -2.74359 0
M  V30 3661 H 349.873 -2.21396 -3.54081 0
M  V30 3662 N 350.31 0.590341 -1.46126 0
M  V30 3663 C 351.557 1.34882 -1.5104 0
M  V30 3664 C 351.885 1.93849 -0.159021 0
M  V30 3665 O 351.14 1.76544 0.844436 0
M  V30 3666 C 351.439 2.5032 -2.55097 0
M  V30 3667 C 351.105 2.09394 -3.99331 0
M  V30 3668 C 349.767 1.97947 -4.38601 0
M  V30 3669 C 352.119 1.77712 -4.89967 0
M  V30 3670 C 349.447 1.53065 -5.66381 0
M  V30 3671 C 351.799 1.34312 -6.18177 0
M  V30 3672 C 350.463 1.21436 -6.56361 0
M  V30 3673 H 349.733 0.493568 -0.552695 0
M  V30 3674 H 352.38 0.665539 -1.79563 0
M  V30 3675 H 350.685 3.24062 -2.20207 0
M  V30 3676 H 352.382 3.08541 -2.56132 0
M  V30 3677 H 348.972 2.19235 -3.68285 0
M  V30 3678 H 353.156 1.85445 -4.60352 0
M  V30 3679 H 348.412 1.41733 -5.94745 0
M  V30 3680 H 352.586 1.08849 -6.87841 0
M  V30 3681 H 350.213 0.864345 -7.5527 0
M  V30 3682 N 351.788 1.33704 0.83433 0
M  V30 3683 C 353.034 1.26612 1.59188 0
M  V30 3684 C 353.389 -0.165439 1.91687 0
M  V30 3685 O 352.682 -1.10873 1.56262 0
M  V30 3686 C 352.876 2.07926 2.90692 0
M  V30 3687 C 352.705 3.58844 2.71038 0
M  V30 3688 C 351.475 4.28148 2.68361 0
M  V30 3689 C 353.673 4.53082 2.43353 0
M  V30 3690 N 351.655 5.64987 2.40132 0
M  V30 3691 C 353.026 5.77843 2.24716 0
M  V30 3692 C 355.081 4.42119 2.28987 0
M  V30 3693 C 353.784 6.92877 1.9317 0
M  V30 3694 C 355.81 5.56973 1.98835 0
M  V30 3695 C 355.172 6.80745 1.81012 0
M  V30 3696 H 351.271 0.518517 0.585375 0
M  V30 3697 H 353.855 1.68294 0.979044 0
M  V30 3698 H 352.026 1.68558 3.49918 0
M  V30 3699 H 353.758 1.92568 3.55949 0
M  V30 3700 H 350.513 3.80469 2.82029 0
M  V30 3701 H 350.937 6.37133 2.28889 0
M  V30 3702 H 355.579 3.47058 2.41477 0
M  V30 3703 H 353.297 7.87931 1.79418 0
M  V30 3704 H 356.883 5.50428 1.88468 0
M  V30 3705 H 355.763 7.68115 1.58017 0
M  V30 3706 N 353.266 -1.05314 1.17247 0
M  V30 3707 C 354.196 -2.1498 0.911362 0
M  V30 3708 C 355.177 -1.69471 -0.146169 0
M  V30 3709 O 356.362 -1.942 0.003812 0
M  V30 3710 C 353.492 -3.4472 0.422528 0
M  V30 3711 C 352.446 -4.03789 1.4191 0
M  V30 3712 C 351.772 -5.28858 0.788274 0
M  V30 3713 C 353.072 -4.41418 2.7919 0
M  V30 3714 H 354.766 -2.3708 1.82848 0
M  V30 3715 H 352.312 -1.13938 0.880569 0
M  V30 3716 H 354.265 -4.20787 0.227289 0
M  V30 3717 H 352.989 -3.22269 -0.530123 0
M  V30 3718 H 351.648 -3.2979 1.60106 0
M  V30 3719 H 351.296 -5.02709 -0.171173 0
M  V30 3720 H 350.996 -5.69338 1.45353 0
M  V30 3721 H 352.52 -6.07612 0.603282 0
M  V30 3722 H 353.934 -5.08524 2.64719 0
M  V30 3723 H 352.331 -4.92913 3.42282 0
M  V30 3724 H 353.401 -3.51819 3.33693 0
M  V30 3725 N 354.744 -0.972509 -1.24016 0
M  V30 3726 C 355.99 -0.637978 -1.92504 0
M  V30 3727 C 356.323 0.825383 -1.75787 0
M  V30 3728 O 355.598 1.59442 -1.11393 0
M  V30 3729 C 355.881 -1.01942 -3.45369 0
M  V30 3730 C 355.734 -2.53983 -3.71231 0
M  V30 3731 C 357.053 -0.55751 -4.36555 0
M  V30 3732 H 354.172 -0.233248 -0.699117 0
M  V30 3733 H 356.814 -1.21238 -1.46292 0
M  V30 3734 H 354.964 -0.530656 -3.84859 0
M  V30 3735 H 356.636 -3.10374 -3.41271 0
M  V30 3736 H 354.879 -2.96968 -3.16216 0
M  V30 3737 H 355.55 -2.75723 -4.78206 0
M  V30 3738 H 358.026 -0.977029 -4.04467 0
M  V30 3739 H 356.902 -0.85292 -5.42233 0
M  V30 3740 H 357.163 0.542328 -4.38761 0
M  V30 3741 N 356.222 1.38976 -0.743202 0
M  V30 3742 C 357.185 2.28901 -0.117014 0
M  V30 3743 C 358.185 1.46698 0.658503 0
M  V30 3744 O 359.375 1.67274 0.486305 0
M  V30 3745 C 356.507 3.30309 0.84315 0
M  V30 3746 H 357.7 2.8578 -0.909373 0
M  V30 3747 H 355.253 1.47761 -0.509547 0
M  V30 3748 H 355.988 2.785 1.66157 0
M  V30 3749 H 355.773 3.91029 0.289594 0
M  V30 3750 H 357.263 3.97577 1.2776 0
M  V30 3751 N 357.7 0.491464 1.49741 0
M  V30 3752 C 358.948 -0.0563141 2.02022 0
M  V30 3753 C 359.269 -1.38363 1.37407 0
M  V30 3754 O 358.539 -1.88702 0.526166 0
M  V30 3755 H 357.119 -0.0238014 0.746621 0
M  V30 3756 H 359.781 0.646533 1.83864 0
M  V30 3757 H 358.877 -0.192967 3.11503 0
M  V30 3758 N 359.178 -1.55987 0.224894 0
M  V30 3759 C 360.108 -2.23426 -0.678457 0
M  V30 3760 C 361.089 -1.20709 -1.19847 0
M  V30 3761 O 362.274 -1.49304 -1.24186 0
M  V30 3762 C 359.404 -2.91676 -1.88527 0
M  V30 3763 C 358.358 -4.00893 -1.49896 0
M  V30 3764 C 357.684 -4.56455 -2.78483 0
M  V30 3765 C 358.984 -5.17769 -0.686461 0
M  V30 3766 H 360.678 -2.99175 -0.116173 0
M  V30 3767 H 358.224 -1.43897 -0.054436 0
M  V30 3768 H 360.177 -3.37547 -2.5227 0
M  V30 3769 H 358.901 -2.1338 -2.47258 0
M  V30 3770 H 357.56 -3.55758 -0.884985 0
M  V30 3771 H 357.208 -3.74886 -3.35365 0
M  V30 3772 H 356.908 -5.30169 -2.53368 0
M  V30 3773 H 358.432 -5.05047 -3.43162 0
M  V30 3774 H 359.846 -5.60001 -1.22767 0
M  V30 3775 H 358.243 -5.97735 -0.532259 0
M  V30 3776 H 359.313 -4.83932 0.306196 0
M  V30 3777 N 360.656 0.0484629 -1.57525 0
M  V30 3778 C 361.905 0.742065 -1.87553 0
M  V30 3779 C 362.218 1.77545 -0.820802 0
M  V30 3780 O 363.424 2.52027 -1.00967 0
M  V30 3781 C 361.88 1.37081 -3.32771 0
M  V30 3782 C 361.488 0.374786 -4.4643 0
M  V30 3783 C 363.232 2.04542 -3.71972 0
M  V30 3784 C 361.139 1.01077 -5.82698 0
M  V30 3785 H 360.069 0.280903 -0.699721 0
M  V30 3786 H 362.72 -0.00411877 -1.835 0
M  V30 3787 H 361.102 2.16605 -3.31509 0
M  V30 3788 H 362.276 -0.392331 -4.59127 0
M  V30 3789 H 360.591 -0.196653 -4.15935 0
M  V30 3790 H 363.188 2.52943 -4.71088 0
M  V30 3791 H 363.531 2.85515 -3.02964 0
M  V30 3792 H 364.064 1.31819 -3.75325 0
M  V30 3793 H 360.803 0.240878 -6.55057 0
M  V30 3794 H 360.323 1.74819 -5.73758 0
M  V30 3795 H 362.002 1.52383 -6.28799 0
M  V30 3796 N 362.134 1.5431 0.320358 0
M  V30 3797 C 363.097 1.83195 1.3774 0
M  V30 3798 C 364.097 0.703906 1.44575 0
M  V30 3799 O 365.287 0.972214 1.44546 0
M  V30 3800 C 362.419 1.99487 2.76438 0
M  V30 3801 H 363.612 2.77642 1.1338 0
M  V30 3802 H 361.165 1.46076 0.556012 0
M  V30 3803 H 361.9 1.07262 3.06048 0
M  V30 3804 H 361.685 2.81575 2.7287 0
M  V30 3805 H 363.175 2.23271 3.52902 0
M  V30 3806 N 363.613 -0.582584 1.46437 0
M  V30 3807 C 365.024 -1.1647 1.45916 0
M  V30 3808 C 365.375 -1.95177 0.200077 0
M  V30 3809 O 364.5 -2.04874 -0.696819 0
M  V30 3810 C 365.095 -2.11885 2.64367 0
M  V30 3811 C 363.654 -2.65421 2.66887 0
M  V30 3812 C 362.801 -1.41294 2.38603 0
M  V30 3813 H 365.752 -0.370514 1.54314 0
M  V30 3814 H 365.773 -2.9535 2.39892 0
M  V30 3815 H 365.285 -1.54573 3.5599 0
M  V30 3816 H 363.386 -3.26602 1.79338 0
M  V30 3817 H 363.499 -3.08147 3.66854 0
M  V30 3818 H 361.863 -1.71109 1.88663 0
M  V30 3819 H 362.646 -0.858125 3.32402 0
M  V30 3820 N 365.091 -1.34144 -0.827227 0
M  V30 3821 C 366.039 -1.25364 -1.95925 0
M  V30 3822 C 367.033 -0.152608 -1.68711 0
M  V30 3823 O 368.239 -0.317311 -1.77181 0
M  V30 3824 H 364.614 -0.389342 -0.643364 0
M  V30 3825 H 366.585 -2.21045 -2.00454 0
M  V30 3826 C 365.334 -1.02158 -3.32354 0
M  V30 3827 H 364.657 -1.86111 -3.5384 0
M  V30 3828 H 366.097 -1.00048 -4.12027 0
M  V30 3829 C 364.556 0.275244 -3.35774 0
M  V30 3830 O 365.086 1.27806 -3.80826 0
M  V30 3831 N 363.292 0.306853 -2.88975 0
M  V30 3832 H 362.839 -0.509777 -2.52506 0
M  V30 3833 H 362.797 1.17432 -2.91646 0
M  V30 3834 N 366.569 1.04691 -1.17803 0
M  V30 3835 C 367.794 1.81984 -0.994813 0
M  V30 3836 C 368.219 1.82586 0.452112 0
M  V30 3837 O 367.577 1.23854 1.324 0
M  V30 3838 C 367.625 3.2575 -1.54659 0
M  V30 3839 O 366.729 4.05267 -0.763728 0
M  V30 3840 H 366.07 0.562483 -0.352857 0
M  V30 3841 H 368.6 1.3189 -1.56417 0
M  V30 3842 H 368.61 3.76541 -1.57102 0
M  V30 3843 H 367.285 3.24627 -2.59981 0
M  V30 3844 H 365.862 3.63972 -0.811108 0
M  V30 3845 N 368.047 0.979072 1.23499 0
M  V30 3846 C 369.463 0.687475 1.44034 0
M  V30 3847 C 369.663 -0.746801 1.8715 0
M  V30 3848 O 368.719 -1.51939 2.0167 0
M  V30 3849 C 370.032 1.68127 2.49307 0
M  V30 3850 C 371.58 1.69516 2.63122 0
M  V30 3851 C 372.055 2.67723 3.71603 0
M  V30 3852 N 373.546 2.66233 3.79044 0
M  V30 3853 C 374.281 3.38891 4.62537 0
M  V30 3854 N 373.777 4.21103 5.50131 0
M  V30 3855 N 375.57 3.27661 4.56721 0
M  V30 3856 H 367.721 1.90559 0.938135 0
M  V30 3857 H 369.984 0.821051 0.473897 0
M  V30 3858 H 369.69 2.70693 2.2454 0
M  V30 3859 H 369.564 1.46306 3.4767 0
M  V30 3860 H 371.951 0.676561 2.8724 0
M  V30 3861 H 372.032 1.95404 1.65079 0
M  V30 3862 H 371.676 3.69724 3.48233 0
M  V30 3863 H 371.606 2.39111 4.69184 0
M  V30 3864 H 374.097 2.06568 3.16446 0
M  V30 3865 H 374.41 4.73403 6.10827 0
M  V30 3866 H 372.755 4.25195 5.49759 0
M  V30 3867 H 375.946 2.62887 3.87309 0
M  V30 3868 H 376.119 3.84547 5.21562 0
M  V30 3869 N 369.525 -1.3858 0.750561 0
M  V30 3870 C 370.455 -2.33102 0.136237 0
M  V30 3871 C 371.436 -1.54713 -0.706965 0
M  V30 3872 O 372.621 -1.83043 -0.648769 0
M  V30 3873 C 369.751 -3.38882 -0.760017 0
M  V30 3874 C 368.705 -4.27995 -0.0197785 0
M  V30 3875 C 368.031 -5.24605 -1.03408 0
M  V30 3876 C 369.331 -5.09554 1.14684 0
M  V30 3877 H 371.025 -2.84726 0.925822 0
M  V30 3878 H 368.571 -1.36898 0.446654 0
M  V30 3879 H 370.524 -4.0397 -1.19943 0
M  V30 3880 H 369.248 -2.85734 -1.58189 0
M  V30 3881 H 367.907 -3.64409 0.400184 0
M  V30 3882 H 367.555 -4.67746 -1.84994 0
M  V30 3883 H 367.255 -5.85081 -0.543464 0
M  V30 3884 H 368.779 -5.9257 -1.47288 0
M  V30 3885 H 370.193 -5.67899 0.785118 0
M  V30 3886 H 368.59 -5.7925 1.56812 0
M  V30 3887 H 369.66 -4.4347 1.96118 0
M  V30 3888 N 371.003 -0.499398 -1.49478 0
M  V30 3889 C 372.249 0.0457576 -2.02748 0
M  V30 3890 C 372.582 1.36793 -1.37846 0
M  V30 3891 O 371.857 1.87596 -0.513601 0
M  V30 3892 C 372.14 0.199986 -3.59544 0
M  V30 3893 C 371.993 -1.1452 -4.34977 0
M  V30 3894 C 373.312 0.94137 -4.29914 0
M  V30 3895 H 370.431 0.0151552 -0.736844 0
M  V30 3896 H 373.073 -0.650498 -1.78518 0
M  V30 3897 H 371.223 0.793007 -3.8032 0
M  V30 3898 H 372.895 -1.77697 -4.25701 0
M  V30 3899 H 371.138 -1.73488 -3.97598 0
M  V30 3900 H 371.809 -0.990607 -5.43039 0
M  V30 3901 H 374.285 0.43844 -4.13784 0
M  V30 3902 H 373.161 1.01812 -5.39375 0
M  V30 3903 H 373.422 1.98471 -3.95046 0
M  V30 3904 N 372.481 1.55866 -0.233164 0
M  V30 3905 C 373.411 2.23783 0.666599 0
M  V30 3906 C 374.392 1.21343 1.19205 0
M  V30 3907 O 375.577 1.4996 1.23392 0
M  V30 3908 C 372.707 2.92671 1.86978 0
M  V30 3909 C 371.661 4.01682 1.47768 0
M  V30 3910 C 370.987 4.57926 2.76058 0
M  V30 3911 C 372.287 5.18126 0.658993 0
M  V30 3912 H 373.981 2.99232 0.100306 0
M  V30 3913 H 371.527 1.43924 0.046804 0
M  V30 3914 H 373.48 3.3888 2.50476 0
M  V30 3915 H 372.204 2.14688 2.46123 0
M  V30 3916 H 370.863 3.56222 0.866106 0
M  V30 3917 H 370.511 3.76659 3.33372 0
M  V30 3918 H 370.211 5.31505 2.50552 0
M  V30 3919 H 371.735 5.06859 3.40479 0
M  V30 3920 H 373.149 5.60644 1.19795 0
M  V30 3921 H 371.546 5.98009 0.500552 0
M  V30 3922 H 372.616 4.83763 -0.331856 0
M  V30 3923 N 373.959 -0.0401083 1.57549 0
M  V30 3924 C 374.891 -1.07149 2.02612 0
M  V30 3925 C 375.904 -1.33126 0.937085 0
M  V30 3926 O 377.093 -1.30808 1.21456 0
M  V30 3927 C 374.193 -2.41561 2.37701 0
M  V30 3928 C 373.366 -2.35096 3.68848 0
M  V30 3929 C 372.425 -3.51867 3.91249 0
M  V30 3930 O 371.451 -3.3186 4.62447 0
M  V30 3931 N 372.653 -4.73351 3.36035 0
M  V30 3932 H 375.418 -0.687485 2.91708 0
M  V30 3933 H 372.979 -0.228248 1.60283 0
M  V30 3934 H 374.971 -3.18379 2.49833 0
M  V30 3935 H 373.541 -2.71846 1.54332 0
M  V30 3936 H 372.761 -1.4345 3.67173 0
M  V30 3937 H 374.049 -2.27908 4.54901 0
M  V30 3938 H 373.447 -4.92507 2.78304 0
M  V30 3939 H 372.004 -5.47572 3.53565 0
M  V30 3940 N 375.437 -1.54477 -0.31217 0
M  V30 3941 C 376.385 -1.85395 -1.40469 0
M  V30 3942 C 377.379 -0.726749 -1.53019 0
M  V30 3943 O 378.585 -0.910582 -1.55269 0
M  V30 3944 H 374.96 -0.587845 -0.46898 0
M  V30 3945 H 376.931 -2.76736 -1.11623 0
M  V30 3946 C 375.68 -2.10811 -2.76503 0
M  V30 3947 H 375.003 -2.97014 -2.67625 0
M  V30 3948 H 376.443 -2.3639 -3.51988 0
M  V30 3949 C 374.902 -0.903165 -3.24568 0
M  V30 3950 O 375.432 -0.118085 -4.01526 0
M  V30 3951 N 373.638 -0.711634 -2.81752 0
M  V30 3952 H 373.185 -1.35171 -2.19286 0
M  V30 3953 H 373.143 0.0930473 -3.14262 0
M  V30 3954 N 376.915 0.57481 -1.46744 0
M  V30 3955 C 378.161 1.3347 -1.52688 0
M  V30 3956 C 378.494 1.93353 -0.181229 0
M  V30 3957 O 377.769 1.76912 0.808237 0
M  V30 3958 C 378.052 2.45811 -2.63152 0
M  V30 3959 C 377.905 1.90912 -4.07275 0
M  V30 3960 C 379.224 3.47822 -2.69644 0
M  V30 3961 H 376.343 0.483935 -0.555856 0
M  V30 3962 H 378.985 0.644968 -1.78718 0
M  V30 3963 H 377.135 3.04646 -2.41088 0
M  V30 3964 H 378.807 1.36473 -4.4065 0
M  V30 3965 H 377.05 1.21691 -4.16382 0
M  V30 3966 H 377.721 2.72042 -4.80309 0
M  V30 3967 H 380.197 2.9888 -2.895 0
M  V30 3968 H 379.073 4.23876 -3.48742 0
M  V30 3969 H 379.334 4.05555 -1.76005 0
M  V30 3970 N 378.394 1.34581 0.820102 0
M  V30 3971 C 379.642 1.26845 1.57336 0
M  V30 3972 C 379.963 -0.160667 1.94337 0
M  V30 3973 O 379.233 -1.09396 1.6251 0
M  V30 3974 H 377.813 0.466514 0.583415 0
M  V30 3975 H 380.475 1.68526 0.979027 0
M  V30 3976 H 379.571 1.87513 2.4949 0
M  V30 3977 N 379.872 -1.04064 1.18357 0
M  V30 3978 C 381.121 -1.76662 0.973313 0
M  V30 3979 C 381.434 -1.89154 -0.497991 0
M  V30 3980 O 382.64 -2.58606 -0.826762 0
M  V30 3981 C 381.096 -3.17624 1.69242 0
M  V30 3982 C 380.704 -3.13225 3.20303 0
M  V30 3983 C 382.448 -3.946 1.56497 0
M  V30 3984 C 380.355 -4.49046 3.84853 0
M  V30 3985 H 379.285 -0.662214 0.36054 0
M  V30 3986 H 381.936 -1.16553 1.41731 0
M  V30 3987 H 380.318 -3.78129 1.1762 0
M  V30 3988 H 381.492 -2.62172 3.78949 0
M  V30 3989 H 379.807 -2.49749 3.33189 0
M  V30 3990 H 382.404 -4.95042 2.02084 0
M  V30 3991 H 382.747 -4.13074 0.517243 0
M  V30 3992 H 383.28 -3.4067 2.05399 0
M  V30 3993 H 380.019 -4.35777 4.89672 0
M  V30 3994 H 379.539 -5.00203 3.30994 0
M  V30 3995 H 381.218 -5.17961 3.87718 0
M  V30 3996 N 381.35 -0.985608 -1.22978 0
M  V30 3997 C 382.298 -0.522631 -2.26652 0
M  V30 3998 C 383.292 0.422998 -1.64034 0
M  V30 3999 O 384.498 0.296319 -1.77544 0
M  V30 4000 H 380.873 -0.150597 -0.736766 0
M  V30 4001 H 382.844 -1.40863 -2.63059 0
M  V30 4002 C 381.593 0.154238 -3.47358 0
M  V30 4003 H 380.916 -0.564329 -3.95797 0
M  V30 4004 H 382.356 0.441744 -4.21693 0
M  V30 4005 C 380.815 1.38719 -3.07016 0
M  V30 4006 O 381.345 2.48307 -3.15764 0
M  V30 4007 N 379.551 1.25975 -2.61875 0
M  V30 4008 H 379.098 0.368068 -2.54957 0
M  V30 4009 H 379.056 2.08578 -2.3525 0
M  V30 4010 N 382.828 1.3818 -0.7579 0
M  V30 4011 C 383.738 2.3421 -0.135247 0
M  V30 4012 C 384.754 1.59487 0.695683 0
M  V30 4013 O 385.93 1.91657 0.618832 0
M  V30 4014 C 382.995 3.3862 0.744139 0
M  V30 4015 C 382.056 4.2918 -0.101658 0
M  V30 4016 C 381.289 5.28603 0.735851 0
M  V30 4017 O 381.512 5.35166 1.97366 0
M  V30 4018 O 380.446 6.01707 0.152372 0
M  V30 4019 H 384.272 2.8916 -0.928436 0
M  V30 4020 H 381.857 1.40101 -0.518855 0
M  V30 4021 H 383.739 4.02539 1.2466 0
M  V30 4022 H 382.414 2.86019 1.51575 0
M  V30 4023 H 381.321 3.68407 -0.650167 0
M  V30 4024 H 382.654 4.85048 -0.836024 0
M  V30 4025 N 384.306 0.507319 1.49211 0
M  V30 4026 C 385.534 -0.0315749 2.06876 0
M  V30 4027 C 385.949 -1.30241 1.36685 0
M  V30 4028 O 385.306 -1.76937 0.447152 0
M  V30 4029 C 385.357 -0.282627 3.60393 0
M  V30 4030 O 385.078 0.937835 4.27944 0
M  V30 4031 C 386.579 -0.864453 4.3479 0
M  V30 4032 H 383.799 0.0233048 0.670595 0
M  V30 4033 H 386.343 0.706484 1.91909 0
M  V30 4034 H 384.498 -0.97068 3.75042 0
M  V30 4035 H 384.912 0.704567 5.19746 0
M  V30 4036 H 386.386 -0.989664 5.43056 0
M  V30 4037 H 386.863 -1.86382 3.97692 0
M  V30 4038 H 387.469 -0.213672 4.24763 0
M  V30 4039 N 385.784 -1.5574 0.241426 0
M  V30 4040 C 387.2 -1.59196 -0.113548 0
M  V30 4041 C 387.4 -1.25852 -1.57364 0
M  V30 4042 O 386.456 -1.00322 -2.31715 0
M  V30 4043 C 387.769 -2.99814 0.230695 0
M  V30 4044 C 389.317 -3.12513 0.174547 0
M  V30 4045 C 389.792 -4.55342 0.492744 0
M  V30 4046 N 391.283 -4.61076 0.443043 0
M  V30 4047 C 392.018 -5.6956 0.662484 0
M  V30 4048 N 391.514 -6.86328 0.944761 0
M  V30 4049 N 393.307 -5.58957 0.593564 0
M  V30 4050 H 385.458 -1.75685 1.19368 0
M  V30 4051 H 387.721 -0.81756 0.479896 0
M  V30 4052 H 387.427 -3.28932 1.24485 0
M  V30 4053 H 387.301 -3.74568 -0.444833 0
M  V30 4054 H 389.688 -2.83179 -0.830277 0
M  V30 4055 H 389.769 -2.40045 0.883845 0
M  V30 4056 H 389.413 -4.85396 1.4951 0
M  V30 4057 H 389.343 -5.26062 -0.23797 0
M  V30 4058 H 391.834 -3.77179 0.233374 0
M  V30 4059 H 392.147 -7.64935 1.09977 0
M  V30 4060 H 390.492 -6.88025 0.982175 0
M  V30 4061 H 393.683 -4.66611 0.373123 0
M  V30 4062 H 393.856 -6.43433 0.767981 0
M  V30 4063 N 387.262 0.0317525 -1.57568 0
M  V30 4064 C 388.49 0.734949 -1.93407 0
M  V30 4065 C 388.905 1.69036 -0.84096 0
M  V30 4066 O 388.262 1.81582 0.182836 0
M  V30 4067 C 388.313 1.49432 -3.29169 0
M  V30 4068 O 388.034 0.577261 -4.3428 0
M  V30 4069 C 389.535 2.29492 -3.79273 0
M  V30 4070 H 386.755 0.206706 -0.638368 0
M  V30 4071 H 389.299 -0.00992046 -2.04498 0
M  V30 4072 H 387.454 2.1911 -3.19483 0
M  V30 4073 H 387.868 1.10952 -5.1263 0
M  V30 4074 H 389.342 2.78172 -4.76785 0
M  V30 4075 H 389.819 3.10794 -3.10328 0
M  V30 4076 H 390.425 1.64894 -3.92033 0
M  V30 4077 N 388.74 1.54641 0.303973 0
M  V30 4078 C 389.988 1.73437 1.0375 0
M  V30 4079 C 390.309 0.521449 1.87899 0
M  V30 4080 O 389.579 -0.46432 1.90318 0
M  V30 4081 H 388.159 0.639518 0.386039 0
M  V30 4082 H 390.821 1.91988 0.335675 0
M  V30 4083 H 389.917 2.62235 1.69231 0
M  V30 4084 N 390.218 -0.567019 1.47046 0
M  V30 4085 C 391.467 -1.32091 1.5243 0
M  V30 4086 C 391.78 -1.94704 0.187021 0
M  V30 4087 O 392.986 -2.7124 0.118771 0
M  V30 4088 C 391.442 -2.39479 2.68659 0
M  V30 4089 C 391.05 -1.831 4.08874 0
M  V30 4090 C 392.794 -3.16111 2.83327 0
M  V30 4091 C 390.701 -2.8821 5.16419 0
M  V30 4092 H 389.631 -0.496629 0.56734 0
M  V30 4093 H 392.282 -0.603354 1.73297 0
M  V30 4094 H 390.664 -3.14105 2.41152 0
M  V30 4095 H 391.838 -1.14913 4.46242 0
M  V30 4096 H 390.153 -1.19085 3.99008 0
M  V30 4097 H 392.75 -3.94585 3.60842 0
M  V30 4098 H 393.093 -3.69686 1.91411 0
M  V30 4099 H 393.626 -2.48595 3.10556 0
M  V30 4100 H 390.365 -2.39504 6.10179 0
M  V30 4101 H 389.885 -3.54839 4.8358 0
M  V30 4102 H 391.564 -3.51881 5.42945 0
M  V30 4103 N 391.696 -1.35014 -0.812953 0
M  V30 4104 C 392.945 -1.27269 -1.56479 0
M  V30 4105 C 393.258 0.152771 -1.95002 0
M  V30 4106 O 394.464 0.352451 -2.69203 0
M  V30 4107 C 392.92 -2.23159 -2.82362 0
M  V30 4108 C 392.528 -3.71016 -2.511 0
M  V30 4109 C 394.272 -2.24342 -3.60376 0
M  V30 4110 C 392.179 -4.58746 -3.73237 0
M  V30 4111 H 391.109 -0.472829 -0.587324 0
M  V30 4112 H 393.76 -1.6024 -0.894171 0
M  V30 4113 H 392.142 -1.83151 -3.51101 0
M  V30 4114 H 393.316 -4.1962 -1.90409 0
M  V30 4115 H 391.631 -3.72378 -1.86343 0
M  V30 4116 H 394.228 -2.87107 -4.51081 0
M  V30 4117 H 394.571 -1.24542 -3.97234 0
M  V30 4118 H 395.104 -2.62846 -2.98591 0
M  V30 4119 H 391.843 -5.59521 -3.41492 0
M  V30 4120 H 391.363 -4.14871 -4.33176 0
M  V30 4121 H 393.042 -4.73852 -4.40537 0
M  V30 4122 N 393.175 1.03435 -1.18907 0
M  V30 4123 C 394.452 1.73778 -0.89781 0
M  V30 4124 C 394.832 2.02458 0.597832 0
M  V30 4125 O 394.18 1.67482 1.55441 0
M  V30 4126 C 394.39 3.01845 -1.75187 0
M  V30 4127 C 395.738 3.7546 -1.9828 0
M  V30 4128 O 396.762 3.11759 -1.72293 0
M  V30 4129 O 395.621 4.89966 -2.42065 0
M  V30 4130 H 392.715 0.75651 -0.334098 0
M  V30 4131 H 395.261 1.09444 -1.29693 0
M  V30 4132 H 394.033 2.76836 -2.76545 0
M  V30 4133 H 393.656 3.73919 -1.35167 0
M  V30 4134 N 394.653 0.992116 1.22453 0
M  V30 4135 C 395.899 0.668523 1.91464 0
M  V30 4136 C 396.232 -0.797313 1.77078 0
M  V30 4137 O 395.507 -1.5765 1.13916 0
M  V30 4138 C 395.79 1.07424 3.43703 0
M  V30 4139 C 395.643 2.59857 3.67143 0
M  V30 4140 C 396.962 0.626891 4.35612 0
M  V30 4141 H 394.081 0.244341 0.695318 0
M  V30 4142 H 396.723 1.2355 1.44345 0
M  V30 4143 H 394.873 0.591816 3.83966 0
M  V30 4144 H 396.545 3.15764 3.3629 0
M  V30 4145 H 394.788 3.01961 3.11451 0
M  V30 4146 H 395.459 2.83296 4.73759 0
M  V30 4147 H 397.935 1.04125 4.02861 0
M  V30 4148 H 396.811 0.939076 5.40807 0
M  V30 4149 H 397.072 -0.472457 4.39568 0
M  V30 4150 N 396.131 -1.37776 0.765217 0
M  V30 4151 C 397.38 -1.99092 0.323307 0
M  V30 4152 C 397.693 -1.61434 -1.10446 0
M  V30 4153 O 398.899 -2.15805 -1.64743 0
M  V30 4154 C 397.355 -3.56019 0.527098 0
M  V30 4155 C 396.963 -4.0262 1.96471 0
M  V30 4156 C 398.707 -4.2424 0.148483 0
M  V30 4157 C 396.614 -5.52233 2.11644 0
M  V30 4158 H 395.544 -0.744846 0.117137 0
M  V30 4159 H 398.195 -1.57391 0.943417 0
M  V30 4160 H 396.577 -3.95667 -0.162372 0
M  V30 4161 H 397.751 -3.74234 2.68859 0
M  V30 4162 H 396.066 -3.47161 2.29931 0
M  V30 4163 H 398.663 -5.34159 0.240456 0
M  V30 4164 H 399.006 -4.06446 -0.900422 0
M  V30 4165 H 399.539 -3.89872 0.79025 0
M  V30 4166 H 396.278 -5.74945 3.1483 0
M  V30 4167 H 395.798 -5.82324 1.4373 0
M  V30 4168 H 397.477 -6.18106 1.91193 0
M  V30 4169 N 397.609 -0.515225 -1.4894 0
M  V30 4170 C 399.025 -0.172099 -1.58669 0
M  V30 4171 C 399.225 1.32405 -1.51892 0
M  V30 4172 O 398.281 2.10116 -1.40027 0
M  V30 4173 C 399.594 -0.761533 -2.90897 0
M  V30 4174 C 401.142 -0.728926 -3.04394 0
M  V30 4175 C 401.617 -1.29667 -4.39261 0
M  V30 4176 N 403.108 -1.25799 -4.4579 0
M  V30 4177 C 403.843 -1.66733 -5.48623 0
M  V30 4178 N 403.339 -2.15327 -6.58488 0
M  V30 4179 N 405.132 -1.58061 -5.39419 0
M  V30 4180 H 397.283 -1.48778 -1.51588 0
M  V30 4181 H 399.546 -0.617968 -0.718901 0
M  V30 4182 H 399.252 -1.81136 -3.01468 0
M  V30 4183 H 399.126 -0.230106 -3.76497 0
M  V30 4184 H 401.513 0.312098 -2.93445 0
M  V30 4185 H 401.594 -1.29766 -2.20442 0
M  V30 4186 H 401.238 -2.33655 -4.50963 0
M  V30 4187 H 401.168 -0.703752 -5.21876 0
M  V30 4188 H 403.659 -0.902102 -3.66975 0
M  V30 4189 H 403.972 -2.44594 -7.33071 0
M  V30 4190 H 402.317 -2.19311 -6.59491 0
M  V30 4191 H 405.508 -1.19906 -4.52482 0
M  V30 4192 H 405.681 -1.90284 -6.19432 0
M  V30 4193 N 399.087 1.5561 -0.249682 0
M  V30 4194 C 400.05 2.20217 0.635394 0
M  V30 4195 C 401.05 1.17227 1.10066 0
M  V30 4196 O 402.24 1.42292 1.00492 0
M  V30 4197 C 399.372 2.84794 1.87363 0
M  V30 4198 H 400.565 2.99814 0.0716752 0
M  V30 4199 H 398.118 1.563 -0.000153234 0
M  V30 4200 H 398.853 2.09142 2.47851 0
M  V30 4201 H 398.638 3.60241 1.5482 0
M  V30 4202 H 400.128 3.3423 2.5036 0
M  V30 4203 N 400.565 -0.0233959 1.57583 0
M  V30 4204 C 401.498 -1.05549 2.02323 0
M  V30 4205 C 402.476 -1.34843 0.908626 0
M  V30 4206 O 403.66 -1.47404 1.17491 0
M  V30 4207 C 400.787 -2.38885 2.40108 0
M  V30 4208 C 399.833 -2.2541 3.62067 0
M  V30 4209 S 400.666 -1.60217 5.1097 0
M  V30 4210 C 401.822 -2.95032 5.52003 0
M  V30 4211 H 402.055 -0.674435 2.89549 0
M  V30 4212 H 399.588 -0.23355 1.52623 0
M  V30 4213 H 401.546 -3.15562 2.62547 0
M  V30 4214 H 400.207 -2.74137 1.53323 0
M  V30 4215 H 399.4 -3.23854 3.86179 0
M  V30 4216 H 399.002 -1.56876 3.39508 0
M  V30 4217 H 401.294 -3.91357 5.53033 0
M  V30 4218 H 402.237 -2.75646 6.52246 0
M  V30 4219 H 402.645 -2.97865 4.79517 0
M  V30 4220 N 402.043 -1.548 -0.295768 0
M  V30 4221 C 403.291 -1.73985 -1.02828 0
M  V30 4222 C 403.612 -0.531406 -1.87619 0
M  V30 4223 O 402.882 0.454221 -1.90561 0
M  V30 4224 H 401.462 -0.641556 -0.382642 0
M  V30 4225 H 404.124 -1.92163 -0.325489 0
M  V30 4226 H 403.22 -2.63129 -1.67838 0
M  V30 4227 N 403.521 0.559213 -1.47345 0
M  V30 4228 C 404.769 1.31388 -1.53563 0
M  V30 4229 C 405.09 1.93985 -0.198678 0
M  V30 4230 O 404.36 1.79825 0.777167 0
M  V30 4231 H 402.94 0.487901 -0.565652 0
M  V30 4232 H 405.602 0.65315 -1.8363 0
M  V30 4233 H 404.698 2.10844 -2.30111 0
M  V30 4234 N 404.999 1.35443 0.805782 0
M  V30 4235 C 405.946 1.28431 1.91766 0
M  V30 4236 C 406.916 0.156102 1.65365 0
M  V30 4237 O 408.101 0.339936 1.87747 0
M  V30 4238 C 405.241 1.06301 3.2832 0
M  V30 4239 C 404.354 2.2805 3.66902 0
M  V30 4240 C 403.489 1.99064 4.92491 0
M  V30 4241 C 402.528 3.16863 5.23703 0
M  V30 4242 N 401.665 2.87647 6.40471 0
M  V30 4243 H 406.505 2.23511 1.97096 0
M  V30 4244 H 404.042 1.11105 0.964054 0
M  V30 4245 H 406 0.915012 4.07042 0
M  V30 4246 H 404.63 0.148822 3.22457 0
M  V30 4247 H 403.682 2.53711 2.83434 0
M  V30 4248 H 404.994 3.1601 3.85927 0
M  V30 4249 H 404.148 1.81099 5.7904 0
M  V30 4250 H 402.887 1.0839 4.75503 0
M  V30 4251 H 401.892 3.35404 4.35642 0
M  V30 4252 H 403.117 4.08339 5.4262 0
M  V30 4253 H 401.063 1.99568 6.24907 0
M  V30 4254 H 400.98 3.69141 6.59751 0
M  V30 4255 H 402.248 2.73226 7.30047 0
M  V30 4256 N 406.477 -1.02803 1.19454 0
M  V30 4257 C 407.407 -2.12999 0.956758 0
M  V30 4258 C 408.388 -1.69743 -0.110188 0
M  V30 4259 O 409.573 -1.94148 0.0450038 0
M  V30 4260 C 406.703 -3.43746 0.495553 0
M  V30 4261 C 405.657 -4.00688 1.50443 0
M  V30 4262 C 404.983 -5.27067 0.900275 0
M  V30 4263 C 406.283 -4.35397 2.8849 0
M  V30 4264 H 407.977 -2.33148 1.87836 0
M  V30 4265 H 405.523 -1.12045 0.904539 0
M  V30 4266 H 407.476 -4.2021 0.316493 0
M  V30 4267 H 406.2 -3.23321 -0.461646 0
M  V30 4268 H 404.859 -3.2632 1.67065 0
M  V30 4269 H 404.507 -5.02959 -0.064503 0
M  V30 4270 H 404.207 -5.66127 1.57397 0
M  V30 4271 H 405.731 -6.06196 0.73203 0
M  V30 4272 H 407.145 -5.02795 2.75446 0
M  V30 4273 H 405.542 -4.85541 3.52661 0
M  V30 4274 H 406.612 -3.44662 3.41081 0
M  V30 4275 N 407.956 -0.998596 -1.21925 0
M  V30 4276 C 408.866 -0.562736 -2.27751 0
M  V30 4277 C 409.882 0.391203 -1.69545 0
M  V30 4278 O 411.058 0.256625 -1.99758 0
M  V30 4279 C 408.123 0.11012 -3.46525 0
M  V30 4280 C 407.184 -0.887495 -4.20026 0
M  V30 4281 C 406.417 -0.246654 -5.3313 0
M  V30 4282 O 406.64 0.958088 -5.62296 0
M  V30 4283 O 405.574 -0.954374 -5.94286 0
M  V30 4284 H 409.4 -1.44329 -2.67213 0
M  V30 4285 H 406.985 -0.767135 -1.28201 0
M  V30 4286 H 408.867 0.486756 -4.18579 0
M  V30 4287 H 407.542 0.965154 -3.08976 0
M  V30 4288 H 406.449 -1.31517 -3.5022 0
M  V30 4289 H 407.782 -1.71191 -4.6147 0
M  V30 4290 N 409.434 1.37368 -0.772513 0
M  V30 4291 C 410.683 1.98918 -0.333861 0
M  V30 4292 C 410.996 1.62017 1.09589 0
M  V30 4293 O 412.202 2.16676 1.63596 0
M  V30 4294 C 410.658 3.55735 -0.545971 0
M  V30 4295 C 410.266 4.01573 -1.98603 0
M  V30 4296 C 412.01 4.24156 -0.170979 0
M  V30 4297 C 409.917 5.51102 -2.1457 0
M  V30 4298 H 408.847 0.744214 -0.121085 0
M  V30 4299 H 411.498 1.56888 -0.95175 0
M  V30 4300 H 409.88 3.95748 0.141387 0
M  V30 4301 H 411.054 3.72803 -2.7084 0
M  V30 4302 H 409.369 3.45937 -2.31769 0
M  V30 4303 H 411.966 5.34024 -0.26878 0
M  V30 4304 H 412.309 4.06917 0.878855 0
M  V30 4305 H 412.842 3.89447 -0.810914 0
M  V30 4306 H 409.581 5.73268 -3.17875 0
M  V30 4307 H 409.101 5.81554 -1.46817 0
M  V30 4308 H 410.78 6.17083 -1.94468 0
M  V30 4309 N 410.912 0.523116 1.48665 0
M  V30 4310 C 412.14 -0.0096312 2.06898 0
M  V30 4311 C 412.555 -1.28784 1.38059 0
M  V30 4312 O 411.912 -1.76453 0.465893 0
M  V30 4313 C 411.963 -0.244386 3.60673 0
M  V30 4314 O 411.684 0.983172 4.26925 0
M  V30 4315 C 413.185 -0.818289 4.35682 0
M  V30 4316 H 410.405 0.0304161 0.67031 0
M  V30 4317 H 412.949 0.726799 1.91149 0
M  V30 4318 H 411.104 -0.930847 3.76051 0
M  V30 4319 H 411.518 0.759653 5.1897 0
M  V30 4320 H 412.992 -0.93201 5.44075 0
M  V30 4321 H 413.469 -1.82153 3.99646 0
M  V30 4322 H 414.075 -0.168609 4.24966 0
M  V30 4323 N 412.39 -1.55475 0.257931 0
M  V30 4324 C 413.3 -2.2549 -0.647425 0
M  V30 4325 C 414.316 -1.2748 -1.18427 0
M  V30 4326 O 415.492 -1.6038 -1.2182 0
M  V30 4327 C 412.557 -2.94916 -1.82278 0
M  V30 4328 C 411.618 -4.08363 -1.32432 0
M  V30 4329 C 410.851 -4.74469 -2.44366 0
M  V30 4330 O 411.074 -4.39701 -3.63344 0
M  V30 4331 O 410.008 -5.62763 -2.13497 0
M  V30 4332 H 413.834 -3.03593 -0.0807707 0
M  V30 4333 H 411.419 -1.49377 0.0259962 0
M  V30 4334 H 413.301 -3.38606 -2.50846 0
M  V30 4335 H 411.976 -2.19744 -2.37685 0
M  V30 4336 H 410.883 -3.69166 -0.605605 0
M  V30 4337 H 412.216 -4.85385 -0.816211 0
M  V30 4338 N 413.868 0.0150385 -1.57593 0
M  V30 4339 C 415.117 0.702115 -1.89085 0
M  V30 4340 C 415.43 1.75764 -0.858277 0
M  V30 4341 O 416.636 2.49829 -1.0629 0
M  V30 4342 C 415.092 1.29992 -3.35604 0
M  V30 4343 C 414.7 0.280007 -4.47124 0
M  V30 4344 C 416.444 1.96606 -3.76227 0
M  V30 4345 C 414.351 0.886949 -5.84711 0
M  V30 4346 H 413.281 0.265997 -0.705522 0
M  V30 4347 H 415.932 -0.0430408 -1.8345 0
M  V30 4348 H 414.314 2.09525 -3.36029 0
M  V30 4349 H 415.488 -0.489631 -4.58191 0
M  V30 4350 H 413.803 -0.284835 -4.15425 0
M  V30 4351 H 416.4 2.42893 -4.76347 0
M  V30 4352 H 416.743 2.79024 -3.08952 0
M  V30 4353 H 417.276 1.23828 -3.78036 0
M  V30 4354 H 414.015 0.101876 -6.55421 0
M  V30 4355 H 413.535 1.6261 -5.77337 0
M  V30 4356 H 415.214 1.39011 -6.3189 0
M  V30 4357 N 415.346 1.54954 0.287554 0
M  V30 4358 C 416.623 1.65569 1.04146 0
M  V30 4359 C 417.003 0.512672 2.0478 0
M  V30 4360 O 416.351 -0.489038 2.23205 0
M  V30 4361 C 416.561 3.04163 1.71131 0
M  V30 4362 C 417.909 3.61429 2.22832 0
M  V30 4363 O 418.933 3.06702 1.81141 0
M  V30 4364 O 417.792 4.57281 2.9926 0
M  V30 4365 H 414.886 0.671881 0.482188 0
M  V30 4366 H 417.432 1.67297 0.28457 0
M  V30 4367 H 416.204 3.78796 0.981303 0
M  V30 4368 H 415.827 3.06271 2.53543 0
M  V30 4369 N 416.824 -0.551391 1.4764 0
M  V30 4370 C 418.235 -1.13349 1.48354 0
M  V30 4371 C 418.586 -1.94709 0.241432 0
M  V30 4372 O 417.711 -2.06306 -0.653205 0
M  V30 4373 C 418.306 -2.0623 2.68802 0
M  V30 4374 C 416.865 -2.597 2.72457 0
M  V30 4375 C 416.012 -1.36201 2.41546 0
M  V30 4376 H 418.963 -0.337698 1.55065 0
M  V30 4377 H 418.984 -2.90196 2.46103 0
M  V30 4378 H 418.496 -1.46987 3.59188 0
M  V30 4379 H 416.597 -3.22724 1.86225 0
M  V30 4380 H 416.71 -3.00296 3.73308 0
M  V30 4381 H 415.074 -1.67068 1.9225 0
M  V30 4382 H 415.857 -0.787425 3.34147 0
M  V30 4383 N 418.302 -1.35869 -0.798587 0
M  V30 4384 C 419.548 -1.2978 -1.55836 0
M  V30 4385 C 419.881 0.125322 -1.93795 0
M  V30 4386 O 419.156 1.07658 -1.61987 0
M  V30 4387 C 419.439 -2.21188 -2.84162 0
M  V30 4388 C 419.292 -3.72155 -2.52628 0
M  V30 4389 C 420.611 -2.11545 -3.85923 0
M  V30 4390 H 417.73 -0.472769 -0.565383 0
M  V30 4391 H 420.372 -1.66341 -0.918192 0
M  V30 4392 H 418.522 -1.90139 -3.38791 0
M  V30 4393 H 420.194 -4.13682 -2.04121 0
M  V30 4394 H 418.437 -3.92042 -1.85704 0
M  V30 4395 H 419.108 -4.31511 -3.44242 0
M  V30 4396 H 421.584 -2.38855 -3.40716 0
M  V30 4397 H 420.46 -2.77688 -4.73477 0
M  V30 4398 H 420.721 -1.09987 -4.282 0
M  V30 4399 N 419.78 1.02168 -1.19998 0
M  V30 4400 C 420.743 2.08765 -0.94604 0
M  V30 4401 C 421.743 1.60618 0.0763846 0
M  V30 4402 O 422.933 1.73472 -0.159135 0
M  V30 4403 C 420.065 3.38262 -0.423255 0
M  V30 4404 H 421.258 2.32726 -1.89153 0
M  V30 4405 H 418.811 1.1889 -1.01464 0
M  V30 4406 H 419.546 3.19974 0.527938 0
M  V30 4407 H 419.331 3.74532 -1.16053 0
M  V30 4408 H 420.821 4.16759 -0.264911 0
M  V30 4409 N 421.258 1.00505 1.21394 0
M  V30 4410 C 422.205 0.565496 2.23765 0
M  V30 4411 C 423.175 -0.408466 1.60999 0
M  V30 4412 O 424.36 -0.310503 1.88257 0
M  V30 4413 C 421.5 -0.101667 3.4495 0
M  V30 4414 C 420.613 0.915479 4.22188 0
M  V30 4415 C 419.748 0.220574 5.30742 0
M  V30 4416 C 418.787 1.22527 5.99711 0
M  V30 4417 N 417.924 0.557831 6.9988 0
M  V30 4418 H 422.764 1.44314 2.60725 0
M  V30 4419 H 420.301 0.722643 1.28126 0
M  V30 4420 H 422.259 -0.505504 4.14126 0
M  V30 4421 H 420.889 -0.94303 3.08718 0
M  V30 4422 H 419.941 1.43756 3.52191 0
M  V30 4423 H 421.253 1.68005 4.69655 0
M  V30 4424 H 420.407 -0.239368 6.06228 0
M  V30 4425 H 419.146 -0.576401 4.84282 0
M  V30 4426 H 418.151 1.69571 5.22997 0
M  V30 4427 H 419.376 2.02332 6.48258 0
M  V30 4428 H 417.322 -0.219486 6.55633 0
M  V30 4429 H 417.239 1.26065 7.45415 0
M  V30 4430 H 418.507 0.121095 7.79406 0
M  V30 4431 N 422.737 -1.36956 0.779787 0
M  V30 4432 C 423.962 -2.04283 0.358224 0
M  V30 4433 C 424.387 -1.58422 -1.01411 0
M  V30 4434 O 423.745 -0.748179 -1.65142 0
M  V30 4435 C 423.793 -3.58152 0.419479 0
M  V30 4436 O 422.897 -4.08342 -0.577142 0
M  V30 4437 H 422.238 -0.645967 0.153698 0
M  V30 4438 H 424.768 -1.75108 1.05822 0
M  V30 4439 H 424.778 -4.07041 0.279636 0
M  V30 4440 H 423.453 -3.90886 1.42061 0
M  V30 4441 H 422.03 -3.70751 -0.399755 0
M  V30 4442 N 424.215 -0.530993 -1.48385 0
M  V30 4443 C 425.178 0.220497 -2.28137 0
M  V30 4444 C 426.178 0.866851 -1.35434 0
M  V30 4445 O 427.368 0.726746 -1.58316 0
M  V30 4446 C 424.5 1.31921 -3.1434 0
M  V30 4447 H 425.693 -0.479714 -2.96038 0
M  V30 4448 H 423.246 -0.286968 -1.53643 0
M  V30 4449 H 423.981 2.05264 -2.51072 0
M  V30 4450 H 423.766 0.86085 -3.82533 0
M  V30 4451 H 425.256 1.84776 -3.74497 0
M  V30 4452 N 425.693 1.55336 -0.266172 0
M  V30 4453 C 426.921 2.03801 0.356756 0
M  V30 4454 C 427.336 1.14485 1.50129 0
M  V30 4455 O 426.693 0.163121 1.8177 0
M  V30 4456 C 426.744 3.51455 0.846281 0
M  V30 4457 O 426.465 4.37371 -0.252663 0
M  V30 4458 C 427.966 4.15767 1.53794 0
M  V30 4459 H 425.186 0.665906 0.0825218 0
M  V30 4460 H 427.73 2.00636 -0.39566 0
M  V30 4461 H 425.885 3.55092 1.54881 0
M  V30 4462 H 426.299 5.24358 0.122173 0
M  V30 4463 H 427.773 5.20714 1.83198 0
M  V30 4464 H 428.25 3.63404 2.46646 0
M  V30 4465 H 428.856 4.16107 0.879488 0
M  V30 4466 N 427.171 -0.0066808 1.57599 0
M  V30 4467 C 428.101 -0.999296 2.11036 0
M  V30 4468 C 429.082 -1.36278 1.01795 0
M  V30 4469 O 430.267 -1.4477 1.29442 0
M  V30 4470 C 427.397 -2.29328 2.60818 0
M  V30 4471 C 426.351 -2.07159 3.74525 0
M  V30 4472 C 425.677 -3.42512 4.10596 0
M  V30 4473 C 426.977 -1.43959 5.02069 0
M  V30 4474 H 428.671 -0.554382 2.94223 0
M  V30 4475 H 426.217 -0.265221 1.41536 0
M  V30 4476 H 428.17 -2.99117 2.96828 0
M  V30 4477 H 426.894 -2.7592 1.74745 0
M  V30 4478 H 425.553 -1.39797 3.38899 0
M  V30 4479 H 425.201 -3.86795 3.21556 0
M  V30 4480 H 424.901 -3.28498 4.87199 0
M  V30 4481 H 426.425 -4.13628 4.4916 0
M  V30 4482 H 427.839 -2.03696 5.35893 0
M  V30 4483 H 426.236 -1.40452 5.83432 0
M  V30 4484 H 427.306 -0.407992 4.83181 0
M  V30 4485 N 428.649 -1.55105 -0.279332 0
M  V30 4486 C 429.898 -1.74618 -1.00952 0
M  V30 4487 C 430.211 -0.551096 -1.87676 0
M  V30 4488 O 431.417 -0.628507 -2.64125 0
M  V30 4489 C 429.873 -3.09025 -1.84476 0
M  V30 4490 C 429.481 -4.36081 -1.0265 0
M  V30 4491 C 431.225 -3.37891 -2.56963 0
M  V30 4492 C 429.132 -5.6153 -1.85576 0
M  V30 4493 H 428.062 -0.650868 -0.38064 0
M  V30 4494 H 430.713 -1.81569 -0.265475 0
M  V30 4495 H 429.095 -2.96095 -2.62952 0
M  V30 4496 H 430.269 -4.59909 -0.286354 0
M  V30 4497 H 428.584 -4.14312 -0.416464 0
M  V30 4498 H 431.181 -4.28822 -3.19399 0
M  V30 4499 H 431.524 -2.57737 -3.26921 0
M  V30 4500 H 432.057 -3.5189 -1.85522 0
M  V30 4501 H 428.796 -6.44413 -1.2005 0
M  V30 4502 H 428.316 -5.41854 -2.57204 0
M  V30 4503 H 429.995 -5.99594 -2.43096 0
M  V30 4504 N 430.127 0.543554 -1.4793 0
M  V30 4505 C 431.373 1.30201 -1.55485 0
M  V30 4506 C 431.706 1.92925 -0.222201 0
M  V30 4507 O 430.981 1.78586 0.77053 0
M  V30 4508 C 431.264 2.40174 -2.68307 0
M  V30 4509 C 431.117 1.8223 -4.11233 0
M  V30 4510 C 432.436 3.42024 -2.76961 0
M  V30 4511 H 429.555 0.472036 -0.565996 0
M  V30 4512 H 432.197 0.606914 -1.80046 0
M  V30 4513 H 430.347 2.99463 -2.47495 0
M  V30 4514 H 432.019 1.27096 -4.43446 0
M  V30 4515 H 430.262 1.12832 -4.18869 0
M  V30 4516 H 430.933 2.61793 -4.85972 0
M  V30 4517 H 433.409 2.92672 -2.95774 0
M  V30 4518 H 432.285 4.16383 -3.57654 0
M  V30 4519 H 432.546 4.0173 -1.84568 0
M  V30 4520 N 431.605 1.3629 0.791371 0
M  V30 4521 C 432.515 1.32606 1.93527 0
M  V30 4522 C 433.531 0.228541 1.72493 0
M  V30 4523 O 434.707 0.460571 1.96063 0
M  V30 4524 C 431.772 1.11271 3.28359 0
M  V30 4525 C 430.833 2.3048 3.62185 0
M  V30 4526 C 430.066 2.10154 4.90583 0
M  V30 4527 O 430.289 1.07572 5.60165 0
M  V30 4528 O 429.223 2.97884 5.23019 0
M  V30 4529 H 433.049 2.28909 1.99585 0
M  V30 4530 H 430.634 1.16818 0.931344 0
M  V30 4531 H 432.516 1.01283 4.09047 0
M  V30 4532 H 431.191 0.180292 3.23198 0
M  V30 4533 H 430.098 2.46036 2.81811 0
M  V30 4534 H 431.431 3.22221 3.72068 0
M  V30 4535 N 433.083 -1.0153 1.20538 0
M  V30 4536 C 434.308 -1.79283 1.04271 0
M  V30 4537 C 434.733 -1.8372 -0.403544 0
M  V30 4538 O 434.091 -1.27321 -1.2907 0
M  V30 4539 C 434.139 -3.21535 1.63241 0
M  V30 4540 O 433.243 -4.03099 0.870908 0
M  V30 4541 H 432.584 -0.55293 0.367647 0
M  V30 4542 H 435.114 -1.27696 1.59859 0
M  V30 4543 H 435.124 -3.72243 1.6703 0
M  V30 4544 H 433.799 -3.1762 2.68497 0
M  V30 4545 H 432.376 -3.61693 0.907323 0
M  V30 4546 N 434.561 -1.01147 -1.20859 0
M  V30 4547 C 435.786 -0.716698 -1.94623 0
M  V30 4548 C 436.211 0.715415 -1.73964 0
M  V30 4549 O 435.569 1.49157 -1.03062 0
M  V30 4550 C 435.617 -1.0513 -3.44935 0
M  V30 4551 O 434.721 -0.160131 -4.12089 0
M  V30 4552 H 434.062 -0.266404 -0.608214 0
M  V30 4553 H 436.592 -1.35346 -1.53436 0
M  V30 4554 H 436.602 -1.00086 -3.95533 0
M  V30 4555 H 435.277 -2.09475 -3.59295 0
M  V30 4556 H 433.854 -0.267657 -3.71938 0
M  V30 4557 N 436.039 1.36541 -0.78704 0
M  V30 4558 C 437.316 1.9355 -0.282424 0
M  V30 4559 C 437.696 1.71919 1.22503 0
M  V30 4560 O 437.044 1.07677 2.01539 0
M  V30 4561 C 437.254 3.4246 -0.672462 0
M  V30 4562 C 438.602 4.19582 -0.650863 0
M  V30 4563 O 439.626 3.50889 -0.612789 0
M  V30 4564 O 438.485 5.42106 -0.691623 0
M  V30 4565 H 435.579 0.824091 -0.0693 0
M  V30 4566 H 438.125 1.45736 -0.869423 0
M  V30 4567 H 436.897 3.51851 -1.71221 0
M  V30 4568 H 436.52 3.97556 -0.0592211 0
M  V30 4569 N 437.518 0.538854 1.48102 0
M  V30 4570 C 438.448 -0.207654 2.32575 0
M  V30 4571 C 439.429 -0.926559 1.4265 0
M  V30 4572 O 440.614 -0.91061 1.71527 0
M  V30 4573 C 437.744 -1.24957 3.24042 0
M  V30 4574 C 436.698 -0.648263 4.23062 0
M  V30 4575 C 436.024 -1.79348 5.03725 0
M  V30 4576 C 437.324 0.385897 5.20872 0
M  V30 4577 H 439.018 0.497534 2.95237 0
M  V30 4578 H 436.564 0.240715 1.41974 0
M  V30 4579 H 438.517 -1.77983 3.81969 0
M  V30 4580 H 437.241 -1.98446 2.59397 0
M  V30 4581 H 435.9 -0.139452 3.66335 0
M  V30 4582 H 435.548 -2.51696 4.35498 0
M  V30 4583 H 435.248 -1.39702 5.70751 0
M  V30 4584 H 436.772 -2.32735 5.64506 0
M  V30 4585 H 438.186 -0.057607 5.73271 0
M  V30 4586 H 436.583 0.700227 5.96001 0
M  V30 4587 H 437.653 1.28848 4.67468 0
M  V30 4588 N 438.996 -1.55193 0.274407 0
M  V30 4589 C 439.943 -2.225 -0.613374 0
M  V30 4590 C 440.913 -1.19823 -1.15029 0
M  V30 4591 O 442.098 -1.48362 -1.19973 0
M  V30 4592 C 439.238 -2.94927 -1.79199 0
M  V30 4593 C 438.351 -4.12322 -1.28899 0
M  V30 4594 C 437.486 -4.72394 -2.42934 0
M  V30 4595 C 436.525 -5.81984 -1.89634 0
M  V30 4596 N 435.662 -6.36123 -2.9714 0
M  V30 4597 H 440.502 -2.97982 -0.032756 0
M  V30 4598 H 438.039 -1.47099 -0.00440146 0
M  V30 4599 H 439.997 -3.35134 -2.48478 0
M  V30 4600 H 438.627 -2.2187 -2.34465 0
M  V30 4601 H 437.679 -3.7724 -0.489327 0
M  V30 4602 H 438.991 -4.91355 -0.858587 0
M  V30 4603 H 438.145 -5.15317 -3.20208 0
M  V30 4604 H 436.884 -3.92636 -2.8929 0
M  V30 4605 H 435.889 -5.38511 -1.1084 0
M  V30 4606 H 437.114 -6.6361 -1.44215 0
M  V30 4607 H 435.06 -5.59259 -3.42878 0
M  V30 4608 H 434.977 -7.10427 -2.58515 0
M  V30 4609 H 436.245 -6.83704 -3.74391 0
M  V30 4610 N 440.474 -0.00167713 -1.576 0
M  V30 4611 C 441.722 0.681471 -1.90264 0
M  V30 4612 C 442.043 1.7422 -0.875924 0
M  V30 4613 O 441.313 1.95709 0.0864412 0
M  V30 4614 H 439.893 0.254696 -0.702239 0
M  V30 4615 H 442.555 -0.0429996 -1.94853 0
M  V30 4616 H 441.651 1.15166 -2.90075 0
M  V30 4617 N 441.952 1.55251 0.271103 0
M  V30 4618 C 443.18 1.79974 1.02064 0
M  V30 4619 C 443.595 0.574003 1.79863 0
M  V30 4620 O 442.952 -0.456962 1.76686 0
M  V30 4621 C 443.003 3.02603 1.97772 0
M  V30 4622 O 442.724 4.20443 1.23124 0
M  V30 4623 C 444.225 3.39944 2.84522 0
M  V30 4624 H 441.445 0.599489 0.301419 0
M  V30 4625 H 443.989 2.02268 0.301313 0
M  V30 4626 H 442.144 2.8243 2.65165 0
M  V30 4627 H 442.558 4.89783 1.87651 0
M  V30 4628 H 444.032 4.28915 3.47471 0
M  V30 4629 H 444.509 2.59432 3.54389 0
M  V30 4630 H 445.115 3.62383 2.22618 0
M  V30 4631 N 443.43 -0.535701 1.48216 0
M  V30 4632 C 444.34 -1.66785 1.64985 0
M  V30 4633 C 445.356 -1.65654 0.532414 0
M  V30 4634 O 446.532 -1.8471 0.80275 0
M  V30 4635 C 443.597 -3.0326 1.68031 0
M  V30 4636 C 442.658 -3.1529 2.9136 0
M  V30 4637 C 441.891 -4.45255 2.94252 0
M  V30 4638 O 442.114 -5.32011 2.05719 0
M  V30 4639 O 441.048 -4.6153 3.86359 0
M  V30 4640 H 444.874 -1.55576 2.60825 0
M  V30 4641 H 442.459 -0.70815 1.31551 0
M  V30 4642 H 444.341 -3.84436 1.72589 0
M  V30 4643 H 443.016 -3.14805 0.753628 0
M  V30 4644 H 441.923 -2.3343 2.92337 0
M  V30 4645 H 443.256 -3.08658 3.83394 0
M  V30 4646 N 444.908 -1.36708 -0.784132 0
M  V30 4647 C 446.157 -1.30559 -1.53744 0
M  V30 4648 C 446.47 0.111374 -1.95283 0
M  V30 4649 O 447.676 0.29527 -2.6989 0
M  V30 4650 C 446.132 -2.29098 -2.77565 0
M  V30 4651 C 445.74 -3.76258 -2.43174 0
M  V30 4652 C 447.484 -2.31936 -3.55536 0
M  V30 4653 C 445.391 -4.6656 -3.63422 0
M  V30 4654 H 444.321 -0.48518 -0.577162 0
M  V30 4655 H 446.972 -1.62101 -0.859981 0
M  V30 4656 H 445.354 -1.90557 -3.47137 0
M  V30 4657 H 446.528 -4.23565 -1.81465 0
M  V30 4658 H 444.843 -3.76246 -1.78403 0
M  V30 4659 H 447.44 -2.9661 -4.44889 0
M  V30 4660 H 447.783 -1.3294 -3.94503 0
M  V30 4661 H 448.316 -2.6912 -2.92949 0
M  V30 4662 H 445.055 -5.66638 -3.29547 0
M  V30 4663 H 444.575 -4.23966 -4.24279 0
M  V30 4664 H 446.254 -4.8309 -4.30387 0
M  V30 4665 N 446.386 1.0089 -1.21074 0
M  V30 4666 C 447.634 1.74262 -1.02358 0
M  V30 4667 C 447.955 1.89869 0.444393 0
M  V30 4668 O 447.225 1.44677 1.32081 0
M  V30 4669 H 445.805 0.645615 -0.375754 0
M  V30 4670 H 448.467 1.21596 -1.52317 0
M  V30 4671 H 447.563 2.74328 -1.4883 0
M  V30 4672 N 447.864 1.01787 1.20321 0
M  V30 4673 C 449.112 0.706538 1.89347 0
M  V30 4674 C 449.433 -0.766289 1.79313 0
M  V30 4675 O 448.703 -1.55126 1.19635 0
M  V30 4676 H 447.283 0.258348 0.700903 0
M  V30 4677 H 449.945 1.28974 1.46122 0
M  V30 4678 H 449.041 0.991066 2.95946 0
M  V30 4679 N 449.342 -1.36122 0.79427 0
M  V30 4680 C 450.305 -2.28309 0.201889 0
M  V30 4681 C 451.305 -1.49041 -0.603603 0
M  V30 4682 O 452.495 -1.68964 -0.423888 0
M  V30 4683 C 449.627 -3.3321 -0.719978 0
M  V30 4684 H 450.82 -2.82208 1.01481 0
M  V30 4685 H 448.373 -1.45768 0.564037 0
M  V30 4686 H 449.108 -2.84475 -1.55706 0
M  V30 4687 H 448.893 -3.91835 -0.144266 0
M  V30 4688 H 450.383 -4.02044 -1.12916 0
M  V30 4689 N 450.82 -0.546701 -1.47814 0
M  V30 4690 C 451.75 0.195317 -2.32682 0
M  V30 4691 C 452.731 0.918981 -1.43139 0
M  V30 4692 O 453.916 0.901501 -1.72008 0
M  V30 4693 C 451.046 1.23237 -3.247 0
M  V30 4694 C 450 0.625818 -4.234 0
M  V30 4695 C 449.326 1.76674 -5.04669 0
M  V30 4696 C 450.626 -0.413515 -5.2066 0
M  V30 4697 H 452.32 -0.513184 -2.94969 0
M  V30 4698 H 449.866 -0.248241 -1.41844 0
M  V30 4699 H 451.819 1.75955 -3.82907 0
M  V30 4700 H 450.543 1.97067 -2.60446 0
M  V30 4701 H 449.202 0.120023 -3.66403 0
M  V30 4702 H 448.85 2.49383 -4.36826 0
M  V30 4703 H 448.55 1.36673 -5.71484 0
M  V30 4704 H 450.074 2.29738 -5.65732 0
M  V30 4705 H 451.488 0.0272042 -5.73294 0
M  V30 4706 H 449.885 -0.731825 -5.95621 0
M  V30 4707 H 450.955 -1.31325 -4.66778 0
M  V30 4708 N 452.299 1.55045 -0.282633 0
M  V30 4709 C 453.548 1.98938 0.332667 0
M  V30 4710 C 453.861 1.17455 1.56409 0
M  V30 4711 O 455.067 1.51527 2.25282 0
M  V30 4712 C 453.523 3.54105 0.643226 0
M  V30 4713 C 453.131 4.44374 -0.568814 0
M  V30 4714 C 454.875 4.06569 1.22074 0
M  V30 4715 C 452.782 5.90943 -0.232426 0
M  V30 4716 H 451.712 0.743043 0.128075 0
M  V30 4717 H 454.363 1.79341 -0.388464 0
M  V30 4718 H 452.745 3.69532 1.42346 0
M  V30 4719 H 453.919 4.40718 -1.34551 0
M  V30 4720 H 452.234 4.02585 -1.06369 0
M  V30 4721 H 454.831 5.13626 1.48635 0
M  V30 4722 H 455.174 3.56057 2.15707 0
M  V30 4723 H 455.707 3.94612 0.502621 0
M  V30 4724 H 452.446 6.45567 -1.13683 0
M  V30 4725 H 451.966 5.9765 0.507357 0
M  V30 4726 H 453.645 6.4677 0.172657 0
M  V30 4727 N 453.777 0.010035 1.57597 0
M  V30 4728 C 455.188 -0.531426 1.78977 0
M  V30 4729 C 455.539 -1.73375 0.918454 0
M  V30 4730 O 454.664 -2.16047 0.123635 0
M  V30 4731 C 455.259 -0.97086 3.24592 0
M  V30 4732 C 453.818 -1.45756 3.47033 0
M  V30 4733 C 452.965 -0.413384 2.74201 0
M  V30 4734 H 455.916 0.236166 1.56933 0
M  V30 4735 H 455.937 -1.83633 3.33255 0
M  V30 4736 H 455.449 -0.0955893 3.87982 0
M  V30 4737 H 453.55 -2.35339 2.88871 0
M  V30 4738 H 453.663 -1.4781 4.55729 0
M  V30 4739 H 452.027 -0.877266 2.39115 0
M  V30 4740 H 452.81 0.453092 3.40297 0
M  V30 4741 N 455.255 -1.55392 -0.262866 0
M  V30 4742 C 456.671 -1.47459 -0.610582 0
M  V30 4743 C 456.871 -0.697031 -1.8906 0
M  V30 4744 O 455.927 -0.219952 -2.5154 0
M  V30 4745 C 457.24 -2.91751 -0.728131 0
M  V30 4746 C 458.788 -3.02027 -0.821517 0
M  V30 4747 C 459.263 -4.47594 -0.97076 0
M  V30 4748 N 460.754 -4.51465 -1.03603 0
M  V30 4749 C 461.489 -5.61326 -1.17049 0
M  V30 4750 N 460.985 -6.81032 -1.2715 0
M  V30 4751 N 462.778 -5.49089 -1.20239 0
M  V30 4752 H 454.929 -2.04395 0.577632 0
M  V30 4753 H 457.192 -0.927287 0.197086 0
M  V30 4754 H 456.898 -3.51413 0.142132 0
M  V30 4755 H 456.772 -3.4134 -1.6052 0
M  V30 4756 H 459.159 -2.42456 -1.68224 0
M  V30 4757 H 459.24 -2.55674 0.0803688 0
M  V30 4758 H 458.884 -5.07771 -0.114655 0
M  V30 4759 H 458.814 -4.91613 -1.88745 0
M  V30 4760 H 461.305 -3.6524 -0.96996 0
M  V30 4761 H 461.618 -7.60511 -1.37271 0
M  V30 4762 H 459.963 -6.83824 -1.24136 0
M  V30 4763 H 463.154 -4.54507 -1.11985 0
M  V30 4764 H 463.327 -6.34749 -1.30373 0
M  V30 4765 N 456.733 0.527833 -1.48498 0
M  V30 4766 C 457.663 1.64136 -1.66077 0
M  V30 4767 C 458.644 1.62286 -0.509625 0
M  V30 4768 O 459.829 1.79449 -0.742413 0
M  V30 4769 C 456.959 3.02717 -1.70234 0
M  V30 4770 C 455.913 3.19426 -2.8487 0
M  V30 4771 C 455.239 4.5909 -2.74118 0
M  V30 4772 C 456.539 3.01993 -4.26142 0
M  V30 4773 H 458.233 1.4968 -2.593 0
M  V30 4774 H 455.779 0.718654 -1.24785 0
M  V30 4775 H 457.732 3.80491 -1.8112 0
M  V30 4776 H 456.456 3.18201 -0.735911 0
M  V30 4777 H 455.115 2.4407 -2.73542 0
M  V30 4778 H 454.763 4.71413 -1.7544 0
M  V30 4779 H 454.463 4.71214 -3.51042 0
M  V30 4780 H 455.987 5.3896 -2.86974 0
M  V30 4781 H 457.401 3.69558 -4.38292 0
M  V30 4782 H 455.798 3.2561 -5.04082 0
M  V30 4783 H 456.868 1.98396 -4.42456 0
M  V30 4784 N 458.211 1.37122 0.776871 0
M  V30 4785 C 459.46 1.31373 1.53049 0
M  V30 4786 C 459.773 -0.101016 1.95339 0
M  V30 4787 O 460.979 -0.280953 2.70042 0
M  V30 4788 C 459.435 2.30567 2.76346 0
M  V30 4789 C 459.043 3.77543 2.41175 0
M  V30 4790 C 460.787 2.33818 3.54301 0
M  V30 4791 C 458.694 4.68481 3.60943 0
M  V30 4792 H 457.624 0.488234 0.574581 0
M  V30 4793 H 460.275 1.62554 0.851372 0
M  V30 4794 H 458.657 1.92396 3.46121 0
M  V30 4795 H 459.831 4.24521 1.79216 0
M  V30 4796 H 458.146 3.77187 1.76405 0
M  V30 4797 H 460.743 2.98965 4.4331 0
M  V30 4798 H 461.086 1.3503 3.93793 0
M  V30 4799 H 461.619 2.7067 2.91518 0
M  V30 4800 H 458.358 5.68378 3.26537 0
M  V30 4801 H 457.878 4.2621 4.22025 0
M  V30 4802 H 459.557 4.85366 4.27819 0
M  V30 4803 N 459.689 -1.00246 1.21608 0
M  V30 4804 C 460.966 -1.71336 0.943568 0
M  V30 4805 C 461.346 -2.03972 -0.543943 0
M  V30 4806 O 460.694 -1.71545 -1.50946 0
M  V30 4807 C 460.904 -2.97094 1.83128 0
M  V30 4808 C 462.252 -3.70071 2.08165 0
M  V30 4809 O 463.276 -3.07081 1.80498 0
M  V30 4810 O 462.135 -4.83376 2.54971 0
M  V30 4811 H 459.229 -0.747386 0.354039 0
M  V30 4812 H 461.775 -1.05967 1.32549 0
M  V30 4813 H 460.547 -2.69407 2.83788 0
M  V30 4814 H 460.17 -3.70204 1.45034 0
M  V30 4815 N 461.167 -1.02423 -1.1978 0
M  V30 4816 C 462.077 -0.610919 -2.26506 0
M  V30 4817 C 463.093 0.355152 -1.70337 0
M  V30 4818 O 464.269 0.214195 -2.00258 0
M  V30 4819 C 461.334 0.0365921 -3.46681 0
M  V30 4820 C 460.395 -0.976389 -4.18049 0
M  V30 4821 C 459.628 -0.359683 -5.32487 0
M  V30 4822 O 459.851 0.838601 -5.64202 0
M  V30 4823 O 458.785 -1.08022 -5.92127 0
M  V30 4824 H 462.611 -1.49965 -2.64091 0
M  V30 4825 H 460.196 -0.794156 -1.26545 0
M  V30 4826 H 462.078 0.39786 -4.19518 0
M  V30 4827 H 460.753 0.899398 -3.10954 0
M  V30 4828 H 459.66 -1.38916 -3.47352 0
M  V30 4829 H 460.993 -1.80941 -4.57735 0
M  V30 4830 N 462.645 1.35699 -0.801477 0
M  V30 4831 C 463.575 2.32436 -0.222658 0
M  V30 4832 C 464.556 1.5723 0.649057 0
M  V30 4833 O 465.741 1.85324 0.580387 0
M  V30 4834 C 462.871 3.41469 0.633719 0
M  V30 4835 C 461.825 4.27774 -0.139083 0
M  V30 4836 C 461.151 5.28082 0.838666 0
M  V30 4837 C 462.451 5.04946 -1.33517 0
M  V30 4838 H 464.145 2.81094 -1.03086 0
M  V30 4839 H 461.691 1.35146 -0.497155 0
M  V30 4840 H 463.644 4.08143 1.04868 0
M  V30 4841 H 462.368 2.91408 1.47475 0
M  V30 4842 H 461.027 3.62673 -0.535156 0
M  V30 4843 H 460.675 4.7429 1.67506 0
M  V30 4844 H 460.375 5.86695 0.32594 0
M  V30 4845 H 461.899 5.97628 1.25194 0
M  V30 4846 H 463.313 5.64593 -0.995349 0
M  V30 4847 H 461.71 5.7303 -1.78202 0
M  V30 4848 H 462.78 4.35886 -2.12442 0
M  V30 4849 N 464.123 0.554532 1.47522 0
M  V30 4850 C 465.534 0.120446 1.86311 0
M  V30 4851 C 465.885 -1.30904 1.46145 0
M  V30 4852 O 465.01 -1.98434 0.863294 0
M  V30 4853 C 465.605 0.211808 3.38137 0
M  V30 4854 C 464.164 -0.167224 3.76028 0
M  V30 4855 C 463.311 0.560576 2.71575 0
M  V30 4856 H 466.262 0.764408 1.39077 0
M  V30 4857 H 466.283 -0.570275 3.76202 0
M  V30 4858 H 465.795 1.25232 3.6734 0
M  V30 4859 H 463.896 -1.20894 3.52442 0
M  V30 4860 H 464.009 0.189473 4.78725 0
M  V30 4861 H 462.373 0.00396836 2.547 0
M  V30 4862 H 463.156 1.60219 3.0362 0
M  V30 4863 N 465.601 -1.54893 0.290851 0
M  V30 4864 C 466.85 -1.99111 -0.322113 0
M  V30 4865 C 467.163 -1.18283 -1.55784 0
M  V30 4866 O 468.369 -1.5272 -2.24475 0
M  V30 4867 C 466.825 -3.54442 -0.624438 0
M  V30 4868 C 466.433 -4.44066 0.592373 0
M  V30 4869 C 468.177 -4.07211 -1.19916 0
M  V30 4870 C 466.084 -5.90812 0.263762 0
M  V30 4871 H 465.014 -0.743712 -0.124133 0
M  V30 4872 H 467.665 -1.79132 0.39797 0
M  V30 4873 H 466.047 -3.70281 -1.40384 0
M  V30 4874 H 467.221 -4.39999 1.36886 0
M  V30 4875 H 465.536 -4.02015 1.08502 0
M  V30 4876 H 468.133 -5.14407 -1.45909 0
M  V30 4877 H 468.476 -3.57196 -2.13815 0
M  V30 4878 H 469.009 -3.94873 -0.481687 0
M  V30 4879 H 465.748 -6.44955 1.17105 0
M  V30 4880 H 465.268 -5.97911 -0.475655 0
M  V30 4881 H 466.947 -6.46852 -0.138354 0
M  V30 4882 N 467.08 -0.0183926 -1.57589 0
M  V30 4883 C 468.329 0.66185 -1.90532 0
M  V30 4884 C 468.642 1.73904 -0.895366 0
M  V30 4885 O 469.848 2.47518 -1.11566 0
M  V30 4886 C 468.304 1.22844 -3.38286 0
M  V30 4887 C 467.912 0.185103 -4.47617 0
M  V30 4888 C 469.656 1.88581 -3.80312 0
M  V30 4889 C 467.563 0.762723 -5.86461 0
M  V30 4890 H 466.493 0.250972 -0.711006 0
M  V30 4891 H 469.144 -0.0819435 -1.83317 0
M  V30 4892 H 467.526 2.0235 -3.40398 0
M  V30 4893 H 468.7 -0.58671 -4.5705 0
M  V30 4894 H 467.015 -0.372889 -4.14727 0
M  V30 4895 H 469.612 2.32735 -4.81392 0
M  V30 4896 H 469.955 2.72408 -3.14801 0
M  V30 4897 H 470.488 1.15782 -3.80578 0
M  V30 4898 H 467.227 -0.0371713 -6.55489 0
M  V30 4899 H 466.747 1.50327 -5.80656 0
M  V30 4900 H 468.426 1.25576 -6.34697 0
M  V30 4901 N 468.558 1.5553 0.254621 0
M  V30 4902 C 469.521 1.88872 1.29846 0
M  V30 4903 C 470.521 0.764591 1.41459 0
M  V30 4904 O 471.711 1.03265 1.40293 0
M  V30 4905 C 468.843 2.11032 2.67728 0
M  V30 4906 H 470.036 2.82201 1.01502 0
M  V30 4907 H 467.589 1.48303 0.493556 0
M  V30 4908 H 468.324 1.20146 3.01223 0
M  V30 4909 H 468.109 2.92895 2.60682 0
M  V30 4910 H 469.599 2.38038 3.43115 0
M  V30 4911 N 470.036 -0.519951 1.48776 0
M  V30 4912 C 470.966 -1.63253 1.66945 0
M  V30 4913 C 471.947 -1.62014 0.518224 0
M  V30 4914 O 473.132 -1.79053 0.751919 0
M  V30 4915 C 470.262 -3.0181 1.71836 0
M  V30 4916 C 469.216 -3.17911 2.8656 0
M  V30 4917 C 468.542 -4.5763 2.76548 0
M  V30 4918 C 469.842 -2.99729 4.27738 0
M  V30 4919 H 471.536 -1.48302 2.6009 0
M  V30 4920 H 469.082 -0.712026 1.25165 0
M  V30 4921 H 471.035 -3.79525 1.83135 0
M  V30 4922 H 469.759 -3.17806 0.752775 0
M  V30 4923 H 468.418 -2.42616 2.74833 0
M  V30 4924 H 468.066 -4.70476 1.77937 0
M  V30 4925 H 467.766 -4.69346 3.53536 0
M  V30 4926 H 469.29 -5.37431 2.89828 0
M  V30 4927 H 470.704 -3.67228 4.40246 0
M  V30 4928 H 469.101 -3.22932 5.05801 0
M  V30 4929 H 470.171 -1.96047 4.43502 0
M  V30 4930 N 471.514 -1.37532 -0.769588 0
M  V30 4931 C 472.444 -1.36172 -1.89682 0
M  V30 4932 C 473.425 -0.23001 -1.68538 0
M  V30 4933 O 474.61 -0.43069 -1.89364 0
M  V30 4934 C 471.74 -1.1701 -3.26995 0
M  V30 4935 C 470.694 -2.27216 -3.62708 0
M  V30 4936 C 470.02 -1.93174 -4.98586 0
M  V30 4937 C 471.32 -3.6941 -3.69234 0
M  V30 4938 H 473.014 -2.30499 -1.91078 0
M  V30 4939 H 470.56 -1.10953 -0.917902 0
M  V30 4940 H 472.513 -1.14688 -4.05493 0
M  V30 4941 H 471.237 -0.191395 -3.26039 0
M  V30 4942 H 469.896 -2.28697 -2.86519 0
M  V30 4943 H 469.544 -0.938281 -4.94171 0
M  V30 4944 H 469.244 -2.66973 -5.23449 0
M  V30 4945 H 470.768 -1.92443 -5.79481 0
M  V30 4946 H 472.182 -3.70047 -4.37879 0
M  V30 4947 H 470.579 -4.4228 -4.05597 0
M  V30 4948 H 471.649 -4.0288 -2.69844 0
M  V30 4949 N 472.992 0.995999 -1.22138 0
M  V30 4950 C 473.955 2.06711 -0.990109 0
M  V30 4951 C 474.955 1.60744 0.0422978 0
M  V30 4952 O 476.145 1.73095 -0.195895 0
M  V30 4953 C 473.277 3.37288 -0.49491 0
M  V30 4954 H 474.47 2.28661 -1.94047 0
M  V30 4955 H 472.023 1.16711 -1.03963 0
M  V30 4956 H 472.758 3.21022 0.459948 0
M  V30 4957 H 472.543 3.71986 -1.23971 0
M  V30 4958 H 474.033 4.16103 -0.353253 0
M  V30 4959 N 474.47 1.03057 1.19235 0
M  V30 4960 C 475.698 0.747697 1.92917 0
M  V30 4961 C 476.113 -0.69372 1.75593 0
M  V30 4962 O 475.47 -1.47191 1.07894 0
M  V30 4963 C 475.521 1.09159 3.44625 0
M  V30 4964 O 475.242 2.47641 3.61394 0
M  V30 4965 C 476.743 0.831763 4.35427 0
M  V30 4966 H 473.963 0.273453 0.612751 0
M  V30 4967 H 476.507 1.37552 1.51327 0
M  V30 4968 H 474.662 0.508919 3.84043 0
M  V30 4969 H 475.076 2.60499 4.55237 0
M  V30 4970 H 476.55 1.12233 5.4047 0
M  V30 4971 H 477.027 -0.233769 4.38577 0
M  V30 4972 H 477.633 1.39725 4.01693 0
M  V30 4973 N 475.948 -1.35272 0.808662 0
M  V30 4974 C 476.88 -2.28507 0.178149 0
M  V30 4975 C 477.893 -1.50377 -0.623754 0
M  V30 4976 O 479.082 -1.72583 -0.455774 0
M  V30 4977 C 476.182 -3.30038 -0.769959 0
M  V30 4978 C 475.355 -4.37398 -0.0139749 0
M  V30 4979 C 474.414 -5.18775 -0.880875 0
M  V30 4980 O 473.44 -5.68236 -0.331059 0
M  V30 4981 N 474.642 -5.37087 -2.20267 0
M  V30 4982 H 477.407 -2.83255 0.979106 0
M  V30 4983 H 474.968 -1.47643 0.664308 0
M  V30 4984 H 476.96 -3.81371 -1.35418 0
M  V30 4985 H 475.53 -2.75789 -1.47171 0
M  V30 4986 H 474.75 -3.86971 0.751468 0
M  V30 4987 H 476.038 -5.06268 0.506965 0
M  V30 4988 H 475.436 -4.9855 -2.67328 0
M  V30 4989 H 473.993 -5.91593 -2.73608 0
M  V30 4990 N 477.426 -0.562348 -1.47226 0
M  V30 4991 C 478.389 0.172056 -2.28553 0
M  V30 4992 C 479.389 0.837928 -1.37242 0
M  V30 4993 O 480.579 0.693001 -1.59822 0
M  V30 4994 C 477.711 1.25223 -3.17068 0
M  V30 4995 H 478.904 -0.542401 -2.94954 0
M  V30 4996 H 476.457 -0.319493 -1.53 0
M  V30 4997 H 477.192 1.99892 -2.55369 0
M  V30 4998 H 476.977 0.779515 -3.84273 0
M  V30 4999 H 478.467 1.76791 -3.78332 0
M  V30 5000 N 478.904 1.54736 -0.299062 0
M  V30 5001 C 479.836 2.20891 0.61153 0
M  V30 5002 C 480.849 1.20104 1.09904 0
M  V30 5003 O 482.038 1.46707 1.01683 0
M  V30 5004 C 479.138 2.84018 1.84897 0
M  V30 5005 C 478.311 4.10719 1.50428 0
M  V30 5006 C 477.37 4.57667 2.59667 0
M  V30 5007 O 476.396 5.2291 2.24842 0
M  V30 5008 N 477.598 4.29821 3.90172 0
M  V30 5009 H 480.363 2.99666 0.0452001 0
M  V30 5010 H 477.924 1.61446 -0.121178 0
M  V30 5011 H 479.916 3.1236 2.5732 0
M  V30 5012 H 478.486 2.09095 2.32375 0
M  V30 5013 H 477.706 3.89408 0.612781 0
M  V30 5014 H 478.994 4.93223 1.24934 0
M  V30 5015 H 478.392 3.77549 4.21276 0
M  V30 5016 H 476.949 4.62877 4.58899 0
M  V30 5017 N 480.382 0.0267497 1.57577 0
M  V30 5018 C 481.63 -0.651116 1.91324 0
M  V30 5019 C 481.951 -1.72804 0.90353 0
M  V30 5020 O 481.221 -1.95822 -0.0552946 0
M  V30 5021 H 479.801 -0.243491 0.706202 0
M  V30 5022 H 482.463 0.0739935 1.94759 0
M  V30 5023 H 481.559 -1.10536 2.9187 0
M  V30 5024 N 481.861 -1.55662 -0.24637 0
M  V30 5025 C 483.107 -1.77782 -0.975779 0
M  V30 5026 C 483.44 -0.592103 -1.84953 0
M  V30 5027 O 482.715 0.409588 -1.90138 0
M  V30 5028 C 482.998 -3.09788 -1.83584 0
M  V30 5029 C 482.851 -4.38764 -0.990241 0
M  V30 5030 C 484.17 -3.38029 -2.81823 0
M  V30 5031 H 481.289 -0.646789 -0.353317 0
M  V30 5032 H 483.931 -1.88398 -0.246248 0
M  V30 5033 H 482.081 -3.00869 -2.45784 0
M  V30 5034 H 483.753 -4.59675 -0.386897 0
M  V30 5035 H 481.996 -4.32798 -0.294626 0
M  V30 5036 H 482.667 -5.27514 -1.62584 0
M  V30 5037 H 485.143 -3.46915 -2.2976 0
M  V30 5038 H 484.019 -4.3161 -3.39122 0
M  V30 5039 H 484.28 -2.58968 -3.58313 0
M  V30 5040 N 483.339 0.512053 -1.4905 0
M  V30 5041 C 484.567 1.29116 -1.61669 0
M  V30 5042 C 484.982 1.86655 -0.283787 0
M  V30 5043 O 484.339 1.67293 0.729331 0
M  V30 5044 C 484.39 2.4293 -2.67707 0
M  V30 5045 O 484.111 1.87758 -3.95826 0
M  V30 5046 C 485.612 3.34476 -2.90931 0
M  V30 5047 H 482.832 0.392009 -0.544583 0
M  V30 5048 H 485.376 0.615881 -1.95006 0
M  V30 5049 H 483.531 3.06308 -2.37179 0
M  V30 5050 H 483.945 2.62393 -4.54148 0
M  V30 5051 H 485.419 4.10642 -3.68886 0
M  V30 5052 H 485.896 3.90801 -2.00427 0
M  V30 5053 H 486.502 2.76874 -3.22832 0
M  V30 5054 N 484.817 1.37938 0.762283 0
M  V30 5055 C 486.063 1.33866 1.52341 0
M  V30 5056 C 486.396 -0.0738961 1.94059 0
M  V30 5057 O 485.671 -1.03326 1.64785 0
M  V30 5058 C 485.954 2.28644 2.78197 0
M  V30 5059 C 485.807 3.78722 2.42672 0
M  V30 5060 C 487.126 2.21702 3.80179 0
M  V30 5061 H 484.245 0.487593 0.55265 0
M  V30 5062 H 486.887 1.68717 0.873767 0
M  V30 5063 H 485.037 1.99055 3.33631 0
M  V30 5064 H 486.709 4.18948 1.93081 0
M  V30 5065 H 484.952 3.96827 1.75244 0
M  V30 5066 H 485.623 4.40486 3.3268 0
M  V30 5067 H 488.099 2.47805 3.34263 0
M  V30 5068 H 486.975 2.90143 4.65949 0
M  V30 5069 H 487.236 1.21301 4.25133 0
M  V30 5070 N 486.295 -0.989507 1.22664 0
M  V30 5071 C 487.544 -1.72375 1.04737 0
M  V30 5072 C 487.857 -1.91096 -0.417316 0
M  V30 5073 O 489.063 -2.6188 -0.716334 0
M  V30 5074 C 487.519 -3.10161 1.82561 0
M  V30 5075 C 487.127 -2.99358 3.333 0
M  V30 5076 C 488.871 -3.87607 1.73093 0
M  V30 5077 C 486.778 -4.32319 4.03552 0
M  V30 5078 H 485.708 -0.646326 0.388302 0
M  V30 5079 H 488.359 -1.10437 1.46546 0
M  V30 5080 H 486.741 -3.728 1.33552 0
M  V30 5081 H 487.915 -2.45863 3.89728 0
M  V30 5082 H 486.23 -2.35392 3.43481 0
M  V30 5083 H 488.827 -4.86025 2.22899 0
M  V30 5084 H 489.17 -4.10509 0.691976 0
M  V30 5085 H 489.703 -3.31652 2.19663 0
M  V30 5086 H 486.442 -4.14616 5.07714 0
M  V30 5087 H 485.962 -4.85714 3.51911 0
M  V30 5088 H 487.641 -5.01051 4.09337 0
M  V30 5089 N 487.773 -1.03688 -1.18687 0
M  V30 5090 C 488.72 -0.624624 -2.22187 0
M  V30 5091 C 489.69 0.365636 -1.62026 0
M  V30 5092 O 490.875 0.260481 -1.89014 0
M  V30 5093 C 488.015 0.0101738 -3.45099 0
M  V30 5094 C 487.128 -1.02709 -4.19613 0
M  V30 5095 C 486.263 -0.361213 -5.2997 0
M  V30 5096 C 485.302 -1.38384 -5.96252 0
M  V30 5097 N 484.439 -0.743196 -6.98155 0
M  V30 5098 H 489.279 -1.51176 -2.56807 0
M  V30 5099 H 486.816 -0.75636 -1.26165 0
M  V30 5100 H 488.774 0.395528 -4.15321 0
M  V30 5101 H 487.404 0.860848 -3.1111 0
M  V30 5102 H 486.456 -1.53043 -3.48256 0
M  V30 5103 H 487.768 -1.80398 -4.65036 0
M  V30 5104 H 486.922 0.0785537 -6.06649 0
M  V30 5105 H 485.661 0.447799 -4.8564 0
M  V30 5106 H 484.666 -1.83378 -5.18317 0
M  V30 5107 H 485.891 -2.19448 -6.42666 0
M  V30 5108 H 483.837 0.0455789 -6.55984 0
M  V30 5109 H 483.754 -1.45784 -7.41811 0
M  V30 5110 H 485.022 -0.327698 -7.78811 0
M  V30 5111 N 489.251 1.34841 -0.815825 0
M  V30 5112 C 490.528 1.92908 -0.323416 0
M  V30 5113 C 490.908 1.74479 1.18828 0
M  V30 5114 O 490.256 1.11928 1.99209 0
M  V30 5115 C 490.466 3.40957 -0.744952 0
M  V30 5116 C 491.814 4.18107 -0.739716 0
M  V30 5117 O 492.838 3.49511 -0.68708 0
M  V30 5118 O 491.697 5.40517 -0.806456 0
M  V30 5119 H 488.791 0.822436 -0.0867646 0
M  V30 5120 H 491.337 1.4386 -0.90014 0
M  V30 5121 H 490.109 3.4814 -1.78646 0
M  V30 5122 H 489.732 3.97341 -0.143535 0
M  V30 5123 N 490.729 0.570148 1.46925 0
M  V30 5124 C 491.692 -0.159933 2.28641 0
M  V30 5125 C 492.692 -0.830638 1.37685 0
M  V30 5126 O 493.882 -0.684516 1.60187 0
M  V30 5127 C 491.014 -1.2354 3.17727 0
M  V30 5128 H 492.207 0.558035 2.94662 0
M  V30 5129 H 489.76 0.327603 1.52828 0
M  V30 5130 H 490.495 -1.98535 2.56426 0
M  V30 5131 H 490.28 -0.759125 3.84681 0
M  V30 5132 H 491.77 -1.74782 3.79264 0
M  V30 5133 N 492.207 -1.54576 0.307264 0
M  V30 5134 C 493.117 -2.27435 -0.57536 0
M  V30 5135 C 494.133 -1.31183 -1.14311 0
M  V30 5136 O 495.309 -1.64175 -1.16656 0
M  V30 5137 C 492.374 -3.00566 -1.72803 0
M  V30 5138 C 491.435 -4.12369 -1.19373 0
M  V30 5139 C 490.668 -4.82003 -2.29147 0
M  V30 5140 O 490.891 -4.51038 -3.49171 0
M  V30 5141 O 489.825 -5.69271 -1.95485 0
M  V30 5142 H 493.651 -3.03696 0.0158558 0
M  V30 5143 H 491.236 -1.49219 0.0735064 0
M  V30 5144 H 493.118 -3.46416 -2.39946 0
M  V30 5145 H 491.793 -2.27195 -2.30574 0
M  V30 5146 H 490.7 -3.70905 -0.487851 0
M  V30 5147 H 492.033 -4.87736 -0.661376 0
M  V30 5148 N 493.685 -0.035106 -1.57561 0
M  V30 5149 C 494.595 0.960295 -2.14046 0
M  V30 5150 C 495.611 1.3529 -1.0942 0
M  V30 5151 O 496.787 1.43309 -1.41508 0
M  V30 5152 C 493.852 2.22214 -2.66124 0
M  V30 5153 C 492.913 1.8894 -3.85487 0
M  V30 5154 C 492.146 3.09109 -4.35072 0
M  V30 5155 O 492.369 4.21963 -3.83802 0
M  V30 5156 O 491.303 2.91058 -5.26848 0
M  V30 5157 H 495.129 0.509983 -2.99387 0
M  V30 5158 H 492.714 0.185853 -1.48239 0
M  V30 5159 H 494.596 2.96279 -2.99661 0
M  V30 5160 H 493.271 2.66414 -1.83862 0
M  V30 5161 H 492.178 1.12241 -3.56865 0
M  V30 5162 H 493.511 1.49551 -4.6893 0
M  V30 5163 N 495.163 1.55791 0.238111 0
M  V30 5164 C 496.093 1.94068 1.29846 0
M  V30 5165 C 497.074 0.806726 1.49753 0
M  V30 5166 O 498.259 1.06772 1.62214 0
M  V30 5167 C 495.389 2.24302 2.65153 0
M  V30 5168 C 494.343 3.40032 2.59927 0
M  V30 5169 C 493.669 3.55829 3.99111 0
M  V30 5170 C 494.969 4.75476 2.16148 0
M  V30 5171 H 496.663 2.82887 0.980563 0
M  V30 5172 H 494.209 1.36105 0.470253 0
M  V30 5173 H 496.162 2.4967 3.39475 0
M  V30 5174 H 494.886 1.32318 2.98596 0
M  V30 5175 H 493.545 3.14687 1.88063 0
M  V30 5176 H 493.193 2.6125 4.29834 0
M  V30 5177 H 492.893 4.3366 3.96501 0
M  V30 5178 H 494.417 3.83528 4.7512 0
M  V30 5179 H 495.831 5.00158 2.80205 0
M  V30 5180 H 494.228 5.56472 2.24631 0
M  V30 5181 H 495.298 4.71946 1.11333 0
M  V30 5182 N 496.642 -0.504142 1.49319 0
M  V30 5183 C 497.589 -1.60603 1.65756 0
M  V30 5184 C 498.559 -1.58425 0.499082 0
M  V30 5185 O 499.744 -1.76459 0.725728 0
M  V30 5186 C 496.884 -2.98764 1.72726 0
M  V30 5187 C 495.997 -3.10982 2.99857 0
M  V30 5188 C 495.132 -4.39857 2.97824 0
M  V30 5189 C 494.171 -4.45697 4.19548 0
M  V30 5190 N 493.308 -5.65995 4.15444 0
M  V30 5191 H 498.148 -1.45895 2.59843 0
M  V30 5192 H 495.685 -0.709891 1.28837 0
M  V30 5193 H 497.643 -3.78839 1.74747 0
M  V30 5194 H 496.273 -3.12183 0.821075 0
M  V30 5195 H 495.325 -2.23991 3.07461 0
M  V30 5196 H 496.637 -3.11157 3.89849 0
M  V30 5197 H 495.791 -5.2825 2.98391 0
M  V30 5198 H 494.53 -4.42242 2.05604 0
M  V30 5199 H 493.535 -3.55707 4.19229 0
M  V30 5200 H 494.76 -4.4503 5.12957 0
M  V30 5201 H 492.706 -5.69229 3.26059 0
M  V30 5202 H 492.623 -5.67773 4.99169 0
M  V30 5203 H 493.891 -6.56604 4.20109 0
M  V30 5204 N 498.12 -1.38341 -0.754957 0
M  V30 5205 C 499.366 -1.34672 -1.51628 0
M  V30 5206 C 499.699 0.0636036 -1.94096 0
M  V30 5207 O 498.974 1.0245 -1.6533 0
M  V30 5208 C 499.257 -2.30116 -2.76981 0
M  V30 5209 C 499.11 -3.80003 -2.4066 0
M  V30 5210 C 500.429 -2.23715 -3.78998 0
M  V30 5211 H 497.548 -0.490517 -0.550056 0
M  V30 5212 H 500.19 -1.69178 -0.864807 0
M  V30 5213 H 498.34 -2.00821 -3.3257 0
M  V30 5214 H 500.012 -4.19966 -1.90856 0
M  V30 5215 H 498.255 -3.97751 -1.73137 0
M  V30 5216 H 498.926 -4.42244 -3.30339 0
M  V30 5217 H 501.402 -2.49574 -3.32945 0
M  V30 5218 H 500.278 -2.9261 -4.64403 0
M  V30 5219 H 500.539 -1.23554 -4.24484 0
M  V30 5220 N 499.598 0.982988 -1.23187 0
M  V30 5221 C 500.545 2.07491 -1.01075 0
M  V30 5222 C 501.515 1.65949 0.070905 0
M  V30 5223 O 502.7 1.90629 -0.0806822 0
M  V30 5224 C 499.84 3.39751 -0.605261 0
M  V30 5225 C 498.953 3.94578 -1.75876 0
M  V30 5226 C 498.088 5.15039 -1.3003 0
M  V30 5227 C 497.127 5.62027 -2.42472 0
M  V30 5228 N 496.264 6.73719 -1.97602 0
M  V30 5229 H 501.104 2.25739 -1.9454 0
M  V30 5230 H 498.641 1.10659 -0.969179 0
M  V30 5231 H 500.599 4.15719 -0.351279 0
M  V30 5232 H 499.229 3.21473 0.292382 0
M  V30 5233 H 498.281 3.1539 -2.12681 0
M  V30 5234 H 499.593 4.25422 -2.60418 0
M  V30 5235 H 498.747 5.9833 -1.00429 0
M  V30 5236 H 497.486 4.85843 -0.425216 0
M  V30 5237 H 496.491 4.77318 -2.7285 0
M  V30 5238 H 497.716 5.93244 -3.30512 0
M  V30 5239 H 495.662 6.46287 -1.1247 0
M  V30 5240 H 495.579 7.03934 -2.75705 0
M  V30 5241 H 496.847 7.6049 -1.71098 0
M  V30 5242 N 501.076 1.04316 1.18135 0
M  V30 5243 C 501.986 0.646876 2.25505 0
M  V30 5244 C 503.002 -0.328008 1.7088 0
M  V30 5245 O 504.178 -0.182309 2.00573 0
M  V30 5246 C 501.243 0.0185664 3.46695 0
M  V30 5247 C 500.304 1.04277 4.16443 0
M  V30 5248 C 499.537 0.444352 5.31847 0
M  V30 5249 O 499.76 -0.748735 5.65465 0
M  V30 5250 O 498.694 1.17428 5.90334 0
M  V30 5251 H 502.52 1.54147 2.61672 0
M  V30 5252 H 500.105 0.814188 1.25265 0
M  V30 5253 H 501.987 -0.331068 4.20097 0
M  V30 5254 H 500.662 -0.849814 3.12346 0
M  V30 5255 H 499.569 1.44425 3.45098 0
M  V30 5256 H 500.902 1.882 4.54798 0
M  V30 5257 N 502.554 -1.34406 0.822964 0
M  V30 5258 C 503.782 -2.02508 0.424039 0
M  V30 5259 C 504.197 -1.61975 -0.970022 0
M  V30 5260 O 503.554 -0.825228 -1.62777 0
M  V30 5261 C 503.605 -3.57789 0.516657 0
M  V30 5262 O 503.326 -3.96853 1.85577 0
M  V30 5263 C 504.827 -4.43157 0.112637 0
M  V30 5264 H 502.047 -0.649063 0.170173 0
M  V30 5265 H 504.591 -1.7168 1.11113 0
M  V30 5266 H 502.746 -3.87207 -0.122353 0
M  V30 5267 H 503.16 -4.91538 1.83005 0
M  V30 5268 H 504.634 -5.51527 0.228526 0
M  V30 5269 H 505.111 -4.28939 -0.943837 0
M  V30 5270 H 505.717 -4.19067 0.725449 0
M  V30 5271 N 504.032 -0.577932 -1.46621 0
M  V30 5272 C 505.309 0.00495287 -1.95599 0
M  V30 5273 C 505.689 1.46428 -1.5206 0
M  V30 5274 O 505.037 2.1517 -0.769046 0
M  V30 5275 C 505.247 -0.162114 -3.48623 0
M  V30 5276 C 506.595 -0.0274623 -4.24591 0
M  V30 5277 O 507.619 -0.0907067 -3.56084 0
M  V30 5278 O 506.478 0.1122 -5.46385 0
M  V30 5279 H 503.572 0.0525057 -0.825332 0
M  V30 5280 H 506.118 -0.645914 -1.56927 0
M  V30 5281 H 504.89 -1.17679 -3.73185 0
M  V30 5282 H 504.513 0.525407 -3.94113 0
M  V30 5283 N 505.51 1.54411 -0.315457 0
M  V30 5284 C 506.926 1.59556 0.037464 0
M  V30 5285 C 507.126 1.33217 1.5118 0
M  V30 5286 O 506.182 1.11264 2.26664 0
M  V30 5287 C 507.495 2.98372 -0.373477 0
M  V30 5288 C 509.043 3.11324 -0.323452 0
M  V30 5289 C 509.518 4.52472 -0.709433 0
M  V30 5290 N 511.009 4.58437 -0.662524 0
M  V30 5291 C 511.744 5.65751 -0.933474 0
M  V30 5292 N 511.24 6.81039 -1.27114 0
M  V30 5293 N 513.033 5.55489 -0.859573 0
M  V30 5294 H 505.184 1.6979 -1.27614 0
M  V30 5295 H 507.447 0.793732 -0.518356 0
M  V30 5296 H 507.153 3.22618 -1.40037 0
M  V30 5297 H 507.027 3.76264 0.265615 0
M  V30 5298 H 509.414 2.86818 0.694223 0
M  V30 5299 H 509.495 2.35555 -0.997367 0
M  V30 5300 H 509.139 4.7771 -1.72498 0
M  V30 5301 H 509.069 5.26598 -0.0132923 0
M  V30 5302 H 511.56 3.75636 -0.413065 0
M  V30 5303 H 511.873 7.58816 -1.46348 0
M  V30 5304 H 510.218 6.82555 -1.30932 0
M  V30 5305 H 513.409 4.64299 -0.595324 0
M  V30 5306 H 513.582 6.39036 -1.0741 0
M  V30 5307 N 506.988 0.0434614 1.5754 0
M  V30 5308 C 508.237 -0.631454 1.91561 0
M  V30 5309 C 508.55 -1.72457 0.92292 0
M  V30 5310 O 509.756 -2.45712 1.15489 0
M  V30 5311 C 508.212 -1.17447 3.40197 0
M  V30 5312 C 507.82 -0.113867 4.47855 0
M  V30 5313 C 509.564 -1.82507 3.83264 0
M  V30 5314 C 507.471 -0.669326 5.876 0
M  V30 5315 H 506.401 -0.239629 0.714908 0
M  V30 5316 H 509.052 0.111097 1.83163 0
M  V30 5317 H 507.434 -1.96909 3.43574 0
M  V30 5318 H 508.608 0.659348 4.56058 0
M  V30 5319 H 506.923 0.438821 4.14081 0
M  V30 5320 H 509.52 -2.25047 4.85034 0
M  V30 5321 H 509.863 -2.67365 3.19095 0
M  V30 5322 H 510.396 -1.09712 3.82372 0
M  V30 5323 H 507.135 0.141449 6.55347 0
M  V30 5324 H 506.655 -1.4107 5.82974 0
M  V30 5325 H 508.334 -1.15463 6.36614 0
M  V30 5326 N 508.466 -1.55915 -0.229846 0
M  V30 5327 C 509.398 -1.88209 -1.30805 0
M  V30 5328 C 510.411 -0.769672 -1.43457 0
M  V30 5329 O 511.6 -1.04792 -1.44502 0
M  V30 5330 C 508.7 -2.06829 -2.68468 0
M  V30 5331 C 507.873 -3.37798 -2.77869 0
M  V30 5332 C 506.932 -3.45952 -3.96489 0
M  V30 5333 O 505.958 -4.19043 -3.85216 0
M  V30 5334 N 507.16 -2.76488 -5.10426 0
M  V30 5335 H 509.925 -2.81286 -1.03431 0
M  V30 5336 H 507.486 -1.5636 -0.41991 0
M  V30 5337 H 509.478 -2.09608 -3.46189 0
M  V30 5338 H 508.048 -1.20416 -2.88477 0
M  V30 5339 H 507.268 -3.4719 -1.86689 0
M  V30 5340 H 508.556 -4.24091 -2.81113 0
M  V30 5341 H 507.954 -2.16868 -5.2248 0
M  V30 5342 H 506.511 -2.84938 -5.8622 0
M  V30 5343 N 509.944 0.496216 -1.49584 0
M  V30 5344 C 511.19 1.25189 -1.59548 0
M  V30 5345 C 511.523 1.9212 -0.283466 0
M  V30 5346 O 510.798 1.80947 0.713324 0
M  V30 5347 C 511.081 2.31516 -2.75812 0
M  V30 5348 C 510.934 1.69054 -4.16822 0
M  V30 5349 C 512.253 3.3304 -2.87702 0
M  V30 5350 H 509.372 0.45379 -0.580727 0
M  V30 5351 H 512.014 0.549327 -1.81886 0
M  V30 5352 H 510.164 2.91438 -2.56897 0
M  V30 5353 H 511.836 1.12923 -4.47265 0
M  V30 5354 H 510.079 0.994485 -4.22247 0
M  V30 5355 H 510.75 2.462 -4.94054 0
M  V30 5356 H 513.226 2.83114 -3.04936 0
M  V30 5357 H 512.102 4.04794 -3.7072 0
M  V30 5358 H 512.363 3.95655 -1.97255 0
M  V30 5359 N 511.423 1.38739 0.74761 0
M  V30 5360 C 512.669 1.35475 1.50912 0
M  V30 5361 C 513.002 -0.0533093 1.94127 0
M  V30 5362 O 512.277 -1.01572 1.65871 0
M  V30 5363 C 512.56 2.31582 2.75757 0
M  V30 5364 C 512.413 3.81274 2.38642 0
M  V30 5365 C 513.732 2.25722 3.77806 0
M  V30 5366 H 510.851 0.493427 0.547447 0
M  V30 5367 H 513.493 1.69634 0.855823 0
M  V30 5368 H 511.643 2.02582 3.31501 0
M  V30 5369 H 513.315 4.20972 1.88626 0
M  V30 5370 H 511.558 3.98664 1.71025 0
M  V30 5371 H 512.229 4.4399 3.27989 0
M  V30 5372 H 514.705 2.51336 3.31616 0
M  V30 5373 H 513.581 2.95069 4.62845 0
M  V30 5374 H 513.842 1.25803 4.23823 0
M  V30 5375 N 512.901 -0.976442 1.23707 0
M  V30 5376 C 513.864 -2.0511 1.02287 0
M  V30 5377 C 514.864 -1.60791 -0.0167195 0
M  V30 5378 O 516.054 -1.72761 0.223408 0
M  V30 5379 C 513.186 -3.36458 0.548507 0
M  V30 5380 H 514.379 -2.25545 1.9766 0
M  V30 5381 H 511.932 -1.15042 1.05806 0
M  V30 5382 H 512.667 -3.21713 -0.408818 0
M  V30 5383 H 512.452 -3.69967 1.29874 0
M  V30 5384 H 513.942 -4.15489 0.419406 0
M  V30 5385 N 514.379 -1.04941 -1.1758 0
M  V30 5386 C 515.656 -0.671918 -1.83697 0
M  V30 5387 C 516.036 0.847929 -1.93322 0
M  V30 5388 O 515.384 1.75287 -1.46583 0
M  V30 5389 C 515.594 -1.35797 -3.21497 0
M  V30 5390 C 516.942 -1.4944 -3.97433 0
M  V30 5391 O 517.966 -1.31678 -3.30967 0
M  V30 5392 O 516.825 -1.78463 -5.1654 0
M  V30 5393 H 513.919 -0.236212 -0.792548 0
M  V30 5394 H 516.465 -1.14884 -1.24899 0
M  V30 5395 H 515.237 -2.39498 -3.09446 0
M  V30 5396 H 514.86 -0.870236 -3.8796 0
M  V30 5397 N 515.857 1.33968 -0.830081 0
M  V30 5398 C 516.82 2.27694 -0.26235 0
M  V30 5399 C 517.82 1.50589 0.563876 0
M  V30 5400 O 519.01 1.70028 0.378941 0
M  V30 5401 C 516.142 3.35002 0.63138 0
M  V30 5402 H 517.335 2.79419 -1.08928 0
M  V30 5403 H 514.888 1.44221 -0.602486 0
M  V30 5404 H 515.623 2.88504 1.48109 0
M  V30 5405 H 515.408 3.92079 0.0403276 0
M  V30 5406 H 516.898 4.04897 1.02217 0
M  V30 5407 N 517.335 0.585699 1.46312 0
M  V30 5408 C 518.265 -0.133556 2.33118 0
M  V30 5409 C 519.246 -0.880707 1.45525 0
M  V30 5410 O 520.431 -0.855579 1.74337 0
M  V30 5411 C 517.561 -1.14585 3.27853 0
M  V30 5412 C 516.515 -0.513341 4.2491 0
M  V30 5413 C 515.841 -1.63231 5.09175 0
M  V30 5414 C 517.141 0.551413 5.19381 0
M  V30 5415 H 518.835 0.59121 2.93505 0
M  V30 5416 H 516.381 0.285761 1.41136 0
M  V30 5417 H 518.334 -1.65741 3.87438 0
M  V30 5418 H 517.058 -1.90093 2.65579 0
M  V30 5419 H 515.717 -0.0228349 3.66593 0
M  V30 5420 H 515.365 -2.37713 4.43285 0
M  V30 5421 H 515.065 -1.21473 5.74907 0
M  V30 5422 H 516.589 -2.14658 5.71624 0
M  V30 5423 H 518.003 0.124804 5.73164 0
M  V30 5424 H 516.4 0.889486 5.93471 0
M  V30 5425 H 517.47 1.43655 4.63132 0
M  V30 5426 N 518.813 -1.54241 0.323641 0
M  V30 5427 C 519.761 -2.25813 -0.557804 0
M  V30 5428 C 520.755 -1.27225 -1.11849 0
M  V30 5429 O 521.961 -1.45001 -1.06652 0
M  V30 5430 H 518.336 -0.72532 -0.198532 0
M  V30 5431 H 520.307 -2.98322 0.0681112 0
M  V30 5432 C 519.056 -3.02913 -1.70701 0
M  V30 5433 H 518.379 -3.78593 -1.28482 0
M  V30 5434 H 519.819 -3.56238 -2.29935 0
M  V30 5435 C 518.278 -2.11217 -2.62467 0
M  V30 5436 O 518.808 -1.69508 -3.64184 0
M  V30 5437 N 517.014 -1.76704 -2.30703 0
M  V30 5438 H 516.561 -2.1082 -1.48029 0
M  V30 5439 H 516.519 -1.15631 -2.92364 0
M  V30 5440 N 520.291 -0.0518155 -1.57515 0
M  V30 5441 C 521.516 0.634896 -1.97443 0
M  V30 5442 C 521.941 1.63546 -0.929207 0
M  V30 5443 O 521.299 1.80981 0.107484 0
M  V30 5444 C 521.347 1.29765 -3.36442 0
M  V30 5445 O 520.451 2.41333 -3.34413 0
M  V30 5446 H 519.792 0.164994 -0.643174 0
M  V30 5447 H 522.322 -0.120407 -2.04245 0
M  V30 5448 H 522.332 1.64918 -3.73184 0
M  V30 5449 H 521.007 0.564361 -4.12053 0
M  V30 5450 H 519.584 2.08122 -3.09418 0
M  V30 5451 N 521.769 1.56035 0.221574 0
M  V30 5452 C 522.702 1.87427 1.30178 0
M  V30 5453 C 523.68 0.731658 1.45209 0
M  V30 5454 O 524.864 0.980016 1.61022 0
M  V30 5455 C 521.991 2.08127 2.67209 0
M  V30 5456 C 521.037 3.30813 2.69194 0
M  V30 5457 S 521.87 4.86738 2.23263 0
M  V30 5458 C 523.026 5.10474 3.62171 0
M  V30 5459 H 523.259 2.78756 1.03355 0
M  V30 5460 H 520.792 1.48469 0.423813 0
M  V30 5461 H 522.75 2.20736 3.46101 0
M  V30 5462 H 521.411 1.17595 2.91256 0
M  V30 5463 H 520.604 3.42341 3.6989 0
M  V30 5464 H 520.206 3.1706 1.98366 0
M  V30 5465 H 522.498 4.9937 4.5786 0
M  V30 5466 H 523.441 6.12359 3.55558 0
M  V30 5467 H 523.849 4.38208 3.55857 0
M  V30 5468 N 523.247 -0.488276 1.49845 0
M  V30 5469 C 524.495 -1.23911 1.59657 0
M  V30 5470 C 524.816 -1.92816 0.291005 0
M  V30 5471 O 524.086 -1.83328 -0.690485 0
M  V30 5472 H 522.666 -0.460357 0.588286 0
M  V30 5473 H 525.328 -0.564794 1.86537 0
M  V30 5474 H 524.424 -1.99625 2.39909 0
M  V30 5475 N 524.725 -1.39134 -0.740242 0
M  V30 5476 C 525.688 -1.37217 -1.83587 0
M  V30 5477 C 526.688 -0.270221 -1.58513 0
M  V30 5478 O 527.878 -0.527843 -1.6601 0
M  V30 5479 C 525.01 -1.13959 -3.21288 0
M  V30 5480 H 526.203 -2.34705 -1.86691 0
M  V30 5481 H 523.756 -1.24622 -0.94335 0
M  V30 5482 H 524.491 -0.17131 -3.23847 0
M  V30 5483 H 524.276 -1.93754 -3.40884 0
M  V30 5484 H 525.766 -1.15346 -4.01354 0
M  V30 5485 N 526.204 0.969867 -1.24223 0
M  V30 5486 C 527.481 1.68774 -0.988664 0
M  V30 5487 C 527.861 2.05342 0.489673 0
M  V30 5488 O 527.209 1.75486 1.46345 0
M  V30 5489 C 527.419 2.92135 -1.90941 0
M  V30 5490 C 528.767 3.64422 -2.17903 0
M  V30 5491 O 529.791 3.02188 -1.88576 0
M  V30 5492 O 528.65 4.76446 -2.67697 0
M  V30 5493 H 525.744 0.737736 -0.37373 0
M  V30 5494 H 528.29 1.02415 -1.35312 0
M  V30 5495 H 527.062 2.61788 -2.90831 0
M  V30 5496 H 526.685 3.66228 -1.54798 0
M  V30 5497 N 527.682 1.05563 1.17022 0
M  V30 5498 C 528.931 0.763036 1.8671 0
M  V30 5499 C 529.244 -0.712857 1.82147 0
M  V30 5500 O 530.45 -1.11955 2.47343 0
M  V30 5501 C 528.906 1.31474 3.35026 0
M  V30 5502 C 528.514 2.82034 3.48081 0
M  V30 5503 C 530.258 1.09935 4.10018 0
M  V30 5504 C 528.165 3.30486 4.90442 0
M  V30 5505 H 527.095 0.281747 0.699382 0
M  V30 5506 H 529.746 1.2734 1.32124 0
M  V30 5507 H 528.128 0.732171 3.89173 0
M  V30 5508 H 529.302 3.46178 3.04133 0
M  V30 5509 H 527.617 3.02156 2.86515 0
M  V30 5510 H 530.214 1.43632 5.15048 0
M  V30 5511 H 530.557 0.0373072 4.16283 0
M  V30 5512 H 531.09 1.64732 3.62089 0
M  V30 5513 H 527.829 4.36137 4.89352 0
M  V30 5514 H 527.349 2.71086 5.35044 0
M  V30 5515 H 529.028 3.25382 5.59227 0
M  V30 5516 N 529.16 -1.33526 0.837174 0
M  V30 5517 C 530.388 -2.02047 0.445494 0
M  V30 5518 C 530.803 -1.62995 -0.952788 0
M  V30 5519 O 530.16 -0.842447 -1.61892 0
M  V30 5520 C 530.211 -3.57221 0.554577 0
M  V30 5521 O 529.932 -3.94863 1.89776 0
M  V30 5522 C 531.433 -4.43012 0.159634 0
M  V30 5523 H 528.653 -0.647221 0.177048 0
M  V30 5524 H 531.197 -1.70492 1.12928 0
M  V30 5525 H 529.352 -3.87315 -0.0812781 0
M  V30 5526 H 529.766 -4.89569 1.88208 0
M  V30 5527 H 531.24 -5.51253 0.28701 0
M  V30 5528 H 531.717 -4.29916 -0.898289 0
M  V30 5529 H 532.323 -4.18274 0.769855 0
M  V30 5530 N 530.638 -0.59345 -1.46 0
M  V30 5531 C 532.049 -0.169801 -1.85926 0
M  V30 5532 C 532.4 1.26984 -1.49565 0
M  V30 5533 O 531.525 1.96076 -0.915602 0
M  V30 5534 C 532.12 -0.301385 -3.37457 0
M  V30 5535 C 530.679 0.0674684 -3.7634 0
M  V30 5536 C 529.826 -0.632383 -2.69993 0
M  V30 5537 H 532.777 -0.801014 -1.37002 0
M  V30 5538 H 532.798 0.470331 -3.77582 0
M  V30 5539 H 532.31 -1.34927 -3.63891 0
M  V30 5540 H 530.411 1.11507 -3.55523 0
M  V30 5541 H 530.524 -0.316332 -4.78055 0
M  V30 5542 H 528.888 -0.0714961 -2.546 0
M  V30 5543 H 529.671 -1.68212 -2.99265 0
M  V30 5544 N 532.116 1.54067 -0.331816 0
M  V30 5545 C 533.344 2.05131 0.269996 0
M  V30 5546 C 533.759 1.20749 1.45138 0
M  V30 5547 O 533.116 0.240069 1.80914 0
M  V30 5548 C 533.167 3.54728 0.696456 0
M  V30 5549 O 532.888 4.35906 -0.43794 0
M  V30 5550 C 534.389 4.21916 1.36021 0
M  V30 5551 H 531.609 0.668807 0.0542042 0
M  V30 5552 H 534.153 1.98777 -0.4804 0
M  V30 5553 H 532.308 3.61342 1.39681 0
M  V30 5554 H 532.722 5.24404 -0.100334 0
M  V30 5555 H 534.196 5.28015 1.60947 0
M  V30 5556 H 534.673 3.73538 2.31011 0
M  V30 5557 H 535.279 4.19463 0.702212 0
M  V30 5558 N 533.594 0.0601682 1.57485 0
M  V30 5559 C 534.557 -0.896373 2.10945 0
M  V30 5560 C 535.557 -1.23402 1.03095 0
M  V30 5561 O 536.747 -1.16921 1.29132 0
M  V30 5562 C 533.879 -2.20346 2.60116 0
M  V30 5563 H 535.072 -0.432778 2.96761 0
M  V30 5564 H 532.625 -0.188372 1.55161 0
M  V30 5565 H 533.36 -2.71268 1.7772 0
M  V30 5566 H 533.145 -1.9714 3.38937 0
M  V30 5567 H 534.635 -2.88846 3.01592 0
M  V30 5568 N 535.072 -1.5615 -0.213296 0
M  V30 5569 C 536.349 -1.70349 -0.961281 0
M  V30 5570 C 536.729 -0.609791 -2.02101 0
M  V30 5571 O 536.077 0.381987 -2.25285 0
M  V30 5572 C 536.287 -3.11982 -1.56424 0
M  V30 5573 C 537.635 -3.71649 -2.05334 0
M  V30 5574 O 538.659 -3.14995 -1.66302 0
M  V30 5575 O 537.518 -4.71038 -2.77102 0
M  V30 5576 H 534.612 -0.694121 -0.449582 0
M  V30 5577 H 537.158 -1.68464 -0.204426 0
M  V30 5578 H 535.93 -3.83046 -0.799457 0
M  V30 5579 H 535.553 -3.18019 -2.38641 0
M  V30 5580 N 536.55 0.480323 -1.50102 0
M  V30 5581 C 537.798 1.23063 -1.60312 0
M  V30 5582 C 538.119 1.92659 -0.301226 0
M  V30 5583 O 537.389 1.83691 0.680753 0
M  V30 5584 H 535.969 0.457231 -0.590719 0
M  V30 5585 H 538.631 0.554893 -1.86834 0
M  V30 5586 H 537.727 1.9835 -2.40964 0
M  V30 5587 N 538.028 1.39524 0.732853 0
M  V30 5588 C 538.961 1.32806 1.85574 0
M  V30 5589 C 539.939 0.201354 1.61348 0
M  V30 5590 O 541.123 0.38216 1.84585 0
M  V30 5591 C 538.25 1.06271 3.21596 0
M  V30 5592 C 537.296 2.21161 3.64678 0
M  V30 5593 S 538.129 3.83454 3.73796 0
M  V30 5594 C 539.285 3.59149 5.12604 0
M  V30 5595 H 539.518 2.27838 1.9099 0
M  V30 5596 H 537.051 1.25605 0.897927 0
M  V30 5597 H 539.009 0.916461 4.00139 0
M  V30 5598 H 537.67 0.129223 3.13834 0
M  V30 5599 H 536.863 1.98193 4.63396 0
M  V30 5600 H 536.465 2.32 2.93346 0
M  V30 5601 H 538.757 3.16547 5.99003 0
M  V30 5602 H 539.7 4.57335 5.40602 0
M  V30 5603 H 540.108 2.93203 4.82382 0
M  V30 5604 N 539.506 -0.963266 1.24736 0
M  V30 5605 C 540.755 -1.70115 1.08369 0
M  V30 5606 C 541.068 -1.91939 -0.376688 0
M  V30 5607 O 542.274 -2.6334 -0.660624 0
M  V30 5608 C 540.73 -3.06218 1.89099 0
M  V30 5609 C 540.338 -2.92221 3.39574 0
M  V30 5610 C 542.082 -3.83848 1.81275 0
M  V30 5611 C 539.989 -4.23662 4.12631 0
M  V30 5612 H 538.919 -0.637944 0.401924 0
M  V30 5613 H 541.57 -1.07304 1.48856 0
M  V30 5614 H 539.952 -3.69884 1.41429 0
M  V30 5615 H 541.126 -2.37541 3.94856 0
M  V30 5616 H 539.441 -2.28054 3.48397 0
M  V30 5617 H 542.038 -4.81188 2.33158 0
M  V30 5618 H 542.381 -4.08949 0.778895 0
M  V30 5619 H 542.914 -3.26918 2.26649 0
M  V30 5620 H 539.653 -4.03753 5.16395 0
M  V30 5621 H 539.173 -4.78141 3.62135 0
M  V30 5622 H 540.852 -4.92256 4.19873 0
M  V30 5623 N 540.985 -1.06182 -1.16461 0
M  V30 5624 C 542.234 -0.772927 -1.86303 0
M  V30 5625 C 542.547 0.703187 -1.82523 0
M  V30 5626 O 543.753 1.10641 -2.47933 0
M  V30 5627 C 542.209 -1.33249 -3.34324 0
M  V30 5628 C 541.817 -2.83876 -3.46581 0
M  V30 5629 C 543.561 -1.12108 -4.09429 0
M  V30 5630 C 541.468 -3.33082 -4.88682 0
M  V30 5631 H 540.398 -0.285452 -0.697878 0
M  V30 5632 H 543.049 -1.28039 -1.31447 0
M  V30 5633 H 541.431 -0.7528 -3.88779 0
M  V30 5634 H 542.605 -3.47786 -3.02293 0
M  V30 5635 H 540.92 -3.03671 -2.84909 0
M  V30 5636 H 543.517 -1.46361 -5.14279 0
M  V30 5637 H 543.86 -0.0593832 -4.16258 0
M  V30 5638 H 544.393 -1.6665 -3.6121 0
M  V30 5639 H 541.132 -4.38726 -4.87032 0
M  V30 5640 H 540.652 -2.73919 -5.33599 0
M  V30 5641 H 542.331 -3.28344 -5.57494 0
M  V30 5642 N 542.463 1.3308 -0.844243 0
M  V30 5643 C 543.41 2.29104 -0.279323 0
M  V30 5644 C 544.38 1.54577 0.607882 0
M  V30 5645 O 545.565 1.8285 0.545009 0
M  V30 5646 C 542.705 3.40927 0.53508 0
M  V30 5647 C 541.818 4.30354 -0.376749 0
M  V30 5648 C 540.953 5.29297 0.449276 0
M  V30 5649 C 539.992 6.10365 -0.460606 0
M  V30 5650 N 539.129 7.01335 0.327612 0
M  V30 5651 H 543.969 2.76817 -1.10346 0
M  V30 5652 H 541.506 1.36203 -0.555611 0
M  V30 5653 H 543.464 4.04469 1.02278 0
M  V30 5654 H 542.094 2.94391 1.32414 0
M  V30 5655 H 541.146 3.67485 -0.982791 0
M  V30 5656 H 542.458 4.87067 -1.07549 0
M  V30 5657 H 541.612 5.98392 1.00058 0
M  V30 5658 H 540.351 4.73174 1.18143 0
M  V30 5659 H 539.356 5.40182 -1.02388 0
M  V30 5660 H 540.581 6.68571 -1.1912 0
M  V30 5661 H 538.527 6.47655 1.04305 0
M  V30 5662 H 538.444 7.55355 -0.3123 0
M  V30 5663 H 539.712 7.74731 0.86098 0
M  V30 5664 N 543.941 0.601185 1.45683 0
M  V30 5665 C 545.189 0.0936957 2.01883 0
M  V30 5666 C 545.51 -1.2779 1.47291 0
M  V30 5667 O 544.78 -1.84279 0.664691 0
M  V30 5668 H 543.36 0.0316466 0.746329 0
M  V30 5669 H 546.022 0.781137 1.78562 0
M  V30 5670 H 545.118 0.0386297 3.12076 0
M  V30 5671 N 545.419 -1.53889 0.339982 0
M  V30 5672 C 546.366 -2.24902 -0.518452 0
M  V30 5673 C 547.336 -1.24593 -1.09844 0
M  V30 5674 O 548.521 -1.53317 -1.13572 0
M  V30 5675 C 545.661 -3.02262 -1.66529 0
M  V30 5676 C 544.774 -4.17418 -1.11295 0
M  V30 5677 C 543.909 -4.82273 -2.2268 0
M  V30 5678 C 542.948 -5.89503 -1.6478 0
M  V30 5679 N 542.085 -6.48153 -2.69893 0
M  V30 5680 H 546.925 -2.97853 0.0936579 0
M  V30 5681 H 544.462 -1.46986 0.0579924 0
M  V30 5682 H 546.42 -3.45371 -2.3404 0
M  V30 5683 H 545.05 -2.31614 -2.24844 0
M  V30 5684 H 544.102 -3.78976 -0.328886 0
M  V30 5685 H 545.414 -4.94554 -0.649414 0
M  V30 5686 H 544.568 -5.28435 -2.98063 0
M  V30 5687 H 543.307 -4.04552 -2.72376 0
M  V30 5688 H 542.312 -5.42728 -0.879004 0
M  V30 5689 H 543.537 -6.6913 -1.1594 0
M  V30 5690 H 541.483 -5.73298 -3.1885 0
M  V30 5691 H 541.4 -7.20752 -2.28151 0
M  V30 5692 H 542.668 -6.98968 -3.45056 0
M  V30 5693 N 546.897 -0.0685191 -1.57451 0
M  V30 5694 C 548.122 0.613919 -1.98106 0
M  V30 5695 C 548.547 1.62551 -0.946501 0
M  V30 5696 O 547.905 1.81085 0.0882824 0
M  V30 5697 C 547.953 1.26189 -3.378 0
M  V30 5698 O 547.057 2.37773 -3.36954 0
M  V30 5699 H 546.398 0.158163 -0.644888 0
M  V30 5700 H 548.928 -0.142063 -2.04106 0
M  V30 5701 H 548.938 1.60951 -3.74912 0
M  V30 5702 H 547.613 0.520625 -4.12629 0
M  V30 5703 H 546.19 2.04829 -3.11608 0
M  V30 5704 N 548.375 1.56261 0.205012 0
M  V30 5705 C 549.338 1.92908 1.23771 0
M  V30 5706 C 550.338 0.809208 1.38955 0
M  V30 5707 O 551.528 1.07676 1.36936 0
M  V30 5708 C 548.66 2.19442 2.60879 0
M  V30 5709 H 549.853 2.85287 0.924728 0
M  V30 5710 H 547.406 1.49798 0.446125 0
M  V30 5711 H 548.141 1.29668 2.97248 0
M  V30 5712 H 547.926 3.0104 2.51232 0
M  V30 5713 H 549.416 2.48833 3.35368 0
M  V30 5714 N 549.853 -0.472356 1.50355 0
M  V30 5715 C 550.783 -1.57859 1.72055 0
M  V30 5716 C 551.764 -1.60283 0.569505 0
M  V30 5717 O 552.949 -1.7657 0.808503 0
M  V30 5718 C 550.079 -2.96191 1.81351 0
M  V30 5719 C 549.033 -3.08633 2.96529 0
M  V30 5720 C 548.359 -4.486 2.90968 0
M  V30 5721 C 549.659 -2.85969 4.37057 0
M  V30 5722 H 551.353 -1.39953 2.64676 0
M  V30 5723 H 548.899 -0.671846 1.27367 0
M  V30 5724 H 550.852 -3.73507 1.95117 0
M  V30 5725 H 549.576 -3.15251 0.853502 0
M  V30 5726 H 548.235 -2.33749 2.82413 0
M  V30 5727 H 547.883 -4.64577 1.92815 0
M  V30 5728 H 547.583 -4.57861 3.68289 0
M  V30 5729 H 549.107 -5.27938 3.0678 0
M  V30 5730 H 550.521 -3.53036 4.51706 0
M  V30 5731 H 548.918 -3.06677 5.15819 0
M  V30 5732 H 549.988 -1.81838 4.49514 0
M  V30 5733 N 551.331 -1.39911 -0.725443 0
M  V30 5734 C 552.281 -1.35878 -1.83088 0
M  V30 5735 C 553.265 -0.237989 -1.5913 0
M  V30 5736 O 554.457 -0.476302 -1.70471 0
M  V30 5737 C 551.586 -1.21403 -3.21117 0
M  V30 5738 C 550.672 -2.38223 -3.50871 0
M  V30 5739 N 551.063 -3.63703 -3.51502 0
M  V30 5740 C 549.361 -2.31388 -3.81281 0
M  V30 5741 C 550.062 -4.4101 -3.79322 0
M  V30 5742 N 549.038 -3.7072 -3.97577 0
M  V30 5743 H 552.84 -2.3085 -1.81895 0
M  V30 5744 H 550.354 -1.33543 -0.924125 0
M  V30 5745 H 552.351 -1.16597 -4.00263 0
M  V30 5746 H 551.011 -0.273902 -3.23543 0
M  V30 5747 H 552.022 -3.96998 -3.32586 0
M  V30 5748 H 548.699 -1.45689 -3.91256 0
M  V30 5749 H 550.089 -5.49819 -3.86198 0
M  V30 5750 N 552.809 0.956637 -1.25245 0
M  V30 5751 C 554.057 1.69764 -1.09657 0
M  V30 5752 C 554.378 1.91583 0.363464 0
M  V30 5753 O 553.648 1.50149 1.25825 0
M  V30 5754 H 552.228 0.629097 -0.402798 0
M  V30 5755 H 554.89 1.15026 -1.57337 0
M  V30 5756 H 553.986 2.67769 -1.60331 0
M  V30 5757 N 554.287 1.06798 1.15896 0
M  V30 5758 C 555.25 0.687328 2.18651 0
M  V30 5759 C 556.25 -0.269559 1.58524 0
M  V30 5760 O 557.44 -0.0512627 1.74125 0
M  V30 5761 C 554.572 0.0121642 3.40898 0
M  V30 5762 H 555.765 1.59701 2.53842 0
M  V30 5763 H 553.318 0.863828 1.3026 0
M  V30 5764 H 554.053 -0.910025 3.1127 0
M  V30 5765 H 553.838 0.700309 3.85795 0
M  V30 5766 H 555.328 -0.239703 4.16911 0
M  V30 5767 N 555.766 -1.3263 0.851289 0
M  V30 5768 C 557.182 -1.50162 0.5407 0
M  V30 5769 C 557.382 -1.78788 -0.929369 0
M  V30 5770 O 556.438 -1.85545 -1.71258 0
M  V30 5771 C 557.751 -2.64803 1.42478 0
M  V30 5772 C 559.299 -2.78688 1.42485 0
M  V30 5773 C 559.774 -3.96405 2.29407 0
M  V30 5774 N 561.265 -4.0366 2.27184 0
M  V30 5775 C 562 -4.93971 2.9117 0
M  V30 5776 N 561.496 -5.89313 3.64256 0
M  V30 5777 N 563.289 -4.87066 2.80576 0
M  V30 5778 H 555.44 -1.12315 1.80275 0
M  V30 5779 H 557.703 -0.553266 0.769806 0
M  V30 5780 H 557.409 -2.50368 2.46999 0
M  V30 5781 H 557.283 -3.60506 1.10974 0
M  V30 5782 H 559.67 -2.92547 0.387304 0
M  V30 5783 H 559.751 -1.83708 1.78002 0
M  V30 5784 H 559.395 -3.83304 3.33228 0
M  V30 5785 H 559.325 -4.90654 1.91224 0
M  V30 5786 H 561.816 -3.35435 1.74045 0
M  V30 5787 H 562.129 -6.54913 4.10255 0
M  V30 5788 H 560.474 -5.8935 3.68364 0
M  V30 5789 H 563.665 -4.11552 2.23031 0
M  V30 5790 H 563.838 -5.57248 3.30725 0
M  V30 5791 N 557.244 -0.608902 -1.45362 0
M  V30 5792 C 558.49 -0.104762 -2.02529 0
M  V30 5793 C 558.823 1.26191 -1.47613 0
M  V30 5794 O 558.098 1.8327 -0.65134 0
M  V30 5795 C 558.381 -0.0672661 -3.60037 0
M  V30 5796 C 558.234 -1.4647 -4.25284 0
M  V30 5797 C 559.553 0.619877 -4.35713 0
M  V30 5798 H 556.672 -0.0395438 -0.735938 0
M  V30 5799 H 559.314 -0.781126 -1.73201 0
M  V30 5800 H 557.464 0.50871 -3.85155 0
M  V30 5801 H 559.136 -2.08785 -4.11347 0
M  V30 5802 H 557.379 -2.02502 -3.83634 0
M  V30 5803 H 558.05 -1.39069 -5.34195 0
M  V30 5804 H 560.526 0.130297 -4.15896 0
M  V30 5805 H 559.402 0.615224 -5.45441 0
M  V30 5806 H 559.663 1.68621 -4.0868 0
M  V30 5807 N 558.722 1.53707 -0.348139 0
M  V30 5808 C 559.67 2.26671 0.521808 0
M  V30 5809 C 560.664 1.28988 1.09811 0
M  V30 5810 O 561.87 1.4668 1.04332 0
M  V30 5811 H 558.245 0.728387 0.186968 0
M  V30 5812 H 560.216 2.98176 -0.115563 0
M  V30 5813 C 558.965 3.05591 1.6586 0
M  V30 5814 H 558.288 3.80589 1.22443 0
M  V30 5815 H 559.728 3.59851 2.24239 0
M  V30 5816 C 558.187 2.15366 2.59073 0
M  V30 5817 O 558.717 1.7528 3.61441 0
M  V30 5818 N 556.923 1.80352 2.27863 0
M  V30 5819 H 556.47 2.13149 1.44656 0
M  V30 5820 H 556.428 1.20268 2.90488 0
M  V30 5821 N 560.2 0.0768682 1.57412 0
M  V30 5822 C 561.428 -0.59997 1.9801 0
M  V30 5823 C 561.843 -1.62842 0.955408 0
M  V30 5824 O 561.2 -1.8241 -0.057314 0
M  V30 5825 C 561.251 -1.26401 3.38681 0
M  V30 5826 O 560.972 -0.276723 4.37225 0
M  V30 5827 C 562.473 -2.0282 3.94182 0
M  V30 5828 H 559.693 -0.162239 0.651091 0
M  V30 5829 H 562.237 0.150771 2.03943 0
M  V30 5830 H 560.392 -1.96581 3.33819 0
M  V30 5831 H 560.806 -0.753744 5.19056 0
M  V30 5832 H 562.28 -2.44667 4.94815 0
M  V30 5833 H 562.757 -2.88678 3.31001 0
M  V30 5834 H 563.363 -1.37496 4.02461 0
M  V30 5835 N 561.678 -1.56367 -0.196722 0
M  V30 5836 C 562.925 -1.80529 -0.917366 0
M  V30 5837 C 563.253 -0.649817 -1.83324 0
M  V30 5838 O 562.508 0.36451 -1.92275 0
M  V30 5839 C 562.807 -3.10663 -1.767 0
M  V30 5840 C 562.473 -4.3962 -1.00225 0
M  V30 5841 C 561.135 -4.74653 -0.791095 0
M  V30 5842 C 563.487 -5.1913 -0.464035 0
M  V30 5843 C 560.815 -5.86692 -0.0302155 0
M  V30 5844 C 563.167 -6.31964 0.283625 0
M  V30 5845 C 561.831 -6.65581 0.505813 0
M  V30 5846 H 561.101 -0.660602 -0.335688 0
M  V30 5847 H 563.748 -1.90615 -0.183844 0
M  V30 5848 H 562.053 -2.95807 -2.56915 0
M  V30 5849 H 563.75 -3.26563 -2.32718 0
M  V30 5850 H 560.34 -4.12127 -1.17684 0
M  V30 5851 H 564.524 -4.9248 -0.614575 0
M  V30 5852 H 559.78 -6.11211 0.151917 0
M  V30 5853 H 563.954 -6.92791 0.708057 0
M  V30 5854 H 561.581 -7.52239 1.0973 0
M  V30 5855 N 563.156 0.464375 -1.50603 0
M  V30 5856 C 564.404 1.21356 -1.61608 0
M  V30 5857 C 564.725 1.92329 -0.321643 0
M  V30 5858 O 563.995 1.84403 0.661232 0
M  V30 5859 H 562.575 0.45094 -0.595535 0
M  V30 5860 H 565.237 0.535046 -1.87412 0
M  V30 5861 H 564.333 1.95783 -2.43054 0
M  V30 5862 N 564.634 1.40294 0.718013 0
M  V30 5863 C 565.911 1.2894 1.47084 0
M  V30 5864 C 566.291 -0.0933625 2.10893 0
M  V30 5865 O 565.639 -1.10598 1.99951 0
M  V30 5866 C 565.849 2.4264 2.50852 0
M  V30 5867 C 567.197 2.8276 3.16752 0
M  V30 5868 O 568.221 2.42215 2.61171 0
M  V30 5869 O 567.08 3.528 4.17366 0
M  V30 5870 H 564.174 0.506236 0.653952 0
M  V30 5871 H 566.72 1.52208 0.750394 0
M  V30 5872 H 565.492 3.35009 2.022 0
M  V30 5873 H 565.115 2.21129 3.30435 0
M  V30 5874 N 566.112 -0.949982 1.2575 0
M  V30 5875 C 567.062 -2.03297 1.03221 0
M  V30 5876 C 568.046 -1.60867 -0.0324751 0
M  V30 5877 O 569.238 -1.76047 0.183423 0
M  V30 5878 C 566.367 -3.36938 0.657841 0
M  V30 5879 C 565.453 -3.85878 1.75952 0
M  V30 5880 N 565.844 -4.0756 2.99547 0
M  V30 5881 C 564.142 -4.14709 1.64111 0
M  V30 5882 C 564.843 -4.47961 3.71087 0
M  V30 5883 N 563.819 -4.5416 2.98731 0
M  V30 5884 H 567.621 -2.1806 1.97045 0
M  V30 5885 H 565.135 -1.13516 1.16138 0
M  V30 5886 H 567.132 -4.14155 0.477614 0
M  V30 5887 H 565.792 -3.2355 -0.273025 0
M  V30 5888 H 566.803 -3.94501 3.35544 0
M  V30 5889 H 563.48 -4.10158 0.779527 0
M  V30 5890 H 564.87 -4.73002 4.77199 0
M  V30 5891 N 567.59 -1.07411 -1.15328 0
M  V30 5892 C 569.006 -0.799759 -1.38116 0
M  V30 5893 C 569.206 0.59572 -1.92493 0
M  V30 5894 O 568.262 1.35433 -2.13106 0
M  V30 5895 C 569.575 -1.87407 -2.35158 0
M  V30 5896 C 571.123 -1.89889 -2.48819 0
M  V30 5897 C 571.598 -2.96406 -3.49153 0
M  V30 5898 N 573.089 -2.95512 -3.56689 0
M  V30 5899 C 573.824 -3.74575 -4.34144 0
M  V30 5900 N 573.32 -4.63488 -5.14928 0
M  V30 5901 N 575.113 -3.62919 -4.29239 0
M  V30 5902 H 567.264 -1.97411 -0.78374 0
M  V30 5903 H 569.527 -0.856113 -0.407154 0
M  V30 5904 H 569.233 -2.8768 -2.0232 0
M  V30 5905 H 569.107 -1.73471 -3.34944 0
M  V30 5906 H 571.494 -0.902677 -2.80955 0
M  V30 5907 H 571.575 -2.07904 -1.49029 0
M  V30 5908 H 571.219 -3.96227 -3.17752 0
M  V30 5909 H 571.149 -2.75638 -4.48699 0
M  V30 5910 H 573.64 -2.31061 -2.99031 0
M  V30 5911 H 573.953 -5.20445 -5.71276 0
M  V30 5912 H 572.298 -4.67537 -5.14232 0
M  V30 5913 H 575.489 -2.92833 -3.65194 0
M  V30 5914 H 575.662 -4.24777 -4.89355 0
M  V30 5915 N 569.068 1.32177 -0.85831 0
M  V30 5916 C 570.317 1.96392 -0.459689 0
M  V30 5917 C 570.63 1.68659 0.990632 0
M  V30 5918 O 571.836 2.26641 1.49485 0
M  V30 5919 C 570.292 3.51542 -0.7711 0
M  V30 5920 C 569.9 3.8813 -2.2374 0
M  V30 5921 C 571.644 4.2221 -0.44038 0
M  V30 5922 C 569.551 5.36341 -2.49183 0
M  V30 5923 H 568.481 0.735007 -0.168169 0
M  V30 5924 H 571.132 1.50518 -1.0496 0
M  V30 5925 H 569.514 3.95846 -0.11058 0
M  V30 5926 H 570.688 3.54824 -2.94001 0
M  V30 5927 H 569.003 3.30497 -2.533 0
M  V30 5928 H 571.6 5.31234 -0.607855 0
M  V30 5929 H 571.943 4.11683 0.618291 0
M  V30 5930 H 572.476 3.83502 -1.05695 0
M  V30 5931 H 569.215 5.51892 -3.53689 0
M  V30 5932 H 568.735 5.7104 -1.83504 0
M  V30 5933 H 570.414 6.03466 -2.33318 0
M  V30 5934 N 570.547 0.616602 1.45037 0
M  V30 5935 C 571.795 0.115103 2.01772 0
M  V30 5936 C 572.116 -1.2622 1.48639 0
M  V30 5937 O 571.386 -1.83563 0.684199 0
M  V30 5938 H 569.966 0.0395607 0.745952 0
M  V30 5939 H 572.628 0.800032 1.77723 0
M  V30 5940 H 571.724 0.0717274 3.12018 0
M  V30 5941 N 572.025 -1.5352 0.356285 0
M  V30 5942 C 572.958 -2.2177 -0.537913 0
M  V30 5943 C 573.936 -1.20626 -1.09033 0
M  V30 5944 O 575.12 -1.49494 -1.1482 0
M  V30 5945 C 572.247 -2.90513 -1.74126 0
M  V30 5946 C 571.293 -4.05652 -1.31715 0
M  V30 5947 S 572.126 -5.34505 -0.326236 0
M  V30 5948 C 573.282 -6.06757 -1.53612 0
M  V30 5949 H 573.515 -2.97271 0.0417411 0
M  V30 5950 H 571.048 -1.53761 0.140372 0
M  V30 5951 H 573.006 -3.30735 -2.43155 0
M  V30 5952 H 571.667 -2.14754 -2.29215 0
M  V30 5953 H 570.86 -4.52733 -2.21471 0
M  V30 5954 H 570.462 -3.67272 -0.706183 0
M  V30 5955 H 572.754 -6.30924 -2.46863 0
M  V30 5956 H 573.697 -6.99395 -1.10687 0
M  V30 5957 H 574.105 -5.3708 -1.73796 0
M  V30 5958 N 573.503 -0.0852151 -1.57369 0
M  V30 5959 C 574.436 0.913608 -2.09113 0
M  V30 5960 C 575.414 1.28264 -0.999358 0
M  V30 5961 O 576.598 1.3896 -1.27367 0
M  V30 5962 C 573.725 2.21777 -2.55993 0
M  V30 5963 C 572.771 1.99932 -3.76735 0
M  V30 5964 S 573.604 1.24637 -5.20794 0
M  V30 5965 C 574.76 2.56304 -5.71016 0
M  V30 5966 H 574.993 0.473369 -2.93507 0
M  V30 5967 H 572.526 0.127856 -1.5387 0
M  V30 5968 H 574.484 2.96726 -2.83662 0
M  V30 5969 H 573.145 2.62923 -1.71843 0
M  V30 5970 H 572.338 2.96482 -4.07571 0
M  V30 5971 H 571.94 1.33116 -3.49509 0
M  V30 5972 H 574.232 3.5233 -5.78679 0
M  V30 5973 H 575.175 2.3006 -6.69685 0
M  V30 5974 H 575.583 2.64125 -4.98897 0
M  V30 5975 N 574.981 1.5647 0.188427 0
M  V30 5976 C 576.209 1.85131 0.923803 0
M  V30 5977 C 576.624 0.668537 1.76567 0
M  V30 5978 O 575.981 -0.362662 1.7886 0
M  V30 5979 C 576.032 3.12661 1.81453 0
M  V30 5980 O 575.753 4.26378 1.00665 0
M  V30 5981 C 577.254 3.54548 2.66103 0
M  V30 5982 H 574.474 0.614624 0.269218 0
M  V30 5983 H 577.018 2.03581 0.193671 0
M  V30 5984 H 575.173 2.96088 2.49821 0
M  V30 5985 H 575.587 4.99041 1.61425 0
M  V30 5986 H 577.061 4.4673 3.24247 0
M  V30 5987 H 577.538 2.77853 3.40139 0
M  V30 5988 H 578.144 3.73674 2.03096 0
M  V30 5989 N 576.459 -0.456382 1.50847 0
M  V30 5990 C 577.422 -1.53493 1.70213 0
M  V30 5991 C 578.422 -1.50264 0.572481 0
M  V30 5992 O 579.612 -1.52623 0.839751 0
M  V30 5993 C 576.744 -2.93091 1.741 0
M  V30 5994 H 577.937 -1.37633 2.66453 0
M  V30 5995 H 575.49 -0.683776 1.4055 0
M  V30 5996 H 576.225 -3.14378 0.796063 0
M  V30 5997 H 576.01 -2.9684 2.5618 0
M  V30 5998 H 577.5 -3.71368 1.90987 0
M  V30 5999 N 577.937 -1.40673 -0.710563 0
M  V30 6000 C 579.186 -1.38525 -1.46607 0
M  V30 6001 C 579.499 0.0077024 -1.95598 0
M  V30 6002 O 580.705 0.151792 -2.71075 0
M  V30 6003 C 579.161 -2.43489 -2.6503 0
M  V30 6004 C 578.769 -3.88619 -2.22888 0
M  V30 6005 C 580.513 -2.50456 -3.42742 0
M  V30 6006 C 578.42 -4.85168 -3.3818 0
M  V30 6007 H 577.35 -0.515092 -0.550632 0
M  V30 6008 H 580.001 -1.66431 -0.772846 0
M  V30 6009 H 578.383 -2.0869 -3.36548 0
M  V30 6010 H 579.557 -4.32588 -1.58758 0
M  V30 6011 H 577.872 -3.85174 -1.58208 0
M  V30 6012 H 580.469 -3.19776 -4.28541 0
M  V30 6013 H 580.812 -1.53665 -3.86902 0
M  V30 6014 H 581.345 -2.84271 -2.78271 0
M  V30 6015 H 578.084 -5.8331 -2.99047 0
M  V30 6016 H 577.604 -4.4586 -4.01209 0
M  V30 6017 H 579.283 -5.05225 -4.04174 0
M  V30 6018 N 579.415 0.9433 -1.26252 0
M  V30 6019 C 580.378 2.02326 -1.07689 0
M  V30 6020 C 581.378 1.60779 -0.0259174 0
M  V30 6021 O 582.568 1.72108 -0.269134 0
M  V30 6022 C 579.7 3.34886 -0.63752 0
M  V30 6023 H 580.893 2.20225 -2.0357 0
M  V30 6024 H 578.446 1.12197 -1.08819 0
M  V30 6025 H 579.181 3.22684 0.323377 0
M  V30 6026 H 578.966 3.66393 -1.39637 0
M  V30 6027 H 580.456 4.14231 -0.529418 0
M  V30 6028 N 580.893 1.08022 1.14757 0
M  V30 6029 C 581.856 0.71048 2.1791 0
M  V30 6030 C 582.856 -0.252731 1.58801 0
M  V30 6031 O 584.046 -0.0327915 1.74169 0
M  V30 6032 C 581.178 0.0483203 3.40866 0
M  V30 6033 H 582.371 1.62384 2.52134 0
M  V30 6034 H 579.924 0.877595 1.29337 0
M  V30 6035 H 580.659 -0.876959 3.12218 0
M  V30 6036 H 580.444 0.741189 3.85031 0
M  V30 6037 H 581.934 -0.195471 4.17142 0
M  V30 6038 N 582.371 -1.3172 0.865308 0
M  V30 6039 C 583.301 -2.31109 0.333302 0
M  V30 6040 C 584.282 -1.60148 -0.573301 0
M  V30 6041 O 585.467 -1.87882 -0.491305 0
M  V30 6042 C 582.597 -3.44104 -0.470078 0
M  V30 6043 C 581.551 -4.26623 0.343021 0
M  V30 6044 C 580.877 -5.31482 -0.585756 0
M  V30 6045 C 582.177 -4.98001 1.57456 0
M  V30 6046 H 583.871 -2.75855 1.1638 0
M  V30 6047 H 581.417 -1.3262 0.561069 0
M  V30 6048 H 583.37 -4.12682 -0.852752 0
M  V30 6049 H 582.094 -2.98112 -1.33404 0
M  V30 6050 H 580.753 -3.59707 0.707583 0
M  V30 6051 H 580.401 -4.81741 -1.44686 0
M  V30 6052 H 580.101 -5.87582 -0.0456494 0
M  V30 6053 H 581.625 -6.0292 -0.965375 0
M  V30 6054 H 583.039 -5.59201 1.26359 0
M  V30 6055 H 581.436 -5.63876 2.05339 0
M  V30 6056 H 582.506 -4.25253 2.32997 0
M  V30 6057 N 583.85 -0.624285 -1.44708 0
M  V30 6058 C 584.779 0.0717025 -2.3339 0
M  V30 6059 C 585.76 0.841814 -1.47809 0
M  V30 6060 O 586.946 0.809056 -1.76544 0
M  V30 6061 C 584.076 1.05852 -3.30776 0
M  V30 6062 C 583.029 0.400503 -4.26122 0
M  V30 6063 C 582.356 1.49674 -5.13324 0
M  V30 6064 C 583.656 -0.688924 -5.17737 0
M  V30 6065 H 585.35 -0.668819 -2.91834 0
M  V30 6066 H 582.896 -0.32308 -1.40329 0
M  V30 6067 H 584.849 1.5541 -3.91696 0
M  V30 6068 H 583.572 1.82984 -2.70526 0
M  V30 6069 H 582.231 -0.0743687 -3.66525 0
M  V30 6070 H 581.88 2.25877 -4.49431 0
M  V30 6071 H 581.58 1.06188 -5.77926 0
M  V30 6072 H 583.104 1.99427 -5.77115 0
M  V30 6073 H 584.518 -0.276724 -5.72632 0
M  V30 6074 H 582.915 -1.04652 -5.90904 0
M  V30 6075 H 583.985 -1.55884 -4.5916 0
M  V30 6076 N 585.328 1.53329 -0.364422 0
M  V30 6077 C 586.574 2.01537 0.225969 0
M  V30 6078 C 586.907 1.25128 1.48515 0
M  V30 6079 O 586.182 0.344653 1.91422 0
M  V30 6080 C 586.465 3.56339 0.519092 0
M  V30 6081 C 586.318 4.43441 -0.753639 0
M  V30 6082 C 587.637 4.19833 1.32015 0
M  V30 6083 H 584.756 0.732573 0.0806548 0
M  V30 6084 H 587.398 1.83597 -0.489084 0
M  V30 6085 H 585.548 3.71756 1.12825 0
M  V30 6086 H 587.22 4.39823 -1.39116 0
M  V30 6087 H 585.463 4.11457 -1.37424 0
M  V30 6088 H 586.134 5.49699 -0.503517 0
M  V30 6089 H 588.61 4.08242 0.804859 0
M  V30 6090 H 587.486 5.28177 1.49399 0
M  V30 6091 H 587.747 3.75821 2.32832 0
M  V30 6092 N 586.806 0.0935595 1.57322 0
M  V30 6093 C 587.769 -0.851426 2.12799 0
M  V30 6094 C 588.769 -1.21187 1.0569 0
M  V30 6095 O 589.959 -1.14156 1.31583 0
M  V30 6096 C 587.091 -2.14779 2.64731 0
M  V30 6097 H 588.284 -0.369733 2.97612 0
M  V30 6098 H 585.837 -0.155417 1.55525 0
M  V30 6099 H 586.572 -2.67437 1.83434 0
M  V30 6100 H 586.357 -1.89907 3.43042 0
M  V30 6101 H 587.847 -2.82383 3.07651 0
M  V30 6102 N 588.284 -1.56567 -0.180126 0
M  V30 6103 C 589.561 -1.7235 -0.924931 0
M  V30 6104 C 589.941 -0.652523 -2.00762 0
M  V30 6105 O 589.289 0.334115 -2.26044 0
M  V30 6106 C 589.499 -3.1523 -1.49771 0
M  V30 6107 C 590.847 -3.75921 -1.97405 0
M  V30 6108 O 591.871 -3.18452 -1.59583 0
M  V30 6109 O 590.73 -4.7681 -2.67048 0
M  V30 6110 H 587.824 -0.703502 -0.434758 0
M  V30 6111 H 590.37 -1.6886 -0.168647 0
M  V30 6112 H 589.142 -3.84656 -0.718027 0
M  V30 6113 H 588.765 -3.23009 -2.31842 0
M  V30 6114 N 589.762 0.448376 -1.51087 0
M  V30 6115 C 591.01 1.19635 -1.62886 0
M  V30 6116 C 591.331 1.91977 -0.342024 0
M  V30 6117 O 590.601 1.85094 0.641636 0
M  V30 6118 H 589.181 0.444598 -0.600285 0
M  V30 6119 H 591.843 0.515138 -1.87969 0
M  V30 6120 H 590.939 1.93194 -2.45117 0
M  V30 6121 N 591.24 1.41047 0.703093 0
M  V30 6122 C 592.15 1.44645 1.84703 0
M  V30 6123 C 593.166 0.337778 1.7069 0
M  V30 6124 O 594.342 0.584327 1.92737 0
M  V30 6125 C 591.407 1.31928 3.20618 0
M  V30 6126 C 590.468 2.53047 3.46794 0
M  V30 6127 C 589.701 2.40927 4.76224 0
M  V30 6128 O 589.924 1.42978 5.5219 0
M  V30 6129 O 588.858 3.30543 5.03016 0
M  V30 6130 H 592.684 2.41139 1.84624 0
M  V30 6131 H 590.269 1.22504 0.855167 0
M  V30 6132 H 592.151 1.27092 4.01778 0
M  V30 6133 H 590.826 0.385469 3.21397 0
M  V30 6134 H 589.733 2.6346 2.65593 0
M  V30 6135 H 591.066 3.45231 3.50822 0
M  V30 6136 N 592.718 -0.936591 1.26751 0
M  V30 6137 C 593.964 -1.6858 1.12733 0
M  V30 6138 C 594.297 -1.91414 -0.327745 0
M  V30 6139 O 593.572 -1.49812 -1.24043 0
M  V30 6140 C 593.855 -3.05779 1.90187 0
M  V30 6141 C 593.708 -2.90242 3.43627 0
M  V30 6142 C 595.027 -4.0597 1.69931 0
M  V30 6143 H 592.146 -0.61182 0.410908 0
M  V30 6144 H 594.788 -1.08747 1.55801 0
M  V30 6145 H 592.938 -3.56853 1.53584 0
M  V30 6146 H 594.61 -2.46354 3.9001 0
M  V30 6147 H 592.853 -2.2577 3.70419 0
M  V30 6148 H 593.524 -3.87572 3.93055 0
M  V30 6149 H 596 -3.63874 2.0183 0
M  V30 6150 H 594.876 -4.99974 2.26534 0
M  V30 6151 H 595.137 -4.37369 0.64502 0
M  V30 6152 N 594.196 -1.08629 -1.14182 0
M  V30 6153 C 595.106 -0.730126 -2.22949 0
M  V30 6154 C 596.122 0.26436 -1.7198 0
M  V30 6155 O 597.298 0.107742 -2.01112 0
M  V30 6156 C 594.363 -0.147227 -3.46387 0
M  V30 6157 C 593.424 -1.19662 -4.12286 0
M  V30 6158 C 592.657 -0.641437 -5.29831 0
M  V30 6159 O 592.88 0.538351 -5.67854 0
M  V30 6160 O 591.814 -1.39257 -5.85569 0
M  V30 6161 H 595.64 -1.63753 -2.55771 0
M  V30 6162 H 593.225 -0.860118 -1.22157 0
M  V30 6163 H 595.107 0.174923 -4.21037 0
M  V30 6164 H 593.782 0.733304 -3.15285 0
M  V30 6165 H 592.689 -1.57133 -3.395 0
M  V30 6166 H 594.022 -2.0495 -4.475 0
M  V30 6167 N 595.674 1.31259 -0.872281 0
M  V30 6168 C 596.604 2.30929 -0.345554 0
M  V30 6169 C 597.585 1.60449 0.5648 0
M  V30 6170 O 598.77 1.8814 0.481335 0
M  V30 6171 C 595.9 3.44348 0.451823 0
M  V30 6172 C 594.854 4.26435 -0.365641 0
M  V30 6173 C 594.18 5.31785 0.557562 0
M  V30 6174 C 595.48 4.97159 -1.60095 0
M  V30 6175 H 597.174 2.75234 -1.17841 0
M  V30 6176 H 594.72 1.3232 -0.568094 0
M  V30 6177 H 596.673 4.13128 0.830854 0
M  V30 6178 H 595.397 2.98816 1.31821 0
M  V30 6179 H 594.056 3.59326 -0.726649 0
M  V30 6180 H 593.704 4.82502 1.4213 0
M  V30 6181 H 593.404 5.87598 0.0144878 0
M  V30 6182 H 594.928 6.03424 0.933387 0
M  V30 6183 H 596.342 5.58523 -1.29323 0
M  V30 6184 H 594.739 5.62779 -2.08327 0
M  V30 6185 H 595.809 4.24012 -2.35249 0
M  V30 6186 N 597.152 0.631951 1.44375 0
M  V30 6187 C 598.429 0.067646 1.95483 0
M  V30 6188 C 598.809 -1.40683 1.57389 0
M  V30 6189 O 598.157 -2.12167 0.848375 0
M  V30 6190 C 598.367 0.291392 3.47781 0
M  V30 6191 C 599.715 0.185028 4.24197 0
M  V30 6192 O 600.739 0.222803 3.55503 0
M  V30 6193 O 599.598 0.0906642 5.46425 0
M  V30 6194 H 596.692 -0.0218379 0.826712 0
M  V30 6195 H 599.238 0.703711 1.54421 0
M  V30 6196 H 598.01 1.31449 3.68561 0
M  V30 6197 H 597.633 -0.378772 3.95792 0
M  V30 6198 N 598.631 -1.53133 0.372548 0
M  V30 6199 C 600.047 -1.59585 0.02178 0
M  V30 6200 C 600.247 -1.38736 -1.46132 0
M  V30 6201 O 599.303 -1.19599 -2.22379 0
M  V30 6202 C 600.616 -2.9678 0.483959 0
M  V30 6203 C 602.164 -3.09909 0.438775 0
M  V30 6204 C 602.639 -4.49527 0.876876 0
M  V30 6205 N 604.13 -4.55663 0.832214 0
M  V30 6206 C 604.865 -5.61896 1.14281 0
M  V30 6207 N 604.361 -6.75852 1.52303 0
M  V30 6208 N 606.154 -5.51916 1.06515 0
M  V30 6209 H 598.305 -1.64936 1.33827 0
M  V30 6210 H 600.568 -0.773947 0.547458 0
M  V30 6211 H 600.274 -3.17198 1.51915 0
M  V30 6212 H 600.148 -3.7699 -0.125784 0
M  V30 6213 H 602.535 -2.89197 -0.587294 0
M  V30 6214 H 602.616 -2.31691 1.0841 0
M  V30 6215 H 602.26 -4.70979 1.90109 0
M  V30 6216 H 602.19 -5.26186 0.208727 0
M  V30 6217 H 604.681 -3.73844 0.552195 0
M  V30 6218 H 604.994 -7.52862 1.7441 0
M  V30 6219 H 603.339 -6.77226 1.56175 0
M  V30 6220 H 606.53 -4.6177 0.767235 0
M  V30 6221 H 606.703 -6.34609 1.31053 0
M  V30 6222 N 600.109 -0.101901 -1.5727 0
M  V30 6223 C 601.072 0.840129 -2.13247 0
M  V30 6224 C 602.072 1.20625 -1.06331 0
M  V30 6225 O 603.262 1.13456 -1.32186 0
M  V30 6226 C 600.394 2.13372 -2.65867 0
M  V30 6227 H 601.587 0.353945 -2.97804 0
M  V30 6228 H 599.14 0.147167 -1.55606 0
M  V30 6229 H 599.875 2.66461 -1.84849 0
M  V30 6230 H 599.66 1.88085 -3.44044 0
M  V30 6231 H 601.15 2.80748 -3.09145 0
M  V30 6232 N 601.587 1.56661 0.17182 0
M  V30 6233 C 602.497 1.99604 1.2327 0
M  V30 6234 C 603.513 0.907333 1.4847 0
M  V30 6235 O 604.689 1.21492 1.60629 0
M  V30 6236 C 601.754 2.34685 2.55194 0
M  V30 6237 C 600.815 3.57381 2.3786 0
M  V30 6238 C 600.048 3.90779 3.63494 0
M  V30 6239 O 600.271 3.25152 4.6865 0
M  V30 6240 O 599.205 4.84129 3.57634 0
M  V30 6241 H 603.031 2.90114 0.898192 0
M  V30 6242 H 600.616 1.44522 0.378647 0
M  V30 6243 H 602.498 2.5822 3.33017 0
M  V30 6244 H 601.173 1.47336 2.88225 0
M  V30 6245 H 600.08 3.39064 1.5807 0
M  V30 6246 H 601.413 4.45268 2.09754 0
M  V30 6247 N 603.065 -0.440357 1.51323 0
M  V30 6248 C 604.028 -1.51679 1.71832 0
M  V30 6249 C 605.028 -1.49648 0.588386 0
M  V30 6250 O 606.218 -1.51724 0.855891 0
M  V30 6251 C 603.35 -2.91228 1.77199 0
M  V30 6252 H 604.543 -1.34799 2.67898 0
M  V30 6253 H 602.096 -0.66883 1.41267 0
M  V30 6254 H 602.831 -3.13516 0.829363 0
M  V30 6255 H 602.616 -2.94107 2.59314 0
M  V30 6256 H 604.106 -3.69321 1.94915 0
M  V30 6257 N 604.543 -1.41418 -0.695603 0
M  V30 6258 C 605.792 -1.40073 -1.4513 0
M  V30 6259 C 606.105 -0.0130439 -1.95596 0
M  V30 6260 O 607.311 0.123032 -2.71221 0
M  V30 6261 C 605.767 -2.46286 -2.62433 0
M  V30 6262 C 605.375 -3.90962 -2.18753 0
M  V30 6263 C 607.119 -2.54077 -3.40066 0
M  V30 6264 C 605.026 -4.88728 -3.33015 0
M  V30 6265 H 603.956 -0.520903 -0.545138 0
M  V30 6266 H 606.607 -1.67242 -0.75515 0
M  V30 6267 H 604.989 -2.12248 -3.34315 0
M  V30 6268 H 606.163 -4.34248 -1.54161 0
M  V30 6269 H 604.478 -3.86831 -1.54114 0
M  V30 6270 H 607.075 -3.24303 -4.25125 0
M  V30 6271 H 607.418 -1.5776 -3.8525 0
M  V30 6272 H 607.951 -2.87206 -2.75241 0
M  V30 6273 H 604.69 -5.86449 -2.92844 0
M  V30 6274 H 604.21 -4.50091 -3.96457 0
M  V30 6275 H 605.889 -5.09483 -3.98793 0
M  V30 6276 N 606.021 0.929856 -1.27246 0
M  V30 6277 C 606.969 2.05151 -1.09616 0
M  V30 6278 C 607.963 1.69388 -0.0198617 0
M  V30 6279 O 609.169 1.79124 -0.177417 0
M  V30 6280 H 605.544 0.671909 -0.337701 0
M  V30 6281 H 607.515 2.17168 -2.04648 0
M  V30 6282 C 606.264 3.3934 -0.757851 0
M  V30 6283 H 605.587 3.67343 -1.57795 0
M  V30 6284 H 607.027 4.18603 -0.674358 0
M  V30 6285 C 605.486 3.32582 0.537658 0
M  V30 6286 O 606.016 3.69633 1.57271 0
M  V30 6287 N 604.222 2.8568 0.532478 0
M  V30 6288 H 603.769 2.55725 -0.310233 0
M  V30 6289 H 603.727 2.81541 1.39936 0
M  V30 6290 N 607.499 1.09233 1.13605 0
M  V30 6291 C 608.727 0.848908 1.88683 0
M  V30 6292 C 609.142 -0.599667 1.79024 0
M  V30 6293 O 608.499 -1.41265 1.15544 0
M  V30 6294 C 608.55 1.27273 3.38355 0
M  V30 6295 O 608.271 2.66449 3.47759 0
M  V30 6296 C 609.772 1.0614 4.30406 0
M  V30 6297 H 606.992 0.305549 0.597395 0
M  V30 6298 H 609.536 1.4538 1.43823 0
M  V30 6299 H 607.691 0.711776 3.80805 0
M  V30 6300 H 608.105 2.84264 4.40788 0
M  V30 6301 H 609.579 1.40725 5.33761 0
M  V30 6302 H 610.056 -0.000960332 4.392 0
M  V30 6303 H 610.662 1.60821 3.93722 0
M  V30 6304 N 608.977 -1.30795 0.87923 0
M  V30 6305 C 610.202 -2.01063 0.508769 0
M  V30 6306 C 610.627 -1.65508 -0.893803 0
M  V30 6307 O 609.985 -0.868616 -1.59138 0
M  V30 6308 C 610.033 -3.54054 0.683991 0
M  V30 6309 O 609.137 -4.11498 -0.272654 0
M  V30 6310 H 608.478 -0.632786 0.201191 0
M  V30 6311 H 611.008 -1.66776 1.18519 0
M  V30 6312 H 611.018 -4.03845 0.580798 0
M  V30 6313 H 609.693 -3.79271 1.70665 0
M  V30 6314 H 608.27 -3.72695 -0.12364 0
M  V30 6315 N 610.455 -0.639598 -1.44038 0
M  V30 6316 C 611.685 -0.154586 -2.06021 0
M  V30 6317 C 612.093 1.17951 -1.47933 0
M  V30 6318 O 611.436 1.73627 -0.59994 0
M  V30 6319 C 611.498 0.0255459 -3.59491 0
M  V30 6320 C 611.162 -1.2317 -4.40089 0
M  V30 6321 C 612.159 -2.15735 -4.73027 0
M  V30 6322 C 609.844 -1.46949 -4.80324 0
M  V30 6323 C 611.838 -3.30382 -5.45093 0
M  V30 6324 C 609.525 -2.61891 -5.52138 0
M  V30 6325 C 610.523 -3.53433 -5.84443 0
M  V30 6326 O 610.211 -4.6637 -6.54793 0
M  V30 6327 H 609.943 -0.0808543 -0.671147 0
M  V30 6328 H 612.497 -0.876541 -1.85758 0
M  V30 6329 H 610.727 0.802733 -3.78276 0
M  V30 6330 H 612.416 0.466184 -4.03214 0
M  V30 6331 H 613.182 -1.98602 -4.42473 0
M  V30 6332 H 609.061 -0.765815 -4.54595 0
M  V30 6333 H 612.605 -4.01856 -5.70226 0
M  V30 6334 H 608.502 -2.78964 -5.82108 0
M  V30 6335 H 609.27 -4.6546 -6.73267 0
M  V30 6336 N 611.933 1.52934 -0.380664 0
M  V30 6337 C 613.344 1.86457 0.0952684 0
M  V30 6338 C 613.695 1.3007 1.46889 0
M  V30 6339 O 612.82 0.628636 2.07068 0
M  V30 6340 C 613.415 3.38323 0.179648 0
M  V30 6341 C 611.974 3.71589 0.599858 0
M  V30 6342 C 611.121 2.76228 -0.243572 0
M  V30 6343 H 614.072 1.46966 -0.59888 0
M  V30 6344 H 614.093 3.67113 1.00042 0
M  V30 6345 H 613.605 3.79333 -0.820228 0
M  V30 6346 H 611.706 3.36144 1.60742 0
M  V30 6347 H 611.819 4.77715 0.364003 0
M  V30 6348 H 610.183 2.53045 0.289855 0
M  V30 6349 H 610.966 3.20074 -1.24127 0
M  V30 6350 N 613.412 0.11024 1.57214 0
M  V30 6351 C 614.637 -0.561179 1.99664 0
M  V30 6352 C 615.062 -1.59985 0.989266 0
M  V30 6353 O 614.42 -1.81255 -0.0402399 0
M  V30 6354 C 614.468 -1.17189 3.41027 0
M  V30 6355 O 613.572 -2.28755 3.4314 0
M  V30 6356 H 612.913 -0.14101 0.648855 0
M  V30 6357 H 615.443 0.196128 2.03658 0
M  V30 6358 H 615.453 -1.50954 3.79047 0
M  V30 6359 H 614.128 -0.411041 4.13864 0
M  V30 6360 H 612.705 -1.96495 3.16929 0
M  V30 6361 N 614.89 -1.56749 -0.16351 0
M  V30 6362 C 616.137 -1.82434 -0.878866 0
M  V30 6363 C 616.465 -0.688557 -1.81904 0
M  V30 6364 O 615.72 0.323644 -1.93005 0
M  V30 6365 C 616.019 -3.14342 -1.70071 0
M  V30 6366 C 615.685 -4.41647 -0.908775 0
M  V30 6367 C 614.347 -4.76224 -0.690236 0
M  V30 6368 C 616.699 -5.19998 -0.353815 0
M  V30 6369 C 614.027 -5.86624 0.0942374 0
M  V30 6370 C 616.379 -6.3122 0.41761 0
M  V30 6371 C 615.043 -6.64358 0.646879 0
M  V30 6372 H 614.313 -0.667574 -0.3216 0
M  V30 6373 H 616.96 -1.90963 -0.14337 0
M  V30 6374 H 615.265 -3.0119 -2.50583 0
M  V30 6375 H 616.962 -3.31426 -2.25738 0
M  V30 6376 H 613.552 -4.1453 -1.08916 0
M  V30 6377 H 617.736 -4.93673 -0.509975 0
M  V30 6378 H 612.992 -6.10751 0.281529 0
M  V30 6379 H 617.166 -6.91133 0.854849 0
M  V30 6380 H 614.793 -7.49742 1.25662 0
M  V30 6381 N 616.368 0.432326 -1.51554 0
M  V30 6382 C 617.615 1.18134 -1.64471 0
M  V30 6383 C 617.943 1.91076 -0.363349 0
M  V30 6384 O 617.198 1.84492 0.65279 0
M  V30 6385 C 617.497 2.21907 -2.80164 0
M  V30 6386 C 617.163 1.65941 -4.19255 0
M  V30 6387 C 615.825 1.50401 -4.57092 0
M  V30 6388 C 618.177 1.24843 -5.06027 0
M  V30 6389 C 615.505 0.922443 -5.79403 0
M  V30 6390 C 617.857 0.68113 -6.28922 0
M  V30 6391 C 616.521 0.512673 -6.65528 0
M  V30 6392 H 615.791 0.432283 -0.601841 0
M  V30 6393 H 618.438 0.471701 -1.856 0
M  V30 6394 H 616.743 2.98928 -2.53277 0
M  V30 6395 H 618.44 2.79691 -2.87357 0
M  V30 6396 H 615.03 1.79014 -3.89425 0
M  V30 6397 H 619.214 1.35667 -4.77397 0
M  V30 6398 H 614.47 0.779733 -6.06408 0
M  V30 6399 H 618.644 0.35418 -6.95499 0
M  V30 6400 H 616.271 0.0599084 -7.60176 0
M  V30 6401 N 617.846 1.41785 0.688094 0
M  V30 6402 C 619.123 1.32031 1.44316 0
M  V30 6403 C 619.503 -0.0486079 2.11044 0
M  V30 6404 O 618.851 -1.06332 2.02252 0
M  V30 6405 C 619.061 2.47906 2.45649 0
M  V30 6406 C 620.409 2.89415 3.10683 0
M  V30 6407 O 621.433 2.477 2.55975 0
M  V30 6408 O 620.292 3.61573 4.09789 0
M  V30 6409 H 617.386 0.519994 0.643067 0
M  V30 6410 H 619.932 1.53765 0.71794 0
M  V30 6411 H 618.704 3.39222 1.95048 0
M  V30 6412 H 618.327 2.28089 3.25671 0
M  V30 6413 N 619.324 -0.923095 1.27737 0
M  V30 6414 C 620.601 -1.64989 1.05062 0
M  V30 6415 C 620.981 -2.07018 -0.413124 0
M  V30 6416 O 620.329 -1.80797 -1.39731 0
M  V30 6417 C 620.539 -2.84847 2.01652 0
M  V30 6418 C 621.887 -3.56083 2.31279 0
M  V30 6419 O 622.911 -2.94981 1.99662 0
M  V30 6420 O 621.77 -4.66182 2.85196 0
M  V30 6421 H 618.864 -0.723357 0.400853 0
M  V30 6422 H 621.41 -0.973224 1.3902 0
M  V30 6423 H 620.182 -2.50814 3.00347 0
M  V30 6424 H 619.805 -3.60231 1.68284 0
M  V30 6425 N 620.802 -1.09834 -1.13024 0
M  V30 6426 C 621.732 -0.763451 -2.20666 0
M  V30 6427 C 622.713 0.260778 -1.68089 0
M  V30 6428 O 623.898 0.127915 -1.93778 0
M  V30 6429 C 621.028 -0.187744 -3.46792 0
M  V30 6430 C 619.982 -1.14196 -4.12484 0
M  V30 6431 C 619.308 -0.427755 -5.32986 0
M  V30 6432 C 620.608 -2.48607 -4.59338 0
M  V30 6433 H 622.302 -1.66347 -2.48936 0
M  V30 6434 H 619.848 -0.801261 -1.19649 0
M  V30 6435 H 621.801 0.0586375 -4.21359 0
M  V30 6436 H 620.525 0.747485 -3.17931 0
M  V30 6437 H 619.184 -1.37369 -3.3989 0
M  V30 6438 H 618.832 0.511747 -5.0039 0
M  V30 6439 H 618.532 -1.06403 -5.77886 0
M  V30 6440 H 620.056 -0.189772 -6.10305 0
M  V30 6441 H 621.47 -2.29618 -5.25308 0
M  V30 6442 H 619.867 -3.08062 -5.14993 0
M  V30 6443 H 620.937 -3.09062 -3.73642 0
M  V30 6444 N 622.28 1.30327 -0.886154 0
M  V30 6445 C 623.19 2.31854 -0.357866 0
M  V30 6446 C 624.206 1.65392 0.540502 0
M  V30 6447 O 625.382 1.96683 0.433339 0
M  V30 6448 C 622.447 3.44171 0.417999 0
M  V30 6449 C 621.508 4.26257 -0.510263 0
M  V30 6450 C 620.741 5.3321 0.228669 0
M  V30 6451 O 620.964 5.51542 1.45458 0
M  V30 6452 O 619.898 6.0042 -0.421832 0
M  V30 6453 H 623.724 2.78995 -1.19982 0
M  V30 6454 H 621.309 1.34518 -0.650028 0
M  V30 6455 H 623.191 4.12588 0.857251 0
M  V30 6456 H 621.866 2.99164 1.23623 0
M  V30 6457 H 620.773 3.60533 -0.99835 0
M  V30 6458 H 622.106 4.74871 -1.29454 0
M  V30 6459 N 623.758 0.647228 1.43697 0
M  V30 6460 C 624.983 0.164083 2.0675 0
M  V30 6461 C 625.408 -1.15892 1.48158 0
M  V30 6462 O 624.766 -1.71459 0.589194 0
M  V30 6463 C 624.814 0.0800368 3.60511 0
M  V30 6464 O 623.918 -0.959453 4.01084 0
M  V30 6465 H 623.259 0.0921288 0.657578 0
M  V30 6466 H 625.789 0.88846 1.84303 0
M  V30 6467 H 625.799 -0.105263 4.07864 0
M  V30 6468 H 624.474 1.04586 4.02535 0
M  V30 6469 H 623.051 -0.747425 3.65333 0
M  V30 6470 N 625.236 -1.5273 0.388769 0
M  V30 6471 C 626.166 -2.29353 -0.438111 0
M  V30 6472 C 627.147 -1.32719 -1.06394 0
M  V30 6473 O 628.332 -1.61612 -1.07681 0
M  V30 6474 C 625.462 -3.09995 -1.56589 0
M  V30 6475 C 624.416 -4.14509 -1.06613 0
M  V30 6476 C 623.742 -4.83372 -2.28594 0
M  V30 6477 C 625.042 -5.22127 -0.134459 0
M  V30 6478 H 626.736 -2.98723 0.201206 0
M  V30 6479 H 624.282 -1.43665 0.0982089 0
M  V30 6480 H 626.235 -3.62357 -2.15118 0
M  V30 6481 H 624.959 -2.38357 -2.23279 0
M  V30 6482 H 623.618 -3.63128 -0.503383 0
M  V30 6483 H 623.266 -4.08283 -2.93792 0
M  V30 6484 H 622.966 -5.54012 -1.95817 0
M  V30 6485 H 624.49 -5.38538 -2.87766 0
M  V30 6486 H 625.904 -5.69851 -0.627914 0
M  V30 6487 H 624.301 -6.00011 0.103534 0
M  V30 6488 H 625.371 -4.77971 0.816798 0
M  V30 6489 N 626.714 -0.118576 -1.57153 0
M  V30 6490 C 627.963 0.539339 -1.94355 0
M  V30 6491 C 628.276 1.67858 -1.00415 0
M  V30 6492 O 629.482 2.39922 -1.27081 0
M  V30 6493 C 627.938 1.01082 -3.45414 0
M  V30 6494 C 627.546 -0.0999402 -4.47889 0
M  V30 6495 C 629.29 1.64013 -3.91535 0
M  V30 6496 C 627.197 0.388212 -5.90124 0
M  V30 6497 H 626.127 0.205247 -0.725527 0
M  V30 6498 H 628.778 -0.19836 -1.82425 0
M  V30 6499 H 627.16 1.80292 -3.52577 0
M  V30 6500 H 628.334 -0.876189 -4.52393 0
M  V30 6501 H 626.649 -0.635885 -4.11516 0
M  V30 6502 H 629.246 2.01649 -4.95219 0
M  V30 6503 H 629.589 2.51836 -3.31488 0
M  V30 6504 H 630.122 0.913439 -3.87171 0
M  V30 6505 H 626.861 -0.453963 -6.53926 0
M  V30 6506 H 626.381 1.13095 -5.89041 0
M  V30 6507 H 628.06 0.849574 -6.41398 0
M  V30 6508 N 628.193 1.56834 0.155195 0
M  V30 6509 C 629.143 1.94061 1.19684 0
M  V30 6510 C 630.127 0.810851 1.38975 0
M  V30 6511 O 631.319 1.07422 1.40675 0
M  V30 6512 C 628.448 2.31778 2.53247 0
M  V30 6513 C 627.534 3.51305 2.37583 0
M  V30 6514 N 627.925 4.68081 1.9166 0
M  V30 6515 C 626.223 3.56228 2.6836 0
M  V30 6516 C 626.924 5.50193 1.88845 0
M  V30 6517 N 625.9 4.91676 2.31852 0
M  V30 6518 H 629.702 2.81826 0.833747 0
M  V30 6519 H 627.216 1.58284 0.363328 0
M  V30 6520 H 629.213 2.56649 3.28538 0
M  V30 6521 H 627.873 1.4536 2.90346 0
M  V30 6522 H 628.884 4.91993 1.6175 0
M  V30 6523 H 625.561 2.8033 3.09389 0
M  V30 6524 H 626.951 6.53801 1.54901 0
M  V30 6525 N 629.671 -0.424282 1.51781 0
M  V30 6526 C 630.919 -1.17028 1.64769 0
M  V30 6527 C 631.24 -1.91409 0.372523 0
M  V30 6528 O 630.51 -1.86091 -0.612108 0
M  V30 6529 H 629.09 -0.434992 0.607282 0
M  V30 6530 H 631.752 -0.485169 1.88765 0
M  V30 6531 H 630.848 -1.8927 2.4816 0
M  V30 6532 O 631.188 -1.51103 -0.570103 0
M  V30 6533 H 631.879 -1.50032 -1.22516 0
M  V30 END ATOM
M  V30 BEGIN BOND
M  V30 END BOND
M  V30 END CTAB
M  END
$$$$
