drugbank_target|P34741 Syndecan-2 (DB00020)
 OpenBabel12092120063D

  0  0  0     0  0            999 V3000
M  V30 BEGIN CTAB
M  V30 COUNTS 3103 3129 0 0 0
M  V30 BEGIN ATOM
M  V30 1 H -0.908 1.98254 -0.117106 0
M  V30 2 N 0 1.576 0 0
M  V30 3 C 0.933 2.03868 1.02534 0
M  V30 4 C 1.911 0.928543 1.3348 0
M  V30 5 O 3.095 1.19667 1.45644 0
M  V30 6 C 0.222 2.43627 2.35294 0
M  V30 7 C -0.732 3.65373 2.2001 0
M  V30 8 S 0.101 5.13292 1.52614 0
M  V30 9 C 1.257 5.56322 2.86805 0
M  V30 10 H 1.49 2.90518 0.631377 0
M  V30 11 H -0.977 1.52953 0.210867 0
M  V30 12 H 0.981 2.67203 3.11629 0
M  V30 13 H -0.358 1.57376 2.7183 0
M  V30 14 H -1.165 3.90944 3.18086 0
M  V30 15 H -1.563 3.418 1.51819 0
M  V30 16 H 0.729 5.58782 3.83104 0
M  V30 17 H 1.672 6.56266 2.65933 0
M  V30 18 H 2.08 4.83886 2.90714 0
M  V30 19 N 1.4781 -0.272755 1.55222 0
M  V30 20 C 2.8941 -0.619959 1.47067 0
M  V30 21 C 3.0941 -1.895 0.684978 0
M  V30 22 O 2.1501 -2.51675 0.203931 0
M  V30 23 C 3.4631 -0.746693 2.91282 0
M  V30 24 C 5.0111 -0.840731 3.01497 0
M  V30 25 C 5.4861 -0.99924 4.46967 0
M  V30 26 N 6.9771 -1.06476 4.50796 0
M  V30 27 C 7.7121 -1.20621 5.6057 0
M  V30 28 N 7.2081 -1.31483 6.80209 0
M  V30 29 N 9.0011 -1.23733 5.48312 0
M  V30 30 H 1.1521 0.564606 2.04758 0
M  V30 31 H 3.4151 0.191177 0.928523 0
M  V30 32 H 3.1211 0.119753 3.51496 0
M  V30 33 H 2.9951 -1.6269 3.40311 0
M  V30 34 H 5.3821 -1.69764 2.41379 0
M  V30 35 H 5.4631 0.0640874 2.5572 0
M  V30 36 H 5.1071 -0.146984 5.07687 0
M  V30 37 H 5.0371 -1.91871 4.90401 0
M  V30 38 H 7.5281 -0.993196 3.64615 0
M  V30 39 H 7.8411 -1.42111 7.59621 0
M  V30 40 H 6.1861 -1.28487 6.8302 0
M  V30 41 H 9.3771 -1.14877 4.53785 0
M  V30 42 H 9.5501 -1.34412 6.33906 0
M  V30 43 N 2.9562 -1.48159 -0.537278 0
M  V30 44 C 4.3722 -1.34118 -0.865129 0
M  V30 45 C 4.5722 -0.346678 -1.98495 0
M  V30 46 O 3.6282 0.234715 -2.51407 0
M  V30 47 C 4.9412 -2.73963 -1.23954 0
M  V30 48 C 6.4892 -2.82397 -1.34984 0
M  V30 49 C 6.9642 -4.22928 -1.75772 0
M  V30 50 N 8.4552 -4.25566 -1.82887 0
M  V30 51 C 9.1902 -5.31235 -2.15817 0
M  V30 52 N 8.6862 -6.47189 -2.47222 0
M  V30 53 N 10.4792 -5.18624 -2.16761 0
M  V30 54 H 2.6302 -2.1144 0.201715 0
M  V30 55 H 4.8932 -0.947598 0.0275949 0
M  V30 56 H 4.5992 -3.48264 -0.490381 0
M  V30 57 H 4.4732 -3.0702 -2.19132 0
M  V30 58 H 6.8602 -2.08356 -2.08978 0
M  V30 59 H 6.9412 -2.5297 -0.379448 0
M  V30 60 H 6.5852 -4.97482 -1.02341 0
M  V30 61 H 6.5152 -4.49794 -2.73848 0
M  V30 62 H 9.0062 -3.41924 -1.60924 0
M  V30 63 H 9.3192 -7.23564 -2.71433 0
M  V30 64 H 7.6642 -6.50476 -2.44757 0
M  V30 65 H 10.8552 -4.27056 -1.91679 0
M  V30 66 H 11.0282 -6.01078 -2.42093 0
M  V30 67 N 4.4343 0.785586 -1.36625 0
M  V30 68 C 5.3973 1.87999 -1.31107 0
M  V30 69 C 6.3973 1.59316 -0.217959 0
M  V30 70 O 7.5873 1.67656 -0.472977 0
M  V30 71 C 4.7193 3.24861 -1.03334 0
M  V30 72 H 5.9123 1.94307 -2.2844 0
M  V30 73 H 3.4653 0.983813 -1.21453 0
M  V30 74 H 4.2003 3.24235 -0.0647432 0
M  V30 75 H 3.9853 3.4707 -1.82441 0
M  V30 76 H 5.4753 4.04929 -1.02088 0
M  V30 77 N 5.9124 1.20967 1.01018 0
M  V30 78 C 7.1584 1.0353 1.7508 0
M  V30 79 C 7.5134 -0.42734 1.87594 0
M  V30 80 O 6.8064 -1.31298 1.3954 0
M  V30 81 C 7.0004 1.65997 3.16512 0
M  V30 82 C 6.8294 3.18184 3.17788 0
M  V30 83 C 5.5994 3.87198 3.24662 0
M  V30 84 C 7.7974 4.15334 3.03319 0
M  V30 85 N 5.7794 5.26618 3.15509 0
M  V30 86 C 7.1504 5.41472 3.02007 0
M  V30 87 C 9.2054 4.06449 2.87583 0
M  V30 88 C 7.9084 6.5975 2.86571 0
M  V30 89 C 9.9344 5.24357 2.73503 0
M  V30 90 C 9.2964 6.49404 2.72862 0
M  V30 91 H 5.3954 0.433137 0.651089 0
M  V30 92 H 7.9794 1.5324 1.20107 0
M  V30 93 H 6.1504 1.18863 3.69765 0
M  V30 94 H 7.8824 1.41816 3.79039 0
M  V30 95 H 4.6374 3.38093 3.31648 0
M  V30 96 H 5.0614 5.99626 3.14289 0
M  V30 97 H 9.7034 3.10573 2.86887 0
M  V30 98 H 7.4214 7.55792 2.86015 0
M  V30 99 H 11.0074 5.19299 2.62334 0
M  V30 100 H 9.8874 7.39105 2.62093 0
M  V30 101 N 7.3905 -1.2043 1.01659 0
M  V30 102 C 8.6395 -1.89118 0.701237 0
M  V30 103 C 8.9525 -1.79705 -0.772358 0
M  V30 104 O 10.1585 -2.43528 -1.20026 0
M  V30 105 C 8.6145 -3.39168 1.20388 0
M  V30 106 C 8.2225 -3.57166 2.70438 0
M  V30 107 C 9.9665 -4.1341 0.963953 0
M  V30 108 C 7.8735 -5.01042 3.14183 0
M  V30 109 H 6.8035 -0.708267 0.2586 0
M  V30 110 H 9.4545 -1.36239 1.22927 0
M  V30 111 H 7.8365 -3.91369 0.603824 0
M  V30 112 H 9.0105 -3.15351 3.35992 0
M  V30 113 H 7.3255 -2.96294 2.92572 0
M  V30 114 H 9.9225 -5.19491 1.26621 0
M  V30 115 H 10.2655 -4.16181 -0.099578 0
M  V30 116 H 10.7985 -3.67309 1.52738 0
M  V30 117 H 7.5375 -5.03426 4.19812 0
M  V30 118 H 7.0575 -5.43668 2.53348 0
M  V30 119 H 8.7365 -5.69623 3.0682 0
M  V30 120 N 8.8686 -0.792821 -1.36206 0
M  V30 121 C 9.7986 -0.207853 -2.32573 0
M  V30 122 C 10.7796 0.659055 -1.56813 0
M  V30 123 O 11.9646 0.592176 -1.84951 0
M  V30 124 C 9.0946 0.655449 -3.41059 0
M  V30 125 C 8.0486 -0.111842 -4.27854 0
M  V30 126 C 7.3746 0.872274 -5.27537 0
M  V30 127 C 8.6746 -1.30299 -5.05786 0
M  V30 128 H 10.3686 -1.01294 -2.81744 0
M  V30 129 H 7.9146 -0.48854 -1.3546 0
M  V30 130 H 9.8676 1.07464 -4.07467 0
M  V30 131 H 8.5916 1.49328 -2.90463 0
M  V30 132 H 7.2506 -0.512053 -3.63006 0
M  V30 133 H 6.8986 1.70523 -4.73214 0
M  V30 134 H 6.5986 0.363291 -5.86476 0
M  V30 135 H 8.1226 1.28996 -5.96818 0
M  V30 136 H 9.5366 -0.959379 -5.65216 0
M  V30 137 H 7.9336 -1.7455 -5.74154 0
M  V30 138 H 9.0036 -2.09663 -4.37229 0
M  V30 139 N 10.3467 1.47872 -0.545128 0
M  V30 140 C 11.2767 2.32661 0.197793 0
M  V30 141 C 12.2577 1.43041 0.920504 0
M  V30 142 O 13.4427 1.71912 0.90333 0
M  V30 143 C 10.5727 3.24569 1.23582 0
M  V30 144 C 9.5267 4.23333 0.630323 0
M  V30 145 C 8.8527 5.0448 1.77211 0
M  V30 146 C 10.1527 5.20704 -0.407974 0
M  V30 147 H 11.8467 2.95024 -0.510045 0
M  V30 148 H 9.3927 1.4187 -0.246731 0
M  V30 149 H 11.3457 3.8272 1.76362 0
M  V30 150 H 10.0697 2.60236 1.97344 0
M  V30 151 H 8.7287 3.6639 0.123922 0
M  V30 152 H 8.3767 4.36561 2.49847 0
M  V30 153 H 8.0767 5.71339 1.37281 0
M  V30 154 H 9.6007 5.65487 2.3034 0
M  V30 155 H 11.0147 5.7329 0.033305 0
M  V30 156 H 9.4117 5.95699 -0.725486 0
M  V30 157 H 10.4817 4.66917 -1.30828 0
M  V30 158 N 11.8248 0.280983 1.55075 0
M  V30 159 C 13.0528 -0.337293 2.04132 0
M  V30 160 C 13.4678 -1.4903 1.15912 0
M  V30 161 O 12.8248 -1.81606 0.180459 0
M  V30 162 C 12.8758 -0.812706 3.52246 0
M  V30 163 O 12.5968 0.294387 4.3711 0
M  V30 164 C 14.0978 -1.4982 4.17216 0
M  V30 165 H 11.3178 -0.0761638 0.666663 0
M  V30 166 H 13.8618 0.414787 2.00249 0
M  V30 167 H 12.0168 -1.51486 3.56554 0
M  V30 168 H 12.4308 -0.0721325 5.2445 0
M  V30 169 H 13.9048 -1.7822 5.22438 0
M  V30 170 H 14.3818 -2.43168 3.65741 0
M  V30 171 H 14.9878 -0.839742 4.16927 0
M  V30 172 N 13.3029 -1.57598 0.00835791 0
M  V30 173 C 14.2329 -2.1198 -0.979113 0
M  V30 174 C 15.2139 -1.03091 -1.35301 0
M  V30 175 O 16.3989 -1.30818 -1.43528 0
M  V30 176 C 13.5289 -2.62995 -2.26828 0
M  V30 177 C 12.4829 -3.76485 -2.03576 0
M  V30 178 C 11.8089 -4.13846 -3.38579 0
M  V30 179 C 13.1089 -5.0342 -1.39161 0
M  V30 180 H 14.8029 -2.94738 -0.526281 0
M  V30 181 H 12.3489 -1.41783 -0.251704 0
M  V30 182 H 14.3019 -2.99669 -2.96271 0
M  V30 183 H 13.0259 -1.7737 -2.7424 0
M  V30 184 H 11.6849 -3.40217 -1.36557 0
M  V30 185 H 11.3329 -3.25232 -3.83709 0
M  V30 186 H 11.0329 -4.90312 -3.23834 0
M  V30 187 H 12.5569 -4.53086 -4.09323 0
M  V30 188 H 13.9709 -5.37812 -1.98573 0
M  V30 189 H 12.3679 -5.84746 -1.34878 0
M  V30 190 H 13.4379 -4.83548 -0.361868 0
M  V30 191 N 14.781 0.264519 -1.55364 0
M  V30 192 C 16.029 0.993021 -1.76021 0
M  V30 193 C 16.35 1.86511 -0.569099 0
M  V30 194 O 15.62 1.91438 0.415735 0
M  V30 195 H 14.2 0.369639 -0.649135 0
M  V30 196 H 16.862 0.286707 -1.9278 0
M  V30 197 H 15.958 1.62502 -2.66457 0
M  V30 198 N 16.2591 1.48442 0.529413 0
M  V30 199 C 17.1891 1.65902 1.64313 0
M  V30 200 C 18.1701 0.507897 1.6234 0
M  V30 201 O 19.3551 0.740503 1.79528 0
M  V30 202 C 16.4851 1.69911 3.02898 0
M  V30 203 C 15.4391 2.8453 3.19729 0
M  V30 204 C 14.7651 2.73629 4.59381 0
M  V30 205 C 16.0651 4.25821 3.02447 0
M  V30 206 H 17.7591 2.5914 1.49955 0
M  V30 207 H 15.3051 1.24709 0.719982 0
M  V30 208 H 17.2581 1.80715 3.80684 0
M  V30 209 H 15.9821 0.732524 3.18279 0
M  V30 210 H 14.6411 2.73283 2.44361 0
M  V30 211 H 14.2891 1.74938 4.71599 0
M  V30 212 H 13.9891 3.50541 4.71588 0
M  V30 213 H 15.5131 2.86401 5.39265 0
M  V30 214 H 16.9271 4.37898 3.70024 0
M  V30 215 H 15.3241 5.03735 3.26146 0
M  V30 216 H 16.3941 4.42244 1.98867 0
M  V30 217 N 17.7372 -0.778329 1.37039 0
M  V30 218 C 18.9832 -1.53892 1.32079 0
M  V30 219 C 19.3162 -1.9396 -0.0965386 0
M  V30 220 O 18.5912 -1.63568 -1.05242 0
M  V30 221 C 18.8742 -2.80847 2.25382 0
M  V30 222 C 18.7272 -2.47076 3.75864 0
M  V30 223 C 20.0462 -3.82741 2.1725 0
M  V30 224 H 17.1652 -0.558303 0.48111 0
M  V30 225 H 19.8072 -0.893397 1.67685 0
M  V30 226 H 17.9572 -3.35931 1.95148 0
M  V30 227 H 19.6292 -1.97957 4.16666 0
M  V30 228 H 17.8722 -1.79863 3.94755 0
M  V30 229 H 18.5432 -3.37798 4.36574 0
M  V30 230 H 21.0192 -3.37133 2.43887 0
M  V30 231 H 19.8952 -4.69303 2.84686 0
M  V30 232 H 20.1562 -4.2652 1.16331 0
M  V30 233 N 19.2153 -1.21501 -1.00376 0
M  V30 234 C 20.1783 -0.976927 -2.07337 0
M  V30 235 C 21.1783 0.0525322 -1.60714 0
M  V30 236 O 22.3683 -0.184869 -1.73216 0
M  V30 237 C 19.5003 -0.473423 -3.37597 0
M  V30 238 H 20.6933 -1.92587 -2.29892 0
M  V30 239 H 18.2463 -1.03217 -1.17371 0
M  V30 240 H 18.9813 0.480379 -3.20722 0
M  V30 241 H 18.7663 -1.216 -3.72768 0
M  V30 242 H 20.2563 -0.32675 -4.1632 0
M  V30 243 N 20.6934 1.19889 -1.02296 0
M  V30 244 C 21.9334 1.91125 -0.724602 0
M  V30 245 C 22.2974 1.77464 0.732835 0
M  V30 246 O 23.4984 2.43241 1.144 0
M  V30 247 C 21.7694 3.38187 -1.15604 0
M  V30 248 S 23.3284 4.27702 -0.980621 0
M  V30 249 H 20.1464 0.66018 -0.263976 0
M  V30 250 H 22.7484 1.44978 -1.31155 0
M  V30 251 H 21.4524 3.45653 -2.21251 0
M  V30 252 H 20.9834 3.89363 -0.562131 0
M  V30 253 H 22.9984 4.96073 0.112225 0
M  V30 254 N 22.1715 0.800033 1.35784 0
M  V30 255 C 23.4175 0.377901 1.99248 0
M  V30 256 C 23.7505 -1.05052 1.63333 0
M  V30 257 O 23.0255 -1.72768 0.893385 0
M  V30 258 C 23.3085 0.553922 3.55814 0
M  V30 259 C 23.1615 2.0268 4.01548 0
M  V30 260 C 24.4805 -0.0244802 4.40093 0
M  V30 261 H 21.5995 0.138782 0.723815 0
M  V30 262 H 24.2415 1.00835 1.61035 0
M  V30 263 H 22.3915 0.0172398 3.88496 0
M  V30 264 H 24.0635 2.62536 3.79305 0
M  V30 265 H 22.3065 2.5256 3.52698 0
M  V30 266 H 22.9775 2.10087 5.10458 0
M  V30 267 H 25.4535 0.433775 4.13833 0
M  V30 268 H 24.3295 0.128637 5.48749 0
M  V30 269 H 24.5905 -1.11758 4.27741 0
M  V30 270 N 23.6496 -1.47581 0.552962 0
M  V30 271 C 24.8746 -2.07378 0.0300593 0
M  V30 272 C 25.2996 -1.40355 -1.25229 0
M  V30 273 O 24.6576 -0.477099 -1.7491 0
M  V30 274 C 24.7056 -3.60274 -0.153231 0
M  V30 275 O 23.8096 -3.94041 -1.21678 0
M  V30 276 H 23.1506 -0.662158 0.0494182 0
M  V30 277 H 25.6806 -1.89662 0.767434 0
M  V30 278 H 25.6906 -4.0633 -0.368761 0
M  V30 279 H 24.3656 -4.08455 0.783397 0
M  V30 280 H 22.9426 -3.59735 -0.982079 0
M  V30 281 N 25.1277 -0.289203 -1.54924 0
M  V30 282 C 26.0907 0.579144 -2.21762 0
M  V30 283 C 27.0907 1.07047 -1.1999 0
M  V30 284 O 28.2807 0.968384 -1.44803 0
M  V30 285 C 25.4127 1.80055 -2.8947 0
M  V30 286 H 26.6057 -0.00464908 -2.999 0
M  V30 287 H 24.1587 -0.0399306 -1.56249 0
M  V30 288 H 24.8937 2.42449 -2.15381 0
M  V30 289 H 24.6787 1.45602 -3.64064 0
M  V30 290 H 26.1687 2.41773 -3.40493 0
M  V30 291 N 26.6058 1.57591 -0.0167156 0
M  V30 292 C 27.5158 2.1291 0.98521 0
M  V30 293 C 28.5318 1.07834 1.36557 0
M  V30 294 O 29.7078 1.39826 1.44951 0
M  V30 295 C 26.7728 2.63512 2.25305 0
M  V30 296 C 25.8338 3.83256 1.93426 0
M  V30 297 C 25.0668 4.31435 3.14165 0
M  V30 298 O 25.2898 3.78851 4.26413 0
M  V30 299 O 24.2238 5.23416 2.97186 0
M  V30 300 H 28.0498 2.98772 0.544888 0
M  V30 301 H 25.6348 1.48012 0.203141 0
M  V30 302 H 27.5168 2.96183 2.99756 0
M  V30 303 H 26.1918 1.8074 2.68542 0
M  V30 304 H 25.0988 3.55531 1.16398 0
M  V30 305 H 26.4318 4.67153 1.55013 0
M  V30 306 N 28.0839 -0.256276 1.55502 0
M  V30 307 C 29.3089 -1.00766 1.81276 0
M  V30 308 C 29.7339 -1.78524 0.59252 0
M  V30 309 O 29.0919 -1.75413 -0.45827 0
M  V30 310 C 29.1399 -1.92869 3.04687 0
M  V30 311 O 28.2439 -3.019 2.80945 0
M  V30 312 H 27.5849 -0.287224 0.598664 0
M  V30 313 H 30.1149 -0.280109 2.02674 0
M  V30 314 H 30.1249 -2.34511 3.33869 0
M  V30 315 H 28.7999 -1.35689 3.93143 0
M  V30 316 H 27.3769 -2.64454 2.62904 0
M  V30 317 N 29.562 -1.4872 -0.521534 0
M  V30 318 C 30.978 -1.35028 -0.850855 0
M  V30 319 C 31.178 -0.367712 -1.98116 0
M  V30 320 O 30.234 0.208037 -2.51642 0
M  V30 321 C 31.547 -2.75263 -1.21041 0
M  V30 322 C 33.095 -2.83813 -1.31981 0
M  V30 323 C 33.57 -4.24769 -1.71276 0
M  V30 324 N 35.061 -4.27482 -1.78363 0
M  V30 325 C 35.796 -5.33494 -2.1017 0
M  V30 326 N 35.292 -6.49775 -2.40343 0
M  V30 327 N 37.085 -5.20894 -2.11248 0
M  V30 328 H 29.236 -2.11214 0.22413 0
M  V30 329 H 31.499 -0.947252 0.0376439 0
M  V30 330 H 31.205 -3.48765 -0.453415 0
M  V30 331 H 31.079 -3.09327 -2.15863 0
M  V30 332 H 33.466 -2.10561 -2.06756 0
M  V30 333 H 33.547 -2.53358 -0.352596 0
M  V30 334 H 33.191 -4.9854 -0.970588 0
M  V30 335 H 33.121 -4.52673 -2.69062 0
M  V30 336 H 35.612 -3.43611 -1.57288 0
M  V30 337 H 35.925 -7.26402 -2.63743 0
M  V30 338 H 34.27 -6.53035 -2.37844 0
M  V30 339 H 37.461 -4.29065 -1.87139 0
M  V30 340 H 37.634 -6.03612 -2.35704 0
M  V30 341 N 31.0401 0.771051 -1.3745 0
M  V30 342 C 32.0031 1.86598 -1.33093 0
M  V30 343 C 33.0031 1.59076 -0.234845 0
M  V30 344 O 34.1931 1.67145 -0.490732 0
M  V30 345 C 31.3251 3.23747 -1.06773 0
M  V30 346 H 32.5181 1.91873 -2.30488 0
M  V30 347 H 30.0711 0.970876 -1.2249 0
M  V30 348 H 30.8061 3.24148 -0.099129 0
M  V30 349 H 30.5911 3.45115 -1.86112 0
M  V30 350 H 32.0811 4.03824 -1.06377 0
M  V30 351 N 32.5182 1.22032 0.997298 0
M  V30 352 C 33.4282 1.00271 2.12092 0
M  V30 353 C 34.4442 -0.047621 1.73935 0
M  V30 354 O 35.6202 0.144136 2.00884 0
M  V30 355 C 32.6852 0.578449 3.4184 0
M  V30 356 C 31.7462 1.70189 3.94125 0
M  V30 357 C 30.9792 1.29778 5.17681 0
M  V30 358 O 31.2022 0.174676 5.70132 0
M  V30 359 O 30.1362 2.11261 5.63607 0
M  V30 360 H 33.9622 1.94398 2.3333 0
M  V30 361 H 31.5472 1.00587 1.10465 0
M  V30 362 H 33.4292 0.351998 4.19927 0
M  V30 363 H 32.1042 -0.334019 3.21972 0
M  V30 364 H 31.0112 1.98282 3.1723 0
M  V30 365 H 32.3442 2.59206 4.18417 0
M  V30 366 N 33.9963 -1.19345 1.0293 0
M  V30 367 C 34.9263 -2.2481 0.631105 0
M  V30 368 C 35.9073 -1.66245 -0.360104 0
M  V30 369 O 37.0923 -1.92677 -0.242726 0
M  V30 370 C 34.2223 -3.47295 -0.0184607 0
M  V30 371 C 33.1763 -4.18536 0.895073 0
M  V30 372 C 32.5023 -5.34586 0.110592 0
M  V30 373 C 33.8023 -4.73287 2.209 0
M  V30 374 H 35.4963 -2.58372 1.51275 0
M  V30 375 H 33.0423 -1.24194 0.728818 0
M  V30 376 H 34.9953 -4.20268 -0.308675 0
M  V30 377 H 33.7193 -3.12933 -0.934907 0
M  V30 378 H 32.3783 -3.47446 1.16949 0
M  V30 379 H 32.0263 -4.96469 -0.807902 0
M  V30 380 H 31.7263 -5.83183 0.719087 0
M  V30 381 H 33.2503 -6.10355 -0.172871 0
M  V30 382 H 34.6643 -5.38013 1.98028 0
M  V30 383 H 33.0613 -5.32373 2.76946 0
M  V30 384 H 34.1313 -3.91331 2.86336 0
M  V30 385 N 35.4744 -0.807222 -1.35358 0
M  V30 386 C 36.7024 -0.400377 -2.02989 0
M  V30 387 C 37.1174 0.988859 -1.60832 0
M  V30 388 O 36.4744 1.63729 -0.806175 0
M  V30 389 C 36.5254 -0.474867 -3.58368 0
M  V30 390 O 36.2464 -1.80933 -3.98992 0
M  V30 391 C 37.7474 -0.0609112 -4.43258 0
M  V30 392 H 34.9674 -0.162587 -0.651004 0
M  V30 393 H 37.5114 -1.09102 -1.72965 0
M  V30 394 H 35.6664 0.167534 -3.87038 0
M  V30 395 H 36.0804 -1.77256 -4.9364 0
M  V30 396 H 37.5544 -0.164145 -5.51756 0
M  V30 397 H 38.0314 0.993831 -4.27808 0
M  V30 398 H 38.6374 -0.676492 -4.19885 0
M  V30 399 N 36.9525 1.47285 -0.560781 0
M  V30 400 C 38.1775 2.07359 -0.0410566 0
M  V30 401 C 38.6025 1.41017 1.24483 0
M  V30 402 O 37.9605 0.486368 1.74654 0
M  V30 403 C 38.0085 3.6035 0.134123 0
M  V30 404 O 37.1125 3.94681 1.19587 0
M  V30 405 H 36.4535 0.661887 -0.0529291 0
M  V30 406 H 38.9835 1.89252 -0.777482 0
M  V30 407 H 38.9935 4.0652 0.347207 0
M  V30 408 H 37.6685 4.08034 -0.805047 0
M  V30 409 H 36.2455 3.60251 0.962987 0
M  V30 410 N 38.4306 0.297415 1.54768 0
M  V30 411 C 39.7076 -0.365847 1.92148 0
M  V30 412 C 40.0876 -1.71975 1.22424 0
M  V30 413 O 39.4356 -2.25666 0.358739 0
M  V30 414 C 39.6456 -0.484056 3.45627 0
M  V30 415 C 40.9936 -0.756594 4.17805 0
M  V30 416 O 42.0176 -0.568007 3.51642 0
M  V30 417 O 40.8766 -1.11863 5.34929 0
M  V30 418 H 37.9706 -0.203919 0.801465 0
M  V30 419 H 40.5166 0.34521 1.66152 0
M  V30 420 H 39.2886 0.467865 3.88493 0
M  V30 421 H 38.9116 -1.24372 3.77647 0
M  V30 422 N 39.9087 -1.5758 0.0250728 0
M  V30 423 C 40.8557 -2.09973 -0.958129 0
M  V30 424 C 41.8257 -1.00085 -1.3256 0
M  V30 425 O 43.0107 -1.27481 -1.41962 0
M  V30 426 C 40.1507 -2.62812 -2.2366 0
M  V30 427 C 39.2637 -3.86693 -1.92594 0
M  V30 428 C 38.3987 -4.27941 -3.14707 0
M  V30 429 C 37.4377 -5.44591 -2.79442 0
M  V30 430 N 36.5747 -5.81014 -3.94167 0
M  V30 431 H 41.4147 -2.937 -0.504428 0
M  V30 432 H 38.9517 -1.45172 -0.237392 0
M  V30 433 H 40.9097 -2.91536 -2.98434 0
M  V30 434 H 39.5397 -1.81922 -2.66654 0
M  V30 435 H 38.5917 -3.64723 -1.0808 0
M  V30 436 H 39.9037 -4.71547 -1.62619 0
M  V30 437 H 39.0577 -4.58079 -3.97804 0
M  V30 438 H 37.7967 -3.41845 -3.4784 0
M  V30 439 H 36.8017 -5.1415 -1.94755 0
M  V30 440 H 38.0267 -6.32382 -2.47528 0
M  V30 441 H 35.9727 -4.97874 -4.2715 0
M  V30 442 H 35.8897 -6.60498 -3.67801 0
M  V30 443 H 37.1577 -6.15756 -4.7798 0
M  V30 444 N 41.3868 0.248026 -1.55636 0
M  V30 445 C 42.6638 0.998988 -1.68165 0
M  V30 446 C 43.0438 2.03409 -0.564621 0
M  V30 447 O 42.3918 2.24378 0.432076 0
M  V30 448 C 42.6018 1.63334 -3.0842 0
M  V30 449 C 43.9498 2.13562 -3.66983 0
M  V30 450 O 44.9738 1.73277 -3.11213 0
M  V30 451 O 43.8328 2.87526 -4.64749 0
M  V30 452 H 40.9268 0.464933 -0.683935 0
M  V30 453 H 43.4728 0.241902 -1.67967 0
M  V30 454 H 42.2448 0.884583 -3.8117 0
M  V30 455 H 41.8678 2.45666 -3.12624 0
M  V30 456 N 42.8649 1.48995 0.513639 0
M  V30 457 C 43.7979 1.59319 1.63379 0
M  V30 458 C 44.7759 0.442816 1.56454 0
M  V30 459 O 45.9599 0.656655 1.76693 0
M  V30 460 C 43.0869 1.5364 3.01848 0
M  V30 461 C 42.1329 2.7372 3.27078 0
M  V30 462 S 42.9659 4.35528 3.1157 0
M  V30 463 C 44.1219 4.32473 4.52458 0
M  V30 464 H 44.3549 2.54079 1.54374 0
M  V30 465 H 41.8879 1.3773 0.697849 0
M  V30 466 H 43.8459 1.51049 3.81699 0
M  V30 467 H 42.5069 0.601898 3.08279 0
M  V30 468 H 41.6999 2.6593 4.28132 0
M  V30 469 H 41.3019 2.73657 2.54927 0
M  V30 470 H 43.5939 4.03414 5.44301 0
M  V30 471 H 44.5369 5.33762 4.65299 0
M  V30 472 H 44.9449 3.62718 4.32546 0
M  V30 473 N 44.343 -0.763751 1.37857 0
M  V30 474 C 45.573 -1.55067 1.3652 0
M  V30 475 C 45.981 -1.89135 -0.0494227 0
M  V30 476 O 45.324 -1.52529 -1.02375 0
M  V30 477 C 45.386 -2.8838 2.14656 0
M  V30 478 C 45.05 -2.76905 3.63555 0
M  V30 479 C 46.047 -2.4739 4.57268 0
M  V30 480 C 43.732 -2.94676 4.06781 0
M  V30 481 C 45.726 -2.35786 5.92186 0
M  V30 482 C 43.413 -2.82692 5.41782 0
M  V30 483 C 44.411 -2.53289 6.34298 0
M  V30 484 O 44.099 -2.41345 7.66817 0
M  V30 485 H 43.831 -0.486776 0.469069 0
M  V30 486 H 46.385 -0.953812 1.81911 0
M  V30 487 H 44.615 -3.50217 1.63967 0
M  V30 488 H 46.304 -3.49828 2.05852 0
M  V30 489 H 47.07 -2.33339 4.2518 0
M  V30 490 H 42.949 -3.16563 3.35126 0
M  V30 491 H 46.493 -2.12757 6.64365 0
M  V30 492 H 42.39 -2.96314 5.7347 0
M  V30 493 H 43.158 -2.56634 7.77226 0
M  V30 494 N 45.8211 -1.22559 -0.990812 0
M  V30 495 C 46.7511 -1.0218 -2.09956 0
M  V30 496 C 47.7321 0.0579394 -1.70001 0
M  V30 497 O 48.9171 -0.104684 -1.93918 0
M  V30 498 C 46.0471 -0.601023 -3.4206 0
M  V30 499 C 45.0011 -1.62694 -3.95872 0
M  V30 500 C 44.3271 -1.06193 -5.24049 0
M  V30 501 C 45.6271 -3.01743 -4.2632 0
M  V30 502 H 47.3211 -1.94916 -2.27262 0
M  V30 503 H 44.8671 -0.938566 -1.09211 0
M  V30 504 H 46.8201 -0.445561 -4.19038 0
M  V30 505 H 45.5441 0.362005 -3.24588 0
M  V30 506 H 44.2031 -1.77021 -3.21028 0
M  V30 507 H 43.8511 -0.0901903 -5.02919 0
M  V30 508 H 43.5511 -1.74732 -5.61019 0
M  V30 509 H 45.0751 -0.918092 -6.03658 0
M  V30 510 H 46.4891 -2.90777 -4.94087 0
M  V30 511 H 44.8861 -3.67425 -4.74467 0
M  V30 512 H 45.9561 -3.51518 -3.34011 0
M  V30 513 N 47.2992 1.18797 -1.03562 0
M  V30 514 C 48.5762 1.84469 -0.650434 0
M  V30 515 C 48.9562 1.92319 0.870433 0
M  V30 516 O 48.3042 1.44528 1.76986 0
M  V30 517 C 48.5142 3.2306 -1.32036 0
M  V30 518 C 49.8622 3.9915 -1.44792 0
M  V30 519 O 50.8862 3.32481 -1.27806 0
M  V30 520 O 49.7452 5.18587 -1.72423 0
M  V30 521 H 46.8392 0.795251 -0.226946 0
M  V30 522 H 49.3852 1.26231 -1.13419 0
M  V30 523 H 48.1572 3.1222 -2.3587 0
M  V30 524 H 47.7802 3.88949 -0.8249 0
M  V30 525 N 48.7773 0.814389 1.34928 0
M  V30 526 C 49.7253 0.218424 2.31572 0
M  V30 527 C 50.7193 -0.636128 1.57002 0
M  V30 528 O 51.9253 -0.52842 1.72069 0
M  V30 529 H 48.3003 0.0518799 0.750208 0
M  V30 530 H 50.2713 1.04852 2.79372 0
M  V30 531 C 49.0203 -0.61207 3.4227 0
M  V30 532 H 48.3433 0.0361578 3.99784 0
M  V30 533 H 49.7833 -0.995317 4.12152 0
M  V30 534 C 48.2423 -1.78087 2.85984 0
M  V30 535 O 48.7723 -2.8787 2.80168 0
M  V30 536 N 46.9783 -1.59488 2.42924 0
M  V30 537 H 46.5253 -0.701874 2.47854 0
M  V30 538 H 46.4833 -2.37846 2.05613 0
M  V30 539 N 50.2554 -1.46986 0.568584 0
M  V30 540 C 51.4804 -2.07335 0.0520528 0
M  V30 541 C 51.9054 -1.41675 -1.23733 0
M  V30 542 O 51.2634 -0.495623 -1.74394 0
M  V30 543 C 51.3114 -3.60417 -0.11501 0
M  V30 544 O 50.4154 -3.95309 -1.17492 0
M  V30 545 H 49.7564 -0.661597 0.0564385 0
M  V30 546 H 52.2864 -1.88837 0.787507 0
M  V30 547 H 52.2964 -4.06698 -0.325644 0
M  V30 548 H 50.9714 -4.07601 0.826675 0
M  V30 549 H 49.5484 -3.60757 -0.943869 0
M  V30 550 N 51.7335 -0.305618 -1.54608 0
M  V30 551 C 52.9585 0.307562 -2.05107 0
M  V30 552 C 53.3835 1.46385 -1.18123 0
M  V30 553 O 52.7415 1.8034 -0.186324 0
M  V30 554 C 52.7895 0.73704 -3.52987 0
M  V30 555 O 51.8935 1.84134 -3.6901 0
M  V30 556 H 51.2345 0.0589143 -0.661381 0
M  V30 557 H 53.7645 -0.448807 -1.99617 0
M  V30 558 H 53.7745 1.02459 -3.94925 0
M  V30 559 H 52.4495 -0.108773 -4.15758 0
M  V30 560 H 51.0265 1.55398 -3.38978 0
M  V30 561 N 53.2116 1.57565 -0.0334293 0
M  V30 562 C 54.4606 1.91155 0.643639 0
M  V30 563 C 54.7736 0.91192 1.73042 0
M  V30 564 O 55.9796 1.13923 2.46442 0
M  V30 565 C 54.4356 3.39443 1.1961 0
M  V30 566 C 54.0436 4.47774 0.142381 0
M  V30 567 C 55.7876 3.82094 1.84944 0
M  V30 568 C 53.6946 5.87162 0.706727 0
M  V30 569 H 52.6246 0.713368 0.244176 0
M  V30 570 H 55.2756 1.8323 -0.0994323 0
M  V30 571 H 53.6576 3.42313 1.99092 0
M  V30 572 H 54.8316 4.56469 -0.630296 0
M  V30 573 H 53.1466 4.14352 -0.412446 0
M  V30 574 H 55.7436 4.83591 2.2813 0
M  V30 575 H 56.0866 3.17386 2.69392 0
M  V30 576 H 56.6196 3.81665 1.12145 0
M  V30 577 H 53.3586 6.55424 -0.0997178 0
M  V30 578 H 52.8786 5.82064 1.44779 0
M  V30 579 H 54.5576 6.35866 1.19514 0
M  V30 580 N 54.6897 -0.239769 1.55765 0
M  V30 581 C 55.5997 -1.31831 1.94056 0
M  V30 582 C 56.6157 -1.52275 0.841925 0
M  V30 583 O 57.7917 -1.65759 1.14394 0
M  V30 584 C 54.8567 -2.65156 2.23368 0
M  V30 585 C 53.9177 -2.53173 3.46701 0
M  V30 586 C 53.1507 -3.8014 3.74606 0
M  V30 587 O 53.3737 -4.82343 3.04469 0
M  V30 588 O 52.3077 -3.78344 4.68123 0
M  V30 589 H 56.1337 -1.02347 2.85935 0
M  V30 590 H 53.7187 -0.441123 1.42739 0
M  V30 591 H 55.6007 -3.43929 2.43497 0
M  V30 592 H 54.2757 -2.94358 1.34666 0
M  V30 593 H 53.1827 -1.72662 3.31871 0
M  V30 594 H 54.5157 -2.28915 4.35728 0
M  V30 595 N 56.1678 -1.49265 -0.50573 0
M  V30 596 C 57.0778 -1.68312 -1.63427 0
M  V30 597 C 58.0938 -0.565682 -1.64548 0
M  V30 598 O 59.2698 -0.839801 -1.83055 0
M  V30 599 C 56.3348 -1.74107 -2.99813 0
M  V30 600 C 55.3958 -2.97653 -3.09356 0
M  V30 601 C 54.6288 -3.03163 -4.39236 0
M  V30 602 O 54.8518 -2.16396 -5.27758 0
M  V30 603 O 53.7858 -3.9558 -4.53652 0
M  V30 604 H 57.6118 -2.63907 -1.50289 0
M  V30 605 H 55.1968 -1.32951 -0.681502 0
M  V30 606 H 57.0788 -1.803 -3.80881 0
M  V30 607 H 55.7538 -0.816901 -3.13223 0
M  V30 608 H 54.6608 -2.96981 -2.27493 0
M  V30 609 H 55.9938 -3.89535 -3.00871 0
M  V30 610 N 57.6459 0.756429 -1.3826 0
M  V30 611 C 58.6089 1.85176 -1.35065 0
M  V30 612 C 59.6089 1.58818 -0.251703 0
M  V30 613 O 60.7989 1.66615 -0.508433 0
M  V30 614 C 57.9309 3.22596 -1.10201 0
M  V30 615 H 59.1239 1.89417 -2.3251 0
M  V30 616 H 56.6769 0.95783 -1.23512 0
M  V30 617 H 57.4119 3.24025 -0.133504 0
M  V30 618 H 57.1969 3.43122 -1.89762 0
M  V30 619 H 58.6869 4.02673 -1.10654 0
M  V30 620 N 59.124 1.23083 0.984299 0
M  V30 621 C 60.349 1.088 1.76571 0
M  V30 622 C 60.774 -0.356657 1.84688 0
M  V30 623 O 60.132 -1.25788 1.30565 0
M  V30 624 C 60.18 1.71371 3.17277 0
M  V30 625 O 59.284 0.973213 4.00752 0
M  V30 626 H 58.625 0.381599 0.543395 0
M  V30 627 H 61.155 1.63057 1.23587 0
M  V30 628 H 61.165 1.76449 3.67872 0
M  V30 629 H 59.84 2.76493 3.10684 0
M  V30 630 H 58.417 0.999078 3.59267 0
M  V30 631 N 60.6021 -1.18246 1.0419 0
M  V30 632 C 61.8501 -1.87886 0.744543 0
M  V30 633 C 62.1711 -1.8082 -0.730006 0
M  V30 634 O 61.4411 -1.22736 -1.52685 0
M  V30 635 H 60.0211 -0.695556 0.272417 0
M  V30 636 H 62.6831 -1.43494 1.31892 0
M  V30 637 H 61.7791 -2.9389 1.05049 0
M  V30 638 N 62.0802 -0.821533 -1.34494 0
M  V30 639 C 63.3262 -0.409552 -1.98622 0
M  V30 640 C 63.6592 1.0244 -1.64984 0
M  V30 641 O 62.9342 1.71325 -0.920758 0
M  V30 642 C 63.2172 -0.610458 -3.54888 0
M  V30 643 C 63.0702 -2.09043 -3.98273 0
M  V30 644 C 64.3892 -0.0455379 -4.40076 0
M  V30 645 H 61.5082 -0.15028 -0.721516 0
M  V30 646 H 64.1502 -1.03384 -1.59411 0
M  V30 647 H 62.3002 -0.079044 -3.8842 0
M  V30 648 H 63.9722 -2.68537 -3.75081 0
M  V30 649 H 62.2152 -2.58139 -3.48635 0
M  V30 650 H 62.8862 -2.18182 -5.07051 0
M  V30 651 H 65.3622 -0.499557 -4.1309 0
M  V30 652 H 64.2382 -0.215922 -5.48475 0
M  V30 653 H 64.4992 1.04939 -4.29465 0
M  V30 654 N 63.5583 1.46682 -0.576371 0
M  V30 655 C 64.7883 2.06498 -0.0648694 0
M  V30 656 C 65.1963 1.42665 1.24271 0
M  V30 657 O 64.5393 0.523886 1.76071 0
M  V30 658 C 64.6013 3.5904 0.181816 0
M  V30 659 C 64.2653 4.45028 -1.0392 0
M  V30 660 C 65.2623 4.81959 -1.94966 0
M  V30 661 C 62.9473 4.86259 -1.25927 0
M  V30 662 C 64.9413 5.58942 -3.06371 0
M  V30 663 C 62.6283 5.63002 -2.37638 0
M  V30 664 C 63.6263 5.99257 -3.2769 0
M  V30 665 O 63.3143 6.7445 -4.37461 0
M  V30 666 H 63.0463 0.674028 -0.0515987 0
M  V30 667 H 65.6003 1.89393 -0.794951 0
M  V30 668 H 63.8303 3.74429 0.966436 0
M  V30 669 H 65.5193 4.00806 0.641047 0
M  V30 670 H 66.2853 4.50689 -1.79177 0
M  V30 671 H 62.1643 4.57494 -0.567448 0
M  V30 672 H 65.7083 5.87158 -3.76684 0
M  V30 673 H 61.6053 5.93686 -2.53392 0
M  V30 674 H 62.3733 6.92867 -4.35749 0
M  V30 675 N 65.0364 0.313813 1.54444 0
M  V30 676 C 66.4474 -0.176243 1.85866 0
M  V30 677 C 66.7984 -1.52405 1.23561 0
M  V30 678 O 65.9234 -2.09605 0.538016 0
M  V30 679 C 66.5184 -0.32657 3.37222 0
M  V30 680 C 65.0774 -0.760846 3.6863 0
M  V30 681 C 64.2244 0.123247 2.77026 0
M  V30 682 H 67.1754 0.534418 1.49431 0
M  V30 683 H 67.1964 -1.15908 3.62416 0
M  V30 684 H 66.7084 0.654531 3.82541 0
M  V30 685 H 64.8094 -1.75204 3.28838 0
M  V30 686 H 64.9224 -0.571353 4.75681 0
M  V30 687 H 63.2864 -0.399597 2.51546 0
M  V30 688 H 64.0694 1.10094 3.25168 0
M  V30 689 N 66.5145 -1.57545 0.0417849 0
M  V30 690 C 67.7635 -1.91494 -0.633492 0
M  V30 691 C 68.0765 -0.921084 -1.72556 0
M  V30 692 O 69.2825 -1.15228 -2.45835 0
M  V30 693 C 67.7385 -3.40072 -1.17808 0
M  V30 694 C 67.3465 -4.47843 -0.118633 0
M  V30 695 C 69.0905 -3.8307 -1.82915 0
M  V30 696 C 66.9975 -5.87529 -0.675578 0
M  V30 697 H 65.9275 -0.714653 -0.24039 0
M  V30 698 H 68.5785 -1.83175 0.109148 0
M  V30 699 H 66.9605 -3.43364 -1.97274 0
M  V30 700 H 68.1345 -4.56128 0.654494 0
M  V30 701 H 66.4495 -4.14128 0.434414 0
M  V30 702 H 69.0465 -4.84794 -2.25563 0
M  V30 703 H 69.3895 -3.1881 -2.67705 0
M  V30 704 H 69.9225 -3.82255 -1.10119 0
M  V30 705 H 66.6615 -6.55362 0.134475 0
M  V30 706 H 66.1815 -5.82824 -1.4169 0
M  V30 707 H 67.8605 -6.36491 -1.1614 0
M  V30 708 N 67.9926 0.231505 -1.5589 0
M  V30 709 C 69.2696 0.981096 -1.69215 0
M  V30 710 C 69.6496 2.02799 -0.586164 0
M  V30 711 O 68.9976 2.24823 0.408253 0
M  V30 712 C 69.2076 1.60054 -3.10135 0
M  V30 713 C 70.5556 2.09658 -3.69227 0
M  V30 714 O 71.5796 1.69967 -3.13033 0
M  V30 715 O 70.4386 2.8258 -4.67772 0
M  V30 716 H 67.5326 0.457653 -0.688827 0
M  V30 717 H 70.0786 0.224073 -1.68214 0
M  V30 718 H 68.8506 0.844105 -3.82087 0
M  V30 719 H 68.4736 2.42336 -3.15212 0
M  V30 720 N 69.4707 1.49531 0.497807 0
M  V30 721 C 70.7477 1.49682 1.25915 0
M  V30 722 C 71.1277 0.226339 2.09883 0
M  V30 723 O 70.4757 -0.791189 2.14365 0
M  V30 724 C 70.6857 2.77755 2.11313 0
M  V30 725 C 72.0337 3.27371 2.70395 0
M  V30 726 O 73.0577 2.78894 2.21578 0
M  V30 727 O 71.9167 4.11808 3.59272 0
M  V30 728 H 69.0107 0.599228 0.56996 0
M  V30 729 H 71.5567 1.61798 0.511816 0
M  V30 730 H 70.3287 3.61713 1.49264 0
M  V30 731 H 69.9517 2.68515 2.93233 0
M  V30 732 N 70.9488 -0.749086 1.3866 0
M  V30 733 C 72.2258 -1.4992 1.25632 0
M  V30 734 C 72.6058 -2.10633 -0.140317 0
M  V30 735 O 71.9538 -1.97437 -1.15025 0
M  V30 736 C 72.1638 -2.56195 2.36992 0
M  V30 737 C 73.5118 -3.22972 2.75634 0
M  V30 738 O 74.5358 -2.66502 2.36337 0
M  V30 739 O 73.3948 -4.25122 3.43415 0
M  V30 740 H 70.4888 -0.665067 0.491544 0
M  V30 741 H 73.0348 -0.784113 1.50498 0
M  V30 742 H 71.8068 -2.09612 3.30422 0
M  V30 743 H 71.4298 -3.35279 2.13714 0
M  V30 744 N 72.4269 -1.23603 -0.977757 0
M  V30 745 C 73.7039 -0.977897 -1.69401 0
M  V30 746 C 74.0839 0.502738 -2.05026 0
M  V30 747 O 73.4319 1.47459 -1.74551 0
M  V30 748 C 73.6419 -1.89077 -2.93345 0
M  V30 749 C 74.9899 -2.15579 -3.65802 0
M  V30 750 O 76.0139 -1.86648 -3.03383 0
M  V30 751 O 74.8729 -2.64658 -4.78141 0
M  V30 752 H 71.9669 -0.369025 -0.740101 0
M  V30 753 H 74.5129 -1.34657 -1.03274 0
M  V30 754 H 73.2849 -2.89158 -2.63634 0
M  V30 755 H 72.9079 -1.52463 -3.67207 0
M  V30 756 N 73.905 1.17692 -1.04816 0
M  V30 757 C 75.135 1.91508 -0.775128 0
M  V30 758 C 75.543 1.76844 0.67253 0
M  V30 759 O 74.886 1.10057 1.47082 0
M  V30 760 C 74.948 3.43167 -1.0713 0
M  V30 761 C 74.612 3.81612 -2.51438 0
M  V30 762 C 75.609 3.84772 -3.49638 0
M  V30 763 C 73.294 4.12687 -2.86348 0
M  V30 764 C 75.288 4.18469 -4.80794 0
M  V30 765 C 72.975 4.46053 -4.17708 0
M  V30 766 C 73.973 4.48921 -5.14741 0
M  V30 767 O 73.661 4.81504 -6.43746 0
M  V30 768 H 73.393 0.614575 -0.281555 0
M  V30 769 H 75.947 1.50206 -1.40098 0
M  V30 770 H 74.177 3.84745 -0.388342 0
M  V30 771 H 75.866 3.98239 -0.784883 0
M  V30 772 H 76.632 3.60893 -3.24008 0
M  V30 773 H 72.511 4.09627 -2.11486 0
M  V30 774 H 76.055 4.20623 -5.56527 0
M  V30 775 H 71.952 4.69393 -4.43103 0
M  V30 776 H 72.72 4.99377 -6.4851 0
M  V30 777 N 75.3831 0.828654 1.34056 0
M  V30 778 C 76.3461 0.259927 2.27721 0
M  V30 779 C 77.3461 -0.565478 1.50529 0
M  V30 780 O 78.5361 -0.38075 1.69988 0
M  V30 781 C 75.6681 -0.634944 3.34935 0
M  V30 782 H 76.8611 1.0863 2.79534 0
M  V30 783 H 74.4141 0.600951 1.44285 0
M  V30 784 H 75.1491 -1.48416 2.88346 0
M  V30 785 H 74.9341 -0.0444999 3.92075 0
M  V30 786 H 76.4241 -1.02648 4.04788 0
M  V30 787 N 76.8612 -1.46375 0.584142 0
M  V30 788 C 78.0862 -2.07268 0.0740405 0
M  V30 789 C 78.5112 -1.42979 -1.22223 0
M  V30 790 O 77.8692 -0.514092 -1.73859 0
M  V30 791 C 77.9172 -3.60518 -0.0767769 0
M  V30 792 O 77.0212 -3.96533 -1.13292 0
M  V30 793 H 76.3622 -0.660961 0.0634524 0
M  V30 794 H 78.8922 -1.87991 0.807492 0
M  V30 795 H 78.9022 -4.07021 -0.282489 0
M  V30 796 H 77.5772 -4.06702 0.86986 0
M  V30 797 H 76.1542 -3.61738 -0.905553 0
M  V30 798 N 78.3393 -0.321999 -1.54275 0
M  V30 799 C 79.3023 0.531975 -2.22941 0
M  V30 800 C 80.3023 1.04478 -1.22234 0
M  V30 801 O 81.4923 0.937452 -1.46825 0
M  V30 802 C 78.6243 1.73874 -2.93224 0
M  V30 803 H 79.8173 -0.0682612 -2.99822 0
M  V30 804 H 77.3703 -0.0730644 -1.56129 0
M  V30 805 H 78.1053 2.37825 -2.20476 0
M  V30 806 H 77.8903 1.37847 -3.6707 0
M  V30 807 H 79.3803 2.34496 -3.45545 0
M  V30 808 N 79.8174 1.5752 -0.0501392 0
M  V30 809 C 81.0424 1.97376 0.636997 0
M  V30 810 C 81.4674 0.927466 1.63645 0
M  V30 811 O 80.8254 -0.10941 1.8097 0
M  V30 812 C 80.8734 3.36304 1.30123 0
M  V30 813 O 79.9774 3.34156 2.41689 0
M  V30 814 H 79.3184 0.642998 0.165679 0
M  V30 815 H 81.8484 2.04258 -0.118233 0
M  V30 816 H 81.8584 3.73008 1.65315 0
M  V30 817 H 80.5334 4.11993 0.568746 0
M  V30 818 H 79.1104 3.09196 2.08451 0
M  V30 819 N 81.2955 -0.223234 1.56011 0
M  V30 820 C 82.5435 -0.946003 1.78592 0
M  V30 821 C 82.8645 -1.84936 0.618349 0
M  V30 822 O 82.1345 -1.92473 -0.364833 0
M  V30 823 H 80.7145 -0.352298 0.658707 0
M  V30 824 H 83.3765 -0.235494 1.93472 0
M  V30 825 H 82.4725 -1.55381 2.70672 0
M  V30 826 N 82.7736 -1.49793 -0.48987 0
M  V30 827 C 83.9986 -1.63836 -1.27172 0
M  V30 828 C 84.4236 -0.31402 -1.8546 0
M  V30 829 O 83.7816 0.719803 -1.66399 0
M  V30 830 C 83.8296 -2.71797 -2.36978 0
M  V30 831 O 82.9336 -2.31744 -3.41128 0
M  V30 832 H 82.2746 -0.547997 -0.37496 0
M  V30 833 H 84.8046 -1.96053 -0.585191 0
M  V30 834 H 84.8146 -2.94305 -2.82575 0
M  V30 835 H 83.4896 -3.67923 -1.93921 0
M  V30 836 H 82.0666 -2.1961 -3.01373 0
M  V30 837 N 84.2517 0.741722 -1.39055 0
M  V30 838 C 85.4997 1.49818 -1.35643 0
M  V30 839 C 85.8207 1.94938 0.0491642 0
M  V30 840 O 85.0907 1.68505 0.999141 0
M  V30 841 H 83.6707 0.555755 -0.499144 0
M  V30 842 H 86.3327 0.880957 -1.73854 0
M  V30 843 H 85.4287 2.38348 -2.01486 0
M  V30 844 N 85.7298 1.2412 0.971189 0
M  V30 845 C 86.6928 1.03156 2.04674 0
M  V30 846 C 87.6928 -0.00990322 1.60797 0
M  V30 847 O 88.8828 0.230729 1.72665 0
M  V30 848 C 86.0148 0.562765 3.36223 0
M  V30 849 H 87.2078 1.98614 2.24705 0
M  V30 850 H 84.7608 1.06293 1.14593 0
M  V30 851 H 85.4958 -0.395176 3.21883 0
M  V30 852 H 85.2808 1.31441 3.69413 0
M  V30 853 H 86.7708 0.437015 4.15307 0
M  V30 854 N 87.2079 -1.17134 1.05439 0
M  V30 855 C 88.4849 -1.83411 0.679699 0
M  V30 856 C 88.8649 -1.9368 -0.839726 0
M  V30 857 O 88.2129 -1.47325 -1.74664 0
M  V30 858 C 88.4229 -3.20918 1.37159 0
M  V30 859 C 89.7709 -3.96796 1.51123 0
M  V30 860 O 90.7949 -3.30406 1.3308 0
M  V30 861 O 89.6539 -5.15778 1.80651 0
M  V30 862 H 86.7479 -0.79154 0.239569 0
M  V30 863 H 89.2939 -1.24411 1.15413 0
M  V30 864 H 88.0659 -3.08428 2.40807 0
M  V30 865 H 87.6889 -3.87587 0.886674 0
M  V30 866 N 88.686 -0.835752 -1.33615 0
M  V30 867 C 89.596 -0.269088 -2.33052 0
M  V30 868 C 90.612 0.603251 -1.63208 0
M  V30 869 O 91.788 0.508112 -1.94885 0
M  V30 870 C 88.853 0.549091 -3.42324 0
M  V30 871 C 87.914 -0.347156 -4.27894 0
M  V30 872 C 87.147 0.43207 -5.31948 0
M  V30 873 O 87.37 1.66409 -5.45586 0
M  V30 874 O 86.304 -0.192298 -6.01593 0
M  V30 875 H 90.13 -1.09243 -2.83372 0
M  V30 876 H 87.715 -0.598198 -1.36901 0
M  V30 877 H 89.597 1.01414 -4.09015 0
M  V30 878 H 88.272 1.34955 -2.94226 0
M  V30 879 H 87.179 -0.859979 -3.64081 0
M  V30 880 H 88.512 -1.1123 -4.79467 0
M  V30 881 N 90.1641 1.46063 -0.591896 0
M  V30 882 C 91.4411 1.95595 -0.0137119 0
M  V30 883 C 91.8211 1.5345 1.4497 0
M  V30 884 O 91.1691 0.789543 2.14426 0
M  V30 885 C 91.3791 3.48453 -0.195373 0
M  V30 886 C 92.7271 4.24546 -0.0679765 0
M  V30 887 O 93.7511 3.55982 -0.124681 0
M  V30 888 O 92.6101 5.46467 0.0600579 0
M  V30 889 H 89.7041 0.825795 0.0446279 0
M  V30 890 H 92.2501 1.56303 -0.660859 0
M  V30 891 H 91.0221 3.72045 -1.21235 0
M  V30 892 H 90.6451 3.94597 0.487775 0
M  V30 893 N 91.6422 0.330177 1.54103 0
M  V30 894 C 92.8882 -0.270806 2.00984 0
M  V30 895 C 93.2212 -1.51265 1.21789 0
M  V30 896 O 92.4962 -1.92142 0.301927 0
M  V30 897 C 92.7792 -0.598339 3.55094 0
M  V30 898 C 92.6322 0.654674 4.4501 0
M  V30 899 C 93.9512 -1.41334 4.16789 0
M  V30 900 H 91.0702 -0.0969531 0.730595 0
M  V30 901 H 93.7122 0.448066 1.84641 0
M  V30 902 H 91.8622 -1.21078 3.69151 0
M  V30 903 H 93.5342 1.29285 4.42813 0
M  V30 904 H 91.7772 1.28224 4.14416 0
M  V30 905 H 92.4482 0.380944 5.50684 0
M  V30 906 H 94.9242 -0.895597 4.06347 0
M  V30 907 H 93.8002 -1.61127 5.24718 0
M  V30 908 H 94.0612 -2.41146 3.70541 0
M  V30 909 N 93.1203 -1.57491 0.0584922 0
M  V30 910 C 94.0303 -2.15448 -0.928414 0
M  V30 911 C 95.0463 -1.11416 -1.3365 0
M  V30 912 O 96.2223 -1.4362 -1.41193 0
M  V30 913 C 93.2873 -2.69393 -2.18239 0
M  V30 914 C 92.3483 -3.88249 -1.83196 0
M  V30 915 C 91.5813 -4.39613 -3.02616 0
M  V30 916 O 91.8043 -3.90023 -4.16219 0
M  V30 917 O 90.7383 -5.31111 -2.83204 0
M  V30 918 H 94.5643 -3.00112 -0.465483 0
M  V30 919 H 92.1493 -1.48499 -0.163826 0
M  V30 920 H 94.0313 -3.04026 -2.91798 0
M  V30 921 H 92.7063 -1.87796 -2.63656 0
M  V30 922 H 91.6133 -3.58492 -1.06931 0
M  V30 923 H 92.9463 -4.71098 -1.42573 0
M  V30 924 N 94.5984 0.214957 -1.56127 0
M  V30 925 C 95.8234 0.95924 -1.83884 0
M  V30 926 C 96.2484 1.7689 -0.639644 0
M  V30 927 O 95.6064 1.76566 0.411601 0
M  V30 928 C 95.6544 1.84723 -3.09693 0
M  V30 929 O 94.7584 2.94346 -2.8885 0
M  V30 930 H 94.0994 0.27125 -0.606069 0
M  V30 931 H 96.6294 0.226276 -2.03345 0
M  V30 932 H 96.6394 2.25576 -3.39969 0
M  V30 933 H 95.3144 1.25218 -3.96602 0
M  V30 934 H 93.8914 2.57391 -2.69823 0
M  V30 935 N 96.0765 1.50051 0.48192 0
M  V30 936 C 97.4875 1.5348 1.06305 0
M  V30 937 C 97.8385 0.331997 1.93371 0
M  V30 938 O 96.9635 -0.556256 2.09129 0
M  V30 939 C 97.5585 2.7813 1.93466 0
M  V30 940 C 96.1175 2.84275 2.46707 0
M  V30 941 C 95.2645 2.47637 1.24785 0
M  V30 942 H 98.2155 1.56472 0.264995 0
M  V30 943 H 98.2365 2.59372 2.78399 0
M  V30 944 H 97.7485 3.65654 1.30072 0
M  V30 945 H 95.8495 2.01077 3.13686 0
M  V30 946 H 95.9625 3.8691 2.82555 0
M  V30 947 H 94.3265 1.99835 1.57918 0
M  V30 948 H 95.1095 3.37457 0.630694 0
M  V30 949 N 97.5546 -0.734337 1.39446 0
M  V30 950 C 98.4646 -1.87879 1.40495 0
M  V30 951 C 99.4806 -1.714 0.299672 0
M  V30 952 O 100.657 -1.93991 0.541249 0
M  V30 953 C 97.7216 -3.23477 1.24754 0
M  V30 954 C 96.7826 -3.52344 2.45259 0
M  V30 955 C 96.0156 -4.81473 2.30259 0
M  V30 956 O 96.2386 -5.55237 1.30643 0
M  V30 957 O 95.1726 -5.10254 3.19256 0
M  V30 958 H 98.9986 -1.89949 2.36966 0
M  V30 959 H 96.5836 -0.882243 1.20569 0
M  V30 960 H 98.4656 -4.04509 1.18111 0
M  V30 961 H 97.1406 -3.22176 0.313781 0
M  V30 962 H 96.0476 -2.71396 2.57478 0
M  V30 963 H 97.3806 -3.58426 3.37331 0
M  V30 964 N 99.0327 -1.24633 -0.964593 0
M  V30 965 C 99.9627 -1.06611 -2.07741 0
M  V30 966 C 100.944 0.0218666 -1.70086 0
M  V30 967 O 102.129 -0.145793 -1.93652 0
M  V30 968 C 99.2587 -0.673444 -3.40708 0
M  V30 969 C 98.2127 -1.71054 -3.92332 0
M  V30 970 C 97.5387 -1.17285 -5.21678 0
M  V30 971 C 98.8387 -3.10718 -4.19824 0
M  V30 972 H 100.533 -1.99693 -2.23076 0
M  V30 973 H 98.0787 -0.96152 -1.07195 0
M  V30 974 H 100.032 -0.534345 -4.17998 0
M  V30 975 H 98.7557 0.293073 -3.25282 0
M  V30 976 H 97.4147 -1.83791 -3.17201 0
M  V30 977 H 97.0627 -0.196847 -5.02615 0
M  V30 978 H 96.7627 -1.86592 -5.57187 0
M  V30 979 H 98.2867 -1.04593 -6.01575 0
M  V30 980 H 99.7007 -3.01192 -4.87808 0
M  V30 981 H 98.0977 -3.77406 -4.66567 0
M  V30 982 H 99.1677 -3.58524 -3.26479 0
M  V30 983 N 100.511 1.16574 -1.06058 0
M  V30 984 C 101.739 1.90952 -0.796552 0
M  V30 985 C 102.154 1.77302 0.648808 0
M  V30 986 O 101.511 1.11605 1.44397 0
M  V30 987 C 101.562 3.41736 -1.17894 0
M  V30 988 O 101.283 3.54975 -2.56758 0
M  V30 989 C 102.784 4.33169 -0.942308 0
M  V30 990 H 100.004 0.605594 -0.288959 0
M  V30 991 H 102.548 1.47777 -1.41358 0
M  V30 992 H 100.703 3.82623 -0.606491 0
M  V30 993 H 101.117 4.4846 -2.72 0
M  V30 994 H 102.591 5.37439 -1.25952 0
M  V30 995 H 103.068 4.3903 0.122078 0
M  V30 996 H 103.674 3.98007 -1.49902 0
M  V30 997 N 101.989 0.842826 1.3317 0
M  V30 998 C 103.217 0.454055 2.01856 0
M  V30 999 C 103.632 -0.94587 1.63397 0
M  V30 1000 O 102.989 -1.61534 0.849302 0
M  V30 1001 C 103.04 0.569715 3.56982 0
M  V30 1002 O 102.761 1.91448 3.94055 0
M  V30 1003 C 104.262 0.178412 4.42941 0
M  V30 1004 H 101.482 0.17979 0.646465 0
M  V30 1005 H 104.026 1.1365 1.70012 0
M  V30 1006 H 102.181 -0.0648587 3.87346 0
M  V30 1007 H 102.595 1.90282 4.88767 0
M  V30 1008 H 104.069 0.310376 5.51127 0
M  V30 1009 H 104.546 -0.880056 4.30293 0
M  V30 1010 H 105.152 0.787579 4.17944 0
M  V30 1011 N 103.467 -1.45747 0.599634 0
M  V30 1012 C 104.692 -2.07178 0.0960198 0
M  V30 1013 C 105.117 -1.44268 -1.207 0
M  V30 1014 O 104.475 -0.532503 -1.73303 0
M  V30 1015 C 104.523 -3.60579 -0.0385348 0
M  V30 1016 O 103.627 -3.97713 -1.0908 0
M  V30 1017 H 102.968 -0.660251 0.0704593 0
M  V30 1018 H 105.498 -1.87124 0.827385 0
M  V30 1019 H 105.508 -4.07298 -0.239304 0
M  V30 1020 H 104.183 -4.05756 0.912947 0
M  V30 1021 H 102.76 -3.62678 -0.867135 0
M  V30 1022 N 104.945 -0.338344 -1.53925 0
M  V30 1023 C 106.361 0.0137736 -1.59594 0
M  V30 1024 C 106.561 1.49186 -1.35447 0
M  V30 1025 O 105.617 2.24987 -1.14616 0
M  V30 1026 C 106.93 -0.41773 -2.97784 0
M  V30 1027 C 108.478 -0.369633 -3.1081 0
M  V30 1028 C 108.953 -0.776524 -4.51369 0
M  V30 1029 N 110.444 -0.730506 -4.57403 0
M  V30 1030 C 111.179 -1.01736 -5.64303 0
M  V30 1031 N 110.675 -1.3721 -6.79077 0
M  V30 1032 N 112.468 -0.941942 -5.54151 0
M  V30 1033 H 104.619 -1.3012 -1.67876 0
M  V30 1034 H 106.882 -0.530082 -0.78595 0
M  V30 1035 H 106.588 -1.44811 -3.20504 0
M  V30 1036 H 106.462 0.209729 -3.76616 0
M  V30 1037 H 108.849 0.651568 -2.87817 0
M  V30 1038 H 108.93 -1.03223 -2.34049 0
M  V30 1039 H 108.574 -1.79571 -4.75096 0
M  V30 1040 H 108.504 -0.0914649 -5.26521 0
M  V30 1041 H 110.995 -0.468783 -3.74981 0
M  V30 1042 H 111.308 -1.57597 -7.5656 0
M  V30 1043 H 109.653 -1.4105 -6.80536 0
M  V30 1044 H 112.844 -0.664184 -4.63364 0
M  V30 1045 H 113.017 -1.16884 -6.37371 0
M  V30 1046 N 106.423 1.57458 -0.0668435 0
M  V30 1047 C 107.834 1.80776 0.466558 0
M  V30 1048 C 108.185 0.980361 1.69951 0
M  V30 1049 O 107.31 0.201441 2.1546 0
M  V30 1050 C 107.905 3.27881 0.85321 0
M  V30 1051 C 106.464 3.52062 1.3315 0
M  V30 1052 C 105.611 2.75513 0.314264 0
M  V30 1053 H 108.562 1.5598 -0.292588 0
M  V30 1054 H 108.583 3.39659 1.715 0
M  V30 1055 H 108.095 3.88075 -0.0443439 0
M  V30 1056 H 106.196 2.97167 2.24772 0
M  V30 1057 H 106.309 4.60762 1.31285 0
M  V30 1058 H 104.673 2.42123 0.790492 0
M  V30 1059 H 105.456 3.38442 -0.575477 0
M  V30 1060 N 107.901 -0.206675 1.56239 0
M  V30 1061 C 108.831 -1.25909 1.96645 0
M  V30 1062 C 109.812 -1.48097 0.836734 0
M  V30 1063 O 110.997 -1.6003 1.10019 0
M  V30 1064 C 108.127 -2.6058 2.29599 0
M  V30 1065 C 107.081 -2.53024 3.452 0
M  V30 1066 C 106.407 -3.91861 3.63798 0
M  V30 1067 C 107.707 -2.06524 4.79734 0
M  V30 1068 H 109.401 -0.923369 2.84806 0
M  V30 1069 H 106.947 -0.442735 1.37025 0
M  V30 1070 H 108.9 -3.34375 2.56459 0
M  V30 1071 H 107.624 -2.95869 1.38307 0
M  V30 1072 H 106.283 -1.81684 3.18412 0
M  V30 1073 H 105.931 -4.24483 2.69857 0
M  V30 1074 H 105.631 -3.87683 4.4156 0
M  V30 1075 H 107.155 -4.67296 3.93022 0
M  V30 1076 H 108.569 -2.70072 5.05702 0
M  V30 1077 H 106.966 -2.13374 5.60885 0
M  V30 1078 H 108.036 -1.01802 4.74093 0
M  V30 1079 N 109.379 -1.50304 -0.473955 0
M  V30 1080 C 110.79 -1.54042 -1.0549 0
M  V30 1081 C 111.141 -0.342248 -1.93192 0
M  V30 1082 O 110.266 0.545157 -2.09421 0
M  V30 1083 C 110.861 -2.79152 -1.91989 0
M  V30 1084 C 109.42 -2.8558 -2.45196 0
M  V30 1085 C 108.567 -2.48295 -1.2347 0
M  V30 1086 H 111.518 -1.5661 -0.256693 0
M  V30 1087 H 111.539 -2.60845 -2.7702 0
M  V30 1088 H 111.051 -3.66339 -1.28131 0
M  V30 1089 H 109.152 -2.02738 -3.12615 0
M  V30 1090 H 109.265 -3.88403 -2.80499 0
M  V30 1091 H 107.629 -2.00669 -1.56856 0
M  V30 1092 H 108.412 -3.37787 -0.612789 0
M  V30 1093 N 110.857 0.726932 -1.39834 0
M  V30 1094 C 111.804 1.841 -1.39197 0
M  V30 1095 C 112.774 1.642 -0.250502 0
M  V30 1096 O 113.959 1.85494 -0.446846 0
M  V30 1097 C 111.099 3.21697 -1.24919 0
M  V30 1098 C 110.212 3.53247 -2.48678 0
M  V30 1099 C 109.347 4.80289 -2.26928 0
M  V30 1100 C 108.386 5.04707 -3.4632 0
M  V30 1101 N 107.523 6.22956 -3.23836 0
M  V30 1102 H 112.363 1.83979 -2.34427 0
M  V30 1103 H 109.9 0.898876 -1.16442 0
M  V30 1104 H 111.858 4.01137 -1.1465 0
M  V30 1105 H 110.488 3.21076 -0.333153 0
M  V30 1106 H 109.54 2.68447 -2.69519 0
M  V30 1107 H 110.852 3.67205 -3.37582 0
M  V30 1108 H 110.006 5.67725 -2.13947 0
M  V30 1109 H 108.745 4.68519 -1.35431 0
M  V30 1110 H 107.75 4.1573 -3.5979 0
M  V30 1111 H 108.975 5.18357 -4.38729 0
M  V30 1112 H 106.921 6.12459 -2.35011 0
M  V30 1113 H 106.838 6.37539 -4.063 0
M  V30 1114 H 108.106 7.1321 -3.14566 0
M  V30 1115 N 112.336 1.25143 0.95797 0
M  V30 1116 C 113.585 1.0909 1.69654 0
M  V30 1117 C 113.898 -0.368548 1.92097 0
M  V30 1118 O 115.104 -0.649455 2.63618 0
M  V30 1119 C 113.56 1.90395 3.05414 0
M  V30 1120 C 113.168 3.4081 2.90779 0
M  V30 1121 C 114.912 1.82901 3.83076 0
M  V30 1122 C 112.819 4.14423 4.21909 0
M  V30 1123 H 111.749 0.404625 0.636235 0
M  V30 1124 H 114.4 1.4931 1.06672 0
M  V30 1125 H 112.782 1.42996 3.69281 0
M  V30 1126 H 113.956 3.95859 2.35865 0
M  V30 1127 H 112.271 3.49361 2.26575 0
M  V30 1128 H 114.868 2.35196 4.80195 0
M  V30 1129 H 115.211 0.796224 4.08615 0
M  V30 1130 H 115.744 2.28033 3.25954 0
M  V30 1131 H 112.483 5.18102 4.01561 0
M  V30 1132 H 112.003 3.64159 4.76601 0
M  V30 1133 H 113.682 4.21956 4.90471 0
M  V30 1134 N 113.814 -1.1601 1.06675 0
M  V30 1135 C 114.744 -2.22688 0.702307 0
M  V30 1136 C 115.725 -1.67306 -0.307032 0
M  V30 1137 O 116.91 -1.93352 -0.181305 0
M  V30 1138 C 114.04 -3.47178 0.092038 0
M  V30 1139 C 112.994 -4.15477 1.02777 0
M  V30 1140 C 112.32 -5.33963 0.28061 0
M  V30 1141 C 113.62 -4.66019 2.35846 0
M  V30 1142 H 115.314 -2.53429 1.59419 0
M  V30 1143 H 112.86 -1.21813 0.767961 0
M  V30 1144 H 114.813 -4.21037 -0.174814 0
M  V30 1145 H 113.537 -3.15749 -0.834877 0
M  V30 1146 H 112.196 -3.43549 1.27944 0
M  V30 1147 H 111.844 -4.98788 -0.649545 0
M  V30 1148 H 111.544 -5.806 0.904258 0
M  V30 1149 H 113.068 -6.10596 0.021396 0
M  V30 1150 H 114.482 -5.3144 2.15045 0
M  V30 1151 H 112.879 -5.23293 2.93743 0
M  V30 1152 H 113.949 -3.82023 2.98641 0
M  V30 1153 N 115.292 -0.849877 -1.32721 0
M  V30 1154 C 116.222 -0.306308 -2.31482 0
M  V30 1155 C 117.203 0.591952 -1.59468 0
M  V30 1156 O 118.388 0.513199 -1.87296 0
M  V30 1157 C 115.518 0.510204 -3.43532 0
M  V30 1158 C 114.472 -0.293209 -4.26994 0
M  V30 1159 C 113.798 0.647743 -5.30762 0
M  V30 1160 C 115.098 -1.51634 -4.99804 0
M  V30 1161 H 116.792 -1.13153 -2.77195 0
M  V30 1162 H 114.338 -0.545553 -1.33266 0
M  V30 1163 H 116.291 0.900856 -4.11658 0
M  V30 1164 H 115.015 1.36874 -2.96535 0
M  V30 1165 H 113.674 -0.665555 -3.60508 0
M  V30 1166 H 113.322 1.50299 -4.8002 0
M  V30 1167 H 113.022 0.11422 -5.87489 0
M  V30 1168 H 114.546 1.03567 -6.01753 0
M  V30 1169 H 115.96 -1.19824 -5.60638 0
M  V30 1170 H 114.357 -1.98745 -5.66234 0
M  V30 1171 H 115.427 -2.28018 -4.27943 0
M  V30 1172 N 116.77 1.45427 -0.607355 0
M  V30 1173 C 117.998 2.06614 -0.108814 0
M  V30 1174 C 118.413 1.45204 1.2067 0
M  V30 1175 O 117.77 0.566132 1.73497 0
M  V30 1176 C 117.821 3.61481 0.0375347 0
M  V30 1177 O 117.542 4.20598 -1.22593 0
M  V30 1178 C 119.043 4.39652 0.567561 0
M  V30 1179 H 116.263 0.66747 -0.0687351 0
M  V30 1180 H 118.807 1.86675 -0.835022 0
M  V30 1181 H 116.962 3.80762 0.714068 0
M  V30 1182 H 117.376 5.1377 -1.05547 0
M  V30 1183 H 118.85 5.48518 0.61905 0
M  V30 1184 H 119.327 4.09417 1.58978 0
M  V30 1185 H 119.933 4.25234 -0.0749202 0
M  V30 1186 N 118.248 0.346503 1.53744 0
M  V30 1187 C 119.473 -0.253074 2.0585 0
M  V30 1188 C 119.898 -1.43202 1.21962 0
M  V30 1189 O 119.256 -1.79783 0.234073 0
M  V30 1190 C 119.304 -0.643193 3.54817 0
M  V30 1191 O 118.408 -1.74286 3.73762 0
M  V30 1192 H 117.749 -0.0413583 0.662711 0
M  V30 1193 H 120.279 0.501574 1.98357 0
M  V30 1194 H 120.289 -0.919526 3.97503 0
M  V30 1195 H 118.964 0.218966 4.15323 0
M  V30 1196 H 117.541 -1.46356 3.42979 0
M  V30 1197 N 119.726 -1.57421 0.075193 0
M  V30 1198 C 120.689 -2.11791 -0.876203 0
M  V30 1199 C 121.689 -1.04268 -1.22412 0
M  V30 1200 O 122.879 -1.30242 -1.15684 0
M  V30 1201 C 120.011 -2.62207 -2.17854 0
M  V30 1202 H 121.204 -2.9716 -0.40444 0
M  V30 1203 H 118.757 -1.55333 -0.173557 0
M  V30 1204 H 119.492 -1.803 -2.6956 0
M  V30 1205 H 119.277 -3.40802 -1.93897 0
M  V30 1206 H 120.767 -3.04335 -2.85955 0
M  V30 1207 N 121.204 0.198386 -1.56346 0
M  V30 1208 C 122.167 1.22952 -1.93431 0
M  V30 1209 C 123.167 1.38611 -0.815092 0
M  V30 1210 O 124.357 1.36479 -1.08255 0
M  V30 1211 C 121.489 2.59946 -2.20546 0
M  V30 1212 H 122.682 0.912626 -2.85677 0
M  V30 1213 H 120.235 0.43977 -1.49986 0
M  V30 1214 H 120.97 2.96696 -1.30927 0
M  V30 1215 H 120.755 2.49953 -3.02102 0
M  V30 1216 H 122.245 3.3431 -2.50253 0
M  V30 1217 N 122.682 1.50554 0.465978 0
M  V30 1218 C 124.093 1.54599 1.04671 0
M  V30 1219 C 124.444 0.352488 1.93008 0
M  V30 1220 O 123.569 -0.534044 2.09707 0
M  V30 1221 C 124.164 2.80166 1.90505 0
M  V30 1222 C 122.723 2.86876 2.43678 0
M  V30 1223 C 121.87 2.48947 1.22151 0
M  V30 1224 H 124.821 1.56744 0.248384 0
M  V30 1225 H 124.842 2.62311 2.75633 0
M  V30 1226 H 124.354 3.67013 1.26186 0
M  V30 1227 H 122.455 2.04393 3.11536 0
M  V30 1228 H 122.568 3.89885 2.78436 0
M  V30 1229 H 120.932 2.01498 1.5579 0
M  V30 1230 H 121.715 3.38107 0.594866 0
M  V30 1231 N 124.16 -0.719506 1.40217 0
M  V30 1232 C 125.107 -1.83359 1.40172 0
M  V30 1233 C 126.077 -1.64065 0.259206 0
M  V30 1234 O 127.262 -1.85254 0.456677 0
M  V30 1235 C 124.402 -3.2103 1.26624 0
M  V30 1236 C 123.515 -3.51923 2.50548 0
M  V30 1237 C 122.65 -4.79079 2.29471 0
M  V30 1238 C 121.689 -5.02863 3.48992 0
M  V30 1239 N 120.826 -6.2123 3.27135 0
M  V30 1240 H 125.666 -1.82733 2.35399 0
M  V30 1241 H 123.203 -0.892688 1.16917 0
M  V30 1242 H 125.161 -4.00524 1.16776 0
M  V30 1243 H 123.791 -3.20895 0.350176 0
M  V30 1244 H 122.843 -2.67014 2.70939 0
M  V30 1245 H 124.155 -3.6541 3.39525 0
M  V30 1246 H 123.309 -5.66582 2.16955 0
M  V30 1247 H 122.048 -4.67794 1.37913 0
M  V30 1248 H 121.053 -4.13816 3.6199 0
M  V30 1249 H 122.278 -5.16023 4.41472 0
M  V30 1250 H 120.224 -6.11204 2.38256 0
M  V30 1251 H 120.141 -6.35375 4.09675 0
M  V30 1252 H 121.409 -7.11532 3.18344 0
M  V30 1253 N 125.638 -1.25649 -0.95132 0
M  V30 1254 C 126.884 -1.10757 -1.69884 0
M  V30 1255 C 127.217 0.350061 -1.91019 0
M  V30 1256 O 126.492 1.25783 -1.48354 0
M  V30 1257 C 126.775 -1.86606 -3.07978 0
M  V30 1258 C 126.628 -3.40217 -2.94232 0
M  V30 1259 C 127.947 -1.65182 -4.07925 0
M  V30 1260 H 125.066 -0.40374 -0.616574 0
M  V30 1261 H 127.708 -1.54521 -1.10558 0
M  V30 1262 H 125.858 -1.49409 -3.58621 0
M  V30 1263 H 127.53 -3.87108 -2.50889 0
M  V30 1264 H 125.773 -3.67759 -2.30078 0
M  V30 1265 H 126.444 -3.88505 -3.92133 0
M  V30 1266 H 128.92 -1.9757 -3.66204 0
M  V30 1267 H 127.796 -2.20683 -5.02583 0
M  V30 1268 H 128.057 -0.593933 -4.38092 0
M  V30 1269 N 127.117 1.15442 -1.07289 0
M  V30 1270 C 128.027 2.23786 -0.704057 0
M  V30 1271 C 129.043 1.7166 0.284413 0
M  V30 1272 O 130.219 2.00972 0.131205 0
M  V30 1273 C 127.284 3.46535 -0.106792 0
M  V30 1274 C 126.345 4.13654 -1.14842 0
M  V30 1275 C 125.578 5.30544 -0.57956 0
M  V30 1276 O 125.801 5.67187 0.604585 0
M  V30 1277 O 124.735 5.87154 -1.32414 0
M  V30 1278 H 128.561 2.57664 -1.60757 0
M  V30 1279 H 126.146 1.23152 -0.845803 0
M  V30 1280 H 128.028 4.20804 0.224048 0
M  V30 1281 H 126.703 3.14407 0.770049 0
M  V30 1282 H 125.61 3.4131 -1.5316 0
M  V30 1283 H 126.943 4.49861 -1.99714 0
M  V30 1284 N 128.595 0.856903 1.32268 0
M  V30 1285 C 129.823 0.475439 2.01363 0
M  V30 1286 C 130.238 -0.928486 1.64392 0
M  V30 1287 O 129.595 -1.60624 0.866387 0
M  V30 1288 C 129.646 0.607545 3.56358 0
M  V30 1289 O 129.367 1.95617 3.92002 0
M  V30 1290 C 130.868 0.225382 4.42727 0
M  V30 1291 H 128.088 0.186636 0.644521 0
M  V30 1292 H 130.632 1.15446 1.68797 0
M  V30 1293 H 128.787 -0.0237719 3.87393 0
M  V30 1294 H 129.201 1.95455 4.86721 0
M  V30 1295 H 130.675 0.368813 5.50767 0
M  V30 1296 H 131.152 -0.834369 4.31202 0
M  V30 1297 H 131.758 0.831864 4.17085 0
M  V30 1298 N 130.073 -1.45103 0.615059 0
M  V30 1299 C 131.301 -2.06553 0.11977 0
M  V30 1300 C 131.716 -1.45842 -1.19898 0
M  V30 1301 O 131.073 -0.575325 -1.73194 0
M  V30 1302 C 131.124 -3.61495 -0.018364 0
M  V30 1303 O 130.845 -4.19942 1.24822 0
M  V30 1304 C 132.346 -4.39947 -0.544237 0
M  V30 1305 H 129.566 -0.667096 0.0722739 0
M  V30 1306 H 132.11 -1.8623 0.84491 0
M  V30 1307 H 130.265 -3.81135 -0.693865 0
M  V30 1308 H 130.679 -5.13204 1.0827 0
M  V30 1309 H 132.153 -5.48838 -0.589953 0
M  V30 1310 H 132.63 -4.10255 -1.56805 0
M  V30 1311 H 133.236 -4.25188 0.0974703 0
M  V30 1312 N 131.551 -0.354651 -1.53558 0
M  V30 1313 C 132.779 0.239515 -2.05509 0
M  V30 1314 C 133.194 1.4333 -1.2289 0
M  V30 1315 O 132.551 1.80538 -0.266899 0
M  V30 1316 C 132.602 0.643719 -3.55723 0
M  V30 1317 O 132.323 -0.502602 -4.35207 0
M  V30 1318 C 133.824 1.29743 -4.23889 0
M  V30 1319 H 131.044 0.0442697 -0.669538 0
M  V30 1320 H 133.588 -0.509856 -1.98042 0
M  V30 1321 H 131.743 1.34302 -3.63376 0
M  V30 1322 H 132.157 -0.178172 -5.24197 0
M  V30 1323 H 133.631 1.53091 -5.30346 0
M  V30 1324 H 134.108 2.25441 -3.76926 0
M  V30 1325 H 134.714 0.639865 -4.20459 0
M  V30 1326 N 133.029 1.57378 -0.0835403 0
M  V30 1327 C 133.959 2.1641 0.87686 0
M  V30 1328 C 134.94 1.09429 1.30228 0
M  V30 1329 O 136.125 1.37516 1.37124 0
M  V30 1330 C 133.255 2.73517 2.14022 0
M  V30 1331 C 132.209 3.85769 1.85381 0
M  V30 1332 C 131.535 4.29529 3.18448 0
M  V30 1333 C 132.835 5.09486 1.14984 0
M  V30 1334 H 134.529 2.96914 0.385059 0
M  V30 1335 H 132.075 1.42823 0.18377 0
M  V30 1336 H 134.028 3.13463 2.81636 0
M  V30 1337 H 132.752 1.90252 2.65465 0
M  V30 1338 H 131.411 3.46345 1.20169 0
M  V30 1339 H 131.059 3.43169 3.67755 0
M  V30 1340 H 130.759 5.05204 3.00071 0
M  V30 1341 H 132.283 4.72099 3.8724 0
M  V30 1342 H 133.697 5.46674 1.72687 0
M  V30 1343 H 132.094 5.90515 1.06826 0
M  V30 1344 H 133.164 4.84724 0.130749 0
M  V30 1345 N 134.507 -0.190092 1.56449 0
M  V30 1346 C 135.455 -1.25501 1.95837 0
M  V30 1347 C 136.449 -1.4685 0.844485 0
M  V30 1348 O 137.655 -1.47651 1.02952 0
M  V30 1349 H 134.03 -0.421447 0.622805 0
M  V30 1350 H 136.001 -0.895821 2.84636 0
M  V30 1351 C 134.75 -2.59124 2.31841 0
M  V30 1352 H 134.073 -2.43514 3.17082 0
M  V30 1353 H 135.513 -3.32371 2.6326 0
M  V30 1354 C 133.972 -3.16488 1.15486 0
M  V30 1355 O 134.502 -3.99365 0.432535 0
M  V30 1356 N 132.708 -2.75305 0.930349 0
M  V30 1357 H 132.255 -2.08013 1.51948 0
M  V30 1358 H 132.213 -3.14024 0.153634 0
M  V30 1359 N 135.985 -1.50799 -0.457987 0
M  V30 1360 C 137.234 -1.6168 -1.20593 0
M  V30 1361 C 137.547 -0.32888 -1.92815 0
M  V30 1362 O 138.753 -0.316773 -2.69646 0
M  V30 1363 C 137.209 -2.8545 -2.19195 0
M  V30 1364 C 136.817 -4.21168 -1.52715 0
M  V30 1365 C 138.561 -3.05681 -2.94549 0
M  V30 1366 C 136.468 -5.3611 -2.4968 0
M  V30 1367 H 135.398 -0.602134 -0.453818 0
M  V30 1368 H 138.049 -1.77245 -0.475031 0
M  V30 1369 H 136.431 -2.63472 -2.95632 0
M  V30 1370 H 137.605 -4.53449 -0.819775 0
M  V30 1371 H 135.92 -4.06648 -0.895922 0
M  V30 1372 H 138.517 -3.88727 -3.67145 0
M  V30 1373 H 138.86 -2.17929 -3.54701 0
M  V30 1374 H 139.393 -3.27901 -2.25223 0
M  V30 1375 H 136.132 -6.26057 -1.94249 0
M  V30 1376 H 135.652 -5.0823 -3.18532 0
M  V30 1377 H 137.331 -5.6722 -3.11241 0
M  V30 1378 N 137.463 0.71206 -1.40597 0
M  V30 1379 C 138.395 1.83704 -1.37061 0
M  V30 1380 C 139.408 1.60453 -0.275426 0
M  V30 1381 O 140.597 1.70262 -0.53602 0
M  V30 1382 C 137.697 3.20172 -1.11099 0
M  V30 1383 C 136.87 3.7059 -2.3234 0
M  V30 1384 C 135.929 4.85681 -2.02485 0
M  V30 1385 O 134.955 4.9815 -2.75382 0
M  V30 1386 N 136.157 5.71735 -1.00497 0
M  V30 1387 H 138.922 1.87235 -2.34016 0
M  V30 1388 H 136.483 0.893739 -1.34996 0
M  V30 1389 H 138.475 3.94768 -0.891064 0
M  V30 1390 H 137.045 3.11767 -0.227989 0
M  V30 1391 H 136.265 2.87085 -2.7014 0
M  V30 1392 H 137.553 4.01011 -3.13157 0
M  V30 1393 H 136.951 5.64275 -0.401298 0
M  V30 1394 H 135.508 6.463 -0.844942 0
M  V30 1395 N 138.941 1.26152 0.944643 0
M  V30 1396 C 139.889 1.07215 2.06417 0
M  V30 1397 C 140.883 9.2007e-05 1.694 0
M  V30 1398 O 142.089 0.1565 1.79318 0
M  V30 1399 H 138.464 0.329837 0.675805 0
M  V30 1400 H 140.435 2.02099 2.19541 0
M  V30 1401 C 139.184 0.718197 3.40202 0
M  V30 1402 H 138.507 1.53497 3.69159 0
M  V30 1403 H 139.947 0.625459 4.19361 0
M  V30 1404 C 138.406 -0.576435 3.31932 0
M  V30 1405 O 138.936 -1.61574 3.67773 0
M  V30 1406 N 137.142 -0.565781 2.85039 0
M  V30 1407 H 136.689 0.280367 2.5607 0
M  V30 1408 H 136.647 -1.43213 2.79888 0
M  V30 1409 N 140.419 -1.14872 1.07899 0
M  V30 1410 C 141.366 -2.19791 0.704319 0
M  V30 1411 C 142.336 -1.63238 -0.306987 0
M  V30 1412 O 143.521 -1.8983 -0.192171 0
M  V30 1413 C 140.661 -3.44911 0.114244 0
M  V30 1414 C 139.774 -4.15637 1.1777 0
M  V30 1415 C 138.909 -5.28324 0.552037 0
M  V30 1416 C 137.948 -5.90875 1.59789 0
M  V30 1417 N 137.085 -6.95022 0.994404 0
M  V30 1418 H 141.925 -2.5119 1.60336 0
M  V30 1419 H 139.462 -1.23356 0.801352 0
M  V30 1420 H 141.42 -4.16477 -0.245544 0
M  V30 1421 H 140.05 -3.14011 -0.74813 0
M  V30 1422 H 139.102 -3.42512 1.65499 0
M  V30 1423 H 140.414 -4.5823 1.97046 0
M  V30 1424 H 139.568 -6.06538 0.1402 0
M  V30 1425 H 138.307 -4.86939 -0.272431 0
M  V30 1426 H 137.312 -5.11369 2.01945 0
M  V30 1427 H 138.537 -6.34337 2.42474 0
M  V30 1428 H 136.483 -6.55722 0.190939 0
M  V30 1429 H 136.4 -7.36073 1.72432 0
M  V30 1430 H 137.668 -7.77123 0.608253 0
M  V30 1431 N 141.898 -0.863906 -1.31812 0
M  V30 1432 C 143.147 -0.46801 -1.96195 0
M  V30 1433 C 143.46 0.983474 -1.69077 0
M  V30 1434 O 144.666 1.48523 -2.27273 0
M  V30 1435 C 143.122 -0.785995 -3.51212 0
M  V30 1436 C 142.73 -2.25383 -3.87178 0
M  V30 1437 C 144.474 -0.458274 -4.22019 0
M  V30 1438 C 142.381 -2.51455 -5.3528 0
M  V30 1439 H 141.311 -0.171283 -0.734287 0
M  V30 1440 H 143.962 -1.05597 -1.50072 0
M  V30 1441 H 142.344 -0.127359 -3.95795 0
M  V30 1442 H 143.518 -2.95502 -3.53575 0
M  V30 1443 H 141.833 -2.54698 -3.2942 0
M  V30 1444 H 144.43 -0.630369 -5.30971 0
M  V30 1445 H 144.773 0.600834 -4.11941 0
M  V30 1446 H 145.306 -1.07319 -3.8305 0
M  V30 1447 H 142.045 -3.56025 -5.50387 0
M  V30 1448 H 141.565 -1.85923 -5.70257 0
M  V30 1449 H 143.244 -2.35874 -6.02472 0
M  V30 1450 N 143.376 1.44774 -0.622745 0
M  V30 1451 C 144.787 1.85546 -0.207226 0
M  V30 1452 C 145.138 1.52093 1.23944 0
M  V30 1453 O 144.263 0.95492 1.94191 0
M  V30 1454 C 144.858 3.36781 -0.369313 0
M  V30 1455 C 143.417 3.76399 -0.00836847 0
M  V30 1456 C 142.564 2.68664 -0.686651 0
M  V30 1457 H 145.515 1.3536 -0.828454 0
M  V30 1458 H 145.536 3.78453 0.394162 0
M  V30 1459 H 145.048 3.61098 -1.42231 0
M  V30 1460 H 143.149 3.57698 1.04322 0
M  V30 1461 H 143.262 4.7732 -0.412584 0
M  V30 1462 H 141.626 2.54404 -0.122777 0
M  V30 1463 H 142.409 2.95815 -1.74208 0
M  V30 1464 N 144.854 0.36279 1.53368 0
M  V30 1465 C 145.817 -0.472679 2.24273 0
M  V30 1466 C 146.817 -1.012 1.24961 0
M  V30 1467 O 148.007 -0.898194 1.49259 0
M  V30 1468 C 145.139 -1.66039 2.97731 0
M  V30 1469 H 146.332 0.14773 2.99536 0
M  V30 1470 H 143.885 0.114434 1.55881 0
M  V30 1471 H 144.62 -2.31896 2.26704 0
M  V30 1472 H 144.405 -1.28066 3.70596 0
M  V30 1473 H 145.895 -2.25252 3.51641 0
M  V30 1474 N 146.332 -1.57332 0.0918853 0
M  V30 1475 C 147.264 -2.10869 -0.898168 0
M  V30 1476 C 148.277 -1.04521 -1.24817 0
M  V30 1477 O 149.466 -1.31977 -1.20184 0
M  V30 1478 C 146.566 -2.57083 -2.2082 0
M  V30 1479 C 145.739 -3.87229 -2.03402 0
M  V30 1480 C 144.798 -4.19324 -3.17889 0
M  V30 1481 O 143.824 -4.88598 -2.91994 0
M  V30 1482 N 145.026 -3.74471 -4.43567 0
M  V30 1483 H 147.791 -2.96439 -0.440943 0
M  V30 1484 H 145.352 -1.61631 -0.0933064 0
M  V30 1485 H 147.344 -2.75602 -2.96354 0
M  V30 1486 H 145.914 -1.76541 -2.57977 0
M  V30 1487 H 145.134 -3.7789 -1.12218 0
M  V30 1488 H 146.422 -4.72379 -1.89038 0
M  V30 1489 H 145.82 -3.18546 -4.67488 0
M  V30 1490 H 144.377 -3.98151 -5.16061 0
M  V30 1491 N 147.81 0.181792 -1.56548 0
M  V30 1492 C 149.038 0.915947 -1.85521 0
M  V30 1493 C 149.453 1.76282 -0.676016 0
M  V30 1494 O 148.81 1.79012 0.355077 0
M  V30 1495 C 148.861 1.80126 -3.13427 0
M  V30 1496 O 148.582 0.988562 -4.26801 0
M  V30 1497 C 150.083 2.64597 -3.55673 0
M  V30 1498 H 147.303 0.26661 -0.61576 0
M  V30 1499 H 149.847 0.185039 -2.03661 0
M  V30 1500 H 148.002 2.48563 -2.97145 0
M  V30 1501 H 148.416 1.59308 -4.99721 0
M  V30 1502 H 149.89 3.2235 -4.48101 0
M  V30 1503 H 150.367 3.38958 -2.79292 0
M  V30 1504 H 150.973 2.0151 -3.74532 0
M  V30 1505 N 149.288 1.51039 0.449983 0
M  V30 1506 C 150.235 1.71439 1.54523 0
M  V30 1507 C 151.205 0.555871 1.56522 0
M  V30 1508 O 152.39 0.788871 1.73728 0
M  V30 1509 C 149.53 1.83384 2.92343 0
M  V30 1510 C 148.643 3.10873 2.9997 0
M  V30 1511 C 147.778 3.13488 4.28834 0
M  V30 1512 C 146.817 4.35343 4.30282 0
M  V30 1513 N 145.954 4.35579 5.5065 0
M  V30 1514 H 150.794 2.64934 1.36433 0
M  V30 1515 H 148.331 1.31312 0.662982 0
M  V30 1516 H 150.289 1.88291 3.72293 0
M  V30 1517 H 148.919 0.933086 3.0902 0
M  V30 1518 H 147.971 3.15336 2.12761 0
M  V30 1519 H 149.283 4.00814 2.96901 0
M  V30 1520 H 148.437 3.17241 5.17149 0
M  V30 1521 H 147.176 2.21414 4.34543 0
M  V30 1522 H 146.181 4.3178 3.40362 0
M  V30 1523 H 147.406 5.28668 4.26248 0
M  V30 1524 H 145.352 3.46369 5.57104 0
M  V30 1525 H 145.269 5.19313 5.49409 0
M  V30 1526 H 146.537 4.43507 6.41032 0
M  V30 1527 N 150.766 -0.704594 1.40972 0
M  V30 1528 C 151.991 -1.49858 1.43378 0
M  V30 1529 C 152.416 -1.88061 0.038184 0
M  V30 1530 O 151.774 -1.5402 -0.956425 0
M  V30 1531 C 151.822 -2.74333 2.34038 0
M  V30 1532 O 150.926 -3.7147 1.7912 0
M  V30 1533 H 150.267 -0.45139 0.486974 0
M  V30 1534 H 152.797 -0.866832 1.8533 0
M  V30 1535 H 152.807 -3.22741 2.49604 0
M  V30 1536 H 151.482 -2.45863 3.35446 0
M  V30 1537 H 150.059 -3.30363 1.72958 0
M  V30 1538 N 152.244 -1.26651 -0.937939 0
M  V30 1539 C 153.655 -1.1125 -1.49934 0
M  V30 1540 C 154.006 0.306077 -1.93798 0
M  V30 1541 O 153.131 1.19792 -1.80219 0
M  V30 1542 C 153.726 -2.01339 -2.72485 0
M  V30 1543 C 152.285 -1.90074 -3.24883 0
M  V30 1544 C 151.432 -1.94498 -1.97651 0
M  V30 1545 H 154.383 -1.39693 -0.753091 0
M  V30 1546 H 154.404 -1.56319 -3.46907 0
M  V30 1547 H 153.916 -3.04577 -2.40529 0
M  V30 1548 H 152.017 -0.897827 -3.61621 0
M  V30 1549 H 152.13 -2.75778 -3.9177 0
M  V30 1550 H 150.494 -1.38591 -2.13693 0
M  V30 1551 H 151.277 -2.99372 -1.68022 0
M  V30 1552 N 153.722 1.14298 -1.08507 0
M  V30 1553 C 154.632 2.23027 -0.727753 0
M  V30 1554 C 155.648 1.71952 0.26619 0
M  V30 1555 O 156.824 2.011 0.109882 0
M  V30 1556 C 153.889 3.46403 -0.143541 0
M  V30 1557 C 152.95 4.12413 -1.19223 0
M  V30 1558 C 152.183 5.29899 -0.635798 0
M  V30 1559 O 152.406 5.67796 0.544393 0
M  V30 1560 O 151.34 5.85717 -1.38634 0
M  V30 1561 H 155.166 2.55945 -1.63481 0
M  V30 1562 H 152.751 1.22248 -0.858817 0
M  V30 1563 H 154.633 4.21018 0.179404 0
M  V30 1564 H 153.308 3.15206 0.736659 0
M  V30 1565 H 152.215 3.39667 -1.56772 0
M  V30 1566 H 153.548 4.47718 -2.04474 0
M  V30 1567 N 155.201 0.870884 1.31352 0
M  V30 1568 C 156.111 0.330783 2.32256 0
M  V30 1569 C 157.127 -0.559767 1.6475 0
M  V30 1570 O 158.303 -0.456263 1.96164 0
M  V30 1571 C 155.368 -0.458137 3.4366 0
M  V30 1572 C 154.429 0.460482 4.26823 0
M  V30 1573 C 153.662 -0.290881 5.32907 0
M  V30 1574 O 153.885 -1.51885 5.49806 0
M  V30 1575 O 152.819 0.351732 6.00871 0
M  V30 1576 H 156.645 1.16718 2.80376 0
M  V30 1577 H 154.23 0.634285 1.35267 0
M  V30 1578 H 156.112 -0.905343 4.1156 0
M  V30 1579 H 154.787 -1.27106 2.97701 0
M  V30 1580 H 153.694 0.956207 3.61673 0
M  V30 1581 H 155.027 1.23903 4.7635 0
M  V30 1582 N 156.679 -1.44442 0.630414 0
M  V30 1583 C 157.907 -2.06414 0.141671 0
M  V30 1584 C 158.322 -1.47105 -1.18345 0
M  V30 1585 O 157.679 -0.593662 -1.72574 0
M  V30 1586 C 157.73 -3.61494 0.0199784 0
M  V30 1587 O 157.451 -4.18594 1.29269 0
M  V30 1588 C 158.952 -4.40499 -0.497544 0
M  V30 1589 H 156.172 -0.666292 0.0793452 0
M  V30 1590 H 158.716 -1.85323 0.864614 0
M  V30 1591 H 156.871 -3.8185 -0.653402 0
M  V30 1592 H 157.285 -5.12026 1.13707 0
M  V30 1593 H 158.759 -5.49433 -0.531708 0
M  V30 1594 H 159.236 -4.11895 -1.52445 0
M  V30 1595 H 159.842 -4.25061 0.142562 0
M  V30 1596 N 158.157 -0.370918 -1.53173 0
M  V30 1597 C 159.434 0.273754 -1.93675 0
M  V30 1598 C 159.814 1.65938 -1.3049 0
M  V30 1599 O 159.162 2.23698 -0.465999 0
M  V30 1600 C 159.372 0.318602 -3.47543 0
M  V30 1601 C 160.72 0.556392 -4.20939 0
M  V30 1602 O 161.744 0.399587 -3.53952 0
M  V30 1603 O 160.603 0.862133 -5.39657 0
M  V30 1604 H 157.697 0.165448 -0.810281 0
M  V30 1605 H 160.243 -0.42409 -1.64315 0
M  V30 1606 H 159.015 -0.652687 -3.85818 0
M  V30 1607 H 158.638 1.06212 -3.83151 0
M  V30 1608 N 159.635 1.57281 -0.100228 0
M  V30 1609 C 160.582 2.14305 0.856858 0
M  V30 1610 C 161.552 1.06296 1.27634 0
M  V30 1611 O 162.737 1.34109 1.35718 0
M  V30 1612 C 159.877 2.73184 2.10866 0
M  V30 1613 C 158.99 3.95442 1.73925 0
M  V30 1614 C 158.125 4.42468 2.93931 0
M  V30 1615 C 157.164 5.57303 2.5314 0
M  V30 1616 N 156.301 5.99158 3.65997 0
M  V30 1617 H 161.141 2.95772 0.363726 0
M  V30 1618 H 158.678 1.46139 0.167858 0
M  V30 1619 H 160.636 3.05442 2.84185 0
M  V30 1620 H 159.266 1.94437 2.57671 0
M  V30 1621 H 158.318 3.69464 0.905554 0
M  V30 1622 H 159.63 4.78769 1.39935 0
M  V30 1623 H 158.784 4.76537 3.75496 0
M  V30 1624 H 157.523 3.58052 3.31134 0
M  V30 1625 H 156.528 5.22857 1.70003 0
M  V30 1626 H 157.753 6.43471 2.17075 0
M  V30 1627 H 155.699 5.17687 4.02909 0
M  V30 1628 H 155.616 6.77295 3.35869 0
M  V30 1629 H 156.884 6.3786 4.48057 0
M  V30 1630 N 161.113 -0.173488 1.56642 0
M  V30 1631 C 162.023 -1.23482 1.99473 0
M  V30 1632 C 163.039 -1.48567 0.905752 0
M  V30 1633 O 164.215 -1.60758 1.21321 0
M  V30 1634 C 161.28 -2.55444 2.34413 0
M  V30 1635 C 160.341 -2.38241 3.57127 0
M  V30 1636 C 159.574 -3.63909 3.90392 0
M  V30 1637 O 159.797 -4.68996 3.24653 0
M  V30 1638 O 158.731 -3.58149 4.83749 0
M  V30 1639 H 162.557 -0.901279 2.90018 0
M  V30 1640 H 160.142 -0.380185 1.44482 0
M  V30 1641 H 162.024 -3.33292 2.57865 0
M  V30 1642 H 160.699 -2.88382 1.4703 0
M  V30 1643 H 159.606 -1.58431 3.38896 0
M  V30 1644 H 160.939 -2.10228 4.45045 0
M  V30 1645 N 162.591 -1.51276 -0.441967 0
M  V30 1646 C 163.538 -1.72256 -1.53612 0
M  V30 1647 C 164.508 -0.564164 -1.56225 0
M  V30 1648 O 165.693 -0.798074 -1.73307 0
M  V30 1649 C 162.833 -1.84932 -2.91366 0
M  V30 1650 C 161.946 -3.12459 -2.98317 0
M  V30 1651 C 161.081 -3.15758 -4.27166 0
M  V30 1652 C 160.12 -4.37619 -4.27967 0
M  V30 1653 N 159.257 -4.38493 -5.48333 0
M  V30 1654 H 164.097 -2.65654 -1.35026 0
M  V30 1655 H 161.634 -1.31662 -0.656009 0
M  V30 1656 H 163.592 -1.90263 -3.7129 0
M  V30 1657 H 162.222 -0.949461 -3.08521 0
M  V30 1658 H 161.274 -3.1646 -2.11086 0
M  V30 1659 H 162.586 -4.02382 -2.94771 0
M  V30 1660 H 161.74 -3.19979 -5.15459 0
M  V30 1661 H 160.479 -2.23715 -4.33362 0
M  V30 1662 H 159.484 -4.33579 -3.38067 0
M  V30 1663 H 160.709 -5.30921 -4.23438 0
M  V30 1664 H 158.655 -3.49318 -5.55259 0
M  V30 1665 H 158.572 -5.22219 -5.46647 0
M  V30 1666 H 159.84 -4.469 -6.38671 0
M  V30 1667 N 164.069 0.697108 -1.41344 0
M  V30 1668 C 165.315 1.4593 -1.40827 0
M  V30 1669 C 165.648 1.94193 -0.0167098 0
M  V30 1670 O 164.923 1.69425 0.955263 0
M  V30 1671 C 165.206 2.67229 -2.41373 0
M  V30 1672 C 165.059 2.24741 -3.8963 0
M  V30 1673 C 166.378 3.69423 -2.39196 0
M  V30 1674 H 163.497 0.529303 -0.512842 0
M  V30 1675 H 166.139 0.794112 -1.72609 0
M  V30 1676 H 164.289 3.23982 -2.14401 0
M  V30 1677 H 165.961 1.73327 -4.27499 0
M  V30 1678 H 164.204 1.56542 -4.0457 0
M  V30 1679 H 164.875 3.1177 -4.55525 0
M  V30 1680 H 167.351 3.2234 -2.63128 0
M  V30 1681 H 166.227 4.51907 -3.11563 0
M  V30 1682 H 166.488 4.19012 -1.41001 0
M  V30 1683 N 165.547 1.27147 0.931209 0
M  V30 1684 C 166.497 1.06227 2.01742 0
M  V30 1685 C 167.481 -0.00859065 1.60898 0
M  V30 1686 O 168.673 0.209537 1.75755 0
M  V30 1687 C 165.802 0.707787 3.35924 0
M  V30 1688 C 164.888 1.81661 3.83223 0
M  V30 1689 N 165.279 3.05564 4.03069 0
M  V30 1690 C 163.577 1.70249 4.12227 0
M  V30 1691 C 164.278 3.77697 4.42403 0
M  V30 1692 N 163.254 3.0544 4.49675 0
M  V30 1693 H 167.056 2.00261 2.15111 0
M  V30 1694 H 164.57 1.1781 1.11779 0
M  V30 1695 H 166.567 0.539043 4.134 0
M  V30 1696 H 165.227 -0.224964 3.2392 0
M  V30 1697 H 166.238 3.41363 3.89476 0
M  V30 1698 H 162.915 0.840329 4.08956 0
M  V30 1699 H 164.305 4.84168 4.65866 0
M  V30 1700 N 167.025 -1.13721 1.09112 0
M  V30 1701 C 167.955 -2.21148 0.749385 0
M  V30 1702 C 168.936 -1.6792 -0.271475 0
M  V30 1703 O 170.121 -1.93693 -0.140251 0
M  V30 1704 C 167.251 -3.46905 0.165659 0
M  V30 1705 C 166.205 -4.13203 1.11567 0
M  V30 1706 C 165.531 -5.33248 0.393809 0
M  V30 1707 C 166.831 -4.60912 2.45678 0
M  V30 1708 H 168.525 -2.4999 1.64758 0
M  V30 1709 H 166.071 -1.20156 0.793626 0
M  V30 1710 H 168.024 -4.21313 -0.085466 0
M  V30 1711 H 166.748 -3.17449 -0.767714 0
M  V30 1712 H 165.407 -3.40758 1.35202 0
M  V30 1713 H 165.055 -5.00054 -0.543599 0
M  V30 1714 H 164.755 -5.78552 1.02721 0
M  V30 1715 H 166.279 -6.10413 0.150908 0
M  V30 1716 H 167.693 -5.26759 2.26269 0
M  V30 1717 H 166.09 -5.16944 3.04776 0
M  V30 1718 H 167.16 -3.75603 3.06677 0
M  V30 1719 N 168.503 -0.877838 -1.30888 0
M  V30 1720 C 169.728 -0.506629 -2.01117 0
M  V30 1721 C 170.153 0.895564 -1.65412 0
M  V30 1722 O 169.511 1.5923 -0.866922 0
M  V30 1723 C 169.559 -0.680223 -3.54126 0
M  V30 1724 O 168.663 0.277033 -4.11468 0
M  V30 1725 H 168.004 -0.200518 -0.633 0
M  V30 1726 H 170.534 -1.18342 -1.66902 0
M  V30 1727 H 170.544 -0.5765 -4.03907 0
M  V30 1728 H 169.219 -1.70261 -3.79452 0
M  V30 1729 H 167.796 0.127606 -3.72682 0
M  V30 1730 N 169.982 1.44106 -0.638065 0
M  V30 1731 C 171.259 1.95453 -0.0759321 0
M  V30 1732 C 171.639 1.57984 1.40015 0
M  V30 1733 O 170.987 0.857361 2.11806 0
M  V30 1734 C 171.197 3.47655 -0.306132 0
M  V30 1735 C 172.545 4.24114 -0.203008 0
M  V30 1736 O 173.569 3.55405 -0.237871 0
M  V30 1737 O 172.428 5.46381 -0.113827 0
M  V30 1738 H 169.522 0.826797 0.0183332 0
M  V30 1739 H 172.068 1.54122 -0.710251 0
M  V30 1740 H 170.84 3.68 -1.3301 0
M  V30 1741 H 170.463 3.95949 0.361991 0
M  V30 1742 N 171.46 0.379036 1.52974 0
M  V30 1743 C 172.685 -0.209353 2.06341 0
M  V30 1744 C 173.11 -1.40583 1.24972 0
M  V30 1745 O 172.468 -1.79246 0.272155 0
M  V30 1746 C 172.516 -0.567786 3.56102 0
M  V30 1747 O 171.62 -1.66318 3.77375 0
M  V30 1748 H 170.961 -0.0272919 0.663439 0
M  V30 1749 H 173.491 0.543536 1.97248 0
M  V30 1750 H 173.501 -0.835003 3.99364 0
M  V30 1751 H 172.176 0.307013 4.14765 0
M  V30 1752 H 170.753 -1.39048 3.46006 0
M  V30 1753 N 172.938 -1.57226 0.108567 0
M  V30 1754 C 173.848 -2.18292 -0.859401 0
M  V30 1755 C 174.864 -1.15612 -1.30038 0
M  V30 1756 O 176.04 -1.48039 -1.36552 0
M  V30 1757 C 173.105 -2.762 -2.09558 0
M  V30 1758 C 172.166 -3.93881 -1.70752 0
M  V30 1759 C 171.399 -4.49018 -2.88477 0
M  V30 1760 O 171.622 -4.03068 -4.036 0
M  V30 1761 O 170.556 -5.39852 -2.66164 0
M  V30 1762 H 174.382 -3.01441 -0.369769 0
M  V30 1763 H 171.967 -1.48945 -0.1165 0
M  V30 1764 H 173.849 -3.13156 -2.81978 0
M  V30 1765 H 172.524 -1.96089 -2.57548 0
M  V30 1766 H 171.431 -3.61713 -0.954714 0
M  V30 1767 H 172.764 -4.75396 -1.27513 0
M  V30 1768 N 174.416 0.165178 -1.56732 0
M  V30 1769 C 175.832 0.517174 -1.50988 0
M  V30 1770 C 176.032 1.84331 -0.813894 0
M  V30 1771 O 175.088 2.49672 -0.37682 0
M  V30 1772 C 176.401 0.544261 -2.95733 0
M  V30 1773 C 177.949 0.631039 -3.06573 0
M  V30 1774 C 178.424 0.68896 -4.52788 0
M  V30 1775 N 179.915 0.751683 -4.5706 0
M  V30 1776 C 180.65 0.817177 -5.67547 0
M  V30 1777 N 180.146 0.843129 -6.8765 0
M  V30 1778 N 181.939 0.856668 -5.55534 0
M  V30 1779 H 174.09 -0.704318 -2.00382 0
M  V30 1780 H 176.353 -0.254687 -0.913148 0
M  V30 1781 H 176.059 -0.361607 -3.49836 0
M  V30 1782 H 175.933 1.3886 -3.5071 0
M  V30 1783 H 178.32 1.52733 -2.52501 0
M  V30 1784 H 178.401 -0.240095 -2.54671 0
M  V30 1785 H 178.045 -0.2031 -5.07494 0
M  V30 1786 H 177.975 1.57633 -5.02454 0
M  V30 1787 H 180.466 0.739661 -3.70591 0
M  V30 1788 H 180.779 0.894448 -7.67606 0
M  V30 1789 H 179.124 0.811304 -6.90248 0
M  V30 1790 H 182.315 0.833437 -4.60621 0
M  V30 1791 H 182.488 0.904247 -6.4166 0
M  V30 1792 N 175.894 1.51508 0.433938 0
M  V30 1793 C 176.841 1.73068 1.52696 0
M  V30 1794 C 177.811 0.572441 1.55924 0
M  V30 1795 O 178.996 0.807253 1.72882 0
M  V30 1796 C 176.136 1.86474 2.90381 0
M  V30 1797 C 175.249 3.14037 2.96656 0
M  V30 1798 C 174.384 3.18019 4.25485 0
M  V30 1799 C 173.423 4.39882 4.2564 0
M  V30 1800 N 172.56 4.41394 5.45999 0
M  V30 1801 H 177.4 2.66366 1.33615 0
M  V30 1802 H 174.937 1.32008 0.649018 0
M  V30 1803 H 176.895 1.92229 3.70275 0
M  V30 1804 H 175.525 0.965809 3.08013 0
M  V30 1805 H 174.577 3.17575 2.09404 0
M  V30 1806 H 175.889 4.0394 2.92633 0
M  V30 1807 H 175.043 3.22708 5.13755 0
M  V30 1808 H 173.782 2.2601 4.3217 0
M  V30 1809 H 172.787 4.35366 3.35763 0
M  V30 1810 H 174.012 5.33159 4.20617 0
M  V30 1811 H 171.958 3.52258 5.53399 0
M  V30 1812 H 171.875 5.25111 5.4387 0
M  V30 1813 H 173.143 4.50281 6.36292 0
M  V30 1814 N 177.372 -0.689602 1.41712 0
M  V30 1815 C 178.305 -1.81403 1.3845 0
M  V30 1816 C 179.283 -1.60653 0.250874 0
M  V30 1817 O 180.467 -1.83323 0.43874 0
M  V30 1818 C 177.594 -3.18176 1.1611 0
M  V30 1819 C 176.64 -3.57705 2.3227 0
M  V30 1820 S 177.473 -3.61827 3.94767 0
M  V30 1821 C 178.629 -5.01318 3.74742 0
M  V30 1822 H 178.862 -1.83893 2.33603 0
M  V30 1823 H 176.395 -0.858878 1.28307 0
M  V30 1824 H 178.353 -3.97132 1.03907 0
M  V30 1825 H 177.014 -3.13288 0.225668 0
M  V30 1826 H 176.207 -4.57082 2.12349 0
M  V30 1827 H 175.809 -2.86073 2.40911 0
M  V30 1828 H 178.101 -5.88986 3.34817 0
M  V30 1829 H 179.044 -5.26283 4.73743 0
M  V30 1830 H 179.452 -4.73138 3.07898 0
M  V30 1831 N 178.85 -1.27639 -0.924453 0
M  V30 1832 C 180.127 -1.04887 -1.651 0
M  V30 1833 C 180.507 0.415327 -2.06974 0
M  V30 1834 O 179.855 1.39923 -1.80648 0
M  V30 1835 C 180.065 -2.01348 -2.85061 0
M  V30 1836 C 181.413 -2.30899 -3.56329 0
M  V30 1837 O 182.437 -1.99348 -2.95193 0
M  V30 1838 O 181.296 -2.84699 -4.66485 0
M  V30 1839 H 178.39 -0.400083 -0.723784 0
M  V30 1840 H 180.936 -1.38916 -0.974703 0
M  V30 1841 H 179.708 -3.0008 -2.51133 0
M  V30 1842 H 179.331 -1.679 -3.6041 0
M  V30 1843 N 180.328 1.1314 -1.09713 0
M  V30 1844 C 181.739 1.66029 -0.853885 0
M  V30 1845 C 182.09 1.86241 0.617142 0
M  V30 1846 O 181.215 1.5834 1.47503 0
M  V30 1847 C 181.81 3.01599 -1.5435 0
M  V30 1848 C 180.369 3.51467 -1.34714 0
M  V30 1849 C 179.516 2.26648 -1.59769 0
M  V30 1850 H 182.467 0.970226 -1.25588 0
M  V30 1851 H 182.488 3.67709 -0.978267 0
M  V30 1852 H 182 2.86856 -2.6141 0
M  V30 1853 H 180.101 3.71408 -0.297838 0
M  V30 1854 H 180.214 4.314 -2.08401 0
M  V30 1855 H 178.578 2.33385 -1.01998 0
M  V30 1856 H 179.361 2.14467 -2.68065 0
M  V30 1857 N 181.806 0.884767 1.30421 0
M  V30 1858 C 182.769 0.356277 2.26414 0
M  V30 1859 C 183.769 -0.501124 1.52792 0
M  V30 1860 O 184.959 -0.30831 1.7145 0
M  V30 1861 C 182.091 -0.492316 3.37326 0
M  V30 1862 H 183.284 1.20389 2.74675 0
M  V30 1863 H 180.837 0.661607 1.41607 0
M  V30 1864 H 181.572 -1.36052 2.94381 0
M  V30 1865 H 181.357 0.121832 3.91911 0
M  V30 1866 H 182.847 -0.853871 4.08777 0
M  V30 1867 N 183.284 -1.43765 0.645699 0
M  V30 1868 C 184.194 -2.34544 -0.0512957 0
M  V30 1869 C 185.21 -1.53455 -0.82022 0
M  V30 1870 O 186.386 -1.86133 -0.769176 0
M  V30 1871 C 183.451 -3.31636 -1.01087 0
M  V30 1872 C 182.512 -4.2863 -0.239712 0
M  V30 1873 C 181.745 -5.21084 -1.15358 0
M  V30 1874 O 181.968 -5.1779 -2.39269 0
M  V30 1875 O 180.902 -5.98593 -0.630038 0
M  V30 1876 H 184.728 -2.95624 0.695718 0
M  V30 1877 H 182.313 -1.43781 0.405882 0
M  V30 1878 H 184.195 -3.9136 -1.56254 0
M  V30 1879 H 182.87 -2.73069 -1.73824 0
M  V30 1880 H 181.777 -3.72408 0.355356 0
M  V30 1881 H 183.11 -4.90157 0.447936 0
M  V30 1882 N 184.763 -0.387143 -1.52771 0
M  V30 1883 C 185.673 0.456442 -2.30117 0
M  V30 1884 C 186.689 1.07342 -1.36944 0
M  V30 1885 O 187.865 1.07971 -1.70013 0
M  V30 1886 C 184.93 1.56957 -3.09136 0
M  V30 1887 C 183.991 0.977916 -4.18014 0
M  V30 1888 C 183.224 2.038 -4.93256 0
M  V30 1889 O 183.447 3.25271 -4.68567 0
M  V30 1890 O 182.381 1.6565 -5.78657 0
M  V30 1891 H 186.207 -0.17359 -3.03203 0
M  V30 1892 H 183.792 -0.150919 -1.48636 0
M  V30 1893 H 185.674 2.21628 -3.58412 0
M  V30 1894 H 184.349 2.18461 -2.38865 0
M  V30 1895 H 183.256 0.294525 -3.72939 0
M  V30 1896 H 184.589 0.407128 -4.90513 0
M  V30 1897 N 186.241 1.57166 -0.116904 0
M  V30 1898 C 187.518 1.86645 0.585049 0
M  V30 1899 C 187.898 1.0177 1.84949 0
M  V30 1900 O 187.246 0.0960379 2.28298 0
M  V30 1901 C 187.456 3.37736 0.879507 0
M  V30 1902 C 188.804 4.06289 1.23348 0
M  V30 1903 O 189.828 3.42743 0.969836 0
M  V30 1904 O 188.687 5.18455 1.7282 0
M  V30 1905 H 185.781 0.772593 0.295007 0
M  V30 1906 H 188.327 1.69025 -0.151249 0
M  V30 1907 H 187.099 3.91296 -0.0166136 0
M  V30 1908 H 186.722 3.6078 1.67103 0
M  V30 1909 N 187.719 -0.156864 1.56817 0
M  V30 1910 C 188.947 -0.886316 1.86955 0
M  V30 1911 C 189.362 -1.75185 0.703975 0
M  V30 1912 O 188.719 -1.79555 -0.326552 0
M  V30 1913 C 188.77 -1.75117 3.16253 0
M  V30 1914 O 188.491 -0.920537 4.2832 0
M  V30 1915 C 189.992 -2.58905 3.59837 0
M  V30 1916 H 187.212 -0.25678 0.619923 0
M  V30 1917 H 189.756 -0.152615 2.0393 0
M  V30 1918 H 187.911 -2.43805 3.01062 0
M  V30 1919 H 188.325 -1.51337 5.02192 0
M  V30 1920 H 189.799 -3.1518 4.53172 0
M  V30 1921 H 190.276 -3.34472 2.84649 0
M  V30 1922 H 190.882 -1.95526 3.7769 0
M  V30 1923 N 189.197 -1.51736 -0.425897 0
M  V30 1924 C 190.145 -1.74464 -1.53834 0
M  V30 1925 C 191.139 -0.611241 -1.57988 0
M  V30 1926 O 192.345 -0.792899 -1.61596 0
M  V30 1927 H 188.72 -0.551437 -0.511293 0
M  V30 1928 H 190.691 -2.67694 -1.31843 0
M  V30 1929 C 189.44 -1.8972 -2.91379 0
M  V30 1930 H 188.763 -2.76344 -2.88919 0
M  V30 1931 H 190.203 -2.09629 -3.68553 0
M  V30 1932 C 188.662 -0.65992 -3.30374 0
M  V30 1933 O 189.192 0.180083 -4.01296 0
M  V30 1934 N 187.398 -0.500677 -2.86254 0
M  V30 1935 H 186.945 -1.18532 -2.28709 0
M  V30 1936 H 186.903 0.325903 -3.12706 0
M  V30 1937 N 190.675 0.682077 -1.42076 0
M  V30 1938 C 191.921 1.44428 -1.42367 0
M  V30 1939 C 192.254 1.94164 -0.0373056 0
M  V30 1940 O 191.529 1.70429 0.937239 0
M  V30 1941 C 191.812 2.64654 -2.44194 0
M  V30 1942 C 191.665 2.20596 -3.91991 0
M  V30 1943 C 192.984 3.66865 -2.431 0
M  V30 1944 H 190.103 0.523834 -0.518428 0
M  V30 1945 H 192.745 0.77576 -1.73442 0
M  V30 1946 H 190.895 3.2169 -2.17826 0
M  V30 1947 H 192.567 1.68783 -4.29313 0
M  V30 1948 H 190.81 1.52242 -4.06208 0
M  V30 1949 H 191.481 3.06921 -4.58807 0
M  V30 1950 H 193.957 3.19531 -2.66532 0
M  V30 1951 H 192.833 4.48577 -3.16339 0
M  V30 1952 H 193.094 4.17493 -1.45437 0
M  V30 1953 N 192.153 1.28127 0.917671 0
M  V30 1954 C 193.383 1.17722 1.6978 0
M  V30 1955 C 193.791 -0.267261 1.87303 0
M  V30 1956 O 193.134 -1.19286 1.39702 0
M  V30 1957 C 193.196 1.79958 3.11216 0
M  V30 1958 C 192.86 3.29187 3.16993 0
M  V30 1959 C 193.857 4.25679 2.98485 0
M  V30 1960 C 191.542 3.70075 3.39632 0
M  V30 1961 C 193.536 5.61035 3.02521 0
M  V30 1962 C 191.223 5.05557 3.433 0
M  V30 1963 C 192.221 6.00847 3.24764 0
M  V30 1964 O 191.909 7.33859 3.28187 0
M  V30 1965 H 191.641 0.409788 0.537634 0
M  V30 1966 H 194.195 1.69694 1.15728 0
M  V30 1967 H 192.425 1.22475 3.66793 0
M  V30 1968 H 194.114 1.64125 3.71238 0
M  V30 1969 H 194.88 3.95426 2.80826 0
M  V30 1970 H 190.759 2.96373 3.53106 0
M  V30 1971 H 194.303 6.35388 2.87971 0
M  V30 1972 H 190.2 5.35462 3.60486 0
M  V30 1973 H 190.968 7.42436 3.44575 0
M  V30 1974 N 193.631 -1.12557 1.10312 0
M  V30 1975 C 194.859 -1.87864 0.866873 0
M  V30 1976 C 195.274 -1.79588 -0.582557 0
M  V30 1977 O 194.631 -1.16887 -1.40156 0
M  V30 1978 C 194.682 -3.37125 1.30496 0
M  V30 1979 O 194.403 -3.45201 2.69755 0
M  V30 1980 C 195.904 -4.29373 1.10243 0
M  V30 1981 H 193.124 -0.594452 0.311236 0
M  V30 1982 H 195.668 -1.42429 1.46745 0
M  V30 1983 H 193.823 -3.80109 0.748081 0
M  V30 1984 H 194.237 -4.38056 2.88457 0
M  V30 1985 H 195.711 -5.32394 1.45811 0
M  V30 1986 H 196.188 -4.39181 0.0409492 0
M  V30 1987 H 196.794 -3.92169 1.64571 0
M  V30 1988 N 195.109 -0.891671 -1.2995 0
M  V30 1989 C 196.019 -0.367691 -2.31701 0
M  V30 1990 C 197.035 0.533486 -1.6562 0
M  V30 1991 O 198.211 0.424997 -1.96865 0
M  V30 1992 C 195.276 0.403406 -3.44345 0
M  V30 1993 C 194.337 -0.528328 -4.26037 0
M  V30 1994 C 193.57 0.206063 -5.33302 0
M  V30 1995 O 193.793 1.43119 -5.52153 0
M  V30 1996 O 192.727 -0.447281 -6.00236 0
M  V30 1997 H 196.553 -1.21163 -2.78484 0
M  V30 1998 H 194.138 -0.655725 -1.34241 0
M  V30 1999 H 196.02 0.839753 -4.12948 0
M  V30 2000 H 194.695 1.22354 -2.99685 0
M  V30 2001 H 193.602 -1.01362 -3.60106 0
M  V30 2002 H 194.935 -1.31465 -4.74318 0
M  V30 2003 N 196.587 1.43421 -0.653314 0
M  V30 2004 C 197.534 2.30768 0.0382271 0
M  V30 2005 C 198.504 1.44755 0.814576 0
M  V30 2006 O 199.689 1.73624 0.791162 0
M  V30 2007 C 196.829 3.30336 0.998599 0
M  V30 2008 C 195.942 4.31448 0.218342 0
M  V30 2009 C 195.077 5.18098 1.17252 0
M  V30 2010 C 194.116 6.10902 0.382702 0
M  V30 2011 N 193.253 6.90176 1.28848 0
M  V30 2012 H 198.093 2.89357 -0.712511 0
M  V30 2013 H 195.63 1.42548 -0.363128 0
M  V30 2014 H 197.588 3.86572 1.56901 0
M  V30 2015 H 196.218 2.73397 1.71621 0
M  V30 2016 H 195.27 3.77506 -0.46836 0
M  V30 2017 H 196.582 4.97227 -0.395812 0
M  V30 2018 H 195.736 5.7896 1.81356 0
M  V30 2019 H 194.475 4.52444 1.82058 0
M  V30 2020 H 193.48 5.49128 -0.27169 0
M  V30 2021 H 194.705 6.78598 -0.260957 0
M  V30 2022 H 192.651 6.27171 1.92334 0
M  V30 2023 H 192.568 7.52478 0.728887 0
M  V30 2024 H 193.836 7.55543 1.91766 0
M  V30 2025 N 198.065 0.39524 1.52563 0
M  V30 2026 C 199.015 -0.4541 2.23432 0
M  V30 2027 C 199.999 -1.02482 1.24042 0
M  V30 2028 O 201.191 -0.949938 1.49349 0
M  V30 2029 C 198.32 -1.57769 3.049 0
M  V30 2030 C 197.406 -1.01842 4.1169 0
M  V30 2031 N 197.797 -0.184613 5.05463 0
M  V30 2032 C 196.095 -1.29033 4.26927 0
M  V30 2033 C 196.796 0.125013 5.81566 0
M  V30 2034 N 195.772 -0.480498 5.41472 0
M  V30 2035 H 199.574 0.189413 2.93289 0
M  V30 2036 H 197.088 0.204877 1.61102 0
M  V30 2037 H 199.085 -2.19862 3.54212 0
M  V30 2038 H 197.745 -2.22397 2.36579 0
M  V30 2039 H 198.756 0.178602 5.17592 0
M  V30 2040 H 195.433 -1.93721 3.69836 0
M  V30 2041 H 196.823 0.800962 6.67109 0
M  V30 2042 N 199.544 -1.57102 0.125237 0
M  V30 2043 C 200.769 -2.0019 -0.542101 0
M  V30 2044 C 201.194 -1.00449 -1.59034 0
M  V30 2045 O 200.552 0.0229423 -1.81285 0
M  V30 2046 C 200.6 -3.42129 -1.13929 0
M  V30 2047 O 199.704 -3.45307 -2.2547 0
M  V30 2048 H 199.045 -0.650171 -0.134812 0
M  V30 2049 H 201.575 -2.03461 0.215553 0
M  V30 2050 H 201.585 -3.80471 -1.4733 0
M  V30 2051 H 200.26 -4.14237 -0.371531 0
M  V30 2052 H 198.837 -3.1879 -1.93462 0
M  V30 2053 N 201.022 0.148545 -1.56898 0
M  V30 2054 C 202.299 0.890019 -1.74178 0
M  V30 2055 C 202.679 1.99407 -0.692839 0
M  V30 2056 O 202.027 2.26671 0.288505 0
M  V30 2057 C 202.237 1.43389 -3.18183 0
M  V30 2058 C 203.585 1.89791 -3.79822 0
M  V30 2059 O 204.609 1.53134 -3.21603 0
M  V30 2060 O 203.468 2.57387 -4.82093 0
M  V30 2061 H 200.562 0.420496 -0.712118 0
M  V30 2062 H 203.108 0.134591 -1.69165 0
M  V30 2063 H 201.88 0.640383 -3.86024 0
M  V30 2064 H 201.503 2.25287 -3.27615 0
M  V30 2065 N 202.5 1.5196 0.417844 0
M  V30 2066 C 203.725 1.69717 1.1921 0
M  V30 2067 C 204.15 0.402148 1.83751 0
M  V30 2068 O 203.508 -0.639593 1.69643 0
M  V30 2069 C 203.556 2.82794 2.2374 0
M  V30 2070 O 202.66 2.47756 3.29683 0
M  V30 2071 H 202.001 0.565263 0.348387 0
M  V30 2072 H 204.531 1.98621 0.490985 0
M  V30 2073 H 204.541 3.07452 2.68212 0
M  V30 2074 H 203.216 3.76756 1.76146 0
M  V30 2075 H 201.793 2.33739 2.90552 0
M  V30 2076 N 203.978 -0.674533 1.42435 0
M  V30 2077 C 204.908 -1.80009 1.48724 0
M  V30 2078 C 205.889 -1.6659 0.343793 0
M  V30 2079 O 207.074 -1.86007 0.558137 0
M  V30 2080 C 204.204 -3.18306 1.38919 0
M  V30 2081 C 203.158 -3.46461 2.51294 0
M  V30 2082 C 202.484 -4.84335 2.26547 0
M  V30 2083 C 203.784 -3.43328 3.93603 0
M  V30 2084 H 205.478 -1.75004 2.42928 0
M  V30 2085 H 203.024 -0.840533 1.16923 0
M  V30 2086 H 204.977 -3.9678 1.41927 0
M  V30 2087 H 203.701 -3.2399 0.412094 0
M  V30 2088 H 202.36 -2.70348 2.47604 0
M  V30 2089 H 202.008 -4.86669 1.2713 0
M  V30 2090 H 201.708 -5.04136 3.01861 0
M  V30 2091 H 203.232 -5.65094 2.31304 0
M  V30 2092 H 204.646 -4.11772 3.98894 0
M  V30 2093 H 203.043 -3.74664 4.68771 0
M  V30 2094 H 204.113 -2.41897 4.20255 0
M  V30 2095 N 205.456 -1.28612 -0.910864 0
M  V30 2096 C 206.703 -1.15934 -1.66029 0
M  V30 2097 C 207.031 0.291483 -1.92303 0
M  V30 2098 O 206.286 1.22816 -1.52364 0
M  V30 2099 C 206.585 -1.90624 -3.0232 0
M  V30 2100 C 206.251 -3.40405 -2.95695 0
M  V30 2101 C 204.913 -3.81255 -2.93595 0
M  V30 2102 C 207.265 -4.359 -2.85728 0
M  V30 2103 C 204.593 -5.15936 -2.79334 0
M  V30 2104 C 206.945 -5.70657 -2.73007 0
M  V30 2105 C 205.609 -6.10779 -2.69267 0
M  V30 2106 H 204.879 -0.424234 -0.607541 0
M  V30 2107 H 207.526 -1.5942 -1.06101 0
M  V30 2108 H 205.831 -1.39696 -3.6605 0
M  V30 2109 H 207.528 -1.78228 -3.59215 0
M  V30 2110 H 204.118 -3.07927 -2.98125 0
M  V30 2111 H 208.302 -4.053 -2.86436 0
M  V30 2112 H 203.558 -5.46146 -2.74835 0
M  V30 2113 H 207.732 -6.44311 -2.64264 0
M  V30 2114 H 205.359 -7.1509 -2.57974 0
M  V30 2115 N 206.934 1.1197 -1.10907 0
M  V30 2116 C 207.881 2.17846 -0.762345 0
M  V30 2117 C 208.851 1.63995 0.263599 0
M  V30 2118 O 210.036 1.90273 0.141773 0
M  V30 2119 C 207.176 3.44487 -0.205651 0
M  V30 2120 C 206.289 4.12369 -1.28748 0
M  V30 2121 C 205.424 5.26674 -0.691919 0
M  V30 2122 C 204.463 5.86431 -1.75399 0
M  V30 2123 N 203.6 6.92142 -1.17833 0
M  V30 2124 H 208.44 2.46851 -1.6694 0
M  V30 2125 H 205.977 1.21188 -0.833776 0
M  V30 2126 H 207.935 4.16981 0.135037 0
M  V30 2127 H 206.565 3.15884 0.664613 0
M  V30 2128 H 205.617 3.38003 -1.74522 0
M  V30 2129 H 206.929 4.52844 -2.09125 0
M  V30 2130 H 206.083 6.05953 -0.300963 0
M  V30 2131 H 204.822 4.8749 0.143232 0
M  V30 2132 H 203.827 5.05835 -2.15432 0
M  V30 2133 H 205.052 6.27685 -2.59208 0
M  V30 2134 H 202.998 6.54985 -0.364725 0
M  V30 2135 H 202.915 7.31242 -1.91887 0
M  V30 2136 H 204.183 7.75237 -0.81408 0
M  V30 2137 N 208.412 0.89855 1.29475 0
M  V30 2138 C 209.828 0.594483 1.48115 0
M  V30 2139 C 210.028 -0.86431 1.82022 0
M  V30 2140 O 209.084 -1.64457 1.91599 0
M  V30 2141 C 210.397 1.51932 2.59494 0
M  V30 2142 C 211.945 1.5244 2.7337 0
M  V30 2143 C 212.42 2.43548 3.87877 0
M  V30 2144 N 213.911 2.41589 3.95208 0
M  V30 2145 C 214.646 3.08789 4.83153 0
M  V30 2146 N 214.142 3.85265 5.75798 0
M  V30 2147 N 215.935 2.97952 4.76635 0
M  V30 2148 H 208.086 1.84207 1.05742 0
M  V30 2149 H 210.349 0.789251 0.525154 0
M  V30 2150 H 210.055 2.55865 2.41301 0
M  V30 2151 H 209.929 1.23899 3.56271 0
M  V30 2152 H 212.316 0.492518 2.90961 0
M  V30 2153 H 212.397 1.8451 1.77172 0
M  V30 2154 H 212.041 3.46829 3.71041 0
M  V30 2155 H 211.971 2.08788 4.83441 0
M  V30 2156 H 214.462 1.86025 3.28943 0
M  V30 2157 H 214.775 4.33598 6.39697 0
M  V30 2158 H 213.12 3.89371 5.75687 0
M  V30 2159 H 216.311 2.37723 4.03244 0
M  V30 2160 H 216.484 3.50599 5.44962 0
M  V30 2161 N 209.89 -1.43072 0.660911 0
M  V30 2162 C 211.118 -2.06067 0.185422 0
M  V30 2163 C 211.533 -1.49582 -1.15198 0
M  V30 2164 O 210.89 -0.630134 -1.71276 0
M  V30 2165 C 210.941 -3.61371 0.0966523 0
M  V30 2166 O 210.662 -4.15758 1.38119 0
M  V30 2167 C 212.163 -4.41455 -0.403996 0
M  V30 2168 H 209.383 -0.664459 0.0934604 0
M  V30 2169 H 211.927 -1.83447 0.90373 0
M  V30 2170 H 210.082 -3.8315 -0.572259 0
M  V30 2171 H 210.496 -5.09499 1.24542 0
M  V30 2172 H 211.97 -5.50437 -0.415045 0
M  V30 2173 H 212.447 -4.15036 -1.43674 0
M  V30 2174 H 213.053 -4.24663 0.232691 0
M  V30 2175 N 211.368 -0.403325 -1.52352 0
M  V30 2176 C 212.278 0.432009 -2.30588 0
M  V30 2177 C 213.294 1.05884 -1.38075 0
M  V30 2178 O 214.47 1.06161 -1.71148 0
M  V30 2179 C 211.535 1.53669 -3.10784 0
M  V30 2180 C 210.596 0.933525 -4.19027 0
M  V30 2181 C 209.829 1.98557 -4.9539 0
M  V30 2182 O 210.052 3.20283 -4.71991 0
M  V30 2183 O 208.986 1.59504 -5.80381 0
M  V30 2184 H 212.812 -0.205739 -3.03002 0
M  V30 2185 H 210.397 -0.166675 -1.48467 0
M  V30 2186 H 212.279 2.17814 -3.60742 0
M  V30 2187 H 210.954 2.15915 -2.41169 0
M  V30 2188 H 209.861 0.254954 -3.7323 0
M  V30 2189 H 211.194 0.35508 -4.90918 0
M  V30 2190 N 212.846 1.57033 -0.133567 0
M  V30 2191 C 214.092 1.95976 0.521649 0
M  V30 2192 C 214.425 1.01779 1.65393 0
M  V30 2193 O 213.7 0.0576581 1.94415 0
M  V30 2194 C 213.983 3.44738 1.04057 0
M  V30 2195 C 213.836 4.49711 -0.0892897 0
M  V30 2196 C 215.155 3.95682 1.92675 0
M  V30 2197 H 212.274 0.712579 0.188149 0
M  V30 2198 H 214.916 1.88813 -0.212076 0
M  V30 2199 H 213.066 3.50973 1.66583 0
M  V30 2200 H 214.738 4.55565 -0.725152 0
M  V30 2201 H 212.981 4.27261 -0.750378 0
M  V30 2202 H 213.652 5.51099 0.315284 0
M  V30 2203 H 216.128 3.91841 1.39998 0
M  V30 2204 H 215.004 5.00262 2.25897 0
M  V30 2205 H 215.265 3.37239 2.85872 0
M  V30 2206 N 214.325 -0.140222 1.56975 0
M  V30 2207 C 215.255 -1.17456 2.01808 0
M  V30 2208 C 216.236 -1.44415 0.898794 0
M  V30 2209 O 217.421 -1.5522 1.16707 0
M  V30 2210 C 214.551 -2.50607 2.40444 0
M  V30 2211 C 213.505 -2.38155 3.55621 0
M  V30 2212 C 212.831 -3.76078 3.80091 0
M  V30 2213 C 214.131 -1.85991 4.88062 0
M  V30 2214 H 215.825 -0.801743 2.88466 0
M  V30 2215 H 213.371 -0.38422 1.38779 0
M  V30 2216 H 215.324 -3.23197 2.7041 0
M  V30 2217 H 214.048 -2.89737 1.50732 0
M  V30 2218 H 212.707 -1.68016 3.25832 0
M  V30 2219 H 212.355 -4.12656 2.87618 0
M  V30 2220 H 212.055 -3.68606 4.57606 0
M  V30 2221 H 213.579 -4.50206 4.12488 0
M  V30 2222 H 214.993 -2.4838 5.16701 0
M  V30 2223 H 213.39 -1.89393 5.6943 0
M  V30 2224 H 214.46 -0.816023 4.77984 0
M  V30 2225 N 215.803 -1.52179 -0.40978 0
M  V30 2226 C 216.766 -1.74853 -1.48186 0
M  V30 2227 C 217.766 -0.618417 -1.48433 0
M  V30 2228 O 218.956 -0.886286 -1.49969 0
M  V30 2229 C 216.088 -1.8303 -2.87598 0
M  V30 2230 H 217.281 -2.70559 -1.29374 0
M  V30 2231 H 214.834 -1.42586 -0.640233 0
M  V30 2232 H 215.569 -0.89236 -3.11781 0
M  V30 2233 H 215.354 -2.65187 -2.88822 0
M  V30 2234 H 216.844 -2.02316 -3.65319 0
M  V30 2235 N 217.281 0.66697 -1.42791 0
M  V30 2236 C 218.244 1.76211 -1.46568 0
M  V30 2237 C 219.244 1.56896 -0.352196 0
M  V30 2238 O 220.434 1.63044 -0.613364 0
M  V30 2239 C 217.566 3.14935 -1.30494 0
M  V30 2240 H 218.759 1.74247 -2.44086 0
M  V30 2241 H 216.312 0.877342 -1.29354 0
M  V30 2242 H 217.047 3.2252 -0.339301 0
M  V30 2243 H 216.832 3.30359 -2.11199 0
M  V30 2244 H 218.322 3.94821 -1.36038 0
M  V30 2245 N 218.759 1.29093 0.90403 0
M  V30 2246 C 220.005 1.16986 1.65656 0
M  V30 2247 C 220.338 -0.278925 1.92186 0
M  V30 2248 O 219.613 -1.2019 1.5292 0
M  V30 2249 C 219.896 1.97908 3.0084 0
M  V30 2250 C 219.749 3.50903 2.81403 0
M  V30 2251 C 221.068 1.80208 4.01513 0
M  V30 2252 H 218.187 0.426346 0.601164 0
M  V30 2253 H 220.829 1.58518 1.04747 0
M  V30 2254 H 218.979 1.62616 3.52829 0
M  V30 2255 H 220.651 3.96153 2.36348 0
M  V30 2256 H 218.894 3.76045 2.1627 0
M  V30 2257 H 219.565 4.02791 3.77443 0
M  V30 2258 H 222.041 2.11025 3.58619 0
M  V30 2259 H 220.917 2.39184 4.94047 0
M  V30 2260 H 221.178 0.756119 4.35586 0
M  V30 2261 N 220.237 -1.11381 1.11499 0
M  V30 2262 C 221.486 -1.82494 0.858993 0
M  V30 2263 C 221.799 -1.85605 -0.617278 0
M  V30 2264 O 223.005 -2.52824 -0.989552 0
M  V30 2265 C 221.461 -3.27745 1.48699 0
M  V30 2266 C 221.069 -3.32961 2.99735 0
M  V30 2267 C 222.813 -4.03754 1.31085 0
M  V30 2268 C 220.72 -4.72612 3.55516 0
M  V30 2269 H 219.65 -0.683802 0.317696 0
M  V30 2270 H 222.301 -1.25331 1.34031 0
M  V30 2271 H 220.683 -3.84844 0.933339 0
M  V30 2272 H 221.857 -2.85741 3.61509 0
M  V30 2273 H 220.172 -2.70433 3.16631 0
M  V30 2274 H 222.769 -5.06891 1.70192 0
M  V30 2275 H 223.112 -4.15527 0.253496 0
M  V30 2276 H 223.645 -3.53043 1.83318 0
M  V30 2277 H 220.384 -4.66036 4.60967 0
M  V30 2278 H 219.904 -5.2024 2.98513 0
M  V30 2279 H 221.583 -5.4157 3.53992 0
M  V30 2280 N 221.715 -0.905404 -1.28997 0
M  V30 2281 C 222.678 -0.392253 -2.25819 0
M  V30 2282 C 223.678 0.476753 -1.5357 0
M  V30 2283 O 224.868 0.280994 -1.71919 0
M  V30 2284 C 222 0.438588 -3.38067 0
M  V30 2285 H 223.193 -1.24743 -2.72725 0
M  V30 2286 H 220.746 -0.684051 -1.40536 0
M  V30 2287 H 221.481 1.31352 -2.96508 0
M  V30 2288 H 221.266 -0.184167 -3.91667 0
M  V30 2289 H 222.756 0.78873 -4.10084 0
M  V30 2290 N 223.193 1.4272 -0.668489 0
M  V30 2291 C 224.441 2.01226 -0.187769 0
M  V30 2292 C 224.762 1.53092 1.2078 0
M  V30 2293 O 224.032 0.74993 1.80977 0
M  V30 2294 H 222.612 0.744041 -0.0664272 0
M  V30 2295 H 225.274 1.74723 -0.863583 0
M  V30 2296 H 224.37 3.11556 -0.184166 0
M  V30 2297 N 224.671 0.411399 1.52136 0
M  V30 2298 C 225.919 -0.163322 2.01439 0
M  V30 2299 C 226.24 -1.45453 1.29879 0
M  V30 2300 O 225.51 -1.91225 0.4254 0
M  V30 2301 H 224.09 -0.0633447 0.744309 0
M  V30 2302 H 226.752 0.548161 1.87033 0
M  V30 2303 H 225.848 -0.357817 3.10042 0
M  V30 2304 N 226.149 -1.5696 0.141893 0
M  V30 2305 C 227.395 -1.9625 -0.511248 0
M  V30 2306 C 227.728 -1.02654 -1.64851 0
M  V30 2307 O 227.003 -0.0679676 -1.94381 0
M  V30 2308 C 227.286 -3.45285 -1.02227 0
M  V30 2309 C 227.139 -4.49658 0.113138 0
M  V30 2310 C 228.458 -3.96698 -1.90574 0
M  V30 2311 H 225.577 -0.713567 -0.184367 0
M  V30 2312 H 228.219 -1.88698 0.222087 0
M  V30 2313 H 226.369 -3.51852 -1.64719 0
M  V30 2314 H 228.041 -4.55174 0.749302 0
M  V30 2315 H 226.284 -4.26857 0.773026 0
M  V30 2316 H 226.955 -5.51258 -0.286053 0
M  V30 2317 H 229.431 -3.92578 -1.37918 0
M  V30 2318 H 228.307 -5.01453 -2.2324 0
M  V30 2319 H 228.568 -3.3875 -2.84079 0
M  V30 2320 N 227.627 0.131896 -1.57047 0
M  V30 2321 C 228.876 0.84044 -1.83356 0
M  V30 2322 C 229.189 1.81646 -0.725535 0
M  V30 2323 O 230.395 2.57025 -0.874659 0
M  V30 2324 C 228.851 1.54528 -3.25037 0
M  V30 2325 C 228.459 0.610902 -4.43815 0
M  V30 2326 C 230.203 2.23972 -3.60606 0
M  V30 2327 C 228.11 1.31823 -5.76521 0
M  V30 2328 H 227.04 0.317599 -0.683847 0
M  V30 2329 H 229.691 0.0931561 -1.83263 0
M  V30 2330 H 228.073 2.33873 -3.19561 0
M  V30 2331 H 229.247 -0.148407 -4.60561 0
M  V30 2332 H 227.562 0.0241016 -4.16393 0
M  V30 2333 H 230.159 2.77558 -4.57018 0
M  V30 2334 H 230.502 3.01173 -2.87403 0
M  V30 2335 H 231.035 1.51529 -3.6781 0
M  V30 2336 H 227.774 0.587771 -6.52859 0
M  V30 2337 H 227.294 2.04987 -5.63685 0
M  V30 2338 H 228.973 1.855 -6.19838 0
M  V30 2339 N 229.106 1.52395 0.401703 0
M  V30 2340 C 230.354 1.66488 1.14569 0
M  V30 2341 C 230.675 0.400897 1.90835 0
M  V30 2342 O 229.945 -0.584415 1.8698 0
M  V30 2343 H 228.525 0.613672 0.425929 0
M  V30 2344 H 231.187 1.89464 0.457093 0
M  V30 2345 H 230.283 2.50942 1.85566 0
M  V30 2346 N 230.584 -0.659388 1.43143 0
M  V30 2347 C 231.831 -1.41935 1.44433 0
M  V30 2348 C 232.159 -1.94387 0.0663522 0
M  V30 2349 O 231.414 -1.72314 -0.927706 0
M  V30 2350 C 231.713 -2.62206 2.42864 0
M  V30 2351 C 231.379 -2.28208 3.88886 0
M  V30 2352 C 230.041 -2.18647 4.28657 0
M  V30 2353 C 232.393 -2.00887 4.8093 0
M  V30 2354 C 229.721 -1.79914 5.58433 0
M  V30 2355 C 232.073 -1.63653 6.11065 0
M  V30 2356 C 230.737 -1.52614 6.49819 0
M  V30 2357 H 230.007 -0.519376 0.528517 0
M  V30 2358 H 232.654 -0.750453 1.76183 0
M  V30 2359 H 230.959 -3.34199 2.04495 0
M  V30 2360 H 232.656 -3.2041 2.41119 0
M  V30 2361 H 229.246 -2.36557 3.57406 0
M  V30 2362 H 233.43 -2.07198 4.5098 0
M  V30 2363 H 228.686 -1.69948 5.87305 0
M  V30 2364 H 232.86 -1.41543 6.81864 0
M  V30 2365 H 230.487 -1.22371 7.50286 0
M  V30 2366 N 232.062 -1.29571 -0.897171 0
M  V30 2367 C 232.992 -1.17473 -2.01798 0
M  V30 2368 C 233.973 -0.068323 -1.69963 0
M  V30 2369 O 235.158 -0.248239 -1.92607 0
M  V30 2370 C 232.288 -0.853099 -3.36659 0
M  V30 2371 C 231.242 -1.9161 -3.82713 0
M  V30 2372 C 230.568 -1.44773 -5.14728 0
M  V30 2373 C 231.868 -3.32535 -4.02763 0
M  V30 2374 H 233.562 -2.11237 -2.12177 0
M  V30 2375 H 231.108 -1.01699 -1.01948 0
M  V30 2376 H 233.061 -0.755165 -4.14578 0
M  V30 2377 H 231.785 0.120236 -3.26379 0
M  V30 2378 H 230.444 -2.00346 -3.07013 0
M  V30 2379 H 230.092 -0.462995 -5.00865 0
M  V30 2380 H 229.792 -2.15865 -5.46513 0
M  V30 2381 H 231.316 -1.36334 -5.95185 0
M  V30 2382 H 232.73 -3.26626 -4.71156 0
M  V30 2383 H 231.127 -4.01607 -4.45905 0
M  V30 2384 H 232.197 -3.75326 -3.07016 0
M  V30 2385 N 233.54 1.10788 -1.12088 0
M  V30 2386 C 234.787 1.82671 -0.873931 0
M  V30 2387 C 235.115 1.85004 0.600311 0
M  V30 2388 O 234.37 1.30365 1.45957 0
M  V30 2389 C 234.669 3.29294 -1.38926 0
M  V30 2390 C 234.335 3.47113 -2.87791 0
M  V30 2391 C 232.997 3.51684 -3.28439 0
M  V30 2392 C 235.349 3.52808 -3.83635 0
M  V30 2393 C 232.677 3.59513 -4.63646 0
M  V30 2394 C 235.029 3.62169 -5.18668 0
M  V30 2395 C 233.693 3.65003 -5.58864 0
M  V30 2396 H 232.963 0.668441 -0.319794 0
M  V30 2397 H 235.61 1.30613 -1.40045 0
M  V30 2398 H 233.915 3.83894 -0.783122 0
M  V30 2399 H 235.612 3.83416 -1.17443 0
M  V30 2400 H 232.202 3.4423 -2.5535 0
M  V30 2401 H 236.386 3.4853 -3.53328 0
M  V30 2402 H 231.642 3.59987 -4.94185 0
M  V30 2403 H 235.816 3.6552 -5.92763 0
M  V30 2404 H 233.443 3.70822 -6.63623 0
M  V30 2405 N 235.018 0.912232 1.28515 0
M  V30 2406 C 235.981 0.404223 2.25607 0
M  V30 2407 C 236.981 -0.468602 1.53821 0
M  V30 2408 O 238.171 -0.271873 1.72065 0
M  V30 2409 C 235.303 -0.420653 3.38295 0
M  V30 2410 H 236.496 1.26188 2.7206 0
M  V30 2411 H 234.049 0.691495 1.40171 0
M  V30 2412 H 234.784 -1.29777 2.97201 0
M  V30 2413 H 234.569 0.204935 3.91564 0
M  V30 2414 H 236.059 -0.766971 4.10496 0
M  V30 2415 N 236.496 -1.42363 0.676048 0
M  V30 2416 C 237.745 -2.00745 0.196037 0
M  V30 2417 C 238.058 -1.54083 -1.20489 0
M  V30 2418 O 239.264 -2.04891 -1.78134 0
M  V30 2419 C 237.72 -3.58651 0.299616 0
M  V30 2420 C 237.328 -4.143 1.70468 0
M  V30 2421 C 239.072 -4.24326 -0.121619 0
M  V30 2422 C 236.979 -5.64574 1.76096 0
M  V30 2423 H 235.909 -0.750787 0.0695301 0
M  V30 2424 H 238.56 -1.63072 0.841412 0
M  V30 2425 H 236.942 -3.93833 -0.413673 0
M  V30 2426 H 238.116 -3.90575 2.44515 0
M  V30 2427 H 236.431 -3.61081 2.07387 0
M  V30 2428 H 239.028 -5.34607 -0.0997362 0
M  V30 2429 H 239.371 -3.99897 -1.15708 0
M  V30 2430 H 239.904 -3.94108 0.540706 0
M  V30 2431 H 236.643 -5.93804 2.77628 0
M  V30 2432 H 236.163 -5.90286 1.06406 0
M  V30 2433 H 237.842 -6.29013 1.51496 0
M  V30 2434 N 237.974 -0.419461 -1.51915 0
M  V30 2435 C 239.221 0.152939 -2.01922 0
M  V30 2436 C 239.549 1.4426 -1.30458 0
M  V30 2437 O 238.804 1.91514 -0.402593 0
M  V30 2438 C 239.103 0.437067 -3.54717 0
M  V30 2439 C 238.769 -0.764632 -4.44369 0
M  V30 2440 C 237.431 -1.09423 -4.68594 0
M  V30 2441 C 239.783 -1.56713 -4.97082 0
M  V30 2442 C 237.111 -2.22732 -5.42777 0
M  V30 2443 C 239.463 -2.69107 -5.72507 0
M  V30 2444 C 238.127 -3.02541 -5.95 0
M  V30 2445 H 237.397 0.0559644 -0.738884 0
M  V30 2446 H 240.044 -0.562998 -1.83037 0
M  V30 2447 H 238.349 1.23469 -3.71837 0
M  V30 2448 H 240.046 0.893083 -3.90928 0
M  V30 2449 H 236.636 -0.497775 -4.257 0
M  V30 2450 H 240.82 -1.32571 -4.78266 0
M  V30 2451 H 236.076 -2.48971 -5.58411 0
M  V30 2452 H 240.25 -3.31671 -6.12346 0
M  V30 2453 H 237.877 -3.90457 -6.52264 0
M  V30 2454 N 239.452 1.56882 -0.150215 0
M  V30 2455 C 240.382 2.19935 0.784284 0
M  V30 2456 C 241.363 1.14854 1.25469 0
M  V30 2457 O 242.548 1.43209 1.31168 0
M  V30 2458 C 239.678 2.82349 2.02229 0
M  V30 2459 C 238.632 3.93285 1.68853 0
M  V30 2460 C 237.958 4.42649 2.99944 0
M  V30 2461 C 239.258 5.13904 0.932714 0
M  V30 2462 H 240.952 2.9828 0.258781 0
M  V30 2463 H 238.498 1.43473 0.123029 0
M  V30 2464 H 240.451 3.25126 2.68088 0
M  V30 2465 H 239.175 2.0134 2.57157 0
M  V30 2466 H 237.834 3.5113 1.05371 0
M  V30 2467 H 237.482 3.58458 3.52869 0
M  V30 2468 H 237.182 5.17476 2.78374 0
M  V30 2469 H 238.706 4.88099 3.66868 0
M  V30 2470 H 240.12 5.53506 1.49345 0
M  V30 2471 H 238.517 5.94515 0.81684 0
M  V30 2472 H 239.587 4.84842 -0.0749568 0
M  V30 2473 N 240.93 -0.123565 1.57115 0
M  V30 2474 C 242.179 -0.830704 1.83799 0
M  V30 2475 C 242.492 -1.81259 0.735158 0
M  V30 2476 O 243.698 -2.56558 0.888278 0
M  V30 2477 C 242.154 -1.52802 3.25852 0
M  V30 2478 C 241.762 -0.587356 4.44133 0
M  V30 2479 C 243.506 -2.22056 3.61789 0
M  V30 2480 C 241.413 -1.28764 5.77212 0
M  V30 2481 H 240.343 -0.313967 0.685522 0
M  V30 2482 H 242.994 -0.0834359 1.8331 0
M  V30 2483 H 241.376 -2.32175 3.20797 0
M  V30 2484 H 242.55 0.172829 4.60476 0
M  V30 2485 H 240.865 -0.00201892 4.164 0
M  V30 2486 H 243.462 -2.75131 4.58483 0
M  V30 2487 H 243.805 -2.99644 2.88997 0
M  V30 2488 H 244.338 -1.49576 3.68608 0
M  V30 2489 H 241.077 -0.55314 6.53162 0
M  V30 2490 H 240.597 -2.01995 5.64764 0
M  V30 2491 H 242.276 -1.8221 6.20813 0
M  V30 2492 N 242.408 -1.52605 -0.393616 0
M  V30 2493 C 243.338 -1.80022 -1.48709 0
M  V30 2494 C 244.319 -0.651995 -1.57108 0
M  V30 2495 O 245.504 -0.89913 -1.72132 0
M  V30 2496 C 242.634 -1.96492 -2.86371 0
M  V30 2497 C 241.588 -3.12161 -2.92813 0
M  V30 2498 C 240.914 -3.13877 -4.3288 0
M  V30 2499 C 242.214 -4.51322 -2.6288 0
M  V30 2500 H 243.908 -2.71589 -1.26015 0
M  V30 2501 H 241.454 -1.30684 -0.604778 0
M  V30 2502 H 243.407 -2.14255 -3.62867 0
M  V30 2503 H 242.131 -1.01611 -3.10391 0
M  V30 2504 H 240.79 -2.94173 -2.18764 0
M  V30 2505 H 240.438 -2.16687 -4.53933 0
M  V30 2506 H 240.138 -3.91576 -4.38112 0
M  V30 2507 H 241.662 -3.33789 -5.1129 0
M  V30 2508 H 243.076 -4.69435 -3.29096 0
M  V30 2509 H 241.473 -5.31053 -2.79468 0
M  V30 2510 H 242.543 -4.58353 -1.58242 0
M  V30 2511 N 243.887 0.651787 -1.4349 0
M  V30 2512 C 244.817 1.77621 -1.51569 0
M  V30 2513 C 245.798 1.66022 -0.370253 0
M  V30 2514 O 246.983 1.85095 -0.587658 0
M  V30 2515 C 244.113 3.16056 -1.43966 0
M  V30 2516 C 243.067 3.4242 -2.56774 0
M  V30 2517 C 242.393 4.8067 -2.34223 0
M  V30 2518 C 243.693 3.37023 -3.99015 0
M  V30 2519 H 245.387 1.71117 -2.45681 0
M  V30 2520 H 242.933 0.821825 -1.18246 0
M  V30 2521 H 244.886 3.94472 -1.48221 0
M  V30 2522 H 243.61 3.23293 -0.463586 0
M  V30 2523 H 242.269 2.66375 -2.51873 0
M  V30 2524 H 241.917 4.84585 -1.34856 0
M  V30 2525 H 241.617 4.9927 -3.09844 0
M  V30 2526 H 243.141 5.61342 -2.40265 0
M  V30 2527 H 244.555 4.05374 -4.05395 0
M  V30 2528 H 242.952 3.67159 -4.74673 0
M  V30 2529 H 244.022 2.3518 -4.2405 0
M  V30 2530 N 245.365 1.30045 0.890287 0
M  V30 2531 C 246.295 1.18541 2.01172 0
M  V30 2532 C 247.276 0.0773356 1.69924 0
M  V30 2533 O 248.461 0.25845 1.92473 0
M  V30 2534 C 245.591 0.870941 3.36202 0
M  V30 2535 C 244.545 1.93637 3.81692 0
M  V30 2536 C 243.871 1.475 5.13953 0
M  V30 2537 C 245.171 3.34666 4.00994 0
M  V30 2538 H 246.865 2.12359 2.11054 0
M  V30 2539 H 244.411 1.02238 1.01407 0
M  V30 2540 H 246.364 0.777141 4.14172 0
M  V30 2541 H 245.088 -0.102926 3.26438 0
M  V30 2542 H 243.747 2.01972 3.05946 0
M  V30 2543 H 243.395 0.489551 5.00612 0
M  V30 2544 H 243.095 2.1876 5.4536 0
M  V30 2545 H 244.619 1.39489 5.94454 0
M  V30 2546 H 246.033 3.2912 4.69417 0
M  V30 2547 H 244.43 4.03966 4.43769 0
M  V30 2548 H 245.5 3.76949 3.05021 0
M  V30 2549 N 246.843 -1.10192 1.12674 0
M  V30 2550 C 248.089 -1.82475 0.884915 0
M  V30 2551 C 248.422 -1.85093 -0.58773 0
M  V30 2552 O 247.697 -1.3134 -1.43457 0
M  V30 2553 C 247.98 -3.29018 1.46353 0
M  V30 2554 C 247.833 -3.34718 3.00473 0
M  V30 2555 C 249.152 -4.25473 1.12519 0
M  V30 2556 H 246.271 -0.662492 0.322915 0
M  V30 2557 H 248.913 -1.2913 1.39375 0
M  V30 2558 H 247.063 -3.74576 1.03077 0
M  V30 2559 H 248.735 -2.97622 3.52447 0
M  V30 2560 H 246.978 -2.74541 3.35872 0
M  V30 2561 H 247.649 -4.37918 3.36053 0
M  V30 2562 H 250.125 -3.88161 1.499 0
M  V30 2563 H 249.001 -5.26365 1.55663 0
M  V30 2564 H 249.262 -4.42084 0.0377407 0
M  V30 2565 N 248.321 -0.919034 -1.28029 0
M  V30 2566 C 249.551 -0.570143 -1.98577 0
M  V30 2567 C 249.959 0.854172 -1.68821 0
M  V30 2568 O 249.302 1.57807 -0.940351 0
M  V30 2569 C 249.364 -0.705734 -3.52505 0
M  V30 2570 C 249.028 -2.10057 -4.05863 0
M  V30 2571 C 250.025 -3.07385 -4.19298 0
M  V30 2572 C 247.71 -2.41517 -4.40426 0
M  V30 2573 C 249.704 -4.34287 -4.66555 0
M  V30 2574 C 247.391 -3.68657 -4.87376 0
M  V30 2575 C 248.389 -4.64856 -5.00398 0
M  V30 2576 O 248.077 -5.89735 -5.46322 0
M  V30 2577 H 247.809 -0.215592 -0.6407 0
M  V30 2578 H 250.363 -1.23583 -1.64062 0
M  V30 2579 H 248.593 0.0170414 -3.86696 0
M  V30 2580 H 250.282 -0.363172 -4.04272 0
M  V30 2581 H 251.048 -2.84398 -3.92865 0
M  V30 2582 H 246.927 -1.67389 -4.29537 0
M  V30 2583 H 250.471 -5.09377 -4.76635 0
M  V30 2584 H 246.368 -3.91466 -5.13249 0
M  V30 2585 H 247.136 -5.92599 -5.64596 0
M  V30 2586 N 249.799 1.42003 -0.683588 0
M  V30 2587 C 251.215 1.55625 -0.353976 0
M  V30 2588 C 251.415 1.66151 1.14 0
M  V30 2589 O 250.471 1.63329 1.92561 0
M  V30 2590 C 251.784 2.80171 -1.092 0
M  V30 2591 C 253.332 2.93954 -1.07518 0
M  V30 2592 C 253.807 4.21372 -1.79471 0
M  V30 2593 N 255.298 4.28303 -1.76381 0
M  V30 2594 C 256.033 5.25729 -2.28904 0
M  V30 2595 N 255.529 6.29254 -2.89846 0
M  V30 2596 N 257.322 5.17586 -2.19228 0
M  V30 2597 H 249.473 1.33415 -1.6527 0
M  V30 2598 H 251.736 0.64282 -0.696769 0
M  V30 2599 H 251.442 2.78561 -2.14701 0
M  V30 2600 H 251.316 3.7133 -0.662862 0
M  V30 2601 H 253.703 2.95086 -0.028475 0
M  V30 2602 H 253.784 2.04002 -1.54328 0
M  V30 2603 H 253.428 4.21001 -2.84114 0
M  V30 2604 H 253.358 5.10275 -1.30104 0
M  V30 2605 H 255.849 3.54119 -1.31939 0
M  V30 2606 H 256.162 6.99964 -3.27522 0
M  V30 2607 H 254.507 6.29791 -2.93919 0
M  V30 2608 H 257.698 4.35631 -1.71299 0
M  V30 2609 H 257.871 5.93348 -2.60466 0
M  V30 2610 N 251.277 0.427512 1.51691 0
M  V30 2611 C 252.21 -0.433876 2.24037 0
M  V30 2612 C 253.188 -1.03287 1.25581 0
M  V30 2613 O 254.372 -1.07722 1.54688 0
M  V30 2614 C 251.499 -1.60385 2.98319 0
M  V30 2615 C 250.545 -1.12648 4.11355 0
M  V30 2616 S 251.378 -0.076543 5.35445 0
M  V30 2617 C 252.534 -1.25141 6.13262 0
M  V30 2618 H 252.767 0.180367 2.96752 0
M  V30 2619 H 250.3 0.211946 1.52938 0
M  V30 2620 H 252.258 -2.27462 3.41718 0
M  V30 2621 H 250.919 -2.18948 2.25213 0
M  V30 2622 H 250.112 -2.0011 4.62571 0
M  V30 2623 H 249.714 -0.534088 3.70167 0
M  V30 2624 H 252.006 -2.17162 6.41753 0
M  V30 2625 H 252.949 -0.779411 7.03797 0
M  V30 2626 H 253.357 -1.48553 5.44603 0
M  V30 2627 N 252.755 -1.56801 0.158532 0
M  V30 2628 C 254.171 -1.5837 -0.197774 0
M  V30 2629 C 254.371 -1.17334 -1.63814 0
M  V30 2630 O 253.427 -0.878988 -2.36707 0
M  V30 2631 C 254.74 -3.00615 0.0714459 0
M  V30 2632 C 256.288 -3.12999 0.00864533 0
M  V30 2633 C 256.763 -4.57313 0.250685 0
M  V30 2634 N 258.254 -4.62777 0.198014 0
M  V30 2635 C 258.989 -5.72271 0.359642 0
M  V30 2636 N 258.485 -6.90371 0.579625 0
M  V30 2637 N 260.278 -5.61318 0.296438 0
M  V30 2638 H 252.429 -1.81765 1.09887 0
M  V30 2639 H 254.692 -0.841849 0.435884 0
M  V30 2640 H 254.398 -3.35068 1.06874 0
M  V30 2641 H 254.272 -3.71683 -0.642757 0
M  V30 2642 H 256.659 -2.7838 -0.979217 0
M  V30 2643 H 256.74 -2.44393 0.755359 0
M  V30 2644 H 256.384 -4.92639 1.2357 0
M  V30 2645 H 256.314 -5.24061 -0.516489 0
M  V30 2646 H 258.805 -3.77885 0.0331115 0
M  V30 2647 H 259.118 -7.69689 0.69275 0
M  V30 2648 H 257.463 -6.92264 0.616087 0
M  V30 2649 H 260.654 -4.67932 0.125258 0
M  V30 2650 H 260.827 -6.46599 0.425831 0
M  V30 2651 N 254.233 0.115231 -1.57178 0
M  V30 2652 C 255.18 1.14115 -2.00615 0
M  V30 2653 C 256.15 1.40939 -0.878941 0
M  V30 2654 O 257.335 1.52741 -1.14345 0
M  V30 2655 C 254.475 2.46156 -2.4187 0
M  V30 2656 C 253.588 2.26236 -3.68024 0
M  V30 2657 C 252.723 3.51534 -3.98243 0
M  V30 2658 C 251.762 3.26787 -5.17568 0
M  V30 2659 N 250.899 4.44298 -5.43639 0
M  V30 2660 H 255.739 0.763743 -2.88047 0
M  V30 2661 H 253.276 0.365615 -1.42484 0
M  V30 2662 H 255.234 3.23189 -2.63827 0
M  V30 2663 H 253.864 2.81783 -1.57475 0
M  V30 2664 H 252.916 1.40102 -3.5366 0
M  V30 2665 H 254.228 2.03929 -4.55208 0
M  V30 2666 H 253.382 4.36984 -4.20868 0
M  V30 2667 H 252.121 3.76876 -3.09541 0
M  V30 2668 H 251.126 2.39729 -4.94783 0
M  V30 2669 H 252.351 3.02812 -6.0785 0
M  V30 2670 H 250.297 4.69754 -4.57895 0
M  V30 2671 H 250.214 4.25109 -6.25154 0
M  V30 2672 H 251.482 5.3087 -5.70786 0
M  V30 2673 N 255.711 1.52812 0.385517 0
M  V30 2674 C 256.658 1.77838 1.47113 0
M  V30 2675 C 257.628 0.621757 1.54024 0
M  V30 2676 O 258.813 0.861846 1.70226 0
M  V30 2677 C 255.953 1.95618 2.84302 0
M  V30 2678 C 255.066 3.23316 2.86515 0
M  V30 2679 C 254.201 3.31394 4.15152 0
M  V30 2680 C 253.24 4.53201 4.1143 0
M  V30 2681 N 252.377 4.58542 5.3168 0
M  V30 2682 H 257.217 2.70482 1.25073 0
M  V30 2683 H 254.754 1.34006 0.606692 0
M  V30 2684 H 256.712 2.03912 3.63972 0
M  V30 2685 H 255.342 1.06331 3.04784 0
M  V30 2686 H 254.394 3.24076 1.99195 0
M  V30 2687 H 255.706 4.13045 2.79634 0
M  V30 2688 H 254.86 3.3889 5.03228 0
M  V30 2689 H 253.599 2.39645 4.24761 0
M  V30 2690 H 252.604 4.45827 3.21742 0
M  V30 2691 H 253.829 5.46271 4.03442 0
M  V30 2692 H 251.775 3.69686 5.41912 0
M  V30 2693 H 251.692 5.42148 5.26889 0
M  V30 2694 H 252.96 4.70296 6.21644 0
M  V30 2695 N 257.189 -0.644168 1.43834 0
M  V30 2696 C 258.466 -1.40188 1.36406 0
M  V30 2697 C 258.846 -2.11094 0.0163124 0
M  V30 2698 O 258.194 -2.05426 -1.00062 0
M  V30 2699 C 258.404 -2.3791 2.55343 0
M  V30 2700 C 259.752 -3.01637 2.98832 0
M  V30 2701 O 260.776 -2.48237 2.55455 0
M  V30 2702 O 259.635 -3.98477 3.74003 0
M  V30 2703 H 256.729 -0.626773 0.539523 0
M  V30 2704 H 259.275 -0.670317 1.559 0
M  V30 2705 H 258.047 -1.84525 3.4506 0
M  V30 2706 H 257.67 -3.18503 2.37995 0
M  V30 2707 N 258.668 -1.30515 -0.883378 0
M  V30 2708 C 259.578 -1.18959 -2.02203 0
M  V30 2709 C 260.594 -0.109172 -1.73657 0
M  V30 2710 O 261.77 -0.324413 -1.9877 0
M  V30 2711 C 258.835 -0.883871 -3.35244 0
M  V30 2712 C 257.896 -2.04982 -3.77201 0
M  V30 2713 C 257.129 -1.75859 -5.03894 0
M  V30 2714 O 257.352 -0.687276 -5.66244 0
M  V30 2715 O 256.286 -2.61146 -5.42297 0
M  V30 2716 H 260.112 -2.14616 -2.1488 0
M  V30 2717 H 257.697 -1.10124 -1.0096 0
M  V30 2718 H 259.579 -0.728644 -4.15053 0
M  V30 2719 H 258.254 0.0427798 -3.23672 0
M  V30 2720 H 257.161 -2.26038 -2.9809 0
M  V30 2721 H 258.494 -2.95825 -3.93381 0
M  V30 2722 N 260.146 1.09593 -1.13257 0
M  V30 2723 C 261.394 1.81375 -0.891492 0
M  V30 2724 C 261.715 1.86049 0.584009 0
M  V30 2725 O 260.985 1.34481 1.42449 0
M  V30 2726 H 259.565 0.671708 -0.326828 0
M  V30 2727 H 262.227 1.3256 -1.42877 0
M  V30 2728 H 261.323 2.84612 -1.28071 0
M  V30 2729 N 261.624 0.925811 1.2754 0
M  V30 2730 C 262.849 0.580924 1.99098 0
M  V30 2731 C 263.274 -0.833555 1.68622 0
M  V30 2732 O 262.632 -1.55903 0.925422 0
M  V30 2733 C 262.68 0.811186 3.51358 0
M  V30 2734 O 261.784 -0.124129 4.12213 0
M  V30 2735 H 261.125 0.223873 0.625122 0
M  V30 2736 H 263.655 1.24455 1.62395 0
M  V30 2737 H 263.665 0.72601 4.01489 0
M  V30 2738 H 262.34 1.84227 3.72872 0
M  V30 2739 H 260.917 0.0108006 3.72898 0
M  V30 2740 N 263.102 -1.41638 0.69111 0
M  V30 2741 C 264.332 -2.0533 0.228758 0
M  V30 2742 C 264.74 -1.52089 -1.12541 0
M  V30 2743 O 264.083 -0.662145 -1.71351 0
M  V30 2744 C 264.145 -3.59349 0.10407 0
M  V30 2745 C 263.809 -4.35362 1.38956 0
M  V30 2746 C 264.806 -4.64942 2.32648 0
M  V30 2747 C 262.491 -4.74714 1.64169 0
M  V30 2748 C 264.485 -5.32828 3.49818 0
M  V30 2749 C 262.172 -5.42338 2.81625 0
M  V30 2750 C 263.17 -5.71322 3.74273 0
M  V30 2751 O 262.858 -6.37554 4.89673 0
M  V30 2752 H 262.59 -0.667796 0.104997 0
M  V30 2753 H 265.144 -1.82477 0.942938 0
M  V30 2754 H 263.374 -3.80924 -0.665839 0
M  V30 2755 H 265.063 -4.04633 -0.320519 0
M  V30 2756 H 265.829 -4.35025 2.14425 0
M  V30 2757 H 261.708 -4.51538 0.929202 0
M  V30 2758 H 265.252 -5.55368 4.22152 0
M  V30 2759 H 261.149 -5.71673 2.99768 0
M  V30 2760 H 261.917 -6.56049 4.8943 0
M  V30 2761 N 264.58 -0.43555 -1.51462 0
M  V30 2762 C 265.857 0.191364 -1.94662 0
M  V30 2763 C 266.237 1.60254 -1.37411 0
M  V30 2764 O 265.585 2.2152 -0.560458 0
M  V30 2765 C 265.795 0.17091 -3.48581 0
M  V30 2766 C 267.143 0.377357 -4.2292 0
M  V30 2767 O 268.167 0.249104 -3.55328 0
M  V30 2768 O 267.026 0.63247 -5.42828 0
M  V30 2769 H 264.12 0.130932 -0.816569 0
M  V30 2770 H 266.666 -0.4934 -1.62369 0
M  V30 2771 H 265.438 -0.815738 -3.82703 0
M  V30 2772 H 265.061 0.898659 -3.87311 0
M  V30 2773 N 266.058 1.56714 -0.166846 0
M  V30 2774 C 266.988 2.20754 0.760913 0
M  V30 2775 C 267.969 1.16178 1.24244 0
M  V30 2776 O 269.154 1.44592 1.29641 0
M  V30 2777 C 266.284 2.84478 1.99223 0
M  V30 2778 C 265.238 3.95053 1.64672 0
M  V30 2779 C 264.564 4.45805 2.95232 0
M  V30 2780 C 265.864 5.14865 0.878155 0
M  V30 2781 H 267.558 2.98537 0.22713 0
M  V30 2782 H 265.104 1.43596 0.107805 0
M  V30 2783 H 267.057 3.27951 2.64624 0
M  V30 2784 H 265.781 2.04056 2.55007 0
M  V30 2785 H 264.44 3.52228 1.01641 0
M  V30 2786 H 264.088 3.62181 3.49047 0
M  V30 2787 H 263.788 5.204 2.7287 0
M  V30 2788 H 265.312 4.91962 3.6167 0
M  V30 2789 H 266.726 5.55059 1.43466 0
M  V30 2790 H 265.123 5.95348 0.753738 0
M  V30 2791 H 266.193 4.84735 -0.126377 0
M  V30 2792 N 267.536 -0.106894 1.57237 0
M  V30 2793 C 268.784 -0.810921 1.85117 0
M  V30 2794 C 269.105 -1.7984 0.753827 0
M  V30 2795 O 268.375 -1.94649 -0.221056 0
M  V30 2796 H 266.955 -0.302466 0.683025 0
M  V30 2797 H 269.617 -0.0913324 1.94686 0
M  V30 2798 H 268.713 -1.34875 2.81452 0
M  V30 2799 N 269.014 -1.53014 -0.377408 0
M  V30 2800 C 269.924 -1.81557 -1.48574 0
M  V30 2801 C 270.94 -0.703102 -1.59162 0
M  V30 2802 O 272.116 -0.99192 -1.75279 0
M  V30 2803 C 269.181 -1.9889 -2.83978 0
M  V30 2804 C 268.242 -3.22801 -2.83016 0
M  V30 2805 C 267.475 -3.39298 -4.11962 0
M  V30 2806 O 267.698 -2.60345 -5.0752 0
M  V30 2807 O 266.632 -4.32604 -4.18494 0
M  V30 2808 H 270.458 -2.75695 -1.27382 0
M  V30 2809 H 268.043 -1.38248 -0.566373 0
M  V30 2810 H 269.925 -2.11931 -3.6423 0
M  V30 2811 H 268.6 -1.07942 -3.05172 0
M  V30 2812 H 267.507 -3.15193 -2.01505 0
M  V30 2813 H 268.84 -4.13632 -2.66775 0
M  V30 2814 N 270.492 0.636531 -1.44174 0
M  V30 2815 C 271.908 0.954104 -1.27941 0
M  V30 2816 C 272.108 2.0039 -0.211248 0
M  V30 2817 O 271.164 2.49236 0.404695 0
M  V30 2818 C 272.477 1.4225 -2.64925 0
M  V30 2819 C 274.025 1.53827 -2.72592 0
M  V30 2820 C 274.5 2.04053 -4.10032 0
M  V30 2821 N 275.991 2.11331 -4.12182 0
M  V30 2822 C 276.726 2.51352 -5.15374 0
M  V30 2823 N 276.222 2.90549 -6.2893 0
M  V30 2824 N 278.015 2.51438 -5.02728 0
M  V30 2825 H 270.166 -0.0578386 -2.12321 0
M  V30 2826 H 272.429 0.0367406 -0.947288 0
M  V30 2827 H 272.135 0.725466 -3.44136 0
M  V30 2828 H 272.009 2.39451 -2.9145 0
M  V30 2829 H 274.396 2.22628 -1.93702 0
M  V30 2830 H 274.477 0.550154 -2.49814 0
M  V30 2831 H 274.121 1.35848 -4.89395 0
M  V30 2832 H 274.051 3.03726 -4.30184 0
M  V30 2833 H 276.542 1.83745 -3.30222 0
M  V30 2834 H 276.855 3.19884 -7.03487 0
M  V30 2835 H 275.2 2.88313 -6.32377 0
M  V30 2836 H 278.391 2.20203 -4.13072 0
M  V30 2837 H 278.564 2.82304 -5.83274 0
M  V30 2838 N 271.97 1.30982 0.876444 0
M  V30 2839 C 272.917 1.18085 1.98304 0
M  V30 2840 C 273.887 0.0682263 1.6596 0
M  V30 2841 O 275.072 0.239937 1.89285 0
M  V30 2842 C 272.212 0.887475 3.33493 0
M  V30 2843 C 271.325 2.08281 3.78475 0
M  V30 2844 C 270.46 1.72678 5.0235 0
M  V30 2845 C 269.499 2.88657 5.39762 0
M  V30 2846 N 268.636 2.53292 6.54819 0
M  V30 2847 H 273.476 2.1275 2.08666 0
M  V30 2848 H 271.013 1.05839 1.02159 0
M  V30 2849 H 272.971 0.697961 4.1132 0
M  V30 2850 H 271.601 -0.022315 3.22792 0
M  V30 2851 H 270.653 2.3833 2.96484 0
M  V30 2852 H 271.965 2.95108 4.02135 0
M  V30 2853 H 271.119 1.50151 5.87826 0
M  V30 2854 H 269.858 0.830327 4.8058 0
M  V30 2855 H 268.863 3.1184 4.52809 0
M  V30 2856 H 270.088 3.79002 5.63502 0
M  V30 2857 H 268.034 1.66163 6.34607 0
M  V30 2858 H 267.951 3.3365 6.7839 0
M  V30 2859 H 269.219 2.34143 7.43503 0
M  V30 2860 N 273.449 -1.08991 1.13837 0
M  V30 2861 C 274.86 -1.62746 0.914917 0
M  V30 2862 C 275.211 -1.88403 -0.547594 0
M  V30 2863 O 274.336 -1.63706 -1.41525 0
M  V30 2864 C 274.931 -2.95662 1.65437 0
M  V30 2865 C 273.49 -3.46225 1.47666 0
M  V30 2866 C 272.637 -2.20562 1.6807 0
M  V30 2867 H 275.588 -0.922946 1.29102 0
M  V30 2868 H 275.609 -3.63825 1.11407 0
M  V30 2869 H 275.121 -2.76956 2.71877 0
M  V30 2870 H 273.222 -3.70046 0.435478 0
M  V30 2871 H 273.335 -4.23368 2.24268 0
M  V30 2872 H 271.699 -2.29439 1.10589 0
M  V30 2873 H 272.482 -2.0437 2.7584 0
M  V30 2874 N 274.927 -0.932562 -1.27047 0
M  V30 2875 C 276.152 -0.591474 -1.98787 0
M  V30 2876 C 276.577 0.824601 -1.69062 0
M  V30 2877 O 275.935 1.5541 -0.933677 0
M  V30 2878 C 275.983 -0.829808 -3.50922 0
M  V30 2879 O 275.087 0.102266 -4.12273 0
M  V30 2880 H 274.428 -0.227185 -0.623926 0
M  V30 2881 H 276.958 -1.25314 -1.61733 0
M  V30 2882 H 276.968 -0.747292 -4.01098 0
M  V30 2883 H 275.643 -1.86201 -3.7189 0
M  V30 2884 H 274.22 -0.0305761 -3.72887 0
M  V30 2885 N 276.405 1.4127 -0.698611 0
M  V30 2886 C 277.63 2.06024 -0.238512 0
M  V30 2887 C 278.055 1.5224 1.10475 0
M  V30 2888 O 277.413 0.650623 1.69223 0
M  V30 2889 C 277.461 3.59988 -0.209952 0
M  V30 2890 O 276.565 4.04282 0.814235 0
M  V30 2891 H 275.906 0.653829 -0.115775 0
M  V30 2892 H 278.436 1.8098 -0.954326 0
M  V30 2893 H 278.446 4.07979 -0.0418436 0
M  V30 2894 H 277.121 3.98503 -1.1903 0
M  V30 2895 H 275.698 3.6779 0.615234 0
M  V30 2896 N 277.883 0.443576 1.51229 0
M  V30 2897 C 278.846 -0.353132 2.26463 0
M  V30 2898 C 279.846 -0.944338 1.3015 0
M  V30 2899 O 281.036 -0.817813 1.5381 0
M  V30 2900 C 278.168 -1.50023 3.06114 0
M  V30 2901 H 279.361 0.3063 2.98332 0
M  V30 2902 H 276.914 0.196902 1.55055 0
M  V30 2903 H 277.649 -2.19553 2.38677 0
M  V30 2904 H 277.434 -1.08241 3.76864 0
M  V30 2905 H 278.924 -2.06296 3.63087 0
M  V30 2906 N 279.361 -1.56624 0.175154 0
M  V30 2907 C 280.324 -2.16934 -0.739738 0
M  V30 2908 C 281.324 -1.11842 -1.15533 0
M  V30 2909 O 282.514 -1.37335 -1.07167 0
M  V30 2910 C 279.646 -2.75531 -2.00738 0
M  V30 2911 H 280.839 -2.99131 -0.214639 0
M  V30 2912 H 278.392 -1.56123 -0.0744197 0
M  V30 2913 H 279.127 -1.97078 -2.57548 0
M  V30 2914 H 278.912 -3.52444 -1.71831 0
M  V30 2915 H 280.402 -3.21904 -2.66021 0
M  V30 2916 N 280.839 0.0985539 -1.57292 0
M  V30 2917 C 282.069 0.815135 -1.8984 0
M  V30 2918 C 282.477 1.7297 -0.766679 0
M  V30 2919 O 281.82 1.81698 0.270483 0
M  V30 2920 C 281.882 1.6842 -3.17608 0
M  V30 2921 C 281.546 0.94182 -4.4719 0
M  V30 2922 C 282.543 0.273212 -5.19182 0
M  V30 2923 C 280.228 0.916927 -4.9386 0
M  V30 2924 C 282.222 -0.410361 -6.36078 0
M  V30 2925 C 279.909 0.229567 -6.10669 0
M  V30 2926 C 280.907 -0.432902 -6.81627 0
M  V30 2927 O 280.595 -1.10925 -7.9621 0
M  V30 2928 H 280.327 0.238501 -0.632529 0
M  V30 2929 H 282.881 0.0812659 -2.05239 0
M  V30 2930 H 281.111 2.46022 -2.98345 0
M  V30 2931 H 282.8 2.27704 -3.36015 0
M  V30 2932 H 283.566 0.283927 -4.84168 0
M  V30 2933 H 279.445 1.42201 -4.3852 0
M  V30 2934 H 282.989 -0.928013 -6.914 0
M  V30 2935 H 278.886 0.216686 -6.45136 0
M  V30 2936 H 279.654 -1.01579 -8.12172 0
M  V30 2937 N 282.317 1.53212 0.369288 0
M  V30 2938 C 283.249 1.75668 1.47219 0
M  V30 2939 C 284.262 0.637387 1.49804 0
M  V30 2940 O 285.451 0.913561 1.5335 0
M  V30 2941 C 282.551 1.81818 2.85999 0
M  V30 2942 C 281.724 3.11409 3.07153 0
M  V30 2943 C 280.783 3.08849 4.26026 0
M  V30 2944 O 279.809 3.82659 4.2138 0
M  V30 2945 N 281.011 2.29409 5.33246 0
M  V30 2946 H 283.776 2.70832 1.28337 0
M  V30 2947 H 281.337 1.51944 0.55898 0
M  V30 2948 H 283.329 1.77588 3.63655 0
M  V30 2949 H 281.899 0.939544 2.98146 0
M  V30 2950 H 281.119 3.28971 2.1719 0
M  V30 2951 H 282.407 3.97059 3.18154 0
M  V30 2952 H 281.805 1.68946 5.39883 0
M  V30 2953 H 280.362 2.31001 6.09493 0
M  V30 2954 N 283.795 -0.628877 1.44509 0
M  V30 2955 C 284.742 -1.74074 1.51549 0
M  V30 2956 C 285.712 -1.62084 0.363021 0
M  V30 2957 O 286.897 -1.81975 0.573567 0
M  V30 2958 C 284.037 -3.12328 1.46784 0
M  V30 2959 C 283.15 -3.35277 2.72422 0
M  V30 2960 C 282.285 -4.63515 2.59475 0
M  V30 2961 C 281.324 -4.7965 3.80266 0
M  V30 2962 N 280.461 -5.99168 3.65981 0
M  V30 2963 H 285.301 -1.67392 2.46544 0
M  V30 2964 H 282.838 -0.816527 1.22357 0
M  V30 2965 H 284.796 -3.92286 1.42012 0
M  V30 2966 H 283.426 -3.18018 0.553544 0
M  V30 2967 H 282.478 -2.49242 2.87372 0
M  V30 2968 H 283.79 -3.43078 3.62076 0
M  V30 2969 H 282.944 -5.51638 2.52548 0
M  V30 2970 H 281.683 -4.58076 1.67384 0
M  V30 2971 H 280.688 -3.89957 3.87574 0
M  V30 2972 H 281.913 -4.86902 4.73395 0
M  V30 2973 H 279.859 -5.94814 2.76644 0
M  V30 2974 H 279.776 -6.08035 4.49254 0
M  V30 2975 H 281.044 -6.89846 3.6295 0
M  V30 2976 N 285.273 -1.31445 -0.869486 0
M  V30 2977 C 286.236 -1.19094 -1.9583 0
M  V30 2978 C 287.236 -0.117906 -1.60367 0
M  V30 2979 O 288.426 -0.367208 -1.70286 0
M  V30 2980 C 285.558 -0.828165 -3.30688 0
M  V30 2981 H 286.751 -2.15842 -2.08212 0
M  V30 2982 H 284.304 -1.15063 -1.05784 0
M  V30 2983 H 285.039 0.138142 -3.24006 0
M  V30 2984 H 284.824 -1.6038 -3.578 0
M  V30 2985 H 286.314 -0.765658 -4.10521 0
M  V30 2986 N 286.751 1.08385 -1.14413 0
M  V30 2987 C 288.162 1.62258 -0.923535 0
M  V30 2988 C 288.513 1.88691 0.537595 0
M  V30 2989 O 287.638 1.64454 1.40655 0
M  V30 2990 C 288.233 2.94781 -1.67002 0
M  V30 2991 C 286.792 3.45437 -1.495 0
M  V30 2992 C 285.939 2.19668 -1.69238 0
M  V30 2993 H 288.89 0.916086 -1.2959 0
M  V30 2994 H 288.911 3.63229 -1.13334 0
M  V30 2995 H 288.423 2.7551 -2.73342 0
M  V30 2996 H 286.524 3.6981 -0.455097 0
M  V30 2997 H 286.637 4.22173 -2.2651 0
M  V30 2998 H 285.001 2.28849 -1.11804 0
M  V30 2999 H 285.784 2.02905 -2.7692 0
M  V30 3000 N 288.23 0.939286 1.26551 0
M  V30 3001 C 289.458 0.602536 1.97932 0
M  V30 3002 C 289.873 -0.82206 1.69964 0
M  V30 3003 O 289.23 -1.54789 0.966784 0
M  V30 3004 C 289.281 0.832946 3.51773 0
M  V30 3005 O 289.002 2.20151 3.78768 0
M  V30 3006 C 290.503 0.506483 4.40397 0
M  V30 3007 H 287.723 0.227248 0.631347 0
M  V30 3008 H 290.267 1.25948 1.61113 0
M  V30 3009 H 288.422 0.222644 3.8676 0
M  V30 3010 H 288.836 2.26013 4.73306 0
M  V30 3011 H 290.31 0.718333 5.47306 0
M  V30 3012 H 290.787 -0.558451 4.35635 0
M  V30 3013 H 291.393 1.09543 4.10951 0
M  V30 3014 N 289.708 -1.40897 0.706093 0
M  V30 3015 C 290.655 -2.30751 0.0474474 0
M  V30 3016 C 291.625 -1.47678 -0.76029 0
M  V30 3017 O 292.81 -1.76441 -0.726177 0
M  V30 3018 C 289.95 -3.33815 -0.875309 0
M  V30 3019 C 289.063 -4.31961 -0.0580623 0
M  V30 3020 C 288.198 -5.22093 -0.979425 0
M  V30 3021 C 287.237 -6.11902 -0.155706 0
M  V30 3022 N 286.374 -6.94482 -1.03144 0
M  V30 3023 H 291.214 -2.86513 0.819413 0
M  V30 3024 H 288.751 -1.41102 0.415783 0
M  V30 3025 H 290.709 -3.92129 -1.42446 0
M  V30 3026 H 289.339 -2.79579 -1.61356 0
M  V30 3027 H 288.391 -3.75507 0.608147 0
M  V30 3028 H 289.703 -4.95415 0.580082 0
M  V30 3029 H 288.857 -5.85292 -1.59744 0
M  V30 3030 H 287.596 -4.5889 -1.65141 0
M  V30 3031 H 286.601 -5.47742 0.475309 0
M  V30 3032 H 287.826 -6.77162 0.512635 0
M  V30 3033 H 285.772 -6.33877 -1.68924 0
M  V30 3034 H 285.689 -7.54665 -0.449108 0
M  V30 3035 H 286.957 -7.6214 -1.63593 0
M  V30 3036 N 291.186 -0.45159 -1.50991 0
M  V30 3037 C 292.096 0.358431 -2.31846 0
M  V30 3038 C 293.112 1.01438 -1.41373 0
M  V30 3039 O 294.288 1.00663 -1.74439 0
M  V30 3040 C 291.353 1.43704 -3.15515 0
M  V30 3041 C 290.414 0.799742 -4.21785 0
M  V30 3042 C 289.647 1.82696 -5.01456 0
M  V30 3043 O 289.87 3.05105 -4.81941 0
M  V30 3044 O 288.804 1.40958 -5.85162 0
M  V30 3045 H 292.63 -0.302032 -3.02194 0
M  V30 3046 H 290.215 -0.213825 -1.47862 0
M  V30 3047 H 292.097 2.06227 -3.67489 0
M  V30 3048 H 290.772 2.08133 -2.47916 0
M  V30 3049 H 289.679 0.136084 -3.73852 0
M  V30 3050 H 291.012 0.198718 -4.91799 0
M  V30 3051 N 292.664 1.56529 -0.183458 0
M  V30 3052 C 293.911 1.97244 0.458357 0
M  V30 3053 C 294.239 1.06992 1.62428 0
M  V30 3054 O 293.494 0.106542 1.9541 0
M  V30 3055 C 293.793 3.43939 0.971637 0
M  V30 3056 C 293.459 4.5083 -0.0796784 0
M  V30 3057 C 292.121 4.79786 -0.368584 0
M  V30 3058 C 294.473 5.15138 -0.792638 0
M  V30 3059 C 291.801 5.70345 -1.37563 0
M  V30 3060 C 294.153 6.06784 -1.78875 0
M  V30 3061 C 292.817 6.34102 -2.08497 0
M  V30 3062 H 292.087 0.721768 0.167725 0
M  V30 3063 H 294.734 1.89472 -0.277976 0
M  V30 3064 H 293.039 3.48724 1.78602 0
M  V30 3065 H 294.736 3.72791 1.47744 0
M  V30 3066 H 291.326 4.28317 0.155668 0
M  V30 3067 H 295.51 4.92868 -0.582659 0
M  V30 3068 H 290.766 5.89789 -1.61118 0
M  V30 3069 H 294.94 6.55677 -2.3465 0
M  V30 3070 H 292.567 7.04074 -2.86678 0
M  V30 3071 N 294.142 -0.090211 1.57342 0
M  V30 3072 C 295.372 -0.805055 1.90269 0
M  V30 3073 C 295.78 -1.72561 0.775842 0
M  V30 3074 O 295.123 -1.81839 -0.260843 0
M  V30 3075 C 295.185 -1.66734 3.18497 0
M  V30 3076 C 294.849 -0.918092 4.47683 0
M  V30 3077 C 295.846 -0.245674 5.19319 0
M  V30 3078 C 293.531 -0.890724 4.94339 0
M  V30 3079 C 295.525 0.444088 6.35851 0
M  V30 3080 C 293.212 -0.197179 6.10782 0
M  V30 3081 C 294.21 0.469044 6.81388 0
M  V30 3082 O 293.898 1.15146 7.95611 0
M  V30 3083 H 293.63 -0.235143 0.633785 0
M  V30 3084 H 296.184 -0.0703805 2.05279 0
M  V30 3085 H 294.414 -2.44437 2.99646 0
M  V30 3086 H 296.103 -2.25919 3.37217 0
M  V30 3087 H 296.869 -0.258246 4.84312 0
M  V30 3088 H 292.748 -1.39873 4.39268 0
M  V30 3089 H 296.292 0.964667 6.90898 0
M  V30 3090 H 292.189 -0.18247 6.45242 0
M  V30 3091 H 292.957 1.05885 8.11622 0
M  V30 3092 N 295.62 -1.53406 -0.361157 0
M  V30 3093 C 296.583 -1.79479 -1.42548 0
M  V30 3094 C 297.583 -0.665327 -1.4639 0
M  V30 3095 O 298.773 -0.933549 -1.47073 0
M  V30 3096 C 295.905 -1.92087 -2.8163 0
M  V30 3097 H 297.098 -2.74538 -1.20701 0
M  V30 3098 H 294.651 -1.4455 -0.594546 0
M  V30 3099 H 295.386 -0.991099 -3.08784 0
M  V30 3100 H 295.171 -2.74241 -2.80239 0
M  V30 3101 H 296.661 -2.13836 -3.58697 0
M  V30 3102 O 297.137 0.507134 -1.53331 0
M  V30 3103 H 297.828 1.16207 -1.5497 0
M  V30 END ATOM
M  V30 BEGIN BOND
M  V30 END BOND
M  V30 END CTAB
M  END
$$$$
