drugbank_target|P60903 Protein S100-A10 (DB12695)
 OpenBabel12092121073D

  0  0  0     0  0            999 V3000
M  V30 BEGIN CTAB
M  V30 COUNTS 1564 1580 0 0 0
M  V30 BEGIN ATOM
M  V30 1 H -0.908 1.98254 -0.117106 0
M  V30 2 N 0 1.576 0 0
M  V30 3 C 0.933 2.03868 1.02534 0
M  V30 4 C 1.911 0.928543 1.3348 0
M  V30 5 O 3.095 1.19667 1.45644 0
M  V30 6 C 0.222 2.43627 2.35294 0
M  V30 7 C -0.732 3.65373 2.2001 0
M  V30 8 S 0.101 5.13292 1.52614 0
M  V30 9 C 1.257 5.56322 2.86805 0
M  V30 10 H 1.49 2.90518 0.631377 0
M  V30 11 H -0.977 1.52953 0.210867 0
M  V30 12 H 0.981 2.67203 3.11629 0
M  V30 13 H -0.358 1.57376 2.7183 0
M  V30 14 H -1.165 3.90944 3.18086 0
M  V30 15 H -1.563 3.418 1.51819 0
M  V30 16 H 0.729 5.58782 3.83104 0
M  V30 17 H 1.672 6.56266 2.65933 0
M  V30 18 H 2.08 4.83886 2.90714 0
M  V30 19 N 1.4781 -0.272755 1.55222 0
M  V30 20 C 2.8891 -0.84378 1.66545 0
M  V30 21 C 3.2401 -1.87035 0.592641 0
M  V30 22 O 2.3651 -2.14761 -0.265818 0
M  V30 23 C 2.9601 -1.53723 3.01918 0
M  V30 24 C 1.5191 -2.05628 3.15268 0
M  V30 25 C 0.6661 -0.898424 2.62343 0
M  V30 26 H 3.6171 -0.0490998 1.58624 0
M  V30 27 H 3.6381 -2.40421 2.94921 0
M  V30 28 H 3.1501 -0.78983 3.79978 0
M  V30 29 H 1.2511 -2.83329 2.41983 0
M  V30 30 H 1.3641 -2.27142 4.21833 0
M  V30 31 H -0.2719 -1.29186 2.19506 0
M  V30 32 H 0.5111 -0.164528 3.42906 0
M  V30 33 N 2.9562 -1.48159 -0.537278 0
M  V30 34 C 4.1812 -1.59707 -1.32319 0
M  V30 35 C 4.6062 -0.254859 -1.86365 0
M  V30 36 O 3.9642 0.772378 -1.64024 0
M  V30 37 C 4.0122 -2.6412 -2.45505 0
M  V30 38 O 3.1162 -2.20774 -3.48328 0
M  V30 39 H 2.4572 -0.535791 -0.392204 0
M  V30 40 H 4.9872 -1.94092 -0.647268 0
M  V30 41 H 4.9972 -2.85166 -2.91795 0
M  V30 42 H 3.6722 -3.61567 -2.05528 0
M  V30 43 H 2.2492 -2.09911 -3.08207 0
M  V30 44 N 4.4343 0.785586 -1.36625 0
M  V30 45 C 5.3663 1.90711 -1.2713 0
M  V30 46 C 6.3793 1.61688 -0.189986 0
M  V30 47 O 7.5683 1.72864 -0.445014 0
M  V30 48 C 4.6683 3.25611 -0.939713 0
M  V30 49 C 3.8413 3.82385 -2.12369 0
M  V30 50 C 2.9003 4.95732 -1.76456 0
M  V30 51 O 1.9263 5.12047 -2.48589 0
M  V30 52 N 3.1283 5.76258 -0.700492 0
M  V30 53 H 5.8933 1.99376 -2.23762 0
M  V30 54 H 3.4543 0.964041 -1.30069 0
M  V30 55 H 5.4463 3.98937 -0.680554 0
M  V30 56 H 4.0163 3.12538 -0.0624074 0
M  V30 57 H 3.2363 3.01001 -2.54543 0
M  V30 58 H 4.5243 4.17047 -2.9146 0
M  V30 59 H 3.9223 5.65609 -0.101624 0
M  V30 60 H 2.4793 6.4987 -0.501165 0
M  V30 61 N 5.9124 1.20967 1.01018 0
M  V30 62 C 6.8454 0.907578 2.09376 0
M  V30 63 C 7.8234 -0.142868 1.61971 0
M  V30 64 O 9.0074 -0.0150391 1.88494 0
M  V30 65 C 6.1344 0.361791 3.36762 0
M  V30 66 C 5.1804 1.39423 4.03068 0
M  V30 67 S 6.0134 2.96159 4.4615 0
M  V30 68 C 7.1694 2.43173 5.7673 0
M  V30 69 H 7.4024 1.82519 2.34678 0
M  V30 70 H 4.9354 1.03884 1.14225 0
M  V30 71 H 6.8934 0.0534523 4.10465 0
M  V30 72 H 5.5544 -0.53443 3.0952 0
M  V30 73 H 4.7474 0.961853 4.94737 0
M  V30 74 H 4.3494 1.65038 3.35617 0
M  V30 75 H 6.6414 1.83335 6.52223 0
M  V30 76 H 7.5844 3.33264 6.24773 0
M  V30 77 H 7.9924 1.85069 5.33301 0
M  V30 78 N 7.3905 -1.2043 1.01659 0
M  V30 79 C 8.3005 -2.2689 0.596484 0
M  V30 80 C 9.3165 -1.70107 -0.36599 0
M  V30 81 O 10.4925 -2.00117 -0.226942 0
M  V30 82 C 7.5575 -3.4665 -0.0586659 0
M  V30 83 C 6.6185 -4.18662 0.949751 0
M  V30 84 C 5.8515 -5.32705 0.32577 0
M  V30 85 O 6.0745 -5.63656 -0.874509 0
M  V30 86 O 5.0085 -5.92803 1.04249 0
M  V30 87 H 8.8345 -2.65041 1.4828 0
M  V30 88 H 6.4195 -1.27048 0.786082 0
M  V30 89 H 8.3015 -4.19256 -0.424564 0
M  V30 90 H 6.9765 -3.10375 -0.91918 0
M  V30 91 H 5.8835 -3.48229 1.36702 0
M  V30 92 H 7.2165 -4.58878 1.78023 0
M  V30 93 N 8.8686 -0.792821 -1.36206 0
M  V30 94 C 9.8186 -0.166598 -2.27391 0
M  V30 95 C 10.8026 0.651479 -1.47121 0
M  V30 96 O 11.9946 0.510994 -1.69463 0
M  V30 97 C 9.1236 0.695033 -3.36191 0
M  V30 98 C 8.2096 -0.132019 -4.23894 0
M  V30 99 N 8.6006 -1.18822 -4.91645 0
M  V30 100 C 6.8986 0.0885952 -4.45912 0
M  V30 101 C 7.5996 -1.69198 -5.56549 0
M  V30 102 N 6.5756 -1.00065 -5.34311 0
M  V30 103 H 10.3776 -0.974947 -2.77258 0
M  V30 104 H 7.8916 -0.632616 -1.49572 0
M  V30 105 H 9.8886 1.1596 -4.00448 0
M  V30 106 H 8.5486 1.50189 -2.87877 0
M  V30 107 H 9.5596 -1.57069 -4.93507 0
M  V30 108 H 6.2366 0.865688 -4.08426 0
M  V30 109 H 7.6266 -2.57395 -6.20643 0
M  V30 110 N 10.3467 1.47872 -0.545128 0
M  V30 111 C 11.3097 2.28337 0.198717 0
M  V30 112 C 12.3097 1.36255 0.853888 0
M  V30 113 O 13.4997 1.59003 0.711606 0
M  V30 114 C 10.6317 3.15585 1.28915 0
M  V30 115 H 11.8247 2.95567 -0.507941 0
M  V30 116 H 9.3777 1.53362 -0.301616 0
M  V30 117 H 10.1127 2.53019 2.02859 0
M  V30 118 H 9.8977 3.83337 0.824309 0
M  V30 119 H 11.3877 3.76243 1.81194 0
M  V30 120 N 11.8248 0.280983 1.55075 0
M  V30 121 C 12.7578 -0.645439 2.18882 0
M  V30 122 C 13.7358 -1.14786 1.15165 0
M  V30 123 O 14.9198 -1.21975 1.43716 0
M  V30 124 C 12.0468 -1.88088 2.81674 0
M  V30 125 C 11.0928 -1.51343 3.98745 0
M  V30 126 S 11.9258 -0.586548 5.32278 0
M  V30 127 C 13.0818 -1.83024 5.98543 0
M  V30 128 H 13.3148 -0.1033 2.9712 0
M  V30 129 H 10.8478 0.0652099 1.54262 0
M  V30 130 H 12.8058 -2.58997 3.18482 0
M  V30 131 H 11.4668 -2.39417 2.03318 0
M  V30 132 H 10.6598 -2.43289 4.41392 0
M  V30 133 H 10.2618 -0.884477 3.63391 0
M  V30 134 H 12.5538 -2.77342 6.18133 0
M  V30 135 H 13.4968 -1.44668 6.93164 0
M  V30 136 H 13.9048 -1.99785 5.27964 0
M  V30 137 N 13.3029 -1.57598 0.00835791 0
M  V30 138 C 14.2129 -2.12385 -0.996487 0
M  V30 139 C 15.2289 -1.07108 -1.37127 0
M  V30 140 O 16.4049 -1.39055 -1.4569 0
M  V30 141 C 13.4699 -2.62314 -2.26699 0
M  V30 142 C 12.5309 -3.82225 -1.95456 0
M  V30 143 C 11.7639 -4.29763 -3.16449 0
M  V30 144 O 11.9869 -3.76584 -4.28416 0
M  V30 145 O 10.9209 -5.21832 -2.99958 0
M  V30 146 H 14.7469 -2.98479 -0.560725 0
M  V30 147 H 12.3319 -1.47903 -0.210987 0
M  V30 148 H 14.2139 -2.94589 -3.01322 0
M  V30 149 H 12.8889 -1.79313 -2.69497 0
M  V30 150 H 11.7959 -3.54909 -1.18282 0
M  V30 151 H 13.1289 -4.66324 -1.57489 0
M  V30 152 N 14.781 0.264519 -1.55364 0
M  V30 153 C 16.009 1.013 -1.80405 0
M  V30 154 C 16.424 1.79618 -0.581622 0
M  V30 155 O 15.781 1.76879 0.449468 0
M  V30 156 C 15.832 1.96487 -3.03439 0
M  V30 157 O 15.553 1.21341 -4.20961 0
M  V30 158 C 17.054 2.83079 -3.41147 0
M  V30 159 H 14.274 0.298875 -0.600762 0
M  V30 160 H 16.818 0.292736 -2.02394 0
M  V30 161 H 14.973 2.63965 -2.83551 0
M  V30 162 H 15.387 1.85573 -4.90574 0
M  V30 163 H 16.861 3.4565 -4.30384 0
M  V30 164 H 17.338 3.53286 -2.60932 0
M  V30 165 H 17.944 2.2108 -3.63323 0
M  V30 166 N 16.2591 1.48442 0.529413 0
M  V30 167 C 17.1921 1.57577 1.65059 0
M  V30 168 C 18.1701 0.426198 1.56915 0
M  V30 169 O 19.3541 0.637877 1.77379 0
M  V30 170 C 16.4811 1.5043 3.03461 0
M  V30 171 C 15.5271 2.70235 3.29962 0
M  V30 172 S 16.3601 4.32198 3.16172 0
M  V30 173 C 17.5161 4.2765 4.57019 0
M  V30 174 H 17.7491 2.52427 1.5706 0
M  V30 175 H 15.2821 1.36982 0.712417 0
M  V30 176 H 17.2401 1.46992 3.8328 0
M  V30 177 H 15.9011 0.569167 3.089 0
M  V30 178 H 15.0941 2.61374 4.30929 0
M  V30 179 H 14.6961 2.70938 2.57815 0
M  V30 180 H 16.9881 3.97618 5.48549 0
M  V30 181 H 17.9311 5.28797 4.70934 0
M  V30 182 H 18.3391 3.5811 4.36368 0
M  V30 183 N 17.7372 -0.778329 1.37039 0
M  V30 184 C 18.6702 -1.8984 1.26633 0
M  V30 185 C 19.6482 -1.61923 0.148197 0
M  V30 186 O 20.8322 -1.85742 0.321265 0
M  V30 187 C 17.9592 -3.24916 0.956403 0
M  V30 188 C 17.0052 -3.71752 2.09051 0
M  V30 189 S 17.8382 -3.86201 3.70957 0
M  V30 190 C 18.9942 -5.24135 3.42101 0
M  V30 191 H 19.2272 -1.98377 2.21436 0
M  V30 192 H 16.7602 -0.938738 1.22585 0
M  V30 193 H 18.7182 -4.02936 0.784409 0
M  V30 194 H 17.3792 -3.14089 0.0259713 0
M  V30 195 H 16.5722 -4.69661 1.8285 0
M  V30 196 H 16.1742 -3.00815 2.2223 0
M  V30 197 H 18.4662 -6.09086 2.96682 0
M  V30 198 H 19.4092 -5.55346 4.39314 0
M  V30 199 H 19.8172 -4.91761 2.77185 0
M  V30 200 N 19.2153 -1.21501 -1.00376 0
M  V30 201 C 20.4623 -1.03299 -1.74171 0
M  V30 202 C 20.7903 0.433326 -1.89612 0
M  V30 203 O 20.0453 1.33779 -1.42834 0
M  V30 204 C 20.3443 -1.67673 -3.15627 0
M  V30 205 C 20.0103 -3.17533 -3.2013 0
M  V30 206 C 18.6723 -3.58427 -3.21067 0
M  V30 207 C 21.0243 -4.13504 -3.17275 0
M  V30 208 C 18.3523 -4.93794 -3.16835 0
M  V30 209 C 20.7043 -5.48834 -3.14585 0
M  V30 210 C 19.3683 -5.89123 -3.13831 0
M  V30 211 H 18.6383 -0.377999 -0.637336 0
M  V30 212 H 21.2853 -1.51111 -1.17634 0
M  V30 213 H 19.5903 -1.12158 -3.75404 0
M  V30 214 H 21.2873 -1.51091 -3.71446 0
M  V30 215 H 17.8773 -2.84965 -3.20145 0
M  V30 216 H 22.0613 -3.82936 -3.15711 0
M  V30 217 H 17.3173 -5.24255 -3.1459 0
M  V30 218 H 21.4913 -6.22934 -3.1133 0
M  V30 219 H 19.1183 -6.93984 -3.10307 0
M  V30 220 N 20.6934 1.19889 -1.02296 0
M  V30 221 C 21.9214 1.9339 -0.735399 0
M  V30 222 C 22.3364 1.75148 0.704887 0
M  V30 223 O 21.6934 1.06954 1.47875 0
M  V30 224 C 21.7444 3.45313 -1.06962 0
M  V30 225 O 21.4654 3.62964 -2.45334 0
M  V30 226 C 22.9664 4.35948 -0.804021 0
M  V30 227 H 20.1864 0.61448 -0.269546 0
M  V30 228 H 22.7304 1.522 -1.36585 0
M  V30 229 H 20.8854 3.84359 -0.484455 0
M  V30 230 H 21.2994 4.56886 -2.57595 0
M  V30 231 H 22.7734 5.41174 -1.0879 0
M  V30 232 H 23.2504 4.3842 0.261691 0
M  V30 233 H 23.8564 4.02574 -1.37164 0
M  V30 234 N 22.1715 0.800033 1.35784 0
M  V30 235 C 23.4185 0.377342 1.98953 0
M  V30 236 C 23.7465 -1.05378 1.6348 0
M  V30 237 O 23.0015 -1.74459 0.886707 0
M  V30 238 C 23.3005 0.500276 3.53881 0
M  V30 239 C 22.9665 1.89375 4.09204 0
M  V30 240 C 21.6285 2.27499 4.24025 0
M  V30 241 C 23.9805 2.8057 4.39238 0
M  V30 242 C 21.3085 3.562 4.66195 0
M  V30 243 C 23.6605 4.0871 4.82844 0
M  V30 244 C 22.3245 4.46843 4.95871 0
M  V30 245 H 21.5945 0.138079 0.728021 0
M  V30 246 H 24.2415 1.01955 1.62103 0
M  V30 247 H 22.5465 -0.225405 3.91151 0
M  V30 248 H 24.2435 0.154097 4.00704 0
M  V30 249 H 20.8335 1.58753 3.98115 0
M  V30 250 H 25.0175 2.52367 4.27346 0
M  V30 251 H 20.2735 3.85602 4.74469 0
M  V30 252 H 24.4475 4.79481 5.05046 0
M  V30 253 H 22.0745 5.46623 5.28306 0
M  V30 254 N 23.6496 -1.47581 0.552962 0
M  V30 255 C 24.5996 -2.26961 -0.217423 0
M  V30 256 C 25.5836 -1.34099 -0.889168 0
M  V30 257 O 26.7756 -1.58483 -0.788176 0
M  V30 258 C 23.9046 -3.19756 -1.24944 0
M  V30 259 C 22.9906 -4.20097 -0.581327 0
M  V30 260 N 23.3816 -5.04614 0.346171 0
M  V30 261 C 21.6796 -4.38099 -0.835767 0
M  V30 262 C 22.3806 -5.77052 0.733854 0
M  V30 263 N 21.3566 -5.43526 0.0896567 0
M  V30 264 H 25.1586 -2.89688 0.495761 0
M  V30 265 H 22.6726 -1.58068 0.372597 0
M  V30 266 H 24.6696 -3.75305 -1.81527 0
M  V30 267 H 23.3296 -2.58585 -1.96376 0
M  V30 268 H 24.3406 -5.12869 0.720098 0
M  V30 269 H 21.0176 -3.88102 -1.53892 0
M  V30 270 H 22.4076 -6.5504 1.49574 0
M  V30 271 N 25.1277 -0.289203 -1.54924 0
M  V30 272 C 26.0747 0.592115 -2.23075 0
M  V30 273 C 27.0447 1.13881 -1.20915 0
M  V30 274 O 28.2297 1.18551 -1.495 0
M  V30 275 C 25.3697 1.76376 -2.96623 0
M  V30 276 C 24.4827 1.24959 -4.13533 0
M  V30 277 C 23.6177 2.38416 -4.74691 0
M  V30 278 C 22.6567 1.84072 -5.83767 0
M  V30 279 N 21.7937 2.91057 -6.38929 0
M  V30 280 H 26.6337 0.00432038 -2.98 0
M  V30 281 H 24.1707 -0.00963529 -1.47097 0
M  V30 282 H 26.1287 2.45268 -3.3749 0
M  V30 283 H 24.7587 2.32337 -2.24097 0
M  V30 284 H 23.8107 0.453307 -3.77689 0
M  V30 285 H 25.1227 0.811662 -4.92152 0
M  V30 286 H 24.2767 3.15276 -5.18349 0
M  V30 287 H 23.0157 2.8553 -3.95378 0
M  V30 288 H 22.0207 1.05697 -5.39545 0
M  V30 289 H 23.2457 1.37877 -6.64956 0
M  V30 290 H 21.1917 3.37526 -5.62505 0
M  V30 291 H 21.1087 2.51724 -7.12861 0
M  V30 292 H 22.3767 3.6785 -6.87246 0
M  V30 293 N 26.6058 1.57591 -0.0167156 0
M  V30 294 C 27.8528 1.91283 0.664597 0
M  V30 295 C 28.1808 0.891949 1.72842 0
M  V30 296 O 27.4358 -0.100931 1.9544 0
M  V30 297 C 27.7348 3.3172 1.33029 0
M  V30 298 C 27.4008 4.4914 0.398047 0
M  V30 299 C 26.0628 4.80992 0.141421 0
M  V30 300 C 28.4148 5.20634 -0.242825 0
M  V30 301 C 25.7428 5.81703 -0.764092 0
M  V30 302 C 28.0948 6.22311 -1.13632 0
M  V30 303 C 26.7588 6.52611 -1.40196 0
M  V30 304 H 26.0288 0.699956 0.243193 0
M  V30 305 H 28.6758 1.9135 -0.0758267 0
M  V30 306 H 26.9808 3.27856 2.14517 0
M  V30 307 H 28.6778 3.55055 1.86379 0
M  V30 308 H 25.2678 4.24262 0.608238 0
M  V30 309 H 29.4518 4.96267 -0.0576019 0
M  V30 310 H 24.7078 6.03532 -0.977732 0
M  V30 311 H 28.8818 6.76834 -1.63917 0
M  V30 312 H 26.5088 7.30467 -2.10529 0
M  V30 313 N 28.0839 -0.256276 1.55502 0
M  V30 314 C 29.0469 -1.30047 1.88734 0
M  V30 315 C 30.0469 -1.4154 0.763086 0
M  V30 316 O 31.2369 -1.40403 1.03115 0
M  V30 317 C 28.3689 -2.67953 2.10747 0
M  V30 318 H 29.5619 -1.01802 2.82093 0
M  V30 319 H 27.1149 -0.495134 1.4825 0
M  V30 320 H 27.8499 -3.01351 1.19825 0
M  V30 321 H 27.6349 -2.60993 2.92617 0
M  V30 322 H 29.1249 -3.43368 2.37673 0
M  V30 323 N 29.562 -1.4872 -0.521534 0
M  V30 324 C 30.81 -1.56857 -1.27437 0
M  V30 325 C 31.131 -0.247982 -1.93417 0
M  V30 326 O 30.401 0.731151 -1.81744 0
M  V30 327 H 28.981 -0.577885 -0.473347 0
M  V30 328 H 31.643 -1.85233 -0.606205 0
M  V30 329 H 30.739 -2.35402 -2.0492 0
M  V30 330 N 31.0401 0.771051 -1.3745 0
M  V30 331 C 32.3171 1.519 -1.23231 0
M  V30 332 C 32.6971 2.10383 0.173809 0
M  V30 333 O 32.0451 1.95583 1.18151 0
M  V30 334 C 32.2551 2.59933 -2.32886 0
M  V30 335 C 33.6031 3.27316 -2.70461 0
M  V30 336 O 34.6271 2.70228 -2.32068 0
M  V30 337 O 33.4861 4.30531 -3.36608 0
M  V30 338 H 30.5801 0.672803 -0.480901 0
M  V30 339 H 33.1261 0.807957 -1.49232 0
M  V30 340 H 31.8981 2.14842 -3.27045 0
M  V30 341 H 31.5211 3.38637 -2.08353 0
M  V30 342 N 32.5182 1.22032 0.997298 0
M  V30 343 C 33.4652 0.986467 2.08656 0
M  V30 344 C 34.4352 -0.0902671 1.65855 0
M  V30 345 O 35.6202 0.0584294 1.90711 0
M  V30 346 C 32.7602 0.565569 3.40434 0
M  V30 347 C 31.8732 1.71259 3.96604 0
M  V30 348 C 31.0082 1.24011 5.16522 0
M  V30 349 C 30.0472 2.35896 5.64818 0
M  V30 350 N 29.1842 1.89726 6.7598 0
M  V30 351 H 34.0242 1.91892 2.27994 0
M  V30 352 H 31.5612 0.956199 1.11782 0
M  V30 353 H 33.5192 0.302738 4.161 0
M  V30 354 H 32.1492 -0.329879 3.2111 0
M  V30 355 H 31.2012 2.08986 3.17851 0
M  V30 356 H 32.5132 2.55436 4.28432 0
M  V30 357 H 31.6672 0.934395 5.99461 0
M  V30 358 H 30.4062 0.368487 4.86306 0
M  V30 359 H 29.4112 2.67261 4.8047 0
M  V30 360 H 30.6362 3.23567 5.97061 0
M  V30 361 H 28.5822 1.0492 6.47555 0
M  V30 362 H 28.4992 2.67471 7.07103 0
M  V30 363 H 29.7672 1.62211 7.62435 0
M  V30 364 N 33.9963 -1.19345 1.0293 0
M  V30 365 C 35.2443 -1.88665 0.724574 0
M  V30 366 C 35.5653 -1.80036 -0.749144 0
M  V30 367 O 34.8353 -1.2111 -1.53978 0
M  V30 368 H 33.4153 -0.698406 0.265025 0
M  V30 369 H 36.0773 -1.44885 1.30362 0
M  V30 370 H 35.1733 -2.94987 1.01926 0
M  V30 371 N 35.4744 -0.807222 -1.35358 0
M  V30 372 C 36.7044 -0.399796 -2.02695 0
M  V30 373 C 37.1124 0.994176 -1.60974 0
M  V30 374 O 36.4554 1.65209 -0.803226 0
M  V30 375 C 36.5174 -0.404445 -3.57218 0
M  V30 376 C 36.1814 -1.74904 -4.22206 0
M  V30 377 C 37.1784 -2.70743 -4.4384 0
M  V30 378 C 34.8634 -2.03322 -4.5931 0
M  V30 379 C 36.8574 -3.93183 -5.01683 0
M  V30 380 C 34.5444 -3.26026 -5.16866 0
M  V30 381 C 35.5424 -4.20774 -5.37994 0
M  V30 382 O 35.2304 -5.41312 -5.94337 0
M  V30 383 H 34.9624 -0.160517 -0.656666 0
M  V30 384 H 37.5164 -1.09235 -1.73945 0
M  V30 385 H 35.7464 0.344707 -3.85161 0
M  V30 386 H 37.4354 -0.0192429 -4.05895 0
M  V30 387 H 38.2014 -2.5008 -4.15554 0
M  V30 388 H 34.0804 -1.30384 -4.42178 0
M  V30 389 H 37.6244 -4.6715 -5.1809 0
M  V30 390 H 33.5214 -3.46559 -5.44579 0
M  V30 391 H 34.2894 -5.42618 -6.12787 0
M  V30 392 N 36.9525 1.47285 -0.560781 0
M  V30 393 C 37.8825 2.32857 0.173105 0
M  V30 394 C 38.8635 1.44009 0.905281 0
M  V30 395 O 40.0485 1.7286 0.885046 0
M  V30 396 C 37.1785 3.25861 1.20133 0
M  V30 397 C 36.1325 4.23978 0.585388 0
M  V30 398 C 35.4585 5.06332 1.7185 0
M  V30 399 C 36.7585 5.20242 -0.463178 0
M  V30 400 H 38.4525 2.94466 -0.541307 0
M  V30 401 H 35.9985 1.41601 -0.261764 0
M  V30 402 H 37.9515 3.84569 1.72293 0
M  V30 403 H 36.6755 2.62315 1.94573 0
M  V30 404 H 35.3345 3.66501 0.085054 0
M  V30 405 H 34.9825 4.39186 2.45203 0
M  V30 406 H 34.6825 5.72762 1.31213 0
M  V30 407 H 36.2065 5.67899 2.24329 0
M  V30 408 H 37.6205 5.73293 -0.027502 0
M  V30 409 H 36.0175 5.94896 -0.788627 0
M  V30 410 H 37.0875 4.65504 -1.35773 0
M  V30 411 N 38.4306 0.297415 1.54768 0
M  V30 412 C 39.6586 -0.315623 2.04478 0
M  V30 413 C 40.0736 -1.47792 1.17486 0
M  V30 414 O 39.4306 -1.81404 0.19971 0
M  V30 415 C 39.4816 -0.7753 3.53088 0
M  V30 416 O 39.2026 0.340732 4.36773 0
M  V30 417 C 40.7036 -1.45386 4.18781 0
M  V30 418 H 37.9236 -0.0690887 0.667434 0
M  V30 419 H 40.4676 0.436003 1.99798 0
M  V30 420 H 38.6226 -1.47696 3.58141 0
M  V30 421 H 39.0366 -0.0165035 5.24497 0
M  V30 422 H 40.5106 -1.72669 5.24299 0
M  V30 423 H 40.9876 -2.39275 3.68299 0
M  V30 424 H 41.5936 -0.795475 4.17795 0
M  V30 425 N 39.9087 -1.5758 0.0250728 0
M  V30 426 C 40.8557 -2.09973 -0.958129 0
M  V30 427 C 41.8257 -1.00085 -1.3256 0
M  V30 428 O 43.0107 -1.27481 -1.41962 0
M  V30 429 C 40.1507 -2.62812 -2.2366 0
M  V30 430 C 39.2637 -3.86693 -1.92594 0
M  V30 431 C 38.3987 -4.27941 -3.14707 0
M  V30 432 C 37.4377 -5.44591 -2.79442 0
M  V30 433 N 36.5747 -5.81014 -3.94167 0
M  V30 434 H 41.4147 -2.937 -0.504428 0
M  V30 435 H 38.9517 -1.45172 -0.237392 0
M  V30 436 H 40.9097 -2.91536 -2.98434 0
M  V30 437 H 39.5397 -1.81922 -2.66654 0
M  V30 438 H 38.5917 -3.64723 -1.0808 0
M  V30 439 H 39.9037 -4.71547 -1.62619 0
M  V30 440 H 39.0577 -4.58079 -3.97804 0
M  V30 441 H 37.7967 -3.41845 -3.4784 0
M  V30 442 H 36.8017 -5.1415 -1.94755 0
M  V30 443 H 38.0267 -6.32382 -2.47528 0
M  V30 444 H 35.9727 -4.97874 -4.2715 0
M  V30 445 H 35.8897 -6.60498 -3.67801 0
M  V30 446 H 37.1577 -6.15756 -4.7798 0
M  V30 447 N 41.3868 0.248026 -1.55636 0
M  V30 448 C 42.2968 1.32859 -1.93354 0
M  V30 449 C 43.3128 1.52719 -0.833838 0
M  V30 450 O 44.4888 1.66363 -1.13513 0
M  V30 451 C 41.5538 2.66337 -2.21958 0
M  V30 452 C 40.6148 2.55008 -3.45354 0
M  V30 453 C 39.8478 3.82121 -3.72584 0
M  V30 454 O 40.0708 4.83951 -3.01907 0
M  V30 455 O 39.0048 3.80822 -4.6611 0
M  V30 456 H 42.8308 1.03862 -2.85388 0
M  V30 457 H 40.4158 0.448686 -1.42503 0
M  V30 458 H 42.2978 3.45216 -2.4167 0
M  V30 459 H 40.9728 2.95068 -1.33103 0
M  V30 460 H 39.8798 1.7442 -3.30951 0
M  V30 461 H 41.2128 2.31222 -4.34508 0
M  V30 462 N 42.8649 1.48995 0.513639 0
M  V30 463 C 44.1419 1.48338 1.27495 0
M  V30 464 C 44.5219 0.204065 2.10111 0
M  V30 465 O 43.8699 -0.813881 2.13514 0
M  V30 466 C 44.0799 2.75498 2.14247 0
M  V30 467 C 45.4279 3.24484 2.73852 0
M  V30 468 O 46.4519 2.76528 2.24523 0
M  V30 469 O 45.3109 4.07974 3.6362 0
M  V30 470 H 42.4049 0.593149 0.576284 0
M  V30 471 H 44.9509 1.61246 0.528948 0
M  V30 472 H 43.7229 3.60109 1.53092 0
M  V30 473 H 43.3459 2.6539 2.96064 0
M  V30 474 N 44.343 -0.763751 1.37857 0
M  V30 475 C 45.273 -1.89103 1.36975 0
M  V30 476 C 46.254 -1.68439 0.237152 0
M  V30 477 O 47.439 -1.8918 0.438713 0
M  V30 478 C 44.569 -3.26496 1.18395 0
M  V30 479 C 43.523 -3.61741 2.28751 0
M  V30 480 C 42.849 -4.97762 1.95286 0
M  V30 481 C 44.149 -3.67665 3.70972 0
M  V30 482 H 45.843 -1.90099 2.31307 0
M  V30 483 H 43.389 -0.91319 1.11341 0
M  V30 484 H 45.342 -4.05003 1.16406 0
M  V30 485 H 44.066 -3.25955 0.205215 0
M  V30 486 H 42.725 -2.85547 2.29909 0
M  V30 487 H 42.373 -4.93769 0.959221 0
M  V30 488 H 42.073 -5.22313 2.69189 0
M  V30 489 H 43.597 -5.7866 1.94898 0
M  V30 490 H 45.011 -4.36307 3.719 0
M  V30 491 H 43.408 -4.03718 4.43995 0
M  V30 492 H 44.478 -2.68134 4.0402 0
M  V30 493 N 45.8211 -1.22559 -0.990812 0
M  V30 494 C 47.2371 -0.985996 -1.255 0
M  V30 495 C 47.4371 0.319173 -1.98956 0
M  V30 496 O 46.4931 1.04127 -2.3003 0
M  V30 497 C 47.8061 -2.18607 -2.06474 0
M  V30 498 C 49.3541 -2.22985 -2.19651 0
M  V30 499 C 49.8291 -3.4255 -3.04012 0
M  V30 500 N 51.3201 -3.42725 -3.11599 0
M  V30 501 C 52.0551 -4.31892 -3.7717 0
M  V30 502 N 51.5511 -5.31279 -4.44651 0
M  V30 503 N 53.3441 -4.19662 -3.73952 0
M  V30 504 H 45.4951 -2.06469 -0.49841 0
M  V30 505 H 47.7581 -0.904853 -0.282747 0
M  V30 506 H 47.4641 -3.13267 -1.59865 0
M  V30 507 H 47.3381 -2.18838 -3.07229 0
M  V30 508 H 49.7251 -1.28871 -2.65474 0
M  V30 509 H 49.8061 -2.26791 -1.18319 0
M  V30 510 H 49.4501 -4.36965 -2.58889 0
M  V30 511 H 49.3801 -3.35984 -4.0549 0
M  V30 512 H 51.8711 -2.70807 -2.63575 0
M  V30 513 H 52.1841 -5.95593 -4.92431 0
M  V30 514 H 50.5291 -5.3519 -4.43392 0
M  V30 515 H 53.7201 -3.41268 -3.20396 0
M  V30 516 H 53.8931 -4.89358 -4.24774 0
M  V30 517 N 47.2992 1.18797 -1.03562 0
M  V30 518 C 48.5452 1.8893 -0.737113 0
M  V30 519 C 48.8782 1.79837 0.732956 0
M  V30 520 O 48.1532 1.19525 1.5344 0
M  V30 521 C 48.4362 3.39607 -1.19745 0
M  V30 522 C 48.2892 3.57537 -2.72924 0
M  V30 523 C 49.6082 4.33069 -0.783526 0
M  V30 524 H 46.7272 0.686057 -0.269249 0
M  V30 525 H 49.3692 1.39797 -1.28673 0
M  V30 526 H 47.5192 3.81583 -0.729855 0
M  V30 527 H 49.1912 3.24688 -3.27682 0
M  V30 528 H 47.4342 3.00363 -3.12993 0
M  V30 529 H 48.1052 4.63238 -3.00191 0
M  V30 530 H 50.5812 3.98846 -1.18581 0
M  V30 531 H 49.4572 5.3707 -1.13343 0
M  V30 532 H 49.7182 4.40986 0.313681 0
M  V30 533 N 48.7773 0.814389 1.34928 0
M  V30 534 C 49.7073 0.244827 2.32213 0
M  V30 535 C 50.6883 -0.634024 1.57842 0
M  V30 536 O 51.8733 -0.562676 1.8587 0
M  V30 537 C 49.0033 -0.601106 3.42058 0
M  V30 538 C 47.9573 0.179896 4.27622 0
M  V30 539 C 47.2833 -0.788237 5.28858 0
M  V30 540 C 48.5833 1.38329 5.03649 0
M  V30 541 H 50.2773 1.05763 2.80097 0
M  V30 542 H 47.8233 0.510029 1.34665 0
M  V30 543 H 49.7763 -1.00968 4.09125 0
M  V30 544 H 48.5003 -1.44688 2.92802 0
M  V30 545 H 47.1593 0.569739 3.62146 0
M  V30 546 H 46.8073 -1.62973 4.75866 0
M  V30 547 H 46.5073 -0.269942 5.8698 0
M  V30 548 H 48.0313 -1.19485 5.98795 0
M  V30 549 H 49.4453 1.04918 5.63618 0
M  V30 550 H 47.8423 1.83662 5.71304 0
M  V30 551 H 48.9123 2.16592 4.33839 0
M  V30 552 N 50.2554 -1.46986 0.568584 0
M  V30 553 C 51.1884 -2.27129 -0.220779 0
M  V30 554 C 52.1664 -1.34757 -0.909905 0
M  V30 555 O 53.3504 -1.64152 -0.926622 0
M  V30 556 C 50.4774 -3.12108 -1.31553 0
M  V30 557 C 49.5234 -4.20141 -0.733748 0
M  V30 558 S 50.3564 -5.33783 0.428479 0
M  V30 559 C 51.5124 -6.22327 -0.667811 0
M  V30 560 H 51.7454 -2.93731 0.459267 0
M  V30 561 H 49.2784 -1.5026 0.355154 0
M  V30 562 H 51.2364 -3.61636 -1.94241 0
M  V30 563 H 49.8974 -2.44847 -1.96746 0
M  V30 564 H 49.0904 -4.79373 -1.5562 0
M  V30 565 H 48.6924 -3.73553 -0.182812 0
M  V30 566 H 50.9844 -6.59364 -1.55708 0
M  V30 567 H 51.9274 -7.0801 -0.11258 0
M  V30 568 H 52.3354 -5.5618 -0.965601 0
M  V30 569 N 51.7335 -0.305618 -1.54608 0
M  V30 570 C 52.6435 0.57778 -2.27374 0
M  V30 571 C 53.6595 1.14451 -1.31061 0
M  V30 572 O 54.8355 1.16831 -1.6405 0
M  V30 573 C 51.9005 1.73123 -3.00382 0
M  V30 574 C 50.9615 1.19812 -4.12242 0
M  V30 575 C 50.1945 2.2966 -4.81759 0
M  V30 576 O 50.4175 3.49651 -4.50666 0
M  V30 577 O 49.3515 1.96091 -5.69062 0
M  V30 578 H 53.1775 -0.012624 -3.03697 0
M  V30 579 H 50.7625 -0.0719184 -1.49227 0
M  V30 580 H 52.6445 2.40315 -3.4616 0
M  V30 581 H 51.3195 2.30815 -2.26949 0
M  V30 582 H 50.2265 0.491798 -3.70853 0
M  V30 583 H 51.5595 0.666566 -4.87666 0
M  V30 584 N 53.2116 1.57565 -0.0334293 0
M  V30 585 C 54.1586 2.10478 0.946981 0
M  V30 586 C 55.1286 1.00787 1.32027 0
M  V30 587 O 56.3136 1.28232 1.41284 0
M  V30 588 C 53.4536 2.63994 2.22263 0
M  V30 589 C 52.5666 3.87709 1.90541 0
M  V30 590 C 51.7016 4.29604 3.12433 0
M  V30 591 C 50.7406 5.46065 2.76549 0
M  V30 592 N 49.8776 5.83096 3.9108 0
M  V30 593 H 54.7176 2.93963 0.488846 0
M  V30 594 H 52.2546 1.45296 0.22969 0
M  V30 595 H 54.2126 2.93114 2.96884 0
M  V30 596 H 52.8426 1.83333 2.65685 0
M  V30 597 H 51.8946 3.65291 1.06144 0
M  V30 598 H 53.2066 4.72403 1.60116 0
M  V30 599 H 52.3606 4.60182 3.9537 0
M  V30 600 H 51.0996 3.43685 3.46023 0
M  V30 601 H 50.1046 5.15176 1.92026 0
M  V30 602 H 51.3296 6.33685 2.44171 0
M  V30 603 H 49.2756 5.00132 4.24504 0
M  V30 604 H 49.1926 6.6244 3.64293 0
M  V30 605 H 50.4606 6.18282 4.74708 0
M  V30 606 N 54.6897 -0.239769 1.55765 0
M  V30 607 C 55.5997 -1.31831 1.94056 0
M  V30 608 C 56.6157 -1.52275 0.841925 0
M  V30 609 O 57.7917 -1.65759 1.14394 0
M  V30 610 C 54.8567 -2.65156 2.23368 0
M  V30 611 C 53.9177 -2.53173 3.46701 0
M  V30 612 C 53.1507 -3.8014 3.74606 0
M  V30 613 O 53.3737 -4.82343 3.04469 0
M  V30 614 O 52.3077 -3.78344 4.68123 0
M  V30 615 H 56.1337 -1.02347 2.85935 0
M  V30 616 H 53.7187 -0.441123 1.42739 0
M  V30 617 H 55.6007 -3.43929 2.43497 0
M  V30 618 H 54.2757 -2.94358 1.34666 0
M  V30 619 H 53.1827 -1.72662 3.31871 0
M  V30 620 H 54.5157 -2.28915 4.35728 0
M  V30 621 N 56.1678 -1.49265 -0.50573 0
M  V30 622 C 57.4148 -1.58513 -1.26015 0
M  V30 623 C 57.7428 -0.26972 -1.92621 0
M  V30 624 O 56.9978 0.741997 -1.81088 0
M  V30 625 C 57.2968 -2.69008 -2.35308 0
M  V30 626 C 56.9628 -4.10662 -1.86192 0
M  V30 627 C 55.6248 -4.49212 -1.72516 0
M  V30 628 C 57.9768 -4.99336 -1.49375 0
M  V30 629 C 55.3048 -5.74214 -1.20394 0
M  V30 630 C 57.6568 -6.24852 -0.987072 0
M  V30 631 C 56.3208 -6.62236 -0.836669 0
M  V30 632 H 55.5908 -0.580041 -0.461122 0
M  V30 633 H 58.2378 -1.83078 -0.561665 0
M  V30 634 H 56.5428 -2.38396 -3.10926 0
M  V30 635 H 58.2398 -2.73373 -2.93374 0
M  V30 636 H 54.8298 -3.8023 -1.97795 0
M  V30 637 H 59.0138 -4.70212 -1.5879 0
M  V30 638 H 54.2698 -6.01883 -1.07458 0
M  V30 639 H 58.4438 -6.92944 -0.692983 0
M  V30 640 H 56.0708 -7.58979 -0.430607 0
M  V30 641 N 57.6459 0.756429 -1.3826 0
M  V30 642 C 59.0569 1.33359 -1.30661 0
M  V30 643 C 59.4079 1.96161 0.0388875 0
M  V30 644 O 58.5329 1.94874 0.940918 0
M  V30 645 C 59.1279 2.42477 -2.36622 0
M  V30 646 C 57.6869 2.95922 -2.3261 0
M  V30 647 C 56.8339 1.69275 -2.19639 0
M  V30 648 H 59.7849 0.55552 -1.4866 0
M  V30 649 H 59.8059 3.22345 -2.02174 0
M  V30 650 H 59.3179 1.96739 -3.34538 0
M  V30 651 H 57.4189 3.45996 -1.38267 0
M  V30 652 H 57.5319 3.50494 -3.26636 0
M  V30 653 H 55.8959 1.92793 -1.66442 0
M  V30 654 H 56.6789 1.25619 -3.19491 0
M  V30 655 N 59.124 1.23083 0.984299 0
M  V30 656 C 60.372 1.05848 1.72165 0
M  V30 657 C 60.693 -0.406049 1.90726 0
M  V30 658 O 59.963 -1.29139 1.47309 0
M  V30 659 H 58.543 0.388685 0.637913 0
M  V30 660 H 61.205 1.54736 1.18503 0
M  V30 661 H 60.301 1.54327 2.71274 0
M  V30 662 N 60.6021 -1.18246 1.0419 0
M  V30 663 C 61.8491 -1.88257 0.746017 0
M  V30 664 C 62.1771 -1.80429 -0.726331 0
M  V30 665 O 61.4321 -1.2 -1.54591 0
M  V30 666 C 61.7311 -3.38082 1.15911 0
M  V30 667 C 61.3971 -3.66114 2.63195 0
M  V30 668 C 60.0591 -3.73474 3.03432 0
M  V30 669 C 62.4111 -3.78398 3.5842 0
M  V30 670 C 59.7391 -3.90599 4.37778 0
M  V30 671 C 62.0911 -3.97039 4.92487 0
M  V30 672 C 60.7551 -4.02635 5.32392 0
M  V30 673 H 60.0251 -0.688883 0.272987 0
M  V30 674 H 62.6721 -1.3995 1.30715 0
M  V30 675 H 60.9771 -3.88377 0.516806 0
M  V30 676 H 62.6741 -3.90596 0.907516 0
M  V30 677 H 59.2641 -3.61003 2.3103 0
M  V30 678 H 63.4481 -3.72042 3.28479 0
M  V30 679 H 58.7041 -3.93175 4.68213 0
M  V30 680 H 62.8781 -4.05486 5.66175 0
M  V30 681 H 60.5051 -4.15657 6.36501 0
M  V30 682 N 62.0802 -0.821533 -1.34494 0
M  V30 683 C 63.0102 -0.257138 -2.3208 0
M  V30 684 C 63.9912 0.625645 -1.58176 0
M  V30 685 O 65.1762 0.552811 -1.86166 0
M  V30 686 C 62.3062 0.582958 -3.42372 0
M  V30 687 C 61.2602 -0.202571 -4.2752 0
M  V30 688 C 60.5862 0.760179 -5.29269 0
M  V30 689 C 61.8862 -1.40998 -5.02908 0
M  V30 690 H 63.5802 -1.07247 -2.79532 0
M  V30 691 H 61.1262 -0.517163 -1.34393 0
M  V30 692 H 63.0792 0.987972 -4.09655 0
M  V30 693 H 61.8032 1.43133 -2.93565 0
M  V30 694 H 60.4622 -0.588936 -3.61838 0
M  V30 695 H 60.1102 1.60447 -4.76724 0
M  V30 696 H 59.8102 0.238809 -5.87115 0
M  V30 697 H 61.3342 1.16308 -5.9942 0
M  V30 698 H 62.7482 -1.07905 -5.63054 0
M  V30 699 H 61.1452 -1.86689 -5.70322 0
M  V30 700 H 62.2152 -2.1889 -4.32684 0
M  V30 701 N 63.5583 1.46682 -0.576371 0
M  V30 702 C 64.4683 2.34032 0.163141 0
M  V30 703 C 65.4843 1.49367 0.892501 0
M  V30 704 O 66.6603 1.82252 0.857106 0
M  V30 705 C 63.7253 3.26435 1.16795 0
M  V30 706 C 62.7863 4.26998 0.443944 0
M  V30 707 C 62.0193 5.14986 1.40088 0
M  V30 708 O 62.2423 5.05785 2.637 0
M  V30 709 O 61.1763 5.94906 0.914917 0
M  V30 710 H 65.0023 2.98607 -0.55388 0
M  V30 711 H 62.5873 1.45554 -0.336821 0
M  V30 712 H 64.4693 3.83459 1.74748 0
M  V30 713 H 63.1443 2.64465 1.86655 0
M  V30 714 H 62.0513 3.7368 -0.177271 0
M  V30 715 H 63.3843 4.91736 -0.213566 0
M  V30 716 N 65.0364 0.313813 1.54444 0
M  V30 717 C 65.9844 -0.572171 2.25453 0
M  V30 718 C 66.9784 -1.12657 1.2651 0
M  V30 719 O 68.1844 -1.07573 1.44319 0
M  V30 720 H 64.5594 -0.203146 0.724041 0
M  V30 721 H 66.5304 0.0491145 2.9836 0
M  V30 722 C 65.2794 -1.72626 3.0182 0
M  V30 723 H 64.6024 -1.30891 3.77767 0
M  V30 724 H 66.0424 -2.32199 3.54767 0
M  V30 725 C 64.5014 -2.63806 2.09542 0
M  V30 726 O 65.0314 -3.65256 1.67185 0
M  V30 727 N 63.2374 -2.31824 1.75232 0
M  V30 728 H 62.7844 -1.49368 2.09873 0
M  V30 729 H 62.7424 -2.93095 1.13767 0
M  V30 730 N 66.5145 -1.57545 0.0417849 0
M  V30 731 C 67.4465 -2.07904 -0.964799 0
M  V30 732 C 68.4595 -1.00497 -1.28079 0
M  V30 733 O 69.6485 -1.28087 -1.24322 0
M  V30 734 C 66.7485 -2.49928 -2.28887 0
M  V30 735 C 65.9215 -3.80562 -2.15619 0
M  V30 736 C 64.9805 -4.08999 -3.31069 0
M  V30 737 O 64.0065 -4.79061 -3.0739 0
M  V30 738 N 65.2085 -3.6017 -4.55256 0
M  V30 739 H 67.9735 -2.94886 -0.535029 0
M  V30 740 H 65.5345 -1.61252 -0.144681 0
M  V30 741 H 67.5265 -2.66034 -3.04972 0
M  V30 742 H 66.0965 -1.68245 -2.63463 0
M  V30 743 H 65.3165 -3.74129 -1.24183 0
M  V30 744 H 66.6045 -4.66126 -2.03971 0
M  V30 745 H 66.0025 -3.03512 -4.77386 0
M  V30 746 H 64.5595 -3.81532 -5.28466 0
M  V30 747 N 67.9926 0.231505 -1.5589 0
M  V30 748 C 68.9396 1.28682 -1.91598 0
M  V30 749 C 69.9096 1.47071 -0.771974 0
M  V30 750 O 71.0946 1.60802 -1.027 0
M  V30 751 C 68.2346 2.6342 -2.22944 0
M  V30 752 C 67.3476 2.52912 -3.50228 0
M  V30 753 C 66.4826 3.80106 -3.7107 0
M  V30 754 C 65.5216 3.64279 -4.91902 0
M  V30 755 N 64.6586 4.834 -5.09184 0
M  V30 756 H 69.4986 0.975305 -2.81588 0
M  V30 757 H 67.0356 0.470299 -1.39379 0
M  V30 758 H 68.9936 3.41869 -2.39126 0
M  V30 759 H 67.6236 2.92687 -1.36139 0
M  V30 760 H 66.6756 1.6595 -3.42294 0
M  V30 761 H 67.9876 2.37133 -4.38827 0
M  V30 762 H 67.1416 4.66999 -3.87295 0
M  V30 763 H 65.8806 3.98799 -2.80733 0
M  V30 764 H 64.8856 2.7577 -4.75637 0
M  V30 765 H 66.1106 3.47067 -5.83714 0
M  V30 766 H 64.0566 5.02425 -4.21788 0
M  V30 767 H 63.9736 4.70311 -5.91898 0
M  V30 768 H 65.2416 5.71747 -5.29835 0
M  V30 769 N 69.4707 1.49531 0.497807 0
M  V30 770 C 70.7477 1.49682 1.25915 0
M  V30 771 C 71.1277 0.226339 2.09883 0
M  V30 772 O 70.4757 -0.791189 2.14365 0
M  V30 773 C 70.6857 2.77755 2.11313 0
M  V30 774 C 72.0337 3.27371 2.70395 0
M  V30 775 O 73.0577 2.78894 2.21578 0
M  V30 776 O 71.9167 4.11808 3.59272 0
M  V30 777 H 69.0107 0.599228 0.56996 0
M  V30 778 H 71.5567 1.61798 0.511816 0
M  V30 779 H 70.3287 3.61713 1.49264 0
M  V30 780 H 69.9517 2.68515 2.93233 0
M  V30 781 N 70.9488 -0.749086 1.3866 0
M  V30 782 C 72.3598 -1.32664 1.31366 0
M  V30 783 C 72.7108 -1.96179 -0.028484 0
M  V30 784 O 71.8358 -1.9537 -0.93057 0
M  V30 785 C 72.4308 -2.41219 2.37905 0
M  V30 786 C 70.9898 -2.94684 2.34176 0
M  V30 787 C 70.1368 -1.68108 2.20533 0
M  V30 788 H 73.0878 -0.547628 1.48952 0
M  V30 789 H 73.1088 -3.21268 2.0388 0
M  V30 790 H 72.6208 -1.94962 3.35576 0
M  V30 791 H 70.7218 -3.45258 1.401 0
M  V30 792 H 70.8348 -3.48757 3.2849 0
M  V30 793 H 69.1988 -1.91907 1.67463 0
M  V30 794 H 69.9818 -1.23923 3.20153 0
M  V30 795 N 72.4269 -1.23603 -0.977757 0
M  V30 796 C 73.3569 -1.04401 -2.0886 0
M  V30 797 C 74.3379 0.0399052 -1.70053 0
M  V30 798 O 75.5229 -0.125246 -1.93796 0
M  V30 799 C 72.6529 -0.637269 -3.41403 0
M  V30 800 C 71.6069 -1.66883 -3.94124 0
M  V30 801 C 70.9329 -1.11745 -5.22893 0
M  V30 802 C 72.2329 -3.06247 -4.23096 0
M  V30 803 H 73.9269 -1.97316 -2.25182 0
M  V30 804 H 71.4729 -0.950096 -1.08209 0
M  V30 805 H 73.4259 -0.48998 -4.18542 0
M  V30 806 H 72.1499 0.327557 -3.24953 0
M  V30 807 H 70.8089 -1.80416 -3.19133 0
M  V30 808 H 70.4569 -0.143527 -5.02795 0
M  V30 809 H 70.1569 -1.80672 -5.59134 0
M  V30 810 H 71.6809 -0.982067 -6.02651 0
M  V30 811 H 73.0949 -2.96001 -4.90975 0
M  V30 812 H 71.4919 -3.72436 -4.70544 0
M  V30 813 H 72.5619 -3.55041 -3.30263 0
M  V30 814 N 73.905 1.17692 -1.04816 0
M  V30 815 C 74.868 2.19787 -0.650117 0
M  V30 816 C 75.868 1.58044 0.296427 0
M  V30 817 O 77.058 1.74012 0.0808097 0
M  V30 818 C 74.19 3.40869 0.0456987 0
M  V30 819 H 75.383 2.56516 -1.5537 0
M  V30 820 H 72.936 1.31708 -0.841594 0
M  V30 821 H 73.671 3.09681 0.962726 0
M  V30 822 H 73.456 3.86928 -0.634727 0
M  V30 823 H 74.946 4.16445 0.310432 0
M  V30 824 N 75.3831 0.828654 1.34056 0
M  V30 825 C 76.6291 0.42008 1.98402 0
M  V30 826 C 76.9621 -1.01564 1.65525 0
M  V30 827 O 76.2371 -1.70834 0.929831 0
M  V30 828 C 76.5201 0.62927 3.54559 0
M  V30 829 C 76.3731 2.11152 3.97159 0
M  V30 830 C 77.6921 0.0688756 4.40046 0
M  V30 831 H 74.8111 0.154104 0.720709 0
M  V30 832 H 77.4531 1.04228 1.5886 0
M  V30 833 H 75.6031 0.0996418 3.88372 0
M  V30 834 H 77.2751 2.70522 3.73651 0
M  V30 835 H 75.5181 2.59985 3.47261 0
M  V30 836 H 76.1891 2.20868 5.05887 0
M  V30 837 H 78.6651 0.521458 4.1282 0
M  V30 838 H 77.5411 0.245006 5.48353 0
M  V30 839 H 77.8021 -1.0266 4.30015 0
M  V30 840 N 76.8612 -1.46375 0.584142 0
M  V30 841 C 78.1382 -1.956 0.0033388 0
M  V30 842 C 78.5182 -1.52679 -1.45782 0
M  V30 843 O 77.8662 -0.77816 -2.14842 0
M  V30 844 C 78.0762 -3.48551 0.176891 0
M  V30 845 C 79.4242 -4.24576 0.0454609 0
M  V30 846 O 80.4482 -3.56043 0.105801 0
M  V30 847 O 79.3072 -5.46427 -0.0890376 0
M  V30 848 H 76.4012 -0.825547 -0.0490066 0
M  V30 849 H 78.9472 -1.56652 0.65256 0
M  V30 850 H 77.7192 -3.72683 1.1926 0
M  V30 851 H 77.3422 -3.94332 -0.508695 0
M  V30 852 N 78.3393 -0.321999 -1.54275 0
M  V30 853 C 79.2863 0.544664 -2.24281 0
M  V30 854 C 80.2563 1.1129 -1.23303 0
M  V30 855 O 81.4413 1.15354 -1.51981 0
M  V30 856 C 78.5813 1.70045 -3.00298 0
M  V30 857 C 77.6943 1.16159 -4.1609 0
M  V30 858 C 76.8293 2.28293 -4.79641 0
M  V30 859 C 75.8683 1.71648 -5.8754 0
M  V30 860 N 75.0053 2.77438 -6.44959 0
M  V30 861 H 79.8453 -0.0588907 -2.97942 0
M  V30 862 H 77.3823 -0.0408345 -1.47043 0
M  V30 863 H 79.3403 2.38054 -3.42616 0
M  V30 864 H 77.9703 2.27531 -2.28975 0
M  V30 865 H 77.0223 0.373092 -3.78566 0
M  V30 866 H 78.3343 0.707087 -4.93763 0
M  V30 867 H 77.4883 3.0421 -5.2492 0
M  V30 868 H 76.2273 2.77079 -4.01346 0
M  V30 869 H 75.2323 0.942282 -5.41665 0
M  V30 870 H 76.4573 1.23741 -6.67731 0
M  V30 871 H 74.4033 3.25519 -5.69538 0
M  V30 872 H 74.3203 2.36547 -7.1804 0
M  V30 873 H 75.5883 3.53189 -6.94894 0
M  V30 874 N 79.8174 1.5752 -0.0501392 0
M  V30 875 C 81.0664 1.91827 0.623328 0
M  V30 876 C 81.3794 0.930222 1.72065 0
M  V30 877 O 82.5854 1.1653 2.4522 0
M  V30 878 C 81.0414 3.40692 1.16003 0
M  V30 879 C 80.6494 4.479 0.0948811 0
M  V30 880 C 82.3934 3.84034 1.80881 0
M  V30 881 C 80.3004 5.87879 0.644411 0
M  V30 882 H 79.2304 0.715918 0.236596 0
M  V30 883 H 81.8814 1.83115 -0.118861 0
M  V30 884 H 80.2634 3.44405 1.9545 0
M  V30 885 H 81.4374 4.55775 -0.678675 0
M  V30 886 H 79.7524 4.13892 -0.45637 0
M  V30 887 H 82.3494 4.85984 2.22988 0
M  V30 888 H 82.6924 3.20225 2.6601 0
M  V30 889 H 83.2254 3.82833 1.0809 0
M  V30 890 H 79.9644 6.55282 -0.169229 0
M  V30 891 H 79.4844 5.83567 1.38598 0
M  V30 892 H 81.1634 6.37098 1.12763 0
M  V30 893 N 81.2955 -0.223234 1.56011 0
M  V30 894 C 82.2285 -1.30377 1.87289 0
M  V30 895 C 83.2065 -1.45286 0.730112 0
M  V30 896 O 84.3905 -1.61126 0.978302 0
M  V30 897 C 81.5175 -2.67431 2.07843 0
M  V30 898 C 80.5635 -2.69546 3.30526 0
M  V30 899 S 81.3965 -2.23781 4.865 0
M  V30 900 C 82.5525 -3.62714 5.10088 0
M  V30 901 H 82.7855 -1.03652 2.78646 0
M  V30 902 H 80.3185 -0.425393 1.48424 0
M  V30 903 H 82.2765 -3.46336 2.20368 0
M  V30 904 H 80.9375 -2.91381 1.17285 0
M  V30 905 H 80.1305 -3.70255 3.41947 0
M  V30 906 H 79.7325 -1.98703 3.16849 0
M  V30 907 H 82.0245 -4.58391 4.98883 0
M  V30 908 H 82.9675 -3.5621 6.11981 0
M  V30 909 H 83.3755 -3.56323 4.37829 0
M  V30 910 N 82.7736 -1.49793 -0.48987 0
M  V30 911 C 83.7206 -1.67281 -1.59014 0
M  V30 912 C 84.6906 -0.514177 -1.57941 0
M  V30 913 O 85.8756 -0.742533 -1.75759 0
M  V30 914 C 83.0156 -1.75569 -2.97102 0
M  V30 915 C 82.1286 -3.0281 -3.08107 0
M  V30 916 C 81.2636 -3.02008 -4.36995 0
M  V30 917 C 80.3026 -4.23782 -4.41673 0
M  V30 918 N 79.4396 -4.20826 -5.62005 0
M  V30 919 H 84.2796 -2.61224 -1.43409 0
M  V30 920 H 81.8166 -1.29508 -0.697565 0
M  V30 921 H 83.7746 -1.78354 -3.77155 0
M  V30 922 H 82.4046 -0.850827 -3.11385 0
M  V30 923 H 81.4566 -3.09584 -2.21047 0
M  V30 924 H 82.7686 -3.92801 -3.07423 0
M  V30 925 H 81.9226 -3.03418 -5.25378 0
M  V30 926 H 80.6616 -2.09815 -4.4026 0
M  V30 927 H 79.6666 -4.22604 -3.5169 0
M  V30 928 H 80.8916 -5.17181 -4.40115 0
M  V30 929 H 78.8376 -3.31476 -5.66091 0
M  V30 930 H 78.7546 -5.04564 -5.62984 0
M  V30 931 H 80.0226 -4.26355 -6.52565 0
M  V30 932 N 84.2517 0.741722 -1.39055 0
M  V30 933 C 85.5287 1.49252 -1.26425 0
M  V30 934 C 85.9087 2.10705 0.129144 0
M  V30 935 O 85.2567 1.98045 1.13976 0
M  V30 936 C 85.4667 2.54934 -2.38347 0
M  V30 937 C 86.8147 3.21506 -2.77343 0
M  V30 938 O 87.8387 2.65245 -2.37747 0
M  V30 939 O 86.6977 4.23294 -3.45665 0
M  V30 940 H 83.7917 0.662451 -0.495064 0
M  V30 941 H 86.3377 0.776121 -1.50912 0
M  V30 942 H 85.1097 2.07857 -3.31529 0
M  V30 943 H 84.7327 3.34141 -2.15489 0
M  V30 944 N 85.7298 1.2412 0.971189 0
M  V30 945 C 86.6598 1.05508 2.08304 0
M  V30 946 C 87.6408 -0.0308864 1.70072 0
M  V30 947 O 88.8258 0.135521 1.93727 0
M  V30 948 C 85.9558 0.655365 3.4106 0
M  V30 949 C 84.9098 1.68971 3.93234 0
M  V30 950 C 84.2358 1.14516 5.22293 0
M  V30 951 C 85.5358 3.08487 4.21465 0
M  V30 952 H 87.2298 1.98507 2.24132 0
M  V30 953 H 84.7758 0.955821 1.07704 0
M  V30 954 H 86.7288 0.51217 4.18276 0
M  V30 955 H 85.4528 -0.31032 3.25122 0
M  V30 956 H 84.1118 1.82106 3.18171 0
M  V30 957 H 83.7598 0.170189 5.02712 0
M  V30 958 H 83.4598 1.83635 5.58168 0
M  V30 959 H 84.9838 1.01401 6.02121 0
M  V30 960 H 86.3978 2.98601 4.89398 0
M  V30 961 H 84.7948 3.74926 4.68562 0
M  V30 962 H 85.8648 3.56787 3.28376 0
M  V30 963 N 87.2079 -1.17134 1.05439 0
M  V30 964 C 88.4849 -1.83411 0.679699 0
M  V30 965 C 88.8649 -1.9368 -0.839726 0
M  V30 966 O 88.2129 -1.47325 -1.74664 0
M  V30 967 C 88.4229 -3.20918 1.37159 0
M  V30 968 C 89.7709 -3.96796 1.51123 0
M  V30 969 O 90.7949 -3.30406 1.3308 0
M  V30 970 O 89.6539 -5.15778 1.80651 0
M  V30 971 H 86.7479 -0.79154 0.239569 0
M  V30 972 H 89.2939 -1.24411 1.15413 0
M  V30 973 H 88.0659 -3.08428 2.40807 0
M  V30 974 H 87.6889 -3.87587 0.886674 0
M  V30 975 N 88.686 -0.835752 -1.33615 0
M  V30 976 C 89.618 -0.224151 -2.28101 0
M  V30 977 C 90.631 0.593331 -1.51603 0
M  V30 978 O 91.82 0.420911 -1.73466 0
M  V30 979 C 88.92 0.703309 -3.31522 0
M  V30 980 C 88.093 -0.0741528 -4.37337 0
M  V30 981 C 87.152 0.776176 -5.20444 0
M  V30 982 O 86.178 0.216506 -5.68788 0
M  V30 983 N 87.38 2.09401 -5.41416 0
M  V30 984 H 90.145 -1.03598 -2.81225 0
M  V30 985 H 87.706 -0.69392 -1.46275 0
M  V30 986 H 89.698 1.27707 -3.84022 0
M  V30 987 H 88.268 1.41585 -2.78698 0
M  V30 988 H 87.488 -0.82928 -3.85378 0
M  V30 989 H 88.776 -0.608863 -5.05144 0
M  V30 990 H 88.174 2.57229 -5.03835 0
M  V30 991 H 86.731 2.61633 -5.96985 0
M  V30 992 N 90.1641 1.46063 -0.591896 0
M  V30 993 C 91.4041 2.04228 -0.0838014 0
M  V30 994 C 91.7681 1.45231 1.25587 0
M  V30 995 O 92.9691 1.94653 1.85375 0
M  V30 996 C 91.2401 3.57389 -0.0286282 0
M  V30 997 S 92.7991 4.3678 0.420557 0
M  V30 998 H 89.6171 0.709762 -0.0419319 0
M  V30 999 H 92.2191 1.78983 -0.786465 0
M  V30 1000 H 90.9231 3.97843 -1.00743 0
M  V30 1001 H 90.4541 3.87185 0.69652 0
M  V30 1002 H 92.4691 4.67131 1.67341 0
M  V30 1003 N 91.6422 0.330177 1.54103 0
M  V30 1004 C 93.0582 -0.0222371 1.59585 0
M  V30 1005 C 93.2582 -1.49902 1.34654 0
M  V30 1006 O 92.3142 -2.25592 1.13421 0
M  V30 1007 C 93.6272 0.401932 2.98002 0
M  V30 1008 C 95.1752 0.353145 3.11001 0
M  V30 1009 C 95.6502 0.752576 4.51775 0
M  V30 1010 N 97.1412 0.706239 4.57784 0
M  V30 1011 C 97.8762 0.987417 5.64834 0
M  V30 1012 N 97.3722 1.33607 6.79795 0
M  V30 1013 N 99.1652 0.91254 5.54643 0
M  V30 1014 H 91.3162 1.29228 1.68564 0
M  V30 1015 H 93.5792 0.525906 0.78875 0
M  V30 1016 H 93.2852 1.4311 3.21267 0
M  V30 1017 H 93.1592 -0.229699 3.765 0
M  V30 1018 H 95.5462 -0.666822 2.87467 0
M  V30 1019 H 95.6272 1.0198 2.34593 0
M  V30 1020 H 95.2712 1.77049 4.76042 0
M  V30 1021 H 95.2012 0.0635409 5.26562 0
M  V30 1022 H 97.6922 0.44889 3.75224 0
M  V30 1023 H 98.0052 1.53582 7.57385 0
M  V30 1024 H 96.3502 1.37439 6.81275 0
M  V30 1025 H 99.5412 0.639601 4.6371 0
M  V30 1026 H 99.7142 1.13503 6.37982 0
M  V30 1027 N 93.1203 -1.57491 0.0584922 0
M  V30 1028 C 94.3973 -1.84346 -0.653918 0
M  V30 1029 C 94.7773 -0.948355 -1.88599 0
M  V30 1030 O 94.1253 -0.0112403 -2.28497 0
M  V30 1031 C 94.3353 -3.34239 -1.00425 0
M  V30 1032 C 95.6833 -4.01431 -1.38342 0
M  V30 1033 O 96.7073 -3.38907 -1.09637 0
M  V30 1034 O 95.5663 -5.11683 -1.91943 0
M  V30 1035 H 92.6603 -0.761112 -0.323478 0
M  V30 1036 H 95.2063 -1.6947 0.0884125 0
M  V30 1037 H 93.9783 -3.91089 -0.128625 0
M  V30 1038 H 93.6013 -3.54329 -1.80378 0
M  V30 1039 N 94.5984 0.214957 -1.56127 0
M  V30 1040 C 95.8464 0.936518 -1.79091 0
M  V30 1041 C 96.1674 1.84606 -0.628148 0
M  V30 1042 O 95.4374 1.92664 0.35462 0
M  V30 1043 H 94.0174 0.3488 -0.660566 0
M  V30 1044 H 96.6794 0.22523 -1.93594 0
M  V30 1045 H 95.7754 1.53943 -2.71492 0
M  V30 1046 N 96.0765 1.50051 0.48192 0
M  V30 1047 C 97.0235 1.68122 1.58125 0
M  V30 1048 C 97.9935 0.522545 1.57666 0
M  V30 1049 O 99.1785 0.751844 1.75362 0
M  V30 1050 C 96.3185 1.77142 2.96167 0
M  V30 1051 C 95.4315 3.0444 3.06497 0
M  V30 1052 C 94.5665 3.04321 4.35387 0
M  V30 1053 C 93.6055 4.26118 4.3942 0
M  V30 1054 N 92.7425 4.238 5.59766 0
M  V30 1055 H 97.5825 2.6198 1.42022 0
M  V30 1056 H 95.1195 1.29877 0.690687 0
M  V30 1057 H 97.0775 1.80352 3.76203 0
M  V30 1058 H 95.7075 0.867329 3.1093 0
M  V30 1059 H 94.7595 3.10752 2.19402 0
M  V30 1060 H 96.0715 3.94426 3.05336 0
M  V30 1061 H 95.2255 3.062 5.23762 0
M  V30 1062 H 93.9645 2.12147 4.39141 0
M  V30 1063 H 92.9695 4.24463 3.49444 0
M  V30 1064 H 94.1945 5.19507 4.37366 0
M  V30 1065 H 92.1405 3.34474 5.64326 0
M  V30 1066 H 92.0575 5.07542 5.60301 0
M  V30 1067 H 93.3255 4.2981 6.50295 0
M  V30 1068 N 97.5546 -0.734337 1.39446 0
M  V30 1069 C 98.8006 -1.49613 1.36908 0
M  V30 1070 C 99.1336 -1.94169 -0.0347829 0
M  V30 1071 O 98.4086 -1.66833 -0.999847 0
M  V30 1072 C 98.6916 -2.73534 2.34203 0
M  V30 1073 C 98.5446 -2.34993 3.83534 0
M  V30 1074 C 99.8636 -3.75635 2.29317 0
M  V30 1075 H 96.9826 -0.542714 0.498629 0
M  V30 1076 H 99.6246 -0.839597 1.70443 0
M  V30 1077 H 97.7746 -3.29553 2.05736 0
M  V30 1078 H 99.4466 -1.84601 4.22753 0
M  V30 1079 H 97.6896 -1.67213 4.00278 0
M  V30 1080 H 98.3606 -3.23738 4.47099 0
M  V30 1081 H 100.837 -3.29203 2.54489 0
M  V30 1082 H 99.7126 -4.60008 2.99472 0
M  V30 1083 H 99.9736 -4.22603 1.29842 0
M  V30 1084 N 99.0327 -1.24633 -0.964593 0
M  V30 1085 C 100.281 -1.08573 -1.70459 0
M  V30 1086 C 100.602 0.375655 -1.91347 0
M  V30 1087 O 99.8717 1.26779 -1.49345 0
M  V30 1088 H 98.4517 -0.398784 -0.631649 0
M  V30 1089 H 101.114 -1.56601 -1.16026 0
M  V30 1090 H 100.21 -1.58623 -2.68785 0
M  V30 1091 N 100.511 1.16574 -1.06058 0
M  V30 1092 C 101.758 1.87047 -0.775873 0
M  V30 1093 C 102.086 1.81562 0.697534 0
M  V30 1094 O 101.341 1.22445 1.52662 0
M  V30 1095 C 101.64 3.36195 -1.21275 0
M  V30 1096 C 101.306 3.6188 -2.68986 0
M  V30 1097 C 99.9678 3.68599 -3.09335 0
M  V30 1098 C 102.32 3.72648 -3.64394 0
M  V30 1099 C 99.6478 3.83584 -4.43937 0
M  V30 1100 C 102 3.89154 -4.98741 0
M  V30 1101 C 100.664 3.94114 -5.3873 0
M  V30 1102 H 99.9338 0.684452 -0.283912 0
M  V30 1103 H 102.581 1.37853 -1.32925 0
M  V30 1104 H 100.886 3.87505 -0.578528 0
M  V30 1105 H 102.583 3.89103 -0.969542 0
M  V30 1106 H 99.1728 3.57281 -2.36744 0
M  V30 1107 H 103.357 3.66769 -3.34356 0
M  V30 1108 H 98.6128 3.85677 -4.74409 0
M  V30 1109 H 102.787 3.96427 -5.72554 0
M  V30 1110 H 100.414 4.05478 -6.43033 0
M  V30 1111 N 101.989 0.842826 1.3317 0
M  V30 1112 C 102.921 0.236245 2.27979 0
M  V30 1113 C 103.934 -0.585282 1.51915 0
M  V30 1114 O 105.123 -0.411705 1.73687 0
M  V30 1115 C 102.223 -0.685717 3.3189 0
M  V30 1116 C 101.396 0.0973448 4.37292 0
M  V30 1117 C 100.455 -0.748565 5.20848 0
M  V30 1118 O 99.4809 -0.186339 5.68895 0
M  V30 1119 N 100.683 -2.06527 5.42519 0
M  V30 1120 H 103.448 1.05088 2.80672 0
M  V30 1121 H 101.009 0.701667 1.45905 0
M  V30 1122 H 103.001 -1.25669 3.84694 0
M  V30 1123 H 101.571 -1.40105 2.79445 0
M  V30 1124 H 100.791 0.849706 3.84933 0
M  V30 1125 H 102.079 0.635643 5.04814 0
M  V30 1126 H 101.477 -2.54554 5.05192 0
M  V30 1127 H 100.034 -2.58464 5.98364 0
M  V30 1128 N 103.467 -1.45747 0.599634 0
M  V30 1129 C 104.692 -2.07178 0.0960198 0
M  V30 1130 C 105.117 -1.44268 -1.207 0
M  V30 1131 O 104.475 -0.532503 -1.73303 0
M  V30 1132 C 104.523 -3.60579 -0.0385348 0
M  V30 1133 O 103.627 -3.97713 -1.0908 0
M  V30 1134 H 102.968 -0.660251 0.0704593 0
M  V30 1135 H 105.498 -1.87124 0.827385 0
M  V30 1136 H 105.508 -4.07298 -0.239304 0
M  V30 1137 H 104.183 -4.05756 0.912947 0
M  V30 1138 H 102.76 -3.62678 -0.867135 0
M  V30 1139 N 104.945 -0.338344 -1.53925 0
M  V30 1140 C 106.192 0.259758 -2.00827 0
M  V30 1141 C 106.52 1.50973 -1.22628 0
M  V30 1142 O 105.775 1.93379 -0.300509 0
M  V30 1143 C 106.074 0.62448 -3.51902 0
M  V30 1144 C 105.74 -0.528006 -4.47798 0
M  V30 1145 C 104.402 -0.844298 -4.73735 0
M  V30 1146 C 106.754 -1.30143 -5.0469 0
M  V30 1147 C 104.082 -1.93648 -5.53821 0
M  V30 1148 C 106.434 -2.38382 -5.85967 0
M  V30 1149 C 105.098 -2.70576 -6.10201 0
M  V30 1150 H 104.368 0.0950523 -0.734878 0
M  V30 1151 H 107.015 -0.465182 -1.85764 0
M  V30 1152 H 105.32 1.43006 -3.64769 0
M  V30 1153 H 107.017 1.09905 -3.85645 0
M  V30 1154 H 103.607 -0.271421 -4.2774 0
M  V30 1155 H 107.791 -1.07033 -4.84621 0
M  V30 1156 H 103.047 -2.19021 -5.70824 0
M  V30 1157 H 107.221 -2.98746 -6.29066 0
M  V30 1158 H 104.848 -3.55333 -6.72044 0
M  V30 1159 N 106.423 1.57458 -0.0668435 0
M  V30 1160 C 107.67 1.93301 0.603406 0
M  V30 1161 C 107.998 0.946486 1.69917 0
M  V30 1162 O 107.253 -0.0387021 1.95662 0
M  V30 1163 C 107.552 3.35784 1.22409 0
M  V30 1164 C 107.218 4.50179 0.254955 0
M  V30 1165 C 105.88 4.81199 -0.0116746 0
M  V30 1166 C 108.232 5.19598 -0.408338 0
M  V30 1167 C 105.56 5.78978 -0.94877 0
M  V30 1168 C 107.912 6.18381 -1.33372 0
M  V30 1169 C 106.576 6.47821 -1.60887 0
M  V30 1170 H 105.846 0.707338 0.220802 0
M  V30 1171 H 108.493 1.91012 -0.136665 0
M  V30 1172 H 106.798 3.34515 2.03978 0
M  V30 1173 H 108.495 3.60804 1.74989 0
M  V30 1174 H 105.085 4.25983 0.472954 0
M  V30 1175 H 109.269 4.95832 -0.215456 0
M  V30 1176 H 104.525 6.00115 -1.16925 0
M  V30 1177 H 108.699 6.71277 -1.85367 0
M  V30 1178 H 106.326 7.23399 -2.33661 0
M  V30 1179 N 107.901 -0.206675 1.56239 0
M  V30 1180 C 109.126 -0.949474 1.8439 0
M  V30 1181 C 109.551 -1.76549 0.649016 0
M  V30 1182 O 108.909 -1.76782 -0.402231 0
M  V30 1183 C 108.957 -1.83078 3.10668 0
M  V30 1184 O 108.061 -2.9281 2.90407 0
M  V30 1185 H 107.402 -0.268033 0.607499 0
M  V30 1186 H 109.932 -0.215488 2.03462 0
M  V30 1187 H 109.942 -2.2377 3.41161 0
M  V30 1188 H 108.617 -1.23112 3.97261 0
M  V30 1189 H 107.194 -2.55956 2.71184 0
M  V30 1190 N 109.379 -1.50304 -0.473955 0
M  V30 1191 C 110.309 -1.71886 -1.58042 0
M  V30 1192 C 111.29 -0.567799 -1.60344 0
M  V30 1193 O 112.475 -0.806623 -1.76656 0
M  V30 1194 C 109.605 -1.81036 -2.96384 0
M  V30 1195 C 108.559 -2.962 -3.08949 0
M  V30 1196 C 107.885 -2.9049 -4.48909 0
M  V30 1197 C 109.185 -4.36752 -2.86434 0
M  V30 1198 H 110.879 -2.64527 -1.40234 0
M  V30 1199 H 108.425 -1.27295 -0.673201 0
M  V30 1200 H 110.378 -1.94719 -3.73714 0
M  V30 1201 H 109.102 -0.850147 -3.15341 0
M  V30 1202 H 107.761 -2.82164 -2.3405 0
M  V30 1203 H 107.409 -1.92321 -4.64781 0
M  V30 1204 H 107.109 -3.67802 -4.58253 0
M  V30 1205 H 108.633 -3.06218 -5.28264 0
M  V30 1206 H 110.047 -4.5133 -3.53517 0
M  V30 1207 H 108.444 -5.15493 -3.07225 0
M  V30 1208 H 109.514 -4.49321 -1.82316 0
M  V30 1209 N 110.857 0.726932 -1.39834 0
M  V30 1210 C 112.106 1.48214 -1.36805 0
M  V30 1211 C 112.419 1.95576 0.0305291 0
M  V30 1212 O 113.625 2.7088 0.183417 0
M  V30 1213 C 112.081 2.67854 -2.40379 0
M  V30 1214 C 111.689 2.27408 -3.85992 0
M  V30 1215 C 113.433 3.45641 -2.46439 0
M  V30 1216 C 111.34 3.43819 -4.81189 0
M  V30 1217 H 110.27 0.556606 -0.508631 0
M  V30 1218 H 112.921 0.792216 -1.65518 0
M  V30 1219 H 111.303 3.3896 -2.04749 0
M  V30 1220 H 112.477 1.63795 -4.30706 0
M  V30 1221 H 110.792 1.62692 -3.83302 0
M  V30 1222 H 113.389 4.32244 -3.14753 0
M  V30 1223 H 113.732 3.88669 -1.49139 0
M  V30 1224 H 114.265 2.8157 -2.81004 0
M  V30 1225 H 111.004 3.05834 -5.79781 0
M  V30 1226 H 110.524 4.06385 -4.41148 0
M  V30 1227 H 112.203 4.10043 -5.00474 0
M  V30 1228 N 112.336 1.25143 0.95797 0
M  V30 1229 C 113.299 1.05321 2.03569 0
M  V30 1230 C 114.299 0.007152 1.60798 0
M  V30 1231 O 115.489 0.24903 1.72411 0
M  V30 1232 C 112.621 0.598394 3.35607 0
M  V30 1233 H 113.814 2.00986 2.22586 0
M  V30 1234 H 111.367 1.07502 1.13459 0
M  V30 1235 H 112.102 -0.361014 3.22284 0
M  V30 1236 H 111.887 1.35351 3.67998 0
M  V30 1237 H 113.377 0.48104 4.1482 0
M  V30 1238 N 113.814 -1.1601 1.06675 0
M  V30 1239 C 115.062 -1.86264 0.784229 0
M  V30 1240 C 115.383 -1.82328 -0.691488 0
M  V30 1241 O 114.653 -1.25947 -1.50047 0
M  V30 1242 H 113.233 -0.689621 0.28711 0
M  V30 1243 H 115.895 -1.40664 1.34906 0
M  V30 1244 H 114.991 -2.91595 1.11259 0
M  V30 1245 N 115.292 -0.849877 -1.32721 0
M  V30 1246 C 116.222 -0.306308 -2.31482 0
M  V30 1247 C 117.203 0.591952 -1.59468 0
M  V30 1248 O 118.388 0.513199 -1.87296 0
M  V30 1249 C 115.518 0.510204 -3.43532 0
M  V30 1250 C 114.472 -0.293209 -4.26994 0
M  V30 1251 C 113.798 0.647743 -5.30762 0
M  V30 1252 C 115.098 -1.51634 -4.99804 0
M  V30 1253 H 116.792 -1.13153 -2.77195 0
M  V30 1254 H 114.338 -0.545553 -1.33266 0
M  V30 1255 H 116.291 0.900856 -4.11658 0
M  V30 1256 H 115.015 1.36874 -2.96535 0
M  V30 1257 H 113.674 -0.665555 -3.60508 0
M  V30 1258 H 113.322 1.50299 -4.8002 0
M  V30 1259 H 113.022 0.11422 -5.87489 0
M  V30 1260 H 114.546 1.03567 -6.01753 0
M  V30 1261 H 115.96 -1.19824 -5.60638 0
M  V30 1262 H 114.357 -1.98745 -5.66234 0
M  V30 1263 H 115.427 -2.28018 -4.27943 0
M  V30 1264 N 116.77 1.45427 -0.607355 0
M  V30 1265 C 117.998 2.06614 -0.108814 0
M  V30 1266 C 118.413 1.45204 1.2067 0
M  V30 1267 O 117.77 0.566132 1.73497 0
M  V30 1268 C 117.821 3.61481 0.0375347 0
M  V30 1269 O 117.542 4.20598 -1.22593 0
M  V30 1270 C 119.043 4.39652 0.567561 0
M  V30 1271 H 116.263 0.66747 -0.0687351 0
M  V30 1272 H 118.807 1.86675 -0.835022 0
M  V30 1273 H 116.962 3.80762 0.714068 0
M  V30 1274 H 117.376 5.1377 -1.05547 0
M  V30 1275 H 118.85 5.48518 0.61905 0
M  V30 1276 H 119.327 4.09417 1.58978 0
M  V30 1277 H 119.933 4.25234 -0.0749202 0
M  V30 1278 N 118.248 0.346503 1.53744 0
M  V30 1279 C 119.497 -0.250122 2.00143 0
M  V30 1280 C 119.81 -1.51418 1.23822 0
M  V30 1281 O 121.016 -2.18823 1.60713 0
M  V30 1282 C 119.472 -0.496252 3.56462 0
M  V30 1283 C 119.08 0.752077 4.41642 0
M  V30 1284 C 120.824 -1.05157 4.11269 0
M  V30 1285 C 118.731 0.476583 5.89477 0
M  V30 1286 H 117.661 -0.0972409 0.747703 0
M  V30 1287 H 120.312 0.46229 1.77581 0
M  V30 1288 H 118.694 -1.26944 3.75102 0
M  V30 1289 H 119.868 1.5266 4.34778 0
M  V30 1290 H 118.183 1.22925 3.97842 0
M  V30 1291 H 120.78 -1.27269 5.19333 0
M  V30 1292 H 121.123 -2.00799 3.64672 0
M  V30 1293 H 121.656 -0.339019 3.96353 0
M  V30 1294 H 118.395 1.4028 6.40314 0
M  V30 1295 H 117.915 -0.259794 5.99237 0
M  V30 1296 H 119.594 0.0949315 6.4693 0
M  V30 1297 N 119.726 -1.57421 0.075193 0
M  V30 1298 C 120.689 -2.11791 -0.876203 0
M  V30 1299 C 121.689 -1.04268 -1.22412 0
M  V30 1300 O 122.879 -1.30242 -1.15684 0
M  V30 1301 C 120.011 -2.62207 -2.17854 0
M  V30 1302 H 121.204 -2.9716 -0.40444 0
M  V30 1303 H 118.757 -1.55333 -0.173557 0
M  V30 1304 H 119.492 -1.803 -2.6956 0
M  V30 1305 H 119.277 -3.40802 -1.93897 0
M  V30 1306 H 120.767 -3.04335 -2.85955 0
M  V30 1307 N 121.204 0.198386 -1.56346 0
M  V30 1308 C 122.444 0.92609 -1.82217 0
M  V30 1309 C 122.808 1.80584 -0.652195 0
M  V30 1310 O 124.009 2.56907 -0.790716 0
M  V30 1311 C 122.28 1.72354 -3.13096 0
M  V30 1312 S 123.839 2.50371 -3.6036 0
M  V30 1313 H 120.657 0.310677 -0.639532 0
M  V30 1314 H 123.259 0.189755 -1.94577 0
M  V30 1315 H 121.963 1.0678 -3.96265 0
M  V30 1316 H 121.494 2.50175 -3.03605 0
M  V30 1317 H 123.509 3.74488 -3.25535 0
M  V30 1318 N 122.682 1.50554 0.465978 0
M  V30 1319 C 123.63 1.70324 1.58406 0
M  V30 1320 C 124.624 0.569139 1.59553 0
M  V30 1321 O 125.83 0.749776 1.63641 0
M  V30 1322 H 122.205 0.537688 0.525734 0
M  V30 1323 H 124.176 2.64104 1.38894 0
M  V30 1324 C 122.925 1.81928 2.96307 0
M  V30 1325 H 122.248 2.68586 2.96144 0
M  V30 1326 H 123.688 1.99784 3.73982 0
M  V30 1327 C 122.147 0.572095 3.32007 0
M  V30 1328 O 122.677 -0.286416 4.00678 0
M  V30 1329 N 120.883 0.424606 2.87481 0
M  V30 1330 H 120.43 1.12427 2.31771 0
M  V30 1331 H 120.388 -0.408697 3.11732 0
M  V30 1332 N 124.16 -0.719506 1.40217 0
M  V30 1333 C 125.437 -1.47221 1.28784 0
M  V30 1334 C 125.817 -2.10883 -0.0956067 0
M  V30 1335 O 125.165 -1.99833 -1.10811 0
M  V30 1336 C 125.375 -2.5111 2.42373 0
M  V30 1337 C 126.723 -3.17053 2.82423 0
M  V30 1338 O 127.747 -2.61429 2.41937 0
M  V30 1339 O 126.606 -4.17742 3.52355 0
M  V30 1340 H 123.7 -0.654491 0.50554 0
M  V30 1341 H 126.246 -0.752014 1.52128 0
M  V30 1342 H 125.018 -2.02556 3.34793 0
M  V30 1343 H 124.641 -3.3067 2.20778 0
M  V30 1344 N 125.638 -1.25649 -0.95132 0
M  V30 1345 C 126.868 -1.13179 -1.72841 0
M  V30 1346 C 127.276 0.316827 -1.86528 0
M  V30 1347 O 126.619 1.22948 -1.3649 0
M  V30 1348 C 126.681 -1.71644 -3.15878 0
M  V30 1349 C 126.345 -3.20667 -3.25609 0
M  V30 1350 C 127.342 -4.17616 -3.09666 0
M  V30 1351 C 125.027 -3.6094 -3.49324 0
M  V30 1352 C 127.021 -5.52817 -3.17289 0
M  V30 1353 C 124.708 -4.96278 -3.56584 0
M  V30 1354 C 125.706 -5.92025 -3.40581 0
M  V30 1355 O 125.394 -7.24899 -3.47528 0
M  V30 1356 H 125.126 -0.395389 -0.54831 0
M  V30 1357 H 127.68 -1.66566 -1.20187 0
M  V30 1358 H 125.91 -1.12707 -3.69911 0
M  V30 1359 H 127.599 -1.54225 -3.75459 0
M  V30 1360 H 128.365 -3.87842 -2.91211 0
M  V30 1361 H 124.244 -2.86907 -3.6084 0
M  V30 1362 H 127.788 -6.2753 -3.04716 0
M  V30 1363 H 123.685 -5.25716 -3.74556 0
M  V30 1364 H 124.453 -7.33039 -3.64138 0
M  V30 1365 N 127.117 1.15442 -1.07289 0
M  V30 1366 C 128.364 1.86213 -0.795668 0
M  V30 1367 C 128.692 1.82291 0.678238 0
M  V30 1368 O 127.947 1.24057 1.51355 0
M  V30 1369 C 128.246 3.3489 -1.24834 0
M  V30 1370 C 127.912 3.59007 -2.72809 0
M  V30 1371 C 126.574 3.65298 -3.13227 0
M  V30 1372 C 128.926 3.68762 -3.68326 0
M  V30 1373 C 126.254 3.78854 -4.4798 0
M  V30 1374 C 128.606 3.83842 -5.0284 0
M  V30 1375 C 127.27 3.88378 -5.4288 0
M  V30 1376 H 126.54 0.681403 -0.291155 0
M  V30 1377 H 129.187 1.36435 -1.34379 0
M  V30 1378 H 127.492 3.8687 -0.619595 0
M  V30 1379 H 129.189 3.88052 -1.01076 0
M  V30 1380 H 125.779 3.5475 -2.40521 0
M  V30 1381 H 129.963 3.63202 -3.38227 0
M  V30 1382 H 125.219 3.80623 -4.78472 0
M  V30 1383 H 129.393 3.90332 -5.76727 0
M  V30 1384 H 127.02 3.98635 -6.47298 0
M  V30 1385 N 128.595 0.856903 1.32268 0
M  V30 1386 C 129.841 0.462069 1.97466 0
M  V30 1387 C 130.174 -0.980298 1.67642 0
M  V30 1388 O 129.449 -1.68824 0.965858 0
M  V30 1389 C 129.732 0.704336 3.53145 0
M  V30 1390 C 129.585 2.19529 3.9259 0
M  V30 1391 C 130.904 0.1622 4.39801 0
M  V30 1392 H 128.023 0.169357 0.717278 0
M  V30 1393 H 130.665 1.07574 1.56614 0
M  V30 1394 H 128.815 0.181999 3.88073 0
M  V30 1395 H 130.487 2.78387 3.67829 0
M  V30 1396 H 128.73 2.67292 3.41668 0
M  V30 1397 H 129.401 2.31549 5.01088 0
M  V30 1398 H 131.877 0.608905 4.11621 0
M  V30 1399 H 130.753 0.361265 5.4771 0
M  V30 1400 H 131.014 -0.935158 4.32096 0
M  V30 1401 N 130.073 -1.45103 0.615059 0
M  V30 1402 C 131.319 -2.02483 0.113347 0
M  V30 1403 C 131.652 -1.48146 -1.25564 0
M  V30 1404 O 130.927 -0.659104 -1.82992 0
M  V30 1405 C 131.21 -3.60005 0.0825278 0
M  V30 1406 C 131.063 -4.2466 1.48271 0
M  V30 1407 C 132.382 -4.35972 -0.601401 0
M  V30 1408 H 129.501 -0.735764 0.0426632 0
M  V30 1409 H 132.143 -1.72868 0.788461 0
M  V30 1410 H 130.293 -3.85367 -0.492378 0
M  V30 1411 H 131.965 -4.10458 2.10527 0
M  V30 1412 H 130.208 -3.82772 2.04127 0
M  V30 1413 H 130.879 -5.336 1.41332 0
M  V30 1414 H 133.355 -4.15947 -0.112666 0
M  V30 1415 H 132.231 -5.45697 -0.592097 0
M  V30 1416 H 132.492 -4.09391 -1.66887 0
M  V30 1417 N 131.551 -0.354651 -1.53558 0
M  V30 1418 C 132.501 0.513179 -2.2215 0
M  V30 1419 C 133.485 1.05734 -1.21281 0
M  V30 1420 O 134.677 0.989202 -1.46778 0
M  V30 1421 C 131.806 1.65798 -3.00609 0
M  V30 1422 C 130.892 1.12722 -4.08845 0
M  V30 1423 N 131.283 0.318563 -5.04796 0
M  V30 1424 C 129.581 1.40307 -4.23356 0
M  V30 1425 C 130.282 0.0292224 -5.81693 0
M  V30 1426 N 129.258 0.623891 -5.40008 0
M  V30 1427 H 133.06 -0.111586 -2.93688 0
M  V30 1428 H 130.574 -0.162091 -1.61589 0
M  V30 1429 H 132.571 2.29176 -3.48258 0
M  V30 1430 H 131.231 2.28591 -2.306 0
M  V30 1431 H 132.242 -0.0413091 -5.17884 0
M  V30 1432 H 128.919 2.03458 -3.6457 0
M  V30 1433 H 130.309 -0.623808 -6.68998 0
M  V30 1434 N 133.029 1.57378 -0.0835403 0
M  V30 1435 C 133.962 2.09016 0.915833 0
M  V30 1436 C 134.94 0.997993 1.2837 0
M  V30 1437 O 136.124 1.27219 1.39096 0
M  V30 1438 C 133.251 2.55757 2.22049 0
M  V30 1439 C 132.297 3.76522 2.00333 0
M  V30 1440 S 133.13 5.20661 1.25191 0
M  V30 1441 C 134.286 5.70743 2.56912 0
M  V30 1442 H 134.519 2.93457 0.476492 0
M  V30 1443 H 132.052 1.53856 0.129493 0
M  V30 1444 H 134.01 2.83346 2.97027 0
M  V30 1445 H 132.671 1.71564 2.63106 0
M  V30 1446 H 131.864 4.07256 2.96916 0
M  V30 1447 H 131.466 3.49367 1.33488 0
M  V30 1448 H 133.758 5.78304 3.52946 0
M  V30 1449 H 134.701 6.6944 2.30772 0
M  V30 1450 H 135.109 4.98616 2.64655 0
M  V30 1451 N 134.507 -0.190092 1.56449 0
M  V30 1452 C 135.454 -1.23557 1.94942 0
M  V30 1453 C 136.424 -1.44972 0.810696 0
M  V30 1454 O 137.609 -1.58023 1.06927 0
M  V30 1455 C 134.749 -2.57416 2.2985 0
M  V30 1456 C 133.862 -2.43537 3.5681 0
M  V30 1457 C 132.997 -3.70134 3.81017 0
M  V30 1458 C 132.036 -3.51109 5.01387 0
M  V30 1459 N 131.173 -4.6973 5.21822 0
M  V30 1460 H 136.013 -0.900304 2.84075 0
M  V30 1461 H 133.55 -0.43318 1.40577 0
M  V30 1462 H 135.508 -3.35409 2.48106 0
M  V30 1463 H 134.138 -2.88975 1.43852 0
M  V30 1464 H 133.19 -1.56816 3.46573 0
M  V30 1465 H 134.502 -2.25415 4.4496 0
M  V30 1466 H 133.656 -4.56566 3.9954 0
M  V30 1467 H 132.395 -3.91215 2.91207 0
M  V30 1468 H 131.4 -2.63063 4.82782 0
M  V30 1469 H 132.625 -3.31468 5.9271 0
M  V30 1470 H 130.571 -4.91065 4.34961 0
M  V30 1471 H 130.488 -4.54452 6.0416 0
M  V30 1472 H 131.756 -5.57499 5.44808 0
M  V30 1473 N 135.985 -1.50799 -0.457987 0
M  V30 1474 C 136.917 -1.66786 -1.57211 0
M  V30 1475 C 137.93 -0.548962 -1.53265 0
M  V30 1476 O 139.119 -0.8226 -1.58416 0
M  V30 1477 C 136.219 -1.64834 -2.96113 0
M  V30 1478 C 135.392 -2.92971 -3.24787 0
M  V30 1479 C 134.451 -2.83485 -4.43309 0
M  V30 1480 O 133.477 -3.5744 -4.42973 0
M  V30 1481 N 134.679 -1.97929 -5.45714 0
M  V30 1482 H 137.444 -2.62889 -1.43909 0
M  V30 1483 H 135.005 -1.48427 -0.646617 0
M  V30 1484 H 136.997 -1.56084 -3.7339 0
M  V30 1485 H 135.567 -0.764118 -3.03117 0
M  V30 1486 H 134.787 -3.15749 -2.36 0
M  V30 1487 H 136.075 -3.77834 -3.40762 0
M  V30 1488 H 135.473 -1.37182 -5.48815 0
M  V30 1489 H 134.03 -1.95073 -6.21924 0
M  V30 1490 N 137.463 0.71206 -1.40597 0
M  V30 1491 C 138.41 1.82613 -1.41142 0
M  V30 1492 C 139.38 1.63925 -0.267903 0
M  V30 1493 O 140.565 1.85009 -0.466495 0
M  V30 1494 C 137.705 3.20354 -1.28324 0
M  V30 1495 C 136.818 3.50589 -2.52411 0
M  V30 1496 C 135.953 4.77855 -2.32009 0
M  V30 1497 C 134.992 5.01005 -3.51654 0
M  V30 1498 N 134.129 6.19487 -3.30425 0
M  V30 1499 H 138.969 1.81482 -2.36365 0
M  V30 1500 H 136.506 0.886475 -1.17388 0
M  V30 1501 H 138.464 3.99899 -1.18899 0
M  V30 1502 H 137.094 3.20705 -0.367189 0
M  V30 1503 H 136.146 2.65573 -2.72351 0
M  V30 1504 H 137.458 3.63604 -3.41458 0
M  V30 1505 H 136.612 5.65424 -2.19956 0
M  V30 1506 H 135.351 4.67056 -1.40392 0
M  V30 1507 H 134.356 4.1189 -3.64179 0
M  V30 1508 H 135.581 5.13674 -4.44202 0
M  V30 1509 H 133.527 6.09932 -2.41494 0
M  V30 1510 H 133.444 6.33194 -4.13039 0
M  V30 1511 H 134.712 7.09834 -3.22113 0
M  V30 1512 N 138.941 1.26152 0.944643 0
M  V30 1513 C 140.189 1.11271 1.6871 0
M  V30 1514 C 140.51 -0.345166 1.91921 0
M  V30 1515 O 139.78 -1.24387 1.51343 0
M  V30 1516 H 138.36 0.408783 0.625224 0
M  V30 1517 H 141.022 1.58427 1.1352 0
M  V30 1518 H 140.118 1.62879 2.66227 0
M  V30 1519 N 140.419 -1.14872 1.07899 0
M  V30 1520 C 141.366 -2.19791 0.704319 0
M  V30 1521 C 142.336 -1.63238 -0.306987 0
M  V30 1522 O 143.521 -1.8983 -0.192171 0
M  V30 1523 C 140.661 -3.44911 0.114244 0
M  V30 1524 C 139.774 -4.15637 1.1777 0
M  V30 1525 C 138.909 -5.28324 0.552037 0
M  V30 1526 C 137.948 -5.90875 1.59789 0
M  V30 1527 N 137.085 -6.95022 0.994404 0
M  V30 1528 H 141.925 -2.5119 1.60336 0
M  V30 1529 H 139.462 -1.23356 0.801352 0
M  V30 1530 H 141.42 -4.16477 -0.245544 0
M  V30 1531 H 140.05 -3.14011 -0.74813 0
M  V30 1532 H 139.102 -3.42512 1.65499 0
M  V30 1533 H 140.414 -4.5823 1.97046 0
M  V30 1534 H 139.568 -6.06538 0.1402 0
M  V30 1535 H 138.307 -4.86939 -0.272431 0
M  V30 1536 H 137.312 -5.11369 2.01945 0
M  V30 1537 H 138.537 -6.34337 2.42474 0
M  V30 1538 H 136.483 -6.55722 0.190939 0
M  V30 1539 H 136.4 -7.36073 1.72432 0
M  V30 1540 H 137.668 -7.77123 0.608253 0
M  V30 1541 N 141.898 -0.863906 -1.31812 0
M  V30 1542 C 142.845 -0.313303 -2.28664 0
M  V30 1543 C 143.815 0.584868 -1.55462 0
M  V30 1544 O 145 0.517805 -1.83639 0
M  V30 1545 C 142.14 0.48441 -3.41683 0
M  V30 1546 C 141.253 -0.440594 -4.29747 0
M  V30 1547 C 140.388 0.370652 -5.29905 0
M  V30 1548 C 139.427 -0.551164 -6.09613 0
M  V30 1549 N 138.564 0.223462 -7.01744 0
M  V30 1550 H 143.404 -1.14444 -2.75148 0
M  V30 1551 H 140.941 -0.575769 -1.35364 0
M  V30 1552 H 142.899 0.962627 -4.05943 0
M  V30 1553 H 141.529 1.28029 -2.96325 0
M  V30 1554 H 140.581 -1.03724 -3.65986 0
M  V30 1555 H 141.893 -1.14767 -4.85417 0
M  V30 1556 H 141.047 0.911638 -5.99812 0
M  V30 1557 H 139.786 1.11105 -4.74876 0
M  V30 1558 H 138.791 -1.10396 -5.38603 0
M  V30 1559 H 140.016 -1.29032 -6.66729 0
M  V30 1560 H 137.962 0.946787 -6.49132 0
M  V30 1561 H 137.879 -0.424399 -7.54808 0
M  V30 1562 H 139.147 0.745876 -7.75923 0
M  V30 1563 O 143.415 1.42347 -0.762857 0
M  V30 1564 H 144.106 1.90974 -0.323817 0
M  V30 END ATOM
M  V30 BEGIN BOND
M  V30 END BOND
M  V30 END CTAB
M  END
$$$$
