drugbank_target|P17600 Synapsin-1 (DB02930)
 OpenBabel12092120543D

  0  0  0     0  0            999 V3000
M  V30 BEGIN CTAB
M  V30 COUNTS 10373 10527 0 0 0
M  V30 BEGIN ATOM
M  V30 1 H -0.908 1.98254 -0.117106 0
M  V30 2 N 0 1.576 0 0
M  V30 3 C 0.933 2.03868 1.02534 0
M  V30 4 C 1.911 0.928543 1.3348 0
M  V30 5 O 3.095 1.19667 1.45644 0
M  V30 6 C 0.222 2.43627 2.35294 0
M  V30 7 C -0.732 3.65373 2.2001 0
M  V30 8 S 0.101 5.13292 1.52614 0
M  V30 9 C 1.257 5.56322 2.86805 0
M  V30 10 H 1.49 2.90518 0.631377 0
M  V30 11 H -0.977 1.52953 0.210867 0
M  V30 12 H 0.981 2.67203 3.11629 0
M  V30 13 H -0.358 1.57376 2.7183 0
M  V30 14 H -1.165 3.90944 3.18086 0
M  V30 15 H -1.563 3.418 1.51819 0
M  V30 16 H 0.729 5.58782 3.83104 0
M  V30 17 H 1.672 6.56266 2.65933 0
M  V30 18 H 2.08 4.83886 2.90714 0
M  V30 19 N 1.4781 -0.272755 1.55222 0
M  V30 20 C 2.4261 -1.35705 1.88909 0
M  V30 21 C 3.4201 -1.5112 0.765456 0
M  V30 22 O 4.6261 -1.52901 0.949802 0
M  V30 23 H 1.0011 -0.453868 0.59959 0
M  V30 24 H 2.9721 -1.04544 2.79487 0
M  V30 25 C 1.7211 -2.71049 2.17779 0
M  V30 26 H 1.0441 -2.59979 3.03728 0
M  V30 27 H 2.4841 -3.45858 2.45272 0
M  V30 28 C 0.9431 -3.22165 0.985473 0
M  V30 29 O 1.4731 -4.01096 0.220233 0
M  V30 30 N -0.3209 -2.7985 0.783108 0
M  V30 31 H -0.7739 -2.15775 1.40708 0
M  V30 32 H -0.8159 -3.14397 -0.0130392 0
M  V30 33 N 2.9562 -1.48159 -0.537278 0
M  V30 34 C 4.1862 -1.59223 -1.3165 0
M  V30 35 C 4.5942 -0.248849 -1.87556 0
M  V30 36 O 3.9372 0.770949 -1.6674 0
M  V30 37 C 3.9992 -2.57365 -2.51005 0
M  V30 38 C 3.6632 -4.02603 -2.16239 0
M  V30 39 C 4.6602 -4.90503 -1.72344 0
M  V30 40 C 2.3452 -4.48088 -2.26986 0
M  V30 41 C 4.3392 -6.21913 -1.39651 0
M  V30 42 C 2.0262 -5.7952 -1.93906 0
M  V30 43 C 3.0242 -6.66255 -1.50309 0
M  V30 44 O 2.7122 -7.95243 -1.17659 0
M  V30 45 H 2.4442 -0.539831 -0.406889 0
M  V30 46 H 4.9982 -1.94655 -0.655641 0
M  V30 47 H 3.2282 -2.1704 -3.20048 0
M  V30 48 H 4.9172 -2.58342 -3.13072 0
M  V30 49 H 5.6832 -4.56604 -1.63517 0
M  V30 50 H 1.5622 -3.80769 -2.59877 0
M  V30 51 H 5.1062 -6.89569 -1.0555 0
M  V30 52 H 1.0032 -6.12957 -2.02371 0
M  V30 53 H 1.7712 -8.0793 -1.31119 0
M  V30 54 N 4.4343 0.785586 -1.36625 0
M  V30 55 C 5.3643 1.91259 -1.33949 0
M  V30 56 C 6.3453 1.68795 -0.210325 0
M  V30 57 O 7.5303 1.89854 -0.408561 0
M  V30 58 C 4.6603 3.28339 -1.13186 0
M  V30 59 C 3.6143 3.65335 -2.22967 0
M  V30 60 C 2.9403 5.00806 -1.87342 0
M  V30 61 C 4.2403 3.7352 -3.65075 0
M  V30 62 H 5.9343 1.93755 -2.28253 0
M  V30 63 H 3.4803 0.930788 -1.09874 0
M  V30 64 H 5.4333 4.06804 -1.09948 0
M  V30 65 H 4.1573 3.2624 -0.153332 0
M  V30 66 H 2.8163 2.89169 -2.25337 0
M  V30 67 H 2.4643 4.95233 -0.880545 0
M  V30 68 H 2.1643 5.26529 -2.60846 0
M  V30 69 H 3.6883 5.81687 -1.85667 0
M  V30 70 H 5.1023 4.42168 -3.64911 0
M  V30 71 H 3.4993 4.10731 -4.37516 0
M  V30 72 H 4.5693 2.74527 -3.99703 0
M  V30 73 N 5.9124 1.20967 1.01018 0
M  V30 74 C 7.3284 0.965905 1.27053 0
M  V30 75 C 7.5284 -0.350785 1.98423 0
M  V30 76 O 6.5844 -1.07773 2.28344 0
M  V30 77 C 7.8974 2.15294 2.09926 0
M  V30 78 C 9.4454 2.19463 2.23171 0
M  V30 79 C 9.9204 3.3767 3.09424 0
M  V30 80 N 11.4114 3.37724 3.17012 0
M  V30 81 C 12.1464 4.25837 3.83993 0
M  V30 82 N 11.6424 5.24138 4.53047 0
M  V30 83 N 13.4354 4.1366 3.80581 0
M  V30 84 H 5.5864 2.0565 0.531194 0
M  V30 85 H 7.8494 0.90024 0.297106 0
M  V30 86 H 7.5554 3.10684 1.64828 0
M  V30 87 H 7.4294 2.13923 3.10672 0
M  V30 88 H 9.8164 1.24632 2.6749 0
M  V30 89 H 9.8974 2.2488 1.21912 0
M  V30 90 H 9.5414 4.32791 2.65808 0
M  V30 91 H 9.4714 3.29491 4.10784 0
M  V30 92 H 11.9624 2.6658 2.6785 0
M  V30 93 H 12.2754 5.87684 5.01844 0
M  V30 94 H 10.6204 5.28068 4.5185 0
M  V30 95 H 13.8114 3.36127 3.25785 0
M  V30 96 H 13.9844 4.82538 4.32505 0
M  V30 97 N 7.3905 -1.2043 1.01659 0
M  V30 98 C 8.8065 -1.41852 0.731442 0
M  V30 99 C 9.0065 -1.89358 -0.688898 0
M  V30 100 O 8.0625 -2.06247 -1.45666 0
M  V30 101 C 9.3755 -2.44019 1.75714 0
M  V30 102 C 10.9235 -2.57785 1.77527 0
M  V30 103 C 11.3985 -3.63194 2.79023 0
M  V30 104 N 12.8895 -3.70678 2.77763 0
M  V30 105 C 13.6245 -4.51897 3.52954 0
M  V30 106 N 13.1205 -5.36921 4.37821 0
M  V30 107 N 14.9135 -4.4643 3.41551 0
M  V30 108 H 7.0645 -0.879093 1.93354 0
M  V30 109 H 9.3275 -0.448425 0.835236 0
M  V30 110 H 9.0335 -2.1611 2.77469 0
M  V30 111 H 8.9075 -3.43007 1.56927 0
M  V30 112 H 11.2945 -2.85023 0.764569 0
M  V30 113 H 11.3755 -1.58992 2.00387 0
M  V30 114 H 11.0195 -3.36699 3.80258 0
M  V30 115 H 10.9495 -4.61609 2.53425 0
M  V30 116 H 13.4405 -3.09944 2.16201 0
M  V30 117 H 13.7535 -5.95981 4.91962 0
M  V30 118 H 12.0985 -5.36424 4.41899 0
M  V30 119 H 15.2895 -3.79042 2.74672 0
M  V30 120 H 15.4625 -5.09491 4.00404 0
M  V30 121 N 8.8686 -0.792821 -1.36206 0
M  V30 122 C 10.2846 -0.474903 -1.52371 0
M  V30 123 C 10.4846 1.00622 -1.74578 0
M  V30 124 O 9.5406 1.79162 -1.77924 0
M  V30 125 C 10.8536 -1.3083 -2.70747 0
M  V30 126 C 12.4016 -1.30234 -2.84619 0
M  V30 127 C 12.8766 -2.11956 -4.06004 0
M  V30 128 N 14.3676 -2.09419 -4.13156 0
M  V30 129 C 15.1026 -2.69419 -5.06163 0
M  V30 130 N 14.5986 -3.3829 -6.04592 0
M  V30 131 N 16.3916 -2.59134 -4.98804 0
M  V30 132 H 8.5426 -1.75222 -1.20046 0
M  V30 133 H 10.8056 -0.745024 -0.586211 0
M  V30 134 H 10.5116 -2.35881 -2.6087 0
M  V30 135 H 10.3856 -0.95196 -3.6499 0
M  V30 136 H 12.7726 -0.259748 -2.93955 0
M  V30 137 H 12.8536 -1.69847 -1.91274 0
M  V30 138 H 12.4976 -3.16248 -3.97429 0
M  V30 139 H 12.4276 -1.69711 -4.98503 0
M  V30 140 H 14.9186 -1.59297 -3.42685 0
M  V30 141 H 15.2316 -3.81394 -6.7213 0
M  V30 142 H 13.5766 -3.42393 -6.04807 0
M  V30 143 H 16.7676 -2.04927 -4.20859 0
M  V30 144 H 16.9406 -3.06185 -5.711 0
M  V30 145 N 10.3467 1.47872 -0.545128 0
M  V30 146 C 11.2767 2.32661 0.197793 0
M  V30 147 C 12.2577 1.43041 0.920504 0
M  V30 148 O 13.4427 1.71912 0.90333 0
M  V30 149 C 10.5727 3.24569 1.23582 0
M  V30 150 C 9.5267 4.23333 0.630323 0
M  V30 151 C 8.8527 5.0448 1.77211 0
M  V30 152 C 10.1527 5.20704 -0.407974 0
M  V30 153 H 11.8467 2.95024 -0.510045 0
M  V30 154 H 9.3927 1.4187 -0.246731 0
M  V30 155 H 11.3457 3.8272 1.76362 0
M  V30 156 H 10.0697 2.60236 1.97344 0
M  V30 157 H 8.7287 3.6639 0.123922 0
M  V30 158 H 8.3767 4.36561 2.49847 0
M  V30 159 H 8.0767 5.71339 1.37281 0
M  V30 160 H 9.6007 5.65487 2.3034 0
M  V30 161 H 11.0147 5.7329 0.033305 0
M  V30 162 H 9.4117 5.95699 -0.725486 0
M  V30 163 H 10.4817 4.66917 -1.30828 0
M  V30 164 N 11.8248 0.280983 1.55075 0
M  V30 165 C 13.0498 -0.340154 2.04592 0
M  V30 166 C 13.4748 -1.48246 1.15779 0
M  V30 167 O 12.8328 -1.80614 0.15761 0
M  V30 168 C 12.8808 -0.793104 3.5177 0
M  V30 169 O 11.9848 -1.89981 3.66034 0
M  V30 170 H 11.3258 -0.0694289 0.66036 0
M  V30 171 H 13.8558 0.416993 2.00306 0
M  V30 172 H 13.8658 -1.08729 3.93245 0
M  V30 173 H 12.5408 0.0426163 4.15878 0
M  V30 174 H 11.1178 -1.60771 3.36463 0
M  V30 175 N 13.3029 -1.57598 0.00835791 0
M  V30 176 C 14.5799 -1.82172 -0.712235 0
M  V30 177 C 14.9599 -0.887873 -1.9152 0
M  V30 178 O 14.3079 0.06146 -2.28417 0
M  V30 179 C 14.5179 -3.30875 -1.11008 0
M  V30 180 C 15.8659 -3.96826 -1.51044 0
M  V30 181 O 16.8899 -3.35248 -1.20364 0
M  V30 182 O 15.7489 -5.05318 -2.08125 0
M  V30 183 H 12.8429 -0.750435 -0.347529 0
M  V30 184 H 15.3889 -1.69665 0.0344523 0
M  V30 185 H 14.1609 -3.90481 -0.252982 0
M  V30 186 H 13.7839 -3.48412 -1.9156 0
M  V30 187 N 14.781 0.264519 -1.55364 0
M  V30 188 C 16.006 1.01726 -1.80739 0
M  V30 189 C 16.431 1.78836 -0.583044 0
M  V30 190 O 15.789 1.75167 0.467566 0
M  V30 191 C 15.837 1.94482 -3.03659 0
M  V30 192 O 14.941 3.03386 -2.7934 0
M  V30 193 H 14.282 0.290395 -0.597132 0
M  V30 194 H 16.812 0.290854 -2.02522 0
M  V30 195 H 16.822 2.36278 -3.32621 0
M  V30 196 H 15.497 1.37772 -3.92418 0
M  V30 197 H 14.074 2.65844 -2.61498 0
M  V30 198 N 16.2591 1.48442 0.529413 0
M  V30 199 C 17.2071 1.63452 1.65487 0
M  V30 200 C 18.2011 0.500955 1.61823 0
M  V30 201 O 19.4071 0.679695 1.66674 0
M  V30 202 H 15.7821 0.514905 0.548066 0
M  V30 203 H 17.7531 2.57975 1.49971 0
M  V30 204 C 16.5021 1.69196 3.03756 0
M  V30 205 H 15.8251 2.55784 3.07269 0
M  V30 206 H 17.2651 1.83743 3.82119 0
M  V30 207 C 15.7241 0.430765 3.34135 0
M  V30 208 O 16.2541 -0.4561 3.99102 0
M  V30 209 N 14.4601 0.302293 2.89023 0
M  V30 210 H 14.0071 1.02496 2.36331 0
M  V30 211 H 13.9651 -0.540546 3.09718 0
M  V30 212 N 17.7372 -0.778329 1.37039 0
M  V30 213 C 18.9842 -1.53665 1.31884 0
M  V30 214 C 19.3122 -1.9425 -0.0986303 0
M  V30 215 O 18.5672 -1.63832 -1.07041 0
M  V30 216 C 18.8662 -2.81845 2.19768 0
M  V30 217 C 18.5322 -2.60345 3.68146 0
M  V30 218 C 17.1942 -2.5419 4.08584 0
M  V30 219 C 19.5462 -2.40923 4.62175 0
M  V30 220 C 16.8742 -2.26594 5.41177 0
M  V30 221 C 19.2262 -2.14852 5.94997 0
M  V30 222 C 17.8902 -2.07137 6.34547 0
M  V30 223 H 17.1602 -0.562299 0.482598 0
M  V30 224 H 19.8072 -0.897069 1.69189 0
M  V30 225 H 18.1122 -3.50328 1.75436 0
M  V30 226 H 19.8092 -3.39692 2.13097 0
M  V30 227 H 16.3992 -2.65996 3.36072 0
M  V30 228 H 20.5832 -2.44673 4.31797 0
M  V30 229 H 15.8392 -2.19111 5.70789 0
M  V30 230 H 20.0132 -1.98822 6.67415 0
M  V30 231 H 17.6402 -1.85518 7.37216 0
M  V30 232 N 19.2153 -1.21501 -1.00376 0
M  V30 233 C 20.1483 -0.918669 -2.08892 0
M  V30 234 C 21.1263 0.134277 -1.62045 0
M  V30 235 O 22.3103 0.00504255 -1.88499 0
M  V30 236 C 19.4373 -0.379645 -3.36566 0
M  V30 237 C 18.4833 -1.41559 -4.02323 0
M  V30 238 S 19.3163 -2.98521 -4.44574 0
M  V30 239 C 20.4723 -2.46228 -5.75433 0
M  V30 240 H 20.7053 -1.83761 -2.33707 0
M  V30 241 H 18.2383 -1.04489 -1.13673 0
M  V30 242 H 20.1963 -0.0752195 -4.10431 0
M  V30 243 H 18.8573 0.518008 -3.09799 0
M  V30 244 H 18.0503 -0.988076 -4.9422 0
M  V30 245 H 17.6523 -1.66815 -3.34737 0
M  V30 246 H 19.9443 -1.86791 -6.51241 0
M  V30 247 H 20.8873 -3.36572 -6.22997 0
M  V30 248 H 21.2953 -1.87894 -5.32312 0
M  V30 249 N 20.6934 1.19889 -1.02296 0
M  V30 250 C 21.6564 2.21116 -0.603351 0
M  V30 251 C 22.6564 1.5738 0.329884 0
M  V30 252 O 23.8464 1.73802 0.117702 0
M  V30 253 C 20.9784 3.40696 0.117992 0
M  V30 254 H 22.1714 2.59754 -1.49893 0
M  V30 255 H 19.7244 1.33463 -0.813468 0
M  V30 256 H 20.4594 3.07569 1.0282 0
M  V30 257 H 20.2444 3.88188 -0.552511 0
M  V30 258 H 21.7344 4.15692 0.398696 0
M  V30 259 N 22.1715 0.800033 1.35784 0
M  V30 260 C 23.1195 0.193851 2.31791 0
M  V30 261 C 24.1135 -0.652744 1.56319 0
M  V30 262 O 25.3195 -0.546641 1.71499 0
M  V30 263 H 21.6945 0.04392 0.750716 0
M  V30 264 H 23.6655 1.01883 2.80468 0
M  V30 265 C 22.4145 -0.648338 3.41602 0
M  V30 266 H 21.7375 -0.00624665 3.998 0
M  V30 267 H 23.1775 -1.03898 4.11073 0
M  V30 268 C 21.6365 -1.8111 2.84079 0
M  V30 269 O 22.1665 -2.90825 2.77099 0
M  V30 270 N 20.3725 -1.62056 2.41218 0
M  V30 271 H 19.9195 -0.728123 2.47095 0
M  V30 272 H 19.8775 -2.40013 2.03079 0
M  V30 273 N 23.6496 -1.47581 0.552962 0
M  V30 274 C 24.5796 -2.32762 -0.185451 0
M  V30 275 C 25.5606 -1.43527 -0.912905 0
M  V30 276 O 26.7456 -1.72388 -0.894201 0
M  V30 277 C 23.8756 -3.25219 -1.21859 0
M  V30 278 C 22.8296 -4.23661 -0.607864 0
M  V30 279 C 22.1556 -5.05413 -1.74533 0
M  V30 280 C 23.4556 -5.20481 0.435582 0
M  V30 281 H 25.1496 -2.94749 0.525684 0
M  V30 282 H 22.6956 -1.41738 0.254251 0
M  V30 283 H 24.6486 -3.8365 -1.7433 0
M  V30 284 H 23.3726 -2.61279 -1.95961 0
M  V30 285 H 22.0316 -3.66451 -0.104489 0
M  V30 286 H 21.6796 -4.3788 -2.47529 0
M  V30 287 H 21.3796 -5.72059 -1.34249 0
M  V30 288 H 22.9036 -5.66701 -2.27338 0
M  V30 289 H 24.3176 -5.733 -0.00290157 0
M  V30 290 H 22.7146 -5.95305 0.757067 0
M  V30 291 H 23.7846 -4.66217 1.33303 0
M  V30 292 N 25.1277 -0.289203 -1.54924 0
M  V30 293 C 26.5387 0.205791 -1.85562 0
M  V30 294 C 26.8897 1.54351 -1.2112 0
M  V30 295 O 26.0147 2.10435 -0.504601 0
M  V30 296 C 26.6097 0.380177 -3.3666 0
M  V30 297 C 25.1687 0.819395 -3.67373 0
M  V30 298 C 24.3157 -0.079159 -2.77187 0
M  V30 299 H 27.2667 -0.510577 -1.50262 0
M  V30 300 H 27.2877 1.21659 -3.60526 0
M  V30 301 H 26.7997 -0.593589 -3.83534 0
M  V30 302 H 24.9007 1.80413 -3.26009 0
M  V30 303 H 25.0137 0.646957 -4.74712 0
M  V30 304 H 23.3777 0.439565 -2.50878 0
M  V30 305 H 24.1607 -1.04906 -3.26878 0
M  V30 306 N 26.6058 1.57591 -0.0167156 0
M  V30 307 C 27.5538 2.10604 0.987353 0
M  V30 308 C 28.5478 1.02977 1.34507 0
M  V30 309 O 29.7538 1.21425 1.32875 0
M  V30 310 H 26.1288 0.672695 0.336134 0
M  V30 311 H 28.0998 2.93925 0.514817 0
M  V30 312 C 26.8488 2.6382 2.26483 0
M  V30 313 H 26.1718 3.46278 1.99829 0
M  V30 314 H 27.6118 3.04573 2.94977 0
M  V30 315 C 26.0708 1.55992 2.9861 0
M  V30 316 O 26.6008 0.952521 3.90243 0
M  V30 317 N 24.8068 1.28335 2.60727 0
M  V30 318 H 24.3538 1.77914 1.86291 0
M  V30 319 H 24.3118 0.564115 3.09298 0
M  V30 320 N 28.0839 -0.256276 1.55502 0
M  V30 321 C 29.3319 -0.983672 1.76545 0
M  V30 322 C 29.6529 -1.86206 0.578982 0
M  V30 323 O 28.9229 -1.91656 -0.405577 0
M  V30 324 H 27.5029 -0.366191 0.651086 0
M  V30 325 H 30.1649 -0.276479 1.92929 0
M  V30 326 H 29.2609 -1.61087 2.67315 0
M  V30 327 N 29.562 -1.4872 -0.521534 0
M  V30 328 C 30.792 -1.6061 -1.29954 0
M  V30 329 C 31.2 -0.268728 -1.87282 0
M  V30 330 O 30.543 0.753221 -1.67548 0
M  V30 331 C 30.605 -2.60013 -2.48261 0
M  V30 332 C 30.269 -4.04874 -2.11957 0
M  V30 333 C 31.266 -4.92304 -1.67132 0
M  V30 334 C 28.951 -4.5047 -2.22221 0
M  V30 335 C 30.945 -6.2336 -1.33047 0
M  V30 336 C 28.632 -5.81544 -1.87748 0
M  V30 337 C 29.63 -6.67812 -1.43234 0
M  V30 338 O 29.318 -7.96446 -1.09217 0
M  V30 339 H 29.05 -0.544116 -0.401141 0
M  V30 340 H 31.604 -1.95339 -0.634958 0
M  V30 341 H 29.834 -2.20422 -3.17728 0
M  V30 342 H 31.523 -2.61648 -3.10315 0
M  V30 343 H 32.289 -4.58312 -1.58665 0
M  V30 344 H 28.168 -3.83504 -2.55823 0
M  V30 345 H 31.712 -6.90649 -0.982299 0
M  V30 346 H 27.609 -6.15069 -1.95858 0
M  V30 347 H 28.377 -8.09275 -1.22542 0
M  V30 348 N 31.0401 0.771051 -1.3745 0
M  V30 349 C 31.9731 1.89166 -1.27638 0
M  V30 350 C 32.9511 1.61842 -0.156782 0
M  V30 351 O 34.1351 1.85569 -0.331111 0
M  V30 352 C 31.2621 3.24405 -0.973621 0
M  V30 353 C 30.3081 3.70638 -2.1102 0
M  V30 354 S 31.1411 3.84228 -3.73 0
M  V30 355 C 32.2971 5.22313 -3.44876 0
M  V30 356 H 32.5301 1.972 -2.22485 0
M  V30 357 H 30.0631 0.932224 -1.23081 0
M  V30 358 H 32.0211 4.02514 -0.805766 0
M  V30 359 H 30.6821 3.14071 -0.0426279 0
M  V30 360 H 29.8751 4.68685 -1.85338 0
M  V30 361 H 29.4771 2.99632 -2.23822 0
M  V30 362 H 31.7691 6.07505 -2.99908 0
M  V30 363 H 32.7121 5.53008 -4.42253 0
M  V30 364 H 33.1201 4.90284 -2.79789 0
M  V30 365 N 32.5182 1.22032 0.997298 0
M  V30 366 C 33.7462 1.06841 1.7718 0
M  V30 367 C 34.1612 -0.381325 1.84909 0
M  V30 368 O 33.5182 -1.26437 1.31605 0
M  V30 369 C 33.5692 1.66814 3.20711 0
M  V30 370 O 33.2902 3.06116 3.13408 0
M  V30 371 C 34.7912 1.56838 4.14628 0
M  V30 372 H 32.0112 0.374782 0.556578 0
M  V30 373 H 34.5552 1.61532 1.2541 0
M  V30 374 H 32.7102 1.16196 3.69564 0
M  V30 375 H 33.1242 3.34926 4.0364 0
M  V30 376 H 34.5982 2.03532 5.13107 0
M  V30 377 H 35.0752 0.524155 4.36061 0
M  V30 378 H 35.6812 2.06741 3.7167 0
M  V30 379 N 33.9963 -1.19345 1.0293 0
M  V30 380 C 35.2733 -1.84811 0.640642 0
M  V30 381 C 35.6533 -1.91855 -0.88062 0
M  V30 382 O 35.0013 -1.43587 -1.7775 0
M  V30 383 C 35.2113 -3.23755 1.30321 0
M  V30 384 C 36.5593 -3.99912 1.42673 0
M  V30 385 O 37.5833 -3.33155 1.26041 0
M  V30 386 O 36.4423 -5.19494 1.6967 0
M  V30 387 H 33.5363 -0.796443 0.222726 0
M  V30 388 H 36.0823 -1.26831 1.12748 0
M  V30 389 H 34.8543 -3.13466 2.34211 0
M  V30 390 H 34.4773 -3.89381 0.804261 0
M  V30 391 N 35.4744 -0.807222 -1.35358 0
M  V30 392 C 36.4044 -0.232509 -2.3234 0
M  V30 393 C 37.3854 0.642386 -1.57504 0
M  V30 394 O 38.5704 0.572526 -1.85569 0
M  V30 395 C 35.7004 0.619238 -3.41735 0
M  V30 396 C 34.6544 -0.157215 -4.27711 0
M  V30 397 C 33.9804 0.816273 -5.28433 0
M  V30 398 C 35.2804 -1.35656 -5.04376 0
M  V30 399 H 36.9744 -1.04276 -2.80654 0
M  V30 400 H 34.5204 -0.50288 -1.34934 0
M  V30 401 H 36.4734 1.03137 -4.08584 0
M  V30 402 H 35.1974 1.46239 -2.92031 0
M  V30 403 H 33.8564 -0.550525 -3.62443 0
M  V30 404 H 33.5044 1.65494 -4.74996 0
M  V30 405 H 33.2044 0.301067 -5.86828 0
M  V30 406 H 34.7284 1.22659 -5.98153 0
M  V30 407 H 36.1424 -1.01927 -5.64166 0
M  V30 408 H 34.5394 -1.8063 -5.7227 0
M  V30 409 H 35.6094 -2.14288 -4.34981 0
M  V30 410 N 36.9525 1.47285 -0.560781 0
M  V30 411 C 37.8845 2.28118 0.222438 0
M  V30 412 C 38.8975 1.37219 0.876056 0
M  V30 413 O 40.0865 1.62011 0.749307 0
M  V30 414 C 37.1865 3.1159 1.33285 0
M  V30 415 C 36.3595 4.30473 0.77534 0
M  V30 416 C 35.4185 4.95513 1.77069 0
M  V30 417 O 34.4445 5.53792 1.31539 0
M  V30 418 N 35.6465 4.90531 3.10418 0
M  V30 419 H 38.4115 2.95976 -0.470958 0
M  V30 420 H 35.9725 1.56955 -0.39709 0
M  V30 421 H 37.9645 3.51967 1.99752 0
M  V30 422 H 36.5345 2.45951 1.92943 0
M  V30 423 H 35.7545 3.94144 -0.0662113 0
M  V30 424 H 37.0425 5.07362 0.382272 0
M  V30 425 H 36.4405 4.44389 3.5005 0
M  V30 426 H 34.9975 5.34917 3.72434 0
M  V30 427 N 38.4306 0.297415 1.54768 0
M  V30 428 C 39.8466 -0.0560823 1.59501 0
M  V30 429 C 40.0466 -1.52725 1.31444 0
M  V30 430 O 39.1026 -2.27947 1.08611 0
M  V30 431 C 40.4156 0.338631 2.98787 0
M  V30 432 C 41.9636 0.287097 3.11681 0
M  V30 433 C 42.4386 0.656579 4.53269 0
M  V30 434 N 43.9296 0.608977 4.59179 0
M  V30 435 C 44.6646 0.867385 5.66802 0
M  V30 436 N 44.1606 1.19157 6.82476 0
M  V30 437 N 45.9536 0.794687 5.56454 0
M  V30 438 H 38.1046 1.25624 1.71267 0
M  V30 439 H 40.3676 0.509057 0.799728 0
M  V30 440 H 40.0736 1.36263 3.2423 0
M  V30 441 H 39.9476 -0.309508 3.75928 0
M  V30 442 H 42.3346 -0.727649 2.85988 0
M  V30 443 H 42.4156 0.969809 2.36703 0
M  V30 444 H 42.0596 1.66912 4.7969 0
M  V30 445 H 41.9896 -0.0481649 5.26578 0
M  V30 446 H 44.4806 0.369198 3.76092 0
M  V30 447 H 44.7936 1.37482 7.60473 0
M  V30 448 H 43.1386 1.22958 6.84037 0
M  V30 449 H 46.3296 0.541098 4.64962 0
M  V30 450 H 46.5026 0.999445 6.40246 0
M  V30 451 N 39.9087 -1.5758 0.0250728 0
M  V30 452 C 41.3197 -1.79476 -0.514323 0
M  V30 453 C 41.6707 -0.934956 -1.72491 0
M  V30 454 O 40.7957 -0.144245 -2.15919 0
M  V30 455 C 41.3907 -3.25503 -0.939842 0
M  V30 456 C 39.9497 -3.48408 -1.42438 0
M  V30 457 C 39.0967 -2.74583 -0.387201 0
M  V30 458 H 42.0477 -1.567 0.25113 0
M  V30 459 H 42.0687 -3.34992 -1.80445 0
M  V30 460 H 41.5807 -3.88056 -0.0585628 0
M  V30 461 H 39.6817 -2.91103 -2.32572 0
M  V30 462 H 39.7947 -4.57119 -1.43455 0
M  V30 463 H 38.1587 -2.39942 -0.854409 0
M  V30 464 H 38.9417 -3.39849 0.485543 0
M  V30 465 N 41.3868 0.248026 -1.55636 0
M  V30 466 C 42.3188 1.32993 -1.8667 0
M  V30 467 C 43.3318 1.44345 -0.752877 0
M  V30 468 O 44.5208 1.45715 -1.03098 0
M  V30 469 C 41.6208 2.70863 -2.03682 0
M  V30 470 C 40.7938 2.81792 -3.34532 0
M  V30 471 C 39.8528 4.005 -3.41301 0
M  V30 472 O 38.8788 3.9008 -4.14519 0
M  V30 473 N 40.0808 5.13618 -2.70512 0
M  V30 474 H 42.8458 1.06707 -2.8006 0
M  V30 475 H 40.4068 0.438129 -1.55859 0
M  V30 476 H 42.3988 3.48612 -2.05553 0
M  V30 477 H 40.9688 2.89862 -1.17041 0
M  V30 478 H 40.1888 1.90729 -3.44987 0
M  V30 479 H 41.4768 2.86043 -4.20781 0
M  V30 480 H 40.8748 5.24975 -2.10755 0
M  V30 481 H 39.4318 5.89505 -2.78077 0
M  V30 482 N 42.8649 1.48995 0.513639 0
M  V30 483 C 44.2759 1.5119 1.09537 0
M  V30 484 C 44.6269 0.290906 1.94031 0
M  V30 485 O 43.7519 -0.60049 2.07902 0
M  V30 486 C 44.3469 2.73964 1.99322 0
M  V30 487 C 42.9059 2.78978 2.52682 0
M  V30 488 C 42.0529 2.44934 1.30009 0
M  V30 489 H 45.0039 1.55875 0.298125 0
M  V30 490 H 45.0249 2.53409 2.83838 0
M  V30 491 H 44.5369 3.62813 1.37799 0
M  V30 492 H 42.6379 1.94378 3.1788 0
M  V30 493 H 42.7509 3.8083 2.90698 0
M  V30 494 H 41.1149 1.9644 1.62122 0
M  V30 495 H 41.8979 3.36043 0.702131 0
M  V30 496 N 44.343 -0.763751 1.37857 0
M  V30 497 C 45.754 -1.3405 1.29952 0
M  V30 498 C 46.105 -1.96138 -0.0492898 0
M  V30 499 O 45.23 -1.94372 -0.951239 0
M  V30 500 C 45.825 -2.43729 2.35333 0
M  V30 501 C 44.384 -2.97151 2.31037 0
M  V30 502 C 43.531 -1.70438 2.18738 0
M  V30 503 H 46.482 -0.563396 1.48363 0
M  V30 504 H 46.503 -3.23412 2.00462 0
M  V30 505 H 46.015 -1.9851 3.33489 0
M  V30 506 H 44.116 -3.46724 1.3643 0
M  V30 507 H 44.229 -3.52221 3.24772 0
M  V30 508 H 42.593 -1.93673 1.65418 0
M  V30 509 H 43.376 -1.27312 3.18821 0
M  V30 510 N 45.8211 -1.22559 -0.990812 0
M  V30 511 C 47.2321 -1.04791 -1.54518 0
M  V30 512 C 47.5831 0.387998 -1.92325 0
M  V30 513 O 46.7081 1.27328 -1.74976 0
M  V30 514 C 47.3031 -1.896 -2.80779 0
M  V30 515 C 45.8621 -1.76124 -3.32652 0
M  V30 516 C 45.0091 -1.8594 -2.05722 0
M  V30 517 H 47.9601 -1.36374 -0.811662 0
M  V30 518 H 47.9811 -1.41464 -3.53225 0
M  V30 519 H 47.4931 -2.94101 -2.53231 0
M  V30 520 H 45.5941 -0.743643 -3.65104 0
M  V30 521 H 45.7071 -2.58913 -4.03114 0
M  V30 522 H 44.0711 -1.29403 -2.19379 0
M  V30 523 H 44.8541 -2.91976 -1.80568 0
M  V30 524 N 47.2992 1.18797 -1.03562 0
M  V30 525 C 48.7102 1.70322 -0.764676 0
M  V30 526 C 49.0612 1.82708 0.714996 0
M  V30 527 O 48.1862 1.50299 1.55689 0
M  V30 528 C 48.7812 3.09356 -1.38145 0
M  V30 529 C 47.3402 3.58114 -1.15895 0
M  V30 530 C 46.4872 2.34798 -1.4753 0
M  V30 531 H 49.4382 1.03543 -1.20268 0
M  V30 532 H 49.4592 3.72378 -0.781977 0
M  V30 533 H 48.9712 3.00309 -2.45837 0
M  V30 534 H 47.0722 3.72464 -0.100544 0
M  V30 535 H 47.1852 4.4184 -1.8524 0
M  V30 536 H 45.5492 2.38464 -0.894829 0
M  V30 537 H 46.3322 2.28375 -2.56319 0
M  V30 538 N 48.7773 0.814389 1.34928 0
M  V30 539 C 50.1883 0.458364 1.80986 0
M  V30 540 C 50.5393 -1.02042 1.67577 0
M  V30 541 O 49.6643 -1.79352 1.21086 0
M  V30 542 C 50.2593 0.825212 3.28597 0
M  V30 543 C 48.8183 0.521677 3.72767 0
M  V30 544 C 47.9653 1.04668 2.56788 0
M  V30 545 H 50.9163 1.00533 1.22795 0
M  V30 546 H 50.9373 0.12571 3.80292 0
M  V30 547 H 50.4493 1.90154 3.38324 0
M  V30 548 H 48.5503 -0.545589 3.68584 0
M  V30 549 H 48.6633 1.05977 4.67232 0
M  V30 550 H 47.0273 0.468622 2.50352 0
M  V30 551 H 47.8103 2.12927 2.6929 0
M  V30 552 N 50.2554 -1.46986 0.568584 0
M  V30 553 C 51.6664 -1.86188 0.138219 0
M  V30 554 C 52.0174 -1.47388 -1.29504 0
M  V30 555 O 51.1424 -0.88219 -1.97602 0
M  V30 556 C 51.7374 -3.3792 0.244065 0
M  V30 557 C 50.2964 -3.76171 -0.131335 0
M  V30 558 C 49.4434 -2.71027 0.586465 0
M  V30 559 H 52.3944 -1.38342 0.777645 0
M  V30 560 H 52.4154 -3.76729 -0.534351 0
M  V30 561 H 51.9274 -3.66128 1.28731 0
M  V30 562 H 50.0284 -3.5358 -1.17526 0
M  V30 563 H 50.1414 -4.78523 0.235146 0
M  V30 564 H 48.5054 -2.54684 0.0282722 0
M  V30 565 H 49.2884 -3.02077 1.63109 0
M  V30 566 N 51.7335 -0.305618 -1.54608 0
M  V30 567 C 52.9815 0.301701 -1.99835 0
M  V30 568 C 53.3025 1.54054 -1.19551 0
M  V30 569 O 52.5725 1.93702 -0.292658 0
M  V30 570 H 51.1525 0.114468 -0.738178 0
M  V30 571 H 53.8145 -0.418016 -1.90364 0
M  V30 572 H 52.9105 0.570548 -3.06841 0
M  V30 573 N 53.2116 1.57565 -0.0334293 0
M  V30 574 C 54.1746 2.09393 0.932048 0
M  V30 575 C 55.1746 1.00986 1.25134 0
M  V30 576 O 56.3646 1.27129 1.19096 0
M  V30 577 C 53.4966 2.56338 2.2473 0
M  V30 578 H 54.6896 2.95984 0.483085 0
M  V30 579 H 52.2426 1.54819 0.21468 0
M  V30 580 H 52.9776 1.7309 2.74245 0
M  V30 581 H 52.7626 3.35542 2.02865 0
M  V30 582 H 54.2526 2.96646 2.93923 0
M  V30 583 N 54.6897 -0.239769 1.55765 0
M  V30 584 C 55.6397 -1.30002 1.87306 0
M  V30 585 C 56.6237 -1.43156 0.73452 0
M  V30 586 O 57.8157 -1.46277 0.99659 0
M  V30 587 C 54.9447 -2.65409 2.17745 0
M  V30 588 C 54.0307 -2.56231 3.37945 0
M  V30 589 N 54.4217 -2.16689 4.57033 0
M  V30 590 C 52.7197 -2.87229 3.41197 0
M  V30 591 C 53.4207 -2.18318 5.39177 0
M  V30 592 N 52.3967 -2.58098 4.78421 0
M  V30 593 H 56.1987 -0.984912 2.76906 0
M  V30 594 H 53.7127 -0.448381 1.56087 0
M  V30 595 H 55.7097 -3.41934 2.38509 0
M  V30 596 H 54.3697 -2.97781 1.29448 0
M  V30 597 H 55.3807 -1.88116 4.82528 0
M  V30 598 H 52.0577 -3.24094 2.63191 0
M  V30 599 H 53.4477 -1.90025 6.44469 0
M  V30 600 N 56.1678 -1.49265 -0.50573 0
M  V30 601 C 57.3928 -1.62478 -1.28902 0
M  V30 602 C 57.8178 -0.294332 -1.85783 0
M  V30 603 O 57.1758 0.737412 -1.65626 0
M  V30 604 C 57.2238 -2.69268 -2.39848 0
M  V30 605 O 56.3278 -2.28113 -3.43567 0
M  V30 606 H 55.6688 -0.54399 -0.380751 0
M  V30 607 H 58.1988 -1.95421 -0.605952 0
M  V30 608 H 58.2088 -2.91291 -2.85681 0
M  V30 609 H 56.8838 -3.65846 -1.97812 0
M  V30 610 H 55.4608 -2.16401 -3.03685 0
M  V30 611 N 57.6459 0.756429 -1.3826 0
M  V30 612 C 59.0569 1.33359 -1.30661 0
M  V30 613 C 59.4079 1.96161 0.0388875 0
M  V30 614 O 58.5329 1.94874 0.940918 0
M  V30 615 C 59.1279 2.42477 -2.36622 0
M  V30 616 C 57.6869 2.95922 -2.3261 0
M  V30 617 C 56.8339 1.69275 -2.19639 0
M  V30 618 H 59.7849 0.55552 -1.4866 0
M  V30 619 H 59.8059 3.22345 -2.02174 0
M  V30 620 H 59.3179 1.96739 -3.34538 0
M  V30 621 H 57.4189 3.45996 -1.38267 0
M  V30 622 H 57.5319 3.50494 -3.26636 0
M  V30 623 H 55.8959 1.92793 -1.66442 0
M  V30 624 H 56.6789 1.25619 -3.19491 0
M  V30 625 N 59.124 1.23083 0.984299 0
M  V30 626 C 60.372 1.05848 1.72165 0
M  V30 627 C 60.693 -0.406049 1.90726 0
M  V30 628 O 59.963 -1.29139 1.47309 0
M  V30 629 H 58.543 0.388685 0.637913 0
M  V30 630 H 61.205 1.54736 1.18503 0
M  V30 631 H 60.301 1.54327 2.71274 0
M  V30 632 N 60.6021 -1.18246 1.0419 0
M  V30 633 C 61.5651 -2.20128 0.638452 0
M  V30 634 C 62.5651 -1.57885 -0.304805 0
M  V30 635 O 63.7551 -1.73967 -0.0900369 0
M  V30 636 C 60.8871 -3.4084 -0.0637751 0
M  V30 637 H 62.0801 -2.57336 1.54007 0
M  V30 638 H 59.6331 -1.32152 0.834598 0
M  V30 639 H 60.3681 -3.09166 -0.979136 0
M  V30 640 H 60.1531 -3.8726 0.614198 0
M  V30 641 H 61.6431 -4.16274 -0.332512 0
M  V30 642 N 62.0802 -0.821533 -1.34494 0
M  V30 643 C 63.3082 -0.421884 -2.02553 0
M  V30 644 C 63.7232 0.971745 -1.61872 0
M  V30 645 O 63.0802 1.62864 -0.823496 0
M  V30 646 C 63.1312 -0.51285 -3.57844 0
M  V30 647 O 62.8522 -1.85155 -3.97051 0
M  V30 648 C 64.3532 -0.107921 -4.43169 0
M  V30 649 H 61.5732 -0.169482 -0.649243 0
M  V30 650 H 64.1172 -1.1093 -1.71798 0
M  V30 651 H 62.2722 0.126474 -3.87193 0
M  V30 652 H 62.6862 -1.82482 -4.91732 0
M  V30 653 H 64.1602 -0.222657 -5.51551 0
M  V30 654 H 64.6372 0.948401 -4.28838 0
M  V30 655 H 65.2432 -0.720989 -4.19144 0
M  V30 656 N 63.5583 1.46682 -0.576371 0
M  V30 657 C 64.9693 1.86112 -0.148091 0
M  V30 658 C 65.3203 1.48073 1.2872 0
M  V30 659 O 64.4453 0.892656 1.97131 0
M  V30 660 C 65.0403 3.37786 -0.261982 0
M  V30 661 C 63.5993 3.76235 0.111384 0
M  V30 662 C 62.7463 2.70713 -0.60083 0
M  V30 663 H 65.6973 1.37927 -0.78497 0
M  V30 664 H 65.7183 3.77007 0.514364 0
M  V30 665 H 65.2303 3.6544 -1.30671 0
M  V30 666 H 63.3313 3.54198 1.15649 0
M  V30 667 H 63.4443 4.78391 -0.26052 0
M  V30 668 H 61.8083 2.54666 -0.0417783 0
M  V30 669 H 62.5913 3.01208 -1.64708 0
M  V30 670 N 65.0364 0.313813 1.54444 0
M  V30 671 C 66.2844 -0.291099 1.99993 0
M  V30 672 C 66.6054 -1.53418 1.20366 0
M  V30 673 O 65.8754 -1.93544 0.302927 0
M  V30 674 H 64.4554 -0.110552 0.738774 0
M  V30 675 H 67.1174 0.428106 1.9014 0
M  V30 676 H 66.2134 -0.554268 3.07139 0
M  V30 677 N 66.5145 -1.57545 0.0417849 0
M  V30 678 C 67.9255 -1.80011 -0.495259 0
M  V30 679 C 68.2765 -0.953199 -1.71489 0
M  V30 680 O 67.4015 -0.167138 -2.15754 0
M  V30 681 C 67.9965 -3.26482 -0.905265 0
M  V30 682 C 66.5555 -3.499 -1.38734 0
M  V30 683 C 65.7025 -2.74979 -0.358056 0
M  V30 684 H 68.6535 -1.56425 0.267736 0
M  V30 685 H 68.6745 -3.36887 -1.76882 0
M  V30 686 H 68.1865 -3.88096 -0.017401 0
M  V30 687 H 66.2875 -2.93553 -2.29471 0
M  V30 688 H 66.4005 -4.58615 -1.38598 0
M  V30 689 H 64.7645 -2.40834 -0.828912 0
M  V30 690 H 65.5475 -3.39315 0.521561 0
M  V30 691 N 67.9926 0.231505 -1.5589 0
M  V30 692 C 69.2406 0.955461 -1.78088 0
M  V30 693 C 69.5616 1.85262 -0.608533 0
M  V30 694 O 68.8316 1.92277 0.375035 0
M  V30 695 H 67.4116 0.355787 -0.656829 0
M  V30 696 H 70.0736 0.245751 -1.93344 0
M  V30 697 H 69.1696 1.56814 -2.69844 0
M  V30 698 N 69.4707 1.49531 0.497807 0
M  V30 699 C 70.6987 1.62893 1.27567 0
M  V30 700 C 71.1137 0.301585 1.86376 0
M  V30 701 O 70.4707 -0.713335 1.67982 0
M  V30 702 C 70.5217 2.70013 2.40364 0
M  V30 703 O 70.2427 3.976 1.83972 0
M  V30 704 C 71.7437 2.94109 3.31685 0
M  V30 705 H 68.9637 0.548298 0.386794 0
M  V30 706 H 71.5077 1.95584 0.597245 0
M  V30 707 H 69.6627 2.40092 3.04031 0
M  V30 708 H 70.0767 4.56631 2.58047 0
M  V30 709 H 71.5507 3.72788 4.07104 0
M  V30 710 H 72.0277 2.04147 3.88871 0
M  V30 711 H 72.6337 3.2546 2.73781 0
M  V30 712 N 70.9488 -0.749086 1.3866 0
M  V30 713 C 71.9118 -1.84457 1.36045 0
M  V30 714 C 72.9118 -1.58682 0.260122 0
M  V30 715 O 74.1018 -1.66343 0.517261 0
M  V30 716 C 71.2338 -3.22008 1.11911 0
M  V30 717 H 72.4268 -1.88182 2.33512 0
M  V30 718 H 69.9798 -0.951266 1.24019 0
M  V30 719 H 70.7148 -3.2395 0.150686 0
M  V30 720 H 70.4998 -3.42111 1.91579 0
M  V30 721 H 71.9898 -4.0208 1.12788 0
M  V30 722 N 72.4269 -1.23603 -0.977757 0
M  V30 723 C 73.6549 -1.09646 -1.75458 0
M  V30 724 C 74.0699 0.351859 -1.85492 0
M  V30 725 O 73.4269 1.24327 -1.336 0
M  V30 726 C 73.4779 -1.71895 -3.18016 0
M  V30 727 O 73.1989 -3.11063 -3.08498 0
M  V30 728 C 74.6999 -1.63415 -4.12081 0
M  V30 729 H 71.9199 -0.38359 -0.550545 0
M  V30 730 H 74.4639 -1.63507 -1.22824 0
M  V30 731 H 72.6189 -1.22061 -3.67668 0
M  V30 732 H 73.0329 -3.41305 -3.9826 0
M  V30 733 H 74.5069 -2.11669 -5.09804 0
M  V30 734 H 74.9839 -0.593462 -4.35172 0
M  V30 735 H 75.5899 -2.12628 -3.68334 0
M  V30 736 N 73.905 1.17692 -1.04816 0
M  V30 737 C 74.868 2.19787 -0.650117 0
M  V30 738 C 75.868 1.58044 0.296427 0
M  V30 739 O 77.058 1.74012 0.0808097 0
M  V30 740 C 74.19 3.40869 0.0456987 0
M  V30 741 H 75.383 2.56516 -1.5537 0
M  V30 742 H 72.936 1.31708 -0.841594 0
M  V30 743 H 73.671 3.09681 0.962726 0
M  V30 744 H 73.456 3.86928 -0.634727 0
M  V30 745 H 74.946 4.16445 0.310432 0
M  V30 746 N 75.3831 0.828654 1.34056 0
M  V30 747 C 76.2931 0.256725 2.33191 0
M  V30 748 C 77.3091 -0.611898 1.62886 0
M  V30 749 O 78.4851 -0.51844 1.94613 0
M  V30 750 C 75.5501 -0.567238 3.42028 0
M  V30 751 C 74.6111 0.324458 4.28072 0
M  V30 752 C 73.8441 -0.460274 5.31712 0
M  V30 753 O 74.0671 -1.693 5.44696 0
M  V30 754 O 73.0011 0.160391 6.01686 0
M  V30 755 H 76.8271 1.07739 2.83947 0
M  V30 756 H 74.4121 0.59093 1.37217 0
M  V30 757 H 76.2941 -1.03582 4.08471 0
M  V30 758 H 74.9691 -1.36513 2.93506 0
M  V30 759 H 73.8761 0.840659 3.64532 0
M  V30 760 H 75.2091 1.08685 4.8005 0
M  V30 761 N 76.8612 -1.46375 0.584142 0
M  V30 762 C 78.2772 -1.57694 0.245929 0
M  V30 763 C 78.4772 -1.57903 -1.25175 0
M  V30 764 O 77.5332 -1.49676 -2.03355 0
M  V30 765 C 78.8462 -2.87028 0.896402 0
M  V30 766 C 80.3942 -3.00662 0.870127 0
M  V30 767 C 80.8692 -4.32734 1.50017 0
M  V30 768 N 82.3602 -4.39436 1.46458 0
M  V30 769 C 83.0952 -5.40248 1.92144 0
M  V30 770 N 82.5912 -6.47726 2.4581 0
M  V30 771 N 84.3842 -5.31459 1.83052 0
M  V30 772 H 76.5352 -1.44483 1.55687 0
M  V30 773 H 78.7982 -0.689291 0.650831 0
M  V30 774 H 78.5042 -2.9269 1.95002 0
M  V30 775 H 78.3782 -3.75014 0.405486 0
M  V30 776 H 80.7652 -2.94581 -0.174871 0
M  V30 777 H 80.8462 -2.14148 1.39908 0
M  V30 778 H 80.4902 -4.39573 2.54437 0
M  V30 779 H 80.4202 -5.18025 0.946432 0
M  V30 780 H 82.9112 -3.62367 1.07231 0
M  V30 781 H 83.2242 -7.20863 2.78525 0
M  V30 782 H 81.5692 -6.48542 2.49836 0
M  V30 783 H 84.7602 -4.46396 1.40883 0
M  V30 784 H 84.9332 -6.09881 2.18973 0
M  V30 785 N 78.3393 -0.321999 -1.54275 0
M  V30 786 C 79.5643 0.285791 -2.05422 0
M  V30 787 C 79.9893 1.45124 -1.19669 0
M  V30 788 O 79.3473 1.80132 -0.205441 0
M  V30 789 C 79.3953 0.69956 -3.53749 0
M  V30 790 O 78.4993 1.8021 -3.70942 0
M  V30 791 H 77.8403 0.0518962 -0.661969 0
M  V30 792 H 80.3703 -0.469954 -1.9913 0
M  V30 793 H 80.3803 0.982649 -3.9599 0
M  V30 794 H 79.0553 -0.152864 -4.15619 0
M  V30 795 H 77.6323 1.51794 -3.40607 0
M  V30 796 N 79.8174 1.5752 -0.0501392 0
M  V30 797 C 81.0424 1.97376 0.636997 0
M  V30 798 C 81.4674 0.927466 1.63645 0
M  V30 799 O 80.8254 -0.10941 1.8097 0
M  V30 800 C 80.8734 3.36304 1.30123 0
M  V30 801 O 79.9774 3.34156 2.41689 0
M  V30 802 H 79.3184 0.642998 0.165679 0
M  V30 803 H 81.8484 2.04258 -0.118233 0
M  V30 804 H 81.8584 3.73008 1.65315 0
M  V30 805 H 80.5334 4.11993 0.568746 0
M  V30 806 H 79.1104 3.09196 2.08451 0
M  V30 807 N 81.2955 -0.223234 1.56011 0
M  V30 808 C 82.5435 -0.946003 1.78592 0
M  V30 809 C 82.8645 -1.84936 0.618349 0
M  V30 810 O 82.1345 -1.92473 -0.364833 0
M  V30 811 H 80.7145 -0.352298 0.658707 0
M  V30 812 H 83.3765 -0.235494 1.93472 0
M  V30 813 H 82.4725 -1.55381 2.70672 0
M  V30 814 N 82.7736 -1.49793 -0.48987 0
M  V30 815 C 84.0196 -1.60078 -1.24511 0
M  V30 816 C 84.3526 -0.291608 -1.91998 0
M  V30 817 O 83.6276 0.705647 -1.81248 0
M  V30 818 C 83.9106 -2.76791 -2.30345 0
M  V30 819 C 83.7636 -4.17535 -1.67286 0
M  V30 820 C 85.0826 -2.89111 -3.31817 0
M  V30 821 H 82.2016 -0.582645 -0.451324 0
M  V30 822 H 84.8436 -1.82117 -0.541612 0
M  V30 823 H 82.9936 -2.5813 -2.90346 0
M  V30 824 H 84.6656 -4.4774 -1.11026 0
M  V30 825 H 82.9086 -4.22665 -0.976577 0
M  V30 826 H 83.5796 -4.95094 -2.44103 0
M  V30 827 H 86.0556 -3.06133 -2.81819 0
M  V30 828 H 84.9316 -3.72433 -4.03219 0
M  V30 829 H 85.1926 -1.9893 -3.94815 0
M  V30 830 N 84.2517 0.741722 -1.39055 0
M  V30 831 C 85.2147 1.83733 -1.37021 0
M  V30 832 C 86.2147 1.58542 -0.268534 0
M  V30 833 O 87.4047 1.66067 -0.526076 0
M  V30 834 C 84.5367 3.2141 -1.13617 0
M  V30 835 H 85.7297 1.86941 -2.34506 0
M  V30 836 H 83.2827 0.944676 -1.24521 0
M  V30 837 H 84.0177 3.23865 -0.167863 0
M  V30 838 H 83.8027 3.4109 -1.93391 0
M  V30 839 H 85.2927 4.01477 -1.14918 0
M  V30 840 N 85.7298 1.2412 0.971189 0
M  V30 841 C 87.1408 1.07236 1.52831 0
M  V30 842 C 87.4918 -0.357352 1.92918 0
M  V30 843 O 86.6168 -1.24528 1.76979 0
M  V30 844 C 87.2118 1.94043 2.77728 0
M  V30 845 C 85.7708 1.81394 3.29808 0
M  V30 846 C 84.9178 1.89189 2.02738 0
M  V30 847 H 87.8688 1.37648 0.789864 0
M  V30 848 H 87.8898 1.47066 3.5093 0
M  V30 849 H 87.4018 2.98093 2.4852 0
M  V30 850 H 85.5028 0.801634 3.63874 0
M  V30 851 H 85.6158 2.65294 3.98944 0
M  V30 852 H 83.9798 1.32877 2.17292 0
M  V30 853 H 84.7628 2.94812 1.759 0
M  V30 854 N 87.2079 -1.17134 1.05439 0
M  V30 855 C 88.1709 -2.19439 0.661764 0
M  V30 856 C 89.1709 -1.58199 -0.288042 0
M  V30 857 O 90.3609 -1.74053 -0.0715803 0
M  V30 858 C 87.4929 -3.40889 -0.0276209 0
M  V30 859 H 88.6859 -2.55688 1.56728 0
M  V30 860 H 86.2389 -1.31259 0.848567 0
M  V30 861 H 86.9739 -3.10187 -0.94629 0
M  V30 862 H 86.7589 -3.86586 0.655238 0
M  V30 863 H 88.2489 -4.16603 -0.288342 0
M  V30 864 N 88.686 -0.835752 -1.33615 0
M  V30 865 C 89.649 -0.272 -2.2758 0
M  V30 866 C 90.649 0.557487 -1.50827 0
M  V30 867 O 91.839 0.37173 -1.70188 0
M  V30 868 C 88.971 0.617173 -3.35267 0
M  V30 869 H 90.164 -1.10111 -2.78954 0
M  V30 870 H 87.717 -0.608594 -1.43965 0
M  V30 871 H 88.452 1.46884 -2.89129 0
M  V30 872 H 88.237 0.0237066 -3.92093 0
M  V30 873 H 89.727 1.005 -4.05326 0
M  V30 874 N 90.1641 1.46063 -0.591896 0
M  V30 875 C 91.3891 2.07226 -0.0850314 0
M  V30 876 C 91.8141 1.43625 1.21463 0
M  V30 877 O 91.1721 0.523305 1.73583 0
M  V30 878 C 91.2201 3.60554 0.0576567 0
M  V30 879 O 90.3241 3.97128 1.11188 0
M  V30 880 H 89.6651 0.660615 -0.0669568 0
M  V30 881 H 92.1951 1.8756 -0.81745 0
M  V30 882 H 92.2051 4.07165 0.2609 0
M  V30 883 H 90.8801 4.06235 -0.891416 0
M  V30 884 H 89.4571 3.62213 0.886356 0
M  V30 885 N 91.6422 0.330177 1.54103 0
M  V30 886 C 93.0532 -0.15652 1.86043 0
M  V30 887 C 93.4042 -1.51086 1.2517 0
M  V30 888 O 92.5292 -2.09023 0.560217 0
M  V30 889 C 93.1242 -0.290784 3.3755 0
M  V30 890 C 91.6832 -0.721705 3.69416 0
M  V30 891 C 90.8302 0.152622 2.7688 0
M  V30 892 H 93.7812 0.550237 1.48856 0
M  V30 893 H 93.8022 -1.12058 3.63625 0
M  V30 894 H 93.3142 0.695068 3.81825 0
M  V30 895 H 91.4152 -1.71706 3.30678 0
M  V30 896 H 91.5282 -0.520869 4.7626 0
M  V30 897 H 89.8922 -0.372894 2.51956 0
M  V30 898 H 90.6752 1.13536 3.23982 0
M  V30 899 N 93.1203 -1.57491 0.0584922 0
M  V30 900 C 94.0833 -2.1085 -0.898617 0
M  V30 901 C 95.0833 -1.02964 -1.23511 0
M  V30 902 O 96.2733 -1.29007 -1.17059 0
M  V30 903 C 93.4053 -2.59881 -2.20623 0
M  V30 904 H 94.5983 -2.96715 -0.435936 0
M  V30 905 H 92.1513 -1.55141 -0.190023 0
M  V30 906 H 92.8863 -1.77431 -2.71457 0
M  V30 907 H 92.6713 -3.38727 -1.97501 0
M  V30 908 H 94.1613 -3.01285 -2.89166 0
M  V30 909 N 94.5984 0.214957 -1.56127 0
M  V30 910 C 95.5614 1.24997 -1.92116 0
M  V30 911 C 96.5614 1.39467 -0.800344 0
M  V30 912 O 97.7514 1.37619 -1.06802 0
M  V30 913 C 94.8834 2.62271 -2.17777 0
M  V30 914 H 96.0764 0.942875 -2.84693 0
M  V30 915 H 93.6294 0.455654 -1.49511 0
M  V30 916 H 94.3644 2.98068 -1.27773 0
M  V30 917 H 94.1494 2.53143 -2.99434 0
M  V30 918 H 95.6394 3.36946 -2.46693 0
M  V30 919 N 96.0765 1.50051 0.48192 0
M  V30 920 C 97.4875 1.5348 1.06305 0
M  V30 921 C 97.8385 0.331997 1.93371 0
M  V30 922 O 96.9635 -0.556256 2.09129 0
M  V30 923 C 97.5585 2.7813 1.93466 0
M  V30 924 C 96.1175 2.84275 2.46707 0
M  V30 925 C 95.2645 2.47637 1.24785 0
M  V30 926 H 98.2155 1.56472 0.264995 0
M  V30 927 H 98.2365 2.59372 2.78399 0
M  V30 928 H 97.7485 3.65654 1.30072 0
M  V30 929 H 95.8495 2.01077 3.13686 0
M  V30 930 H 95.9625 3.8691 2.82555 0
M  V30 931 H 94.3265 1.99835 1.57918 0
M  V30 932 H 95.1095 3.37457 0.630694 0
M  V30 933 N 97.5546 -0.734337 1.39446 0
M  V30 934 C 98.7796 -1.52866 1.40167 0
M  V30 935 C 99.2046 -1.881 -0.00171513 0
M  V30 936 O 98.5626 -1.51957 -0.988879 0
M  V30 937 C 98.6106 -2.79235 2.28167 0
M  V30 938 O 97.7146 -3.75185 1.71201 0
M  V30 939 H 97.0556 -0.461618 0.477289 0
M  V30 940 H 99.5856 -0.905949 1.8345 0
M  V30 941 H 99.5956 -3.27963 2.42702 0
M  V30 942 H 98.2706 -2.52923 3.30156 0
M  V30 943 H 96.8476 -3.33958 1.65912 0
M  V30 944 N 99.0327 -1.24633 -0.964593 0
M  V30 945 C 100.444 -1.08045 -1.5226 0
M  V30 946 C 100.795 0.347116 -1.93105 0
M  V30 947 O 99.9197 1.23588 -1.77637 0
M  V30 948 C 100.515 -1.95514 -2.76695 0
M  V30 949 C 99.0737 -1.8314 -3.28841 0
M  V30 950 C 98.2207 -1.90262 -2.01732 0
M  V30 951 H 101.172 -1.38064 -0.782553 0
M  V30 952 H 101.193 -1.48925 -3.50145 0
M  V30 953 H 100.705 -2.99407 -2.46936 0
M  V30 954 H 98.8057 -0.82092 -3.63444 0
M  V30 955 H 98.9187 -2.67406 -3.97531 0
M  V30 956 H 97.2827 -1.34027 -2.16584 0
M  V30 957 H 98.0657 -2.9574 -1.74334 0
M  V30 958 N 100.511 1.16574 -1.06058 0
M  V30 959 C 101.759 1.86677 -0.77434 0
M  V30 960 C 102.08 1.81959 0.701147 0
M  V30 961 O 101.35 1.2515 1.50713 0
M  V30 962 H 99.9298 0.691134 -0.283449 0
M  V30 963 H 102.592 1.41378 -1.34158 0
M  V30 964 H 101.688 2.92181 -1.09711 0
M  V30 965 N 101.989 0.842826 1.3317 0
M  V30 966 C 103.214 0.453129 2.02389 0
M  V30 967 C 103.639 -0.939105 1.6298 0
M  V30 968 O 102.997 -1.61472 0.8244 0
M  V30 969 C 103.045 0.586094 3.55805 0
M  V30 970 O 102.149 -0.386029 4.10589 0
M  V30 971 H 101.49 0.183664 0.638094 0
M  V30 972 H 104.02 1.13875 1.69981 0
M  V30 973 H 104.03 0.469209 4.05293 0
M  V30 974 H 102.705 1.6014 3.83833 0
M  V30 975 H 101.282 -0.226371 3.72212 0
M  V30 976 N 103.467 -1.45747 0.599634 0
M  V30 977 C 104.692 -2.07178 0.0960198 0
M  V30 978 C 105.117 -1.44268 -1.207 0
M  V30 979 O 104.475 -0.532503 -1.73303 0
M  V30 980 C 104.523 -3.60579 -0.0385348 0
M  V30 981 O 103.627 -3.97713 -1.0908 0
M  V30 982 H 102.968 -0.660251 0.0704593 0
M  V30 983 H 105.498 -1.87124 0.827385 0
M  V30 984 H 105.508 -4.07298 -0.239304 0
M  V30 985 H 104.183 -4.05756 0.912947 0
M  V30 986 H 102.76 -3.62678 -0.867135 0
M  V30 987 N 104.945 -0.338344 -1.53925 0
M  V30 988 C 106.193 0.259245 -2.0043 0
M  V30 989 C 106.514 1.51484 -1.22791 0
M  V30 990 O 105.784 1.93037 -0.33368 0
M  V30 991 H 104.364 0.0987845 -0.740439 0
M  V30 992 H 107.026 -0.458302 -1.89435 0
M  V30 993 H 106.122 0.505334 -3.07982 0
M  V30 994 N 106.423 1.57458 -0.0668435 0
M  V30 995 C 107.671 1.92919 0.602214 0
M  V30 996 C 107.992 0.947215 1.70449 0
M  V30 997 O 107.262 -0.00544117 1.95899 0
M  V30 998 H 105.842 0.71217 0.22544 0
M  V30 999 H 108.504 1.94508 -0.123535 0
M  V30 1000 H 107.6 2.94589 1.03073 0
M  V30 1001 N 107.901 -0.206675 1.56239 0
M  V30 1002 C 109.149 -0.927007 1.79586 0
M  V30 1003 C 109.47 -1.8427 0.637929 0
M  V30 1004 O 108.74 -1.92849 -0.344398 0
M  V30 1005 H 107.32 -0.345292 0.662407 0
M  V30 1006 H 109.982 -0.21496 1.93711 0
M  V30 1007 H 109.078 -1.52501 2.72305 0
M  V30 1008 N 109.379 -1.50304 -0.473955 0
M  V30 1009 C 110.627 -1.60832 -1.22382 0
M  V30 1010 C 110.948 -0.30939 -1.9253 0
M  V30 1011 O 110.218 0.67296 -1.83978 0
M  V30 1012 H 108.798 -0.592652 -0.454723 0
M  V30 1013 H 111.46 -1.87068 -0.546968 0
M  V30 1014 H 110.556 -2.41803 -1.97327 0
M  V30 1015 N 110.857 0.726932 -1.39834 0
M  V30 1016 C 112.104 1.48664 -1.37496 0
M  V30 1017 C 112.432 1.94482 0.0264678 0
M  V30 1018 O 111.687 1.67692 1.00886 0
M  V30 1019 C 111.986 2.73495 -2.30077 0
M  V30 1020 C 111.652 2.46502 -3.77555 0
M  V30 1021 C 110.314 2.3885 -4.17737 0
M  V30 1022 C 112.666 2.23604 -4.70798 0
M  V30 1023 C 109.994 2.06352 -5.49214 0
M  V30 1024 C 112.346 1.92622 -6.02561 0
M  V30 1025 C 111.01 1.83444 -6.41798 0
M  V30 1026 H 110.28 0.544001 -0.503135 0
M  V30 1027 H 112.927 0.833657 -1.72402 0
M  V30 1028 H 111.232 3.43575 -1.88317 0
M  V30 1029 H 112.929 3.31549 -2.25558 0
M  V30 1030 H 109.519 2.5334 -3.45712 0
M  V30 1031 H 113.703 2.28479 -4.40581 0
M  V30 1032 H 108.959 1.97776 -5.78528 0
M  V30 1033 H 113.133 1.73914 -6.74334 0
M  V30 1034 H 110.76 1.58029 -7.43593 0
M  V30 1035 N 112.336 1.25143 0.95797 0
M  V30 1036 C 113.583 1.09692 1.70217 0
M  V30 1037 C 113.911 -0.362654 1.91089 0
M  V30 1038 O 113.166 -1.28386 1.47701 0
M  V30 1039 C 113.465 1.79272 3.09187 0
M  V30 1040 C 113.131 3.29196 3.08125 0
M  V30 1041 C 111.793 3.70096 3.07543 0
M  V30 1042 C 114.145 4.24995 3.0171 0
M  V30 1043 C 111.473 5.05213 2.9829 0
M  V30 1044 C 113.825 5.60132 2.93999 0
M  V30 1045 C 112.489 6.00365 2.9175 0
M  V30 1046 H 111.759 0.401393 0.622868 0
M  V30 1047 H 114.406 1.55372 1.11945 0
M  V30 1048 H 112.711 1.26014 3.70982 0
M  V30 1049 H 114.408 1.64773 3.65583 0
M  V30 1050 H 110.998 2.96651 3.09348 0
M  V30 1051 H 115.182 3.9439 3.01281 0
M  V30 1052 H 110.438 5.35569 2.94916 0
M  V30 1053 H 114.612 6.3406 2.87996 0
M  V30 1054 H 112.239 7.05023 2.84336 0
M  V30 1055 N 113.814 -1.1601 1.06675 0
M  V30 1056 C 115.039 -1.91068 0.806706 0
M  V30 1057 C 115.464 -1.77112 -0.633485 0
M  V30 1058 O 114.822 -1.09908 -1.44187 0
M  V30 1059 C 114.87 -3.39655 1.21106 0
M  V30 1060 O 113.974 -4.10893 0.352189 0
M  V30 1061 H 113.315 -0.595125 0.294486 0
M  V30 1062 H 115.845 -1.46955 1.42356 0
M  V30 1063 H 115.855 -3.90434 1.18428 0
M  V30 1064 H 114.53 -3.49132 2.26008 0
M  V30 1065 H 113.107 -3.70285 0.440868 0
M  V30 1066 N 115.292 -0.849877 -1.32721 0
M  V30 1067 C 116.517 -0.463856 -2.02146 0
M  V30 1068 C 116.942 0.930449 -1.63476 0
M  V30 1069 O 116.3 1.61033 -0.832952 0
M  V30 1070 C 116.348 -0.604955 -3.55489 0
M  V30 1071 O 115.452 0.36425 -4.10788 0
M  V30 1072 H 114.793 -0.187046 -0.637111 0
M  V30 1073 H 117.323 -1.14775 -1.69375 0
M  V30 1074 H 117.333 -0.490696 -4.05038 0
M  V30 1075 H 116.008 -1.62174 -3.82978 0
M  V30 1076 H 114.585 0.206628 -3.72327 0
M  V30 1077 N 116.77 1.45427 -0.607355 0
M  V30 1078 C 117.7 2.3329 0.0989352 0
M  V30 1079 C 118.681 1.46816 0.859007 0
M  V30 1080 O 119.866 1.75588 0.829604 0
M  V30 1081 C 116.996 3.29518 1.09705 0
M  V30 1082 C 115.95 4.25626 0.450206 0
M  V30 1083 C 115.276 5.11542 1.55655 0
M  V30 1084 C 116.576 5.18505 -0.628455 0
M  V30 1085 H 118.27 2.92595 -0.634716 0
M  V30 1086 H 115.816 1.40696 -0.306681 0
M  V30 1087 H 117.769 3.89855 1.59971 0
M  V30 1088 H 116.493 2.68372 1.86129 0
M  V30 1089 H 115.152 3.66586 -0.0315886 0
M  V30 1090 H 114.8 4.46765 2.31107 0
M  V30 1091 H 114.5 5.76647 1.12925 0
M  V30 1092 H 116.024 5.74748 2.06148 0
M  V30 1093 H 117.438 5.72916 -0.209877 0
M  V30 1094 H 115.835 5.92085 -0.977489 0
M  V30 1095 H 116.905 4.60948 -1.50514 0
M  V30 1096 N 118.248 0.346503 1.53744 0
M  V30 1097 C 119.473 -0.253074 2.0585 0
M  V30 1098 C 119.898 -1.43202 1.21962 0
M  V30 1099 O 119.256 -1.79783 0.234073 0
M  V30 1100 C 119.304 -0.643193 3.54817 0
M  V30 1101 O 118.408 -1.74286 3.73762 0
M  V30 1102 H 117.749 -0.0413583 0.662711 0
M  V30 1103 H 120.279 0.501574 1.98357 0
M  V30 1104 H 120.289 -0.919526 3.97503 0
M  V30 1105 H 118.964 0.218966 4.15323 0
M  V30 1106 H 117.541 -1.46356 3.42979 0
M  V30 1107 N 119.726 -1.57421 0.075193 0
M  V30 1108 C 120.674 -2.14124 -0.908508 0
M  V30 1109 C 121.668 -1.07898 -1.30592 0
M  V30 1110 O 122.874 -1.26273 -1.28277 0
M  V30 1111 H 119.249 -0.684707 -0.310935 0
M  V30 1112 H 121.22 -2.95634 -0.405374 0
M  V30 1113 C 119.969 -2.72044 -2.16535 0
M  V30 1114 H 119.292 -3.53456 -1.86839 0
M  V30 1115 H 120.732 -3.15311 -2.83469 0
M  V30 1116 C 119.191 -1.66968 -2.92615 0
M  V30 1117 O 119.721 -1.0967 -3.86439 0
M  V30 1118 N 117.927 -1.37923 -2.55784 0
M  V30 1119 H 117.474 -1.84706 -1.79559 0
M  V30 1120 H 117.432 -0.67852 -3.06991 0
M  V30 1121 N 121.204 0.198386 -1.56346 0
M  V30 1122 C 122.167 1.22952 -1.93431 0
M  V30 1123 C 123.167 1.38611 -0.815092 0
M  V30 1124 O 124.357 1.36479 -1.08255 0
M  V30 1125 C 121.489 2.59946 -2.20546 0
M  V30 1126 H 122.682 0.912626 -2.85677 0
M  V30 1127 H 120.235 0.43977 -1.49986 0
M  V30 1128 H 120.97 2.96696 -1.30927 0
M  V30 1129 H 120.755 2.49953 -3.02102 0
M  V30 1130 H 122.245 3.3431 -2.50253 0
M  V30 1131 N 122.682 1.50554 0.465978 0
M  V30 1132 C 123.928 1.62038 1.21949 0
M  V30 1133 C 124.261 0.322116 1.9151 0
M  V30 1134 O 123.536 -0.676723 1.82348 0
M  V30 1135 C 123.819 2.80421 2.25912 0
M  V30 1136 C 123.672 4.20144 1.60622 0
M  V30 1137 C 124.991 2.94354 3.27176 0
M  V30 1138 H 122.11 0.589752 0.441998 0
M  V30 1139 H 124.752 1.82956 0.51257 0
M  V30 1140 H 122.902 2.62717 2.86203 0
M  V30 1141 H 124.574 4.49449 1.03889 0
M  V30 1142 H 122.817 4.24165 0.909211 0
M  V30 1143 H 123.488 4.98914 2.36196 0
M  V30 1144 H 125.964 3.10578 2.76913 0
M  V30 1145 H 124.84 3.788 3.97242 0
M  V30 1146 H 125.101 2.05186 3.916 0
M  V30 1147 N 124.16 -0.719506 1.40217 0
M  V30 1148 C 125.107 -1.83359 1.40172 0
M  V30 1149 C 126.077 -1.64065 0.259206 0
M  V30 1150 O 127.262 -1.85254 0.456677 0
M  V30 1151 C 124.402 -3.2103 1.26624 0
M  V30 1152 C 123.515 -3.51923 2.50548 0
M  V30 1153 C 122.65 -4.79079 2.29471 0
M  V30 1154 C 121.689 -5.02863 3.48992 0
M  V30 1155 N 120.826 -6.2123 3.27135 0
M  V30 1156 H 125.666 -1.82733 2.35399 0
M  V30 1157 H 123.203 -0.892688 1.16917 0
M  V30 1158 H 125.161 -4.00524 1.16776 0
M  V30 1159 H 123.791 -3.20895 0.350176 0
M  V30 1160 H 122.843 -2.67014 2.70939 0
M  V30 1161 H 124.155 -3.6541 3.39525 0
M  V30 1162 H 123.309 -5.66582 2.16955 0
M  V30 1163 H 122.048 -4.67794 1.37913 0
M  V30 1164 H 121.053 -4.13816 3.6199 0
M  V30 1165 H 122.278 -5.16023 4.41472 0
M  V30 1166 H 120.224 -6.11204 2.38256 0
M  V30 1167 H 120.141 -6.35375 4.09675 0
M  V30 1168 H 121.409 -7.11532 3.18344 0
M  V30 1169 N 125.638 -1.25649 -0.95132 0
M  V30 1170 C 126.57 -1.02112 -2.05197 0
M  V30 1171 C 127.583 0.0150571 -1.62793 0
M  V30 1172 O 128.772 -0.223874 -1.77091 0
M  V30 1173 C 125.872 -0.522361 -3.3485 0
M  V30 1174 C 125.045 -1.62546 -4.06076 0
M  V30 1175 C 124.104 -1.12649 -5.14001 0
M  V30 1176 O 123.13 -1.82156 -5.39266 0
M  V30 1177 N 124.332 0.03047 -5.80492 0
M  V30 1178 H 127.097 -1.96885 -2.25957 0
M  V30 1179 H 124.658 -1.16899 -1.1201 0
M  V30 1180 H 126.65 -0.172961 -4.0433 0
M  V30 1181 H 125.22 0.33151 -3.10837 0
M  V30 1182 H 124.44 -2.14628 -3.30649 0
M  V30 1183 H 125.728 -2.36644 -4.50419 0
M  V30 1184 H 125.126 0.611169 -5.62389 0
M  V30 1185 H 123.683 0.320875 -6.5101 0
M  V30 1186 N 127.117 1.15442 -1.07289 0
M  V30 1187 C 128.345 1.90096 -0.81676 0
M  V30 1188 C 128.76 1.7798 0.629966 0
M  V30 1189 O 128.117 1.1313 1.43206 0
M  V30 1190 C 128.168 3.40466 -1.21512 0
M  V30 1191 O 127.889 3.52232 -2.60508 0
M  V30 1192 C 129.39 4.32145 -0.988198 0
M  V30 1193 H 126.61 0.602495 -0.295366 0
M  V30 1194 H 129.154 1.4627 -1.42918 0
M  V30 1195 H 127.309 3.81958 -0.647039 0
M  V30 1196 H 127.723 4.45549 -2.76742 0
M  V30 1197 H 129.197 5.36072 -1.31645 0
M  V30 1198 H 129.674 4.39135 0.0755063 0
M  V30 1199 H 130.28 3.96395 -1.54115 0
M  V30 1200 N 128.595 0.856903 1.32268 0
M  V30 1201 C 129.823 0.475439 2.01363 0
M  V30 1202 C 130.238 -0.928486 1.64392 0
M  V30 1203 O 129.595 -1.60624 0.866387 0
M  V30 1204 C 129.646 0.607545 3.56358 0
M  V30 1205 O 129.367 1.95617 3.92002 0
M  V30 1206 C 130.868 0.225382 4.42727 0
M  V30 1207 H 128.088 0.186636 0.644521 0
M  V30 1208 H 130.632 1.15446 1.68797 0
M  V30 1209 H 128.787 -0.0237719 3.87393 0
M  V30 1210 H 129.201 1.95455 4.86721 0
M  V30 1211 H 130.675 0.368813 5.50767 0
M  V30 1212 H 131.152 -0.834369 4.31202 0
M  V30 1213 H 131.758 0.831864 4.17085 0
M  V30 1214 N 130.073 -1.45103 0.615059 0
M  V30 1215 C 131.036 -2.29025 -0.0895485 0
M  V30 1216 C 132.036 -1.40174 -0.787906 0
M  V30 1217 O 133.226 -1.62217 -0.634933 0
M  V30 1218 C 130.358 -3.21376 -1.13711 0
M  V30 1219 H 131.551 -2.92807 0.648382 0
M  V30 1220 H 129.104 -1.51749 0.374444 0
M  V30 1221 H 129.839 -2.6241 -1.90556 0
M  V30 1222 H 129.624 -3.86834 -0.640475 0
M  V30 1223 H 131.114 -3.84459 -1.63036 0
M  V30 1224 N 131.551 -0.354651 -1.53558 0
M  V30 1225 C 132.514 0.484566 -2.24019 0
M  V30 1226 C 133.514 1.01861 -1.24422 0
M  V30 1227 O 134.704 0.906097 -1.4878 0
M  V30 1228 C 131.836 1.67615 -2.96847 0
M  V30 1229 H 133.029 -0.131843 -2.9961 0
M  V30 1230 H 130.582 -0.106165 -1.55939 0
M  V30 1231 H 131.317 2.33095 -2.25471 0
M  V30 1232 H 131.102 1.30029 -3.69912 0
M  V30 1233 H 132.592 2.27114 -3.50441 0
M  V30 1234 N 133.029 1.57378 -0.0835403 0
M  V30 1235 C 133.992 2.12252 0.864959 0
M  V30 1236 C 134.992 1.04916 1.21858 0
M  V30 1237 O 136.182 1.30853 1.14991 0
M  V30 1238 C 133.314 2.63358 2.16461 0
M  V30 1239 H 134.507 2.97371 0.388676 0
M  V30 1240 H 132.06 1.55423 0.165317 0
M  V30 1241 H 132.795 1.81727 2.686 0
M  V30 1242 H 132.58 3.41826 1.92087 0
M  V30 1243 H 134.07 3.05847 2.84337 0
M  V30 1244 N 134.507 -0.190092 1.56449 0
M  V30 1245 C 135.47 -1.21925 1.9408 0
M  V30 1246 C 136.47 -1.38176 0.822431 0
M  V30 1247 O 137.66 -1.35903 1.08977 0
M  V30 1248 C 134.792 -2.58773 2.21922 0
M  V30 1249 H 135.985 -0.897464 2.86157 0
M  V30 1250 H 133.538 -0.43181 1.50217 0
M  V30 1251 H 134.273 -2.95998 1.32499 0
M  V30 1252 H 134.058 -2.48348 3.03424 0
M  V30 1253 H 135.548 -3.32978 2.52022 0
M  V30 1254 N 135.985 -1.50799 -0.457987 0
M  V30 1255 C 136.948 -1.7005 -1.53674 0
M  V30 1256 C 137.948 -0.570881 -1.50325 0
M  V30 1257 O 139.138 -0.838126 -1.52712 0
M  V30 1258 C 136.27 -1.73788 -2.93276 0
M  V30 1259 H 137.463 -2.66306 -1.37917 0
M  V30 1260 H 135.016 -1.40477 -0.685271 0
M  V30 1261 H 135.751 -0.792717 -3.14462 0
M  V30 1262 H 135.536 -2.55864 -2.97113 0
M  V30 1263 H 137.026 -1.90591 -3.71571 0
M  V30 1264 N 137.463 0.71206 -1.40597 0
M  V30 1265 C 138.691 1.50111 -1.42388 0
M  V30 1266 C 139.106 1.88784 -0.0245395 0
M  V30 1267 O 138.463 1.55681 0.952351 0
M  V30 1268 C 138.514 2.7742 -2.31776 0
M  V30 1269 O 138.235 2.40382 -3.66262 0
M  V30 1270 C 139.736 3.7129 -2.42196 0
M  V30 1271 H 136.956 0.46314 -0.485533 0
M  V30 1272 H 139.5 0.878068 -1.8469 0
M  V30 1273 H 137.655 3.36001 -1.92827 0
M  V30 1274 H 138.069 3.22324 -4.13772 0
M  V30 1275 H 139.543 4.57448 -3.08943 0
M  V30 1276 H 140.02 4.14641 -1.44809 0
M  V30 1277 H 140.626 3.18619 -2.81712 0
M  V30 1278 N 138.941 1.26152 0.944643 0
M  V30 1279 C 140.188 1.11492 1.69044 0
M  V30 1280 C 140.516 -0.342366 1.91463 0
M  V30 1281 O 139.771 -1.26812 1.49054 0
M  V30 1282 C 140.07 1.82541 3.07268 0
M  V30 1283 C 139.736 3.32445 3.04616 0
M  V30 1284 C 138.398 3.73337 3.036 0
M  V30 1285 C 140.75 4.28171 2.97185 0
M  V30 1286 C 138.078 5.08348 2.92915 0
M  V30 1287 C 140.43 5.63218 2.88041 0
M  V30 1288 C 139.094 6.03426 2.85366 0
M  V30 1289 H 138.364 0.407977 0.618576 0
M  V30 1290 H 141.011 1.56551 1.10291 0
M  V30 1291 H 139.316 1.29941 3.69625 0
M  V30 1292 H 141.013 1.68642 3.63815 0
M  V30 1293 H 137.603 2.99915 3.06185 0
M  V30 1294 H 141.787 3.97563 2.97081 0
M  V30 1295 H 137.043 5.38667 2.89219 0
M  V30 1296 H 141.217 6.37078 2.81254 0
M  V30 1297 H 138.844 7.07999 2.76842 0
M  V30 1298 N 140.419 -1.14872 1.07899 0
M  V30 1299 C 141.644 -1.90202 0.826926 0
M  V30 1300 C 142.069 -1.77774 -0.614664 0
M  V30 1301 O 141.427 -1.11431 -1.43013 0
M  V30 1302 C 141.475 -3.38352 1.24702 0
M  V30 1303 O 140.579 -4.10497 0.39575 0
M  V30 1304 H 139.92 -0.591968 0.300782 0
M  V30 1305 H 142.45 -1.45437 1.43907 0
M  V30 1306 H 142.46 -3.89156 1.22563 0
M  V30 1307 H 141.135 -3.46715 2.29698 0
M  V30 1308 H 139.712 -3.69796 0.480117 0
M  V30 1309 N 141.898 -0.863906 -1.31812 0
M  V30 1310 C 142.808 -0.318461 -2.32428 0
M  V30 1311 C 143.824 0.568496 -1.64451 0
M  V30 1312 O 145 0.46666 -1.95919 0
M  V30 1313 C 142.065 0.476355 -3.43412 0
M  V30 1314 C 141.126 -0.43784 -4.27061 0
M  V30 1315 C 140.359 0.319138 -5.32745 0
M  V30 1316 O 140.582 1.54799 -5.48993 0
M  V30 1317 O 139.516 -0.319861 -6.01049 0
M  V30 1318 H 143.342 -1.15229 -2.80991 0
M  V30 1319 H 140.927 -0.627103 -1.35602 0
M  V30 1320 H 142.809 0.927156 -4.11074 0
M  V30 1321 H 141.484 1.28683 -2.97022 0
M  V30 1322 H 140.391 -0.937013 -3.62175 0
M  V30 1323 H 141.724 -1.21375 -4.77 0
M  V30 1324 N 143.376 1.44774 -0.622745 0
M  V30 1325 C 144.308 2.28856 0.125485 0
M  V30 1326 C 145.321 1.40811 0.817069 0
M  V30 1327 O 146.51 1.65044 0.679918 0
M  V30 1328 C 143.61 3.16963 1.19949 0
M  V30 1329 C 142.783 4.33374 0.592064 0
M  V30 1330 C 141.842 5.02577 1.55893 0
M  V30 1331 O 140.868 5.58873 1.07933 0
M  V30 1332 N 142.07 5.03256 2.89334 0
M  V30 1333 H 144.835 2.93713 -0.596068 0
M  V30 1334 H 142.396 1.55129 -0.463303 0
M  V30 1335 H 144.388 3.60123 1.84644 0
M  V30 1336 H 142.958 2.53913 1.82337 0
M  V30 1337 H 142.178 3.93509 -0.233322 0
M  V30 1338 H 143.466 5.08527 0.166738 0
M  V30 1339 H 142.864 4.58836 3.30887 0
M  V30 1340 H 141.421 5.50232 3.49412 0
M  V30 1341 N 144.854 0.36279 1.53368 0
M  V30 1342 C 146.1 -0.228113 2.01513 0
M  V30 1343 C 146.433 -1.48648 1.2497 0
M  V30 1344 O 145.708 -1.91459 0.342616 0
M  V30 1345 C 145.991 -0.522884 3.56284 0
M  V30 1346 C 145.844 0.74892 4.43521 0
M  V30 1347 C 147.163 -1.32461 4.19693 0
M  V30 1348 H 144.282 -0.0814343 0.732487 0
M  V30 1349 H 146.924 0.48713 1.83649 0
M  V30 1350 H 145.074 -1.1322 3.71636 0
M  V30 1351 H 146.746 1.38648 4.39971 0
M  V30 1352 H 144.989 1.36986 4.11603 0
M  V30 1353 H 145.66 0.497667 5.49752 0
M  V30 1354 H 148.136 -0.809203 4.08156 0
M  V30 1355 H 147.012 -1.49961 5.28018 0
M  V30 1356 H 147.273 -2.33232 3.75573 0
M  V30 1357 N 146.332 -1.57332 0.0918853 0
M  V30 1358 C 147.58 -1.93853 -0.571446 0
M  V30 1359 C 147.901 -0.974212 -1.6892 0
M  V30 1360 O 147.171 -0.0257254 -1.95883 0
M  V30 1361 H 145.751 -0.715666 -0.214082 0
M  V30 1362 H 148.413 -1.94287 0.154464 0
M  V30 1363 H 147.509 -2.96191 -0.983729 0
M  V30 1364 N 147.81 0.181792 -1.56548 0
M  V30 1365 C 149.058 0.89832 -1.81038 0
M  V30 1366 C 149.379 1.83232 -0.667164 0
M  V30 1367 O 148.649 1.93372 0.313673 0
M  V30 1368 H 147.229 0.33471 -0.667816 0
M  V30 1369 H 149.891 0.184116 -1.94028 0
M  V30 1370 H 148.987 1.4815 -2.74696 0
M  V30 1371 N 149.288 1.51039 0.449983 0
M  V30 1372 C 150.536 1.62759 1.19808 0
M  V30 1373 C 150.857 0.339981 1.92013 0
M  V30 1374 O 150.127 -0.643606 1.85026 0
M  V30 1375 H 148.707 0.599811 0.445237 0
M  V30 1376 H 151.369 1.87914 0.517138 0
M  V30 1377 H 150.465 2.44911 1.93455 0
M  V30 1378 N 150.766 -0.704594 1.40972 0
M  V30 1379 C 151.991 -1.49858 1.43378 0
M  V30 1380 C 152.416 -1.88061 0.038184 0
M  V30 1381 O 151.774 -1.5402 -0.956425 0
M  V30 1382 C 151.822 -2.74333 2.34038 0
M  V30 1383 O 150.926 -3.7147 1.7912 0
M  V30 1384 H 150.267 -0.45139 0.486974 0
M  V30 1385 H 152.797 -0.866832 1.8533 0
M  V30 1386 H 152.807 -3.22741 2.49604 0
M  V30 1387 H 151.482 -2.45863 3.35446 0
M  V30 1388 H 150.059 -3.30363 1.72958 0
M  V30 1389 N 152.244 -1.26651 -0.937939 0
M  V30 1390 C 153.492 -1.12165 -1.68118 0
M  V30 1391 C 153.813 0.334983 -1.92101 0
M  V30 1392 O 153.083 1.23583 -1.52 0
M  V30 1393 H 151.663 -0.412093 -0.623048 0
M  V30 1394 H 154.325 -1.59027 -1.12678 0
M  V30 1395 H 153.421 -1.64289 -2.6536 0
M  V30 1396 N 153.722 1.14298 -1.08507 0
M  V30 1397 C 154.97 1.84993 -0.813763 0
M  V30 1398 C 155.291 1.83405 0.662393 0
M  V30 1399 O 154.561 1.28319 1.48024 0
M  V30 1400 H 153.141 0.684966 -0.298045 0
M  V30 1401 H 155.803 1.385 -1.37126 0
M  V30 1402 H 154.899 2.89788 -1.15884 0
M  V30 1403 N 155.201 0.870884 1.31352 0
M  V30 1404 C 156.164 0.332243 2.26779 0
M  V30 1405 C 157.164 -0.517302 1.52252 0
M  V30 1406 O 158.354 -0.326477 1.71113 0
M  V30 1407 C 155.486 -0.528066 3.36785 0
M  V30 1408 H 156.679 1.17469 2.75937 0
M  V30 1409 H 154.232 0.64655 1.423 0
M  V30 1410 H 154.967 -1.39167 2.92922 0
M  V30 1411 H 154.752 0.0802582 3.92018 0
M  V30 1412 H 156.242 -0.897179 4.07849 0
M  V30 1413 N 156.679 -1.44442 0.630414 0
M  V30 1414 C 157.927 -2.01653 0.134351 0
M  V30 1415 C 158.248 -1.49836 -1.24796 0
M  V30 1416 O 157.518 -0.701684 -1.82902 0
M  V30 1417 H 156.098 -0.74554 0.0466769 0
M  V30 1418 H 158.76 -1.76952 0.816955 0
M  V30 1419 H 157.856 -3.11935 0.101498 0
M  V30 1420 N 158.157 -0.370918 -1.53173 0
M  V30 1421 C 159.573 -0.0200818 -1.59587 0
M  V30 1422 C 159.773 1.46279 -1.38581 0
M  V30 1423 O 158.829 2.22506 -1.19363 0
M  V30 1424 C 160.142 -0.4808 -2.96831 0
M  V30 1425 C 161.69 -0.435477 -3.09956 0
M  V30 1426 C 162.165 -0.872092 -4.4962 0
M  V30 1427 N 163.656 -0.827364 -4.55751 0
M  V30 1428 C 164.391 -1.13683 -5.62018 0
M  V30 1429 N 163.887 -1.51584 -6.76014 0
M  V30 1430 N 165.68 -1.05927 -5.52029 0
M  V30 1431 H 157.831 -1.33652 -1.65079 0
M  V30 1432 H 160.094 -0.546634 -0.774529 0
M  V30 1433 H 159.8 -1.51577 -3.1736 0
M  V30 1434 H 159.674 0.129796 -3.76977 0
M  V30 1435 H 162.061 0.590371 -2.89134 0
M  V30 1436 H 162.142 -1.08164 -2.31806 0
M  V30 1437 H 161.786 -1.89608 -4.71181 0
M  V30 1438 H 161.716 -0.203127 -5.26208 0
M  V30 1439 H 164.207 -0.548216 -3.73902 0
M  V30 1440 H 164.52 -1.73609 -7.53047 0
M  V30 1441 H 162.865 -1.55454 -6.77391 0
M  V30 1442 H 166.056 -0.762321 -4.61851 0
M  V30 1443 H 166.229 -1.30378 -6.34749 0
M  V30 1444 N 159.635 1.57281 -0.100228 0
M  V30 1445 C 160.883 1.94153 0.561157 0
M  V30 1446 C 161.204 0.983157 1.68401 0
M  V30 1447 O 160.474 0.0361132 1.95867 0
M  V30 1448 H 159.054 0.716791 0.210283 0
M  V30 1449 H 161.716 1.94202 -0.164765 0
M  V30 1450 H 160.812 2.96709 0.968008 0
M  V30 1451 N 161.113 -0.173488 1.56642 0
M  V30 1452 C 162.361 -0.888706 1.81512 0
M  V30 1453 C 162.682 -1.82875 0.676872 0
M  V30 1454 O 161.952 -1.93536 -0.303414 0
M  V30 1455 H 160.532 -0.331164 0.669582 0
M  V30 1456 H 163.194 -0.173823 1.94123 0
M  V30 1457 H 162.29 -1.46691 2.75478 0
M  V30 1458 N 162.591 -1.51276 -0.441967 0
M  V30 1459 C 163.554 -1.7167 -1.51862 0
M  V30 1460 C 164.554 -0.586793 -1.49711 0
M  V30 1461 O 165.744 -0.854276 -1.51815 0
M  V30 1462 C 162.876 -1.76889 -2.91416 0
M  V30 1463 H 164.069 -2.67754 -1.35084 0
M  V30 1464 H 161.622 -1.41196 -0.670333 0
M  V30 1465 H 162.357 -0.826026 -3.13604 0
M  V30 1466 H 162.142 -2.59001 -2.94382 0
M  V30 1467 H 163.632 -1.94522 -3.69528 0
M  V30 1468 N 164.069 0.697108 -1.41344 0
M  V30 1469 C 165.032 1.79281 -1.42797 0
M  V30 1470 C 166.032 1.57607 -0.318837 0
M  V30 1471 O 167.222 1.64309 -0.578642 0
M  V30 1472 C 164.354 3.17632 -1.23785 0
M  V30 1473 H 165.547 1.79385 -2.40335 0
M  V30 1474 H 163.1 0.904582 -1.27464 0
M  V30 1475 H 163.835 3.23167 -0.270814 0
M  V30 1476 H 163.62 3.34765 -2.04144 0
M  V30 1477 H 165.11 3.97617 -1.27633 0
M  V30 1478 N 165.547 1.27147 0.931209 0
M  V30 1479 C 166.772 1.16191 1.71797 0
M  V30 1480 C 167.197 -0.278004 1.86034 0
M  V30 1481 O 166.555 -1.20137 1.35782 0
M  V30 1482 C 166.603 1.84673 3.09723 0
M  V30 1483 O 165.707 1.14231 3.96264 0
M  V30 1484 H 165.048 0.404303 0.526721 0
M  V30 1485 H 167.578 1.68152 1.1656 0
M  V30 1486 H 167.588 1.91893 3.60057 0
M  V30 1487 H 166.263 2.89421 2.98677 0
M  V30 1488 H 164.84 1.15056 3.54706 0
M  V30 1489 N 167.025 -1.13721 1.09112 0
M  V30 1490 C 168.441 -1.36914 0.820174 0
M  V30 1491 C 168.641 -1.93356 -0.567079 0
M  V30 1492 O 167.697 -2.15093 -1.32255 0
M  V30 1493 C 169.01 -2.3235 1.90877 0
M  V30 1494 C 170.558 -2.45973 1.93562 0
M  V30 1495 C 171.033 -3.44714 3.01556 0
M  V30 1496 N 172.524 -3.52263 3.00775 0
M  V30 1497 C 173.259 -4.28536 3.80978 0
M  V30 1498 N 172.755 -5.07991 4.71081 0
M  V30 1499 N 174.548 -4.23804 3.69251 0
M  V30 1500 H 166.699 -0.754348 1.98553 0
M  V30 1501 H 168.962 -0.3944 0.862063 0
M  V30 1502 H 168.668 -1.98027 2.90651 0
M  V30 1503 H 168.542 -3.32332 1.78424 0
M  V30 1504 H 170.929 -2.79584 0.944286 0
M  V30 1505 H 171.01 -1.45926 2.10093 0
M  V30 1506 H 170.654 -3.11835 4.00901 0
M  V30 1507 H 170.584 -4.44558 2.82269 0
M  V30 1508 H 173.075 -2.95567 2.35475 0
M  V30 1509 H 173.388 -5.63487 5.28869 0
M  V30 1510 H 171.733 -5.07235 4.75119 0
M  V30 1511 H 174.924 -3.60806 2.98222 0
M  V30 1512 H 175.097 -4.82995 4.31995 0
M  V30 1513 N 168.503 -0.877838 -1.30888 0
M  V30 1514 C 169.749 -0.493426 -1.96706 0
M  V30 1515 C 170.082 0.953504 -1.6918 0
M  V30 1516 O 169.357 1.67266 -0.992594 0
M  V30 1517 C 169.64 -0.760429 -3.51979 0
M  V30 1518 C 169.493 -2.25747 -3.89048 0
M  V30 1519 C 170.812 -0.232148 -4.39487 0
M  V30 1520 H 167.931 -0.180746 -0.714493 0
M  V30 1521 H 170.573 -1.10052 -1.54882 0
M  V30 1522 H 168.723 -0.243715 -3.87735 0
M  V30 1523 H 170.395 -2.84204 -3.63354 0
M  V30 1524 H 168.638 -2.72694 -3.37373 0
M  V30 1525 H 169.309 -2.39491 -4.97341 0
M  V30 1526 H 171.785 -0.674314 -4.106 0
M  V30 1527 H 170.661 -0.448355 -5.47066 0
M  V30 1528 H 170.922 0.866297 -4.33529 0
M  V30 1529 N 169.982 1.44106 -0.638065 0
M  V30 1530 C 170.912 2.33448 0.0494287 0
M  V30 1531 C 171.893 1.48606 0.827672 0
M  V30 1532 O 173.078 1.77308 0.792173 0
M  V30 1533 C 170.208 3.31771 1.02691 0
M  V30 1534 C 169.162 4.26485 0.359823 0
M  V30 1535 C 168.488 5.14729 1.44769 0
M  V30 1536 C 169.788 5.17056 -0.738296 0
M  V30 1537 H 171.482 2.91183 -0.696636 0
M  V30 1538 H 169.028 1.40014 -0.336456 0
M  V30 1539 H 170.981 3.93161 1.51666 0
M  V30 1540 H 169.705 2.7226 1.80395 0
M  V30 1541 H 168.364 3.66437 -0.10934 0
M  V30 1542 H 168.012 4.51566 2.21578 0
M  V30 1543 H 167.712 5.78913 1.00668 0
M  V30 1544 H 169.236 5.78991 1.93911 0
M  V30 1545 H 170.65 5.72342 -0.331354 0
M  V30 1546 H 169.047 5.89879 -1.10286 0
M  V30 1547 H 170.117 4.57652 -1.60258 0
M  V30 1548 N 171.46 0.379036 1.52974 0
M  V30 1549 C 172.39 -0.452706 2.29069 0
M  V30 1550 C 173.371 -1.07237 1.32039 0
M  V30 1551 O 174.556 -1.08708 1.60923 0
M  V30 1552 C 171.686 -1.5856 3.08992 0
M  V30 1553 C 170.64 -1.0925 4.13822 0
M  V30 1554 C 169.966 -2.31668 4.81907 0
M  V30 1555 C 171.266 -0.167702 5.22031 0
M  V30 1556 H 172.96 0.182181 2.98845 0
M  V30 1557 H 170.506 0.0890592 1.43724 0
M  V30 1558 H 172.459 -2.1742 3.6098 0
M  V30 1559 H 171.183 -2.24792 2.36931 0
M  V30 1560 H 169.842 -0.526494 3.628 0
M  V30 1561 H 169.49 -2.96386 4.06404 0
M  V30 1562 H 169.19 -1.9934 5.52754 0
M  V30 1563 H 170.714 -2.91189 5.36695 0
M  V30 1564 H 172.128 -0.664186 5.6944 0
M  V30 1565 H 170.525 0.0653265 6.00064 0
M  V30 1566 H 171.595 0.786347 4.78482 0
M  V30 1567 N 172.938 -1.57226 0.108567 0
M  V30 1568 C 174.184 -1.95121 -0.552761 0
M  V30 1569 C 174.517 -0.991345 -1.66991 0
M  V30 1570 O 173.792 -0.0267211 -1.94482 0
M  V30 1571 C 174.075 -3.43039 -1.09528 0
M  V30 1572 C 173.928 -4.49797 0.0177332 0
M  V30 1573 C 175.247 -3.92567 -1.98945 0
M  V30 1574 H 172.366 -0.709496 -0.199461 0
M  V30 1575 H 175.008 -1.89126 0.182011 0
M  V30 1576 H 173.158 -3.48279 -1.72146 0
M  V30 1577 H 174.83 -4.56661 0.652584 0
M  V30 1578 H 173.073 -4.284 0.682309 0
M  V30 1579 H 173.744 -5.50528 -0.402919 0
M  V30 1580 H 176.22 -3.89565 -1.46214 0
M  V30 1581 H 175.096 -4.96605 -2.33827 0
M  V30 1582 H 175.357 -3.32648 -2.91201 0
M  V30 1583 N 174.416 0.165178 -1.56732 0
M  V30 1584 C 175.665 0.879143 -1.81532 0
M  V30 1585 C 175.978 1.83144 -0.686842 0
M  V30 1586 O 177.184 2.58823 -0.819944 0
M  V30 1587 C 175.64 1.61388 -3.21686 0
M  V30 1588 C 175.248 0.704904 -4.4242 0
M  V30 1589 C 176.992 2.3157 -3.55774 0
M  V30 1590 C 174.899 1.44022 -5.73595 0
M  V30 1591 H 173.829 0.332033 -0.676957 0
M  V30 1592 H 176.48 0.132008 -1.83025 0
M  V30 1593 H 174.862 2.40599 -3.14529 0
M  V30 1594 H 176.036 -0.0506815 -4.60772 0
M  V30 1595 H 174.351 0.112419 -4.16248 0
M  V30 1596 H 176.948 2.8719 -4.51028 0
M  V30 1597 H 177.291 3.07201 -2.8095 0
M  V30 1598 H 177.824 1.59297 -3.64513 0
M  V30 1599 H 174.563 0.72612 -6.51466 0
M  V30 1600 H 174.083 2.16898 -5.5921 0
M  V30 1601 H 175.762 1.98606 -6.15764 0
M  V30 1602 N 175.894 1.51508 0.433938 0
M  V30 1603 C 177.171 1.54888 1.19453 0
M  V30 1604 C 177.551 0.315154 2.08734 0
M  V30 1605 O 176.899 -0.699558 2.17528 0
M  V30 1606 C 177.109 2.86467 1.99342 0
M  V30 1607 C 178.457 3.38545 2.56267 0
M  V30 1608 O 179.481 2.88041 2.0955 0
M  V30 1609 O 178.34 4.26675 3.41483 0
M  V30 1610 H 175.434 0.622863 0.544032 0
M  V30 1611 H 177.98 1.63823 0.442732 0
M  V30 1612 H 176.752 3.67718 1.33788 0
M  V30 1613 H 176.375 2.8071 2.8158 0
M  V30 1614 N 177.372 -0.689602 1.41712 0
M  V30 1615 C 178.282 -1.83314 1.46401 0
M  V30 1616 C 179.298 -1.7036 0.35405 0
M  V30 1617 O 180.474 -1.92171 0.602692 0
M  V30 1618 C 177.539 -3.19344 1.34982 0
M  V30 1619 C 176.6 -3.44363 2.56344 0
M  V30 1620 C 175.833 -4.73904 2.45461 0
M  V30 1621 O 176.056 -5.508 1.48241 0
M  V30 1622 O 174.99 -4.99839 3.35328 0
M  V30 1623 H 178.816 -1.82314 2.42889 0
M  V30 1624 H 176.401 -0.843438 1.23315 0
M  V30 1625 H 178.283 -4.00547 1.3092 0
M  V30 1626 H 176.958 -3.21014 0.41612 0
M  V30 1627 H 175.865 -2.63067 2.65982 0
M  V30 1628 H 177.198 -3.47512 3.48563 0
M  V30 1629 N 178.85 -1.27639 -0.924453 0
M  V30 1630 C 180.261 -1.12834 -1.48746 0
M  V30 1631 C 180.612 0.285505 -1.94112 0
M  V30 1632 O 179.737 1.17874 -1.81479 0
M  V30 1633 C 180.332 -2.04217 -2.70334 0
M  V30 1634 C 178.891 -1.93509 -3.22848 0
M  V30 1635 C 178.038 -1.96583 -1.95577 0
M  V30 1636 H 180.989 -1.40484 -0.738233 0
M  V30 1637 H 181.01 -1.59989 -3.4523 0
M  V30 1638 H 180.522 -3.07111 -2.37285 0
M  V30 1639 H 178.623 -0.936131 -3.60649 0
M  V30 1640 H 178.736 -2.79917 -3.88823 0
M  V30 1641 H 177.1 -1.4085 -2.12211 0
M  V30 1642 H 177.883 -3.01137 -1.64837 0
M  V30 1643 N 180.328 1.1314 -1.09713 0
M  V30 1644 C 181.278 2.16709 -0.708593 0
M  V30 1645 C 182.262 1.58471 0.278523 0
M  V30 1646 O 183.454 1.76779 0.088427 0
M  V30 1647 C 180.583 3.43039 -0.133923 0
M  V30 1648 C 179.669 4.08277 -1.14763 0
M  V30 1649 N 180.06 4.48637 -2.33577 0
M  V30 1650 C 178.358 4.34954 -0.986446 0
M  V30 1651 C 179.059 4.9952 -2.98085 0
M  V30 1652 N 178.035 4.94561 -2.25632 0
M  V30 1653 H 181.837 2.45672 -1.61315 0
M  V30 1654 H 179.351 1.29967 -0.973775 0
M  V30 1655 H 181.348 4.16583 0.162465 0
M  V30 1656 H 180.008 3.15549 0.765447 0
M  V30 1657 H 181.019 4.41246 -2.7115 0
M  V30 1658 H 177.696 4.17258 -0.142008 0
M  V30 1659 H 179.086 5.40521 -3.99108 0
M  V30 1660 N 181.806 0.884767 1.30421 0
M  V30 1661 C 183.034 0.518044 2.0031 0
M  V30 1662 C 183.449 -0.893408 1.66324 0
M  V30 1663 O 182.806 -1.5875 0.900262 0
M  V30 1664 C 182.857 0.682997 3.54989 0
M  V30 1665 O 182.578 2.03888 3.87764 0
M  V30 1666 C 184.079 0.31924 4.42149 0
M  V30 1667 H 181.299 0.200265 0.640418 0
M  V30 1668 H 183.843 1.19001 1.6631 0
M  V30 1669 H 181.998 0.0584052 3.87356 0
M  V30 1670 H 182.412 2.05735 4.82466 0
M  V30 1671 H 183.886 0.485555 5.4986 0
M  V30 1672 H 184.363 -0.742717 4.32875 0
M  V30 1673 H 184.969 0.920147 4.15227 0
M  V30 1674 N 183.284 -1.43765 0.645699 0
M  V30 1675 C 184.561 -1.9541 0.0862963 0
M  V30 1676 C 184.941 -1.58725 -1.39175 0
M  V30 1677 O 184.289 -0.868581 -2.11348 0
M  V30 1678 C 184.499 -3.47488 0.324565 0
M  V30 1679 C 185.847 -4.24001 0.225497 0
M  V30 1680 O 186.871 -3.55274 0.256715 0
M  V30 1681 O 185.73 -5.46313 0.142801 0
M  V30 1682 H 182.824 -0.826882 -0.0139483 0
M  V30 1683 H 185.37 -1.53743 0.718415 0
M  V30 1684 H 184.142 -3.67289 1.3496 0
M  V30 1685 H 183.765 -3.96135 -0.340987 0
M  V30 1686 N 184.763 -0.387143 -1.52771 0
M  V30 1687 C 186.009 0.188506 -2.02525 0
M  V30 1688 C 186.364 1.44649 -1.26864 0
M  V30 1689 O 185.657 1.88189 -0.359945 0
M  V30 1690 C 185.851 0.512209 -3.53711 0
M  V30 1691 C 185.68 -0.712855 -4.44014 0
M  V30 1692 C 184.45 -1.23147 -4.90064 0
M  V30 1693 C 186.648 -1.58453 -4.89282 0
M  V30 1694 N 184.63 -2.41431 -5.64433 0
M  V30 1695 C 186.001 -2.61381 -5.6221 0
M  V30 1696 C 188.056 -1.60488 -4.71326 0
M  V30 1697 C 186.759 -3.66227 -6.19088 0
M  V30 1698 C 188.785 -2.6424 -5.29085 0
M  V30 1699 C 188.147 -3.6589 -6.01917 0
M  V30 1700 H 184.246 0.0311236 -0.78138 0
M  V30 1701 H 186.83 -0.536548 -1.87161 0
M  V30 1702 H 185.001 1.20632 -3.69192 0
M  V30 1703 H 186.733 1.07482 -3.90166 0
M  V30 1704 H 183.488 -0.792795 -4.66917 0
M  V30 1705 H 183.912 -3.01274 -6.0627 0
M  V30 1706 H 188.554 -0.83247 -4.14524 0
M  V30 1707 H 186.272 -4.44337 -6.74974 0
M  V30 1708 H 189.858 -2.66695 -5.17074 0
M  V30 1709 H 188.738 -4.44855 -6.45813 0
M  V30 1710 N 186.241 1.57166 -0.116904 0
M  V30 1711 C 187.204 2.14039 0.819742 0
M  V30 1712 C 188.204 1.07477 1.19605 0
M  V30 1713 O 189.394 1.33263 1.1219 0
M  V30 1714 C 186.526 2.67891 2.10826 0
M  V30 1715 H 187.719 2.98128 0.325511 0
M  V30 1716 H 185.272 1.55739 0.132312 0
M  V30 1717 H 186.007 1.87384 2.64685 0
M  V30 1718 H 185.792 3.45823 1.84793 0
M  V30 1719 H 187.282 3.11809 2.77785 0
M  V30 1720 N 187.719 -0.156864 1.56817 0
M  V30 1721 C 188.666 -1.19394 1.97519 0
M  V30 1722 C 189.636 -1.4322 0.841265 0
M  V30 1723 O 190.821 -1.55719 1.10255 0
M  V30 1724 C 187.961 -2.52483 2.35258 0
M  V30 1725 C 187.074 -2.35914 3.61896 0
M  V30 1726 C 186.209 -3.61969 3.88782 0
M  V30 1727 C 185.248 -3.40395 5.08722 0
M  V30 1728 N 184.385 -4.58556 5.31668 0
M  V30 1729 H 189.225 -0.839845 2.85921 0
M  V30 1730 H 186.762 -0.403264 1.41464 0
M  V30 1731 H 188.72 -3.30071 2.55165 0
M  V30 1732 H 187.35 -2.85859 1.49949 0
M  V30 1733 H 186.402 -1.49429 3.49821 0
M  V30 1734 H 187.714 -2.15926 4.49641 0
M  V30 1735 H 186.868 -4.47989 4.09135 0
M  V30 1736 H 185.607 -3.84951 2.9944 0
M  V30 1737 H 184.612 -2.52763 4.88253 0
M  V30 1738 H 185.837 -3.18822 5.99608 0
M  V30 1739 H 183.783 -4.81729 4.45279 0
M  V30 1740 H 183.7 -4.41535 6.13664 0
M  V30 1741 H 184.968 -5.45817 5.5651 0
M  V30 1742 N 189.197 -1.51736 -0.425897 0
M  V30 1743 C 190.427 -1.68549 -1.19476 0
M  V30 1744 C 190.835 -0.387288 -1.85194 0
M  V30 1745 O 190.178 0.645142 -1.71999 0
M  V30 1746 C 190.24 -2.75275 -2.31223 0
M  V30 1747 C 189.904 -4.17534 -1.8578 0
M  V30 1748 C 190.901 -5.01936 -1.35485 0
M  V30 1749 C 188.586 -4.6369 -1.93123 0
M  V30 1750 C 190.58 -6.30559 -0.931347 0
M  V30 1751 C 188.267 -5.92307 -1.50384 0
M  V30 1752 C 189.265 -6.75569 -1.00473 0
M  V30 1753 O 188.953 -8.0178 -0.583452 0
M  V30 1754 H 188.685 -0.568525 -0.365725 0
M  V30 1755 H 191.239 -1.98982 -0.509444 0
M  V30 1756 H 189.469 -2.40182 -3.03067 0
M  V30 1757 H 191.158 -2.80853 -2.93047 0
M  V30 1758 H 191.924 -4.67475 -1.29197 0
M  V30 1759 H 187.803 -3.98997 -2.30916 0
M  V30 1760 H 191.347 -6.95498 -0.541084 0
M  V30 1761 H 187.244 -6.2628 -1.56346 0
M  V30 1762 H 188.012 -8.1543 -0.708275 0
M  V30 1763 N 190.675 0.682077 -1.42076 0
M  V30 1764 C 191.922 1.44215 -1.42156 0
M  V30 1765 C 192.25 1.94468 -0.0354186 0
M  V30 1766 O 191.505 1.70816 0.955002 0
M  V30 1767 C 191.804 2.66036 -2.38662 0
M  V30 1768 C 191.47 2.34366 -3.85206 0
M  V30 1769 C 190.132 2.25439 -4.25124 0
M  V30 1770 C 192.484 2.08513 -4.77673 0
M  V30 1771 C 189.812 1.88775 -5.55501 0
M  V30 1772 C 192.164 1.73354 -6.08384 0
M  V30 1773 C 190.828 1.62933 -6.47309 0
M  V30 1774 H 190.098 0.527718 -0.520187 0
M  V30 1775 H 192.745 0.778387 -1.74967 0
M  V30 1776 H 191.05 3.3741 -1.99152 0
M  V30 1777 H 192.747 3.24205 -2.35991 0
M  V30 1778 H 189.337 2.42213 -3.53597 0
M  V30 1779 H 193.521 2.14346 -4.47626 0
M  V30 1780 H 188.777 1.7927 -5.84527 0
M  V30 1781 H 192.951 1.52373 -6.79526 0
M  V30 1782 H 190.578 1.34292 -7.48244 0
M  V30 1783 N 192.153 1.28127 0.917671 0
M  V30 1784 C 193.1 1.11717 2.0196 0
M  V30 1785 C 194.07 0.0153929 1.66093 0
M  V30 1786 O 195.255 0.179596 1.89953 0
M  V30 1787 C 192.395 0.780927 3.36148 0
M  V30 1788 C 191.508 1.96135 3.84909 0
M  V30 1789 C 190.643 1.56609 5.0759 0
M  V30 1790 C 189.682 2.71339 5.48673 0
M  V30 1791 N 188.819 2.32332 6.62545 0
M  V30 1792 H 193.659 2.06003 2.15329 0
M  V30 1793 H 191.196 1.02535 1.05475 0
M  V30 1794 H 193.154 0.56675 4.13333 0
M  V30 1795 H 191.784 -0.124998 3.22558 0
M  V30 1796 H 190.836 2.28777 3.03916 0
M  V30 1797 H 192.148 2.82165 4.1132 0
M  V30 1798 H 191.302 1.31374 5.92305 0
M  V30 1799 H 190.041 0.677014 4.82978 0
M  V30 1800 H 189.046 2.97276 4.62501 0
M  V30 1801 H 190.271 3.60882 5.75274 0
M  V30 1802 H 188.217 1.45889 6.39572 0
M  V30 1803 H 188.134 3.11899 6.88662 0
M  V30 1804 H 189.402 2.10371 7.50576 0
M  V30 1805 N 193.631 -1.12557 1.10312 0
M  V30 1806 C 194.879 -1.83675 0.843091 0
M  V30 1807 C 195.2 -1.84435 -0.633131 0
M  V30 1808 O 194.47 -1.30657 -1.45964 0
M  V30 1809 H 193.05 -0.680138 0.308904 0
M  V30 1810 H 195.712 -1.36301 1.39313 0
M  V30 1811 H 194.808 -2.87908 1.2048 0
M  V30 1812 N 195.109 -0.891671 -1.2995 0
M  V30 1813 C 196.056 -0.361736 -2.27948 0
M  V30 1814 C 197.026 0.551761 -1.56668 0
M  V30 1815 O 198.211 0.478736 -1.84696 0
M  V30 1816 C 195.351 0.411825 -3.42634 0
M  V30 1817 C 194.464 -0.531651 -4.28716 0
M  V30 1818 C 193.599 0.258167 -5.30572 0
M  V30 1819 C 192.638 -0.680349 -6.08307 0
M  V30 1820 N 191.775 0.0745613 -7.0206 0
M  V30 1821 H 196.615 -1.20254 -2.72659 0
M  V30 1822 H 194.152 -0.604352 -1.34112 0
M  V30 1823 H 196.11 0.876304 -4.07893 0
M  V30 1824 H 194.74 1.21715 -2.98974 0
M  V30 1825 H 193.792 -1.11463 -3.63703 0
M  V30 1826 H 195.104 -1.25038 -4.82874 0
M  V30 1827 H 194.258 0.784204 -6.0161 0
M  V30 1828 H 192.997 1.01008 -4.77126 0
M  V30 1829 H 192.002 -1.21796 -5.3614 0
M  V30 1830 H 193.227 -1.43145 -6.63842 0
M  V30 1831 H 191.173 0.808883 -6.50994 0
M  V30 1832 H 191.09 -0.584409 -7.53738 0
M  V30 1833 H 192.358 0.581123 -7.77331 0
M  V30 1834 N 196.587 1.43421 -0.653314 0
M  V30 1835 C 197.534 2.30768 0.0382271 0
M  V30 1836 C 198.504 1.44755 0.814576 0
M  V30 1837 O 199.689 1.73624 0.791162 0
M  V30 1838 C 196.829 3.30336 0.998599 0
M  V30 1839 C 195.942 4.31448 0.218342 0
M  V30 1840 C 195.077 5.18098 1.17252 0
M  V30 1841 C 194.116 6.10902 0.382702 0
M  V30 1842 N 193.253 6.90176 1.28848 0
M  V30 1843 H 198.093 2.89357 -0.712511 0
M  V30 1844 H 195.63 1.42548 -0.363128 0
M  V30 1845 H 197.588 3.86572 1.56901 0
M  V30 1846 H 196.218 2.73397 1.71621 0
M  V30 1847 H 195.27 3.77506 -0.46836 0
M  V30 1848 H 196.582 4.97227 -0.395812 0
M  V30 1849 H 195.736 5.7896 1.81356 0
M  V30 1850 H 194.475 4.52444 1.82058 0
M  V30 1851 H 193.48 5.49128 -0.27169 0
M  V30 1852 H 194.705 6.78598 -0.260957 0
M  V30 1853 H 192.651 6.27171 1.92334 0
M  V30 1854 H 192.568 7.52478 0.728887 0
M  V30 1855 H 193.836 7.55543 1.91766 0
M  V30 1856 N 198.065 0.39524 1.52563 0
M  V30 1857 C 199.314 -0.186321 2.00838 0
M  V30 1858 C 199.627 -1.47402 1.28577 0
M  V30 1859 O 200.833 -2.13599 1.67593 0
M  V30 1860 C 199.289 -0.382595 3.57861 0
M  V30 1861 C 198.897 0.892202 4.39026 0
M  V30 1862 C 200.641 -0.9202 4.14406 0
M  V30 1863 C 198.548 0.66388 5.87662 0
M  V30 1864 H 197.478 -0.0734041 0.750418 0
M  V30 1865 H 200.129 0.518552 1.76021 0
M  V30 1866 H 198.511 -1.14946 3.7895 0
M  V30 1867 H 199.685 1.66414 4.29701 0
M  V30 1868 H 198 1.35519 3.9373 0
M  V30 1869 H 200.597 -1.10683 5.23119 0
M  V30 1870 H 200.94 -1.89096 3.70875 0
M  V30 1871 H 201.473 -0.212751 3.97231 0
M  V30 1872 H 198.212 1.6058 6.35527 0
M  V30 1873 H 197.732 -0.0690193 5.9976 0
M  V30 1874 H 199.411 0.300699 6.46301 0
M  V30 1875 N 199.544 -1.57102 0.125237 0
M  V30 1876 C 200.494 -2.12202 -0.833936 0
M  V30 1877 C 201.478 -1.04433 -1.22403 0
M  V30 1878 O 202.67 -1.30655 -1.19408 0
M  V30 1879 C 199.799 -2.72994 -2.08157 0
M  V30 1880 C 198.885 -3.87852 -1.71556 0
M  V30 1881 N 199.276 -4.9464 -1.05662 0
M  V30 1882 C 197.574 -3.98153 -2.00973 0
M  V30 1883 C 198.275 -5.74953 -0.883376 0
M  V30 1884 N 197.251 -5.24985 -1.41036 0
M  V30 1885 H 201.053 -2.92141 -0.321035 0
M  V30 1886 H 198.567 -1.62217 -0.0770315 0
M  V30 1887 H 200.564 -3.10816 -2.77847 0
M  V30 1888 H 199.224 -1.9452 -2.59985 0
M  V30 1889 H 200.235 -5.12872 -0.719878 0
M  V30 1890 H 196.912 -3.30728 -2.54804 0
M  V30 1891 H 198.302 -6.70904 -0.365675 0
M  V30 1892 N 201.022 0.148545 -1.56898 0
M  V30 1893 C 202.27 0.859717 -1.82902 0
M  V30 1894 C 202.591 1.81775 -0.70588 0
M  V30 1895 O 201.861 1.93994 0.272586 0
M  V30 1896 H 200.441 0.320469 -0.674766 0
M  V30 1897 H 203.103 0.142918 -1.94375 0
M  V30 1898 H 202.199 1.4229 -2.77777 0
M  V30 1899 N 202.5 1.5196 0.417844 0
M  V30 1900 C 203.41 1.77554 1.53336 0
M  V30 1901 C 204.426 0.660655 1.6097 0
M  V30 1902 O 205.602 0.945099 1.77848 0
M  V30 1903 C 202.667 1.91291 2.89152 0
M  V30 1904 C 201.728 3.15183 2.91475 0
M  V30 1905 C 200.961 3.28256 4.20813 0
M  V30 1906 O 201.184 2.46798 5.14244 0
M  V30 1907 O 200.118 4.21356 4.29817 0
M  V30 1908 H 203.944 2.7222 1.34647 0
M  V30 1909 H 201.529 1.36698 0.602828 0
M  V30 1910 H 203.411 2.02199 3.69721 0
M  V30 1911 H 202.086 0.998129 3.07927 0
M  V30 1912 H 200.993 3.09739 2.09791 0
M  V30 1913 H 202.326 4.06414 2.77648 0
M  V30 1914 N 203.978 -0.674533 1.42435 0
M  V30 1915 C 205.227 -1.43034 1.42212 0
M  V30 1916 C 205.54 -1.95555 0.0420788 0
M  V30 1917 O 206.746 -2.71374 -0.0827558 0
M  V30 1918 C 205.202 -2.58748 2.50155 0
M  V30 1919 C 204.81 -2.12925 3.94166 0
M  V30 1920 C 206.554 -3.36257 2.59098 0
M  V30 1921 C 204.461 -3.25723 4.93618 0
M  V30 1922 H 203.391 -0.537345 0.528939 0
M  V30 1923 H 206.042 -0.73024 1.68344 0
M  V30 1924 H 204.424 -3.31128 2.17188 0
M  V30 1925 H 205.598 -1.47697 4.36488 0
M  V30 1926 H 203.913 -1.48354 3.89076 0
M  V30 1927 H 206.51 -4.20264 3.30578 0
M  V30 1928 H 206.853 -3.82866 1.63461 0
M  V30 1929 H 207.386 -2.70947 2.9126 0
M  V30 1930 H 204.125 -2.84105 5.90732 0
M  V30 1931 H 203.645 -3.89732 4.55926 0
M  V30 1932 H 205.324 -3.91186 5.15347 0
M  V30 1933 N 205.456 -1.28612 -0.910864 0
M  V30 1934 C 206.733 -1.06632 -1.63979 0
M  V30 1935 C 207.113 0.393351 -2.07403 0
M  V30 1936 O 206.461 1.37999 -1.82122 0
M  V30 1937 C 206.671 -2.0436 -2.8291 0
M  V30 1938 C 208.019 -2.34666 -3.5386 0
M  V30 1939 O 209.043 -2.02467 -2.93062 0
M  V30 1940 O 207.902 -2.89631 -4.63439 0
M  V30 1941 H 204.996 -0.407737 -0.7195 0
M  V30 1942 H 207.542 -1.39942 -0.959914 0
M  V30 1943 H 206.314 -3.02727 -2.47936 0
M  V30 1944 H 205.937 -1.71714 -3.58609 0
M  V30 1945 N 206.934 1.1197 -1.10907 0
M  V30 1946 C 208.183 1.82947 -0.849302 0
M  V30 1947 C 208.496 1.85275 0.627112 0
M  V30 1948 O 209.702 2.52296 1.00295 0
M  V30 1949 C 208.158 3.28529 -1.46959 0
M  V30 1950 C 207.766 3.34546 -2.97965 0
M  V30 1951 C 209.51 4.04443 -1.28942 0
M  V30 1952 C 207.417 4.74491 -3.53004 0
M  V30 1953 H 206.347 0.685477 -0.314065 0
M  V30 1954 H 208.998 1.2604 -1.33365 0
M  V30 1955 H 207.38 3.85333 -0.912917 0
M  V30 1956 H 208.554 2.87654 -3.59989 0
M  V30 1957 H 206.869 2.72108 -3.15192 0
M  V30 1958 H 209.466 5.07787 -1.67502 0
M  V30 1959 H 209.809 4.15656 -0.231456 0
M  V30 1960 H 210.342 3.5401 -1.81443 0
M  V30 1961 H 207.081 4.68474 -4.58489 0
M  V30 1962 H 206.601 5.21816 -2.9575 0
M  V30 1963 H 208.28 5.4344 -3.51115 0
M  V30 1964 N 208.412 0.89855 1.29475 0
M  V30 1965 C 209.359 0.373819 2.27753 0
M  V30 1966 C 210.329 -0.543444 1.56958 0
M  V30 1967 O 211.514 -0.468934 1.84948 0
M  V30 1968 C 208.654 -0.393648 3.42848 0
M  V30 1969 C 207.767 0.554379 4.28428 0
M  V30 1970 C 206.902 -0.230026 5.30702 0
M  V30 1971 C 205.941 0.712599 6.07938 0
M  V30 1972 N 205.078 -0.0373283 7.0209 0
M  V30 1973 H 209.918 1.21699 2.72017 0
M  V30 1974 H 207.455 0.611456 1.33789 0
M  V30 1975 H 209.413 -0.85466 4.08352 0
M  V30 1976 H 208.043 -1.20128 2.99615 0
M  V30 1977 H 207.095 1.13391 3.63107 0
M  V30 1978 H 208.407 1.27597 4.82204 0
M  V30 1979 H 207.561 -0.752288 6.02018 0
M  V30 1980 H 206.3 -0.984758 4.77654 0
M  V30 1981 H 205.305 1.24637 5.35486 0
M  V30 1982 H 206.53 1.46664 6.63074 0
M  V30 1983 H 204.476 -0.774348 6.51414 0
M  V30 1984 H 204.393 0.624374 7.53417 0
M  V30 1985 H 205.661 -0.539891 7.77628 0
M  V30 1986 N 209.89 -1.43072 0.660911 0
M  V30 1987 C 211.136 -2.0202 0.177708 0
M  V30 1988 C 211.469 -1.52066 -1.20787 0
M  V30 1989 O 210.744 -0.716987 -1.80802 0
M  V30 1990 C 211.027 -3.59561 0.197019 0
M  V30 1991 C 210.88 -4.19727 1.61706 0
M  V30 1992 C 212.199 -4.37664 -0.462396 0
M  V30 1993 H 209.318 -0.734034 0.0660494 0
M  V30 1994 H 211.96 -1.70272 0.843058 0
M  V30 1995 H 210.11 -3.86739 -0.369527 0
M  V30 1996 H 211.782 -4.03553 2.23479 0
M  V30 1997 H 210.025 -3.76084 2.16201 0
M  V30 1998 H 210.696 -5.28834 1.58237 0
M  V30 1999 H 213.172 -4.16095 0.0197215 0
M  V30 2000 H 212.048 -5.47305 -0.418188 0
M  V30 2001 H 212.309 -4.14493 -1.53778 0
M  V30 2002 N 211.368 -0.403325 -1.52352 0
M  V30 2003 C 212.278 0.432009 -2.30588 0
M  V30 2004 C 213.294 1.05884 -1.38075 0
M  V30 2005 O 214.47 1.06161 -1.71148 0
M  V30 2006 C 211.535 1.53669 -3.10784 0
M  V30 2007 C 210.596 0.933525 -4.19027 0
M  V30 2008 C 209.829 1.98557 -4.9539 0
M  V30 2009 O 210.052 3.20283 -4.71991 0
M  V30 2010 O 208.986 1.59504 -5.80381 0
M  V30 2011 H 212.812 -0.205739 -3.03002 0
M  V30 2012 H 210.397 -0.166675 -1.48467 0
M  V30 2013 H 212.279 2.17814 -3.60742 0
M  V30 2014 H 210.954 2.15915 -2.41169 0
M  V30 2015 H 209.861 0.254954 -3.7323 0
M  V30 2016 H 211.194 0.35508 -4.90918 0
M  V30 2017 N 212.846 1.57033 -0.133567 0
M  V30 2018 C 213.778 2.13176 0.841944 0
M  V30 2019 C 214.791 1.07794 1.22001 0
M  V30 2020 O 215.98 1.35117 1.16643 0
M  V30 2021 C 213.08 2.62847 2.13926 0
M  V30 2022 C 212.253 3.92486 1.93064 0
M  V30 2023 C 211.312 4.27605 3.0666 0
M  V30 2024 O 210.338 4.96168 2.78937 0
M  V30 2025 N 211.54 3.861 4.33483 0
M  V30 2026 H 214.305 2.97503 0.362192 0
M  V30 2027 H 211.866 1.61821 0.05042 0
M  V30 2028 H 213.858 2.83363 2.88942 0
M  V30 2029 H 212.428 1.83319 2.53205 0
M  V30 2030 H 211.648 3.80732 1.02159 0
M  V30 2031 H 212.936 4.77225 1.76447 0
M  V30 2032 H 212.334 3.30828 4.58878 0
M  V30 2033 H 210.891 4.11694 5.05323 0
M  V30 2034 N 214.325 -0.140222 1.56975 0
M  V30 2035 C 215.288 -1.15689 1.97861 0
M  V30 2036 C 216.288 -1.3549 0.865974 0
M  V30 2037 O 217.478 -1.32367 1.13246 0
M  V30 2038 C 214.61 -2.51582 2.30042 0
M  V30 2039 H 215.803 -0.805971 2.88867 0
M  V30 2040 H 213.356 -0.383801 1.51515 0
M  V30 2041 H 214.091 -2.91632 1.41849 0
M  V30 2042 H 213.876 -2.38569 3.11171 0
M  V30 2043 H 215.366 -3.24792 2.62488 0
M  V30 2044 N 215.803 -1.52179 -0.40978 0
M  V30 2045 C 216.713 -1.78364 -1.52392 0
M  V30 2046 C 217.729 -0.669183 -1.60617 0
M  V30 2047 O 218.905 -0.954518 -1.77344 0
M  V30 2048 C 215.97 -1.92822 -2.88133 0
M  V30 2049 C 215.031 -3.16725 -2.898 0
M  V30 2050 C 214.264 -3.30483 -4.19067 0
M  V30 2051 O 214.487 -2.49522 -5.12928 0
M  V30 2052 O 213.421 -4.2363 -4.27576 0
M  V30 2053 H 217.247 -2.72931 -1.33201 0
M  V30 2054 H 214.832 -1.37016 -0.59557 0
M  V30 2055 H 216.714 -2.04157 -3.68643 0
M  V30 2056 H 215.389 -1.01444 -3.07393 0
M  V30 2057 H 214.296 -3.10848 -2.08146 0
M  V30 2058 H 215.629 -4.07881 -2.75489 0
M  V30 2059 N 217.281 0.66697 -1.42791 0
M  V30 2060 C 218.528 1.42699 -1.43678 0
M  V30 2061 C 218.856 1.94419 -0.0560425 0
M  V30 2062 O 218.111 1.7182 0.936831 0
M  V30 2063 C 218.41 2.6349 -2.4147 0
M  V30 2064 C 218.076 2.30267 -3.8767 0
M  V30 2065 C 216.738 2.20918 -4.27491 0
M  V30 2066 C 219.09 2.03435 -4.79858 0
M  V30 2067 C 216.418 1.82873 -5.57471 0
M  V30 2068 C 218.77 1.66892 -6.10188 0
M  V30 2069 C 217.434 1.56058 -6.49001 0
M  V30 2070 H 216.704 0.522171 -0.525755 0
M  V30 2071 H 219.351 0.759785 -1.75783 0
M  V30 2072 H 217.656 3.35279 -2.0272 0
M  V30 2073 H 219.353 3.21684 -2.39417 0
M  V30 2074 H 215.943 2.38449 -3.56146 0
M  V30 2075 H 220.127 2.09586 -4.49875 0
M  V30 2076 H 215.383 1.7306 -5.86396 0
M  V30 2077 H 219.557 1.45157 -6.81104 0
M  V30 2078 H 217.184 1.26348 -7.49627 0
M  V30 2079 N 218.759 1.29093 0.90403 0
M  V30 2080 C 219.984 1.19809 1.69294 0
M  V30 2081 C 220.409 -0.238481 1.86582 0
M  V30 2082 O 219.767 -1.1723 1.383 0
M  V30 2083 C 219.815 1.91202 3.05736 0
M  V30 2084 O 218.919 1.22611 3.93752 0
M  V30 2085 H 218.26 0.415385 0.518027 0
M  V30 2086 H 220.79 1.70586 1.12967 0
M  V30 2087 H 220.8 1.99487 3.55906 0
M  V30 2088 H 219.475 2.95692 2.92471 0
M  V30 2089 H 218.052 1.22554 3.52186 0
M  V30 2090 N 220.237 -1.11381 1.11499 0
M  V30 2091 C 221.514 -1.7955 0.775965 0
M  V30 2092 C 221.894 -1.97859 -0.73588 0
M  V30 2093 O 221.242 -1.56376 -1.66609 0
M  V30 2094 C 221.452 -3.13196 1.53977 0
M  V30 2095 C 222.8 -3.88227 1.71944 0
M  V30 2096 O 223.824 -3.22887 1.50407 0
M  V30 2097 O 222.683 -5.05477 2.07738 0
M  V30 2098 H 219.777 -0.777728 0.28119 0
M  V30 2099 H 222.323 -1.18118 1.21845 0
M  V30 2100 H 221.095 -2.95229 2.56818 0
M  V30 2101 H 220.718 -3.82342 1.09088 0
M  V30 2102 N 221.715 -0.905404 -1.28997 0
M  V30 2103 C 222.645 -0.404212 -2.29975 0
M  V30 2104 C 223.626 0.523784 -1.61835 0
M  V30 2105 O 224.811 0.433298 -1.89304 0
M  V30 2106 C 221.941 0.364042 -3.45387 0
M  V30 2107 C 220.895 -0.474048 -4.25367 0
M  V30 2108 C 220.221 0.422045 -5.33032 0
M  V30 2109 C 221.521 -1.72696 -4.92923 0
M  V30 2110 H 223.215 -1.24807 -2.72146 0
M  V30 2111 H 220.761 -0.601585 -1.30832 0
M  V30 2112 H 222.714 0.725447 -4.15109 0
M  V30 2113 H 221.438 1.24174 -3.02074 0
M  V30 2114 H 220.097 -0.81786 -3.57361 0
M  V30 2115 H 219.745 1.29804 -4.85963 0
M  V30 2116 H 219.445 -0.135057 -5.87445 0
M  V30 2117 H 220.969 0.779517 -6.05604 0
M  V30 2118 H 222.383 -1.43495 -5.55051 0
M  V30 2119 H 220.78 -2.22582 -5.57295 0
M  V30 2120 H 221.85 -2.45964 -4.17887 0
M  V30 2121 N 223.193 1.4272 -0.668489 0
M  V30 2122 C 224.141 2.32586 0.0254857 0
M  V30 2123 C 225.135 1.49471 0.797176 0
M  V30 2124 O 226.341 1.65583 0.705853 0
M  V30 2125 H 222.716 0.751514 0.0270339 0
M  V30 2126 H 224.687 2.88823 -0.749936 0
M  V30 2127 C 223.436 3.3397 0.967427 0
M  V30 2128 H 222.759 3.97961 0.383048 0
M  V30 2129 H 224.199 3.9945 1.42181 0
M  V30 2130 C 222.658 2.65744 2.0708 0
M  V30 2131 O 223.188 2.48454 3.15648 0
M  V30 2132 N 221.394 2.2487 1.8407 0
M  V30 2133 H 220.941 2.39132 0.95778 0
M  V30 2134 H 220.899 1.79552 2.58086 0
M  V30 2135 N 224.671 0.411399 1.52136 0
M  V30 2136 C 225.601 -0.404015 2.29978 0
M  V30 2137 C 226.582 -1.04412 1.34284 0
M  V30 2138 O 227.767 -1.0527 1.63192 0
M  V30 2139 C 224.897 -1.5197 3.12286 0
M  V30 2140 C 223.851 -1.00448 4.16046 0
M  V30 2141 C 223.177 -2.21393 4.86712 0
M  V30 2142 C 224.477 -0.0569336 5.22269 0
M  V30 2143 H 226.171 0.245529 2.98392 0
M  V30 2144 H 223.717 0.119525 1.43503 0
M  V30 2145 H 225.67 -2.09715 3.6551 0
M  V30 2146 H 224.394 -2.19716 2.41646 0
M  V30 2147 H 223.053 -0.449421 3.63835 0
M  V30 2148 H 222.701 -2.87699 4.12599 0
M  V30 2149 H 222.401 -1.87571 5.56858 0
M  V30 2150 H 223.925 -2.7974 5.4275 0
M  V30 2151 H 225.339 -0.54325 5.7072 0
M  V30 2152 H 223.736 0.192594 5.99791 0
M  V30 2153 H 224.806 0.887663 4.76706 0
M  V30 2154 N 226.149 -1.5696 0.141893 0
M  V30 2155 C 227.395 -1.9625 -0.511248 0
M  V30 2156 C 227.728 -1.02654 -1.64851 0
M  V30 2157 O 227.003 -0.0679676 -1.94381 0
M  V30 2158 C 227.286 -3.45285 -1.02227 0
M  V30 2159 C 227.139 -4.49658 0.113138 0
M  V30 2160 C 228.458 -3.96698 -1.90574 0
M  V30 2161 H 225.577 -0.713567 -0.184367 0
M  V30 2162 H 228.219 -1.88698 0.222087 0
M  V30 2163 H 226.369 -3.51852 -1.64719 0
M  V30 2164 H 228.041 -4.55174 0.749302 0
M  V30 2165 H 226.284 -4.26857 0.773026 0
M  V30 2166 H 226.955 -5.51258 -0.286053 0
M  V30 2167 H 229.431 -3.92578 -1.37918 0
M  V30 2168 H 228.307 -5.01453 -2.2324 0
M  V30 2169 H 228.568 -3.3875 -2.84079 0
M  V30 2170 N 227.627 0.131896 -1.57047 0
M  V30 2171 C 228.59 1.14638 -1.98471 0
M  V30 2172 C 229.59 1.35029 -0.873148 0
M  V30 2173 O 230.78 1.31764 -1.13946 0
M  V30 2174 C 227.912 2.50358 -2.31373 0
M  V30 2175 H 229.105 0.79064 -2.8929 0
M  V30 2176 H 226.658 0.375761 -1.51716 0
M  V30 2177 H 227.393 2.90876 -1.43393 0
M  V30 2178 H 227.178 2.36915 -3.12432 0
M  V30 2179 H 228.668 3.23395 -2.64207 0
M  V30 2180 N 229.106 1.52395 0.401703 0
M  V30 2181 C 230.056 1.72649 1.48917 0
M  V30 2182 C 231.04 0.580436 1.50066 0
M  V30 2183 O 232.232 0.83779 1.55917 0
M  V30 2184 C 229.361 1.88729 2.86769 0
M  V30 2185 C 228.447 3.09228 2.90239 0
M  V30 2186 N 228.838 4.31805 2.63396 0
M  V30 2187 C 227.136 3.09214 3.21408 0
M  V30 2188 C 227.837 5.13326 2.73625 0
M  V30 2189 N 226.813 4.48735 3.06819 0
M  V30 2190 H 230.615 2.65058 1.26971 0
M  V30 2191 H 228.129 1.50528 0.609504 0
M  V30 2192 H 230.126 2.01358 3.65049 0
M  V30 2193 H 228.786 0.975252 3.09708 0
M  V30 2194 H 229.797 4.60154 2.37653 0
M  V30 2195 H 226.474 2.27774 3.49893 0
M  V30 2196 H 227.864 6.21003 2.56524 0
M  V30 2197 N 230.584 -0.659388 1.43143 0
M  V30 2198 C 231.547 -1.75432 1.47501 0
M  V30 2199 C 232.547 -1.56707 0.360512 0
M  V30 2200 O 233.737 -1.62717 0.622002 0
M  V30 2201 C 230.869 -3.14239 1.32162 0
M  V30 2202 H 232.062 -1.7295 2.45006 0
M  V30 2203 H 229.615 -0.870469 1.29817 0
M  V30 2204 H 230.35 -3.22336 0.356401 0
M  V30 2205 H 230.135 -3.29235 2.12948 0
M  V30 2206 H 231.625 -3.94094 1.3813 0
M  V30 2207 N 232.062 -1.29571 -0.897171 0
M  V30 2208 C 233.01 -1.14802 -2.02295 0
M  V30 2209 C 234.004 -0.0629637 -1.69283 0
M  V30 2210 O 235.21 -0.222945 -1.78614 0
M  V30 2211 H 231.585 -0.354692 -0.663097 0
M  V30 2212 H 233.556 -2.10108 -2.11889 0
M  V30 2213 C 232.305 -0.843966 -3.37302 0
M  V30 2214 H 231.628 -1.67093 -3.63208 0
M  V30 2215 H 233.068 -0.780672 -4.16751 0
M  V30 2216 C 231.527 0.452843 -3.33843 0
M  V30 2217 O 232.057 1.47813 -3.73516 0
M  V30 2218 N 230.263 0.459601 -2.86943 0
M  V30 2219 H 229.81 -0.375213 -2.54853 0
M  V30 2220 H 229.768 1.32726 -2.85011 0
M  V30 2221 N 233.54 1.10788 -1.12088 0
M  V30 2222 C 234.788 1.8231 -0.872205 0
M  V30 2223 C 235.109 1.85419 0.603709 0
M  V30 2224 O 234.379 1.32963 1.43867 0
M  V30 2225 H 232.959 0.675137 -0.319686 0
M  V30 2226 H 235.621 1.34068 -1.41463 0
M  V30 2227 H 234.717 2.85955 -1.25045 0
M  V30 2228 N 235.018 0.912232 1.28515 0
M  V30 2229 C 236.266 0.543523 1.94654 0
M  V30 2230 C 236.587 -0.9155 1.72173 0
M  V30 2231 O 235.857 -1.64708 1.06058 0
M  V30 2232 H 234.437 0.198017 0.720277 0
M  V30 2233 H 237.099 1.16126 1.56527 0
M  V30 2234 H 236.195 0.736684 3.03281 0
M  V30 2235 N 236.496 -1.42363 0.676048 0
M  V30 2236 C 237.743 -2.01522 0.19883 0
M  V30 2237 C 238.071 -1.53456 -1.19505 0
M  V30 2238 O 237.326 -0.727967 -1.81657 0
M  V30 2239 C 237.625 -3.56929 0.183431 0
M  V30 2240 C 237.291 -4.24431 1.52215 0
M  V30 2241 C 235.953 -4.42585 1.8887 0
M  V30 2242 C 238.305 -4.62459 2.40377 0
M  V30 2243 C 235.633 -4.96039 3.13309 0
M  V30 2244 C 237.985 -5.17294 3.64129 0
M  V30 2245 C 236.649 -5.33661 4.00951 0
M  V30 2246 H 235.919 -0.737419 0.0727571 0
M  V30 2247 H 238.566 -1.70531 0.871281 0
M  V30 2248 H 236.871 -3.87594 -0.572532 0
M  V30 2249 H 238.568 -4.00486 -0.203035 0
M  V30 2250 H 235.158 -4.10661 1.22701 0
M  V30 2251 H 239.342 -4.48105 2.13343 0
M  V30 2252 H 234.598 -5.06896 3.41857 0
M  V30 2253 H 238.772 -5.45704 4.32644 0
M  V30 2254 H 236.399 -5.74845 4.9745 0
M  V30 2255 N 237.974 -0.419461 -1.51915 0
M  V30 2256 C 239.199 0.154572 -2.06823 0
M  V30 2257 C 239.624 1.3722 -1.28656 0
M  V30 2258 O 238.982 1.78461 -0.319583 0
M  V30 2259 C 239.03 0.473172 -3.57482 0
M  V30 2260 O 238.134 1.56255 -3.81652 0
M  V30 2261 H 237.475 0.0096924 -0.663929 0
M  V30 2262 H 240.005 -0.595642 -1.95738 0
M  V30 2263 H 240.015 0.728825 -4.01438 0
M  V30 2264 H 238.69 -0.416873 -4.13805 0
M  V30 2265 H 237.267 1.29825 -3.49571 0
M  V30 2266 N 239.452 1.56882 -0.150215 0
M  V30 2267 C 240.698 1.96518 0.500834 0
M  V30 2268 C 241.031 1.03527 1.64304 0
M  V30 2269 O 240.306 0.0782751 1.94342 0
M  V30 2270 C 240.589 3.45822 1.00395 0
M  V30 2271 C 240.442 4.49591 -0.136983 0
M  V30 2272 C 241.761 3.97704 1.88467 0
M  V30 2273 H 238.88 0.714535 0.18058 0
M  V30 2274 H 241.522 1.88577 -0.232091 0
M  V30 2275 H 239.672 3.5272 1.62851 0
M  V30 2276 H 241.344 4.5477 -0.77343 0
M  V30 2277 H 239.587 4.26441 -0.795652 0
M  V30 2278 H 240.258 5.51402 0.256815 0
M  V30 2279 H 242.734 3.93304 1.35834 0
M  V30 2280 H 241.61 5.0263 2.20578 0
M  V30 2281 H 241.871 3.40252 2.82279 0
M  V30 2282 N 240.93 -0.123565 1.57115 0
M  V30 2283 C 242.207 -0.862196 1.75572 0
M  V30 2284 C 242.587 -1.98279 0.724475 0
M  V30 2285 O 241.935 -2.27102 -0.252407 0
M  V30 2286 C 242.145 -1.38309 3.20424 0
M  V30 2287 C 243.493 -1.83724 3.82793 0
M  V30 2288 O 244.517 -1.47999 3.23998 0
M  V30 2289 O 243.376 -2.49685 4.86127 0
M  V30 2290 H 240.47 -0.409113 0.718718 0
M  V30 2291 H 243.016 -0.107661 1.69358 0
M  V30 2292 H 241.788 -0.578889 3.86994 0
M  V30 2293 H 241.411 -2.20046 3.31158 0
M  V30 2294 N 242.408 -1.52605 -0.393616 0
M  V30 2295 C 243.341 -1.71798 -1.50202 0
M  V30 2296 C 244.319 -0.565743 -1.52441 0
M  V30 2297 O 245.503 -0.794987 -1.70916 0
M  V30 2298 C 242.63 -1.7714 -2.88685 0
M  V30 2299 C 241.676 -2.98845 -3.04292 0
M  V30 2300 S 242.509 -4.58909 -2.75976 0
M  V30 2301 C 243.665 -4.6706 -4.1666 0
M  V30 2302 H 243.898 -2.65542 -1.33696 0
M  V30 2303 H 241.431 -1.42839 -0.586195 0
M  V30 2304 H 243.389 -1.80903 -3.68489 0
M  V30 2305 H 242.05 -0.844969 -3.02521 0
M  V30 2306 H 241.243 -2.99111 -4.05646 0
M  V30 2307 H 240.845 -2.9305 -2.32374 0
M  V30 2308 H 243.137 -4.45391 -5.10523 0
M  V30 2309 H 244.08 -5.6905 -4.21412 0
M  V30 2310 H 244.488 -3.95944 -4.02354 0
M  V30 2311 N 243.887 0.651787 -1.4349 0
M  V30 2312 C 244.797 1.79368 -1.5121 0
M  V30 2313 C 245.813 1.69361 -0.399093 0
M  V30 2314 O 246.989 1.90505 -0.653431 0
M  V30 2315 C 244.054 3.15653 -1.43401 0
M  V30 2316 C 243.115 3.37446 -2.65384 0
M  V30 2317 C 242.348 4.67229 -2.57939 0
M  V30 2318 O 242.571 5.46676 -1.62792 0
M  V30 2319 O 241.505 4.90773 -3.48462 0
M  V30 2320 H 245.331 1.7581 -2.47638 0
M  V30 2321 H 242.916 0.810447 -1.25507 0
M  V30 2322 H 244.798 3.96935 -1.41494 0
M  V30 2323 H 243.473 3.19798 -0.501085 0
M  V30 2324 H 242.38 2.55923 -2.72863 0
M  V30 2325 H 243.713 3.38148 -3.57654 0
M  V30 2326 N 245.365 1.30045 0.890287 0
M  V30 2327 C 246.611 1.18737 1.64406 0
M  V30 2328 C 246.944 -0.258525 1.92472 0
M  V30 2329 O 246.219 -1.18562 1.54186 0
M  V30 2330 C 246.502 2.01087 2.98724 0
M  V30 2331 C 246.355 3.53867 2.77665 0
M  V30 2332 C 247.674 1.84457 3.9958 0
M  V30 2333 H 244.793 0.432698 0.596608 0
M  V30 2334 H 247.435 1.5962 1.0306 0
M  V30 2335 H 245.585 1.66349 3.51084 0
M  V30 2336 H 247.257 3.98637 2.32133 0
M  V30 2337 H 245.5 3.78318 2.12269 0
M  V30 2338 H 246.171 4.06772 3.7315 0
M  V30 2339 H 248.647 2.14817 3.56361 0
M  V30 2340 H 247.523 2.44411 4.91482 0
M  V30 2341 H 247.784 0.802276 4.3476 0
M  V30 2342 N 246.843 -1.10192 1.12674 0
M  V30 2343 C 247.773 -2.18652 0.819362 0
M  V30 2344 C 248.754 -1.68698 -0.217915 0
M  V30 2345 O 249.939 -1.94041 -0.0785581 0
M  V30 2346 C 247.069 -3.46202 0.27594 0
M  V30 2347 C 246.023 -4.09444 1.24656 0
M  V30 2348 C 245.349 -5.31725 0.563258 0
M  V30 2349 C 246.649 -4.52863 2.60217 0
M  V30 2350 H 248.343 -2.44622 1.72628 0
M  V30 2351 H 245.889 -1.17571 0.831451 0
M  V30 2352 H 247.842 -4.21372 0.0486149 0
M  V30 2353 H 246.566 -3.1973 -0.666331 0
M  V30 2354 H 245.225 -3.36284 1.45974 0
M  V30 2355 H 244.873 -5.0153 -0.384235 0
M  V30 2356 H 244.573 -5.74991 1.21075 0
M  V30 2357 H 246.097 -6.09624 0.34503 0
M  V30 2358 H 247.511 -5.19294 2.42913 0
M  V30 2359 H 245.908 -5.06986 3.21068 0
M  V30 2360 H 246.978 -3.65656 3.18471 0
M  V30 2361 N 248.321 -0.919034 -1.28029 0
M  V30 2362 C 249.737 -0.617972 -1.4715 0
M  V30 2363 C 249.937 0.835242 -1.83374 0
M  V30 2364 O 248.993 1.61388 -1.94191 0
M  V30 2365 C 250.306 -1.56041 -2.57044 0
M  V30 2366 C 251.854 -1.56769 -2.7091 0
M  V30 2367 C 252.329 -2.49688 -3.83953 0
M  V30 2368 N 253.82 -2.47845 -3.91314 0
M  V30 2369 C 254.555 -3.16437 -4.78179 0
M  V30 2370 N 254.051 -3.94376 -5.69596 0
M  V30 2371 N 255.844 -3.05498 -4.71834 0
M  V30 2372 H 247.995 -1.85866 -1.02798 0
M  V30 2373 H 250.258 -0.797506 -0.512531 0
M  V30 2374 H 249.964 -2.59671 -2.372 0
M  V30 2375 H 249.838 -1.29551 -3.54255 0
M  V30 2376 H 252.225 -0.538745 -2.90141 0
M  V30 2377 H 252.306 -1.87305 -1.74214 0
M  V30 2378 H 251.95 -3.52688 -3.65477 0
M  V30 2379 H 251.88 -2.16453 -4.80058 0
M  V30 2380 H 254.371 -1.91234 -3.25941 0
M  V30 2381 H 254.684 -4.43721 -6.32718 0
M  V30 2382 H 253.029 -3.98481 -5.69419 0
M  V30 2383 H 256.22 -2.44108 -3.99411 0
M  V30 2384 H 256.393 -3.59225 -5.39316 0
M  V30 2385 N 249.799 1.42003 -0.683588 0
M  V30 2386 C 250.747 2.326 0.000815408 0
M  V30 2387 C 251.741 1.50308 0.781278 0
M  V30 2388 O 252.947 1.66322 0.688251 0
M  V30 2389 H 249.322 0.751758 0.0190616 0
M  V30 2390 H 251.293 2.88011 -0.780528 0
M  V30 2391 C 250.042 3.34978 0.93195 0
M  V30 2392 H 249.365 3.98345 0.340817 0
M  V30 2393 H 250.805 4.00936 1.37936 0
M  V30 2394 C 249.264 2.67925 2.04249 0
M  V30 2395 O 249.794 2.51788 3.12995 0
M  V30 2396 N 248 2.2681 1.81675 0
M  V30 2397 H 247.547 2.40135 0.932363 0
M  V30 2398 H 247.505 1.8228 2.56167 0
M  V30 2399 N 251.277 0.427512 1.51691 0
M  V30 2400 C 252.525 -0.141948 2.01601 0
M  V30 2401 C 252.846 -1.44067 1.31414 0
M  V30 2402 O 252.116 -1.90763 0.445658 0
M  V30 2403 H 250.696 -0.0554468 0.744939 0
M  V30 2404 H 253.358 0.567968 1.86441 0
M  V30 2405 H 252.454 -0.324913 3.10404 0
M  V30 2406 N 252.755 -1.56801 0.158532 0
M  V30 2407 C 254.001 -1.96781 -0.490405 0
M  V30 2408 C 254.334 -1.04397 -1.63753 0
M  V30 2409 O 253.609 -0.0885805 -1.94298 0
M  V30 2410 C 253.892 -3.4635 -0.985594 0
M  V30 2411 C 253.745 -4.49512 0.160824 0
M  V30 2412 C 255.064 -3.98697 -1.86355 0
M  V30 2413 H 252.183 -0.715482 -0.176788 0
M  V30 2414 H 254.825 -1.88451 0.242088 0
M  V30 2415 H 252.975 -3.53579 -1.60978 0
M  V30 2416 H 254.647 -4.54353 0.797537 0
M  V30 2417 H 252.89 -4.26013 0.818256 0
M  V30 2418 H 253.561 -5.51531 -0.227569 0
M  V30 2419 H 256.037 -3.94019 -1.33746 0
M  V30 2420 H 254.913 -5.03792 -2.17909 0
M  V30 2421 H 255.174 -3.41744 -2.8047 0
M  V30 2422 N 254.233 0.115231 -1.57178 0
M  V30 2423 C 255.18 1.14115 -2.00615 0
M  V30 2424 C 256.15 1.40939 -0.878941 0
M  V30 2425 O 257.335 1.52741 -1.14345 0
M  V30 2426 C 254.475 2.46156 -2.4187 0
M  V30 2427 C 253.588 2.26236 -3.68024 0
M  V30 2428 C 252.723 3.51534 -3.98243 0
M  V30 2429 C 251.762 3.26787 -5.17568 0
M  V30 2430 N 250.899 4.44298 -5.43639 0
M  V30 2431 H 255.739 0.763743 -2.88047 0
M  V30 2432 H 253.276 0.365615 -1.42484 0
M  V30 2433 H 255.234 3.23189 -2.63827 0
M  V30 2434 H 253.864 2.81783 -1.57475 0
M  V30 2435 H 252.916 1.40102 -3.5366 0
M  V30 2436 H 254.228 2.03929 -4.55208 0
M  V30 2437 H 253.382 4.36984 -4.20868 0
M  V30 2438 H 252.121 3.76876 -3.09541 0
M  V30 2439 H 251.126 2.39729 -4.94783 0
M  V30 2440 H 252.351 3.02812 -6.0785 0
M  V30 2441 H 250.297 4.69754 -4.57895 0
M  V30 2442 H 250.214 4.25109 -6.25154 0
M  V30 2443 H 251.482 5.3087 -5.70786 0
M  V30 2444 N 255.711 1.52812 0.385517 0
M  V30 2445 C 256.957 1.68275 1.13188 0
M  V30 2446 C 257.29 0.423179 1.89533 0
M  V30 2447 O 256.565 -0.579113 1.85679 0
M  V30 2448 C 256.848 2.92001 2.1073 0
M  V30 2449 C 256.701 4.28067 1.38125 0
M  V30 2450 C 258.02 3.11283 3.11113 0
M  V30 2451 H 255.139 0.612352 0.410115 0
M  V30 2452 H 257.781 1.85415 0.414869 0
M  V30 2453 H 255.931 2.77519 2.71874 0
M  V30 2454 H 257.603 4.54324 0.799187 0
M  V30 2455 H 255.846 4.28388 0.683092 0
M  V30 2456 H 256.517 5.10733 2.09417 0
M  V30 2457 H 258.993 3.2482 2.6006 0
M  V30 2458 H 257.869 3.99325 3.76605 0
M  V30 2459 H 258.13 2.25656 3.80173 0
M  V30 2460 N 257.189 -0.644168 1.43834 0
M  V30 2461 C 258.435 -1.40603 1.46146 0
M  V30 2462 C 258.768 -1.93997 0.0887717 0
M  V30 2463 O 258.043 -1.72854 -0.891724 0
M  V30 2464 C 258.326 -2.58086 2.51124 0
M  V30 2465 C 258.179 -2.10126 3.97702 0
M  V30 2466 C 259.498 -3.60291 2.52742 0
M  V30 2467 H 256.617 -0.509905 0.532134 0
M  V30 2468 H 259.259 -0.729502 1.75437 0
M  V30 2469 H 257.409 -3.15801 2.26278 0
M  V30 2470 H 259.081 -1.57342 4.33637 0
M  V30 2471 H 257.324 -1.41419 4.10101 0
M  V30 2472 H 257.995 -2.94649 4.66783 0
M  V30 2473 H 260.471 -3.12352 2.7491 0
M  V30 2474 H 259.347 -4.40032 3.28121 0
M  V30 2475 H 259.608 -4.1349 1.56455 0
M  V30 2476 N 258.668 -1.30515 -0.883378 0
M  V30 2477 C 260.084 -1.08881 -1.16692 0
M  V30 2478 C 260.284 0.149409 -2.00945 0
M  V30 2479 O 259.34 0.84257 -2.38027 0
M  V30 2480 C 260.653 -2.35319 -1.87204 0
M  V30 2481 C 262.201 -2.40799 -1.99962 0
M  V30 2482 C 262.676 -3.67083 -2.73887 0
M  V30 2483 N 264.167 -3.679 -2.81432 0
M  V30 2484 C 264.902 -4.62303 -3.3921 0
M  V30 2485 N 264.398 -5.67052 -3.98025 0
M  V30 2486 N 266.191 -4.49845 -3.3704 0
M  V30 2487 H 258.342 -2.09951 -0.321633 0
M  V30 2488 H 260.605 -0.92556 -0.205043 0
M  V30 2489 H 260.311 -3.25689 -1.3274 0
M  V30 2490 H 260.185 -2.44089 -2.87577 0
M  V30 2491 H 262.572 -1.50907 -2.53597 0
M  V30 2492 H 262.653 -2.36003 -0.98673 0
M  V30 2493 H 262.297 -4.57334 -2.20925 0
M  V30 2494 H 262.227 -3.69141 -3.75556 0
M  V30 2495 H 264.718 -2.92171 -2.39676 0
M  V30 2496 H 265.031 -6.35184 -4.40183 0
M  V30 2497 H 263.376 -5.70842 -3.96439 0
M  V30 2498 H 266.567 -3.67194 -2.90321 0
M  V30 2499 H 266.74 -5.23597 -3.81772 0
M  V30 2500 N 260.146 1.09593 -1.13257 0
M  V30 2501 C 261.371 1.8604 -0.916732 0
M  V30 2502 C 261.796 1.80504 0.529146 0
M  V30 2503 O 261.154 1.18127 1.37534 0
M  V30 2504 C 261.202 3.32017 -1.40703 0
M  V30 2505 O 260.306 4.08141 -0.591153 0
M  V30 2506 H 259.647 0.576943 -0.328683 0
M  V30 2507 H 262.177 1.38405 -1.50682 0
M  V30 2508 H 262.187 3.82865 -1.4099 0
M  V30 2509 H 260.862 3.35361 -2.45979 0
M  V30 2510 H 259.439 3.67084 -0.656005 0
M  V30 2511 N 261.624 0.925811 1.2754 0
M  V30 2512 C 262.554 0.440748 2.29303 0
M  V30 2513 C 263.535 -0.497971 1.62648 0
M  V30 2514 O 264.72 -0.403126 1.8997 0
M  V30 2515 C 261.85 -0.309048 3.45922 0
M  V30 2516 C 260.804 0.54166 4.24559 0
M  V30 2517 C 260.13 -0.337191 5.33636 0
M  V30 2518 C 261.43 1.80516 4.90114 0
M  V30 2519 H 263.124 1.29121 2.70126 0
M  V30 2520 H 260.67 0.622323 1.29858 0
M  V30 2521 H 262.623 -0.659315 4.1621 0
M  V30 2522 H 261.347 -1.19352 3.04011 0
M  V30 2523 H 260.006 0.874609 3.56014 0
M  V30 2524 H 259.654 -1.22056 4.87966 0
M  V30 2525 H 259.354 0.228497 5.87156 0
M  V30 2526 H 260.878 -0.683072 6.06767 0
M  V30 2527 H 262.292 1.52307 5.52698 0
M  V30 2528 H 260.689 2.3142 5.53683 0
M  V30 2529 H 261.759 2.52581 4.13921 0
M  V30 2530 N 263.102 -1.41638 0.69111 0
M  V30 2531 C 264.049 -2.30789 0.0229705 0
M  V30 2532 C 265.019 -1.46863 -0.775911 0
M  V30 2533 O 266.204 -1.75661 -0.74485 0
M  V30 2534 C 263.344 -3.32868 -0.910666 0
M  V30 2535 C 262.457 -4.31875 -0.103874 0
M  V30 2536 C 261.592 -5.21024 -1.03475 0
M  V30 2537 C 260.631 -6.11702 -0.220598 0
M  V30 2538 N 259.768 -6.93349 -1.10504 0
M  V30 2539 H 264.608 -2.87366 0.788978 0
M  V30 2540 H 262.145 -1.41535 0.400794 0
M  V30 2541 H 264.103 -3.90596 -1.46597 0
M  V30 2542 H 262.733 -2.77851 -1.64312 0
M  V30 2543 H 261.785 -3.76131 0.568285 0
M  V30 2544 H 263.097 -4.96003 0.527504 0
M  V30 2545 H 262.251 -5.83565 -1.65943 0
M  V30 2546 H 260.99 -4.57112 -1.69999 0
M  V30 2547 H 259.995 -5.48215 0.417187 0
M  V30 2548 H 261.22 -6.77668 0.440784 0
M  V30 2549 H 259.166 -6.3205 -1.75638 0
M  V30 2550 H 259.083 -7.54146 -0.529125 0
M  V30 2551 H 260.351 -7.60362 -1.71667 0
M  V30 2552 N 264.58 -0.43555 -1.51462 0
M  V30 2553 C 265.991 0.0279871 -1.86679 0
M  V30 2554 C 266.342 1.42104 -1.35281 0
M  V30 2555 O 265.467 2.04667 -0.702878 0
M  V30 2556 C 266.062 0.0575626 -3.38751 0
M  V30 2557 C 264.621 0.465507 -3.7351 0
M  V30 2558 C 263.768 -0.342996 -2.75171 0
M  V30 2559 H 266.719 -0.651473 -1.44712 0
M  V30 2560 H 266.74 0.867421 -3.70481 0
M  V30 2561 H 266.252 -0.956448 -3.7613 0
M  V30 2562 H 264.353 1.48519 -3.41721 0
M  V30 2563 H 264.466 0.191546 -4.78717 0
M  V30 2564 H 262.83 0.198442 -2.53926 0
M  V30 2565 H 263.613 -1.35585 -3.15391 0
M  V30 2566 N 266.058 1.56714 -0.166846 0
M  V30 2567 C 267.335 1.88412 0.525373 0
M  V30 2568 C 267.715 1.07602 1.81618 0
M  V30 2569 O 267.063 0.168621 2.27877 0
M  V30 2570 C 267.273 3.40363 0.771613 0
M  V30 2571 C 268.621 4.10007 1.1036 0
M  V30 2572 O 269.645 3.45655 0.860304 0
M  V30 2573 O 268.504 5.2369 1.56239 0
M  V30 2574 H 265.598 0.781587 0.270278 0
M  V30 2575 H 268.144 1.68458 -0.204946 0
M  V30 2576 H 266.916 3.91046 -0.141093 0
M  V30 2577 H 266.539 3.65914 1.55541 0
M  V30 2578 N 267.536 -0.106894 1.57237 0
M  V30 2579 C 268.783 -0.812526 1.85484 0
M  V30 2580 C 269.111 -1.79304 0.753687 0
M  V30 2581 O 268.366 -1.94047 -0.253853 0
M  V30 2582 C 268.665 -1.58628 3.20268 0
M  V30 2583 C 268.331 -0.748967 4.44636 0
M  V30 2584 C 266.993 -0.518104 4.78403 0
M  V30 2585 C 269.345 -0.166122 5.20935 0
M  V30 2586 C 266.673 0.305659 5.85903 0
M  V30 2587 C 269.025 0.644899 6.29304 0
M  V30 2588 C 267.689 0.885965 6.61594 0
M  V30 2589 H 266.959 -0.297324 0.678734 0
M  V30 2590 H 269.606 -0.0744332 1.91355 0
M  V30 2591 H 267.911 -2.39562 3.10028 0
M  V30 2592 H 269.608 -2.13643 3.39349 0
M  V30 2593 H 266.198 -0.939006 4.18187 0
M  V30 2594 H 270.382 -0.33167 4.95191 0
M  V30 2595 H 265.638 0.501528 6.0934 0
M  V30 2596 H 269.812 1.10345 6.87602 0
M  V30 2597 H 267.439 1.52609 7.44725 0
M  V30 2598 N 269.014 -1.53014 -0.377408 0
M  V30 2599 C 270.26 -1.68872 -1.12294 0
M  V30 2600 C 270.593 -0.433224 -1.89306 0
M  V30 2601 O 269.868 0.569258 -1.85983 0
M  V30 2602 C 270.151 -2.93115 -2.09179 0
M  V30 2603 C 270.004 -4.28794 -1.35853 0
M  V30 2604 C 271.323 -3.12928 -3.09458 0
M  V30 2605 H 268.442 -0.614518 -0.406862 0
M  V30 2606 H 271.084 -1.85633 -0.40503 0
M  V30 2607 H 269.234 -2.78956 -2.70399 0
M  V30 2608 H 270.906 -4.54742 -0.775082 0
M  V30 2609 H 269.149 -4.28744 -0.660364 0
M  V30 2610 H 269.82 -5.11837 -2.06706 0
M  V30 2611 H 272.296 -3.26194 -2.58334 0
M  V30 2612 H 271.172 -4.01316 -3.74482 0
M  V30 2613 H 271.433 -2.27669 -3.78971 0
M  V30 2614 N 270.492 0.636531 -1.44174 0
M  V30 2615 C 271.422 1.76003 -1.53444 0
M  V30 2616 C 272.403 1.65619 -0.387841 0
M  V30 2617 O 273.588 1.84461 -0.607257 0
M  V30 2618 C 270.718 3.14511 -1.4731 0
M  V30 2619 C 269.672 3.39677 -2.60391 0
M  V30 2620 C 268.998 4.78159 -2.39308 0
M  V30 2621 C 270.298 3.32772 -4.02567 0
M  V30 2622 H 271.992 1.68501 -2.47483 0
M  V30 2623 H 269.538 0.809237 -1.19111 0
M  V30 2624 H 271.491 3.92878 -1.52397 0
M  V30 2625 H 270.215 3.22783 -0.49785 0
M  V30 2626 H 268.874 2.63688 -2.54684 0
M  V30 2627 H 268.522 4.83128 -1.39988 0
M  V30 2628 H 268.222 4.95956 -3.15122 0
M  V30 2629 H 269.746 5.58762 -2.46205 0
M  V30 2630 H 271.16 4.01051 -4.09672 0
M  V30 2631 H 269.557 3.62104 -4.7854 0
M  V30 2632 H 270.627 2.30669 -4.2652 0
M  V30 2633 N 271.97 1.30982 0.876444 0
M  V30 2634 C 273.219 1.19658 1.62373 0
M  V30 2635 C 273.532 -0.245636 1.94052 0
M  V30 2636 O 274.738 -0.48049 2.67214 0
M  V30 2637 C 273.194 2.09433 2.92687 0
M  V30 2638 C 272.802 3.58613 2.68516 0
M  V30 2639 C 274.546 2.06893 3.70669 0
M  V30 2640 C 272.453 4.40416 3.94699 0
M  V30 2641 H 271.383 0.444268 0.609214 0
M  V30 2642 H 274.034 1.55791 0.969605 0
M  V30 2643 H 272.416 1.66191 3.59439 0
M  V30 2644 H 273.59 4.10058 2.10212 0
M  V30 2645 H 271.905 3.63063 2.03898 0
M  V30 2646 H 274.502 2.65258 4.64265 0
M  V30 2647 H 274.845 1.05448 4.02724 0
M  V30 2648 H 275.378 2.48301 3.10792 0
M  V30 2649 H 272.117 5.42591 3.67798 0
M  V30 2650 H 271.637 3.93731 4.52477 0
M  V30 2651 H 273.316 4.52294 4.62644 0
M  V30 2652 N 273.449 -1.08991 1.13837 0
M  V30 2653 C 274.865 -1.33312 0.877506 0
M  V30 2654 C 275.065 -1.95587 -0.48456 0
M  V30 2655 O 274.121 -2.20509 -1.23013 0
M  V30 2656 C 275.434 -2.24045 2.0056 0
M  V30 2657 C 276.982 -2.37542 2.03821 0
M  V30 2658 C 277.457 -3.31614 3.15905 0
M  V30 2659 N 278.948 -3.39189 3.15445 0
M  V30 2660 C 279.683 -4.11992 3.98811 0
M  V30 2661 N 279.179 -4.87553 4.92203 0
M  V30 2662 N 280.972 -4.07762 3.86894 0
M  V30 2663 H 273.123 -0.669456 2.01574 0
M  V30 2664 H 275.386 -0.357482 0.878015 0
M  V30 2665 H 275.092 -1.85521 2.98789 0
M  V30 2666 H 274.966 -3.24466 1.92359 0
M  V30 2667 H 277.353 -2.75327 1.06202 0
M  V30 2668 H 277.434 -1.36884 2.16093 0
M  V30 2669 H 277.078 -2.94551 4.13766 0
M  V30 2670 H 277.008 -4.32186 3.0087 0
M  V30 2671 H 279.499 -2.85314 2.47799 0
M  V30 2672 H 279.812 -5.40549 5.52292 0
M  V30 2673 H 278.157 -4.86627 4.96205 0
M  V30 2674 H 281.348 -3.47833 3.13257 0
M  V30 2675 H 281.521 -4.64238 4.52092 0
M  V30 2676 N 274.927 -0.932562 -1.27047 0
M  V30 2677 C 275.859 -0.392734 -2.2581 0
M  V30 2678 C 276.872 0.479241 -1.55586 0
M  V30 2679 O 278.061 0.291078 -1.76111 0
M  V30 2680 C 275.161 0.455456 -3.35826 0
M  V30 2681 C 274.334 -0.398355 -4.35582 0
M  V30 2682 C 273.393 0.387985 -5.24768 0
M  V30 2683 O 272.419 -0.206003 -5.68827 0
M  V30 2684 N 273.621 1.68664 -5.55457 0
M  V30 2685 H 276.386 -1.24173 -2.72766 0
M  V30 2686 H 273.947 -0.800511 -1.40725 0
M  V30 2687 H 275.939 0.988692 -3.92437 0
M  V30 2688 H 274.509 1.20522 -2.88432 0
M  V30 2689 H 273.729 -1.11286 -3.78165 0
M  V30 2690 H 275.017 -0.981889 -4.99236 0
M  V30 2691 H 274.415 2.19147 -5.21528 0
M  V30 2692 H 272.972 2.1663 -6.14748 0
M  V30 2693 N 276.405 1.4127 -0.698611 0
M  V30 2694 C 277.355 2.27997 -0.0119836 0
M  V30 2695 C 278.339 1.42363 0.749765 0
M  V30 2696 O 279.531 1.65607 0.624758 0
M  V30 2697 C 276.66 3.30702 0.921458 0
M  V30 2698 C 275.746 4.23814 0.155796 0
M  V30 2699 N 276.137 4.98572 -0.852015 0
M  V30 2700 C 274.435 4.44284 0.390836 0
M  V30 2701 C 275.136 5.66744 -1.3106 0
M  V30 2702 N 274.112 5.39867 -0.635944 0
M  V30 2703 H 277.914 2.83232 -0.784649 0
M  V30 2704 H 275.428 1.53518 -0.529711 0
M  V30 2705 H 277.425 3.91661 1.42854 0
M  V30 2706 H 276.085 2.77028 1.69369 0
M  V30 2707 H 277.096 5.03024 -1.23235 0
M  V30 2708 H 273.773 4.01614 1.14071 0
M  V30 2709 H 275.163 6.36672 -2.14707 0
M  V30 2710 N 277.883 0.443576 1.51229 0
M  V30 2711 C 278.846 -0.353132 2.26463 0
M  V30 2712 C 279.846 -0.944338 1.3015 0
M  V30 2713 O 281.036 -0.817813 1.5381 0
M  V30 2714 C 278.168 -1.50023 3.06114 0
M  V30 2715 H 279.361 0.3063 2.98332 0
M  V30 2716 H 276.914 0.196902 1.55055 0
M  V30 2717 H 277.649 -2.19553 2.38677 0
M  V30 2718 H 277.434 -1.08241 3.76864 0
M  V30 2719 H 278.924 -2.06296 3.63087 0
M  V30 2720 N 279.361 -1.56624 0.175154 0
M  V30 2721 C 280.608 -1.96999 -0.468811 0
M  V30 2722 C 280.936 -1.06129 -1.62994 0
M  V30 2723 O 280.191 -0.0961771 -1.95464 0
M  V30 2724 C 280.49 -3.43419 -0.989864 0
M  V30 2725 C 280.156 -4.50866 0.0557687 0
M  V30 2726 C 278.818 -4.79975 0.343134 0
M  V30 2727 C 281.17 -5.15551 0.765308 0
M  V30 2728 C 278.498 -5.71066 1.34536 0
M  V30 2729 C 280.85 -6.07724 1.75654 0
M  V30 2730 C 279.514 -6.35199 2.05132 0
M  V30 2731 H 278.784 -0.720869 -0.17155 0
M  V30 2732 H 281.431 -1.89616 0.267924 0
M  V30 2733 H 279.736 -3.47772 -1.80449 0
M  V30 2734 H 281.433 -3.72002 -1.49719 0
M  V30 2735 H 278.023 -4.28229 -0.178381 0
M  V30 2736 H 282.207 -4.9317 0.556513 0
M  V30 2737 H 277.463 -5.90635 1.57988 0
M  V30 2738 H 281.637 -6.56912 2.31169 0
M  V30 2739 H 279.264 -7.05584 2.8294 0
M  V30 2740 N 280.839 0.0985539 -1.57292 0
M  V30 2741 C 282.064 0.820196 -1.90493 0
M  V30 2742 C 282.489 1.71658 -0.769094 0
M  V30 2743 O 281.847 1.79133 0.279495 0
M  V30 2744 C 281.895 1.61242 -3.22542 0
M  V30 2745 O 280.999 2.72108 -3.09888 0
M  V30 2746 H 280.34 0.225547 -0.62452 0
M  V30 2747 H 282.87 0.0748159 -2.04463 0
M  V30 2748 H 282.88 1.99737 -3.55766 0
M  V30 2749 H 281.555 0.954535 -4.04798 0
M  V30 2750 H 280.132 2.36667 -2.88172 0
M  V30 2751 N 282.317 1.53212 0.369288 0
M  V30 2752 C 283.25 1.74166 1.4745 0
M  V30 2753 C 284.228 0.589923 1.51521 0
M  V30 2754 O 285.412 0.822078 1.69629 0
M  V30 2755 C 282.539 1.81711 2.8583 0
M  V30 2756 C 281.585 3.03649 2.99499 0
M  V30 2757 S 282.418 4.63242 2.6864 0
M  V30 2758 C 283.574 4.7363 4.09177 0
M  V30 2759 H 283.807 2.67636 1.29454 0
M  V30 2760 H 281.34 1.43754 0.563396 0
M  V30 2761 H 283.298 1.86743 3.65564 0
M  V30 2762 H 281.959 0.89299 3.01139 0
M  V30 2763 H 281.152 3.05526 4.00836 0
M  V30 2764 H 280.754 2.9671 2.27683 0
M  V30 2765 H 283.046 4.53456 5.03372 0
M  V30 2766 H 283.989 5.75682 4.12306 0
M  V30 2767 H 284.397 4.02295 3.96004 0
M  V30 2768 N 283.795 -0.628877 1.44509 0
M  V30 2769 C 284.758 -1.72263 1.51188 0
M  V30 2770 C 285.758 -1.55907 0.39367 0
M  V30 2771 O 286.948 -1.61361 0.656377 0
M  V30 2772 C 284.08 -3.11365 1.38798 0
M  V30 2773 H 285.273 -1.67714 2.4862 0
M  V30 2774 H 282.826 -0.842737 1.31634 0
M  V30 2775 H 283.561 -3.21507 0.424693 0
M  V30 2776 H 283.346 -3.24644 2.19884 0
M  V30 2777 H 284.836 -3.91075 1.46458 0
M  V30 2778 N 285.273 -1.31445 -0.869486 0
M  V30 2779 C 286.689 -1.10113 -1.15531 0
M  V30 2780 C 286.889 0.128087 -2.01092 0
M  V30 2781 O 285.945 0.817276 -2.38908 0
M  V30 2782 C 287.258 -2.37291 -1.84698 0
M  V30 2783 C 288.806 -2.42906 -1.97397 0
M  V30 2784 C 289.281 -3.69967 -2.69979 0
M  V30 2785 N 290.772 -3.70864 -2.77514 0
M  V30 2786 C 291.507 -4.65875 -3.34287 0
M  V30 2787 N 291.003 -5.71242 -3.91988 0
M  V30 2788 N 292.796 -4.53394 -3.3225 0
M  V30 2789 H 284.947 -2.1028 -0.299347 0
M  V30 2790 H 287.21 -0.927683 -0.195214 0
M  V30 2791 H 286.916 -3.27078 -1.29278 0
M  V30 2792 H 286.79 -2.47125 -2.84972 0
M  V30 2793 H 289.177 -1.53588 -2.51982 0
M  V30 2794 H 289.258 -2.37036 -0.961643 0
M  V30 2795 H 288.902 -4.59652 -2.16062 0
M  V30 2796 H 288.832 -3.73103 -3.7162 0
M  V30 2797 H 291.323 -2.94697 -2.36563 0
M  V30 2798 H 291.636 -6.39817 -4.33421 0
M  V30 2799 H 289.981 -5.75015 -3.90362 0
M  V30 2800 H 293.172 -3.70252 -2.8641 0
M  V30 2801 H 293.345 -5.27617 -3.76197 0
M  V30 2802 N 286.751 1.08385 -1.14413 0
M  V30 2803 C 287.699 2.17406 -0.826888 0
M  V30 2804 C 288.693 1.6827 0.195312 0
M  V30 2805 O 289.899 1.79927 0.0513892 0
M  V30 2806 H 286.274 0.70934 -0.249681 0
M  V30 2807 H 288.245 2.41388 -1.75426 0
M  V30 2808 C 286.994 3.46215 -0.320979 0
M  V30 2809 H 286.317 3.84401 -1.0989 0
M  V30 2810 H 287.757 4.23777 -0.137549 0
M  V30 2811 C 286.216 3.23067 0.955472 0
M  V30 2812 O 286.746 3.4668 2.02918 0
M  V30 2813 N 284.952 2.7661 0.890798 0
M  V30 2814 H 284.499 2.57594 0.0168815 0
M  V30 2815 H 284.457 2.61501 1.74542 0
M  V30 2816 N 288.23 0.939286 1.26551 0
M  V30 2817 C 289.478 0.58469 1.93457 0
M  V30 2818 C 289.799 -0.878774 1.74076 0
M  V30 2819 O 289.069 -1.62421 1.09528 0
M  V30 2820 H 287.649 0.21325 0.715914 0
M  V30 2821 H 290.311 1.1942 1.54029 0
M  V30 2822 H 289.407 0.800849 3.0165 0
M  V30 2823 N 289.708 -1.40897 0.706093 0
M  V30 2824 C 290.985 -1.94868 0.169099 0
M  V30 2825 C 291.365 -1.64485 -1.32318 0
M  V30 2826 O 290.713 -0.95744 -2.07474 0
M  V30 2827 C 290.923 -3.45798 0.471654 0
M  V30 2828 C 292.271 -4.22663 0.405127 0
M  V30 2829 O 293.295 -3.53865 0.407168 0
M  V30 2830 O 292.154 -5.45216 0.374383 0
M  V30 2831 H 289.248 -0.82673 0.0211352 0
M  V30 2832 H 291.794 -1.50558 0.782976 0
M  V30 2833 H 290.566 -3.61235 1.50416 0
M  V30 2834 H 290.189 -3.97225 -0.172666 0
M  V30 2835 N 291.186 -0.45159 -1.50991 0
M  V30 2836 C 292.416 0.108177 -2.06317 0
M  V30 2837 C 292.824 1.35774 -1.31765 0
M  V30 2838 O 292.167 1.79838 -0.374694 0
M  V30 2839 C 292.229 0.481659 -3.56259 0
M  V30 2840 C 291.893 -0.663114 -4.52163 0
M  V30 2841 C 292.89 -1.53947 -4.96585 0
M  V30 2842 C 290.575 -0.8479 -4.95092 0
M  V30 2843 C 292.569 -2.58518 -5.82621 0
M  V30 2844 C 290.256 -1.89686 -5.80915 0
M  V30 2845 C 291.254 -2.76388 -6.24579 0
M  V30 2846 O 290.942 -3.79482 -7.08695 0
M  V30 2847 H 290.674 0.00499183 -0.675982 0
M  V30 2848 H 293.228 -0.633659 -1.95381 0
M  V30 2849 H 291.458 1.27641 -3.65027 0
M  V30 2850 H 293.147 0.974233 -3.94035 0
M  V30 2851 H 293.913 -1.4083 -4.64103 0
M  V30 2852 H 289.792 -0.18258 -4.60638 0
M  V30 2853 H 293.336 -3.26224 -6.16623 0
M  V30 2854 H 289.233 -2.02817 -6.12809 0
M  V30 2855 H 290.001 -3.76234 -7.26905 0
M  V30 2856 N 292.664 1.56529 -0.183458 0
M  V30 2857 C 294.08 1.58664 0.172554 0
M  V30 2858 C 294.28 1.19925 1.61926 0
M  V30 2859 O 293.336 0.916534 2.35278 0
M  V30 2860 C 294.649 3.00463 -0.119262 0
M  V30 2861 C 296.197 3.12945 -0.0584396 0
M  V30 2862 C 296.672 4.56857 -0.323408 0
M  V30 2863 N 298.163 4.62403 -0.271612 0
M  V30 2864 C 298.898 5.71626 -0.450639 0
M  V30 2865 N 298.394 6.89362 -0.689384 0
M  V30 2866 N 300.187 5.60775 -0.385701 0
M  V30 2867 H 292.338 1.79994 -1.12765 0
M  V30 2868 H 294.601 0.834808 -0.449222 0
M  V30 2869 H 294.307 3.33326 -1.12192 0
M  V30 2870 H 294.181 3.72659 0.583544 0
M  V30 2871 H 296.568 2.79902 0.934805 0
M  V30 2872 H 296.649 2.4316 -0.794144 0
M  V30 2873 H 296.293 4.9061 -1.31392 0
M  V30 2874 H 296.223 5.24816 0.43305 0
M  V30 2875 H 298.714 3.77785 -0.0932256 0
M  V30 2876 H 299.027 7.68489 -0.815113 0
M  V30 2877 H 297.372 6.91196 -0.726142 0
M  V30 2878 H 300.563 4.67674 -0.199687 0
M  V30 2879 H 300.736 6.4584 -0.528646 0
M  V30 2880 N 294.142 -0.090211 1.57342 0
M  V30 2881 C 295.367 -0.810082 1.90925 0
M  V30 2882 C 295.792 -1.71248 0.778187 0
M  V30 2883 O 295.15 -1.79278 -0.269991 0
M  V30 2884 C 295.198 -1.59529 3.23393 0
M  V30 2885 O 294.302 -2.70461 3.11327 0
M  V30 2886 H 293.643 -0.222231 0.625707 0
M  V30 2887 H 296.173 -0.0639716 2.045 0
M  V30 2888 H 296.183 -1.97847 3.5682 0
M  V30 2889 H 294.858 -0.933055 4.05299 0
M  V30 2890 H 293.435 -2.35135 2.89423 0
M  V30 2891 N 295.62 -1.53406 -0.361157 0
M  V30 2892 C 296.55 -1.83136 -1.44857 0
M  V30 2893 C 297.531 -0.685174 -1.5569 0
M  V30 2894 O 298.716 -0.93544 -1.70186 0
M  V30 2895 C 295.846 -2.02522 -2.82138 0
M  V30 2896 C 294.8 -3.18302 -2.86126 0
M  V30 2897 C 294.126 -3.22989 -4.26125 0
M  V30 2898 C 295.426 -4.56796 -2.53248 0
M  V30 2899 H 297.12 -2.74201 -1.20226 0
M  V30 2900 H 294.666 -1.31938 -0.576922 0
M  V30 2901 H 296.619 -2.21904 -3.58241 0
M  V30 2902 H 295.343 -1.08172 -3.08166 0
M  V30 2903 H 294.002 -2.98747 -2.12475 0
M  V30 2904 H 293.65 -2.26267 -4.49235 0
M  V30 2905 H 293.35 -4.00781 -4.29708 0
M  V30 2906 H 294.874 -3.44559 -5.04094 0
M  V30 2907 H 296.288 -4.7631 -3.19064 0
M  V30 2908 H 294.685 -5.36862 -2.68141 0
M  V30 2909 H 295.755 -4.61606 -1.48484 0
M  V30 2910 N 297.098 0.621204 -1.44841 0
M  V30 2911 C 298.344 1.3826 -1.48365 0
M  V30 2912 C 298.677 1.93831 -0.119624 0
M  V30 2913 O 297.952 1.74251 0.864111 0
M  V30 2914 C 298.235 2.54058 -2.55199 0
M  V30 2915 C 298.088 2.03772 -4.00995 0
M  V30 2916 C 299.407 3.56225 -2.58442 0
M  V30 2917 H 296.526 0.501374 -0.540179 0
M  V30 2918 H 299.168 0.7015 -1.76576 0
M  V30 2919 H 297.318 3.12162 -2.31274 0
M  V30 2920 H 298.99 1.50423 -4.36086 0
M  V30 2921 H 297.233 1.34876 -4.12299 0
M  V30 2922 H 297.904 2.87185 -4.71411 0
M  V30 2923 H 300.38 3.07939 -2.79844 0
M  V30 2924 H 299.256 4.34756 -3.3508 0
M  V30 2925 H 299.517 4.10949 -1.63013 0
M  V30 2926 N 298.576 1.31904 0.862503 0
M  V30 2927 C 299.825 1.21373 1.61094 0
M  V30 2928 C 300.138 -0.22504 1.94301 0
M  V30 2929 O 301.344 -0.452121 2.67709 0
M  V30 2930 C 299.8 2.12525 2.9045 0
M  V30 2931 C 299.408 3.61441 2.64697 0
M  V30 2932 C 301.152 2.10813 3.68454 0
M  V30 2933 C 299.059 4.44578 3.90006 0
M  V30 2934 H 297.989 0.450705 0.604468 0
M  V30 2935 H 300.64 1.56811 0.953027 0
M  V30 2936 H 299.022 1.69994 3.57656 0
M  V30 2937 H 300.196 4.12264 2.05851 0
M  V30 2938 H 298.511 3.65205 2.00036 0
M  V30 2939 H 301.108 2.70167 4.61426 0
M  V30 2940 H 301.451 1.09713 4.01583 0
M  V30 2941 H 301.984 2.51583 3.08141 0
M  V30 2942 H 298.723 5.46461 3.62023 0
M  V30 2943 H 298.243 3.98508 4.48276 0
M  V30 2944 H 299.922 4.57176 4.5782 0
M  V30 2945 N 300.054 -1.07777 1.14986 0
M  V30 2946 C 301.302 -1.79934 0.920235 0
M  V30 2947 C 301.623 -1.86955 -0.554336 0
M  V30 2948 O 300.893 -1.36731 -1.40291 0
M  V30 2949 H 299.473 -0.666424 0.337473 0
M  V30 2950 H 302.135 -1.3027 1.44968 0
M  V30 2951 H 301.231 -2.82539 1.32583 0
M  V30 2952 N 301.532 -0.945985 -1.26051 0
M  V30 2953 C 302.462 -0.477172 -2.28572 0
M  V30 2954 C 303.443 0.472032 -1.63419 0
M  V30 2955 O 304.628 0.372853 -1.90587 0
M  V30 2956 C 301.758 0.253975 -3.4637 0
M  V30 2957 C 300.712 -0.609135 -4.23643 0
M  V30 2958 C 300.038 0.252252 -5.34105 0
M  V30 2959 C 301.338 -1.8829 -4.8718 0
M  V30 2960 H 303.032 -1.33402 -2.68038 0
M  V30 2961 H 300.578 -0.642904 -1.28852 0
M  V30 2962 H 302.531 0.593016 -4.17207 0
M  V30 2963 H 301.255 1.145 -3.05871 0
M  V30 2964 H 299.914 -0.931138 -3.54578 0
M  V30 2965 H 299.562 1.14278 -4.89846 0
M  V30 2966 H 299.262 -0.32188 -5.86718 0
M  V30 2967 H 300.786 0.586454 -6.07777 0
M  V30 2968 H 302.2 -1.61081 -5.50205 0
M  V30 2969 H 300.597 -2.40199 -5.49931 0
M  V30 2970 H 301.667 -2.59134 -4.09851 0
M  V30 2971 N 303.011 1.40521 -0.713556 0
M  V30 2972 C 303.943 2.29191 -0.0203126 0
M  V30 2973 C 304.956 1.45723 0.725864 0
M  V30 2974 O 306.145 1.69033 0.573581 0
M  V30 2975 C 303.245 3.2395 0.995486 0
M  V30 2976 C 302.418 4.36262 0.315256 0
M  V30 2977 C 301.477 5.11474 1.23616 0
M  V30 2978 O 300.503 5.64606 0.721719 0
M  V30 2979 N 301.705 5.20638 2.56743 0
M  V30 2980 H 304.47 2.89327 -0.781652 0
M  V30 2981 H 302.031 1.51869 -0.561022 0
M  V30 2982 H 304.023 3.71137 1.61368 0
M  V30 2983 H 302.593 2.64995 1.6582 0
M  V30 2984 H 301.813 3.91228 -0.483106 0
M  V30 2985 H 303.101 5.08558 -0.157004 0
M  V30 2986 H 302.499 4.7895 3.01037 0
M  V30 2987 H 301.056 5.71339 3.13712 0
M  V30 2988 N 304.489 0.459591 1.5075 0
M  V30 2989 C 305.719 -0.0972338 2.06371 0
M  V30 2990 C 306.127 -1.35074 1.32483 0
M  V30 2991 O 305.47 -1.79637 0.384226 0
M  V30 2992 C 305.532 -0.462759 3.56509 0
M  V30 2993 C 305.196 0.687084 4.51805 0
M  V30 2994 C 306.193 1.56578 4.95761 0
M  V30 2995 C 303.878 0.874144 4.94635 0
M  V30 2996 C 305.872 2.61604 5.81242 0
M  V30 2997 C 303.559 1.92765 5.79901 0
M  V30 2998 C 304.557 2.79697 6.23104 0
M  V30 2999 O 304.245 3.83235 7.06673 0
M  V30 3000 H 303.977 -0.00140687 0.675999 0
M  V30 3001 H 306.531 0.644011 1.95043 0
M  V30 3002 H 304.761 -1.25703 3.65699 0
M  V30 3003 H 306.45 -0.953323 3.94546 0
M  V30 3004 H 307.216 1.4329 4.6335 0
M  V30 3005 H 303.095 0.207006 4.60535 0
M  V30 3006 H 306.639 3.29489 6.14884 0
M  V30 3007 H 302.536 2.06064 6.11725 0
M  V30 3008 H 303.304 3.80084 7.24899 0
M  V30 3009 N 305.967 -1.56429 0.191757 0
M  V30 3010 C 306.93 -2.17707 -0.716688 0
M  V30 3011 C 307.93 -1.13061 -1.14341 0
M  V30 3012 O 309.12 -1.38464 -1.05704 0
M  V30 3013 C 306.252 -2.77644 -1.97804 0
M  V30 3014 H 307.445 -2.99342 -0.1829 0
M  V30 3015 H 304.998 -1.56193 -0.0578566 0
M  V30 3016 H 305.733 -1.99799 -2.55443 0
M  V30 3017 H 305.518 -3.54246 -1.68083 0
M  V30 3018 H 307.008 -3.24708 -2.62592 0
M  V30 3019 N 307.445 0.0818655 -1.57387 0
M  V30 3020 C 308.693 0.781368 -1.86384 0
M  V30 3021 C 309.014 1.78618 -0.782342 0
M  V30 3022 O 308.284 1.94976 0.190061 0
M  V30 3023 H 306.864 0.291562 -0.687751 0
M  V30 3024 H 309.526 0.060348 -1.94807 0
M  V30 3025 H 308.622 1.3038 -2.83562 0
M  V30 3026 N 308.923 1.53595 0.353017 0
M  V30 3027 C 310.172 1.69603 1.09168 0
M  V30 3028 C 310.485 0.460925 1.90092 0
M  V30 3029 O 311.691 0.501774 2.66823 0
M  V30 3030 C 310.147 2.99872 1.9901 0
M  V30 3031 C 309.755 4.30687 1.23339 0
M  V30 3032 C 311.499 3.25246 2.72792 0
M  V30 3033 C 309.406 5.52036 2.12156 0
M  V30 3034 H 308.336 0.631966 0.411261 0
M  V30 3035 H 310.987 1.80096 0.351802 0
M  V30 3036 H 309.369 2.83212 2.7678 0
M  V30 3037 H 310.543 4.58019 0.505456 0
M  V30 3038 H 308.858 4.11853 0.613663 0
M  V30 3039 H 311.455 4.13095 3.39495 0
M  V30 3040 H 311.798 2.41846 3.38846 0
M  V30 3041 H 312.331 3.42638 2.021 0
M  V30 3042 H 309.07 6.37951 1.50659 0
M  V30 3043 H 308.59 5.28966 2.82764 0
M  V30 3044 H 310.269 5.87313 2.71427 0
M  V30 3045 N 310.401 -0.613514 1.45168 0
M  V30 3046 C 311.812 -1.19539 1.43413 0
M  V30 3047 C 312.163 -1.95558 0.158632 0
M  V30 3048 O 311.288 -2.0335 -0.740119 0
M  V30 3049 C 311.883 -2.17445 2.59813 0
M  V30 3050 C 310.442 -2.71022 2.61197 0
M  V30 3051 C 309.589 -1.46323 2.35552 0
M  V30 3052 H 312.54 -0.403163 1.53494 0
M  V30 3053 H 312.561 -3.00373 2.33574 0
M  V30 3054 H 312.073 -1.62089 3.52631 0
M  V30 3055 H 310.174 -3.30332 1.7237 0
M  V30 3056 H 310.287 -3.15859 3.60236 0
M  V30 3057 H 308.651 -1.75072 1.84992 0
M  V30 3058 H 309.434 -0.92844 3.30507 0
M  V30 3059 N 311.879 -1.3236 -0.855495 0
M  V30 3060 C 313.104 -1.2601 -1.64731 0
M  V30 3061 C 313.529 0.169068 -1.87339 0
M  V30 3062 O 312.887 1.12016 -1.42556 0
M  V30 3063 C 312.935 -2.02417 -2.98429 0
M  V30 3064 O 312.039 -1.3714 -3.8893 0
M  V30 3065 H 311.38 -0.434325 -0.502253 0
M  V30 3066 H 313.91 -1.74661 -1.06558 0
M  V30 3067 H 313.92 -2.12559 -3.48257 0
M  V30 3068 H 312.595 -3.06343 -2.81295 0
M  V30 3069 H 311.172 -1.3554 -3.47395 0
M  V30 3070 N 313.357 1.07166 -1.15556 0
M  V30 3071 C 314.603 1.80065 -0.932984 0
M  V30 3072 C 314.936 1.86586 0.53845 0
M  V30 3073 O 314.211 1.35098 1.39924 0
M  V30 3074 C 314.494 3.25022 -1.55025 0
M  V30 3075 C 314.347 3.26634 -3.09242 0
M  V30 3076 C 315.666 4.22341 -1.2376 0
M  V30 3077 H 312.785 0.653697 -0.340366 0
M  V30 3078 H 315.427 1.25389 -1.4275 0
M  V30 3079 H 313.577 3.71712 -1.12972 0
M  V30 3080 H 315.249 2.88173 -3.60214 0
M  V30 3081 H 313.492 2.65539 -3.43033 0
M  V30 3082 H 314.163 4.28854 -3.47546 0
M  V30 3083 H 316.639 3.8405 -1.60139 0
M  V30 3084 H 315.515 5.22053 -1.69564 0
M  V30 3085 H 315.776 4.41828 -0.154938 0
M  V30 3086 N 314.835 0.952656 1.25548 0
M  V30 3087 C 315.783 0.462354 2.27958 0
M  V30 3088 C 316.777 -0.46634 1.62855 0
M  V30 3089 O 317.983 -0.343287 1.76696 0
M  V30 3090 H 314.358 0.13101 0.7405 0
M  V30 3091 H 316.329 1.33839 2.66702 0
M  V30 3092 C 315.078 -0.24628 3.46827 0
M  V30 3093 H 314.401 0.459192 3.97154 0
M  V30 3094 H 315.841 -0.553393 4.20373 0
M  V30 3095 C 314.3 -1.4681 3.0323 0
M  V30 3096 O 314.83 -2.56591 3.09069 0
M  V30 3097 N 313.036 -1.32874 2.58443 0
M  V30 3098 H 312.583 -0.435536 2.53891 0
M  V30 3099 H 312.541 -2.14742 2.29637 0
M  V30 3100 N 316.313 -1.40141 0.720998 0
M  V30 3101 C 317.538 -2.05618 0.271258 0
M  V30 3102 C 317.963 -1.53978 -1.08039 0
M  V30 3103 O 317.321 -0.677463 -1.68167 0
M  V30 3104 C 317.369 -3.59609 0.267197 0
M  V30 3105 O 316.473 -4.05526 -0.749814 0
M  V30 3106 H 315.814 -0.651904 0.126162 0
M  V30 3107 H 318.344 -1.79439 0.982997 0
M  V30 3108 H 318.354 -4.0786 0.106744 0
M  V30 3109 H 317.029 -3.96559 1.25354 0
M  V30 3110 H 315.606 -3.68722 -0.556644 0
M  V30 3111 N 317.792 -0.46758 -1.50504 0
M  V30 3112 C 318.722 0.318381 -2.31319 0
M  V30 3113 C 319.703 0.993564 -1.38066 0
M  V30 3114 O 320.888 0.991411 -1.66987 0
M  V30 3115 C 318.018 1.40275 -3.17711 0
M  V30 3116 C 316.972 0.849373 -4.19487 0
M  V30 3117 C 316.298 2.03177 -4.94594 0
M  V30 3118 C 317.598 -0.136942 -5.2212 0
M  V30 3119 H 319.292 -0.356106 -2.97275 0
M  V30 3120 H 316.838 -0.172703 -1.42961 0
M  V30 3121 H 318.791 1.96004 -3.73042 0
M  V30 3122 H 317.515 2.10596 -2.49634 0
M  V30 3123 H 316.174 0.314076 -3.65252 0
M  V30 3124 H 315.822 2.72187 -4.22993 0
M  V30 3125 H 315.522 1.66774 -5.63436 0
M  V30 3126 H 317.046 2.59403 -5.52759 0
M  V30 3127 H 318.46 0.331056 -5.72343 0
M  V30 3128 H 316.857 -0.41507 -5.98663 0
M  V30 3129 H 317.927 -1.06398 -4.73083 0
M  V30 3130 N 319.27 1.56325 -0.20005 0
M  V30 3131 C 320.22 2.15939 0.731743 0
M  V30 3132 C 321.204 1.10154 1.17281 0
M  V30 3133 O 322.396 1.36203 1.13038 0
M  V30 3134 C 319.525 2.82614 1.94895 0
M  V30 3135 C 318.611 3.95596 1.52855 0
M  V30 3136 N 319.002 4.99118 0.819418 0
M  V30 3137 C 317.3 4.07288 1.81748 0
M  V30 3138 C 318.001 5.78513 0.608053 0
M  V30 3139 N 316.977 5.31117 1.15828 0
M  V30 3140 H 320.779 2.9334 0.181285 0
M  V30 3141 H 318.293 1.624 -0.000452172 0
M  V30 3142 H 320.29 3.23718 2.62702 0
M  V30 3143 H 318.95 2.06702 2.50408 0
M  V30 3144 H 319.961 5.15723 0.47436 0
M  V30 3145 H 316.638 3.42509 2.38734 0
M  V30 3146 H 318.028 6.71885 0.0451619 0
M  V30 3147 N 320.748 -0.0735177 1.57428 0
M  V30 3148 C 321.973 -0.789787 1.91774 0
M  V30 3149 C 322.398 -1.70413 0.796306 0
M  V30 3150 O 321.756 -1.79555 -0.250961 0
M  V30 3151 C 321.804 -1.5609 3.25067 0
M  V30 3152 O 320.908 -2.67144 3.14178 0
M  V30 3153 H 320.249 -0.215582 0.628029 0
M  V30 3154 H 322.779 -0.0422781 2.04556 0
M  V30 3155 H 322.789 -1.94052 3.58898 0
M  V30 3156 H 321.464 -0.890015 4.06265 0
M  V30 3157 H 320.041 -2.32052 2.91901 0
M  V30 3158 N 322.226 -1.5378 -0.344866 0
M  V30 3159 C 323.472 -1.71216 -1.08687 0
M  V30 3160 C 323.805 -0.473281 -1.88345 0
M  V30 3161 O 323.08 0.52968 -1.87149 0
M  V30 3162 C 323.363 -2.97486 -2.02914 0
M  V30 3163 C 323.216 -4.31579 -1.26727 0
M  V30 3164 C 324.535 -3.19422 -3.0275 0
M  V30 3165 H 321.654 -0.62301 -0.393735 0
M  V30 3166 H 324.296 -1.8645 -0.365563 0
M  V30 3167 H 322.446 -2.84629 -2.64421 0
M  V30 3168 H 324.118 -4.56284 -0.67845 0
M  V30 3169 H 322.361 -4.30049 -0.569273 0
M  V30 3170 H 323.032 -5.16106 -1.95803 0
M  V30 3171 H 325.508 -3.316 -2.51357 0
M  V30 3172 H 324.384 -4.09169 -3.65885 0
M  V30 3173 H 324.645 -2.35656 -3.74057 0
M  V30 3174 N 323.704 0.605807 -1.45491 0
M  V30 3175 C 324.934 1.38934 -1.52908 0
M  V30 3176 C 325.342 1.88513 -0.161086 0
M  V30 3177 O 324.685 1.62962 0.847891 0
M  V30 3178 C 324.747 2.62737 -2.45376 0
M  V30 3179 C 324.411 2.34785 -3.92078 0
M  V30 3180 C 325.408 1.95038 -4.8193 0
M  V30 3181 C 323.093 2.47642 -4.37011 0
M  V30 3182 C 325.087 1.68511 -6.14722 0
M  V30 3183 C 322.774 2.20728 -5.69844 0
M  V30 3184 C 323.772 1.81225 -6.58519 0
M  V30 3185 O 323.46 1.54627 -7.88889 0
M  V30 3186 H 323.192 0.431629 -0.520262 0
M  V30 3187 H 325.746 0.74573 -1.91384 0
M  V30 3188 H 323.976 3.29824 -2.01874 0
M  V30 3189 H 325.665 3.24783 -2.43456 0
M  V30 3190 H 326.431 1.84639 -4.48479 0
M  V30 3191 H 322.31 2.77356 -3.68232 0
M  V30 3192 H 325.854 1.37602 -6.83894 0
M  V30 3193 H 321.751 2.30744 -6.02849 0
M  V30 3194 H 322.519 1.68665 -8.00933 0
M  V30 3195 N 325.182 1.32811 0.848464 0
M  V30 3196 C 326.13 1.22231 1.97895 0
M  V30 3197 C 327.124 0.125749 1.68933 0
M  V30 3198 O 328.33 0.289083 1.77663 0
M  V30 3199 H 324.705 0.379058 0.649476 0
M  V30 3200 H 326.676 2.17828 2.03945 0
M  V30 3201 C 325.425 0.968572 3.33937 0
M  V30 3202 H 324.748 1.80458 3.56756 0
M  V30 3203 H 326.188 0.934808 4.13567 0
M  V30 3204 C 324.647 -0.328628 3.35293 0
M  V30 3205 O 325.177 -1.33848 3.78745 0
M  V30 3206 N 323.383 -0.352788 2.88451 0
M  V30 3207 H 322.93 0.469541 2.53285 0
M  V30 3208 H 322.888 -1.22057 2.89741 0
M  V30 3209 N 326.66 -1.06551 1.16123 0
M  V30 3210 C 327.907 -1.79302 0.941126 0
M  V30 3211 C 328.235 -1.87105 -0.531235 0
M  V30 3212 O 327.49 -1.35692 -1.41018 0
M  V30 3213 C 327.789 -3.23911 1.51052 0
M  V30 3214 C 327.455 -3.36193 3.00475 0
M  V30 3215 C 326.117 -3.39252 3.41265 0
M  V30 3216 C 328.469 -3.38326 3.96465 0
M  V30 3217 C 325.797 -3.42057 4.76669 0
M  V30 3218 C 328.149 -3.4267 5.31752 0
M  V30 3219 C 326.813 -3.4401 5.72026 0
M  V30 3220 H 326.083 -0.656111 0.344382 0
M  V30 3221 H 328.73 -1.25325 1.44796 0
M  V30 3222 H 327.035 -3.80723 0.925063 0
M  V30 3223 H 328.732 -3.78793 1.31593 0
M  V30 3224 H 325.322 -3.34516 2.6795 0
M  V30 3225 H 329.506 -3.35176 3.6602 0
M  V30 3226 H 324.762 -3.41398 5.07206 0
M  V30 3227 H 328.936 -3.43268 6.05921 0
M  V30 3228 H 326.563 -3.45937 6.76928 0
M  V30 3229 N 328.138 -0.959301 -1.25041 0
M  V30 3230 C 329.378 -0.624343 -1.94631 0
M  V30 3231 C 329.742 0.82403 -1.73418 0
M  V30 3232 O 330.943 1.26881 -2.3697 0
M  V30 3233 C 329.214 -0.978805 -3.43736 0
M  V30 3234 S 330.773 -0.757127 -4.32219 0
M  V30 3235 H 327.591 -0.229327 -0.673001 0
M  V30 3236 H 330.193 -1.23447 -1.51595 0
M  V30 3237 H 328.897 -2.02997 -3.56679 0
M  V30 3238 H 328.428 -0.359117 -3.91757 0
M  V30 3239 H 330.443 0.369759 -4.9482 0
M  V30 3240 N 329.616 1.39756 -0.72842 0
M  V30 3241 C 330.893 1.94574 -0.200079 0
M  V30 3242 C 331.273 1.66569 1.29684 0
M  V30 3243 O 330.621 0.990326 2.05924 0
M  V30 3244 C 330.831 3.45004 -0.526608 0
M  V30 3245 C 332.179 4.21965 -0.472318 0
M  V30 3246 O 333.203 3.53173 -0.463413 0
M  V30 3247 O 332.062 5.44552 -0.461075 0
M  V30 3248 H 329.156 0.826289 -0.0342851 0
M  V30 3249 H 331.702 1.49293 -0.806829 0
M  V30 3250 H 330.474 3.58796 -1.56144 0
M  V30 3251 H 330.097 3.97449 0.109449 0
M  V30 3252 N 331.094 0.475555 1.50254 0
M  V30 3253 C 332.041 -0.316293 2.28622 0
M  V30 3254 C 333.011 -0.983227 1.33873 0
M  V30 3255 O 334.196 -0.994805 1.62814 0
M  V30 3256 C 331.336 -1.38975 3.1588 0
M  V30 3257 C 330.449 -0.737146 4.25664 0
M  V30 3258 C 329.584 -1.78887 5.00173 0
M  V30 3259 C 328.623 -1.11676 6.01826 0
M  V30 3260 N 327.76 -2.11154 6.69596 0
M  V30 3261 H 332.6 0.358297 2.95838 0
M  V30 3262 H 330.137 0.188541 1.45887 0
M  V30 3263 H 332.095 -2.02383 3.64825 0
M  V30 3264 H 330.725 -2.03344 2.50701 0
M  V30 3265 H 329.777 0.0096065 3.80399 0
M  V30 3266 H 331.089 -0.206816 4.98371 0
M  V30 3267 H 330.243 -2.49865 5.52859 0
M  V30 3268 H 328.982 -2.35302 4.27182 0
M  V30 3269 H 327.987 -0.392633 5.48396 0
M  V30 3270 H 329.212 -0.55945 6.76792 0
M  V30 3271 H 327.158 -2.66577 5.99394 0
M  V30 3272 H 327.075 -1.63118 7.38193 0
M  V30 3273 H 328.343 -2.81497 7.26897 0
M  V30 3274 N 332.573 -1.56217 0.208337 0
M  V30 3275 C 333.984 -1.84243 -0.301904 0
M  V30 3276 C 334.335 -1.12939 -1.60434 0
M  V30 3277 O 333.46 -0.39461 -2.12772 0
M  V30 3278 C 334.055 -3.34231 -0.554543 0
M  V30 3279 C 332.614 -3.62621 -1.00912 0
M  V30 3280 C 331.761 -2.77224 -0.064933 0
M  V30 3281 H 334.712 -1.52712 0.431833 0
M  V30 3282 H 334.733 -3.5372 -1.40223 0
M  V30 3283 H 334.245 -3.86099 0.393561 0
M  V30 3284 H 332.346 -3.16197 -1.97104 0
M  V30 3285 H 332.459 -4.7071 -0.892674 0
M  V30 3286 H 330.823 -2.48256 -0.56929 0
M  V30 3287 H 331.606 -3.31887 0.877851 0
M  V30 3288 N 334.051 0.0651679 -1.57465 0
M  V30 3289 C 335.297 0.758912 -1.88712 0
M  V30 3290 C 335.652 1.7485 -0.802819 0
M  V30 3291 O 334.945 1.90632 0.192359 0
M  V30 3292 C 335.139 1.50081 -3.24362 0
M  V30 3293 C 334.968 0.584579 -4.45884 0
M  V30 3294 C 333.738 0.219039 -5.04825 0
M  V30 3295 C 335.936 -0.121559 -5.14156 0
M  V30 3296 N 333.918 -0.702222 -6.09871 0
M  V30 3297 C 335.289 -0.899767 -6.13436 0
M  V30 3298 C 337.344 -0.192331 -4.97528 0
M  V30 3299 C 336.047 -1.74218 -6.97883 0
M  V30 3300 C 338.073 -1.02174 -5.82507 0
M  V30 3301 C 337.435 -1.78798 -6.8133 0
M  V30 3302 H 333.534 0.25293 -0.739967 0
M  V30 3303 H 336.118 0.0201744 -1.9469 0
M  V30 3304 H 334.289 2.21023 -3.1938 0
M  V30 3305 H 336.021 2.14409 -3.43236 0
M  V30 3306 H 332.776 0.57336 -4.70117 0
M  V30 3307 H 333.2 -1.15629 -6.67052 0
M  V30 3308 H 337.842 0.385741 -4.21037 0
M  V30 3309 H 335.56 -2.3312 -7.73745 0
M  V30 3310 H 339.146 -1.07957 -5.71696 0
M  V30 3311 H 338.026 -2.41942 -7.45945 0
M  V30 3312 N 335.529 1.53961 0.336706 0
M  V30 3313 C 336.775 1.7179 1.07777 0
M  V30 3314 C 337.108 0.483263 1.88091 0
M  V30 3315 O 336.383 -0.519747 1.87427 0
M  V30 3316 C 336.666 2.98558 2.01334 0
M  V30 3317 C 336.519 4.32245 1.24437 0
M  V30 3318 C 337.838 3.21023 3.01052 0
M  V30 3319 H 334.957 0.625089 0.390426 0
M  V30 3320 H 337.599 1.86641 0.35567 0
M  V30 3321 H 335.749 2.86028 2.62908 0
M  V30 3322 H 337.421 4.56637 0.654243 0
M  V30 3323 H 335.664 4.30344 0.546458 0
M  V30 3324 H 336.335 5.17137 1.93063 0
M  V30 3325 H 338.811 3.32929 2.49595 0
M  V30 3326 H 337.687 4.11104 3.6371 0
M  V30 3327 H 337.948 2.37637 3.72802 0
M  V30 3328 N 337.007 -0.598083 1.45811 0
M  V30 3329 C 338.254 -1.35681 1.50323 0
M  V30 3330 C 338.582 -1.9393 0.148739 0
M  V30 3331 O 337.837 -1.76094 -0.853787 0
M  V30 3332 C 338.136 -2.51669 2.53766 0
M  V30 3333 C 337.802 -2.11508 3.98215 0
M  V30 3334 C 336.464 -2.0027 4.37545 0
M  V30 3335 C 338.816 -1.80308 4.89018 0
M  V30 3336 C 336.144 -1.56067 5.65562 0
M  V30 3337 C 338.496 -1.37589 6.17456 0
M  V30 3338 C 337.16 -1.24916 6.55708 0
M  V30 3339 H 336.43 -0.496492 0.550069 0
M  V30 3340 H 339.077 -0.675052 1.79207 0
M  V30 3341 H 337.382 -3.25225 2.18486 0
M  V30 3342 H 339.079 -3.09895 2.54492 0
M  V30 3343 H 335.669 -2.21185 3.67117 0
M  V30 3344 H 339.853 -1.87884 4.59362 0
M  V30 3345 H 335.109 -1.44886 5.93985 0
M  V30 3346 H 339.283 -1.12495 6.87254 0
M  V30 3347 H 336.91 -0.904386 7.54801 0
M  V30 3348 N 338.485 -1.33259 -0.841409 0
M  V30 3349 C 339.448 -1.23221 -1.9326 0
M  V30 3350 C 340.448 -0.151895 -1.60081 0
M  V30 3351 O 341.638 -0.403246 -1.69468 0
M  V30 3352 C 338.77 -0.898123 -3.28856 0
M  V30 3353 H 339.963 -2.2021 -2.03587 0
M  V30 3354 H 337.516 -1.17281 -1.03319 0
M  V30 3355 H 338.251 0.0693841 -3.24226 0
M  V30 3356 H 338.036 -1.67934 -3.54317 0
M  V30 3357 H 339.526 -0.852563 -4.08805 0
M  V30 3358 N 339.963 1.05934 -1.16686 0
M  V30 3359 C 340.895 2.13468 -0.834503 0
M  V30 3360 C 341.908 1.62013 0.15984 0
M  V30 3361 O 343.097 1.7838 -0.0654228 0
M  V30 3362 C 340.197 3.3817 -0.222361 0
M  V30 3363 C 339.37 4.18928 -1.25771 0
M  V30 3364 C 338.429 5.21985 -0.664703 0
M  V30 3365 O 337.455 5.53334 -1.33453 0
M  V30 3366 N 338.657 5.77919 0.546834 0
M  V30 3367 H 341.422 2.42578 -1.75999 0
M  V30 3368 H 338.983 1.21967 -1.06469 0
M  V30 3369 H 340.975 4.04266 0.187472 0
M  V30 3370 H 339.545 3.06655 0.606758 0
M  V30 3371 H 338.765 3.48433 -1.84358 0
M  V30 3372 H 340.053 4.69687 -1.95631 0
M  V30 3373 H 339.451 5.54721 1.10912 0
M  V30 3374 H 338.008 6.45573 0.898829 0
M  V30 3375 N 341.441 0.965919 1.2453 0
M  V30 3376 C 342.374 0.4393 2.23932 0
M  V30 3377 C 343.352 -0.485615 1.55179 0
M  V30 3378 O 344.536 -0.417402 1.83821 0
M  V30 3379 C 341.663 -0.366042 3.36716 0
M  V30 3380 C 340.709 0.5009 4.23548 0
M  V30 3381 S 341.542 1.94002 4.99123 0
M  V30 3382 C 342.698 1.14342 6.15367 0
M  V30 3383 H 342.931 1.28167 2.68254 0
M  V30 3384 H 340.464 0.770819 1.33782 0
M  V30 3385 H 342.422 -0.824724 4.0213 0
M  V30 3386 H 341.083 -1.18337 2.90956 0
M  V30 3387 H 340.276 -0.117341 5.03863 0
M  V30 3388 H 339.878 0.89524 3.63127 0
M  V30 3389 H 342.17 0.397572 6.76332 0
M  V30 3390 H 343.113 1.92089 6.81548 0
M  V30 3391 H 343.521 0.668579 5.60527 0
M  V30 3392 N 342.919 -1.39368 0.735821 0
M  V30 3393 C 344.165 -2.00794 0.284544 0
M  V30 3394 C 344.498 -1.58255 -1.12557 0
M  V30 3395 O 343.773 -0.811819 -1.76748 0
M  V30 3396 C 344.056 -3.58011 0.387337 0
M  V30 3397 C 343.909 -4.10566 1.83728 0
M  V30 3398 C 345.228 -4.395 -0.22975 0
M  V30 3399 H 342.347 -0.729501 0.104866 0
M  V30 3400 H 344.989 -1.65564 0.93213 0
M  V30 3401 H 343.139 -3.88154 -0.164006 0
M  V30 3402 H 344.811 -3.91139 2.44556 0
M  V30 3403 H 343.054 -3.64095 2.35833 0
M  V30 3404 H 343.725 -5.19702 1.86047 0
M  V30 3405 H 346.201 -4.15406 0.240257 0
M  V30 3406 H 345.077 -5.48752 -0.127485 0
M  V30 3407 H 345.338 -4.22062 -1.3159 0
M  V30 3408 N 344.397 -0.483516 -1.5 0
M  V30 3409 C 345.813 -0.138404 -1.58999 0
M  V30 3410 C 346.013 1.35597 -1.4905 0
M  V30 3411 O 345.069 2.13039 -1.35539 0
M  V30 3412 C 346.382 -0.699658 -2.92447 0
M  V30 3413 C 347.93 -0.664195 -3.05872 0
M  V30 3414 C 348.405 -1.20321 -4.41913 0
M  V30 3415 N 349.896 -1.16315 -4.48358 0
M  V30 3416 C 350.631 -1.55058 -5.52037 0
M  V30 3417 N 350.127 -2.01311 -6.62907 0
M  V30 3418 N 351.92 -1.46584 -5.42651 0
M  V30 3419 H 344.071 -1.45529 -1.5471 0
M  V30 3420 H 346.334 -0.60258 -0.731848 0
M  V30 3421 H 346.04 -1.747 -3.05242 0
M  V30 3422 H 345.914 -0.150194 -3.76901 0
M  V30 3423 H 348.301 0.374272 -2.92717 0
M  V30 3424 H 348.382 -1.25061 -2.23144 0
M  V30 3425 H 348.026 -2.24037 -4.55818 0
M  V30 3426 H 347.956 -0.592896 -5.23252 0
M  V30 3427 H 350.447 -0.824058 -3.68806 0
M  V30 3428 H 350.76 -2.2899 -7.38095 0
M  V30 3429 H 349.105 -2.05273 -6.63994 0
M  V30 3430 H 352.296 -1.10281 -4.54924 0
M  V30 3431 H 352.469 -1.77103 -6.23329 0
M  V30 3432 N 345.875 1.56104 -0.216619 0
M  V30 3433 C 346.805 2.23063 0.690296 0
M  V30 3434 C 347.786 1.20072 1.20485 0
M  V30 3435 O 348.971 1.48643 1.24976 0
M  V30 3436 C 346.101 2.90672 1.90072 0
M  V30 3437 C 345.055 4.00092 1.5202 0
M  V30 3438 C 344.381 4.54972 2.80899 0
M  V30 3439 C 345.681 5.17398 0.71391 0
M  V30 3440 H 347.375 2.99109 0.132038 0
M  V30 3441 H 344.921 1.43866 0.0620664 0
M  V30 3442 H 346.874 3.36204 2.54057 0
M  V30 3443 H 345.598 2.12066 2.48386 0
M  V30 3444 H 344.257 3.55283 0.903839 0
M  V30 3445 H 343.905 3.73102 3.37348 0
M  V30 3446 H 343.605 5.28817 2.56176 0
M  V30 3447 H 345.129 5.0322 3.45836 0
M  V30 3448 H 346.543 5.59342 1.25735 0
M  V30 3449 H 344.94 5.97444 0.563951 0
M  V30 3450 H 346.01 4.84088 -0.280527 0
M  V30 3451 N 347.353 -0.0568162 1.57498 0
M  V30 3452 C 348.303 -1.07315 2.01166 0
M  V30 3453 C 349.287 -1.33632 0.896171 0
M  V30 3454 O 350.479 -1.33682 1.16009 0
M  V30 3455 C 347.608 -2.38257 2.47161 0
M  V30 3456 C 346.694 -2.1515 3.65474 0
M  V30 3457 N 347.085 -1.62014 4.7915 0
M  V30 3458 C 345.383 -2.45559 3.72313 0
M  V30 3459 C 346.084 -1.54069 5.60926 0
M  V30 3460 N 345.06 -2.00652 5.05213 0
M  V30 3461 H 348.862 -0.655878 2.86488 0
M  V30 3462 H 346.376 -0.263635 1.60246 0
M  V30 3463 H 348.373 -3.11845 2.76691 0
M  V30 3464 H 347.033 -2.80687 1.63232 0
M  V30 3465 H 348.044 -1.30667 5.01145 0
M  V30 3466 H 344.721 -2.91253 2.99129 0
M  V30 3467 H 346.111 -1.13712 6.62208 0
M  V30 3468 N 348.832 -1.54138 -0.328536 0
M  V30 3469 C 349.779 -1.83176 -1.40411 0
M  V30 3470 C 350.749 -0.678494 -1.5161 0
M  V30 3471 O 351.934 -0.92443 -1.6691 0
M  V30 3472 C 349.074 -2.06035 -2.76846 0
M  V30 3473 C 348.187 -3.33727 -2.74318 0
M  V30 3474 C 347.322 -3.46574 -4.02567 0
M  V30 3475 C 346.361 -4.68159 -3.94327 0
M  V30 3476 N 345.498 -4.77959 -5.14296 0
M  V30 3477 H 350.338 -2.74938 -1.14948 0
M  V30 3478 H 347.875 -1.36166 -0.556538 0
M  V30 3479 H 349.833 -2.1728 -3.56153 0
M  V30 3480 H 348.463 -1.1757 -3.00628 0
M  V30 3481 H 347.515 -3.31246 -1.8703 0
M  V30 3482 H 348.827 -4.23139 -2.64111 0
M  V30 3483 H 347.981 -3.57333 -4.90304 0
M  V30 3484 H 346.72 -2.55245 -4.15574 0
M  V30 3485 H 345.725 -4.57461 -3.04974 0
M  V30 3486 H 346.95 -5.60868 -3.82889 0
M  V30 3487 H 344.896 -3.89544 -5.27818 0
M  V30 3488 H 344.813 -5.6133 -5.06404 0
M  V30 3489 H 346.081 -4.93044 -6.03761 0
M  V30 3490 N 350.31 0.590341 -1.46126 0
M  V30 3491 C 351.257 1.69994 -1.56111 0
M  V30 3492 C 352.227 1.61065 -0.405867 0
M  V30 3493 O 353.412 1.8039 -0.621613 0
M  V30 3494 C 350.552 3.08326 -1.55013 0
M  V30 3495 C 349.665 3.27936 -2.81215 0
M  V30 3496 C 348.8 4.56473 -2.71673 0
M  V30 3497 C 347.839 4.694 -3.92849 0
M  V30 3498 N 346.976 5.89254 -3.81738 0
M  V30 3499 H 351.816 1.60797 -2.50895 0
M  V30 3500 H 349.353 0.783799 -1.24479 0
M  V30 3501 H 351.311 3.88383 -1.52362 0
M  V30 3502 H 349.941 3.16439 -0.637667 0
M  V30 3503 H 348.993 2.41536 -2.93879 0
M  V30 3504 H 350.305 3.33357 -3.71045 0
M  V30 3505 H 349.459 5.44748 -2.67085 0
M  V30 3506 H 348.198 4.53477 -1.7947 0
M  V30 3507 H 347.203 3.79544 -3.97777 0
M  V30 3508 H 348.428 4.7418 -4.86138 0
M  V30 3509 H 346.374 5.87271 -2.92317 0
M  V30 3510 H 346.291 5.95911 -4.65217 0
M  V30 3511 H 347.559 6.79981 -3.81112 0
M  V30 3512 N 351.788 1.33704 0.83433 0
M  V30 3513 C 352.718 1.26967 1.95963 0
M  V30 3514 C 353.699 0.149337 1.69443 0
M  V30 3515 O 354.884 0.339852 1.91203 0
M  V30 3516 C 352.014 1.01275 3.32206 0
M  V30 3517 C 350.968 2.09652 3.73136 0
M  V30 3518 C 350.294 1.69166 5.07235 0
M  V30 3519 C 351.594 3.51372 3.86439 0
M  V30 3520 H 353.288 2.2112 2.01857 0
M  V30 3521 H 350.834 1.06447 0.969793 0
M  V30 3522 H 352.787 0.952106 4.10503 0
M  V30 3523 H 351.511 0.0356203 3.26581 0
M  V30 3524 H 350.17 2.14766 2.97104 0
M  V30 3525 H 349.818 0.701437 4.98085 0
M  V30 3526 H 349.518 2.41694 5.35591 0
M  V30 3527 H 351.042 1.64576 5.88003 0
M  V30 3528 H 352.456 3.48734 4.55036 0
M  V30 3529 H 350.853 4.22425 4.26236 0
M  V30 3530 H 351.923 3.89546 2.88759 0
M  V30 3531 N 353.266 -1.05314 1.17247 0
M  V30 3532 C 354.514 -1.77941 0.958194 0
M  V30 3533 C 354.835 -1.88089 -0.514556 0
M  V30 3534 O 354.105 -1.39676 -1.37359 0
M  V30 3535 H 352.685 -0.659116 0.351533 0
M  V30 3536 H 355.347 -1.27166 1.47699 0
M  V30 3537 H 354.443 -2.79663 1.38546 0
M  V30 3538 N 354.744 -0.972509 -1.24016 0
M  V30 3539 C 355.972 -0.654803 -1.96265 0
M  V30 3540 C 356.387 0.776708 -1.72083 0
M  V30 3541 O 355.744 1.52171 -1.00748 0
M  V30 3542 C 355.795 -0.92592 -3.49441 0
M  V30 3543 O 355.516 -2.30116 -3.72798 0
M  V30 3544 C 357.017 -0.623068 -4.38899 0
M  V30 3545 H 354.237 -0.243907 -0.6251 0
M  V30 3546 H 356.781 -1.30175 -1.57717 0
M  V30 3547 H 354.936 -0.325108 -3.86033 0
M  V30 3548 H 355.35 -2.38483 -4.67147 0
M  V30 3549 H 356.824 -0.863189 -5.45209 0
M  V30 3550 H 357.301 0.442754 -4.36963 0
M  V30 3551 H 357.907 -1.204 -4.07902 0
M  V30 3552 N 356.222 1.38976 -0.743202 0
M  V30 3553 C 357.132 2.3434 -0.110399 0
M  V30 3554 C 358.148 1.58741 0.712559 0
M  V30 3555 O 359.324 1.9099 0.639125 0
M  V30 3556 C 356.389 3.37812 0.780012 0
M  V30 3557 C 355.45 4.29263 -0.0561319 0
M  V30 3558 C 354.683 5.27793 0.791875 0
M  V30 3559 O 354.906 5.33043 2.03031 0
M  V30 3560 O 353.84 6.01512 0.216183 0
M  V30 3561 H 357.666 2.90129 -0.897714 0
M  V30 3562 H 355.251 1.40643 -0.503966 0
M  V30 3563 H 357.133 4.01194 1.28923 0
M  V30 3564 H 355.808 2.84395 1.546 0
M  V30 3565 H 354.715 3.69076 -0.611056 0
M  V30 3566 H 356.048 4.85907 -0.784531 0
M  V30 3567 N 357.7 0.491464 1.49741 0
M  V30 3568 C 358.61 -0.296835 2.32715 0
M  V30 3569 C 359.626 -0.976536 1.44013 0
M  V30 3570 O 360.802 -0.960023 1.77047 0
M  V30 3571 C 357.867 -1.35288 3.19215 0
M  V30 3572 C 356.928 -0.687632 4.23757 0
M  V30 3573 C 356.161 -1.69336 5.06123 0
M  V30 3574 O 356.384 -2.92219 4.89861 0
M  V30 3575 O 355.318 -1.25394 5.88693 0
M  V30 3576 H 359.144 0.382048 3.01287 0
M  V30 3577 H 356.729 0.252953 1.47243 0
M  V30 3578 H 358.611 -1.96411 3.72828 0
M  V30 3579 H 357.286 -2.01487 2.53347 0
M  V30 3580 H 356.193 -0.0369159 3.74082 0
M  V30 3581 H 357.526 -0.0682566 4.92153 0
M  V30 3582 N 359.178 -1.55987 0.224894 0
M  V30 3583 C 360.425 -1.9839 -0.4059 0
M  V30 3584 C 360.753 -1.11261 -1.59535 0
M  V30 3585 O 360.008 -0.158314 -1.95059 0
M  V30 3586 C 360.307 -3.46394 -0.880106 0
M  V30 3587 C 359.973 -4.5046 0.19918 0
M  V30 3588 C 358.635 -4.7864 0.495661 0
M  V30 3589 C 360.987 -5.12855 0.928939 0
M  V30 3590 C 358.315 -5.66497 1.52636 0
M  V30 3591 C 360.667 -6.01828 1.949 0
M  V30 3592 C 359.331 -6.28351 2.25236 0
M  V30 3593 H 358.601 -0.725961 -0.148529 0
M  V30 3594 H 361.248 -1.88668 0.328113 0
M  V30 3595 H 359.553 -3.53337 -1.69294 0
M  V30 3596 H 361.25 -3.76577 -1.37808 0
M  V30 3597 H 357.84 -4.28579 -0.0420526 0
M  V30 3598 H 362.024 -4.9115 0.713129 0
M  V30 3599 H 357.28 -5.8531 1.76698 0
M  V30 3600 H 361.454 -6.49225 2.51951 0
M  V30 3601 H 359.081 -6.96226 3.05244 0
M  V30 3602 N 360.656 0.0484629 -1.57525 0
M  V30 3603 C 362.067 0.597486 -1.76881 0
M  V30 3604 C 362.418 1.76664 -0.853475 0
M  V30 3605 O 361.543 2.16357 -0.0433656 0
M  V30 3606 C 362.138 1.09066 -3.20765 0
M  V30 3607 C 360.697 1.58535 -3.41385 0
M  V30 3608 C 359.844 0.514868 -2.72478 0
M  V30 3609 H 362.795 -0.177758 -1.57701 0
M  V30 3610 H 362.816 1.95875 -3.2621 0
M  V30 3611 H 362.328 0.239521 -3.8736 0
M  V30 3612 H 360.429 2.45898 -2.79937 0
M  V30 3613 H 360.542 1.64622 -4.49929 0
M  V30 3614 H 358.906 0.965407 -2.35695 0
M  V30 3615 H 359.689 -0.32648 -3.41744 0
M  V30 3616 N 362.134 1.5431 0.320358 0
M  V30 3617 C 363.064 1.86912 1.3995 0
M  V30 3618 C 364.045 0.726211 1.53819 0
M  V30 3619 O 365.23 0.980233 1.67646 0
M  V30 3620 C 362.36 2.09932 2.7667 0
M  V30 3621 C 361.314 3.25776 2.77586 0
M  V30 3622 C 360.64 3.34173 4.17412 0
M  V30 3623 C 361.94 4.6335 2.41048 0
M  V30 3624 H 363.634 2.77292 1.12914 0
M  V30 3625 H 361.18 1.33421 0.541738 0
M  V30 3626 H 363.133 2.31324 3.52232 0
M  V30 3627 H 361.857 1.16304 3.0519 0
M  V30 3628 H 360.516 3.04276 2.04479 0
M  V30 3629 H 360.164 2.38098 4.43078 0
M  V30 3630 H 359.864 4.12033 4.18931 0
M  V30 3631 H 361.388 3.57803 4.94782 0
M  V30 3632 H 362.802 4.84602 3.06324 0
M  V30 3633 H 361.199 5.43782 2.53813 0
M  V30 3634 H 362.269 4.65381 1.36193 0
M  V30 3635 N 363.613 -0.582584 1.46437 0
M  V30 3636 C 364.862 -1.337 1.5102 0
M  V30 3637 C 365.175 -1.94891 0.166359 0
M  V30 3638 O 366.381 -2.71351 0.0899954 0
M  V30 3639 C 364.837 -2.42315 2.66104 0
M  V30 3640 C 364.445 -1.87427 4.06909 0
M  V30 3641 C 366.189 -3.19099 2.79958 0
M  V30 3642 C 364.096 -2.93672 5.13333 0
M  V30 3643 H 363.026 -0.502619 0.562041 0
M  V30 3644 H 365.677 -0.621701 1.72647 0
M  V30 3645 H 364.059 -3.16645 2.37807 0
M  V30 3646 H 365.233 -1.19639 4.44998 0
M  V30 3647 H 363.548 -1.2331 3.97723 0
M  V30 3648 H 366.145 -3.9839 3.56636 0
M  V30 3649 H 366.488 -3.71695 1.87479 0
M  V30 3650 H 367.021 -2.51875 3.07902 0
M  V30 3651 H 363.76 -2.45962 6.07604 0
M  V30 3652 H 363.28 -3.59948 4.79789 0
M  V30 3653 H 364.959 -3.5762 5.39182 0
M  V30 3654 N 365.091 -1.34144 -0.827227 0
M  V30 3655 C 366.368 -1.16844 -1.56865 0
M  V30 3656 C 366.748 0.260654 -2.09485 0
M  V30 3657 O 366.096 1.26138 -1.9053 0
M  V30 3658 C 366.306 -2.21939 -2.6934 0
M  V30 3659 C 367.654 -2.56695 -3.3822 0
M  V30 3660 O 368.678 -2.20695 -2.79593 0
M  V30 3661 O 367.537 -3.18518 -4.44082 0
M  V30 3662 H 364.631 -0.452669 -0.692112 0
M  V30 3663 H 367.177 -1.45763 -0.868973 0
M  V30 3664 H 365.949 -3.17882 -2.28182 0
M  V30 3665 H 365.572 -1.94172 -3.46962 0
M  V30 3666 N 366.569 1.04691 -1.17803 0
M  V30 3667 C 367.501 2.12571 -0.857097 0
M  V30 3668 C 368.514 1.62174 0.142647 0
M  V30 3669 O 369.703 1.78301 -0.0843387 0
M  V30 3670 C 366.803 3.37915 -0.258216 0
M  V30 3671 C 365.976 4.1757 -1.30207 0
M  V30 3672 C 365.035 5.2125 -0.720029 0
M  V30 3673 O 364.061 5.51888 -1.39314 0
M  V30 3674 N 365.263 5.78466 0.485507 0
M  V30 3675 H 368.028 2.40698 -1.78562 0
M  V30 3676 H 365.589 1.20831 -1.07757 0
M  V30 3677 H 367.581 4.04442 0.144584 0
M  V30 3678 H 366.151 3.07281 0.574199 0
M  V30 3679 H 365.371 3.46458 -1.88043 0
M  V30 3680 H 366.659 4.67586 -2.00601 0
M  V30 3681 H 366.057 5.55866 1.05022 0
M  V30 3682 H 364.614 6.4649 0.830307 0
M  V30 3683 N 368.047 0.979072 1.23499 0
M  V30 3684 C 369.275 0.665202 1.95915 0
M  V30 3685 C 369.69 -0.767571 1.72493 0
M  V30 3686 O 369.047 -1.51635 1.01554 0
M  V30 3687 C 369.098 0.944438 3.48945 0
M  V30 3688 O 368.819 2.3209 3.71572 0
M  V30 3689 C 370.32 0.646336 4.38563 0
M  V30 3690 H 367.54 0.247218 0.623798 0
M  V30 3691 H 370.084 1.31009 1.57025 0
M  V30 3692 H 368.239 0.345575 3.85856 0
M  V30 3693 H 368.653 2.40957 4.65876 0
M  V30 3694 H 370.127 0.892091 5.44744 0
M  V30 3695 H 370.604 -0.419575 4.37191 0
M  V30 3696 H 371.21 1.22562 4.07258 0
M  V30 3697 N 369.525 -1.3858 0.750561 0
M  V30 3698 C 370.772 -2.00184 0.305373 0
M  V30 3699 C 371.1 -1.59575 -1.11203 0
M  V30 3700 O 370.355 -0.823236 -1.77542 0
M  V30 3701 C 370.654 -3.55455 0.372373 0
M  V30 3702 C 370.32 -4.15765 1.745 0
M  V30 3703 C 368.982 -4.31951 2.12065 0
M  V30 3704 C 371.334 -4.49067 2.64553 0
M  V30 3705 C 368.662 -4.78734 3.39162 0
M  V30 3706 C 371.014 -4.97265 3.91038 0
M  V30 3707 C 369.678 -5.11658 4.28676 0
M  V30 3708 H 368.948 -0.732526 0.111744 0
M  V30 3709 H 371.595 -1.65673 0.960451 0
M  V30 3710 H 369.9 -3.90084 -0.366272 0
M  V30 3711 H 371.597 -4.00999 0.00953918 0
M  V30 3712 H 368.187 -4.03579 1.44297 0
M  V30 3713 H 372.371 -4.36166 2.36796 0
M  V30 3714 H 367.627 -4.88062 3.68246 0
M  V30 3715 H 371.801 -5.22003 4.60962 0
M  V30 3716 H 369.428 -5.47668 5.27222 0
M  V30 3717 N 371.003 -0.499398 -1.49478 0
M  V30 3718 C 372.233 0.0424839 -2.06556 0
M  V30 3719 C 372.641 1.31514 -1.36018 0
M  V30 3720 O 371.984 1.78555 -0.431718 0
M  V30 3721 C 372.046 0.368074 -3.57611 0
M  V30 3722 C 371.71 -0.806631 -4.49825 0
M  V30 3723 C 372.707 -1.69667 -4.91436 0
M  V30 3724 C 370.392 -1.00498 -4.92144 0
M  V30 3725 C 372.386 -2.76923 -5.74101 0
M  V30 3726 C 370.073 -2.08072 -5.74586 0
M  V30 3727 C 371.071 -2.96119 -6.15469 0
M  V30 3728 O 370.759 -4.01836 -6.96264 0
M  V30 3729 H 370.491 -0.0165165 -0.675798 0
M  V30 3730 H 373.045 -0.695497 -1.93267 0
M  V30 3731 H 371.275 1.15963 -3.68903 0
M  V30 3732 H 372.964 0.848381 -3.96935 0
M  V30 3733 H 373.73 -1.55524 -4.59388 0
M  V30 3734 H 369.609 -0.329036 -4.59824 0
M  V30 3735 H 373.153 -3.45676 -6.05932 0
M  V30 3736 H 369.05 -2.22211 -6.06047 0
M  V30 3737 H 369.818 -3.9917 -7.14567 0
M  V30 3738 N 372.481 1.55866 -0.233164 0
M  V30 3739 C 373.892 1.847 0.272554 0
M  V30 3740 C 374.243 1.15477 1.58617 0
M  V30 3741 O 373.368 0.42841 2.12117 0
M  V30 3742 C 373.963 3.35071 0.501299 0
M  V30 3743 C 372.522 3.6418 0.951304 0
M  V30 3744 C 371.669 2.77292 0.0208209 0
M  V30 3745 H 374.62 1.52005 -0.456074 0
M  V30 3746 H 374.641 3.55906 1.34577 0
M  V30 3747 H 374.153 3.85424 -0.454936 0
M  V30 3748 H 372.254 3.19293 1.92049 0
M  V30 3749 H 372.367 4.72071 0.817675 0
M  V30 3750 H 370.731 2.49131 0.529723 0
M  V30 3751 H 371.514 3.30448 -0.93054 0
M  V30 3752 N 373.959 -0.0401083 1.57549 0
M  V30 3753 C 374.907 -1.06264 2.06908 0
M  V30 3754 C 375.901 -1.38132 0.980608 0
M  V30 3755 O 377.107 -1.37167 1.16556 0
M  V30 3756 H 373.482 -0.360166 0.660139 0
M  V30 3757 H 375.453 -0.620445 2.91878 0
M  V30 3758 C 374.202 -2.35846 2.55483 0
M  V30 3759 H 373.525 -2.12183 3.38849 0
M  V30 3760 H 374.965 -3.05765 2.93741 0
M  V30 3761 C 373.424 -3.0404 1.45126 0
M  V30 3762 O 373.954 -3.93424 0.811216 0
M  V30 3763 N 372.16 -2.65184 1.18852 0
M  V30 3764 H 371.707 -1.92584 1.71083 0
M  V30 3765 H 371.665 -3.1113 0.452244 0
M  V30 3766 N 375.437 -1.54477 -0.31217 0
M  V30 3767 C 376.387 -1.81037 -1.38598 0
M  V30 3768 C 377.371 -0.666941 -1.46426 0
M  V30 3769 O 378.563 -0.927269 -1.50767 0
M  V30 3770 C 375.692 -2.05127 -2.75277 0
M  V30 3771 C 374.778 -3.25624 -2.71716 0
M  V30 3772 N 375.169 -4.46428 -2.37773 0
M  V30 3773 C 373.467 -3.27427 -3.02833 0
M  V30 3774 C 374.168 -5.28406 -2.43232 0
M  V30 3775 N 373.144 -4.6586 -2.80135 0
M  V30 3776 H 376.946 -2.7201 -1.11301 0
M  V30 3777 H 374.46 -1.53826 -0.520705 0
M  V30 3778 H 376.457 -2.22299 -3.52688 0
M  V30 3779 H 375.117 -1.15416 -3.03495 0
M  V30 3780 H 376.128 -4.73227 -2.1042 0
M  V30 3781 H 372.805 -2.47786 -3.36018 0
M  V30 3782 H 374.195 -6.34903 -2.19882 0
M  V30 3783 N 376.915 0.57481 -1.46744 0
M  V30 3784 C 377.862 1.68329 -1.57905 0
M  V30 3785 C 378.832 1.60625 -0.422927 0
M  V30 3786 O 380.017 1.79721 -0.640711 0
M  V30 3787 C 377.157 3.06665 -1.58274 0
M  V30 3788 C 376.27 3.24935 -2.84678 0
M  V30 3789 C 375.405 4.53566 -2.76499 0
M  V30 3790 C 374.444 4.65207 -3.97806 0
M  V30 3791 N 373.581 5.85172 -3.87967 0
M  V30 3792 H 378.421 1.58127 -2.52587 0
M  V30 3793 H 375.958 0.770552 -1.25303 0
M  V30 3794 H 377.916 3.86745 -1.56473 0
M  V30 3795 H 376.546 3.15745 -0.671194 0
M  V30 3796 H 375.598 2.38405 -2.96424 0
M  V30 3797 H 376.91 3.29403 -3.7456 0
M  V30 3798 H 376.064 5.41885 -2.72848 0
M  V30 3799 H 374.803 4.51548 -1.8427 0
M  V30 3800 H 373.808 3.75304 -4.0178 0
M  V30 3801 H 375.033 4.68997 -4.9114 0
M  V30 3802 H 372.979 5.84137 -2.98529 0
M  V30 3803 H 372.896 5.90943 -4.71511 0
M  V30 3804 H 374.164 6.759 -3.88303 0
M  V30 3805 N 378.394 1.34581 0.820102 0
M  V30 3806 C 379.304 1.28471 1.96297 0
M  V30 3807 C 380.32 0.191902 1.72939 0
M  V30 3808 O 381.496 0.418879 1.96996 0
M  V30 3809 C 378.561 1.04281 3.30645 0
M  V30 3810 C 377.622 2.22745 3.66992 0
M  V30 3811 C 376.855 1.997 4.9493 0
M  V30 3812 O 377.078 0.956656 5.6232 0
M  V30 3813 O 376.012 2.86723 5.2922 0
M  V30 3814 H 379.838 2.24624 2.04396 0
M  V30 3815 H 377.423 1.14816 0.955913 0
M  V30 3816 H 379.305 0.925841 4.11104 0
M  V30 3817 H 377.98 0.111697 3.23507 0
M  V30 3818 H 376.887 2.40003 2.86966 0
M  V30 3819 H 378.22 3.14257 3.78819 0
M  V30 3820 N 379.872 -1.04064 1.18357 0
M  V30 3821 C 380.805 -2.11618 0.854 0
M  V30 3822 C 381.783 -1.61555 -0.184043 0
M  V30 3823 O 382.967 -1.88395 -0.0630048 0
M  V30 3824 C 380.094 -3.37574 0.27597 0
M  V30 3825 C 379.14 -4.06485 1.2912 0
M  V30 3826 S 379.973 -4.53543 2.84709 0
M  V30 3827 C 381.129 -5.82732 2.28417 0
M  V30 3828 H 381.362 -2.39247 1.76488 0
M  V30 3829 H 378.895 -1.16832 1.00944 0
M  V30 3830 H 380.853 -4.10468 -0.051026 0
M  V30 3831 H 379.514 -3.0806 -0.613028 0
M  V30 3832 H 378.707 -4.97024 0.835633 0
M  V30 3833 H 378.309 -3.39708 1.56443 0
M  V30 3834 H 380.601 -6.56677 1.66677 0
M  V30 3835 H 381.544 -6.33052 3.17256 0
M  V30 3836 H 381.952 -5.37838 1.71436 0
M  V30 3837 N 381.35 -0.985608 -1.22978 0
M  V30 3838 C 382.28 -0.549649 -2.26939 0
M  V30 3839 C 383.261 0.419803 -1.64838 0
M  V30 3840 O 384.446 0.31203 -1.91677 0
M  V30 3841 C 381.576 0.143652 -3.47003 0
M  V30 3842 C 380.53 -0.743606 -4.21491 0
M  V30 3843 C 379.856 0.0822027 -5.34637 0
M  V30 3844 C 381.156 -2.03694 -4.80943 0
M  V30 3845 H 382.85 -1.41862 -2.63658 0
M  V30 3846 H 380.396 -0.683571 -1.26741 0
M  V30 3847 H 382.349 0.459985 -4.18882 0
M  V30 3848 H 381.073 1.04711 -3.09359 0
M  V30 3849 H 379.732 -1.04347 -3.51436 0
M  V30 3850 H 379.38 0.986359 -4.93234 0
M  V30 3851 H 379.08 -0.508377 -5.85397 0
M  V30 3852 H 380.604 0.392797 -6.09335 0
M  V30 3853 H 382.018 -1.78504 -5.44802 0
M  V30 3854 H 380.415 -2.57573 -5.42011 0
M  V30 3855 H 381.485 -2.72042 -4.01399 0
M  V30 3856 N 382.828 1.3818 -0.7579 0
M  V30 3857 C 384.053 2.04827 -0.325679 0
M  V30 3858 C 384.478 1.56788 1.03919 0
M  V30 3859 O 383.836 0.721811 1.66312 0
M  V30 3860 C 383.884 3.58774 -0.362447 0
M  V30 3861 O 382.988 4.07372 0.642033 0
M  V30 3862 H 382.329 0.64833 -0.143402 0
M  V30 3863 H 384.859 1.7677 -1.03023 0
M  V30 3864 H 384.869 4.07434 -0.214844 0
M  V30 3865 H 383.544 3.93096 -1.35824 0
M  V30 3866 H 382.121 3.70068 0.458688 0
M  V30 3867 N 384.306 0.507319 1.49211 0
M  V30 3868 C 385.531 -0.033725 2.07373 0
M  V30 3869 C 385.956 -1.29485 1.36437 0
M  V30 3870 O 385.314 -1.76294 0.423087 0
M  V30 3871 C 385.362 -0.263945 3.59633 0
M  V30 3872 O 384.466 -1.33737 3.90113 0
M  V30 3873 H 383.807 0.0290331 0.663365 0
M  V30 3874 H 386.337 0.708749 1.91932 0
M  V30 3875 H 386.347 -0.493536 4.05004 0
M  V30 3876 H 385.022 0.657424 4.10671 0
M  V30 3877 H 383.599 -1.09224 3.56545 0
M  V30 3878 N 385.784 -1.5574 0.241426 0
M  V30 3879 C 387.012 -2.03208 -0.389134 0
M  V30 3880 C 387.427 -1.12082 -1.51931 0
M  V30 3881 O 386.784 -0.134183 -1.82006 0
M  V30 3882 C 386.835 -3.50064 -0.902087 0
M  V30 3883 O 386.556 -4.37717 0.18305 0
M  V30 3884 C 388.057 -4.13268 -1.60389 0
M  V30 3885 H 385.277 -0.664509 -0.0931053 0
M  V30 3886 H 387.821 -2.0124 0.36369 0
M  V30 3887 H 385.976 -3.52583 -1.60511 0
M  V30 3888 H 386.39 -5.24097 -0.205579 0
M  V30 3889 H 387.864 -5.17733 -1.91458 0
M  V30 3890 H 388.341 -3.59434 -2.52397 0
M  V30 3891 H 388.947 -4.14655 -0.945576 0
M  V30 3892 N 387.262 0.0317525 -1.57568 0
M  V30 3893 C 388.49 0.734949 -1.93407 0
M  V30 3894 C 388.905 1.69036 -0.84096 0
M  V30 3895 O 388.262 1.81582 0.182836 0
M  V30 3896 C 388.313 1.49432 -3.29169 0
M  V30 3897 O 388.034 0.577261 -4.3428 0
M  V30 3898 C 389.535 2.29492 -3.79273 0
M  V30 3899 H 386.755 0.206706 -0.638368 0
M  V30 3900 H 389.299 -0.00992046 -2.04498 0
M  V30 3901 H 387.454 2.1911 -3.19483 0
M  V30 3902 H 387.868 1.10952 -5.1263 0
M  V30 3903 H 389.342 2.78172 -4.76785 0
M  V30 3904 H 389.819 3.10794 -3.10328 0
M  V30 3905 H 390.425 1.64894 -3.92033 0
M  V30 3906 N 388.74 1.54641 0.303973 0
M  V30 3907 C 389.97 1.77511 1.05705 0
M  V30 3908 C 390.378 0.533228 1.81531 0
M  V30 3909 O 389.721 -0.506423 1.76582 0
M  V30 3910 C 389.783 2.92779 2.08617 0
M  V30 3911 C 389.447 4.30977 1.52013 0
M  V30 3912 C 390.444 5.11115 0.9517 0
M  V30 3913 C 388.129 4.77571 1.55665 0
M  V30 3914 C 390.123 6.35966 0.427327 0
M  V30 3915 C 387.81 6.02384 1.02841 0
M  V30 3916 C 388.808 6.81417 0.464713 0
M  V30 3917 O 388.496 8.03881 -0.0555283 0
M  V30 3918 H 388.228 0.59579 0.319391 0
M  V30 3919 H 390.782 2.02401 0.349712 0
M  V30 3920 H 389.012 2.63506 2.83022 0
M  V30 3921 H 390.701 3.03252 2.69802 0
M  V30 3922 H 391.467 4.76264 0.916407 0
M  V30 3923 H 387.346 4.16085 1.9848 0
M  V30 3924 H 390.89 6.97599 -0.0133062 0
M  V30 3925 H 386.787 6.36723 1.06084 0
M  V30 3926 H 387.555 8.18479 0.0580522 0
M  V30 3927 N 390.218 -0.567019 1.47046 0
M  V30 3928 C 391.629 -1.14916 1.47143 0
M  V30 3929 C 391.98 -1.94954 0.220767 0
M  V30 3930 O 391.105 -2.05602 -0.67505 0
M  V30 3931 C 391.7 -2.09069 2.666 0
M  V30 3932 C 390.259 -2.62575 2.69687 0
M  V30 3933 C 389.406 -1.38755 2.40088 0
M  V30 3934 H 392.357 -0.354126 1.54699 0
M  V30 3935 H 392.378 -2.92789 2.43011 0
M  V30 3936 H 391.89 -1.50789 3.57609 0
M  V30 3937 H 389.991 -3.24681 1.82792 0
M  V30 3938 H 390.104 -3.04239 3.70102 0
M  V30 3939 H 388.468 -1.69098 1.90468 0
M  V30 3940 H 389.251 -0.822822 3.33293 0
M  V30 3941 N 391.696 -1.35014 -0.812953 0
M  V30 3942 C 392.942 -1.2812 -1.57204 0
M  V30 3943 C 393.275 0.145869 -1.93651 0
M  V30 3944 O 392.55 1.0937 -1.60836 0
M  V30 3945 C 392.833 -2.18162 -2.86492 0
M  V30 3946 C 392.686 -3.69454 -2.56561 0
M  V30 3947 C 394.005 -2.07439 -3.88145 0
M  V30 3948 H 391.124 -0.466746 -0.570366 0
M  V30 3949 H 393.766 -1.65357 -0.935783 0
M  V30 3950 H 391.916 -1.86535 -3.40789 0
M  V30 3951 H 393.588 -4.11493 -2.08497 0
M  V30 3952 H 391.831 -3.9005 -1.89851 0
M  V30 3953 H 392.502 -4.27835 -3.48799 0
M  V30 3954 H 394.978 -2.35228 -3.4323 0
M  V30 3955 H 393.854 -2.7265 -4.76396 0
M  V30 3956 H 394.115 -1.05439 -4.29343 0
M  V30 3957 N 393.175 1.03435 -1.18907 0
M  V30 3958 C 394.421 1.77005 -0.989798 0
M  V30 3959 C 394.754 1.88205 0.478816 0
M  V30 3960 O 394.029 1.39481 1.35556 0
M  V30 3961 C 394.312 3.19925 -1.65287 0
M  V30 3962 C 394.165 3.1663 -3.19477 0
M  V30 3963 C 395.484 4.18189 -1.37134 0
M  V30 3964 H 392.603 0.642538 -0.360991 0
M  V30 3965 H 395.245 1.20784 -1.46667 0
M  V30 3966 H 393.395 3.67929 -1.24741 0
M  V30 3967 H 395.067 2.76567 -3.692 0
M  V30 3968 H 393.31 2.54491 -3.51307 0
M  V30 3969 H 393.981 4.1758 -3.61013 0
M  V30 3970 H 396.457 3.78761 -1.72276 0
M  V30 3971 H 395.333 5.16394 -1.86087 0
M  V30 3972 H 395.594 4.41112 -0.295424 0
M  V30 3973 N 394.653 0.992116 1.22453 0
M  V30 3974 C 395.899 0.668523 1.91464 0
M  V30 3975 C 396.232 -0.797313 1.77078 0
M  V30 3976 O 395.507 -1.5765 1.13916 0
M  V30 3977 C 395.79 1.07424 3.43703 0
M  V30 3978 C 395.643 2.59857 3.67143 0
M  V30 3979 C 396.962 0.626891 4.35612 0
M  V30 3980 H 394.081 0.244341 0.695318 0
M  V30 3981 H 396.723 1.2355 1.44345 0
M  V30 3982 H 394.873 0.591816 3.83966 0
M  V30 3983 H 396.545 3.15764 3.3629 0
M  V30 3984 H 394.788 3.01961 3.11451 0
M  V30 3985 H 395.459 2.83296 4.73759 0
M  V30 3986 H 397.935 1.04125 4.02861 0
M  V30 3987 H 396.811 0.939076 5.40807 0
M  V30 3988 H 397.072 -0.472457 4.39568 0
M  V30 3989 N 396.131 -1.37776 0.765217 0
M  V30 3990 C 397.078 -2.30342 0.145274 0
M  V30 3991 C 398.048 -1.5077 -0.696971 0
M  V30 3992 O 399.233 -1.79362 -0.650689 0
M  V30 3993 C 396.373 -3.37227 -0.732939 0
M  V30 3994 C 395.486 -4.31819 0.125199 0
M  V30 3995 C 394.621 -5.25777 -0.757107 0
M  V30 3996 C 393.66 -6.12012 0.103963 0
M  V30 3997 N 392.797 -6.98232 -0.735953 0
M  V30 3998 H 397.637 -2.8278 0.940195 0
M  V30 3999 H 395.174 -1.39211 0.475255 0
M  V30 4000 H 397.132 -3.97818 -1.25686 0
M  V30 4001 H 395.762 -2.86171 -1.49353 0
M  V30 4002 H 394.814 -3.7259 0.766865 0
M  V30 4003 H 396.126 -4.92509 0.789683 0
M  V30 4004 H 395.28 -5.91541 -1.34776 0
M  V30 4005 H 394.019 -4.65481 -1.45529 0
M  V30 4006 H 393.024 -5.45233 0.707197 0
M  V30 4007 H 394.249 -6.74379 0.799381 0
M  V30 4008 H 392.195 -6.40472 -1.41887 0
M  V30 4009 H 392.112 -7.55891 -0.128624 0
M  V30 4010 H 393.38 -7.68393 -1.31121 0
M  V30 4011 N 397.609 -0.515225 -1.4894 0
M  V30 4012 C 398.542 0.302518 -2.26186 0
M  V30 4013 C 399.52 0.957895 -1.31389 0
M  V30 4014 O 400.704 0.985198 -1.60705 0
M  V30 4015 C 397.831 1.42719 -3.07163 0
M  V30 4016 C 396.877 0.884736 -4.17223 0
M  V30 4017 S 397.71 -0.235767 -5.34981 0
M  V30 4018 C 398.866 0.891731 -6.19515 0
M  V30 4019 H 399.099 -0.353076 -2.95196 0
M  V30 4020 H 396.632 -0.300753 -1.51443 0
M  V30 4021 H 398.59 2.07152 -3.54398 0
M  V30 4022 H 397.251 2.05445 -2.37595 0
M  V30 4023 H 396.444 1.72801 -4.73451 0
M  V30 4024 H 396.046 0.317362 -3.72651 0
M  V30 4025 H 398.338 1.79377 -6.53322 0
M  V30 4026 H 399.281 0.367751 -7.07144 0
M  V30 4027 H 399.689 1.16548 -5.52338 0
M  V30 4028 N 399.087 1.5561 -0.249682 0
M  V30 4029 C 400.335 1.98618 0.373548 0
M  V30 4030 C 400.656 1.13919 1.58264 0
M  V30 4031 O 399.926 0.222637 1.94631 0
M  V30 4032 H 398.506 0.733571 0.141006 0
M  V30 4033 H 401.168 1.91748 -0.349117 0
M  V30 4034 H 400.264 3.04584 0.680796 0
M  V30 4035 N 400.565 -0.0233959 1.57583 0
M  V30 4036 C 401.515 -1.03023 2.03397 0
M  V30 4037 C 402.499 -1.31701 0.924315 0
M  V30 4038 O 403.691 -1.31191 1.18819 0
M  V30 4039 C 400.82 -2.32961 2.52159 0
M  V30 4040 C 399.906 -2.07349 3.69956 0
M  V30 4041 N 400.297 -1.51814 4.82479 0
M  V30 4042 C 398.595 -2.37606 3.77438 0
M  V30 4043 C 399.296 -1.42136 5.64068 0
M  V30 4044 N 398.272 -1.89891 5.09355 0
M  V30 4045 H 402.074 -0.594962 2.87815 0
M  V30 4046 H 399.588 -0.229586 1.60769 0
M  V30 4047 H 401.585 -3.05906 2.83244 0
M  V30 4048 H 400.245 -2.77162 1.69149 0
M  V30 4049 H 401.256 -1.20008 5.03804 0
M  V30 4050 H 397.933 -2.84842 3.05239 0
M  V30 4051 H 399.323 -0.996405 6.64471 0
M  V30 4052 N 402.043 -1.548 -0.295768 0
M  V30 4053 C 403.006 -1.85363 -1.34808 0
M  V30 4054 C 404.006 -0.726817 -1.43436 0
M  V30 4055 O 405.196 -0.995088 -1.42981 0
M  V30 4056 C 402.328 -2.03859 -2.73229 0
M  V30 4057 H 403.521 -2.7941 -1.08949 0
M  V30 4058 H 401.074 -1.46942 -0.532702 0
M  V30 4059 H 401.809 -1.12117 -3.04303 0
M  V30 4060 H 401.594 -2.8588 -2.68356 0
M  V30 4061 H 403.084 -2.28857 -3.49305 0
M  V30 4062 N 403.521 0.559213 -1.47345 0
M  V30 4063 C 404.471 1.66192 -1.5609 0
M  V30 4064 C 405.455 1.55323 -0.419957 0
M  V30 4065 O 406.647 1.63839 -0.669762 0
M  V30 4066 C 403.776 3.0497 -1.57634 0
M  V30 4067 C 402.862 3.2105 -2.77106 0
M  V30 4068 N 403.253 3.07203 -4.01821 0
M  V30 4069 C 401.551 3.52046 -2.73825 0
M  V30 4070 C 402.252 3.25919 -4.81821 0
M  V30 4071 N 401.228 3.52161 -4.14106 0
M  V30 4072 H 405.03 1.54052 -2.5029 0
M  V30 4073 H 402.544 0.763914 -1.43311 0
M  V30 4074 H 404.541 3.84142 -1.61989 0
M  V30 4075 H 403.201 3.18224 -0.645281 0
M  V30 4076 H 404.212 2.84572 -4.32711 0
M  V30 4077 H 400.889 3.71839 -1.89848 0
M  V30 4078 H 402.279 3.20198 -5.90697 0
M  V30 4079 N 404.999 1.35443 0.805782 0
M  V30 4080 C 406.224 1.32037 1.59941 0
M  V30 4081 C 406.649 -0.0994215 1.87837 0
M  V30 4082 O 406.007 -1.06648 1.46615 0
M  V30 4083 C 406.055 2.13354 2.90711 0
M  V30 4084 O 405.159 1.5148 3.83572 0
M  V30 4085 H 404.5 0.452666 0.485787 0
M  V30 4086 H 407.03 1.78496 1.00002 0
M  V30 4087 H 407.04 2.25338 3.40128 0
M  V30 4088 H 405.715 3.16572 2.69732 0
M  V30 4089 H 404.292 1.4834 3.42125 0
M  V30 4090 N 406.477 -1.02803 1.19454 0
M  V30 4091 C 407.725 -1.75869 0.995722 0
M  V30 4092 C 408.046 -1.89138 -0.474543 0
M  V30 4093 O 407.316 -1.42558 -1.34366 0
M  V30 4094 H 405.896 -0.651511 0.365435 0
M  V30 4095 H 408.558 -1.24004 1.50363 0
M  V30 4096 H 407.654 -2.76661 1.44447 0
M  V30 4097 N 407.956 -0.998596 -1.21925 0
M  V30 4098 C 408.889 -0.498517 -2.22688 0
M  V30 4099 C 409.867 0.444301 -1.56412 0
M  V30 4100 O 411.051 0.368518 -1.84863 0
M  V30 4101 C 408.178 0.276639 -3.37568 0
M  V30 4102 C 407.224 -0.61302 -4.22071 0
M  V30 4103 S 408.057 -2.07168 -4.93803 0
M  V30 4104 C 409.213 -1.30617 -6.12119 0
M  V30 4105 H 409.446 -1.35234 -2.64762 0
M  V30 4106 H 406.979 -0.806018 -1.31692 0
M  V30 4107 H 408.937 0.717817 -4.04175 0
M  V30 4108 H 407.598 1.10581 -2.93991 0
M  V30 4109 H 406.791 -0.0162909 -5.03997 0
M  V30 4110 H 406.393 -0.991202 -3.60626 0
M  V30 4111 H 408.685 -0.57675 -6.75041 0
M  V30 4112 H 409.628 -2.10091 -6.76215 0
M  V30 4113 H 410.036 -0.816957 -5.58557 0
M  V30 4114 N 409.434 1.37368 -0.772513 0
M  V30 4115 C 410.682 1.99279 -0.336516 0
M  V30 4116 C 411.003 1.6163 1.09091 0
M  V30 4117 O 410.273 0.882109 1.74916 0
M  V30 4118 H 408.853 0.737063 -0.121435 0
M  V30 4119 H 411.515 1.67836 -0.990809 0
M  V30 4120 H 410.611 3.09332 -0.414763 0
M  V30 4121 N 410.912 0.523116 1.48665 0
M  V30 4122 C 411.859 -0.243398 2.29513 0
M  V30 4123 C 412.829 -0.940139 1.36933 0
M  V30 4124 O 414.014 -0.942503 1.65896 0
M  V30 4125 C 411.154 -1.28855 3.20141 0
M  V30 4126 C 410.267 -0.60135 4.27794 0
M  V30 4127 C 409.402 -1.62884 5.05611 0
M  V30 4128 C 408.441 -0.924726 6.05075 0
M  V30 4129 N 407.578 -1.89744 6.75975 0
M  V30 4130 H 412.418 0.452234 2.94549 0
M  V30 4131 H 409.955 0.234858 1.45213 0
M  V30 4132 H 411.913 -1.90674 3.71079 0
M  V30 4133 H 410.543 -1.95266 2.57043 0
M  V30 4134 H 409.595 0.130623 3.80176 0
M  V30 4135 H 410.907 -0.0481585 4.98777 0
M  V30 4136 H 410.061 -2.32149 5.60528 0
M  V30 4137 H 408.8 -2.21592 4.34452 0
M  V30 4138 H 407.805 -0.217966 5.49368 0
M  V30 4139 H 409.03 -0.343851 6.78229 0
M  V30 4140 H 406.976 -2.47373 6.07571 0
M  V30 4141 H 406.893 -1.3955 7.43009 0
M  V30 4142 H 408.161 -2.58229 7.35485 0
M  V30 4143 N 412.39 -1.55475 0.257931 0
M  V30 4144 C 413.636 -1.99502 -0.364266 0
M  V30 4145 C 413.969 -1.146 -1.56782 0
M  V30 4146 O 413.244 -0.211968 -1.93342 0
M  V30 4147 C 413.527 -3.51917 -0.763333 0
M  V30 4148 C 413.38 -4.4758 0.446371 0
M  V30 4149 C 414.699 -4.09742 -1.60623 0
M  V30 4150 H 411.818 -0.725277 -0.130929 0
M  V30 4151 H 414.46 -1.8653 0.361446 0
M  V30 4152 H 412.61 -3.63101 -1.38166 0
M  V30 4153 H 414.282 -4.48362 1.08487 0
M  V30 4154 H 412.525 -4.19947 1.08753 0
M  V30 4155 H 413.196 -5.51862 0.123645 0
M  V30 4156 H 415.672 -4.01727 -1.08418 0
M  V30 4157 H 414.548 -5.16631 -1.85429 0
M  V30 4158 H 414.809 -3.58889 -2.58169 0
M  V30 4159 N 413.868 0.0150385 -1.57593 0
M  V30 4160 C 414.815 1.01126 -2.07466 0
M  V30 4161 C 415.785 1.35064 -0.966794 0
M  V30 4162 O 416.97 1.4516 -1.23827 0
M  V30 4163 C 414.11 2.30276 -2.57035 0
M  V30 4164 C 413.223 2.02373 -3.81666 0
M  V30 4165 C 412.358 3.25496 -4.19793 0
M  V30 4166 C 411.397 2.93211 -5.37303 0
M  V30 4167 N 410.534 4.08826 -5.70794 0
M  V30 4168 H 415.374 0.57901 -2.92321 0
M  V30 4169 H 412.911 0.27426 -1.44521 0
M  V30 4170 H 414.869 3.05757 -2.83846 0
M  V30 4171 H 413.499 2.71197 -1.75077 0
M  V30 4172 H 412.551 1.17327 -3.61854 0
M  V30 4173 H 413.863 1.74567 -4.67256 0
M  V30 4174 H 413.017 4.09333 -4.47807 0
M  V30 4175 H 411.756 3.56428 -3.32882 0
M  V30 4176 H 410.761 2.07777 -5.09027 0
M  V30 4177 H 411.986 2.63542 -6.25877 0
M  V30 4178 H 409.932 4.39682 -4.86842 0
M  V30 4179 H 409.849 3.84491 -6.50924 0
M  V30 4180 H 411.117 4.93496 -6.03392 0
M  V30 4181 N 415.346 1.54954 0.287554 0
M  V30 4182 C 416.592 1.75132 1.02257 0
M  V30 4183 C 416.925 0.542858 1.86458 0
M  V30 4184 O 416.2 -0.459856 1.88986 0
M  V30 4185 C 416.483 3.04812 1.91733 0
M  V30 4186 C 416.336 4.35985 1.10622 0
M  V30 4187 C 417.655 3.30438 2.90687 0
M  V30 4188 H 414.774 0.637194 0.370341 0
M  V30 4189 H 417.416 1.87678 0.296111 0
M  V30 4190 H 415.566 2.94247 2.53675 0
M  V30 4191 H 417.238 4.58487 0.508636 0
M  V30 4192 H 415.481 4.31865 0.409271 0
M  V30 4193 H 416.152 5.23017 1.76513 0
M  V30 4194 H 418.628 3.40701 2.38877 0
M  V30 4195 H 417.504 4.22467 3.50447 0
M  V30 4196 H 417.765 2.49377 3.65053 0
M  V30 4197 N 416.824 -0.551391 1.4764 0
M  V30 4198 C 418.101 -1.31229 1.45046 0
M  V30 4199 C 418.481 -2.10563 0.150527 0
M  V30 4200 O 417.829 -2.11374 -0.867956 0
M  V30 4201 C 418.039 -2.21189 2.69956 0
M  V30 4202 C 419.387 -2.82021 3.1741 0
M  V30 4203 O 420.411 -2.31488 2.70724 0
M  V30 4204 O 419.27 -3.73885 3.98588 0
M  V30 4205 H 416.364 -0.591193 0.578291 0
M  V30 4206 H 418.91 -0.569813 1.59847 0
M  V30 4207 H 417.682 -1.62207 3.56096 0
M  V30 4208 H 417.305 -3.02722 2.57769 0
M  V30 4209 N 418.302 -1.35869 -0.798587 0
M  V30 4210 C 419.25 -1.29491 -1.93222 0
M  V30 4211 C 420.244 -0.18836 -1.6835 0
M  V30 4212 O 421.45 -0.354822 -1.76468 0
M  V30 4213 H 417.825 -0.402901 -0.63496 0
M  V30 4214 H 419.796 -2.25247 -1.9572 0
M  V30 4215 C 418.545 -1.09184 -3.30112 0
M  V30 4216 H 417.868 -1.93574 -3.49813 0
M  V30 4217 H 419.308 -1.08766 -4.09812 0
M  V30 4218 C 417.767 0.203959 -3.36282 0
M  V30 4219 O 418.297 1.19699 -3.83451 0
M  V30 4220 N 416.503 0.245488 -2.89561 0
M  V30 4221 H 416.05 -0.563223 -2.51367 0
M  V30 4222 H 416.008 1.11219 -2.94071 0
M  V30 4223 N 419.78 1.02168 -1.19998 0
M  V30 4224 C 420.712 2.10705 -0.901994 0
M  V30 4225 C 421.725 1.6244 0.108216 0
M  V30 4226 O 422.914 1.78082 -0.12214 0
M  V30 4227 C 420.014 3.37291 -0.329834 0
M  V30 4228 C 419.187 4.14714 -1.39035 0
M  V30 4229 C 418.246 5.19606 -0.830432 0
M  V30 4230 O 417.272 5.48809 -1.50989 0
M  V30 4231 N 418.474 5.79366 0.362696 0
M  V30 4232 H 421.239 2.36856 -1.83628 0
M  V30 4233 H 418.8 1.18518 -1.10296 0
M  V30 4234 H 420.792 4.04657 0.0587633 0
M  V30 4235 H 419.362 3.0843 0.508891 0
M  V30 4236 H 418.582 3.42392 -1.9535 0
M  V30 4237 H 419.87 4.63226 -2.10474 0
M  V30 4238 H 419.268 5.57968 0.932081 0
M  V30 4239 H 417.825 6.48106 0.69299 0
M  V30 4240 N 421.258 1.00505 1.21394 0
M  V30 4241 C 422.208 0.536503 2.21598 0
M  V30 4242 C 423.192 -0.401914 1.55799 0
M  V30 4243 O 424.384 -0.226757 1.75541 0
M  V30 4244 C 421.513 -0.135446 3.43033 0
M  V30 4245 C 420.599 0.823992 4.16018 0
M  V30 4246 N 420.99 1.97683 4.6557 0
M  V30 4247 C 419.288 0.642387 4.4135 0
M  V30 4248 C 419.989 2.58003 5.21354 0
M  V30 4249 N 418.965 1.86162 5.1073 0
M  V30 4250 H 422.767 1.41557 2.57563 0
M  V30 4251 H 420.281 0.868878 1.37202 0
M  V30 4252 H 422.278 -0.488584 4.14027 0
M  V30 4253 H 420.938 -1.01049 3.08576 0
M  V30 4254 H 421.949 2.3572 4.61147 0
M  V30 4255 H 418.626 -0.185578 4.17087 0
M  V30 4256 H 420.016 3.555 5.70149 0
M  V30 4257 N 422.737 -1.36956 0.779787 0
M  V30 4258 C 424.014 -1.93697 0.272156 0
M  V30 4259 C 424.394 -1.71267 -1.23413 0
M  V30 4260 O 423.742 -1.06607 -2.02107 0
M  V30 4261 C 423.952 -3.42812 0.654291 0
M  V30 4262 C 425.3 -4.19921 0.628602 0
M  V30 4263 O 426.324 -3.51209 0.594172 0
M  V30 4264 O 425.183 -5.42465 0.662864 0
M  V30 4265 H 422.277 -0.824447 0.0649286 0
M  V30 4266 H 424.823 -1.46196 0.861682 0
M  V30 4267 H 423.595 -3.52754 1.69353 0
M  V30 4268 H 423.218 -3.97582 0.0381369 0
M  V30 4269 N 424.215 -0.530993 -1.48385 0
M  V30 4270 C 425.462 0.0027373 -2.025 0
M  V30 4271 C 425.79 1.34186 -1.40799 0
M  V30 4272 O 425.045 1.88 -0.543544 0
M  V30 4273 C 425.344 0.172742 -3.56982 0
M  V30 4274 C 425.01 -1.09215 -4.37473 0
M  V30 4275 C 423.672 -1.43881 -4.59186 0
M  V30 4276 C 426.024 -1.93153 -4.84088 0
M  V30 4277 C 423.352 -2.62381 -5.2476 0
M  V30 4278 C 425.704 -3.10833 -5.50968 0
M  V30 4279 C 424.368 -3.45843 -5.70919 0
M  V30 4280 H 423.638 0.00100165 -0.740999 0
M  V30 4281 H 426.285 -0.697219 -1.78357 0
M  V30 4282 H 424.59 0.955473 -3.79971 0
M  V30 4283 H 426.287 0.600642 -3.96476 0
M  V30 4284 H 422.877 -0.812177 -4.20834 0
M  V30 4285 H 427.061 -1.67683 -4.67115 0
M  V30 4286 H 422.317 -2.89707 -5.38405 0
M  V30 4287 H 426.491 -3.7618 -5.86056 0
M  V30 4288 H 424.118 -4.37764 -6.21503 0
M  V30 4289 N 425.693 1.55336 -0.266172 0
M  V30 4290 C 426.625 2.19544 0.658247 0
M  V30 4291 C 427.638 1.17746 1.12427 0
M  V30 4292 O 428.827 1.44517 1.04772 0
M  V30 4293 C 425.927 2.80032 1.9088 0
M  V30 4294 C 425.1 4.07436 1.59106 0
M  V30 4295 C 424.159 4.52056 2.69317 0
M  V30 4296 O 423.185 5.18023 2.35883 0
M  V30 4297 N 424.387 4.21448 3.99201 0
M  V30 4298 H 427.152 2.99503 0.108754 0
M  V30 4299 H 424.713 1.61667 -0.0869059 0
M  V30 4300 H 426.705 3.06831 2.63888 0
M  V30 4301 H 425.275 2.04119 2.36758 0
M  V30 4302 H 424.495 3.88021 0.695243 0
M  V30 4303 H 425.783 4.90462 1.35367 0
M  V30 4304 H 425.181 3.68528 4.29189 0
M  V30 4305 H 423.738 4.53039 4.68614 0
M  V30 4306 N 427.171 -0.0066808 1.57599 0
M  V30 4307 C 428.448 -0.729586 1.81484 0
M  V30 4308 C 428.828 -1.92359 0.869558 0
M  V30 4309 O 428.176 -2.28348 -0.0832533 0
M  V30 4310 C 428.386 -1.1416 3.29801 0
M  V30 4311 C 429.734 -1.54823 3.95367 0
M  V30 4312 O 430.758 -1.23558 3.34084 0
M  V30 4313 O 429.617 -2.12937 5.03309 0
M  V30 4314 H 426.711 -0.354674 0.747085 0
M  V30 4315 H 429.257 0.0182609 1.6969 0
M  V30 4316 H 428.029 -0.290231 3.90222 0
M  V30 4317 H 427.652 -1.94876 3.46568 0
M  V30 4318 N 428.649 -1.55105 -0.279332 0
M  V30 4319 C 429.898 -1.74618 -1.00952 0
M  V30 4320 C 430.211 -0.551096 -1.87676 0
M  V30 4321 O 431.417 -0.628507 -2.64125 0
M  V30 4322 C 429.873 -3.09025 -1.84476 0
M  V30 4323 C 429.481 -4.36081 -1.0265 0
M  V30 4324 C 431.225 -3.37891 -2.56963 0
M  V30 4325 C 429.132 -5.6153 -1.85576 0
M  V30 4326 H 428.062 -0.650868 -0.38064 0
M  V30 4327 H 430.713 -1.81569 -0.265475 0
M  V30 4328 H 429.095 -2.96095 -2.62952 0
M  V30 4329 H 430.269 -4.59909 -0.286354 0
M  V30 4330 H 428.584 -4.14312 -0.416464 0
M  V30 4331 H 431.181 -4.28822 -3.19399 0
M  V30 4332 H 431.524 -2.57737 -3.26921 0
M  V30 4333 H 432.057 -3.5189 -1.85522 0
M  V30 4334 H 428.796 -6.44413 -1.2005 0
M  V30 4335 H 428.316 -5.41854 -2.57204 0
M  V30 4336 H 429.995 -5.99594 -2.43096 0
M  V30 4337 N 430.127 0.543554 -1.4793 0
M  V30 4338 C 431.09 1.63156 -1.60975 0
M  V30 4339 C 432.09 1.53346 -0.483899 0
M  V30 4340 O 433.28 1.5726 -0.749339 0
M  V30 4341 C 430.412 3.02743 -1.56716 0
M  V30 4342 H 431.605 1.52934 -2.57975 0
M  V30 4343 H 429.158 0.764557 -1.36324 0
M  V30 4344 H 429.893 3.18484 -0.611418 0
M  V30 4345 H 429.678 3.11272 -2.38438 0
M  V30 4346 H 431.168 3.81871 -1.6901 0
M  V30 4347 N 431.605 1.3629 0.791371 0
M  V30 4348 C 432.83 1.33726 1.58531 0
M  V30 4349 C 433.255 -0.0794933 1.87932 0
M  V30 4350 O 432.613 -1.05087 1.47738 0
M  V30 4351 C 432.661 2.16425 2.88431 0
M  V30 4352 O 431.765 1.5554 3.81944 0
M  V30 4353 H 431.106 0.457793 0.480959 0
M  V30 4354 H 433.636 1.79547 0.981031 0
M  V30 4355 H 433.646 2.28933 3.37718 0
M  V30 4356 H 432.321 3.19415 2.66359 0
M  V30 4357 H 430.898 1.51961 3.40532 0
M  V30 4358 N 433.083 -1.0153 1.20538 0
M  V30 4359 C 434.329 -1.75408 1.01783 0
M  V30 4360 C 434.662 -1.88943 -0.448814 0
M  V30 4361 O 433.937 -1.4162 -1.33319 0
M  V30 4362 C 434.22 -3.17255 1.70356 0
M  V30 4363 C 434.073 -3.11508 3.24473 0
M  V30 4364 C 435.392 -4.15955 1.43769 0
M  V30 4365 H 432.511 -0.636713 0.371167 0
M  V30 4366 H 435.153 -1.18436 1.4857 0
M  V30 4367 H 433.303 -3.65898 1.30578 0
M  V30 4368 H 434.975 -2.70658 3.73553 0
M  V30 4369 H 433.218 -2.4887 3.55311 0
M  V30 4370 H 433.889 -4.11784 3.67611 0
M  V30 4371 H 436.365 -3.75973 1.7828 0
M  V30 4372 H 435.241 -5.13368 1.94279 0
M  V30 4373 H 435.502 -4.40586 0.365564 0
M  V30 4374 N 434.561 -1.01147 -1.20859 0
M  V30 4375 C 435.807 -0.698899 -1.90377 0
M  V30 4376 C 436.14 0.76904 -1.78324 0
M  V30 4377 O 435.415 1.55817 -1.16409 0
M  V30 4378 C 435.698 -1.12878 -3.41951 0
M  V30 4379 C 435.551 -2.65665 -3.62963 0
M  V30 4380 C 436.87 -0.696114 -4.3456 0
M  V30 4381 H 433.989 -0.255372 -0.691342 0
M  V30 4382 H 436.631 -1.25831 -1.42361 0
M  V30 4383 H 434.781 -0.652827 -3.82976 0
M  V30 4384 H 436.453 -3.21074 -3.31224 0
M  V30 4385 H 434.696 -3.06878 -3.06608 0
M  V30 4386 H 435.367 -2.90797 -4.69192 0
M  V30 4387 H 437.843 -1.10521 -4.01154 0
M  V30 4388 H 436.719 -1.025 -5.39245 0
M  V30 4389 H 436.98 0.402465 -4.40264 0
M  V30 4390 N 436.039 1.36541 -0.78704 0
M  V30 4391 C 437.002 2.28413 -0.189778 0
M  V30 4392 C 438.002 1.48719 0.611499 0
M  V30 4393 O 439.192 1.68737 0.432842 0
M  V30 4394 C 436.324 3.32824 0.737638 0
M  V30 4395 H 437.517 2.82743 -0.999831 0
M  V30 4396 H 435.07 1.46065 -0.556298 0
M  V30 4397 H 435.805 2.83646 1.57212 0
M  V30 4398 H 435.59 3.91752 0.165044 0
M  V30 4399 H 437.08 4.0144 1.15047 0
M  V30 4400 N 437.518 0.538854 1.48102 0
M  V30 4401 C 438.448 -0.207654 2.32575 0
M  V30 4402 C 439.429 -0.926559 1.4265 0
M  V30 4403 O 440.614 -0.91061 1.71527 0
M  V30 4404 C 437.744 -1.24957 3.24042 0
M  V30 4405 C 436.698 -0.648263 4.23062 0
M  V30 4406 C 436.024 -1.79348 5.03725 0
M  V30 4407 C 437.324 0.385897 5.20872 0
M  V30 4408 H 439.018 0.497534 2.95237 0
M  V30 4409 H 436.564 0.240715 1.41974 0
M  V30 4410 H 438.517 -1.77983 3.81969 0
M  V30 4411 H 437.241 -1.98446 2.59397 0
M  V30 4412 H 435.9 -0.139452 3.66335 0
M  V30 4413 H 435.548 -2.51696 4.35498 0
M  V30 4414 H 435.248 -1.39702 5.70751 0
M  V30 4415 H 436.772 -2.32735 5.64506 0
M  V30 4416 H 438.186 -0.057607 5.73271 0
M  V30 4417 H 436.583 0.700227 5.96001 0
M  V30 4418 H 437.653 1.28848 4.67468 0
M  V30 4419 N 438.996 -1.55193 0.274407 0
M  V30 4420 C 440.224 -2.03987 -0.345943 0
M  V30 4421 C 440.639 -1.15279 -1.4952 0
M  V30 4422 O 439.996 -0.172759 -1.8168 0
M  V30 4423 C 440.047 -3.51898 -0.827631 0
M  V30 4424 O 439.768 -4.37231 0.275855 0
M  V30 4425 C 441.269 -4.16577 -1.51587 0
M  V30 4426 H 438.489 -0.666335 -0.0789892 0
M  V30 4427 H 441.033 -2.00423 0.406294 0
M  V30 4428 H 439.188 -3.55909 -1.52996 0
M  V30 4429 H 439.602 -5.24415 -0.0943638 0
M  V30 4430 H 441.076 -5.21678 -1.80433 0
M  V30 4431 H 441.553 -3.64707 -2.44716 0
M  V30 4432 H 442.159 -4.16568 -0.857409 0
M  V30 4433 N 440.474 -0.00167713 -1.576 0
M  V30 4434 C 441.421 0.989195 -2.08527 0
M  V30 4435 C 442.391 1.34031 -0.981065 0
M  V30 4436 O 443.576 1.43839 -1.2536 0
M  V30 4437 C 440.716 2.27537 -2.59463 0
M  V30 4438 C 439.829 1.98314 -3.83791 0
M  V30 4439 C 438.964 3.21025 -4.23222 0
M  V30 4440 C 438.003 2.87495 -5.40382 0
M  V30 4441 N 437.14 4.02749 -5.75098 0
M  V30 4442 H 441.98 0.547973 -2.92919 0
M  V30 4443 H 439.517 0.258917 -1.44803 0
M  V30 4444 H 441.475 3.02729 -2.87073 0
M  V30 4445 H 440.105 2.69325 -1.77943 0
M  V30 4446 H 439.157 1.13482 -3.63078 0
M  V30 4447 H 440.469 1.69601 -4.69081 0
M  V30 4448 H 439.623 4.04561 -4.52123 0
M  V30 4449 H 438.362 3.52877 -3.36644 0
M  V30 4450 H 437.367 2.02367 -5.11202 0
M  V30 4451 H 438.592 2.56889 -6.28637 0
M  V30 4452 H 436.538 4.34494 -4.91478 0
M  V30 4453 H 436.455 3.77566 -6.54966 0
M  V30 4454 H 437.723 4.87068 -6.08592 0
M  V30 4455 N 441.952 1.55251 0.271103 0
M  V30 4456 C 443.18 1.79974 1.02064 0
M  V30 4457 C 443.595 0.574003 1.79863 0
M  V30 4458 O 442.952 -0.456962 1.76686 0
M  V30 4459 C 443.003 3.02603 1.97772 0
M  V30 4460 O 442.724 4.20443 1.23124 0
M  V30 4461 C 444.225 3.39944 2.84522 0
M  V30 4462 H 441.445 0.599489 0.301419 0
M  V30 4463 H 443.989 2.02268 0.301313 0
M  V30 4464 H 442.144 2.8243 2.65165 0
M  V30 4465 H 442.558 4.89783 1.87651 0
M  V30 4466 H 444.032 4.28915 3.47471 0
M  V30 4467 H 444.509 2.59432 3.54389 0
M  V30 4468 H 445.115 3.62383 2.22618 0
M  V30 4469 N 443.43 -0.535701 1.48216 0
M  V30 4470 C 444.66 -1.3148 1.59363 0
M  V30 4471 C 445.068 -1.8753 0.250844 0
M  V30 4472 O 444.411 -1.66821 -0.769174 0
M  V30 4473 C 444.473 -2.50731 2.57632 0
M  V30 4474 C 444.137 -2.15811 4.02833 0
M  V30 4475 C 445.134 -1.71822 4.90686 0
M  V30 4476 C 442.819 -2.26509 4.48329 0
M  V30 4477 C 444.813 -1.3899 6.22062 0
M  V30 4478 C 442.5 -1.93289 5.79726 0
M  V30 4479 C 443.498 -1.49599 6.66415 0
M  V30 4480 O 443.186 -1.16812 7.95368 0
M  V30 4481 H 442.918 -0.406315 0.540263 0
M  V30 4482 H 445.472 -0.653569 1.94725 0
M  V30 4483 H 443.702 -3.19817 2.1738 0
M  V30 4484 H 445.391 -3.12797 2.58675 0
M  V30 4485 H 446.157 -1.63031 4.56778 0
M  V30 4486 H 442.036 -2.59471 3.81045 0
M  V30 4487 H 445.58 -1.04816 6.89681 0
M  V30 4488 H 441.477 -2.01718 6.13172 0
M  V30 4489 H 442.245 -1.30259 8.08069 0
M  V30 4490 N 444.908 -1.36708 -0.784132 0
M  V30 4491 C 445.871 -1.31307 -1.87859 0
M  V30 4492 C 446.871 -0.219654 -1.59293 0
M  V30 4493 O 448.061 -0.47476 -1.67606 0
M  V30 4494 C 445.193 -1.03679 -3.24751 0
M  V30 4495 H 446.386 -2.28647 -1.94064 0
M  V30 4496 H 443.939 -1.21558 -0.98252 0
M  V30 4497 H 444.674 -0.0681936 -3.24228 0
M  V30 4498 H 444.459 -1.82811 -3.46876 0
M  V30 4499 H 445.949 -1.02518 -4.04821 0
M  V30 4500 N 446.386 1.0089 -1.21074 0
M  V30 4501 C 447.614 1.78191 -1.05145 0
M  V30 4502 C 448.029 1.84537 0.398952 0
M  V30 4503 O 447.386 1.30393 1.27687 0
M  V30 4504 C 447.437 3.22288 -1.63746 0
M  V30 4505 O 447.158 3.16315 -3.03111 0
M  V30 4506 C 448.659 4.16106 -1.52875 0
M  V30 4507 H 445.879 0.560129 -0.369454 0
M  V30 4508 H 448.423 1.26945 -1.60328 0
M  V30 4509 H 446.578 3.70655 -1.12664 0
M  V30 4510 H 446.992 4.06817 -3.31059 0
M  V30 4511 H 448.466 5.15026 -1.98626 0
M  V30 4512 H 448.943 4.36541 -0.482521 0
M  V30 4513 H 449.549 3.73625 -2.03185 0
M  V30 4514 N 447.864 1.01787 1.20321 0
M  V30 4515 C 448.827 0.593972 2.2137 0
M  V30 4516 C 449.827 -0.336553 1.57239 0
M  V30 4517 O 451.017 -0.125069 1.7375 0
M  V30 4518 C 448.149 -0.132433 3.40643 0
M  V30 4519 H 449.342 1.48791 2.60387 0
M  V30 4520 H 446.895 0.807803 1.33807 0
M  V30 4521 H 447.63 -1.04123 3.0713 0
M  V30 4522 H 447.415 0.53605 3.88418 0
M  V30 4523 H 448.905 -0.416314 4.1552 0
M  V30 4524 N 449.342 -1.36122 0.79427 0
M  V30 4525 C 450.252 -2.33769 0.197296 0
M  V30 4526 C 451.268 -1.61276 -0.653153 0
M  V30 4527 O 452.444 -1.9323 -0.5678 0
M  V30 4528 C 449.509 -3.40474 -0.654098 0
M  V30 4529 C 448.57 -4.28759 0.215411 0
M  V30 4530 C 447.803 -5.30368 -0.595443 0
M  V30 4531 O 448.026 -5.40211 -1.83107 0
M  V30 4532 O 446.96 -6.019 0.00721351 0
M  V30 4533 H 450.786 -2.86597 1.00478 0
M  V30 4534 H 448.371 -1.38676 0.555818 0
M  V30 4535 H 450.253 -4.05703 -1.13944 0
M  V30 4536 H 448.928 -2.89937 -1.43938 0
M  V30 4537 H 447.835 -3.66554 0.747615 0
M  V30 4538 H 449.168 -4.82661 0.964332 0
M  V30 4539 N 450.82 -0.546701 -1.47814 0
M  V30 4540 C 452.231 -0.110564 -1.86372 0
M  V30 4541 C 452.582 1.31678 -1.45449 0
M  V30 4542 O 451.707 1.98889 -0.852758 0
M  V30 4543 C 452.302 -0.193873 -3.38245 0
M  V30 4544 C 450.861 0.187164 -3.75934 0
M  V30 4545 C 450.008 -0.546166 -2.71868 0
M  V30 4546 H 452.959 -0.757022 -1.39481 0
M  V30 4547 H 452.98 0.590218 -3.75895 0
M  V30 4548 H 452.492 -1.23282 -3.67999 0
M  V30 4549 H 450.593 1.22762 -3.51796 0
M  V30 4550 H 450.706 -0.164083 -4.78819 0
M  V30 4551 H 449.07 0.00953904 -2.54698 0
M  V30 4552 H 449.853 -1.58606 -3.04465 0
M  V30 4553 N 452.299 1.55045 -0.282633 0
M  V30 4554 C 453.546 1.9976 0.33199 0
M  V30 4555 C 453.874 1.17105 1.55295 0
M  V30 4556 O 453.129 0.230599 1.94337 0
M  V30 4557 C 453.428 3.49422 0.750938 0
M  V30 4558 C 453.094 4.4941 -0.366228 0
M  V30 4559 C 451.756 4.76471 -0.672964 0
M  V30 4560 C 454.108 5.09054 -1.11864 0
M  V30 4561 C 451.436 5.60442 -1.73556 0
M  V30 4562 C 453.788 5.9418 -2.17102 0
M  V30 4563 C 452.452 6.19558 -2.48402 0
M  V30 4564 H 451.722 0.730974 0.121484 0
M  V30 4565 H 454.369 1.8732 -0.39791 0
M  V30 4566 H 452.674 3.59377 1.56063 0
M  V30 4567 H 454.371 3.81432 1.23736 0
M  V30 4568 H 450.961 4.2844 -0.117041 0
M  V30 4569 H 455.145 4.88165 -0.894925 0
M  V30 4570 H 450.401 5.78349 -1.983 0
M  V30 4571 H 454.575 6.39427 -2.75873 0
M  V30 4572 H 452.202 6.84417 -3.30874 0
M  V30 4573 N 453.777 0.010035 1.57597 0
M  V30 4574 C 455.026 -0.671945 1.90178 0
M  V30 4575 C 455.339 -1.74376 0.886131 0
M  V30 4576 O 456.545 -2.48107 1.10252 0
M  V30 4577 C 455.001 -1.24636 3.3763 0
M  V30 4578 C 454.609 -0.208838 4.47513 0
M  V30 4579 C 456.353 -1.90595 3.79307 0
M  V30 4580 C 454.26 -0.793814 5.86048 0
M  V30 4581 H 453.19 -0.25474 0.709665 0
M  V30 4582 H 455.841 0.0722206 1.83358 0
M  V30 4583 H 454.223 -2.04152 3.3932 0
M  V30 4584 H 455.397 0.562463 4.57354 0
M  V30 4585 H 453.712 0.350889 4.14919 0
M  V30 4586 H 456.309 -2.35284 4.80151 0
M  V30 4587 H 456.652 -2.74074 3.13352 0
M  V30 4588 H 457.185 -1.17798 3.79958 0
M  V30 4589 H 453.924 0.00240855 6.555 0
M  V30 4590 H 453.444 -1.53404 5.79851 0
M  V30 4591 H 455.123 -1.2894 6.34022 0
M  V30 4592 N 455.255 -1.55392 -0.262866 0
M  V30 4593 C 456.532 -1.67204 -1.01499 0
M  V30 4594 C 456.912 -0.545186 -2.03939 0
M  V30 4595 O 456.26 0.453467 -2.23955 0
M  V30 4596 C 456.47 -3.06847 -1.6627 0
M  V30 4597 C 457.818 -3.64928 -2.17054 0
M  V30 4598 O 458.842 -3.09545 -1.76239 0
M  V30 4599 O 457.701 -4.61984 -2.91947 0
M  V30 4600 H 454.795 -0.679467 -0.471438 0
M  V30 4601 H 457.341 -1.67729 -0.257918 0
M  V30 4602 H 456.113 -3.80309 -0.920915 0
M  V30 4603 H 455.736 -3.10266 -2.48638 0
M  V30 4604 N 456.733 0.527833 -1.48498 0
M  V30 4605 C 457.696 1.61439 -1.62696 0
M  V30 4606 C 458.696 1.52824 -0.500136 0
M  V30 4607 O 459.886 1.56456 -0.765976 0
M  V30 4608 C 457.018 3.01063 -1.59918 0
M  V30 4609 H 458.211 1.50189 -2.59583 0
M  V30 4610 H 455.764 0.750055 -1.37127 0
M  V30 4611 H 456.499 3.17818 -0.645163 0
M  V30 4612 H 456.284 3.08725 -2.41726 0
M  V30 4613 H 457.774 3.80057 -1.73051 0
M  V30 4614 N 458.211 1.37122 0.776871 0
M  V30 4615 C 459.158 1.3247 1.88998 0
M  V30 4616 C 460.128 0.191143 1.64997 0
M  V30 4617 O 461.313 0.379683 1.86984 0
M  V30 4618 C 458.453 1.13241 3.25992 0
M  V30 4619 C 457.566 2.35782 3.61982 0
M  V30 4620 C 456.701 2.09465 4.88158 0
M  V30 4621 C 455.74 3.279 5.16864 0
M  V30 4622 N 454.877 3.01167 6.34226 0
M  V30 4623 H 459.717 2.27642 1.9231 0
M  V30 4624 H 457.254 1.13125 0.94027 0
M  V30 4625 H 459.212 1.00115 4.0501 0
M  V30 4626 H 457.842 0.217186 3.22069 0
M  V30 4627 H 456.894 2.59666 2.77989 0
M  V30 4628 H 458.206 3.24125 3.79137 0
M  V30 4629 H 457.36 1.93341 5.75069 0
M  V30 4630 H 456.099 1.18452 4.73097 0
M  V30 4631 H 455.104 3.44569 4.2843 0
M  V30 4632 H 456.329 4.19757 5.33836 0
M  V30 4633 H 454.275 2.12779 6.20533 0
M  V30 4634 H 454.192 3.83052 6.51772 0
M  V30 4635 H 455.46 2.88649 7.24087 0
M  V30 4636 N 459.689 -1.00246 1.21608 0
M  V30 4637 C 460.919 -1.77373 1.05935 0
M  V30 4638 C 461.327 -1.85059 -0.393686 0
M  V30 4639 O 460.67 -1.31289 -1.28487 0
M  V30 4640 C 460.732 -3.22705 1.58435 0
M  V30 4641 C 460.396 -3.38591 3.06929 0
M  V30 4642 C 461.393 -3.2667 4.04454 0
M  V30 4643 C 459.078 -3.6395 3.46187 0
M  V30 4644 C 461.072 -3.39877 5.39224 0
M  V30 4645 C 458.759 -3.768 4.81108 0
M  V30 4646 C 459.757 -3.6477 5.77436 0
M  V30 4647 O 459.445 -3.77206 7.09909 0
M  V30 4648 H 459.177 -0.56419 0.372378 0
M  V30 4649 H 461.731 -1.26971 1.61454 0
M  V30 4650 H 459.961 -3.74255 0.973147 0
M  V30 4651 H 461.65 -3.81515 1.38568 0
M  V30 4652 H 462.416 -3.06999 3.75468 0
M  V30 4653 H 458.295 -3.72395 2.71741 0
M  V30 4654 H 461.839 -3.30404 6.14393 0
M  V30 4655 H 457.736 -3.95975 5.09779 0
M  V30 4656 H 458.504 -3.94138 7.17355 0
M  V30 4657 N 461.167 -1.02423 -1.1978 0
M  V30 4658 C 462.444 -0.632802 -1.85081 0
M  V30 4659 C 462.824 0.888745 -1.9148 0
M  V30 4660 O 462.172 1.78357 -1.42832 0
M  V30 4661 C 462.382 -1.28947 -3.24305 0
M  V30 4662 C 463.73 -1.40976 -4.00513 0
M  V30 4663 O 464.754 -1.24628 -3.33686 0
M  V30 4664 O 463.613 -1.67467 -5.20209 0
M  V30 4665 H 460.707 -0.219348 -0.79738 0
M  V30 4666 H 463.253 -1.12209 -1.27307 0
M  V30 4667 H 462.025 -2.3288 -3.14456 0
M  V30 4668 H 461.648 -0.787748 -3.89718 0
M  V30 4669 N 462.645 1.35699 -0.801477 0
M  V30 4670 C 463.891 1.99208 -0.380022 0
M  V30 4671 C 464.224 1.63445 1.04878 0
M  V30 4672 O 463.499 0.895223 1.72673 0
M  V30 4673 C 463.782 3.55755 -0.557708 0
M  V30 4674 C 463.635 4.01332 -2.03107 0
M  V30 4675 C 464.954 4.40096 0.0197968 0
M  V30 4676 H 462.073 0.723667 -0.139552 0
M  V30 4677 H 464.715 1.60928 -1.01006 0
M  V30 4678 H 462.865 3.88494 -0.0213741 0
M  V30 4679 H 464.537 3.79026 -2.62939 0
M  V30 4680 H 462.78 3.52429 -2.52936 0
M  V30 4681 H 463.451 5.10234 -2.1063 0
M  V30 4682 H 465.927 4.13786 -0.438179 0
M  V30 4683 H 464.803 5.48735 -0.134477 0
M  V30 4684 H 465.064 4.2786 1.11303 0
M  V30 4685 N 464.123 0.554532 1.47522 0
M  V30 4686 C 465.539 0.214107 1.58157 0
M  V30 4687 C 465.739 -1.28331 1.55349 0
M  V30 4688 O 464.795 -2.06329 1.45549 0
M  V30 4689 C 466.108 0.838391 2.88776 0
M  V30 4690 C 467.656 0.809374 3.02354 0
M  V30 4691 C 468.131 1.41268 4.35669 0
M  V30 4692 N 469.622 1.37574 4.42298 0
M  V30 4693 C 470.357 1.8122 5.4401 0
M  V30 4694 N 469.853 2.3271 6.52547 0
M  V30 4695 N 471.646 1.72307 5.35039 0
M  V30 4696 H 463.797 1.52744 1.4759 0
M  V30 4697 H 466.06 0.636812 0.702264 0
M  V30 4698 H 465.766 1.89065 2.96559 0
M  V30 4699 H 465.64 0.329847 3.75755 0
M  V30 4700 H 468.027 -0.234187 2.94169 0
M  V30 4701 H 468.108 1.35565 2.16924 0
M  V30 4702 H 467.752 2.45529 4.4461 0
M  V30 4703 H 467.682 0.841871 5.19827 0
M  V30 4704 H 470.173 0.999081 3.64454 0
M  V30 4705 H 470.486 2.63944 7.26329 0
M  V30 4706 H 468.831 2.36719 6.53444 0
M  V30 4707 H 472.022 1.3186 4.49144 0
M  V30 4708 H 472.195 2.06641 6.14169 0
M  V30 4709 N 465.601 -1.54893 0.290851 0
M  V30 4710 C 466.847 -2.0023 -0.321867 0
M  V30 4711 C 467.18 -1.179 -1.54316 0
M  V30 4712 O 466.455 -0.25293 -1.92848 0
M  V30 4713 C 466.738 -3.53456 -0.688515 0
M  V30 4714 C 466.591 -4.46532 0.541209 0
M  V30 4715 C 467.91 -4.13057 -1.51895 0
M  V30 4716 H 465.029 -0.727891 -0.115515 0
M  V30 4717 H 467.671 -1.85722 0.400931 0
M  V30 4718 H 465.821 -3.6595 -1.30433 0
M  V30 4719 H 467.493 -4.4596 1.17973 0
M  V30 4720 H 465.736 -4.17545 1.17636 0
M  V30 4721 H 466.407 -5.51475 0.240675 0
M  V30 4722 H 468.883 -4.03937 -0.99872 0
M  V30 4723 H 467.759 -5.20448 -1.74429 0
M  V30 4724 H 468.02 -3.64284 -2.50498 0
M  V30 4725 N 467.08 -0.0183926 -1.57589 0
M  V30 4726 C 468.012 0.995557 -2.06449 0
M  V30 4727 C 469.025 1.29556 -0.985849 0
M  V30 4728 O 470.214 1.2621 -1.26227 0
M  V30 4729 C 467.314 2.32572 -2.46502 0
M  V30 4730 C 466.487 2.21245 -3.77319 0
M  V30 4731 C 465.546 3.37104 -4.04039 0
M  V30 4732 O 464.572 3.14468 -4.74445 0
M  V30 4733 N 465.774 4.60553 -3.53372 0
M  V30 4734 H 468.539 0.578746 -2.94059 0
M  V30 4735 H 466.1 0.168603 -1.6102 0
M  V30 4736 H 468.092 3.08887 -2.61478 0
M  V30 4737 H 466.662 2.65931 -1.64315 0
M  V30 4738 H 465.882 1.29723 -3.72244 0
M  V30 4739 H 467.17 2.10868 -4.63047 0
M  V30 4740 H 466.568 4.81839 -2.96391 0
M  V30 4741 H 465.125 5.34072 -3.73644 0
M  V30 4742 N 468.558 1.5553 0.254621 0
M  V30 4743 C 469.505 1.89666 1.31512 0
M  V30 4744 C 470.475 0.750057 1.482 0
M  V30 4745 O 471.66 1.00301 1.62309 0
M  V30 4746 C 468.8 2.19009 2.667 0
M  V30 4747 C 467.913 3.46435 2.58083 0
M  V30 4748 C 467.048 3.65386 3.85573 0
M  V30 4749 C 466.087 4.8644 3.71541 0
M  V30 4750 N 465.224 5.01952 4.90906 0
M  V30 4751 H 470.064 2.80109 1.017 0
M  V30 4752 H 467.601 1.38666 0.490938 0
M  V30 4753 H 469.559 2.34025 3.45381 0
M  V30 4754 H 468.189 1.31779 2.94676 0
M  V30 4755 H 467.241 3.39792 1.71013 0
M  V30 4756 H 468.553 4.35258 2.43622 0
M  V30 4757 H 467.707 3.80319 4.72697 0
M  V30 4758 H 466.446 2.74781 4.02922 0
M  V30 4759 H 465.451 4.71491 2.82801 0
M  V30 4760 H 466.676 5.78497 3.55694 0
M  V30 4761 H 464.622 4.14283 5.08631 0
M  V30 4762 H 464.539 5.84851 4.79046 0
M  V30 4763 H 465.807 5.21289 5.7955 0
M  V30 4764 N 470.036 -0.519951 1.48776 0
M  V30 4765 C 471.285 -1.27175 1.56555 0
M  V30 4766 C 471.598 -1.9401 0.248869 0
M  V30 4767 O 472.804 -2.70725 0.205004 0
M  V30 4768 C 471.26 -2.30811 2.76142 0
M  V30 4769 C 470.868 -1.7 4.14493 0
M  V30 4770 C 472.612 -3.06937 2.9324 0
M  V30 4771 C 470.519 -2.71635 5.25327 0
M  V30 4772 H 469.449 -0.478329 0.582853 0
M  V30 4773 H 472.1 -0.547916 1.75129 0
M  V30 4774 H 470.482 -3.06274 2.51023 0
M  V30 4775 H 471.656 -1.00658 4.49672 0
M  V30 4776 H 469.971 -1.06331 4.02595 0
M  V30 4777 H 472.568 -3.82905 3.73213 0
M  V30 4778 H 472.911 -3.63409 2.03075 0
M  V30 4779 H 473.444 -2.38589 3.18308 0
M  V30 4780 H 470.183 -2.1997 6.1749 0
M  V30 4781 H 469.703 -3.39275 4.94624 0
M  V30 4782 H 471.382 -3.34429 5.53865 0
M  V30 4783 N 471.514 -1.37532 -0.769588 0
M  V30 4784 C 472.762 -1.32597 -1.5252 0
M  V30 4785 C 473.083 0.0884294 -1.94799 0
M  V30 4786 O 472.353 1.03289 -1.66458 0
M  V30 4787 H 470.933 -0.487846 -0.565699 0
M  V30 4788 H 473.595 -1.72044 -0.915806 0
M  V30 4789 H 472.691 -1.96643 -2.42359 0
M  V30 4790 N 472.992 0.995999 -1.22138 0
M  V30 4791 C 473.924 2.08745 -0.946485 0
M  V30 4792 C 474.937 1.62633 0.0737356 0
M  V30 4793 O 476.126 1.77782 -0.159886 0
M  V30 4794 C 473.226 3.36516 -0.401305 0
M  V30 4795 C 472.399 4.11672 -1.47801 0
M  V30 4796 C 471.458 5.17728 -0.940461 0
M  V30 4797 O 470.484 5.45482 -1.62596 0
M  V30 4798 N 471.686 5.80005 0.239723 0
M  V30 4799 H 474.451 2.32908 -1.88611 0
M  V30 4800 H 472.012 1.16152 -1.12785 0
M  V30 4801 H 474.004 4.04691 -0.0270837 0
M  V30 4802 H 472.574 3.0944 0.443354 0
M  V30 4803 H 471.794 3.38171 -2.02568 0
M  V30 4804 H 473.082 4.58657 -2.20253 0
M  V30 4805 H 472.48 5.5982 0.813518 0
M  V30 4806 H 471.037 6.4943 0.555361 0
M  V30 4807 N 474.47 1.03057 1.19235 0
M  V30 4808 C 475.418 0.606391 2.24557 0
M  V30 4809 C 476.412 -0.361826 1.65491 0
M  V30 4810 O 477.618 -0.23022 1.78522 0
M  V30 4811 H 473.993 0.177838 0.730669 0
M  V30 4812 H 475.964 1.50529 2.5765 0
M  V30 4813 C 474.713 -0.0252127 3.47691 0
M  V30 4814 H 474.036 0.710838 3.9343 0
M  V30 4815 H 475.476 -0.284931 4.23042 0
M  V30 4816 C 473.935 -1.27229 3.11953 0
M  V30 4817 O 474.465 -2.36416 3.24762 0
M  V30 4818 N 472.671 -1.16169 2.6637 0
M  V30 4819 H 472.218 -0.273189 2.56147 0
M  V30 4820 H 472.176 -1.99703 2.42829 0
M  V30 4821 N 475.948 -1.35272 0.808662 0
M  V30 4822 C 477.178 -2.02652 0.401953 0
M  V30 4823 C 477.586 -1.6108 -0.992462 0
M  V30 4824 O 476.929 -0.804984 -1.65123 0
M  V30 4825 C 476.991 -3.57174 0.408246 0
M  V30 4826 C 476.655 -4.22019 1.75353 0
M  V30 4827 C 477.652 -4.43552 2.71215 0
M  V30 4828 C 475.337 -4.59093 2.03811 0
M  V30 4829 C 477.331 -5.01264 3.93717 0
M  V30 4830 C 475.018 -5.16519 3.26576 0
M  V30 4831 C 476.016 -5.37546 4.21347 0
M  V30 4832 O 475.704 -5.93761 5.41944 0
M  V30 4833 H 475.436 -0.656495 0.161216 0
M  V30 4834 H 477.99 -1.73829 1.0942 0
M  V30 4835 H 476.22 -3.85197 -0.340608 0
M  V30 4836 H 477.909 -4.05893 0.0235623 0
M  V30 4837 H 478.675 -4.15288 2.50522 0
M  V30 4838 H 474.554 -4.42039 1.30854 0
M  V30 4839 H 478.098 -5.17592 4.67701 0
M  V30 4840 H 473.995 -5.4421 3.47139 0
M  V30 4841 H 474.763 -6.1221 5.43269 0
M  V30 4842 N 477.426 -0.562348 -1.47226 0
M  V30 4843 C 478.373 0.182461 -2.30078 0
M  V30 4844 C 479.343 0.903503 -1.39377 0
M  V30 4845 O 480.528 0.898188 -1.68337 0
M  V30 4846 C 477.668 1.20322 -3.23445 0
M  V30 4847 C 476.781 0.487717 -4.29238 0
M  V30 4848 C 475.916 1.49422 -5.09752 0
M  V30 4849 C 474.955 0.763976 -6.07314 0
M  V30 4850 N 474.092 1.71755 -6.80768 0
M  V30 4851 H 478.932 -0.530169 -2.93246 0
M  V30 4852 H 476.469 -0.273276 -1.44539 0
M  V30 4853 H 478.427 1.80768 -3.76004 0
M  V30 4854 H 477.057 1.88382 -2.6213 0
M  V30 4855 H 476.109 -0.231374 -3.79696 0
M  V30 4856 H 477.421 -0.0841003 -4.98729 0
M  V30 4857 H 476.575 2.17206 -5.66486 0
M  V30 4858 H 475.314 2.09995 -4.40174 0
M  V30 4859 H 474.319 0.0722344 -5.49753 0
M  V30 4860 H 475.544 0.16391 -6.78902 0
M  V30 4861 H 473.49 2.31177 -6.13916 0
M  V30 4862 H 473.407 1.19802 -7.46447 0
M  V30 4863 H 474.675 2.38638 -7.42073 0
M  V30 4864 N 478.904 1.54736 -0.299062 0
M  V30 4865 C 479.867 2.22127 0.565012 0
M  V30 4866 C 480.867 1.20669 1.06281 0
M  V30 4867 O 482.057 1.45417 0.959145 0
M  V30 4868 C 479.189 2.90611 1.78208 0
M  V30 4869 H 480.382 2.99891 -0.0237448 0
M  V30 4870 H 477.935 1.5622 -0.0498788 0
M  V30 4871 H 478.67 2.16921 2.41072 0
M  V30 4872 H 478.455 3.64984 1.43281 0
M  V30 4873 H 479.945 3.42026 2.396 0
M  V30 4874 N 480.382 0.0267497 1.57577 0
M  V30 4875 C 481.612 -0.6617 1.95717 0
M  V30 4876 C 482.02 -1.66331 0.901706 0
M  V30 4877 O 481.363 -1.83273 -0.125241 0
M  V30 4878 C 481.425 -1.42649 3.29987 0
M  V30 4879 C 481.089 -0.583482 4.5326 0
M  V30 4880 C 482.086 0.140221 5.19711 0
M  V30 4881 C 479.771 -0.521581 4.99585 0
M  V30 4882 C 481.765 0.914523 6.30805 0
M  V30 4883 C 479.452 0.256428 6.10562 0
M  V30 4884 C 480.45 0.973189 6.76031 0
M  V30 4885 O 480.138 1.73845 7.84878 0
M  V30 4886 H 479.87 -0.187483 0.649481 0
M  V30 4887 H 482.424 0.0820847 2.05236 0
M  V30 4888 H 480.654 -2.21536 3.16952 0
M  V30 4889 H 482.343 -2.00282 3.53047 0
M  V30 4890 H 483.109 0.101716 4.84893 0
M  V30 4891 H 478.988 -1.06904 4.48433 0
M  V30 4892 H 482.532 1.4745 6.81839 0
M  V30 4893 H 478.429 0.296657 6.44818 0
M  V30 4894 H 479.197 1.65797 8.01532 0
M  V30 4895 N 481.861 -1.55662 -0.24637 0
M  V30 4896 C 482.794 -1.85332 -1.33143 0
M  V30 4897 C 483.772 -0.708464 -1.46354 0
M  V30 4898 O 484.956 -0.954274 -1.6256 0
M  V30 4899 C 482.083 -2.0385 -2.70487 0
M  V30 4900 C 481.129 -3.26488 -2.74423 0
M  V30 4901 S 481.962 -4.83124 -2.30979 0
M  V30 4902 C 483.118 -5.04647 -3.70246 0
M  V30 4903 H 483.351 -2.77077 -1.07777 0
M  V30 4904 H 480.884 -1.47776 -0.44738 0
M  V30 4905 H 482.842 -2.15202 -3.49569 0
M  V30 4906 H 481.503 -1.12947 -2.9309 0
M  V30 4907 H 480.696 -3.36413 -3.7529 0
M  V30 4908 H 480.298 -3.13864 -2.03385 0
M  V30 4909 H 482.59 -4.92023 -4.65746 0
M  V30 4910 H 483.533 -6.06625 -3.65255 0
M  V30 4911 H 483.941 -4.32491 -3.62784 0
M  V30 4912 N 483.339 0.512053 -1.4905 0
M  V30 4913 C 484.755 0.84224 -1.35567 0
M  V30 4914 C 484.955 1.97878 -0.380319 0
M  V30 4915 O 484.011 2.51769 0.19201 0
M  V30 4916 C 485.324 1.19286 -2.76028 0
M  V30 4917 C 486.872 1.30171 -2.84648 0
M  V30 4918 C 487.347 1.68568 -4.25851 0
M  V30 4919 N 488.838 1.75638 -4.28609 0
M  V30 4920 C 489.573 2.06769 -5.34821 0
M  V30 4921 N 489.069 2.36201 -6.51292 0
M  V30 4922 N 490.862 2.07927 -5.22229 0
M  V30 4923 H 483.013 -0.237574 -2.11067 0
M  V30 4924 H 485.276 -0.0436747 -0.946993 0
M  V30 4925 H 484.982 0.431199 -3.49047 0
M  V30 4926 H 484.856 2.13889 -3.10695 0
M  V30 4927 H 487.243 2.05411 -2.11873 0
M  V30 4928 H 487.324 0.336457 -2.53578 0
M  V30 4929 H 486.968 0.938824 -4.99148 0
M  V30 4930 H 486.898 2.66174 -4.54377 0
M  V30 4931 H 489.389 1.55097 -3.44606 0
M  V30 4932 H 489.702 2.59112 -7.28066 0
M  V30 4933 H 488.047 2.33681 -6.54536 0
M  V30 4934 H 491.238 1.84403 -4.30248 0
M  V30 4935 H 491.411 2.31856 -6.05101 0
M  V30 4936 N 484.817 1.37938 0.762283 0
M  V30 4937 C 486.045 1.36883 1.55147 0
M  V30 4938 C 486.46 -0.0435348 1.8875 0
M  V30 4939 O 485.817 -1.00786 1.52146 0
M  V30 4940 C 485.868 2.21624 2.85596 0
M  V30 4941 O 485.589 3.57358 2.5343 0
M  V30 4942 C 487.09 2.28653 3.7978 0
M  V30 4943 H 484.31 0.468521 0.480343 0
M  V30 4944 H 486.854 1.81404 0.944079 0
M  V30 4945 H 485.009 1.80588 3.42734 0
M  V30 4946 H 485.423 4.01883 3.37032 0
M  V30 4947 H 486.897 2.9225 4.68288 0
M  V30 4948 H 487.374 1.29767 4.19592 0
M  V30 4949 H 487.98 2.70043 3.28568 0
M  V30 4950 N 486.295 -0.989507 1.22664 0
M  V30 4951 C 487.52 -1.77031 1.08051 0
M  V30 4952 C 487.945 -1.84535 -0.364483 0
M  V30 4953 O 487.303 -1.3003 -1.2634 0
M  V30 4954 C 487.351 -3.18 1.70024 0
M  V30 4955 O 486.455 -4.01161 0.956216 0
M  V30 4956 H 485.796 -0.545008 0.379292 0
M  V30 4957 H 488.326 -1.24277 1.62531 0
M  V30 4958 H 488.336 -3.68616 1.74888 0
M  V30 4959 H 487.011 -3.11853 2.75174 0
M  V30 4960 H 485.588 -3.59687 0.98384 0
M  V30 4961 N 487.773 -1.03688 -1.18687 0
M  V30 4962 C 489.019 -0.739123 -1.88851 0
M  V30 4963 C 489.352 0.731042 -1.79915 0
M  V30 4964 O 488.627 1.53313 -1.19688 0
M  V30 4965 C 488.91 -1.20106 -3.3948 0
M  V30 4966 C 488.763 -2.73304 -3.57246 0
M  V30 4967 C 490.082 -0.788134 -4.32986 0
M  V30 4968 H 487.201 -0.269978 -0.68577 0
M  V30 4969 H 489.843 -1.28822 -1.3966 0
M  V30 4970 H 487.993 -0.733915 -3.81505 0
M  V30 4971 H 489.665 -3.28027 -3.24339 0
M  V30 4972 H 487.908 -3.13313 -3.00029 0
M  V30 4973 H 488.579 -3.00684 -4.62918 0
M  V30 4974 H 491.055 -1.19005 -3.98719 0
M  V30 4975 H 489.931 -1.13915 -5.36949 0
M  V30 4976 H 490.192 0.308988 -4.41019 0
M  V30 4977 N 489.251 1.34841 -0.815825 0
M  V30 4978 C 490.476 2.03261 -0.41226 0
M  V30 4979 C 490.901 1.61055 0.971751 0
M  V30 4980 O 490.259 0.7917 1.63101 0
M  V30 4981 C 490.307 3.56914 -0.514289 0
M  V30 4982 O 489.411 4.09728 0.468675 0
M  V30 4983 H 488.752 0.641664 -0.170771 0
M  V30 4984 H 491.282 1.72241 -1.10427 0
M  V30 4985 H 491.292 4.06156 -0.387457 0
M  V30 4986 H 489.967 3.86982 -1.52375 0
M  V30 4987 H 488.544 3.71681 0.301316 0
M  V30 4988 N 490.729 0.570148 1.46925 0
M  V30 4989 C 491.977 0.0508523 2.02036 0
M  V30 4990 C 492.298 -1.30885 1.44548 0
M  V30 4991 O 491.568 -1.85647 0.625453 0
M  V30 4992 H 490.148 0.0158088 0.746833 0
M  V30 4993 H 492.81 0.743086 1.80178 0
M  V30 4994 H 491.906 -0.027575 3.12088 0
M  V30 4995 N 492.207 -1.54576 0.307264 0
M  V30 4996 C 493.155 -2.25208 -0.581723 0
M  V30 4997 C 494.149 -1.26031 -1.13192 0
M  V30 4998 O 495.355 -1.43862 -1.08184 0
M  V30 4999 H 491.73 -0.723173 -0.206214 0
M  V30 5000 H 493.701 -2.98378 0.0364663 0
M  V30 5001 C 492.45 -3.01086 -1.73904 0
M  V30 5002 H 491.773 -3.77208 -1.32491 0
M  V30 5003 H 493.213 -3.5378 -2.33701 0
M  V30 5004 C 491.672 -2.08422 -2.64692 0
M  V30 5005 O 492.202 -1.65636 -3.65961 0
M  V30 5006 N 490.408 -1.74247 -2.32564 0
M  V30 5007 H 489.955 -2.09238 -1.50257 0
M  V30 5008 H 489.913 -1.12524 -2.93574 0
M  V30 5009 N 493.685 -0.035106 -1.57561 0
M  V30 5010 C 494.931 0.637362 -1.93156 0
M  V30 5011 C 495.286 1.69391 -0.912392 0
M  V30 5012 O 494.579 1.91469 0.070735 0
M  V30 5013 C 494.773 1.29149 -3.3325 0
M  V30 5014 C 494.602 0.29983 -4.48699 0
M  V30 5015 C 493.372 -0.102454 -5.05196 0
M  V30 5016 C 495.57 -0.448297 -5.12342 0
M  V30 5017 N 493.552 -1.08866 -6.0417 0
M  V30 5018 C 494.923 -1.28807 -6.06472 0
M  V30 5019 C 496.978 -0.508351 -4.95298 0
M  V30 5020 C 495.681 -2.18248 -6.85391 0
M  V30 5021 C 497.707 -1.39013 -5.7483 0
M  V30 5022 C 497.069 -2.21766 -6.6858 0
M  V30 5023 H 493.168 0.205358 -0.754554 0
M  V30 5024 H 495.752 -0.103682 -1.94424 0
M  V30 5025 H 493.923 2.00264 -3.3279 0
M  V30 5026 H 495.655 1.92147 -3.56177 0
M  V30 5027 H 492.41 0.273223 -4.72811 0
M  V30 5028 H 492.834 -1.57817 -6.58348 0
M  V30 5029 H 497.476 0.117197 -4.22638 0
M  V30 5030 H 495.194 -2.81855 -7.57353 0
M  V30 5031 H 498.78 -1.44096 -5.63673 0
M  V30 5032 H 497.66 -2.88892 -7.29048 0
M  V30 5033 N 495.163 1.55791 0.238111 0
M  V30 5034 C 496.11 1.9105 1.29493 0
M  V30 5035 C 497.08 0.765733 1.47397 0
M  V30 5036 O 498.265 1.02017 1.61236 0
M  V30 5037 C 495.405 2.21826 2.64362 0
M  V30 5038 C 494.518 3.49153 2.54394 0
M  V30 5039 C 493.653 3.69455 3.81676 0
M  V30 5040 C 492.692 4.90353 3.66361 0
M  V30 5041 N 491.829 5.07131 4.85554 0
M  V30 5042 H 496.669 2.81172 0.987233 0
M  V30 5043 H 494.206 1.39179 0.476203 0
M  V30 5044 H 496.164 2.37675 3.4288 0
M  V30 5045 H 494.794 1.34897 2.93262 0
M  V30 5046 H 493.846 3.41587 1.67399 0
M  V30 5047 H 495.158 4.37818 2.38991 0
M  V30 5048 H 494.312 3.85311 4.68636 0
M  V30 5049 H 493.051 2.7904 3.99985 0
M  V30 5050 H 492.056 4.74464 2.77784 0
M  V30 5051 H 493.281 5.82237 3.49538 0
M  V30 5052 H 491.227 4.19654 5.04209 0
M  V30 5053 H 491.144 5.89899 4.72816 0
M  V30 5054 H 492.412 5.27407 5.73988 0
M  V30 5055 N 496.642 -0.504142 1.49319 0
M  V30 5056 C 497.87 -1.28256 1.62351 0
M  V30 5057 C 498.285 -1.86502 0.293682 0
M  V30 5058 O 497.642 -1.67678 -0.720449 0
M  V30 5059 C 497.693 -2.41507 2.68992 0
M  V30 5060 O 497.414 -1.85656 3.96817 0
M  V30 5061 C 498.915 -3.32929 2.927 0
M  V30 5062 H 496.135 -0.389115 0.546654 0
M  V30 5063 H 498.679 -0.605531 1.95329 0
M  V30 5064 H 496.834 -3.05046 2.38801 0
M  V30 5065 H 497.248 -2.59981 4.55533 0
M  V30 5066 H 498.722 -4.0868 3.71058 0
M  V30 5067 H 499.199 -3.89733 2.02496 0
M  V30 5068 H 499.805 -2.75158 3.24296 0
M  V30 5069 N 498.12 -1.38341 -0.754957 0
M  V30 5070 C 499.068 -1.35573 -1.89005 0
M  V30 5071 C 500.062 -0.241824 -1.67665 0
M  V30 5072 O 501.268 -0.410785 -1.7525 0
M  V30 5073 H 497.643 -0.422898 -0.621821 0
M  V30 5074 H 499.614 -2.31359 -1.88455 0
M  V30 5075 C 498.363 -1.19631 -3.26471 0
M  V30 5076 H 497.686 -2.04605 -3.43477 0
M  V30 5077 H 499.126 -1.21748 -4.06144 0
M  V30 5078 C 497.585 0.0968705 -3.36761 0
M  V30 5079 O 498.115 1.07439 -3.87066 0
M  V30 5080 N 496.321 0.153242 -2.90196 0
M  V30 5081 H 495.868 -0.642908 -2.49448 0
M  V30 5082 H 495.826 1.01807 -2.9746 0
M  V30 5083 N 499.598 0.982988 -1.23187 0
M  V30 5084 C 500.826 1.75921 -1.08901 0
M  V30 5085 C 501.241 1.85341 0.359719 0
M  V30 5086 O 500.598 1.33072 1.24892 0
M  V30 5087 C 500.649 3.18742 -1.70545 0
M  V30 5088 O 500.37 3.09814 -3.09753 0
M  V30 5089 C 501.871 4.1277 -1.61667 0
M  V30 5090 H 499.091 0.552166 -0.381252 0
M  V30 5091 H 501.635 1.23516 -1.62985 0
M  V30 5092 H 499.79 3.68182 -1.20501 0
M  V30 5093 H 500.204 3.99703 -3.39614 0
M  V30 5094 H 501.678 5.10697 -2.09506 0
M  V30 5095 H 502.155 4.3542 -0.575009 0
M  V30 5096 H 502.761 3.69232 -2.11064 0
M  V30 5097 N 501.076 1.04316 1.18135 0
M  V30 5098 C 502.324 0.746542 1.87806 0
M  V30 5099 C 502.645 -0.728082 1.80898 0
M  V30 5100 O 501.915 -1.52554 1.22899 0
M  V30 5101 H 500.495 0.273157 0.695265 0
M  V30 5102 H 503.157 1.32044 1.43354 0
M  V30 5103 H 502.253 1.05362 2.93778 0
M  V30 5104 N 502.554 -1.34406 0.822964 0
M  V30 5105 C 503.779 -2.0304 0.423034 0
M  V30 5106 C 504.204 -1.61568 -0.963196 0
M  V30 5107 O 503.562 -0.800339 -1.62678 0
M  V30 5108 C 503.61 -3.56636 0.53321 0
M  V30 5109 O 502.714 -4.09971 -0.446939 0
M  V30 5110 H 502.055 -0.64075 0.174171 0
M  V30 5111 H 504.585 -1.71653 1.11339 0
M  V30 5112 H 504.595 -4.05945 0.408991 0
M  V30 5113 H 503.27 -3.86168 1.54425 0
M  V30 5114 H 501.847 -3.71835 -0.281601 0
M  V30 5115 N 504.032 -0.577932 -1.46621 0
M  V30 5116 C 504.995 0.147805 -2.28723 0
M  V30 5117 C 505.995 0.823325 -1.38123 0
M  V30 5118 O 507.185 0.676011 -1.60548 0
M  V30 5119 C 504.317 1.21853 -3.18378 0
M  V30 5120 H 505.51 -0.573654 -2.94362 0
M  V30 5121 H 503.063 -0.335703 -1.52652 0
M  V30 5122 H 503.798 1.97173 -2.57475 0
M  V30 5123 H 503.583 0.738714 -3.85078 0
M  V30 5124 H 505.073 1.72768 -3.80186 0
M  V30 5125 N 505.51 1.54411 -0.315457 0
M  V30 5126 C 506.443 2.20265 0.596522 0
M  V30 5127 C 507.421 1.17693 1.12192 0
M  V30 5128 O 508.605 1.46397 1.18744 0
M  V30 5129 C 505.732 2.85794 1.81767 0
M  V30 5130 C 504.778 4.02017 1.42424 0
M  V30 5131 S 505.611 5.33452 0.467836 0
M  V30 5132 C 506.767 6.02471 1.69645 0
M  V30 5133 H 507 2.97277 0.0370896 0
M  V30 5134 H 504.533 1.54079 -0.0995562 0
M  V30 5135 H 506.491 3.24172 2.51839 0
M  V30 5136 H 505.152 2.08601 2.34828 0
M  V30 5137 H 504.345 4.46701 2.33396 0
M  V30 5138 H 503.947 3.65271 0.803311 0
M  V30 5139 H 506.239 6.24157 2.63504 0
M  V30 5140 H 507.182 6.96215 1.29192 0
M  V30 5141 H 507.59 5.32284 1.87974 0
M  V30 5142 N 506.988 0.0434614 1.5754 0
M  V30 5143 C 507.918 -0.931651 2.14109 0
M  V30 5144 C 508.899 -1.32971 1.06079 0
M  V30 5145 O 510.084 -1.40579 1.33982 0
M  V30 5146 C 507.214 -2.20914 2.67982 0
M  V30 5147 C 506.168 -1.95139 3.80926 0
M  V30 5148 C 505.494 -3.29276 4.21285 0
M  V30 5149 C 506.794 -1.27913 5.06395 0
M  V30 5150 H 508.488 -0.460497 2.95837 0
M  V30 5151 H 506.034 -0.220058 1.42309 0
M  V30 5152 H 507.987 -2.89522 3.06194 0
M  V30 5153 H 506.711 -2.70221 1.83434 0
M  V30 5154 H 505.37 -1.28945 3.43175 0
M  V30 5155 H 505.018 -3.76369 3.33699 0
M  V30 5156 H 504.718 -3.12831 4.97404 0
M  V30 5157 H 506.242 -3.99129 4.62091 0
M  V30 5158 H 507.656 -1.86544 5.42102 0
M  V30 5159 H 506.053 -1.2182 5.87605 0
M  V30 5160 H 507.123 -0.254066 4.84234 0
M  V30 5161 N 508.466 -1.55915 -0.229846 0
M  V30 5162 C 509.376 -1.94891 -1.30593 0
M  V30 5163 C 510.392 -0.851604 -1.51736 0
M  V30 5164 O 511.568 -1.15447 -1.65027 0
M  V30 5165 C 508.633 -2.25052 -2.63728 0
M  V30 5166 C 507.694 -3.48306 -2.5096 0
M  V30 5167 C 506.927 -3.77019 -3.77747 0
M  V30 5168 O 507.15 -3.07534 -4.80395 0
M  V30 5169 O 506.084 -4.70523 -3.75356 0
M  V30 5170 H 509.91 -2.86581 -1.00525 0
M  V30 5171 H 507.495 -1.43017 -0.432025 0
M  V30 5172 H 509.377 -2.45682 -3.42372 0
M  V30 5173 H 508.052 -1.36538 -2.93495 0
M  V30 5174 H 506.959 -3.32964 -1.70546 0
M  V30 5175 H 508.292 -4.37177 -2.26136 0
M  V30 5176 N 509.944 0.496216 -1.49584 0
M  V30 5177 C 510.876 1.61404 -1.62731 0
M  V30 5178 C 511.889 1.54613 -0.50978 0
M  V30 5179 O 513.078 1.60458 -0.782017 0
M  V30 5180 C 510.178 3.00212 -1.57245 0
M  V30 5181 C 509.351 3.32138 -2.84611 0
M  V30 5182 C 508.41 4.5038 -2.72112 0
M  V30 5183 O 507.436 4.51926 -3.46051 0
M  V30 5184 N 508.638 5.50575 -1.83977 0
M  V30 5185 H 511.403 1.50552 -2.59141 0
M  V30 5186 H 508.964 0.684182 -1.46733 0
M  V30 5187 H 510.956 3.77241 -1.4653 0
M  V30 5188 H 509.526 3.04964 -0.686729 0
M  V30 5189 H 508.746 2.4396 -3.09641 0
M  V30 5190 H 510.034 3.50268 -3.69039 0
M  V30 5191 H 509.432 5.52128 -1.23171 0
M  V30 5192 H 507.989 6.26687 -1.79182 0
M  V30 5193 N 511.423 1.38739 0.74761 0
M  V30 5194 C 512.672 1.3459 1.50228 0
M  V30 5195 C 512.985 -0.0595592 1.95509 0
M  V30 5196 O 514.191 -0.22361 2.70578 0
M  V30 5197 C 512.647 2.36377 2.71393 0
M  V30 5198 C 512.255 3.82573 2.33113 0
M  V30 5199 C 513.999 2.41281 3.49262 0
M  V30 5200 C 511.906 4.76032 3.50924 0
M  V30 5201 H 510.836 0.500312 0.564096 0
M  V30 5202 H 513.487 1.64324 0.8167 0
M  V30 5203 H 511.869 1.99694 3.41962 0
M  V30 5204 H 513.043 4.28227 1.70171 0
M  V30 5205 H 511.358 3.80844 1.68365 0
M  V30 5206 H 513.955 3.08301 4.36869 0
M  V30 5207 H 514.298 1.43353 3.9084 0
M  V30 5208 H 514.831 2.76793 2.85711 0
M  V30 5209 H 511.57 5.75177 3.14408 0
M  V30 5210 H 511.09 4.35066 4.12889 0
M  V30 5211 H 512.769 4.94331 4.17427 0
M  V30 5212 N 512.901 -0.976442 1.23707 0
M  V30 5213 C 513.864 -2.0511 1.02287 0
M  V30 5214 C 514.864 -1.60791 -0.0167195 0
M  V30 5215 O 516.054 -1.72761 0.223408 0
M  V30 5216 C 513.186 -3.36458 0.548507 0
M  V30 5217 H 514.379 -2.25545 1.9766 0
M  V30 5218 H 511.932 -1.15042 1.05806 0
M  V30 5219 H 512.667 -3.21713 -0.408818 0
M  V30 5220 H 512.452 -3.69967 1.29874 0
M  V30 5221 H 513.942 -4.15489 0.419406 0
M  V30 5222 N 514.379 -1.04941 -1.1758 0
M  V30 5223 C 515.312 -0.592518 -2.20373 0
M  V30 5224 C 516.29 0.377561 -1.58156 0
M  V30 5225 O 517.474 0.28978 -1.86259 0
M  V30 5226 C 514.601 0.133215 -3.38438 0
M  V30 5227 C 513.647 -0.791484 -4.19092 0
M  V30 5228 S 514.48 -2.27925 -4.84572 0
M  V30 5229 C 515.636 -1.56462 -6.06028 0
M  V30 5230 H 515.869 -1.46342 -2.58788 0
M  V30 5231 H 513.402 -0.861148 -1.28155 0
M  V30 5232 H 515.36 0.545746 -4.06856 0
M  V30 5233 H 514.021 0.980124 -2.98416 0
M  V30 5234 H 513.214 -0.230039 -5.03475 0
M  V30 5235 H 512.816 -1.14326 -3.56098 0
M  V30 5236 H 515.108 -0.862539 -6.71987 0
M  V30 5237 H 516.051 -2.38583 -6.66696 0
M  V30 5238 H 516.459 -1.05313 -5.5459 0
M  V30 5239 N 515.857 1.33968 -0.830081 0
M  V30 5240 C 517.082 2.02813 -0.433796 0
M  V30 5241 C 517.507 1.62076 0.954614 0
M  V30 5242 O 516.865 0.808955 1.62252 0
M  V30 5243 C 516.913 3.56348 -0.552115 0
M  V30 5244 O 516.017 4.10202 0.425191 0
M  V30 5245 H 515.358 0.639817 -0.177567 0
M  V30 5246 H 517.888 1.7106 -1.12248 0
M  V30 5247 H 517.898 4.05722 -0.430513 0
M  V30 5248 H 516.573 3.85344 -1.56471 0
M  V30 5249 H 515.15 3.71979 0.261878 0
M  V30 5250 N 517.335 0.585699 1.46312 0
M  V30 5251 C 518.612 0.00542031 1.95599 0
M  V30 5252 C 518.992 -1.45619 1.52834 0
M  V30 5253 O 518.34 -2.14759 0.780446 0
M  V30 5254 C 518.55 0.180601 3.48532 0
M  V30 5255 C 519.898 0.049979 4.24571 0
M  V30 5256 O 520.922 0.109589 3.56031 0
M  V30 5257 O 519.781 -0.0832226 5.46437 0
M  V30 5258 H 516.875 -0.0481281 0.825598 0
M  V30 5259 H 519.421 0.654227 1.56582 0
M  V30 5260 H 518.193 1.19657 3.72556 0
M  V30 5261 H 517.816 -0.504498 3.94386 0
M  V30 5262 N 518.813 -1.54241 0.323641 0
M  V30 5263 C 520.229 -1.59574 -0.0290018 0
M  V30 5264 C 520.429 -1.34017 -1.50472 0
M  V30 5265 O 519.485 -1.12464 -2.26071 0
M  V30 5266 C 520.798 -2.98169 0.389295 0
M  V30 5267 C 522.346 -3.11148 0.339958 0
M  V30 5268 C 522.821 -4.5209 0.733418 0
M  V30 5269 N 524.312 -4.5808 0.686827 0
M  V30 5270 C 525.047 -5.65248 0.963464 0
M  V30 5271 N 524.543 -6.80355 1.30724 0
M  V30 5272 N 526.336 -5.55025 0.88902 0
M  V30 5273 H 518.487 -1.6911 1.28512 0
M  V30 5274 H 520.75 -0.790972 0.522558 0
M  V30 5275 H 520.456 -3.21871 1.41746 0
M  V30 5276 H 520.33 -3.76399 -0.245657 0
M  V30 5277 H 522.717 -2.87182 -0.679002 0
M  V30 5278 H 522.798 -2.35023 1.00985 0
M  V30 5279 H 522.442 -4.76788 1.75029 0
M  V30 5280 H 522.372 -5.26584 0.0412189 0
M  V30 5281 H 524.863 -3.75411 0.43298 0
M  V30 5282 H 525.176 -7.58029 1.5037 0
M  V30 5283 H 523.521 -6.81851 1.3455 0
M  V30 5284 H 526.712 -4.63977 0.619939 0
M  V30 5285 H 526.885 -6.38458 1.10797 0
M  V30 5286 N 520.291 -0.0518155 -1.57515 0
M  V30 5287 C 521.521 0.63048 -1.96745 0
M  V30 5288 C 521.929 1.64875 -0.928054 0
M  V30 5289 O 521.272 1.83449 0.0960678 0
M  V30 5290 C 521.334 1.37381 -3.32215 0
M  V30 5291 C 520.998 0.511298 -4.54131 0
M  V30 5292 C 521.995 -0.222884 -5.19422 0
M  V30 5293 C 519.68 0.442035 -5.00351 0
M  V30 5294 C 521.674 -1.01476 -6.2927 0
M  V30 5295 C 519.361 -0.35353 -6.10077 0
M  V30 5296 C 520.359 -1.08062 -6.74397 0
M  V30 5297 O 520.047 -1.8631 -7.82013 0
M  V30 5298 H 519.779 0.177126 -0.652382 0
M  V30 5299 H 522.333 -0.114726 -2.05079 0
M  V30 5300 H 520.563 2.16466 -3.20436 0
M  V30 5301 H 522.252 1.9464 -3.56188 0
M  V30 5302 H 523.018 -0.178846 -4.8467 0
M  V30 5303 H 518.897 0.997562 -4.50077 0
M  V30 5304 H 522.441 -1.58279 -6.79407 0
M  V30 5305 H 518.338 -0.399205 -6.44264 0
M  V30 5306 H 519.106 -1.78528 -7.98793 0
M  V30 5307 N 521.769 1.56035 0.221574 0
M  V30 5308 C 522.716 1.92413 1.27459 0
M  V30 5309 C 523.686 0.781323 1.46576 0
M  V30 5310 O 524.871 1.03721 1.60145 0
M  V30 5311 C 522.011 2.24617 2.61995 0
M  V30 5312 C 521.124 3.51831 2.50677 0
M  V30 5313 C 520.259 3.73482 3.77736 0
M  V30 5314 C 519.298 4.94211 3.6114 0
M  V30 5315 N 518.435 5.12252 4.80148 0
M  V30 5316 H 523.275 2.82203 0.957355 0
M  V30 5317 H 520.812 1.39676 0.461415 0
M  V30 5318 H 522.77 2.41298 3.40339 0
M  V30 5319 H 521.4 1.38 2.91815 0
M  V30 5320 H 520.452 3.43343 1.63767 0
M  V30 5321 H 521.764 4.40328 2.34334 0
M  V30 5322 H 520.918 3.9026 4.64523 0
M  V30 5323 H 519.657 2.83266 3.97003 0
M  V30 5324 H 518.662 4.77384 2.72736 0
M  V30 5325 H 519.887 5.85912 3.43343 0
M  V30 5326 H 517.833 4.24978 4.99729 0
M  V30 5327 H 517.75 5.94881 4.66532 0
M  V30 5328 H 519.018 5.33465 5.68362 0
M  V30 5329 N 523.247 -0.488276 1.49845 0
M  V30 5330 C 524.177 -1.59675 1.70371 0
M  V30 5331 C 525.158 -1.60878 0.552473 0
M  V30 5332 O 526.343 -1.77417 0.78973 0
M  V30 5333 C 523.473 -2.98098 1.782 0
M  V30 5334 C 522.427 -3.11761 2.93239 0
M  V30 5335 C 521.753 -4.51661 2.86193 0
M  V30 5336 C 523.053 -2.90589 4.33999 0
M  V30 5337 H 524.747 -1.42752 2.63177 0
M  V30 5338 H 522.293 -0.685317 1.26647 0
M  V30 5339 H 524.246 -3.75555 1.91144 0
M  V30 5340 H 522.97 -3.16138 0.820018 0
M  V30 5341 H 521.629 -2.36732 2.79917 0
M  V30 5342 H 521.277 -4.66595 1.87877 0
M  V30 5343 H 520.977 -4.61742 3.63412 0
M  V30 5344 H 522.501 -5.31162 3.01163 0
M  V30 5345 H 523.915 -3.57807 4.47936 0
M  V30 5346 H 522.312 -3.1213 5.12538 0
M  V30 5347 H 523.382 -1.86595 4.4756 0
M  V30 5348 N 524.725 -1.39134 -0.740242 0
M  V30 5349 C 525.971 -1.37278 -1.50088 0
M  V30 5350 C 526.326 0.0329967 -1.92372 0
M  V30 5351 O 525.619 0.998447 -1.63529 0
M  V30 5352 C 525.813 -2.27457 -2.75678 0
M  V30 5353 C 525.642 -3.76662 -2.45674 0
M  V30 5354 C 524.412 -4.45617 -2.38229 0
M  V30 5355 C 526.61 -4.6877 -2.11563 0
M  V30 5356 N 524.592 -5.80187 -2.00641 0
M  V30 5357 C 525.963 -5.91951 -1.84376 0
M  V30 5358 C 528.018 -4.56843 -1.97987 0
M  V30 5359 C 526.721 -7.04538 -1.4498 0
M  V30 5360 C 528.747 -5.69347 -1.59994 0
M  V30 5361 C 528.109 -6.91597 -1.33687 0
M  V30 5362 H 524.208 -0.557611 -0.548265 0
M  V30 5363 H 526.792 -1.74638 -0.860784 0
M  V30 5364 H 524.963 -1.92263 -3.37475 0
M  V30 5365 H 526.695 -2.16631 -3.41838 0
M  V30 5366 H 523.45 -3.98993 -2.5515 0
M  V30 5367 H 523.874 -6.51387 -1.84454 0
M  V30 5368 H 528.516 -3.62868 -2.16995 0
M  V30 5369 H 526.234 -7.98419 -1.24712 0
M  V30 5370 H 529.82 -5.62104 -1.50102 0
M  V30 5371 H 528.7 -7.77176 -1.04728 0
M  V30 5372 N 526.204 0.969867 -1.24223 0
M  V30 5373 C 527.45 1.7151 -1.08223 0
M  V30 5374 C 527.783 1.90478 0.37838 0
M  V30 5375 O 527.058 1.4647 1.27971 0
M  V30 5376 C 527.341 3.10714 -1.82013 0
M  V30 5377 C 527.194 2.9925 -3.35811 0
M  V30 5378 C 528.513 4.10332 -1.59108 0
M  V30 5379 H 525.632 0.622499 -0.394543 0
M  V30 5380 H 528.274 1.1284 -1.52863 0
M  V30 5381 H 526.424 3.608 -1.44068 0
M  V30 5382 H 528.096 2.56608 -3.83341 0
M  V30 5383 H 526.339 2.35512 -3.64303 0
M  V30 5384 H 527.01 3.97857 -3.82641 0
M  V30 5385 H 529.486 3.69097 -1.92111 0
M  V30 5386 H 528.362 5.05804 -2.13198 0
M  V30 5387 H 528.623 4.38926 -0.528832 0
M  V30 5388 N 527.682 1.05563 1.17022 0
M  V30 5389 C 528.959 0.68165 1.83338 0
M  V30 5390 C 529.339 -0.837665 1.93769 0
M  V30 5391 O 528.687 -1.74507 1.47511 0
M  V30 5392 C 528.897 1.375 3.20772 0
M  V30 5393 C 530.245 1.51545 3.96635 0
M  V30 5394 O 531.269 1.33431 3.30264 0
M  V30 5395 O 530.128 1.812 5.15586 0
M  V30 5396 H 527.222 0.240412 0.791285 0
M  V30 5397 H 529.768 1.15545 1.24288 0
M  V30 5398 H 528.54 2.41135 3.08171 0
M  V30 5399 H 528.163 0.890798 3.87493 0
M  V30 5400 N 529.16 -1.33526 0.837174 0
M  V30 5401 C 530.388 -2.02047 0.445494 0
M  V30 5402 C 530.803 -1.62995 -0.952788 0
M  V30 5403 O 530.16 -0.842447 -1.61892 0
M  V30 5404 C 530.211 -3.57221 0.554577 0
M  V30 5405 O 529.932 -3.94863 1.89776 0
M  V30 5406 C 531.433 -4.43012 0.159634 0
M  V30 5407 H 528.653 -0.647221 0.177048 0
M  V30 5408 H 531.197 -1.70492 1.12928 0
M  V30 5409 H 529.352 -3.87315 -0.0812781 0
M  V30 5410 H 529.766 -4.89569 1.88208 0
M  V30 5411 H 531.24 -5.51253 0.28701 0
M  V30 5412 H 531.717 -4.29916 -0.898289 0
M  V30 5413 H 532.323 -4.18274 0.769855 0
M  V30 5414 N 530.638 -0.59345 -1.46 0
M  V30 5415 C 531.878 -0.0859747 -2.04219 0
M  V30 5416 C 532.242 1.25432 -1.45364 0
M  V30 5417 O 533.443 1.85168 -1.9485 0
M  V30 5418 C 531.714 -0.0324314 -3.57385 0
M  V30 5419 S 533.273 0.415908 -4.36824 0
M  V30 5420 H 530.091 -0.0426872 -0.709717 0
M  V30 5421 H 532.693 -0.788369 -1.78899 0
M  V30 5422 H 531.397 -1.01166 -3.97735 0
M  V30 5423 H 530.928 0.6924 -3.87259 0
M  V30 5424 H 532.943 1.66844 -4.67309 0
M  V30 5425 N 532.116 1.54067 -0.331816 0
M  V30 5426 C 533.341 2.05599 0.272705 0
M  V30 5427 C 533.766 1.2059 1.44359 0
M  V30 5428 O 533.124 0.216907 1.79998 0
M  V30 5429 C 533.172 3.54188 0.677021 0
M  V30 5430 O 532.276 3.72082 1.77844 0
M  V30 5431 H 531.617 0.662286 0.0476801 0
M  V30 5432 H 534.147 1.98826 -0.482624 0
M  V30 5433 H 534.157 3.96608 0.957415 0
M  V30 5434 H 532.832 4.15513 -0.179325 0
M  V30 5435 H 531.409 3.41566 1.49622 0
M  V30 5436 N 533.594 0.0601682 1.57485 0
M  V30 5437 C 534.504 -0.926121 2.15546 0
M  V30 5438 C 535.52 -1.33532 1.11558 0
M  V30 5439 O 536.696 -1.4104 1.4377 0
M  V30 5440 C 533.761 -2.17952 2.69625 0
M  V30 5441 C 532.822 -1.82783 3.88444 0
M  V30 5442 C 532.055 -3.02148 4.39935 0
M  V30 5443 O 532.278 -4.15803 3.90466 0
M  V30 5444 O 531.212 -2.82639 5.31412 0
M  V30 5445 H 535.038 -0.462289 3.00161 0
M  V30 5446 H 532.623 -0.162246 1.48516 0
M  V30 5447 H 534.505 -2.91474 3.04337 0
M  V30 5448 H 533.18 -2.63456 1.88077 0
M  V30 5449 H 532.087 -1.06549 3.58606 0
M  V30 5450 H 533.42 -1.42072 4.7125 0
M  V30 5451 N 535.072 -1.5615 -0.213296 0
M  V30 5452 C 536.321 -1.78743 -0.93455 0
M  V30 5453 C 536.634 -0.630199 -1.8517 0
M  V30 5454 O 537.84 -0.739966 -2.61222 0
M  V30 5455 C 536.296 -3.16571 -1.71203 0
M  V30 5456 C 535.904 -4.40043 -0.840617 0
M  V30 5457 C 537.648 -3.48485 -2.42401 0
M  V30 5458 C 535.555 -5.68895 -1.61592 0
M  V30 5459 H 534.485 -0.666426 -0.352692 0
M  V30 5460 H 537.136 -1.82532 -0.188227 0
M  V30 5461 H 535.518 -3.06981 -2.50157 0
M  V30 5462 H 536.692 -4.6071 -0.0910326 0
M  V30 5463 H 535.007 -4.15706 -0.240365 0
M  V30 5464 H 537.604 -4.41983 -3.00924 0
M  V30 5465 H 537.947 -2.71371 -3.15695 0
M  V30 5466 H 538.48 -3.59442 -1.7043 0
M  V30 5467 H 535.219 -6.48925 -0.926106 0
M  V30 5468 H 534.739 -5.52275 -2.33991 0
M  V30 5469 H 536.418 -6.09365 -2.17447 0
M  V30 5470 N 536.55 0.480323 -1.50102 0
M  V30 5471 C 537.797 1.23307 -1.60629 0
M  V30 5472 C 538.125 1.92135 -0.302375 0
M  V30 5473 O 537.38 1.82321 0.711154 0
M  V30 5474 C 537.679 2.30708 -2.72963 0
M  V30 5475 C 537.345 1.79195 -4.13763 0
M  V30 5476 C 536.007 1.64867 -4.52076 0
M  V30 5477 C 538.359 1.40878 -5.018 0
M  V30 5478 C 535.687 1.10631 -5.76175 0
M  V30 5479 C 538.039 0.880872 -6.26437 0
M  V30 5480 C 536.703 0.724146 -6.6356 0
M  V30 5481 H 535.973 0.451211 -0.587784 0
M  V30 5482 H 538.62 0.53051 -1.84005 0
M  V30 5483 H 536.925 3.06834 -2.43639 0
M  V30 5484 H 538.622 2.88692 -2.78313 0
M  V30 5485 H 535.212 1.91313 -3.83533 0
M  V30 5486 H 539.396 1.50786 -4.7284 0
M  V30 5487 H 534.652 0.972263 -6.0362 0
M  V30 5488 H 538.826 0.575269 -6.9402 0
M  V30 5489 H 536.453 0.301722 -7.59601 0
M  V30 5490 N 538.028 1.39524 0.732853 0
M  V30 5491 C 539.276 1.36594 1.48951 0
M  V30 5492 C 539.597 -0.0367507 1.94965 0
M  V30 5493 O 538.867 -0.988391 1.69138 0
M  V30 5494 H 537.447 0.502673 0.552566 0
M  V30 5495 H 540.109 1.74411 0.869869 0
M  V30 5496 H 539.205 2.03 2.3706 0
M  V30 5497 N 539.506 -0.963266 1.24736 0
M  V30 5498 C 540.754 -1.70343 1.08755 0
M  V30 5499 C 541.075 -1.91387 -0.373619 0
M  V30 5500 O 540.345 -1.4948 -1.2662 0
M  V30 5501 H 538.925 -0.631224 0.399456 0
M  V30 5502 H 541.587 -1.15859 1.56725 0
M  V30 5503 H 540.683 -2.68616 1.58909 0
M  V30 5504 N 540.985 -1.06182 -1.16461 0
M  V30 5505 C 541.915 -0.692861 -2.22984 0
M  V30 5506 C 542.896 0.314122 -1.67174 0
M  V30 5507 O 544.081 0.189499 -1.93273 0
M  V30 5508 C 541.211 -0.07732 -3.47214 0
M  V30 5509 C 540.165 -1.01015 -4.15909 0
M  V30 5510 C 539.491 -0.257973 -5.34077 0
M  V30 5511 C 540.791 -2.33868 -4.67015 0
M  V30 5512 H 542.485 -1.58343 -2.54102 0
M  V30 5513 H 540.031 -0.76279 -1.22137 0
M  V30 5514 H 541.984 0.19266 -4.20959 0
M  V30 5515 H 540.708 0.848254 -3.15392 0
M  V30 5516 H 539.367 -1.26486 -3.44088 0
M  V30 5517 H 539.015 0.670684 -4.98509 0
M  V30 5518 H 538.715 -0.879638 -5.80979 0
M  V30 5519 H 540.239 0.00448788 -6.106 0
M  V30 5520 H 541.653 -2.1279 -5.32347 0
M  V30 5521 H 540.05 -2.91522 -5.24533 0
M  V30 5522 H 541.12 -2.97019 -3.83286 0
M  V30 5523 N 542.463 1.3308 -0.844243 0
M  V30 5524 C 543.74 1.92178 -0.364261 0
M  V30 5525 C 544.12 1.76961 1.15101 0
M  V30 5526 O 543.468 1.16128 1.9679 0
M  V30 5527 C 543.678 3.393 -0.817106 0
M  V30 5528 C 545.026 4.16444 -0.828236 0
M  V30 5529 O 546.05 3.47975 -0.761062 0
M  V30 5530 O 544.909 5.38685 -0.920926 0
M  V30 5531 H 542.003 0.820411 -0.10419 0
M  V30 5532 H 544.549 1.41918 -0.930453 0
M  V30 5533 H 543.321 3.44272 -1.85991 0
M  V30 5534 H 542.944 3.96947 -0.227785 0
M  V30 5535 N 543.941 0.601185 1.45683 0
M  V30 5536 C 545.19 0.0914953 2.01492 0
M  V30 5537 C 545.503 -1.28331 1.47616 0
M  V30 5538 O 546.709 -1.88537 1.95362 0
M  V30 5539 C 545.165 0.11291 3.59723 0
M  V30 5540 C 544.773 1.48717 4.22596 0
M  V30 5541 C 546.517 -0.341871 4.23121 0
M  V30 5542 C 544.424 1.46531 5.7296 0
M  V30 5543 H 543.354 0.0304365 0.753385 0
M  V30 5544 H 546.005 0.755568 1.67223 0
M  V30 5545 H 544.387 -0.617692 3.91153 0
M  V30 5546 H 545.561 2.23897 4.02749 0
M  V30 5547 H 543.876 1.88351 3.71366 0
M  V30 5548 H 546.473 -0.377304 5.33367 0
M  V30 5549 H 546.816 -1.36325 3.93346 0
M  V30 5550 H 547.349 0.335256 3.96385 0
M  V30 5551 H 544.088 2.46408 6.07423 0
M  V30 5552 H 543.608 0.755997 5.95017 0
M  V30 5553 H 545.287 1.18618 6.36034 0
M  V30 5554 N 545.419 -1.53889 0.339982 0
M  V30 5555 C 546.659 -2.02765 -0.258011 0
M  V30 5556 C 547.023 -1.22249 -1.48051 0
M  V30 5557 O 548.224 -1.61007 -2.15245 0
M  V30 5558 C 546.495 -3.5286 -0.567872 0
M  V30 5559 S 548.054 -4.23647 -1.14318 0
M  V30 5560 H 544.872 -0.706814 -0.0770389 0
M  V30 5561 H 547.474 -1.89594 0.476917 0
M  V30 5562 H 546.178 -4.09073 0.329745 0
M  V30 5563 H 545.709 -3.70144 -1.33256 0
M  V30 5564 H 547.724 -4.32676 -2.42911 0
M  V30 5565 N 546.897 -0.0685191 -1.57451 0
M  V30 5566 C 547.86 0.885173 -2.11417 0
M  V30 5567 C 548.86 1.22853 -1.03748 0
M  V30 5568 O 550.05 1.16235 -1.2975 0
M  V30 5569 C 547.182 2.18964 -2.61281 0
M  V30 5570 H 548.375 0.417034 -2.96986 0
M  V30 5571 H 545.928 0.18014 -1.55258 0
M  V30 5572 H 546.663 2.70321 -1.79156 0
M  V30 5573 H 546.448 1.9534 -3.39977 0
M  V30 5574 H 547.938 2.87242 -3.0312 0
M  V30 5575 N 548.375 1.56261 0.205012 0
M  V30 5576 C 549.621 1.80306 0.9283 0
M  V30 5577 C 549.954 0.640932 1.83319 0
M  V30 5578 O 549.229 -0.359032 1.91158 0
M  V30 5579 C 549.512 3.14547 1.75306 0
M  V30 5580 C 549.365 4.41236 0.873562 0
M  V30 5581 C 550.684 3.45382 2.72762 0
M  V30 5582 H 547.803 0.655929 0.336044 0
M  V30 5583 H 550.445 1.88984 0.196211 0
M  V30 5584 H 548.595 3.0728 2.37721 0
M  V30 5585 H 550.267 4.60539 0.264887 0
M  V30 5586 H 548.51 4.33427 0.179773 0
M  V30 5587 H 549.181 5.31639 1.48541 0
M  V30 5588 H 551.657 3.52884 2.20481 0
M  V30 5589 H 550.533 4.40449 3.2756 0
M  V30 5590 H 550.794 2.68377 3.51321 0
M  V30 5591 N 549.853 -0.472356 1.50355 0
M  V30 5592 C 550.763 -1.59637 1.7191 0
M  V30 5593 C 551.779 -1.63247 0.602195 0
M  V30 5594 O 552.955 -1.81139 0.880369 0
M  V30 5595 C 550.02 -2.9586 1.80742 0
M  V30 5596 C 549.081 -3.02649 3.04471 0
M  V30 5597 C 548.314 -4.32374 3.12872 0
M  V30 5598 O 548.537 -5.22807 2.28099 0
M  V30 5599 O 547.471 -4.44728 4.05587 0
M  V30 5600 H 551.297 -1.44373 2.67189 0
M  V30 5601 H 548.882 -0.651717 1.34436 0
M  V30 5602 H 550.764 -3.7677 1.88739 0
M  V30 5603 H 549.439 -3.11325 0.88647 0
M  V30 5604 H 548.346 -2.20821 3.01975 0
M  V30 5605 H 549.679 -2.92119 3.9614 0
M  V30 5606 N 551.331 -1.39911 -0.725443 0
M  V30 5607 C 552.294 -1.39156 -1.82121 0
M  V30 5608 C 553.294 -0.287018 -1.58218 0
M  V30 5609 O 554.484 -0.545421 -1.65441 0
M  V30 5610 C 551.616 -1.1736 -3.20062 0
M  V30 5611 H 552.809 -2.36672 -1.84191 0
M  V30 5612 H 550.362 -1.25615 -0.930079 0
M  V30 5613 H 551.097 -0.205648 -3.23647 0
M  V30 5614 H 550.882 -1.97358 -3.3881 0
M  V30 5615 H 552.372 -1.19596 -4.00108 0
M  V30 5616 N 552.809 0.956637 -1.25245 0
M  V30 5617 C 553.739 2.07058 -1.07931 0
M  V30 5618 C 554.72 1.70096 0.0110361 0
M  V30 5619 O 555.905 1.93555 -0.158121 0
M  V30 5620 C 553.035 3.40272 -0.695124 0
M  V30 5621 C 551.989 3.91235 -1.73549 0
M  V30 5622 C 551.315 5.20921 -1.20604 0
M  V30 5623 C 552.615 4.17837 -3.13385 0
M  V30 5624 H 554.309 2.218 -2.01109 0
M  V30 5625 H 551.855 1.06581 -0.968326 0
M  V30 5626 H 553.808 4.1765 -0.560949 0
M  V30 5627 H 552.532 3.25462 0.272355 0
M  V30 5628 H 551.191 3.16025 -1.85807 0
M  V30 5629 H 550.839 5.02479 -0.228846 0
M  V30 5630 H 550.539 5.55987 -1.90136 0
M  V30 5631 H 552.063 6.00897 -1.08421 0
M  V30 5632 H 553.477 4.8588 -3.04292 0
M  V30 5633 H 551.874 4.64154 -3.80369 0
M  V30 5634 H 552.944 3.2419 -3.60595 0
M  V30 5635 N 554.287 1.06798 1.15896 0
M  V30 5636 C 555.237 0.653213 2.18443 0
M  V30 5637 C 556.221 -0.318763 1.57711 0
M  V30 5638 O 557.413 -0.133388 1.76497 0
M  V30 5639 C 554.542 0.0465785 3.43268 0
M  V30 5640 C 553.628 1.04336 4.11066 0
M  V30 5641 N 554.019 2.22084 4.54436 0
M  V30 5642 C 552.317 0.875433 4.37324 0
M  V30 5643 C 553.018 2.85276 5.06944 0
M  V30 5644 N 551.994 2.12973 5.00143 0
M  V30 5645 H 555.796 1.55011 2.49698 0
M  V30 5646 H 553.31 0.940384 1.32403 0
M  V30 5647 H 555.307 -0.26843 4.16035 0
M  V30 5648 H 553.967 -0.845504 3.13499 0
M  V30 5649 H 554.978 2.59833 4.48004 0
M  V30 5650 H 551.655 0.0357721 4.17485 0
M  V30 5651 H 553.045 3.85223 5.50503 0
M  V30 5652 N 555.766 -1.3263 0.851289 0
M  V30 5653 C 557.014 -1.96978 0.452128 0
M  V30 5654 C 557.335 -1.67715 -0.99482 0
M  V30 5655 O 556.605 -0.98259 -1.69476 0
M  V30 5656 H 555.185 -0.72873 0.164202 0
M  V30 5657 H 557.847 -1.61774 1.08698 0
M  V30 5658 H 556.943 -3.06387 0.594407 0
M  V30 5659 N 557.244 -0.608902 -1.45362 0
M  V30 5660 C 558.191 0.109172 -2.30542 0
M  V30 5661 C 559.161 0.858704 -1.42181 0
M  V30 5662 O 560.346 0.844178 -1.71109 0
M  V30 5663 C 557.486 1.09971 -3.27109 0
M  V30 5664 C 556.599 0.350911 -4.30572 0
M  V30 5665 C 555.734 1.33129 -5.14247 0
M  V30 5666 C 554.773 0.570377 -6.09437 0
M  V30 5667 N 553.91 1.5001 -6.85887 0
M  V30 5668 H 558.75 -0.623195 -2.91411 0
M  V30 5669 H 556.287 -0.319122 -1.43597 0
M  V30 5670 H 558.245 1.68714 -3.81564 0
M  V30 5671 H 556.875 1.79947 -2.67991 0
M  V30 5672 H 555.927 -0.352054 -3.78767 0
M  V30 5673 H 557.239 -0.242725 -4.98209 0
M  V30 5674 H 556.393 1.99074 -5.73109 0
M  V30 5675 H 555.132 1.95885 -4.46632 0
M  V30 5676 H 554.137 -0.102702 -5.49704 0
M  V30 5677 H 555.362 -0.0521607 -6.7908 0
M  V30 5678 H 553.308 2.11529 -6.2096 0
M  V30 5679 H 553.225 0.959934 -7.49881 0
M  V30 5680 H 554.493 2.14909 -7.49289 0
M  V30 5681 N 558.722 1.53707 -0.348139 0
M  V30 5682 C 559.999 1.93247 0.302475 0
M  V30 5683 C 560.379 1.28012 1.67857 0
M  V30 5684 O 559.727 0.43274 2.24365 0
M  V30 5685 C 559.937 3.47031 0.370159 0
M  V30 5686 C 561.285 4.20066 0.61882 0
M  V30 5687 O 562.309 3.53319 0.452087 0
M  V30 5688 O 561.168 5.38318 0.94215 0
M  V30 5689 H 558.262 0.807736 0.177458 0
M  V30 5690 H 560.808 1.64927 -0.399651 0
M  V30 5691 H 559.58 3.86745 -0.59534 0
M  V30 5692 H 559.203 3.81532 1.11888 0
M  V30 5693 N 560.2 0.0768682 1.57412 0
M  V30 5694 C 561.448 -0.589918 1.93299 0
M  V30 5695 C 561.769 -1.69842 0.958049 0
M  V30 5696 O 561.039 -1.95899 0.00703261 0
M  V30 5697 H 559.619 -0.220901 0.713591 0
M  V30 5698 H 562.281 0.135917 1.94425 0
M  V30 5699 H 561.377 -1.01195 2.95239 0
M  V30 5700 N 561.678 -1.56367 -0.196722 0
M  V30 5701 C 563.094 -1.49916 -0.54749 0
M  V30 5702 C 563.294 -0.77659 -1.85934 0
M  V30 5703 O 562.35 -0.32644 -2.50381 0
M  V30 5704 C 563.663 -2.94577 -0.603734 0
M  V30 5705 C 565.211 -3.05239 -0.692677 0
M  V30 5706 C 565.686 -4.51308 -0.780046 0
M  V30 5707 N 567.177 -4.55453 -0.843616 0
M  V30 5708 C 567.912 -5.65786 -0.931358 0
M  V30 5709 N 567.408 -6.85812 -0.981503 0
M  V30 5710 N 569.201 -5.53695 -0.968421 0
M  V30 5711 H 561.352 -2.01761 0.663803 0
M  V30 5712 H 563.615 -0.918094 0.236238 0
M  V30 5713 H 563.321 -3.50494 0.29105 0
M  V30 5714 H 563.195 -3.47841 -1.45898 0
M  V30 5715 H 565.582 -2.49372 -1.57789 0
M  V30 5716 H 565.663 -2.55103 0.188736 0
M  V30 5717 H 565.307 -5.078 0.100811 0
M  V30 5718 H 565.237 -4.99176 -1.67724 0
M  V30 5719 H 567.728 -3.69025 -0.814176 0
M  V30 5720 H 568.041 -7.65648 -1.04892 0
M  V30 5721 H 566.386 -6.88474 -0.950208 0
M  V30 5722 H 569.577 -4.58848 -0.926072 0
M  V30 5723 H 569.75 -6.39708 -1.03334 0
M  V30 5724 N 563.156 0.464375 -1.50603 0
M  V30 5725 C 564.433 1.22549 -1.5245 0
M  V30 5726 C 564.813 2.09327 -0.273035 0
M  V30 5727 O 564.161 2.16074 0.743242 0
M  V30 5728 C 564.371 2.05074 -2.82393 0
M  V30 5729 C 565.719 2.63036 -3.33313 0
M  V30 5730 O 566.743 2.1531 -2.8376 0
M  V30 5731 O 565.602 3.5001 -4.19709 0
M  V30 5732 H 562.696 0.556471 -0.611775 0
M  V30 5733 H 565.242 0.475648 -1.62898 0
M  V30 5734 H 564.014 1.41169 -3.64948 0
M  V30 5735 H 563.637 2.87179 -2.7498 0
M  V30 5736 N 564.634 1.40294 0.718013 0
M  V30 5737 C 565.584 1.36847 1.82365 0
M  V30 5738 C 566.568 0.246424 1.59002 0
M  V30 5739 O 567.76 0.485336 1.70216 0
M  V30 5740 C 564.889 1.23105 3.20469 0
M  V30 5741 C 563.975 2.4008 3.49603 0
M  V30 5742 N 564.366 3.65562 3.49568 0
M  V30 5743 C 562.664 2.33407 3.80049 0
M  V30 5744 C 563.365 4.43015 3.76978 0
M  V30 5745 N 562.341 3.72823 3.95606 0
M  V30 5746 H 566.143 2.31811 1.80668 0
M  V30 5747 H 563.657 1.34031 0.91703 0
M  V30 5748 H 565.654 1.18718 3.9964 0
M  V30 5749 H 564.314 0.291056 3.23393 0
M  V30 5750 H 565.325 3.98756 3.30476 0
M  V30 5751 H 562.002 1.47762 3.90478 0
M  V30 5752 H 563.392 5.51859 3.83276 0
M  V30 5753 N 566.112 -0.949982 1.2575 0
M  V30 5754 C 567.361 -1.68956 1.10168 0
M  V30 5755 C 567.674 -1.92327 -0.356309 0
M  V30 5756 O 568.88 -2.64026 -0.632657 0
M  V30 5757 C 567.336 -3.04196 1.92336 0
M  V30 5758 C 566.944 -2.88603 3.42655 0
M  V30 5759 C 568.688 -3.81904 1.85336 0
M  V30 5760 C 566.595 -4.19262 4.17101 0
M  V30 5761 H 565.525 -0.633645 0.408668 0
M  V30 5762 H 568.176 -1.05719 1.49986 0
M  V30 5763 H 566.558 -3.68363 1.45344 0
M  V30 5764 H 567.732 -2.3334 3.97353 0
M  V30 5765 H 566.047 -2.24345 3.50796 0
M  V30 5766 H 568.644 -4.78688 2.38248 0
M  V30 5767 H 568.987 -4.08099 0.822226 0
M  V30 5768 H 569.52 -3.24495 2.30104 0
M  V30 5769 H 566.259 -3.98254 5.20648 0
M  V30 5770 H 565.779 -4.74273 3.67186 0
M  V30 5771 H 567.458 -4.87775 4.25071 0
M  V30 5772 N 567.59 -1.07411 -1.15328 0
M  V30 5773 C 568.839 -0.792643 -1.85473 0
M  V30 5774 C 569.152 0.683789 -1.83259 0
M  V30 5775 O 570.358 1.08005 -2.49093 0
M  V30 5776 C 568.814 -1.36787 -3.32892 0
M  V30 5777 C 568.422 -2.87536 -3.43551 0
M  V30 5778 C 570.166 -1.16444 -4.08217 0
M  V30 5779 C 568.073 -3.38247 -4.85122 0
M  V30 5780 H 567.003 -0.292838 -0.694811 0
M  V30 5781 H 569.654 -1.29426 -1.30082 0
M  V30 5782 H 568.036 -0.793993 -3.87958 0
M  V30 5783 H 569.21 -3.50973 -2.98588 0
M  V30 5784 H 567.525 -3.06676 -2.81672 0
M  V30 5785 H 570.122 -1.51808 -5.12697 0
M  V30 5786 H 570.465 -0.10353 -4.16171 0
M  V30 5787 H 570.998 -1.70472 -3.59422 0
M  V30 5788 H 567.737 -4.43866 -4.82351 0
M  V30 5789 H 567.257 -2.79564 -5.30664 0
M  V30 5790 H 568.936 -3.34238 -5.5398 0
M  V30 5791 N 569.068 1.32177 -0.85831 0
M  V30 5792 C 569.978 2.32561 -0.308606 0
M  V30 5793 C 570.994 1.64209 0.575462 0
M  V30 5794 O 572.17 1.95719 0.474961 0
M  V30 5795 C 569.235 3.43207 0.490909 0
M  V30 5796 C 568.296 4.27243 -0.419733 0
M  V30 5797 C 567.529 5.32605 0.341719 0
M  V30 5798 O 567.752 5.48332 1.57125 0
M  V30 5799 O 566.686 6.0118 -0.294379 0
M  V30 5800 H 570.512 2.81477 -1.14037 0
M  V30 5801 H 568.097 1.35866 -0.621349 0
M  V30 5802 H 569.979 4.10677 0.944574 0
M  V30 5803 H 568.654 2.96474 1.29941 0
M  V30 5804 H 567.561 3.62569 -0.921652 0
M  V30 5805 H 568.894 4.7751 -1.19352 0
M  V30 5806 N 570.547 0.616602 1.45037 0
M  V30 5807 C 571.793 0.115501 2.02471 0
M  V30 5808 C 572.126 -1.25406 1.4828 0
M  V30 5809 O 571.401 -1.82922 0.661051 0
M  V30 5810 C 571.684 0.0863588 3.59996 0
M  V30 5811 C 571.537 1.48723 4.24501 0
M  V30 5812 C 572.856 -0.596762 4.36035 0
M  V30 5813 H 569.975 0.0434461 0.735718 0
M  V30 5814 H 572.617 0.7903 1.72784 0
M  V30 5815 H 570.767 -0.488277 3.85419 0
M  V30 5816 H 572.439 2.10964 4.10234 0
M  V30 5817 H 570.682 2.04534 3.82555 0
M  V30 5818 H 571.353 1.419 5.3345 0
M  V30 5819 H 573.829 -0.10824 4.15959 0
M  V30 5820 H 572.705 -0.586289 5.4576 0
M  V30 5821 H 572.966 -1.66451 4.09569 0
M  V30 5822 N 572.025 -1.5352 0.356285 0
M  V30 5823 C 573.271 -2.01414 -0.236653 0
M  V30 5824 C 573.604 -1.24339 -1.49176 0
M  V30 5825 O 572.879 -0.334496 -1.91602 0
M  V30 5826 C 573.162 -3.56059 -0.537982 0
M  V30 5827 C 573.015 -4.43835 0.730112 0
M  V30 5828 C 574.334 -4.19127 -1.34239 0
M  V30 5829 H 571.453 -0.732135 -0.0845386 0
M  V30 5830 H 574.095 -1.83854 0.479341 0
M  V30 5831 H 572.245 -3.71153 -1.14795 0
M  V30 5832 H 573.917 -4.40555 1.36782 0
M  V30 5833 H 572.16 -4.1218 1.3524 0
M  V30 5834 H 572.831 -5.49958 0.474358 0
M  V30 5835 H 575.307 -4.07809 -0.826498 0
M  V30 5836 H 574.183 -5.27378 -1.52198 0
M  V30 5837 H 574.444 -3.74581 -2.34822 0
M  V30 5838 N 573.503 -0.0852151 -1.57369 0
M  V30 5839 C 574.751 0.579658 -1.93609 0
M  V30 5840 C 575.072 1.69332 -0.967043 0
M  V30 5841 O 574.342 1.95892 -0.0174215 0
M  V30 5842 H 572.922 0.217113 -0.714752 0
M  V30 5843 H 575.584 -0.146226 -1.94351 0
M  V30 5844 H 574.68 0.996276 -2.95771 0
M  V30 5845 N 574.981 1.5647 0.188427 0
M  V30 5846 C 576.206 1.85486 0.927891 0
M  V30 5847 C 576.631 0.669575 1.75779 0
M  V30 5848 O 575.989 -0.381573 1.77239 0
M  V30 5849 C 576.037 3.12784 1.7944 0
M  V30 5850 O 575.141 2.93805 2.894 0
M  V30 5851 H 574.482 0.610585 0.260925 0
M  V30 5852 H 577.012 2.037 0.191729 0
M  V30 5853 H 577.022 3.43749 2.19774 0
M  V30 5854 H 575.697 3.98671 1.18468 0
M  V30 5855 H 574.274 2.74153 2.52774 0
M  V30 5856 N 576.459 -0.456382 1.50847 0
M  V30 5857 C 577.684 -1.2349 1.66628 0
M  V30 5858 C 578.109 -1.84715 0.355254 0
M  V30 5859 O 577.467 -1.67961 -0.682559 0
M  V30 5860 C 577.515 -2.30865 2.77009 0
M  V30 5861 O 576.619 -3.35882 2.39285 0
M  V30 5862 H 575.96 -0.36266 0.556214 0
M  V30 5863 H 578.49 -0.541374 1.97308 0
M  V30 5864 H 578.5 -2.75949 3.00526 0
M  V30 5865 H 577.175 -1.85677 3.72152 0
M  V30 5866 H 575.752 -2.96406 2.26269 0
M  V30 5867 N 577.937 -1.40673 -0.710563 0
M  V30 5868 C 578.87 -1.35742 -1.83438 0
M  V30 5869 C 579.848 -0.226997 -1.61008 0
M  V30 5870 O 581.032 -0.411477 -1.83954 0
M  V30 5871 C 578.159 -1.11374 -3.19865 0
M  V30 5872 C 577.205 -2.26935 -3.61113 0
M  V30 5873 S 578.038 -3.89352 -3.67648 0
M  V30 5874 C 579.194 -3.67258 -5.06826 0
M  V30 5875 H 579.427 -2.30848 -1.87341 0
M  V30 5876 H 576.96 -1.27018 -0.877831 0
M  V30 5877 H 578.918 -0.980004 -3.9863 0
M  V30 5878 H 577.579 -0.179135 -3.13589 0
M  V30 5879 H 576.772 -2.0554 -4.60184 0
M  V30 5880 H 576.374 -2.36638 -2.89618 0
M  V30 5881 H 578.666 -3.26036 -5.93891 0
M  V30 5882 H 579.609 -4.65878 -5.33257 0
M  V30 5883 H 580.017 -3.0084 -4.77656 0
M  V30 5884 N 579.415 0.9433 -1.26252 0
M  V30 5885 C 580.826 1.50404 -1.10614 0
M  V30 5886 C 581.177 1.93666 0.31429 0
M  V30 5887 O 580.302 1.79709 1.20555 0
M  V30 5888 C 580.897 2.73336 -2.00182 0
M  V30 5889 C 579.456 3.25686 -1.88695 0
M  V30 5890 C 578.603 1.98474 -1.93658 0
M  V30 5891 H 581.554 0.759006 -1.39373 0
M  V30 5892 H 581.575 3.47567 -1.54847 0
M  V30 5893 H 581.087 2.41818 -3.03555 0
M  V30 5894 H 579.188 3.61998 -0.882489 0
M  V30 5895 H 579.301 3.92935 -2.74115 0
M  V30 5896 H 577.665 2.14278 -1.37684 0
M  V30 5897 H 578.448 1.6929 -2.98657 0
M  V30 5898 N 580.893 1.08022 1.14757 0
M  V30 5899 C 581.823 0.728248 2.21853 0
M  V30 5900 C 582.804 -0.287486 1.67653 0
M  V30 5901 O 583.989 -0.158727 1.9355 0
M  V30 5902 C 581.119 0.132549 3.47047 0
M  V30 5903 C 580.073 1.07619 4.14249 0
M  V30 5904 C 579.399 0.342907 5.33599 0
M  V30 5905 C 580.699 2.41268 4.63235 0
M  V30 5906 H 582.393 1.62365 2.51551 0
M  V30 5907 H 579.939 0.782125 1.20908 0
M  V30 5908 H 581.892 -0.125665 4.21213 0
M  V30 5909 H 580.616 -0.797971 3.16702 0
M  V30 5910 H 579.275 1.31944 3.42033 0
M  V30 5911 H 578.923 -0.59129 4.99513 0
M  V30 5912 H 578.623 0.971955 5.79506 0
M  V30 5913 H 580.147 0.0926538 6.1053 0
M  V30 5914 H 581.561 2.21232 5.28894 0
M  V30 5915 H 579.958 2.9983 5.19829 0
M  V30 5916 H 581.028 3.03079 3.78512 0
M  V30 5917 N 582.371 -1.3172 0.865308 0
M  V30 5918 C 583.62 -1.96145 0.470098 0
M  V30 5919 C 583.933 -1.69182 -0.981674 0
M  V30 5920 O 585.139 -2.27431 -1.48281 0
M  V30 5921 C 583.595 -3.51129 0.789732 0
M  V30 5922 C 583.203 -3.86938 2.25795 0
M  V30 5923 C 584.947 -4.2197 0.462765 0
M  V30 5924 C 582.854 -5.35012 2.52024 0
M  V30 5925 H 581.784 -0.734105 0.172065 0
M  V30 5926 H 584.435 -1.49959 1.05757 0
M  V30 5927 H 582.817 -3.95781 0.131571 0
M  V30 5928 H 583.991 -3.5326 2.95879 0
M  V30 5929 H 582.306 -3.29149 2.55049 0
M  V30 5930 H 584.903 -5.30904 0.636019 0
M  V30 5931 H 585.246 -4.12005 -0.59645 0
M  V30 5932 H 585.779 -3.82936 1.07727 0
M  V30 5933 H 582.518 -5.50008 3.56611 0
M  V30 5934 H 582.038 -5.70058 1.8653 0
M  V30 5935 H 583.717 -6.0222 2.36515 0
M  V30 5936 N 583.85 -0.624285 -1.44708 0
M  V30 5937 C 585.098 -0.125802 -2.01708 0
M  V30 5938 C 585.418 1.2543 -1.49306 0
M  V30 5939 O 584.689 1.83198 -0.693924 0
M  V30 5940 H 583.269 -0.0435161 -0.745731 0
M  V30 5941 H 585.931 -0.809446 -1.77296 0
M  V30 5942 H 585.027 -0.0882734 -3.11975 0
M  V30 5943 N 585.328 1.53329 -0.364422 0
M  V30 5944 C 586.605 1.93557 0.281962 0
M  V30 5945 C 586.985 1.29786 1.6649 0
M  V30 5946 O 586.333 0.456512 2.23893 0
M  V30 5947 C 586.543 3.47405 0.333331 0
M  V30 5948 C 587.891 4.20699 0.574231 0
M  V30 5949 O 588.915 3.53779 0.414588 0
M  V30 5950 O 587.774 5.39287 0.885002 0
M  V30 5951 H 584.868 0.809573 0.168881 0
M  V30 5952 H 587.414 1.64494 -0.417121 0
M  V30 5953 H 586.186 3.86091 -0.636326 0
M  V30 5954 H 585.809 3.82697 1.07836 0
M  V30 5955 N 586.806 0.0935595 1.57322 0
M  V30 5956 C 587.756 -0.876521 2.10478 0
M  V30 5957 C 588.74 -1.24482 1.01946 0
M  V30 5958 O 589.932 -1.22016 1.28223 0
M  V30 5959 C 587.061 -2.13615 2.68745 0
M  V30 5960 C 586.147 -1.79335 3.84317 0
M  V30 5961 N 586.538 -1.15606 4.92411 0
M  V30 5962 C 584.836 -2.08954 3.94023 0
M  V30 5963 C 585.537 -0.999036 5.73057 0
M  V30 5964 N 584.513 -1.51585 5.22037 0
M  V30 5965 H 588.315 -0.379829 2.91435 0
M  V30 5966 H 585.829 -0.109699 1.62029 0
M  V30 5967 H 587.826 -2.84053 3.05155 0
M  V30 5968 H 586.486 -2.63851 1.89242 0
M  V30 5969 H 587.497 -0.823063 5.11318 0
M  V30 5970 H 584.174 -2.61416 3.25527 0
M  V30 5971 H 585.564 -0.500772 6.70031 0
M  V30 5972 N 588.284 -1.56567 -0.180126 0
M  V30 5973 C 589.216 -1.92275 -1.24751 0
M  V30 5974 C 590.229 -0.814922 -1.40936 0
M  V30 5975 O 591.418 -1.09336 -1.41095 0
M  V30 5976 C 588.518 -2.15265 -2.61752 0
M  V30 5977 C 587.691 -3.46467 -2.66981 0
M  V30 5978 C 586.75 -3.58391 -3.85283 0
M  V30 5979 O 585.776 -4.31086 -3.7169 0
M  V30 5980 N 586.978 -2.92587 -5.01371 0
M  V30 5981 H 589.743 -2.84435 -0.944302 0
M  V30 5982 H 587.304 -1.57617 -0.369952 0
M  V30 5983 H 589.296 -2.20515 -3.39345 0
M  V30 5984 H 587.866 -1.29533 -2.845 0
M  V30 5985 H 587.086 -3.52953 -1.75549 0
M  V30 5986 H 588.374 -4.32819 -2.67479 0
M  V30 5987 H 587.772 -2.3338 -5.15316 0
M  V30 5988 H 586.329 -3.03444 -5.76858 0
M  V30 5989 N 589.762 0.448376 -1.51087 0
M  V30 5990 C 591.039 1.20926 -1.53741 0
M  V30 5991 C 591.419 2.09025 -0.295222 0
M  V30 5992 O 590.767 2.16851 0.720283 0
M  V30 5993 C 590.977 2.02067 -2.84552 0
M  V30 5994 C 592.325 2.59486 -3.36084 0
M  V30 5995 O 593.349 2.12289 -2.86028 0
M  V30 5996 O 592.208 3.45539 -4.23397 0
M  V30 5997 H 589.302 0.549951 -0.617643 0
M  V30 5998 H 591.848 0.458344 -1.63393 0
M  V30 5999 H 590.62 1.37291 -3.66425 0
M  V30 6000 H 590.243 2.84246 -2.78011 0
M  V30 6001 N 591.24 1.41047 0.703093 0
M  V30 6002 C 592.15 1.44645 1.84703 0
M  V30 6003 C 593.166 0.337778 1.7069 0
M  V30 6004 O 594.342 0.584327 1.92737 0
M  V30 6005 C 591.407 1.31928 3.20618 0
M  V30 6006 C 590.468 2.53047 3.46794 0
M  V30 6007 C 589.701 2.40927 4.76224 0
M  V30 6008 O 589.924 1.42978 5.5219 0
M  V30 6009 O 588.858 3.30543 5.03016 0
M  V30 6010 H 592.684 2.41139 1.84624 0
M  V30 6011 H 590.269 1.22504 0.855167 0
M  V30 6012 H 592.151 1.27092 4.01778 0
M  V30 6013 H 590.826 0.385469 3.21397 0
M  V30 6014 H 589.733 2.6346 2.65593 0
M  V30 6015 H 591.066 3.45231 3.50822 0
M  V30 6016 N 592.718 -0.936591 1.26751 0
M  V30 6017 C 593.995 -1.66094 1.03306 0
M  V30 6018 C 594.375 -2.06568 -0.435058 0
M  V30 6019 O 593.723 -1.79305 -1.41641 0
M  V30 6020 C 593.933 -2.86969 1.98619 0
M  V30 6021 C 595.281 -3.58516 2.27489 0
M  V30 6022 O 596.305 -2.97082 1.96522 0
M  V30 6023 O 595.164 -4.69181 2.80235 0
M  V30 6024 H 592.258 -0.727568 0.393158 0
M  V30 6025 H 594.804 -0.987914 1.3798 0
M  V30 6026 H 593.576 -2.53985 2.9767 0
M  V30 6027 H 593.199 -3.61996 1.64454 0
M  V30 6028 N 594.196 -1.08629 -1.14182 0
M  V30 6029 C 595.143 -0.718299 -2.19338 0
M  V30 6030 C 596.113 0.296587 -1.63431 0
M  V30 6031 O 597.298 0.180079 -1.89948 0
M  V30 6032 C 594.438 -0.136203 -3.44831 0
M  V30 6033 C 593.551 -1.20414 -4.14879 0
M  V30 6034 C 592.686 -0.585666 -5.27962 0
M  V30 6035 C 591.725 -1.63548 -5.89846 0
M  V30 6036 N 590.862 -1.03864 -6.94375 0
M  V30 6037 H 595.702 -1.61932 -2.50164 0
M  V30 6038 H 593.239 -0.80919 -1.22844 0
M  V30 6039 H 595.197 0.219021 -4.16625 0
M  V30 6040 H 593.827 0.728121 -3.14481 0
M  V30 6041 H 592.879 -1.67676 -3.41451 0
M  V30 6042 H 594.191 -1.99959 -4.56966 0
M  V30 6043 H 593.345 -0.178818 -6.06436 0
M  V30 6044 H 592.084 0.24142 -4.87102 0
M  V30 6045 H 591.089 -2.05197 -5.10073 0
M  V30 6046 H 592.314 -2.46509 -6.3278 0
M  V30 6047 H 590.26 -0.232687 -6.55587 0
M  V30 6048 H 590.177 -1.77116 -7.3496 0
M  V30 6049 H 591.445 -0.657724 -7.7672 0
M  V30 6050 N 595.674 1.31259 -0.872281 0
M  V30 6051 C 596.606 2.27396 -0.28697 0
M  V30 6052 C 597.619 1.53181 0.551297 0
M  V30 6053 O 598.808 1.74561 0.372914 0
M  V30 6054 C 595.908 3.33335 0.611617 0
M  V30 6055 C 595.081 4.36966 -0.194729 0
M  V30 6056 C 594.14 5.22387 0.632358 0
M  V30 6057 O 593.166 5.69169 0.0595691 0
M  V30 6058 N 594.368 5.46985 1.94391 0
M  V30 6059 H 597.133 2.78261 -1.11314 0
M  V30 6060 H 594.694 1.44306 -0.733994 0
M  V30 6061 H 596.686 3.87398 1.17068 0
M  V30 6062 H 595.256 2.82496 1.33846 0
M  V30 6063 H 594.476 3.82945 -0.935241 0
M  V30 6064 H 595.764 5.03273 -0.747935 0
M  V30 6065 H 595.162 5.10737 2.43237 0
M  V30 6066 H 593.719 6.03973 2.45071 0
M  V30 6067 N 597.152 0.631951 1.44375 0
M  V30 6068 C 598.082 -0.0593243 2.33425 0
M  V30 6069 C 599.063 -0.833964 1.48253 0
M  V30 6070 O 600.248 -0.799682 1.76971 0
M  V30 6071 C 597.378 -1.04096 3.31333 0
M  V30 6072 C 596.332 -0.377899 4.26328 0
M  V30 6073 C 595.658 -1.4695 5.14111 0
M  V30 6074 C 596.958 0.716371 5.17364 0
M  V30 6075 H 598.652 0.684287 2.91475 0
M  V30 6076 H 596.198 0.330518 1.40156 0
M  V30 6077 H 598.151 -1.53331 3.92514 0
M  V30 6078 H 596.875 -1.81547 2.71493 0
M  V30 6079 H 595.534 0.0938054 3.6648 0
M  V30 6080 H 595.182 -2.2349 4.50623 0
M  V30 6081 H 594.882 -1.03121 5.78481 0
M  V30 6082 H 596.406 -1.96363 5.78164 0
M  V30 6083 H 597.82 0.307089 5.72477 0
M  V30 6084 H 596.217 1.07784 5.90341 0
M  V30 6085 H 597.287 1.58316 4.58327 0
M  V30 6086 N 598.631 -1.53133 0.372548 0
M  V30 6087 C 599.88 -2.00539 -0.216115 0
M  V30 6088 C 600.193 -1.26374 -1.49295 0
M  V30 6089 O 601.399 -1.64404 -2.16064 0
M  V30 6090 C 599.855 -3.57253 -0.435678 0
M  V30 6091 C 599.463 -4.40302 0.82693 0
M  V30 6092 C 601.207 -4.12995 -0.981618 0
M  V30 6093 C 599.114 -5.88583 0.576567 0
M  V30 6094 H 598.044 -0.749246 -0.084536 0
M  V30 6095 H 600.695 -1.76771 0.492364 0
M  V30 6096 H 599.077 -3.77202 -1.20559 0
M  V30 6097 H 600.251 -4.32124 1.60017 0
M  V30 6098 H 598.566 -3.95699 1.29659 0
M  V30 6099 H 601.163 -5.21418 -1.18436 0
M  V30 6100 H 601.506 -3.68027 -1.94581 0
M  V30 6101 H 602.039 -3.96871 -0.271696 0
M  V30 6102 H 598.778 -6.37841 1.51128 0
M  V30 6103 H 598.298 -5.99592 -0.158047 0
M  V30 6104 H 599.977 -6.46676 0.204722 0
M  V30 6105 N 600.109 -0.101901 -1.5727 0
M  V30 6106 C 601.355 0.561027 -1.94885 0
M  V30 6107 C 601.688 1.6741 -0.984258 0
M  V30 6108 O 600.963 1.94491 -0.0184767 0
M  V30 6109 C 601.246 1.10982 -3.42571 0
M  V30 6110 C 601.099 0.00133418 -4.498 0
M  V30 6111 C 602.418 2.00608 -3.9172 0
M  V30 6112 H 599.537 0.202467 -0.708644 0
M  V30 6113 H 602.179 -0.173992 -1.89202 0
M  V30 6114 H 600.329 1.73621 -3.47546 0
M  V30 6115 H 602.001 -0.63322 -4.56933 0
M  V30 6116 H 600.244 -0.664143 -4.28686 0
M  V30 6117 H 600.915 0.426253 -5.50352 0
M  V30 6118 H 603.391 1.47864 -3.88941 0
M  V30 6119 H 602.267 2.3593 -4.95609 0
M  V30 6120 H 602.528 2.92608 -3.3141 0
M  V30 6121 N 601.587 1.56661 0.17182 0
M  V30 6122 C 602.497 1.99604 1.2327 0
M  V30 6123 C 603.513 0.907333 1.4847 0
M  V30 6124 O 604.689 1.21492 1.60629 0
M  V30 6125 C 601.754 2.34685 2.55194 0
M  V30 6126 C 600.815 3.57381 2.3786 0
M  V30 6127 C 600.048 3.90779 3.63494 0
M  V30 6128 O 600.271 3.25152 4.6865 0
M  V30 6129 O 599.205 4.84129 3.57634 0
M  V30 6130 H 603.031 2.90114 0.898192 0
M  V30 6131 H 600.616 1.44522 0.378647 0
M  V30 6132 H 602.498 2.5822 3.33017 0
M  V30 6133 H 601.173 1.47336 2.88225 0
M  V30 6134 H 600.08 3.39064 1.5807 0
M  V30 6135 H 601.413 4.45268 2.09754 0
M  V30 6136 N 603.065 -0.440357 1.51323 0
M  V30 6137 C 603.995 -1.54174 1.75364 0
M  V30 6138 C 604.976 -1.59039 0.603375 0
M  V30 6139 O 606.161 -1.74815 0.845774 0
M  V30 6140 C 603.291 -2.92277 1.87593 0
M  V30 6141 C 602.245 -3.02274 3.03009 0
M  V30 6142 C 601.571 -4.42327 3.00418 0
M  V30 6143 C 602.871 -2.76634 4.43024 0
M  V30 6144 H 604.565 -1.34307 2.67585 0
M  V30 6145 H 602.111 -0.644678 1.28763 0
M  V30 6146 H 604.064 -3.69284 2.02995 0
M  V30 6147 H 602.788 -3.13369 0.920179 0
M  V30 6148 H 601.447 -2.27706 2.87307 0
M  V30 6149 H 601.095 -4.60382 2.02626 0
M  V30 6150 H 600.795 -4.49946 3.77918 0
M  V30 6151 H 602.319 -5.21312 3.17909 0
M  V30 6152 H 603.733 -3.43376 4.59093 0
M  V30 6153 H 602.13 -2.95666 5.22208 0
M  V30 6154 H 603.2 -1.72262 4.5327 0
M  V30 6155 N 604.543 -1.41418 -0.695603 0
M  V30 6156 C 605.789 -1.40982 -1.4578 0
M  V30 6157 C 606.122 -0.0187763 -1.94191 0
M  V30 6158 O 605.397 0.95346 -1.69527 0
M  V30 6159 C 605.68 -2.41657 -2.66972 0
M  V30 6160 C 605.533 -3.89869 -2.24327 0
M  V30 6161 C 606.852 -2.39589 -3.69168 0
M  V30 6162 H 603.971 -0.513405 -0.528757 0
M  V30 6163 H 606.613 -1.72693 -0.792275 0
M  V30 6164 H 604.763 -2.14746 -3.23754 0
M  V30 6165 H 606.435 -4.27683 -1.72872 0
M  V30 6166 H 604.678 -4.04737 -1.56111 0
M  V30 6167 H 605.349 -4.55857 -3.11285 0
M  V30 6168 H 607.825 -2.63471 -3.2206 0
M  V30 6169 H 606.701 -3.12044 -4.51575 0
M  V30 6170 H 606.962 -1.41447 -4.18862 0
M  V30 6171 N 606.021 0.929856 -1.27246 0
M  V30 6172 C 607.267 1.6798 -1.13625 0
M  V30 6173 C 607.6 1.91586 0.317589 0
M  V30 6174 O 606.875 1.50467 1.23247 0
M  V30 6175 C 607.158 3.04766 -1.91806 0
M  V30 6176 C 607.011 2.88415 -3.45162 0
M  V30 6177 C 608.33 4.05063 -1.72082 0
M  V30 6178 H 605.449 0.609632 -0.414147 0
M  V30 6179 H 608.091 1.0792 -1.56376 0
M  V30 6180 H 606.241 3.56034 -1.55474 0
M  V30 6181 H 607.913 2.44282 -3.91311 0
M  V30 6182 H 606.156 2.23802 -3.71611 0
M  V30 6183 H 606.827 3.85482 -3.95105 0
M  V30 6184 H 609.303 3.62798 -2.03757 0
M  V30 6185 H 608.179 4.98765 -2.29182 0
M  V30 6186 H 608.44 4.37021 -0.668206 0
M  V30 6187 N 607.499 1.09233 1.13605 0
M  V30 6188 C 608.447 0.724572 2.21027 0
M  V30 6189 C 609.441 -0.273595 1.67176 0
M  V30 6190 O 610.647 -0.135266 1.79491 0
M  V30 6191 H 607.022 0.216319 0.720215 0
M  V30 6192 H 608.993 1.63975 2.49309 0
M  V30 6193 C 607.742 0.159126 3.47336 0
M  V30 6194 H 607.065 0.918387 3.89109 0
M  V30 6195 H 608.505 -0.0602851 4.23957 0
M  V30 6196 C 606.964 -1.10514 3.18258 0
M  V30 6197 O 607.494 -2.18869 3.36837 0
M  V30 6198 N 605.7 -1.01886 2.72154 0
M  V30 6199 H 605.247 -0.137027 2.57235 0
M  V30 6200 H 605.205 -1.8655 2.53074 0
M  V30 6201 N 608.977 -1.30795 0.87923 0
M  V30 6202 C 609.924 -2.28282 0.339968 0
M  V30 6203 C 610.894 -1.56134 -0.566685 0
M  V30 6204 O 612.079 -1.84231 -0.496338 0
M  V30 6205 C 609.219 -3.42225 -0.444501 0
M  V30 6206 C 608.332 -4.29204 0.490717 0
M  V30 6207 C 607.467 -5.30302 -0.308784 0
M  V30 6208 C 606.506 -6.08929 0.622272 0
M  V30 6209 N 605.643 -7.01957 -0.14155 0
M  V30 6210 H 610.483 -2.73794 1.17647 0
M  V30 6211 H 608.02 -1.34682 0.591527 0
M  V30 6212 H 609.978 -4.07038 -0.915186 0
M  V30 6213 H 608.608 -2.97799 -1.24562 0
M  V30 6214 H 607.66 -3.6475 1.07988 0
M  V30 6215 H 608.972 -4.84045 1.20425 0
M  V30 6216 H 608.126 -6.00835 -0.841575 0
M  V30 6217 H 606.865 -4.7614 -1.05556 0
M  V30 6218 H 605.87 -5.37278 1.16674 0
M  V30 6219 H 607.095 -6.65178 1.36804 0
M  V30 6220 H 605.041 -6.50192 -0.870966 0
M  V30 6221 H 604.958 -7.54261 0.51246 0
M  V30 6222 H 606.226 -7.76741 -0.655271 0
M  V30 6223 N 610.455 -0.639598 -1.44038 0
M  V30 6224 C 611.388 0.109736 -2.27936 0
M  V30 6225 C 612.366 0.843095 -1.39035 0
M  V30 6226 O 613.55 0.845456 -1.68476 0
M  V30 6227 C 610.677 1.16173 -3.18153 0
M  V30 6228 C 609.723 0.527954 -4.2322 0
M  V30 6229 S 610.556 -0.688318 -5.31058 0
M  V30 6230 C 611.712 0.363481 -6.24844 0
M  V30 6231 H 611.945 -0.601986 -2.91142 0
M  V30 6232 H 609.478 -0.42802 -1.48349 0
M  V30 6233 H 611.436 1.76372 -3.7068 0
M  V30 6234 H 610.097 1.84569 -2.54151 0
M  V30 6235 H 609.29 1.32054 -4.86393 0
M  V30 6236 H 608.892 0.000396444 -3.74 0
M  V30 6237 H 611.184 1.23362 -6.66174 0
M  V30 6238 H 612.127 -0.23288 -7.07717 0
M  V30 6239 H 612.535 0.693179 -5.60228 0
M  V30 6240 N 611.933 1.52934 -0.380664 0
M  V30 6241 C 612.896 2.24809 0.446473 0
M  V30 6242 C 613.896 1.26133 0.997347 0
M  V30 6243 O 615.086 1.50297 0.880714 0
M  V30 6244 C 612.218 2.99649 1.62553 0
M  V30 6245 H 613.411 2.99343 -0.182677 0
M  V30 6246 H 610.964 1.55736 -0.132618 0
M  V30 6247 H 611.699 2.29395 2.29235 0
M  V30 6248 H 611.484 3.72066 1.23732 0
M  V30 6249 H 612.974 3.54246 2.21133 0
M  V30 6250 N 613.412 0.11024 1.57214 0
M  V30 6251 C 614.344 -0.873497 2.11902 0
M  V30 6252 C 615.357 -1.23588 1.05971 0
M  V30 6253 O 616.546 -1.18636 1.33371 0
M  V30 6254 C 613.646 -2.17805 2.59643 0
M  V30 6255 C 612.819 -1.98869 3.89576 0
M  V30 6256 C 611.878 -3.12974 4.23006 0
M  V30 6257 O 610.904 -2.86272 4.91973 0
M  V30 6258 N 612.106 -4.39167 3.79622 0
M  V30 6259 H 614.871 -0.406317 2.96933 0
M  V30 6260 H 612.432 -0.074437 1.61729 0
M  V30 6261 H 614.424 -2.93117 2.79042 0
M  V30 6262 H 612.994 -2.55899 1.7954 0
M  V30 6263 H 612.214 -1.078 3.79174 0
M  V30 6264 H 613.502 -1.83512 4.74553 0
M  V30 6265 H 612.9 -4.63739 3.2398 0
M  V30 6266 H 611.457 -5.11379 4.04147 0
M  V30 6267 N 614.89 -1.56749 -0.16351 0
M  V30 6268 C 615.853 -1.96121 -1.18613 0
M  V30 6269 C 616.853 -0.845765 -1.36761 0
M  V30 6270 O 618.043 -1.11268 -1.34033 0
M  V30 6271 C 615.175 -2.26282 -2.54969 0
M  V30 6272 H 616.368 -2.87639 -0.848764 0
M  V30 6273 H 613.921 -1.50928 -0.406251 0
M  V30 6274 H 614.656 -1.37504 -2.93706 0
M  V30 6275 H 614.441 -3.07595 -2.43162 0
M  V30 6276 H 615.931 -2.57638 -3.28653 0
M  V30 6277 N 616.368 0.432326 -1.51554 0
M  V30 6278 C 617.298 1.53242 -1.76179 0
M  V30 6279 C 618.279 1.58717 -0.611801 0
M  V30 6280 O 619.464 1.74364 -0.855033 0
M  V30 6281 C 616.594 2.91278 -1.89141 0
M  V30 6282 C 615.548 3.00663 -3.04608 0
M  V30 6283 C 614.874 4.40728 -3.02759 0
M  V30 6284 C 616.174 2.74281 -4.44485 0
M  V30 6285 H 617.868 1.32886 -2.68294 0
M  V30 6286 H 615.414 0.637841 -1.29103 0
M  V30 6287 H 617.367 3.68203 -2.04951 0
M  V30 6288 H 616.091 3.12877 -0.936785 0
M  V30 6289 H 614.75 2.26179 -2.88511 0
M  V30 6290 H 614.398 4.59301 -2.05065 0
M  V30 6291 H 614.098 4.47936 -3.80299 0
M  V30 6292 H 615.622 5.19619 -3.20669 0
M  V30 6293 H 617.036 3.40936 -4.60907 0
M  V30 6294 H 615.433 2.92893 -5.23769 0
M  V30 6295 H 616.503 1.69856 -4.54177 0
M  V30 6296 N 617.846 1.41785 0.688094 0
M  V30 6297 C 619.257 1.3701 1.26828 0
M  V30 6298 C 619.608 0.056835 1.96118 0
M  V30 6299 O 618.733 -0.84475 1.99231 0
M  V30 6300 C 619.328 2.48168 2.30648 0
M  V30 6301 C 617.887 2.46766 2.84224 0
M  V30 6302 C 617.034 2.27633 1.58361 0
M  V30 6303 H 619.985 1.51192 0.482351 0
M  V30 6304 H 620.006 2.17655 3.121 0
M  V30 6305 H 619.518 3.43735 1.80188 0
M  V30 6306 H 617.619 1.54978 3.3884 0
M  V30 6307 H 617.732 3.43342 3.34145 0
M  V30 6308 H 616.096 1.75648 1.84445 0
M  V30 6309 H 616.879 3.25238 1.09887 0
M  V30 6310 N 619.324 -0.923095 1.27737 0
M  V30 6311 C 620.74 -1.19985 1.05241 0
M  V30 6312 C 620.94 -2.00391 -0.21113 0
M  V30 6313 O 619.996 -2.35324 -0.915366 0
M  V30 6314 C 621.309 -1.94352 2.29451 0
M  V30 6315 C 622.857 -2.07273 2.34536 0
M  V30 6316 C 623.332 -2.85046 3.58487 0
M  V30 6317 N 624.823 -2.92612 3.59072 0
M  V30 6318 C 625.558 -3.53266 4.51654 0
M  V30 6319 N 625.054 -4.15274 5.54545 0
M  V30 6320 N 626.847 -3.50714 4.39268 0
M  V30 6321 H 618.998 -0.386042 2.08862 0
M  V30 6322 H 621.261 -0.233407 0.918817 0
M  V30 6323 H 620.967 -1.42692 3.21453 0
M  V30 6324 H 620.841 -2.94947 2.3513 0
M  V30 6325 H 623.228 -2.58117 1.43037 0
M  V30 6326 H 623.309 -1.05884 2.32857 0
M  V30 6327 H 622.953 -2.34884 4.50324 0
M  V30 6328 H 622.883 -3.8673 3.57418 0
M  V30 6329 H 625.374 -2.48547 2.84663 0
M  V30 6330 H 625.687 -4.59507 6.21348 0
M  V30 6331 H 624.032 -4.13806 5.58382 0
M  V30 6332 H 627.223 -3.01475 3.58093 0
M  V30 6333 H 627.396 -3.97693 5.1161 0
M  V30 6334 N 620.802 -1.09834 -1.13024 0
M  V30 6335 C 621.734 -0.699379 -2.18269 0
M  V30 6336 C 622.747 0.260841 -1.60697 0
M  V30 6337 O 623.936 0.0462538 -1.7844 0
M  V30 6338 C 621.036 -0.0104537 -3.38898 0
M  V30 6339 C 620.209 -0.993275 -4.25973 0
M  V30 6340 C 619.268 -0.336982 -5.2512 0
M  V30 6341 O 618.294 -0.985892 -5.60597 0
M  V30 6342 N 619.496 0.90716 -5.73368 0
M  V30 6343 H 622.261 -1.60486 -2.5311 0
M  V30 6344 H 619.822 -0.986337 -1.28386 0
M  V30 6345 H 621.814 0.43991 -4.02302 0
M  V30 6346 H 620.384 0.797335 -3.0226 0
M  V30 6347 H 619.604 -1.62208 -3.5928 0
M  V30 6348 H 620.892 -1.65876 -4.81002 0
M  V30 6349 H 620.29 1.45384 -5.46699 0
M  V30 6350 H 618.847 1.30077 -6.38689 0
M  V30 6351 N 622.28 1.30327 -0.886154 0
M  V30 6352 C 623.696 1.48676 -0.580323 0
M  V30 6353 C 623.896 1.81189 0.881639 0
M  V30 6354 O 622.952 1.90021 1.66278 0
M  V30 6355 C 624.265 2.60932 -1.49449 0
M  V30 6356 C 625.813 2.74812 -1.49824 0
M  V30 6357 C 626.288 3.90183 -2.39836 0
M  V30 6358 N 627.779 3.97495 -2.37806 0
M  V30 6359 C 628.514 4.86078 -3.04165 0
M  V30 6360 N 628.01 5.79448 -3.79753 0
M  V30 6361 N 629.803 4.79456 -2.93391 0
M  V30 6362 H 621.954 1.07495 -1.8319 0
M  V30 6363 H 624.217 0.532661 -0.784204 0
M  V30 6364 H 623.923 2.43731 -2.5355 0
M  V30 6365 H 623.797 3.57437 -1.20494 0
M  V30 6366 H 626.184 2.91418 -0.464731 0
M  V30 6367 H 626.265 1.78924 -1.82811 0
M  V30 6368 H 625.909 3.74334 -3.43273 0
M  V30 6369 H 625.839 4.85411 -2.04166 0
M  V30 6370 H 628.33 3.30703 -1.82877 0
M  V30 6371 H 628.643 6.43805 -4.27475 0
M  V30 6372 H 626.988 5.79376 -3.8386 0
M  V30 6373 H 630.179 4.05494 -2.33864 0
M  V30 6374 H 630.352 5.48283 -3.45383 0
M  V30 6375 N 623.758 0.647228 1.43697 0
M  V30 6376 C 624.69 -0.0866232 2.29036 0
M  V30 6377 C 625.703 -0.793051 1.42178 0
M  V30 6378 O 626.892 -0.651807 1.66174 0
M  V30 6379 C 623.992 -1.14552 3.18953 0
M  V30 6380 C 623.165 -0.518422 4.34317 0
M  V30 6381 C 622.224 -1.4734 5.05151 0
M  V30 6382 O 621.25 -0.984312 5.60625 0
M  V30 6383 N 622.452 -2.8075 5.08094 0
M  V30 6384 H 625.217 0.645834 2.92659 0
M  V30 6385 H 622.778 0.489567 1.54321 0
M  V30 6386 H 624.77 -1.78505 3.63205 0
M  V30 6387 H 623.34 -1.78001 2.56971 0
M  V30 6388 H 622.56 0.300079 3.93056 0
M  V30 6389 H 623.848 -0.080401 5.08736 0
M  V30 6390 H 623.246 -3.23052 4.64386 0
M  V30 6391 H 621.803 -3.40022 5.56083 0
M  V30 6392 N 625.236 -1.5273 0.388769 0
M  V30 6393 C 626.652 -1.59553 0.0387049 0
M  V30 6394 C 626.852 -1.40278 -1.44652 0
M  V30 6395 O 625.908 -1.21951 -2.21098 0
M  V30 6396 C 627.221 -2.9625 0.515409 0
M  V30 6397 C 628.769 -3.09426 0.471621 0
M  V30 6398 C 629.244 -4.48572 0.924505 0
M  V30 6399 N 630.735 -4.54754 0.880496 0
M  V30 6400 C 631.47 -5.60653 1.20234 0
M  V30 6401 N 630.966 -6.74198 1.59463 0
M  V30 6402 N 632.759 -5.50755 1.12363 0
M  V30 6403 H 624.91 -1.63508 1.35569 0
M  V30 6404 H 627.173 -0.768097 0.555636 0
M  V30 6405 H 626.879 -3.15569 1.5527 0
M  V30 6406 H 626.753 -3.77102 -0.085792 0
M  V30 6407 H 629.14 -2.89804 -0.556588 0
M  V30 6408 H 629.221 -2.30528 1.10862 0
M  V30 6409 H 628.865 -4.68936 1.95094 0
M  V30 6410 H 628.795 -5.25935 0.264524 0
M  V30 6411 H 631.286 -3.73237 0.591815 0
M  V30 6412 H 631.599 -7.5097 1.82385 0
M  V30 6413 H 629.944 -6.75531 1.63349 0
M  V30 6414 H 633.135 -4.6093 0.816169 0
M  V30 6415 H 633.308 -6.33184 1.37777 0
M  V30 6416 N 626.714 -0.118576 -1.57153 0
M  V30 6417 C 627.991 0.583062 -1.86708 0
M  V30 6418 C 628.371 1.84841 -1.01967 0
M  V30 6419 O 627.719 2.28288 -0.0984673 0
M  V30 6420 C 627.929 0.875912 -3.3783 0
M  V30 6421 C 629.277 1.22916 -4.0642 0
M  V30 6422 O 630.301 0.966188 -3.42846 0
M  V30 6423 O 629.16 1.72269 -5.18638 0
M  V30 6424 H 626.254 0.294185 -0.772906 0
M  V30 6425 H 628.8 -0.153048 -1.69008 0
M  V30 6426 H 627.572 -0.0207776 -3.91294 0
M  V30 6427 H 627.195 1.66719 -3.60958 0
M  V30 6428 N 628.193 1.56834 0.155195 0
M  V30 6429 C 629.156 1.96748 1.17571 0
M  V30 6430 C 630.156 0.853006 1.3631 0
M  V30 6431 O 631.346 1.11978 1.33441 0
M  V30 6432 C 628.478 2.27631 2.53765 0
M  V30 6433 H 629.671 2.88085 0.833498 0
M  V30 6434 H 627.224 1.51141 0.398242 0
M  V30 6435 H 627.959 1.39059 2.92973 0
M  V30 6436 H 627.744 3.0888 2.41527 0
M  V30 6437 H 629.234 2.59377 3.27282 0
M  V30 6438 N 629.671 -0.424282 1.51781 0
M  V30 6439 C 630.896 -1.19928 1.6921 0
M  V30 6440 C 631.321 -1.8392 0.394355 0
M  V30 6441 O 630.679 -1.69371 -0.646778 0
M  V30 6442 C 630.727 -2.24937 2.81843 0
M  V30 6443 O 629.831 -3.3073 2.46356 0
M  V30 6444 H 629.172 -0.35078 0.563781 0
M  V30 6445 H 631.702 -0.499401 1.98412 0
M  V30 6446 H 631.712 -2.69512 3.06312 0
M  V30 6447 H 630.387 -1.77742 3.76006 0
M  V30 6448 H 628.964 -2.9154 2.32505 0
M  V30 6449 N 631.149 -1.42148 -0.680565 0
M  V30 6450 C 632.56 -1.3768 -1.26099 0
M  V30 6451 C 632.911 -0.0672348 -1.96085 0
M  V30 6452 O 632.036 0.834172 -1.99676 0
M  V30 6453 C 632.631 -2.49387 -2.29328 0
M  V30 6454 C 631.19 -2.4827 -2.82911 0
M  V30 6455 C 630.337 -2.2847 -1.57152 0
M  V30 6456 H 633.288 -1.51446 -0.474326 0
M  V30 6457 H 633.309 -2.19307 -3.10941 0
M  V30 6458 H 632.821 -3.44686 -1.78363 0
M  V30 6459 H 630.922 -1.56773 -3.38013 0
M  V30 6460 H 631.035 -3.45109 -3.3232 0
M  V30 6461 H 629.399 -1.76623 -1.83511 0
M  V30 6462 H 630.182 -3.25816 -1.0816 0
M  V30 6463 N 632.627 0.916307 -1.28225 0
M  V30 6464 C 633.875 1.6619 -1.15002 0
M  V30 6465 C 634.196 1.92642 0.302329 0
M  V30 6466 O 633.466 1.54076 1.20985 0
M  V30 6467 H 632.046 0.615964 -0.422608 0
M  V30 6468 H 634.708 1.09963 -1.60917 0
M  V30 6469 H 633.804 2.62533 -1.68769 0
M  V30 6470 N 634.105 1.10431 1.1244 0
M  V30 6471 C 635.521 0.836096 1.35947 0
M  V30 6472 C 635.721 -0.544475 1.94004 0
M  V30 6473 O 634.777 -1.29735 2.16622 0
M  V30 6474 C 636.09 1.93575 2.30107 0
M  V30 6475 C 637.638 1.9642 2.43697 0
M  V30 6476 C 638.113 3.05559 3.41171 0
M  V30 6477 N 639.604 3.04865 3.48728 0
M  V30 6478 C 640.339 3.85954 4.24061 0
M  V30 6479 N 639.835 4.76977 5.02458 0
M  V30 6480 N 641.628 3.74172 4.19466 0
M  V30 6481 H 633.779 1.9942 0.731124 0
M  V30 6482 H 636.042 0.866607 0.384312 0
M  V30 6483 H 635.748 2.92943 1.94621 0
M  V30 6484 H 635.622 1.8229 3.30227 0
M  V30 6485 H 638.009 0.97685 2.78463 0
M  V30 6486 H 638.09 2.11782 1.43465 0
M  V30 6487 H 637.734 4.04513 3.07135 0
M  V30 6488 H 637.664 2.87438 4.41234 0
M  V30 6489 H 640.155 2.38908 2.92799 0
M  V30 6490 H 640.468 5.35409 5.57277 0
M  V30 6491 H 638.813 4.81006 5.01655 0
M  V30 6492 H 642.004 3.02412 3.57302 0
M  V30 6493 H 642.177 4.37602 4.77921 0
M  V30 6494 N 635.583 -1.29855 0.893053 0
M  V30 6495 C 636.831 -1.9544 0.514566 0
M  V30 6496 C 637.152 -1.70795 -0.940959 0
M  V30 6497 O 636.422 -1.03601 -1.66264 0
M  V30 6498 H 635.002 -0.723137 0.187302 0
M  V30 6499 H 637.664 -1.58234 1.13789 0
M  V30 6500 H 636.76 -3.04341 0.691581 0
M  V30 6501 N 637.061 -0.65484 -1.43351 0
M  V30 6502 C 638.286 -0.175046 -2.0666 0
M  V30 6503 C 638.711 1.15104 -1.4877 0
M  V30 6504 O 638.069 1.71144 -0.598279 0
M  V30 6505 C 638.117 -0.0991544 -3.60464 0
M  V30 6506 O 637.221 0.938169 -4.01587 0
M  V30 6507 H 636.562 -0.0956148 -0.65708 0
M  V30 6508 H 639.092 -0.898222 -1.83829 0
M  V30 6509 H 639.102 0.083632 -4.07914 0
M  V30 6510 H 637.777 -1.06719 -4.01975 0
M  V30 6511 H 636.354 0.72804 -3.65724 0
M  V30 6512 N 638.539 1.52521 -0.396863 0
M  V30 6513 C 639.489 2.2348 0.451722 0
M  V30 6514 C 640.473 1.2415 1.0235 0
M  V30 6515 O 641.665 1.4945 0.948348 0
M  V30 6516 C 638.794 3.05067 1.57445 0
M  V30 6517 C 637.88 4.11799 1.01404 0
M  V30 6518 N 638.271 5.05482 0.179234 0
M  V30 6519 C 636.569 4.27064 1.28578 0
M  V30 6520 C 637.27 5.81552 -0.131202 0
M  V30 6521 N 636.246 5.41523 0.474735 0
M  V30 6522 H 640.048 2.93269 -0.192534 0
M  V30 6523 H 637.562 1.61081 -0.206591 0
M  V30 6524 H 639.559 3.54446 2.19485 0
M  V30 6525 H 638.219 2.36816 2.22145 0
M  V30 6526 H 639.23 5.17573 -0.18411 0
M  V30 6527 H 635.907 3.70042 1.93327 0
M  V30 6528 H 637.297 6.67023 -0.808061 0
M  V30 6529 N 640.017 0.126909 1.57088 0
M  V30 6530 C 641.265 -0.528123 1.95078 0
M  V30 6531 C 641.586 -1.66708 1.0116 0
M  V30 6532 O 640.856 -1.95777 0.0693527 0
M  V30 6533 H 639.436 -0.198087 0.720257 0
M  V30 6534 H 642.098 0.197703 1.93895 0
M  V30 6535 H 641.194 -0.917507 2.98309 0
M  V30 6536 N 641.495 -1.56914 -0.146875 0
M  V30 6537 C 642.427 -1.94878 -1.20645 0
M  V30 6538 C 643.44 -0.844633 -1.39175 0
M  V30 6539 O 644.629 -1.12304 -1.38744 0
M  V30 6540 C 641.729 -2.20769 -2.57127 0
M  V30 6541 C 640.902 -3.52053 -2.59572 0
M  V30 6542 C 639.961 -3.66482 -3.77594 0
M  V30 6543 O 638.987 -4.38873 -3.62462 0
M  V30 6544 N 640.189 -3.03156 -4.95052 0
M  V30 6545 H 642.954 -2.86374 -0.883757 0
M  V30 6546 H 640.515 -1.58366 -0.336436 0
M  V30 6547 H 642.507 -2.27664 -3.34591 0
M  V30 6548 H 641.077 -1.35538 -2.81688 0
M  V30 6549 H 640.297 -3.56598 -1.68023 0
M  V30 6550 H 641.585 -4.38396 -2.58238 0
M  V30 6551 H 640.983 -2.44258 -5.10249 0
M  V30 6552 H 639.54 -3.15611 -5.70292 0
M  V30 6553 N 642.974 0.416227 -1.52004 0
M  V30 6554 C 644.202 1.18573 -1.69553 0
M  V30 6555 C 644.617 1.84472 -0.401919 0
M  V30 6556 O 643.974 1.71593 0.621463 0
M  V30 6557 C 644.025 2.25413 -2.82615 0
M  V30 6558 O 643.746 1.62205 -4.06966 0
M  V30 6559 C 645.247 3.15297 -3.11613 0
M  V30 6560 H 642.467 0.356582 -0.56841 0
M  V30 6561 H 645.011 0.490618 -1.98528 0
M  V30 6562 H 643.166 2.90604 -2.56179 0
M  V30 6563 H 643.58 2.3298 -4.69916 0
M  V30 6564 H 645.054 3.86351 -3.94255 0
M  V30 6565 H 645.531 3.77264 -2.24874 0
M  V30 6566 H 646.137 2.55783 -3.39787 0
M  V30 6567 N 644.452 1.42507 0.673017 0
M  V30 6568 C 645.863 1.38347 1.25367 0
M  V30 6569 C 646.214 0.0776327 1.96046 0
M  V30 6570 O 645.339 -0.823571 2.00116 0
M  V30 6571 C 645.934 2.506 2.28002 0
M  V30 6572 C 644.493 2.49767 2.81591 0
M  V30 6573 C 643.64 2.293 1.55938 0
M  V30 6574 H 646.591 1.51695 0.466288 0
M  V30 6575 H 646.612 2.20953 3.09774 0
M  V30 6576 H 646.124 3.45627 1.76532 0
M  V30 6577 H 644.225 1.58563 3.37177 0
M  V30 6578 H 644.338 3.46867 3.30485 0
M  V30 6579 H 642.702 1.77594 1.82572 0
M  V30 6580 H 643.485 3.26385 1.06431 0
M  V30 6581 N 645.93 -0.909495 1.28709 0
M  V30 6582 C 647.155 -1.69801 1.1909 0
M  V30 6583 C 647.58 -1.86479 -0.246388 0
M  V30 6584 O 646.938 -1.37802 -1.17815 0
M  V30 6585 C 646.986 -3.06543 1.89904 0
M  V30 6586 O 646.09 -3.94268 1.2094 0
M  V30 6587 H 645.431 -0.519783 0.413185 0
M  V30 6588 H 647.961 -1.13689 1.70106 0
M  V30 6589 H 647.971 -3.56748 1.97977 0
M  V30 6590 H 646.646 -2.93722 2.94449 0
M  V30 6591 H 645.223 -3.52702 1.2106 0
M  V30 6592 N 647.408 -1.11026 -1.11852 0
M  V30 6593 C 648.819 -0.873203 -1.65021 0
M  V30 6594 C 649.17 0.595364 -1.86949 0
M  V30 6595 O 648.295 1.45645 -1.60051 0
M  V30 6596 C 648.89 -1.57859 -2.99777 0
M  V30 6597 C 647.449 -1.38807 -3.49871 0
M  V30 6598 C 646.596 -1.62403 -2.24768 0
M  V30 6599 H 649.547 -1.26712 -0.955503 0
M  V30 6600 H 649.568 -1.02111 -3.66543 0
M  V30 6601 H 649.08 -2.6474 -2.83786 0
M  V30 6602 H 647.181 -0.341163 -3.71035 0
M  V30 6603 H 647.294 -2.13421 -4.28938 0
M  V30 6604 H 645.658 -1.04714 -2.32179 0
M  V30 6605 H 646.441 -2.70549 -2.11324 0
M  V30 6606 N 648.886 1.2938 -0.899927 0
M  V30 6607 C 650.134 1.95164 -0.524924 0
M  V30 6608 C 650.455 1.71292 0.931888 0
M  V30 6609 O 649.725 1.04481 1.65712 0
M  V30 6610 H 648.305 0.722133 -0.191135 0
M  V30 6611 H 650.967 1.57628 -1.14627 0
M  V30 6612 H 650.063 3.0397 -0.707711 0
M  V30 6613 N 650.364 0.662433 1.43002 0
M  V30 6614 C 651.327 -0.0142016 2.29196 0
M  V30 6615 C 652.327 -0.741394 1.42688 0
M  V30 6616 O 653.517 -0.581257 1.64216 0
M  V30 6617 C 650.649 -1.03084 3.24941 0
M  V30 6618 H 651.842 0.7443 2.90517 0
M  V30 6619 H 649.395 0.424133 1.50435 0
M  V30 6620 H 650.13 -1.81826 2.68533 0
M  V30 6621 H 649.915 -0.512946 3.8873 0
M  V30 6622 H 651.405 -1.50308 3.89612 0
M  V30 6623 N 651.842 -1.52309 0.404946 0
M  V30 6624 C 652.772 -2.29805 -0.41376 0
M  V30 6625 C 653.753 -1.3384 -1.0498 0
M  V30 6626 O 654.938 -1.62745 -1.05961 0
M  V30 6627 C 652.068 -3.11639 -1.53292 0
M  V30 6628 C 651.022 -4.15616 -1.02211 0
M  V30 6629 C 650.348 -4.8577 -2.23455 0
M  V30 6630 C 651.648 -5.2224 -0.0790725 0
M  V30 6631 H 653.342 -2.98493 0.232878 0
M  V30 6632 H 650.888 -1.43552 0.113441 0
M  V30 6633 H 652.841 -3.64618 -2.11262 0
M  V30 6634 H 651.565 -2.40712 -2.20738 0
M  V30 6635 H 650.224 -3.63641 -0.46484 0
M  V30 6636 H 649.872 -4.11376 -2.89445 0
M  V30 6637 H 649.572 -5.56058 -1.89929 0
M  V30 6638 H 651.096 -5.4156 -2.82038 0
M  V30 6639 H 652.51 -5.70485 -0.567438 0
M  V30 6640 H 650.907 -5.99867 0.167167 0
M  V30 6641 H 651.977 -4.77078 0.867447 0
M  V30 6642 N 653.32 -0.135238 -1.57019 0
M  V30 6643 C 654.731 0.387521 -1.82634 0
M  V30 6644 C 655.082 1.65528 -1.05332 0
M  V30 6645 O 654.207 2.14381 -0.294926 0
M  V30 6646 C 654.802 0.709852 -3.3128 0
M  V30 6647 C 653.361 1.17718 -3.57518 0
M  V30 6648 C 652.508 0.194183 -2.76619 0
M  V30 6649 H 655.459 -0.360126 -1.5456 0
M  V30 6650 H 655.48 1.5657 -3.46794 0
M  V30 6651 H 654.992 -0.213024 -3.87515 0
M  V30 6652 H 653.093 2.1164 -3.06658 0
M  V30 6653 H 653.206 1.11128 -4.66034 0
M  V30 6654 H 651.57 0.684478 -2.4533 0
M  V30 6655 H 652.353 -0.722076 -3.3562 0
M  V30 6656 N 654.798 1.5699 0.138552 0
M  V30 6657 C 655.728 2.01933 1.17241 0
M  V30 6658 C 656.709 0.90033 1.44319 0
M  V30 6659 O 657.894 1.16872 1.55095 0
M  V30 6660 C 655.024 2.40711 2.50351 0
M  V30 6661 C 653.978 3.55874 2.37776 0
M  V30 6662 C 653.304 3.80491 3.75674 0
M  V30 6663 C 654.604 4.8826 1.85472 0
M  V30 6664 H 656.298 2.88551 0.798672 0
M  V30 6665 H 653.844 1.3882 0.382743 0
M  V30 6666 H 655.797 2.70754 3.22909 0
M  V30 6667 H 654.521 1.5104 2.89576 0
M  V30 6668 H 653.18 3.2601 1.67669 0
M  V30 6669 H 652.828 2.88057 4.12349 0
M  V30 6670 H 652.528 4.57998 3.68119 0
M  V30 6671 H 654.052 4.12967 4.49767 0
M  V30 6672 H 655.466 5.16965 2.4783 0
M  V30 6673 H 653.863 5.69631 1.88787 0
M  V30 6674 H 654.933 4.78071 0.810935 0
M  V30 6675 N 656.276 -0.40816 1.52223 0
M  V30 6676 C 657.524 -1.15274 1.66001 0
M  V30 6677 C 657.845 -1.91003 0.392803 0
M  V30 6678 O 657.115 -1.8673 -0.592336 0
M  V30 6679 H 655.695 -0.428526 0.611861 0
M  V30 6680 H 658.357 -0.46512 1.89269 0
M  V30 6681 H 657.453 -1.86628 2.50153 0
M  V30 6682 N 657.755 -1.42862 -0.66545 0
M  V30 6683 C 659.171 -1.25993 -0.979687 0
M  V30 6684 C 659.371 -0.170831 -2.00775 0
M  V30 6685 O 658.427 0.454827 -2.4837 0
M  V30 6686 C 659.74 -2.62005 -1.47559 0
M  V30 6687 C 661.288 -2.69437 -1.59288 0
M  V30 6688 C 661.763 -4.05838 -2.12272 0
M  V30 6689 N 663.254 -4.0784 -2.19592 0
M  V30 6690 C 663.989 -5.10205 -2.61684 0
M  V30 6691 N 663.485 -6.22949 -3.03161 0
M  V30 6692 N 665.278 -4.9756 -2.61516 0
M  V30 6693 H 657.429 -2.12395 0.0150493 0
M  V30 6694 H 659.692 -0.946355 -0.0558187 0
M  V30 6695 H 659.398 -3.42605 -0.794654 0
M  V30 6696 H 659.272 -2.86566 -2.45275 0
M  V30 6697 H 661.659 -1.89178 -2.26486 0
M  V30 6698 H 661.74 -2.48655 -0.600374 0
M  V30 6699 H 661.384 -4.86559 -1.4568 0
M  V30 6700 H 661.314 -4.23977 -3.12331 0
M  V30 6701 H 663.805 -3.26452 -1.90361 0
M  V30 6702 H 664.118 -6.96899 -3.33993 0
M  V30 6703 H 662.463 -6.2644 -3.00995 0
M  V30 6704 H 665.654 -4.08551 -2.28481 0
M  V30 6705 H 665.827 -5.77468 -2.93999 0
M  V30 6706 N 659.233 0.902656 -1.29189 0
M  V30 6707 C 660.165 2.01149 -1.09872 0
M  V30 6708 C 661.178 1.62732 -0.0471046 0
M  V30 6709 O 662.367 1.76107 -0.29132 0
M  V30 6710 C 659.467 3.32612 -0.649818 0
M  V30 6711 C 658.64 3.99574 -1.7793 0
M  V30 6712 C 657.699 5.09325 -1.32191 0
M  V30 6713 O 656.725 5.31919 -2.02611 0
M  V30 6714 N 657.927 5.80185 -0.191171 0
M  V30 6715 H 660.692 2.18276 -2.05368 0
M  V30 6716 H 658.253 1.07466 -1.2109 0
M  V30 6717 H 660.245 4.03375 -0.327199 0
M  V30 6718 H 658.815 3.11876 0.212597 0
M  V30 6719 H 658.035 3.22213 -2.27095 0
M  V30 6720 H 659.323 4.41056 -2.53668 0
M  V30 6721 H 658.721 5.64312 0.396016 0
M  V30 6722 H 657.278 6.5176 0.0721001 0
M  V30 6723 N 660.711 1.11618 1.11262 0
M  V30 6724 C 661.939 0.888739 1.8684 0
M  V30 6725 C 662.354 -0.561558 1.80255 0
M  V30 6726 O 661.711 -1.38782 1.18515 0
M  V30 6727 C 661.762 1.34422 3.35579 0
M  V30 6728 O 661.483 2.73766 3.42029 0
M  V30 6729 C 662.984 1.15246 4.28058 0
M  V30 6730 H 660.204 0.318152 0.590779 0
M  V30 6731 H 662.748 1.48398 1.40707 0
M  V30 6732 H 660.903 0.79239 3.7921 0
M  V30 6733 H 661.317 2.9355 4.34659 0
M  V30 6734 H 662.791 1.52015 5.30656 0
M  V30 6735 H 663.268 0.0922007 4.39103 0
M  V30 6736 H 663.874 1.69136 3.90222 0
M  V30 6737 N 662.189 -1.289 0.906776 0
M  V30 6738 C 663.414 -1.99939 0.551303 0
M  V30 6739 C 663.839 -1.67366 -0.858496 0
M  V30 6740 O 663.197 -0.902176 -1.57259 0
M  V30 6741 C 663.245 -3.52523 0.758937 0
M  V30 6742 O 662.349 -4.11983 -0.185308 0
M  V30 6743 H 661.69 -0.628376 0.214568 0
M  V30 6744 H 664.22 -1.64225 1.2203 0
M  V30 6745 H 664.23 -4.02522 0.666329 0
M  V30 6746 H 662.905 -3.75566 1.78671 0
M  V30 6747 H 661.482 -3.72873 -0.0445577 0
M  V30 6748 N 663.667 -0.670007 -1.42649 0
M  V30 6749 C 664.599 0.0501746 -2.29145 0
M  V30 6750 C 665.612 0.770331 -1.43422 0
M  V30 6751 O 666.801 0.625288 -1.6719 0
M  V30 6752 C 663.901 1.09463 -3.20735 0
M  V30 6753 C 663.074 0.44926 -4.35087 0
M  V30 6754 C 662.133 1.39285 -5.07431 0
M  V30 6755 O 661.159 0.894997 -5.6212 0
M  V30 6756 N 662.361 2.72631 -5.12496 0
M  V30 6757 H 665.126 -0.692312 -2.91594 0
M  V30 6758 H 662.687 -0.514056 -1.53522 0
M  V30 6759 H 664.679 1.72705 -3.65999 0
M  V30 6760 H 663.249 1.73891 -2.59771 0
M  V30 6761 H 662.469 -0.362573 -3.92529 0
M  V30 6762 H 663.757 -0.000544776 -5.088 0
M  V30 6763 H 663.155 3.15623 -4.69467 0
M  V30 6764 H 661.712 3.31132 -5.61422 0
M  V30 6765 N 665.145 1.52092 -0.413018 0
M  V30 6766 C 666.077 2.24819 0.445994 0
M  V30 6767 C 667.09 1.27925 1.00692 0
M  V30 6768 O 668.279 1.53845 0.905204 0
M  V30 6769 C 665.379 2.96951 1.6332 0
M  V30 6770 C 664.552 4.20746 1.19548 0
M  V30 6771 C 663.611 4.75668 2.25003 0
M  V30 6772 O 662.637 5.38148 1.85434 0
M  V30 6773 N 663.839 4.57579 3.57214 0
M  V30 6774 H 666.604 2.99176 -0.177209 0
M  V30 6775 H 664.165 1.60102 -0.240601 0
M  V30 6776 H 666.157 3.30586 2.33441 0
M  V30 6777 H 664.727 2.25756 2.16225 0
M  V30 6778 H 663.947 3.92881 0.32224 0
M  V30 6779 H 665.235 5.01132 0.880033 0
M  V30 6780 H 664.633 4.07758 3.92109 0
M  V30 6781 H 663.19 4.95642 4.23299 0
M  V30 6782 N 666.623 0.143563 1.56945 0
M  V30 6783 C 668.034 -0.37783 1.82837 0
M  V30 6784 C 668.385 -1.64967 1.06209 0
M  V30 6785 O 667.51 -2.14221 0.306291 0
M  V30 6786 C 668.105 -0.692274 3.31652 0
M  V30 6787 C 666.664 -1.1582 3.58138 0
M  V30 6788 C 665.811 -0.17951 2.76718 0
M  V30 6789 H 668.762 0.368317 1.54367 0
M  V30 6790 H 668.783 -1.54729 3.47619 0
M  V30 6791 H 668.295 0.233572 3.87397 0
M  V30 6792 H 666.396 -2.10011 3.07776 0
M  V30 6793 H 666.509 -1.08655 4.66616 0
M  V30 6794 H 664.873 -0.671458 2.4569 0
M  V30 6795 H 665.656 0.739865 3.35233 0
M  V30 6796 N 668.101 -1.57061 -0.130224 0
M  V30 6797 C 669.064 -1.98593 -1.14426 0
M  V30 6798 C 670.064 -0.874584 -1.34936 0
M  V30 6799 O 671.254 -1.14086 -1.31643 0
M  V30 6800 C 668.386 -2.31639 -2.50112 0
M  V30 6801 H 669.579 -2.89374 -0.787561 0
M  V30 6802 H 667.132 -1.51756 -0.374146 0
M  V30 6803 H 667.867 -1.43703 -2.90723 0
M  V30 6804 H 667.652 -3.12684 -2.36583 0
M  V30 6805 H 669.142 -2.64551 -3.23114 0
M  V30 6806 N 669.579 0.400081 -1.52437 0
M  V30 6807 C 670.827 1.14392 -1.6661 0
M  V30 6808 C 671.148 1.90792 -0.402927 0
M  V30 6809 O 670.418 1.87042 0.582425 0
M  V30 6810 H 668.998 0.425275 -0.614125 0
M  V30 6811 H 671.66 0.455076 -1.89513 0
M  V30 6812 H 670.756 1.85298 -2.51139 0
M  V30 6813 N 671.057 1.43213 0.657864 0
M  V30 6814 C 672.468 1.39669 1.23893 0
M  V30 6815 C 672.819 0.0984217 1.95953 0
M  V30 6816 O 671.944 -0.8023 2.00978 0
M  V30 6817 C 672.539 2.53004 2.25332 0
M  V30 6818 C 671.098 2.5274 2.78926 0
M  V30 6819 C 670.245 2.30941 1.53497 0
M  V30 6820 H 673.196 1.52181 0.450172 0
M  V30 6821 H 673.217 2.24226 3.07413 0
M  V30 6822 H 672.729 3.4748 1.72856 0
M  V30 6823 H 670.83 1.6213 3.35477 0
M  V30 6824 H 670.943 3.50352 3.26787 0
M  V30 6825 H 669.307 1.7952 1.80678 0
M  V30 6826 H 670.09 3.27496 1.02963 0
M  V30 6827 N 672.536 -0.895792 1.29666 0
M  V30 6828 C 673.947 -1.46195 1.1612 0
M  V30 6829 C 674.298 -1.94699 -0.242195 0
M  V30 6830 O 673.423 -1.8406 -1.13802 0
M  V30 6831 C 674.018 -2.65718 2.10189 0
M  V30 6832 C 672.577 -3.18458 2.00653 0
M  V30 6833 C 671.724 -1.91149 2.00891 0
M  V30 6834 H 674.675 -0.706756 1.42094 0
M  V30 6835 H 674.696 -3.4158 1.6764 0
M  V30 6836 H 674.208 -2.30386 3.12321 0
M  V30 6837 H 672.309 -3.58474 1.01623 0
M  V30 6838 H 672.422 -3.82491 2.88509 0
M  V30 6839 H 670.786 -2.09021 1.45542 0
M  V30 6840 H 671.569 -1.58089 3.04734 0
M  V30 6841 N 674.014 -1.12206 -1.10668 0
M  V30 6842 C 674.977 -0.790867 -2.15123 0
M  V30 6843 C 675.977 0.193618 -1.5963 0
M  V30 6844 O 677.167 -0.0318728 -1.74171 0
M  V30 6845 C 674.299 -0.174797 -3.40452 0
M  V30 6846 H 675.492 -1.7163 -2.45933 0
M  V30 6847 H 673.045 -0.924993 -1.2599 0
M  V30 6848 H 673.78 0.760478 -3.15257 0
M  V30 6849 H 673.565 -0.88358 -3.82015 0
M  V30 6850 H 675.055 0.0405162 -4.1758 0
M  V30 6851 N 675.492 1.28418 -0.913599 0
M  V30 6852 C 676.424 2.26368 -0.359169 0
M  V30 6853 C 677.437 1.54858 0.502285 0
M  V30 6854 O 678.626 1.75659 0.31719 0
M  V30 6855 C 675.726 3.35112 0.50526 0
M  V30 6856 C 674.899 4.36126 -0.333648 0
M  V30 6857 C 673.958 5.24134 0.465845 0
M  V30 6858 O 672.984 5.6907 -0.121538 0
M  V30 6859 N 674.186 5.52892 1.76891 0
M  V30 6860 H 676.951 2.74579 -1.2011 0
M  V30 6861 H 674.512 1.41898 -0.779532 0
M  V30 6862 H 676.504 3.90926 1.04684 0
M  V30 6863 H 675.074 2.86611 1.2479 0
M  V30 6864 H 674.294 3.79776 -1.0566 0
M  V30 6865 H 675.582 5.00638 -0.907669 0
M  V30 6866 H 674.98 5.18217 2.26865 0
M  V30 6867 H 673.537 6.11464 2.25732 0
M  V30 6868 N 676.97 0.677563 1.42291 0
M  V30 6869 C 677.902 -0.0380218 2.29168 0
M  V30 6870 C 678.915 -0.762714 1.43828 0
M  V30 6871 O 680.104 -0.616413 1.67519 0
M  V30 6872 C 677.204 -1.07761 3.21311 0
M  V30 6873 C 676.377 -0.42618 4.35319 0
M  V30 6874 C 675.436 -1.36592 5.08162 0
M  V30 6875 O 674.462 -0.865174 5.62586 0
M  V30 6876 N 675.664 -2.69909 5.13935 0
M  V30 6877 H 678.429 0.707766 2.91223 0
M  V30 6878 H 675.99 0.52219 1.53247 0
M  V30 6879 H 677.982 -1.70761 3.6691 0
M  V30 6880 H 676.552 -1.72511 2.60689 0
M  V30 6881 H 675.772 0.383385 3.92331 0
M  V30 6882 H 677.06 0.0275277 5.08793 0
M  V30 6883 H 676.458 -3.13129 4.71134 0
M  V30 6884 H 675.015 -3.2815 5.6317 0
M  V30 6885 N 678.448 -1.51871 0.421078 0
M  V30 6886 C 679.864 -1.59435 0.0725398 0
M  V30 6887 C 680.064 -1.43315 -1.41644 0
M  V30 6888 O 679.12 -1.26614 -2.18461 0
M  V30 6889 C 680.433 -2.9509 0.578132 0
M  V30 6890 C 681.981 -3.08356 0.537149 0
M  V30 6891 C 682.456 -4.4651 1.01945 0
M  V30 6892 N 683.947 -4.52784 0.976758 0
M  V30 6893 C 684.682 -5.57976 1.32099 0
M  V30 6894 N 684.178 -6.70664 1.73727 0
M  V30 6895 N 685.971 -5.48248 1.2402 0
M  V30 6896 H 678.122 -1.60595 1.39007 0
M  V30 6897 H 680.385 -0.756138 0.571803 0
M  V30 6898 H 680.091 -3.12205 1.61929 0
M  V30 6899 H 679.965 -3.772 -0.00578374 0
M  V30 6900 H 682.352 -2.90919 -0.494991 0
M  V30 6901 H 682.433 -2.28125 1.15727 0
M  V30 6902 H 682.077 -4.64692 2.04997 0
M  V30 6903 H 682.007 -5.25256 0.376023 0
M  V30 6904 H 684.498 -3.71898 0.670851 0
M  V30 6905 H 684.811 -7.46932 1.98274 0
M  V30 6906 H 683.156 -6.71914 1.77641 0
M  V30 6907 H 686.347 -4.59095 0.913756 0
M  V30 6908 H 686.52 -6.30119 1.51176 0
M  V30 6909 N 679.926 -0.151884 -1.56866 0
M  V30 6910 C 681.337 0.368128 -1.83035 0
M  V30 6911 C 681.688 1.64402 -1.07082 0
M  V30 6912 O 680.813 2.14056 -0.317647 0
M  V30 6913 C 681.408 0.674676 -3.32014 0
M  V30 6914 C 679.967 1.13919 -3.58747 0
M  V30 6915 C 679.114 0.164833 -2.7681 0
M  V30 6916 H 682.065 -0.376499 -1.54169 0
M  V30 6917 H 682.086 1.52883 -3.48435 0
M  V30 6918 H 681.598 -0.254113 -3.87267 0
M  V30 6919 H 679.699 2.08375 -3.08886 0
M  V30 6920 H 679.812 1.06179 -4.67186 0
M  V30 6921 H 678.176 0.658419 -2.46043 0
M  V30 6922 H 678.959 -0.757633 -3.34836 0
M  V30 6923 N 681.404 1.57128 0.121893 0
M  V30 6924 C 682.815 1.73902 0.679348 0
M  V30 6925 C 683.166 0.770135 1.80453 0
M  V30 6926 O 682.291 -0.0576083 2.16323 0
M  V30 6927 C 682.886 3.15328 1.2391 0
M  V30 6928 C 681.445 3.33618 1.74288 0
M  V30 6929 C 680.592 2.6978 0.641414 0
M  V30 6930 H 683.543 1.58359 -0.104 0
M  V30 6931 H 683.564 3.16718 2.10879 0
M  V30 6932 H 683.076 3.85821 0.419957 0
M  V30 6933 H 681.177 2.68162 2.58689 0
M  V30 6934 H 681.29 4.4176 1.85432 0
M  V30 6935 H 679.654 2.30935 1.0743 0
M  V30 6936 H 680.437 3.42895 -0.166707 0
M  V30 6937 N 682.882 -0.391992 1.52647 0
M  V30 6938 C 684.293 -0.970064 1.5952 0
M  V30 6939 C 684.644 -1.91059 0.446207 0
M  V30 6940 O 683.769 -2.12062 -0.431125 0
M  V30 6941 C 684.364 -1.76614 2.89125 0
M  V30 6942 C 682.923 -2.29396 2.9842 0
M  V30 6943 C 682.07 -1.09864 2.54608 0
M  V30 6944 H 685.021 -0.171638 1.57769 0
M  V30 6945 H 685.042 -2.62511 2.75442 0
M  V30 6946 H 684.554 -1.08135 3.72731 0
M  V30 6947 H 682.655 -3.01196 2.19344 0
M  V30 6948 H 682.768 -2.59088 4.03002 0
M  V30 6949 H 681.132 -1.45777 2.08857 0
M  V30 6950 H 681.915 -0.429249 3.40606 0
M  V30 6951 N 684.36 -1.4356 -0.65026 0
M  V30 6952 C 685.292 -1.44918 -1.77571 0
M  V30 6953 C 686.305 -0.344925 -1.59104 0
M  V30 6954 O 687.494 -0.609537 -1.6777 0
M  V30 6955 C 684.594 -1.24914 -3.15039 0
M  V30 6956 C 683.767 -2.48232 -3.60138 0
M  V30 6957 C 682.826 -2.23409 -4.76419 0
M  V30 6958 O 681.852 -2.9678 -4.85706 0
M  V30 6959 N 683.054 -1.25259 -5.66825 0
M  V30 6960 H 685.819 -2.41935 -1.76883 0
M  V30 6961 H 683.38 -1.38754 -0.834202 0
M  V30 6962 H 685.372 -1.06185 -3.90521 0
M  V30 6963 H 683.942 -0.363319 -3.10481 0
M  V30 6964 H 683.162 -2.82366 -2.75069 0
M  V30 6965 H 684.45 -3.30296 -3.87017 0
M  V30 6966 H 683.848 -0.646246 -5.61997 0
M  V30 6967 H 682.405 -1.12513 -6.42016 0
M  V30 6968 N 685.838 0.888903 -1.30139 0
M  V30 6969 C 687.086 1.63713 -1.18501 0
M  V30 6970 C 687.407 1.9324 0.261399 0
M  V30 6971 O 686.677 1.56608 1.17689 0
M  V30 6972 H 685.257 0.606861 -0.435579 0
M  V30 6973 H 687.919 1.06525 -1.63213 0
M  V30 6974 H 687.015 2.58894 -1.743 0
M  V30 6975 N 687.317 1.12792 1.10072 0
M  V30 6976 C 688.565 0.883796 1.81751 0
M  V30 6977 C 688.886 -0.591891 1.858 0
M  V30 6978 O 688.156 -1.43017 1.33876 0
M  V30 6979 H 686.736 0.323978 0.673088 0
M  V30 6980 H 689.398 1.42314 1.33164 0
M  V30 6981 H 688.494 1.26863 2.85153 0
M  V30 6982 N 688.795 -1.27931 0.920396 0
M  V30 6983 C 690.206 -1.76707 0.602616 0
M  V30 6984 C 690.557 -1.75249 -0.882159 0
M  V30 6985 O 689.682 -1.35135 -1.69019 0
M  V30 6986 C 690.277 -3.20884 1.08714 0
M  V30 6987 C 688.836 -3.67356 0.820157 0
M  V30 6988 C 687.983 -2.47525 1.25006 0
M  V30 6989 H 690.934 -1.14301 1.10095 0
M  V30 6990 H 690.955 -3.78045 0.431535 0
M  V30 6991 H 690.467 -3.21913 2.1678 0
M  V30 6992 H 688.568 -3.7178 -0.247012 0
M  V30 6993 H 688.681 -4.57181 1.43257 0
M  V30 6994 H 687.045 -2.45765 0.668698 0
M  V30 6995 H 687.828 -2.51269 2.3392 0
M  V30 6996 N 690.273 -0.685099 -1.4193 0
M  V30 6997 C 691.684 -0.287699 -1.8447 0
M  V30 6998 C 692.035 1.17215 -1.57338 0
M  V30 6999 O 691.16 1.89856 -1.03845 0
M  V30 7000 C 691.755 -0.515385 -3.34857 0
M  V30 7001 C 690.314 -0.172006 -3.76007 0
M  V30 7002 C 689.461 -0.802808 -2.65425 0
M  V30 7003 H 692.412 -0.88652 -1.3163 0
M  V30 7004 H 692.433 0.229251 -3.79809 0
M  V30 7005 H 691.945 -1.57796 -3.54573 0
M  V30 7006 H 690.046 0.886716 -3.61895 0
M  V30 7007 H 690.159 -0.619717 -4.75075 0
M  V30 7008 H 688.523 -0.233267 -2.5363 0
M  V30 7009 H 689.306 -1.86904 -2.87961 0
M  V30 7010 N 691.751 1.51645 -0.429126 0
M  V30 7011 C 692.683 2.25279 0.422124 0
M  V30 7012 C 693.696 1.28986 0.993299 0
M  V30 7013 O 694.885 1.54797 0.888836 0
M  V30 7014 C 691.985 2.98666 1.60162 0
M  V30 7015 C 691.158 4.2199 1.15078 0
M  V30 7016 C 690.217 4.78028 2.19946 0
M  V30 7017 O 689.243 5.40084 1.79716 0
M  V30 7018 N 690.445 4.61342 3.5234 0
M  V30 7019 H 693.21 2.98971 -0.208931 0
M  V30 7020 H 690.771 1.59838 -0.257568 0
M  V30 7021 H 692.763 3.33044 2.29922 0
M  V30 7022 H 691.333 2.28036 2.13818 0
M  V30 7023 H 690.553 3.932 0.280552 0
M  V30 7024 H 691.841 5.02037 0.826831 0
M  V30 7025 H 691.239 4.11894 3.87763 0
M  V30 7026 H 689.796 5.00104 4.18019 0
M  V30 7027 N 693.229 0.160201 1.56784 0
M  V30 7028 C 694.64 -0.358417 1.83227 0
M  V30 7029 C 694.991 -1.63831 1.07952 0
M  V30 7030 O 694.116 -2.13885 0.328995 0
M  V30 7031 C 694.711 -0.657058 3.32368 0
M  V30 7032 C 693.27 -1.12015 3.59346 0
M  V30 7033 C 692.417 -0.15015 2.76893 0
M  V30 7034 H 695.368 0.384669 1.53967 0
M  V30 7035 H 695.389 -1.51033 3.49241 0
M  V30 7036 H 694.901 0.274647 3.87127 0
M  V30 7037 H 693.002 -2.06734 3.09987 0
M  V30 7038 H 693.115 -1.037 4.67743 0
M  V30 7039 H 691.479 -0.645361 2.46388 0
M  V30 7040 H 692.262 0.775379 3.34429 0
M  V30 7041 N 694.707 -1.5719 -0.113559 0
M  V30 7042 C 695.955 -1.84772 -0.818761 0
M  V30 7043 C 696.276 -0.746196 -1.80158 0
M  V30 7044 O 695.546 0.229305 -1.94553 0
M  V30 7045 H 694.126 -0.681737 -0.305359 0
M  V30 7046 H 696.788 -1.94645 -0.0995845 0
M  V30 7047 H 695.884 -2.80878 -1.36067 0
M  V30 7048 N 696.185 0.383891 -1.52853 0
M  V30 7049 C 697.596 0.961591 -1.60032 0
M  V30 7050 C 697.947 1.90819 -0.456333 0
M  V30 7051 O 697.072 2.12288 0.419873 0
M  V30 7052 C 697.667 1.75078 -2.90057 0
M  V30 7053 C 696.226 2.2781 -2.99632 0
M  V30 7054 C 695.373 1.08512 -2.55187 0
M  V30 7055 H 698.324 0.163269 -1.57858 0
M  V30 7056 H 698.345 2.61046 -2.7683 0
M  V30 7057 H 697.857 1.06157 -3.73299 0
M  V30 7058 H 695.958 3.00028 -2.20939 0
M  V30 7059 H 696.071 2.56947 -4.0437 0
M  V30 7060 H 694.435 1.44667 -2.09627 0
M  V30 7061 H 695.218 0.41118 -3.40829 0
M  V30 7062 N 697.663 1.43903 0.642637 0
M  V30 7063 C 698.911 1.45791 1.39962 0
M  V30 7064 C 699.232 0.0873144 1.94804 0
M  V30 7065 O 698.502 -0.878825 1.75081 0
M  V30 7066 H 697.082 0.536797 0.519479 0
M  V30 7067 H 699.744 1.7959 0.757189 0
M  V30 7068 H 698.84 2.17665 2.2367 0
M  V30 7069 N 699.141 -0.881989 1.30609 0
M  V30 7070 C 700.552 -1.44956 1.17664 0
M  V30 7071 C 700.903 -1.94945 -0.221531 0
M  V30 7072 O 700.028 -1.85257 -1.11844 0
M  V30 7073 C 700.623 -2.63474 2.12995 0
M  V30 7074 C 699.182 -3.16312 2.04019 0
M  V30 7075 C 698.329 -1.89008 2.02907 0
M  V30 7076 H 701.28 -0.691645 1.42835 0
M  V30 7077 H 701.301 -3.39783 1.71253 0
M  V30 7078 H 700.813 -2.2706 3.14746 0
M  V30 7079 H 698.914 -3.57376 1.0542 0
M  V30 7080 H 699.027 -3.79409 2.9255 0
M  V30 7081 H 697.391 -2.07465 1.47751 0
M  V30 7082 H 698.174 -1.54848 3.06394 0
M  V30 7083 N 700.619 -1.13374 -1.09472 0
M  V30 7084 C 701.551 -0.768466 -2.15933 0
M  V30 7085 C 702.564 0.209585 -1.61445 0
M  V30 7086 O 703.753 -0.010539 -1.78497 0
M  V30 7087 C 700.853 -0.118266 -3.38694 0
M  V30 7088 C 700.026 -1.12829 -4.22597 0
M  V30 7089 C 699.085 -0.503875 -5.23782 0
M  V30 7090 O 698.111 -1.16374 -5.57177 0
M  V30 7091 N 699.313 0.724288 -5.75964 0
M  V30 7092 H 702.078 -1.68457 -2.47876 0
M  V30 7093 H 699.639 -1.02668 -1.25183 0
M  V30 7094 H 701.631 0.311698 -4.03498 0
M  V30 7095 H 700.201 0.700769 -3.04644 0
M  V30 7096 H 699.421 -1.73556 -3.53938 0
M  V30 7097 H 700.709 -1.81095 -4.75481 0
M  V30 7098 H 700.107 1.27918 -5.51048 0
M  V30 7099 H 698.664 1.09692 -6.42504 0
M  V30 7100 N 702.098 1.27442 -0.927168 0
M  V30 7101 C 703.514 1.46754 -0.627329 0
M  V30 7102 C 703.714 1.83902 0.823549 0
M  V30 7103 O 702.77 1.95215 1.60148 0
M  V30 7104 C 704.083 2.56045 -1.57674 0
M  V30 7105 C 705.631 2.69906 -1.58491 0
M  V30 7106 C 706.106 3.82355 -2.52128 0
M  V30 7107 N 707.597 3.89728 -2.50332 0
M  V30 7108 C 708.332 4.76155 -3.19475 0
M  V30 7109 N 707.828 5.67073 -3.97995 0
M  V30 7110 N 709.621 4.6988 -3.08496 0
M  V30 7111 H 701.772 1.01613 -1.86517 0
M  V30 7112 H 704.035 0.507443 -0.800753 0
M  V30 7113 H 703.741 2.35542 -2.61176 0
M  V30 7114 H 703.615 3.53423 -1.31804 0
M  V30 7115 H 706.002 2.89792 -0.557208 0
M  V30 7116 H 706.083 1.73018 -1.8841 0
M  V30 7117 H 705.727 3.63224 -3.55008 0
M  V30 7118 H 705.657 4.7867 -2.19505 0
M  V30 7119 H 708.148 3.24717 -1.93306 0
M  V30 7120 H 708.461 6.2988 -4.4774 0
M  V30 7121 H 706.806 5.6687 -4.02098 0
M  V30 7122 H 709.997 3.97848 -2.46646 0
M  V30 7123 H 710.17 5.37017 -3.62652 0
M  V30 7124 N 703.576 0.692616 1.41565 0
M  V30 7125 C 704.508 -0.0137132 2.29196 0
M  V30 7126 C 705.521 -0.747417 1.44629 0
M  V30 7127 O 706.71 -0.598611 1.68163 0
M  V30 7128 C 703.81 -1.04347 3.22436 0
M  V30 7129 C 702.983 -0.379985 4.35746 0
M  V30 7130 C 702.042 -1.31195 5.09583 0
M  V30 7131 O 701.068 -0.805455 5.63472 0
M  V30 7132 N 702.27 -2.64443 5.16769 0
M  V30 7133 H 705.035 0.738614 2.90456 0
M  V30 7134 H 702.596 0.538415 1.52685 0
M  V30 7135 H 704.588 -1.6686 3.687 0
M  V30 7136 H 703.158 -1.69736 2.62504 0
M  V30 7137 H 702.378 0.424975 3.91903 0
M  V30 7138 H 703.666 0.0814904 5.08735 0
M  V30 7139 H 703.064 -3.08114 4.74428 0
M  V30 7140 H 701.621 -3.22159 5.66619 0
M  V30 7141 N 705.054 -1.51416 0.437162 0
M  V30 7142 C 706.302 -2.01687 -0.129108 0
M  V30 7143 C 706.623 -1.32329 -1.43227 0
M  V30 7144 O 705.893 -0.457796 -1.90476 0
M  V30 7145 H 704.473 -0.745277 -0.0507023 0
M  V30 7146 H 707.135 -1.86075 0.579828 0
M  V30 7147 H 706.231 -3.10605 -0.305141 0
M  V30 7148 N 706.532 -0.168513 -1.56696 0
M  V30 7149 C 707.943 0.348694 -1.83415 0
M  V30 7150 C 708.294 1.63257 -1.0882 0
M  V30 7151 O 707.419 2.13707 -0.340333 0
M  V30 7152 C 708.014 0.639423 -3.32711 0
M  V30 7153 C 706.573 1.10108 -3.59935 0
M  V30 7154 C 705.72 0.135464 -2.76969 0
M  V30 7155 H 708.671 -0.392829 -1.53761 0
M  V30 7156 H 708.692 1.49179 -3.50037 0
M  V30 7157 H 708.204 -0.295173 -3.86976 0
M  V30 7158 H 706.305 2.05088 -3.11079 0
M  V30 7159 H 706.418 1.01218 -4.68286 0
M  V30 7160 H 704.782 0.632286 -2.46727 0
M  V30 7161 H 705.565 -0.793104 -3.34013 0
M  V30 7162 N 708.01 1.57248 0.105221 0
M  V30 7163 C 709.421 1.74612 0.660865 0
M  V30 7164 C 709.772 0.789231 1.79626 0
M  V30 7165 O 708.897 -0.0346611 2.16372 0
M  V30 7166 C 709.492 3.16624 1.20559 0
M  V30 7167 C 708.051 3.35447 1.7074 0
M  V30 7168 C 707.198 2.70445 0.612764 0
M  V30 7169 H 710.149 1.5824 -0.12079 0
M  V30 7170 H 710.17 3.18937 2.07508 0
M  V30 7171 H 709.682 3.86245 0.379012 0
M  V30 7172 H 707.783 2.7089 2.5583 0
M  V30 7173 H 707.896 4.43702 1.80736 0
M  V30 7174 H 706.26 2.32061 1.04975 0
M  V30 7175 H 707.043 3.42699 -0.203066 0
M  V30 7176 N 709.488 -0.375779 1.53054 0
M  V30 7177 C 710.418 -1.46598 1.81745 0
M  V30 7178 C 711.399 -1.56337 0.670286 0
M  V30 7179 O 712.584 -1.71071 0.919158 0
M  V30 7180 C 709.714 -2.84058 1.99821 0
M  V30 7181 C 708.668 -2.8915 3.15557 0
M  V30 7182 C 707.994 -4.29187 3.18908 0
M  V30 7183 C 709.294 -2.57595 4.54359 0
M  V30 7184 H 710.988 -1.22837 2.73041 0
M  V30 7185 H 708.534 -0.589485 1.31381 0
M  V30 7186 H 710.487 -3.60342 2.18475 0
M  V30 7187 H 709.211 -3.09184 1.05226 0
M  V30 7188 H 707.87 -2.15316 2.96706 0
M  V30 7189 H 707.518 -4.51374 2.2197 0
M  V30 7190 H 707.218 -4.33512 3.96662 0
M  V30 7191 H 708.742 -5.07359 3.39734 0
M  V30 7192 H 710.156 -3.23595 4.73243 0
M  V30 7193 H 708.553 -2.73252 5.34279 0
M  V30 7194 H 709.623 -1.52882 4.60169 0
M  V30 7195 N 710.966 -1.44241 -0.634997 0
M  V30 7196 C 711.898 -1.46793 -1.76024 0
M  V30 7197 C 712.911 -0.361781 -1.58729 0
M  V30 7198 O 714.1 -0.627297 -1.67114 0
M  V30 7199 C 711.2 -1.28248 -3.13697 0
M  V30 7200 C 710.373 -2.52038 -3.57485 0
M  V30 7201 C 709.432 -2.2845 -4.74022 0
M  V30 7202 O 708.458 -3.01915 -4.82531 0
M  V30 7203 N 709.66 -1.31264 -5.65464 0
M  V30 7204 H 712.425 -2.43797 -1.74307 0
M  V30 7205 H 709.986 -1.39631 -0.819438 0
M  V30 7206 H 711.978 -1.10321 -3.89373 0
M  V30 7207 H 710.548 -0.39623 -3.10079 0
M  V30 7208 H 709.768 -2.85268 -2.72059 0
M  V30 7209 H 711.056 -3.34382 -3.83492 0
M  V30 7210 H 710.454 -0.705817 -5.6128 0
M  V30 7211 H 709.011 -1.19316 -6.40786 0
M  V30 7212 N 712.444 0.87505 -1.31075 0
M  V30 7213 C 713.376 1.98773 -1.14114 0
M  V30 7214 C 714.389 1.62595 -0.0816119 0
M  V30 7215 O 715.578 1.75449 -0.32861 0
M  V30 7216 C 712.678 3.31159 -0.720224 0
M  V30 7217 C 711.851 3.9571 -1.86366 0
M  V30 7218 C 710.91 5.06407 -1.42965 0
M  V30 7219 O 709.936 5.27501 -2.13848 0
M  V30 7220 N 711.138 5.79649 -0.314194 0
M  V30 7221 H 713.903 2.1387 -2.09951 0
M  V30 7222 H 711.464 1.04873 -1.23342 0
M  V30 7223 H 713.456 4.0259 -0.412687 0
M  V30 7224 H 712.026 3.12257 0.146396 0
M  V30 7225 H 711.246 3.17324 -2.33879 0
M  V30 7226 H 712.534 4.35576 -2.62966 0
M  V30 7227 H 711.932 5.65025 0.276228 0
M  V30 7228 H 710.489 6.51766 -0.0661641 0
M  V30 7229 N 713.922 1.13953 1.08869 0
M  V30 7230 C 715.338 0.878924 1.33218 0
M  V30 7231 C 715.538 -0.482478 1.95638 0
M  V30 7232 O 714.594 -1.22778 2.2064 0
M  V30 7233 C 715.907 2.00798 2.23832 0
M  V30 7234 C 717.455 2.04073 2.37325 0
M  V30 7235 C 717.93 3.16258 3.31278 0
M  V30 7236 N 719.421 3.15805 3.38853 0
M  V30 7237 C 720.156 3.99249 4.11567 0
M  V30 7238 N 719.652 4.92721 4.87029 0
M  V30 7239 N 721.445 3.87327 4.0735 0
M  V30 7240 H 713.596 2.01645 0.66731 0
M  V30 7241 H 715.859 0.878395 0.356547 0
M  V30 7242 H 715.565 2.98986 1.85203 0
M  V30 7243 H 715.439 1.92704 3.24261 0
M  V30 7244 H 717.826 1.06495 2.75214 0
M  V30 7245 H 717.907 2.16239 1.36654 0
M  V30 7246 H 717.551 4.14079 2.9411 0
M  V30 7247 H 717.481 3.0133 4.31866 0
M  V30 7248 H 719.972 2.48102 2.8505 0
M  V30 7249 H 720.285 5.52867 5.39961 0
M  V30 7250 H 718.63 4.96723 4.86098 0
M  V30 7251 H 721.821 3.13627 3.475 0
M  V30 7252 H 721.994 4.52585 4.63757 0
M  V30 7253 N 715.4 -1.26948 0.933913 0
M  V30 7254 C 716.811 -1.76058 0.621324 0
M  V30 7255 C 717.162 -1.76175 -0.863522 0
M  V30 7256 O 716.287 -1.36921 -1.67576 0
M  V30 7257 C 716.882 -3.19713 1.12111 0
M  V30 7258 C 715.441 -3.66465 0.859074 0
M  V30 7259 C 714.588 -2.46186 1.27624 0
M  V30 7260 H 717.539 -1.13127 1.11301 0
M  V30 7261 H 717.56 -3.77566 0.471608 0
M  V30 7262 H 717.072 -3.19596 2.20182 0
M  V30 7263 H 715.173 -3.72021 -0.207566 0
M  V30 7264 H 715.286 -4.55636 1.48098 0
M  V30 7265 H 713.65 -2.45042 0.694727 0
M  V30 7266 H 714.433 -2.48774 2.36572 0
M  V30 7267 N 716.879 -0.700114 -1.41195 0
M  V30 7268 C 718.29 -0.307249 -1.84154 0
M  V30 7269 C 718.641 1.15539 -1.58572 0
M  V30 7270 O 717.766 1.88744 -1.05852 0
M  V30 7271 C 718.361 -0.550872 -3.34292 0
M  V30 7272 C 716.92 -0.211877 -3.75803 0
M  V30 7273 C 716.067 -0.830915 -2.64558 0
M  V30 7274 H 719.018 -0.900431 -1.30683 0
M  V30 7275 H 719.039 0.188954 -3.80031 0
M  V30 7276 H 718.551 -1.61548 -3.5288 0
M  V30 7277 H 716.652 0.848283 -3.62815 0
M  V30 7278 H 716.765 -0.67007 -4.74391 0
M  V30 7279 H 715.129 -0.260155 -2.53368 0
M  V30 7280 H 715.912 -1.89948 -2.85963 0
M  V30 7281 N 718.357 1.51182 -0.445186 0
M  V30 7282 C 719.768 1.86693 0.0160999 0
M  V30 7283 C 720.119 1.36183 1.4124 0
M  V30 7284 O 719.244 0.715895 2.04215 0
M  V30 7285 C 719.839 3.38781 0.0359918 0
M  V30 7286 C 718.398 3.73799 0.441715 0
M  V30 7287 C 717.545 2.74947 -0.360511 0
M  V30 7288 H 720.496 1.44294 -0.660674 0
M  V30 7289 H 720.517 3.71026 0.843813 0
M  V30 7290 H 720.029 3.75513 -0.980378 0
M  V30 7291 H 718.13 3.42659 1.4634 0
M  V30 7292 H 718.243 4.78829 0.16106 0
M  V30 7293 H 716.607 2.54047 0.182269 0
M  V30 7294 H 717.39 3.14521 -1.3759 0
M  V30 7295 N 719.835 0.176821 1.56605 0
M  V30 7296 C 720.767 -0.782836 2.15417 0
M  V30 7297 C 721.78 -1.18982 1.11117 0
M  V30 7298 O 722.969 -1.12872 1.38283 0
M  V30 7299 C 720.069 -2.06596 2.68647 0
M  V30 7300 C 719.242 -1.82167 3.9766 0
M  V30 7301 C 718.301 -2.94751 4.35899 0
M  V30 7302 O 717.327 -2.65148 5.03672 0
M  V30 7303 N 718.529 -4.2267 3.97907 0
M  V30 7304 H 721.294 -0.280012 2.98389 0
M  V30 7305 H 718.855 -0.00577529 1.61899 0
M  V30 7306 H 720.847 -2.81018 2.91223 0
M  V30 7307 H 719.417 -2.48054 1.90232 0
M  V30 7308 H 718.637 -0.916208 3.83405 0
M  V30 7309 H 719.925 -1.6322 4.81909 0
M  V30 7310 H 719.323 -4.4958 3.43357 0
M  V30 7311 H 717.88 -4.93778 4.25472 0
M  V30 7312 N 721.313 -1.57302 -0.09688 0
M  V30 7313 C 722.561 -1.8563 -0.799117 0
M  V30 7314 C 722.882 -0.765263 -1.79356 0
M  V30 7315 O 722.152 0.208657 -1.94786 0
M  V30 7316 H 720.732 -0.684937 -0.298111 0
M  V30 7317 H 723.394 -1.9474 -0.0789341 0
M  V30 7318 H 722.49 -2.82305 -1.3308 0
M  V30 7319 N 722.791 0.367657 -1.53252 0
M  V30 7320 C 723.723 1.47032 -1.75824 0
M  V30 7321 C 724.736 1.49736 -0.63898 0
M  V30 7322 O 725.925 1.53253 -0.915193 0
M  V30 7323 C 723.025 2.85805 -1.82122 0
M  V30 7324 C 722.198 3.06822 -3.11736 0
M  V30 7325 C 721.257 4.25698 -3.09302 0
M  V30 7326 O 720.283 4.20972 -3.83107 0
M  V30 7327 N 721.485 5.33002 -2.29977 0
M  V30 7328 H 724.25 1.28048 -2.70968 0
M  V30 7329 H 721.811 0.557363 -1.52004 0
M  V30 7330 H 723.803 3.63465 -1.77975 0
M  V30 7331 H 722.373 2.98046 -0.942716 0
M  V30 7332 H 721.593 2.1684 -3.29202 0
M  V30 7333 H 722.881 3.17731 -3.97397 0
M  V30 7334 H 722.279 5.39703 -1.69521 0
M  V30 7335 H 720.836 6.09247 -2.3165 0
M  V30 7336 N 724.269 1.44576 0.627338 0
M  V30 7337 C 725.201 1.47724 1.75243 0
M  V30 7338 C 726.214 0.370193 1.58535 0
M  V30 7339 O 727.403 0.636151 1.66779 0
M  V30 7340 C 724.503 1.2991 3.13012 0
M  V30 7341 C 723.676 2.5393 3.56143 0
M  V30 7342 C 722.735 2.30961 4.72804 0
M  V30 7343 O 721.761 3.04469 4.80923 0
M  V30 7344 N 722.963 1.34261 5.6476 0
M  V30 7345 H 725.728 2.44718 1.73012 0
M  V30 7346 H 723.289 1.40064 0.812022 0
M  V30 7347 H 725.281 1.12385 3.88782 0
M  V30 7348 H 723.851 0.412668 3.09864 0
M  V30 7349 H 723.071 2.86707 2.70542 0
M  V30 7350 H 724.359 3.36411 3.81713 0
M  V30 7351 H 723.757 0.735573 5.60897 0
M  V30 7352 H 722.314 1.22713 6.40144 0
M  V30 7353 N 725.747 -0.868086 1.31537 0
M  V30 7354 C 726.697 -1.96321 1.1594 0
M  V30 7355 C 727.681 -1.60748 0.0698962 0
M  V30 7356 O 728.873 -1.74524 0.295011 0
M  V30 7357 C 726.002 -3.32073 0.870789 0
M  V30 7358 C 725.088 -3.73907 2.00136 0
M  V30 7359 N 725.479 -3.87685 3.24859 0
M  V30 7360 C 723.777 -4.03433 1.90152 0
M  V30 7361 C 724.478 -4.23454 3.98825 0
M  V30 7362 N 723.454 -4.34242 3.27009 0
M  V30 7363 H 727.256 -2.05088 2.10514 0
M  V30 7364 H 724.77 -1.059 1.23122 0
M  V30 7365 H 726.767 -4.10279 0.740034 0
M  V30 7366 H 725.427 -3.24631 -0.0667068 0
M  V30 7367 H 726.438 -3.72363 3.59953 0
M  V30 7368 H 723.115 -4.0437 1.03879 0
M  V30 7369 H 724.505 -4.41696 5.06314 0
M  V30 7370 N 727.225 -1.14528 -1.08264 0
M  V30 7371 C 728.155 -0.856356 -2.1723 0
M  V30 7372 C 729.136 0.189251 -1.69044 0
M  V30 7373 O 730.321 0.0456119 -1.94146 0
M  V30 7374 C 727.451 -0.334662 -3.45684 0
M  V30 7375 C 726.405 -1.31588 -4.0727 0
M  V30 7376 C 725.731 -0.653428 -5.30692 0
M  V30 7377 C 727.031 -2.67866 -4.48381 0
M  V30 7378 H 728.725 -1.76755 -2.41657 0
M  V30 7379 H 726.271 -0.851287 -1.16143 0
M  V30 7380 H 728.224 -0.120128 -4.21229 0
M  V30 7381 H 726.948 0.611967 -3.20815 0
M  V30 7382 H 725.607 -1.51661 -3.33758 0
M  V30 7383 H 725.255 0.299054 -5.0211 0
M  V30 7384 H 724.955 -1.30817 -5.72853 0
M  V30 7385 H 726.479 -0.448453 -6.08951 0
M  V30 7386 H 727.893 -2.51692 -5.15096 0
M  V30 7387 H 726.29 -3.29627 -5.01464 0
M  V30 7388 H 727.36 -3.24632 -3.60198 0
M  V30 7389 N 728.703 1.26451 -0.940633 0
M  V30 7390 C 729.928 1.98407 -0.60412 0
M  V30 7391 C 730.353 1.69584 0.81382 0
M  V30 7392 O 729.711 0.943553 1.54812 0
M  V30 7393 C 729.759 3.50387 -0.852136 0
M  V30 7394 O 728.863 4.1233 0.076013 0
M  V30 7395 H 728.204 0.622466 -0.231153 0
M  V30 7396 H 730.734 1.60932 -1.26342 0
M  V30 7397 H 730.744 4.00614 -0.772816 0
M  V30 7398 H 729.419 3.70696 -1.88566 0
M  V30 7399 H 727.996 3.7286 -0.0543187 0
M  V30 7400 N 730.181 0.707592 1.40822 0
M  V30 7401 C 731.429 0.243189 2.00632 0
M  V30 7402 C 731.75 -1.16512 1.56365 0
M  V30 7403 O 731.02 -1.78841 0.799553 0
M  V30 7404 H 729.6 0.0869203 0.741926 0
M  V30 7405 H 732.262 0.911438 1.72275 0
M  V30 7406 H 731.358 0.270014 3.1093 0
M  V30 7407 N 731.66 -1.50943 0.453197 0
M  V30 7408 C 732.59 -2.31005 -0.34044 0
M  V30 7409 C 733.571 -1.37112 -1.00669 0
M  V30 7410 O 734.756 -1.66033 -1.0073 0
M  V30 7411 C 731.886 -3.16358 -1.433 0
M  V30 7412 C 730.84 -4.18658 -0.889363 0
M  V30 7413 C 730.166 -4.92633 -2.07887 0
M  V30 7414 C 731.466 -5.22227 0.0871142 0
M  V30 7415 H 733.16 -2.97601 0.327723 0
M  V30 7416 H 730.706 -1.43119 0.159054 0
M  V30 7417 H 732.659 -3.71155 -1.99555 0
M  V30 7418 H 731.383 -2.47613 -2.12968 0
M  V30 7419 H 730.042 -3.64936 -0.348915 0
M  V30 7420 H 729.69 -4.20376 -2.76211 0
M  V30 7421 H 729.39 -5.61819 -1.72143 0
M  V30 7422 H 730.914 -5.50258 -2.64666 0
M  V30 7423 H 732.328 -5.72001 -0.385656 0
M  V30 7424 H 730.725 -5.99032 0.357926 0
M  V30 7425 H 731.795 -4.74077 1.01879 0
M  V30 7426 N 733.138 -0.185124 -1.56509 0
M  V30 7427 C 734.386 0.455357 -1.96903 0
M  V30 7428 C 734.707 1.62839 -1.07277 0
M  V30 7429 O 733.977 1.95385 -0.141966 0
M  V30 7430 H 732.557 0.171218 -0.727113 0
M  V30 7431 H 735.219 -0.26953 -1.93027 0
M  V30 7432 H 734.315 0.80616 -3.01509 0
M  V30 7433 N 734.616 1.57351 0.0885366 0
M  V30 7434 C 736.027 1.75303 0.642308 0
M  V30 7435 C 736.378 0.808238 1.78779 0
M  V30 7436 O 735.503 -0.01171 2.16397 0
M  V30 7437 C 736.098 3.17885 1.17194 0
M  V30 7438 C 734.657 3.37239 1.67172 0
M  V30 7439 C 733.804 2.7108 0.584045 0
M  V30 7440 H 736.755 1.58103 -0.137567 0
M  V30 7441 H 736.776 3.2112 2.04114 0
M  V30 7442 H 736.288 3.86625 0.338024 0
M  V30 7443 H 734.389 2.73588 2.52943 0
M  V30 7444 H 734.502 4.45594 1.76019 0
M  V30 7445 H 732.866 2.33161 1.02508 0
M  V30 7446 H 733.649 3.42464 -0.239403 0
M  V30 7447 N 736.094 -0.359525 1.53444 0
M  V30 7448 C 737.505 -0.936009 1.61542 0
M  V30 7449 C 737.856 -1.90069 0.486633 0
M  V30 7450 O 736.981 -2.12929 -0.386047 0
M  V30 7451 C 737.576 -1.70441 2.92806 0
M  V30 7452 C 736.135 -2.23015 3.03218 0
M  V30 7453 C 735.282 -1.04438 2.56881 0
M  V30 7454 H 738.233 -0.138134 1.58098 0
M  V30 7455 H 738.254 -2.56609 2.80948 0
M  V30 7456 H 737.766 -1.00205 3.74941 0
M  V30 7457 H 735.867 -2.96475 2.25684 0
M  V30 7458 H 735.98 -2.50481 4.08407 0
M  V30 7459 H 734.344 -1.41314 2.11902 0
M  V30 7460 H 735.127 -0.356905 3.4144 0
M  V30 7461 N 737.572 -1.44907 -0.619662 0
M  V30 7462 C 738.535 -1.52282 -1.71297 0
M  V30 7463 C 739.535 -0.40359 -1.55653 0
M  V30 7464 O 740.725 -0.666638 -1.6094 0
M  V30 7465 C 737.857 -1.40778 -3.10474 0
M  V30 7466 H 739.05 -2.49683 -1.66128 0
M  V30 7467 H 736.603 -1.32168 -0.834339 0
M  V30 7468 H 737.338 -0.445156 -3.2123 0
M  V30 7469 H 737.123 -2.21947 -3.23237 0
M  V30 7470 H 738.613 -1.48946 -3.90135 0
M  V30 7471 N 739.05 0.861098 -1.31996 0
M  V30 7472 C 740.298 1.61162 -1.21947 0
M  V30 7473 C 740.619 1.93751 0.220351 0
M  V30 7474 O 739.889 1.59069 1.14341 0
M  V30 7475 H 738.469 0.597485 -0.448353 0
M  V30 7476 H 741.131 1.03039 -1.65436 0
M  V30 7477 H 740.227 2.55138 -1.79752 0
M  V30 7478 N 740.528 1.15101 1.07655 0
M  V30 7479 C 741.753 0.948177 1.84457 0
M  V30 7480 C 742.178 -0.498432 1.81376 0
M  V30 7481 O 741.536 -1.35509 1.20445 0
M  V30 7482 C 741.584 1.46318 3.29581 0
M  V30 7483 O 740.688 0.660342 4.07079 0
M  V30 7484 H 740.029 0.338428 0.571281 0
M  V30 7485 H 742.559 1.5301 1.35828 0
M  V30 7486 H 742.569 1.47468 3.80417 0
M  V30 7487 H 741.244 2.51635 3.31138 0
M  V30 7488 H 739.821 0.718216 3.65918 0
M  V30 7489 N 742.006 -1.2595 0.947325 0
M  V30 7490 C 743.417 -1.75389 0.639963 0
M  V30 7491 C 743.768 -1.77081 -0.844788 0
M  V30 7492 O 742.893 -1.3869 -1.66114 0
M  V30 7493 C 743.488 -3.18506 1.15496 0
M  V30 7494 C 742.047 -3.65534 0.897894 0
M  V30 7495 C 741.194 -2.44818 1.30228 0
M  V30 7496 H 744.145 -1.1194 1.12495 0
M  V30 7497 H 744.166 -3.77045 0.511627 0
M  V30 7498 H 743.678 -3.17243 2.23559 0
M  V30 7499 H 741.779 -3.72221 -0.168096 0
M  V30 7500 H 741.892 -4.54039 1.52922 0
M  V30 7501 H 740.256 -2.44291 0.720678 0
M  V30 7502 H 741.039 -2.46251 2.39198 0
M  V30 7503 N 743.484 -0.715051 -1.40445 0
M  V30 7504 C 744.414 -0.0768699 -2.33373 0
M  V30 7505 C 745.395 0.746109 -1.52863 0
M  V30 7506 O 746.58 0.695142 -1.81332 0
M  V30 7507 C 743.71 0.846014 -3.36838 0
M  V30 7508 C 742.664 0.128694 -4.27806 0
M  V30 7509 C 741.99 1.16726 -5.21804 0
M  V30 7510 C 743.29 -1.01679 -5.12307 0
M  V30 7511 H 744.984 -0.853061 -2.8699 0
M  V30 7512 H 742.53 -0.41167 -1.3799 0
M  V30 7513 H 744.483 1.30185 -4.00786 0
M  V30 7514 H 743.207 1.6541 -2.81615 0
M  V30 7515 H 741.866 -0.307314 -3.6531 0
M  V30 7516 H 741.514 1.96838 -4.62887 0
M  V30 7517 H 741.214 0.692188 -5.83509 0
M  V30 7518 H 742.738 1.62321 -5.88629 0
M  V30 7519 H 744.152 -0.640337 -5.69713 0
M  V30 7520 H 742.549 -1.4202 -5.83053 0
M  V30 7521 H 743.619 -1.84769 -4.48317 0
M  V30 7522 N 744.962 1.50701 -0.461195 0
M  V30 7523 C 746.373 1.867 -0.00370227 0
M  V30 7524 C 746.724 1.37673 1.39787 0
M  V30 7525 O 745.849 0.737515 2.03445 0
M  V30 7526 C 746.444 3.388 5.75786e-05 0
M  V30 7527 C 745.003 3.74247 0.402044 0
M  V30 7528 C 744.15 2.74549 -0.389652 0
M  V30 7529 H 747.101 1.43585 -0.675942 0
M  V30 7530 H 747.122 3.719 0.804414 0
M  V30 7531 H 746.634 3.74452 -1.02015 0
M  V30 7532 H 744.735 3.44192 1.42697 0
M  V30 7533 H 744.848 4.78973 0.110265 0
M  V30 7534 H 743.212 2.54226 0.155314 0
M  V30 7535 H 743.995 3.13044 -1.40919 0
M  V30 7536 N 746.441 0.193421 1.56409 0
M  V30 7537 C 747.373 -0.759944 2.16235 0
M  V30 7538 C 748.386 -1.17797 1.12373 0
M  V30 7539 O 749.575 -1.11399 1.39472 0
M  V30 7540 C 746.675 -2.03735 2.70823 0
M  V30 7541 C 745.848 -1.77939 3.9957 0
M  V30 7542 C 744.907 -2.90111 4.39001 0
M  V30 7543 O 743.933 -2.59791 5.06456 0
M  V30 7544 N 745.135 -4.18426 4.02368 0
M  V30 7545 H 747.9 -0.248348 2.98669 0
M  V30 7546 H 745.461 0.0113966 1.61896 0
M  V30 7547 H 747.453 -2.77914 2.94187 0
M  V30 7548 H 746.023 -2.46022 1.92852 0
M  V30 7549 H 745.243 -0.875491 3.84355 0
M  V30 7550 H 746.531 -1.58099 4.83614 0
M  V30 7551 H 745.929 -4.45913 3.48106 0
M  V30 7552 H 744.486 -4.89237 4.30686 0
M  V30 7553 N 747.919 -1.57396 -0.0801906 0
M  V30 7554 C 749.335 -1.53564 -0.434778 0
M  V30 7555 C 749.535 -0.912372 -1.79661 0
M  V30 7556 O 748.591 -0.511268 -2.4727 0
M  V30 7557 C 749.904 -2.98244 -0.383561 0
M  V30 7558 C 751.452 -3.09536 -0.46435 0
M  V30 7559 C 751.927 -4.55851 -0.443128 0
M  V30 7560 N 753.418 -4.60456 -0.503448 0
M  V30 7561 C 754.153 -5.71135 -0.509106 0
M  V30 7562 N 753.649 -6.91203 -0.47008 0
M  V30 7563 N 755.442 -5.59353 -0.555035 0
M  V30 7564 H 747.593 -1.96281 0.811635 0
M  V30 7565 H 749.856 -0.898041 0.303689 0
M  V30 7566 H 749.562 -3.47369 0.550236 0
M  V30 7567 H 749.436 -3.57705 -1.19694 0
M  V30 7568 H 751.823 -2.6039 -1.38857 0
M  V30 7569 H 751.904 -2.53 0.377445 0
M  V30 7570 H 751.548 -5.05653 0.477207 0
M  V30 7571 H 751.478 -5.10242 -1.30234 0
M  V30 7572 H 753.969 -3.74048 -0.538199 0
M  V30 7573 H 754.282 -7.7132 -0.478091 0
M  V30 7574 H 752.627 -6.93625 -0.436897 0
M  V30 7575 H 755.818 -4.64453 -0.583158 0
M  V30 7576 H 755.991 -6.4561 -0.555976 0
M  V30 7577 N 749.397 0.351382 -1.53633 0
M  V30 7578 C 750.327 1.43688 -1.84055 0
M  V30 7579 C 751.308 1.55251 -0.695073 0
M  V30 7580 O 752.493 1.69587 -0.946257 0
M  V30 7581 C 749.623 2.80843 -2.04315 0
M  V30 7582 C 748.577 2.84094 -3.20117 0
M  V30 7583 C 747.903 4.2406 -3.25696 0
M  V30 7584 C 749.203 2.50334 -4.58399 0
M  V30 7585 H 750.897 1.18478 -2.74961 0
M  V30 7586 H 748.443 0.568509 -1.32303 0
M  V30 7587 H 750.396 3.56821 -2.2418 0
M  V30 7588 H 749.12 3.07471 -1.10132 0
M  V30 7589 H 747.779 2.10568 -3.00094 0
M  V30 7590 H 747.427 4.47785 -2.29123 0
M  V30 7591 H 747.127 4.27147 -4.03509 0
M  V30 7592 H 748.651 5.0189 -3.47762 0
M  V30 7593 H 750.065 3.16025 -4.78332 0
M  V30 7594 H 748.462 2.64717 -5.38558 0
M  V30 7595 H 749.532 1.45542 -4.62543 0
M  V30 7596 N 750.875 1.45233 0.611969 0
M  V30 7597 C 752.286 1.4354 1.19387 0
M  V30 7598 C 752.637 0.160713 1.95541 0
M  V30 7599 O 751.762 -0.737954 2.03429 0
M  V30 7600 C 752.357 2.60045 2.17169 0
M  V30 7601 C 750.916 2.61486 2.70744 0
M  V30 7602 C 750.063 2.35708 1.46072 0
M  V30 7603 H 753.014 1.53536 0.401529 0
M  V30 7604 H 753.035 2.33893 3.00124 0
M  V30 7605 H 752.547 3.52803 1.61714 0
M  V30 7606 H 750.648 1.72721 3.30149 0
M  V30 7607 H 750.761 3.60572 3.15476 0
M  V30 7608 H 749.125 1.85178 1.74875 0
M  V30 7609 H 749.908 3.30606 0.924922 0
M  V30 7610 N 752.353 -0.854086 1.3245 0
M  V30 7611 C 753.578 -1.64597 1.26185 0
M  V30 7612 C 754.003 -1.87357 -0.167074 0
M  V30 7613 O 753.361 -1.42675 -1.11864 0
M  V30 7614 C 753.409 -2.98213 2.02734 0
M  V30 7615 O 752.513 -3.88784 1.37554 0
M  V30 7616 H 751.854 -0.50179 0.434859 0
M  V30 7617 H 754.384 -1.06372 1.74775 0
M  V30 7618 H 754.394 -3.4803 2.1293 0
M  V30 7619 H 753.069 -2.80969 3.06642 0
M  V30 7620 H 751.646 -3.4725 1.3591 0
M  V30 7621 N 753.831 -1.1567 -1.07043 0
M  V30 7622 C 755.242 -0.942408 -1.61169 0
M  V30 7623 C 755.593 0.515537 -1.89306 0
M  V30 7624 O 754.718 1.38726 -1.66084 0
M  V30 7625 C 755.313 -1.70431 -2.92812 0
M  V30 7626 C 753.872 -1.53521 -3.43669 0
M  V30 7627 C 753.019 -1.7179 -2.17678 0
M  V30 7628 H 755.97 -1.3065 -0.9009 0
M  V30 7629 H 755.991 -1.17566 -3.61882 0
M  V30 7630 H 755.503 -2.76538 -2.72302 0
M  V30 7631 H 753.604 -0.498224 -3.69254 0
M  V30 7632 H 753.717 -2.31422 -4.19501 0
M  V30 7633 H 752.081 -1.14468 -2.27529 0
M  V30 7634 H 752.864 -2.79269 -1.99659 0
M  V30 7635 N 755.309 1.25446 -0.953992 0
M  V30 7636 C 756.537 1.97215 -0.625595 0
M  V30 7637 C 756.952 1.70911 0.802168 0
M  V30 7638 O 756.309 0.984782 1.5365 0
M  V30 7639 C 756.36 3.50777 -0.873943 0
M  V30 7640 O 756.081 3.76173 -2.24556 0
M  V30 7641 C 757.582 4.39776 -0.557845 0
M  V30 7642 H 754.802 0.628652 -0.2346 0
M  V30 7643 H 757.346 1.59632 -1.27819 0
M  V30 7644 H 755.501 3.86474 -0.267765 0
M  V30 7645 H 755.915 4.70636 -2.31522 0
M  V30 7646 H 757.389 5.46431 -0.782157 0
M  V30 7647 H 757.866 4.36257 0.507573 0
M  V30 7648 H 758.472 4.09644 -1.14332 0
M  V30 7649 N 756.787 0.722489 1.40064 0
M  V30 7650 C 758.012 0.273446 2.05589 0
M  V30 7651 C 758.437 -1.07875 1.54093 0
M  V30 7652 O 757.795 -1.68095 0.679252 0
M  V30 7653 C 757.843 0.271023 3.5958 0
M  V30 7654 O 756.947 -0.745499 4.05606 0
M  V30 7655 H 756.288 0.126856 0.65177 0
M  V30 7656 H 758.818 0.984906 1.79334 0
M  V30 7657 H 758.828 0.111084 4.07849 0
M  V30 7658 H 757.503 1.25776 3.96425 0
M  V30 7659 H 756.08 -0.552719 3.68781 0
M  V30 7660 N 758.265 -1.50454 0.469181 0
M  V30 7661 C 759.228 -2.2703 -0.314643 0
M  V30 7662 C 760.228 -1.31734 -0.922111 0
M  V30 7663 O 761.418 -1.55176 -0.791588 0
M  V30 7664 C 758.55 -3.08616 -1.44806 0
M  V30 7665 H 759.743 -2.97769 0.356892 0
M  V30 7666 H 757.296 -1.54698 0.223191 0
M  V30 7667 H 758.031 -2.42369 -2.1547 0
M  V30 7668 H 757.816 -3.78647 -1.01829 0
M  V30 7669 H 759.306 -3.66536 -2.00103 0
M  V30 7670 N 759.743 -0.201713 -1.56304 0
M  V30 7671 C 761.154 0.309711 -1.84113 0
M  V30 7672 C 761.505 1.60912 -1.12258 0
M  V30 7673 O 760.63 2.12937 -0.385587 0
M  V30 7674 C 761.225 0.568706 -3.33993 0
M  V30 7675 C 759.784 1.02448 -3.6219 0
M  V30 7676 C 758.931 0.0766842 -2.77194 0
M  V30 7677 H 761.882 -0.425356 -1.52893 0
M  V30 7678 H 761.903 1.41721 -3.53122 0
M  V30 7679 H 761.415 -0.37719 -3.86263 0
M  V30 7680 H 759.516 1.98443 -3.15359 0
M  V30 7681 H 759.629 0.912619 -4.70328 0
M  V30 7682 H 757.993 0.579809 -2.48013 0
M  V30 7683 H 758.776 -0.863774 -3.32256 0
M  V30 7684 N 761.222 1.57436 0.0718424 0
M  V30 7685 C 762.154 2.00412 1.1121 0
M  V30 7686 C 763.167 0.910074 1.34987 0
M  V30 7687 O 764.356 1.18796 1.33228 0
M  V30 7688 C 761.456 2.32786 2.46301 0
M  V30 7689 C 760.629 3.64036 2.4248 0
M  V30 7690 C 759.688 3.8408 3.59679 0
M  V30 7691 O 758.714 4.55667 3.4111 0
M  V30 7692 N 759.916 3.2643 4.80025 0
M  V30 7693 H 762.681 2.90264 0.746118 0
M  V30 7694 H 760.242 1.59791 0.260495 0
M  V30 7695 H 762.234 2.43368 3.23348 0
M  V30 7696 H 760.804 1.48824 2.74901 0
M  V30 7697 H 760.024 3.64208 1.50818 0
M  V30 7698 H 761.312 4.50217 2.37027 0
M  V30 7699 H 760.71 2.68325 4.98014 0
M  V30 7700 H 759.267 3.42461 5.54584 0
M  V30 7701 N 762.7 -0.34323 1.53817 0
M  V30 7702 C 763.632 -1.44216 1.78141 0
M  V30 7703 C 764.645 -1.48701 0.662721 0
M  V30 7704 O 765.834 -1.51778 0.939458 0
M  V30 7705 C 762.934 -2.82872 1.86646 0
M  V30 7706 C 762.107 -3.01824 3.16577 0
M  V30 7707 C 761.166 -4.20723 3.16036 0
M  V30 7708 O 760.192 -4.14824 3.89756 0
M  V30 7709 N 761.394 -5.29276 2.38427 0
M  V30 7710 H 764.159 -1.23721 2.72971 0
M  V30 7711 H 761.72 -0.53311 1.52871 0
M  V30 7712 H 763.712 -3.60588 1.83735 0
M  V30 7713 H 762.282 -2.96509 0.990014 0
M  V30 7714 H 761.502 -2.11575 3.3261 0
M  V30 7715 H 762.79 -3.11369 4.02402 0
M  V30 7716 H 762.188 -5.36938 1.78085 0
M  V30 7717 H 760.745 -6.05484 2.41313 0
M  V30 7718 N 764.178 -1.45556 -0.604258 0
M  V30 7719 C 765.589 -1.44171 -1.18624 0
M  V30 7720 C 765.94 -0.171081 -1.95453 0
M  V30 7721 O 765.065 0.727156 -2.03817 0
M  V30 7722 C 765.66 -2.61193 -2.15786 0
M  V30 7723 C 764.219 -2.62918 -2.69353 0
M  V30 7724 C 763.366 -2.36479 -1.4482 0
M  V30 7725 H 766.317 -1.53747 -0.393381 0
M  V30 7726 H 766.338 -2.35481 -2.98879 0
M  V30 7727 H 765.85 -3.53656 -1.59841 0
M  V30 7728 H 763.951 -1.7447 -3.29228 0
M  V30 7729 H 764.064 -3.6224 -3.13559 0
M  V30 7730 H 762.428 -1.86103 -1.73891 0
M  V30 7731 H 763.211 -3.31091 -0.907376 0
M  V30 7732 N 765.656 0.84705 -1.32902 0
M  V30 7733 C 766.619 1.9378 -1.224 0
M  V30 7734 C 767.619 1.60144 -0.145108 0
M  V30 7735 O 768.809 1.69638 -0.396058 0
M  V30 7736 C 765.941 3.29234 -0.884174 0
M  V30 7737 H 767.134 2.04518 -2.19345 0
M  V30 7738 H 764.687 1.03816 -1.16842 0
M  V30 7739 H 765.422 3.24193 0.0831277 0
M  V30 7740 H 765.207 3.55026 -1.6643 0
M  V30 7741 H 766.697 4.09162 -0.835226 0
M  V30 7742 N 767.134 1.16236 1.06428 0
M  V30 7743 C 768.359 0.967688 1.83441 0
M  V30 7744 C 768.784 -0.479167 1.81894 0
M  V30 7745 O 768.142 -1.34224 1.21875 0
M  V30 7746 C 768.19 1.49806 3.2801 0
M  V30 7747 O 767.294 0.703481 4.06356 0
M  V30 7748 H 766.635 0.344468 0.56766 0
M  V30 7749 H 769.165 1.54442 1.34197 0
M  V30 7750 H 769.175 1.51495 3.78831 0
M  V30 7751 H 767.85 2.55133 3.2845 0
M  V30 7752 H 766.427 0.756986 3.65136 0
M  V30 7753 N 768.612 -1.24939 0.960631 0
M  V30 7754 C 769.544 -2.24879 0.442937 0
M  V30 7755 C 770.557 -1.56615 -0.444464 0
M  V30 7756 O 771.746 -1.76715 -0.251776 0
M  V30 7757 C 768.846 -3.36757 -0.380537 0
M  V30 7758 C 768.019 -4.34587 0.495283 0
M  V30 7759 C 767.078 -5.25502 -0.270995 0
M  V30 7760 O 766.104 -5.68227 0.332661 0
M  V30 7761 N 767.306 -5.59077 -1.56249 0
M  V30 7762 H 770.071 -2.69932 1.30218 0
M  V30 7763 H 767.632 -1.38907 0.83166 0
M  V30 7764 H 769.624 -3.94542 -0.90103 0
M  V30 7765 H 768.194 -2.91045 -1.14067 0
M  V30 7766 H 767.414 -3.75593 1.19682 0
M  V30 7767 H 768.702 -4.96925 1.09285 0
M  V30 7768 H 768.1 -5.2628 -2.07476 0
M  V30 7769 H 766.657 -6.19421 -2.02882 0
M  V30 7770 N 770.09 -0.729906 -1.39679 0
M  V30 7771 C 771.053 -0.0951668 -2.29002 0
M  V30 7772 C 772.053 0.672471 -1.46063 0
M  V30 7773 O 773.243 0.502245 -1.66803 0
M  V30 7774 C 770.375 0.874631 -3.29489 0
M  V30 7775 H 771.568 -0.882062 -2.86635 0
M  V30 7776 H 769.121 -0.495424 -1.4824 0
M  V30 7777 H 769.856 1.68807 -2.76902 0
M  V30 7778 H 769.641 0.326893 -3.90735 0
M  V30 7779 H 771.131 1.31548 -3.96339 0
M  V30 7780 N 771.568 1.50203 -0.477153 0
M  V30 7781 C 772.531 2.27194 0.302599 0
M  V30 7782 C 773.531 1.32221 0.915112 0
M  V30 7783 O 774.721 1.55593 0.783348 0
M  V30 7784 C 771.853 3.0938 1.43167 0
M  V30 7785 H 773.046 2.97575 -0.372678 0
M  V30 7786 H 770.599 1.54578 -0.231392 0
M  V30 7787 H 771.334 2.43509 2.14182 0
M  V30 7788 H 771.119 3.79181 0.998197 0
M  V30 7789 H 772.609 3.67592 1.98157 0
M  V30 7790 N 773.046 0.209999 1.56195 0
M  V30 7791 C 774.457 -0.299943 1.84275 0
M  V30 7792 C 774.808 -1.60314 1.1311 0
M  V30 7793 O 773.933 -2.1273 0.396874 0
M  V30 7794 C 774.528 -0.550986 3.3429 0
M  V30 7795 C 773.087 -1.00526 3.62728 0
M  V30 7796 C 772.234 -0.0619828 2.77231 0
M  V30 7797 H 775.185 0.433458 1.52666 0
M  V30 7798 H 775.206 -1.39846 3.53869 0
M  V30 7799 H 774.718 0.397669 3.86057 0
M  V30 7800 H 772.819 -1.96768 3.16407 0
M  V30 7801 H 772.932 -0.887664 4.70805 0
M  V30 7802 H 771.296 -0.566648 2.48317 0
M  V30 7803 H 772.079 0.881383 3.31793 0
M  V30 7804 N 774.524 -1.57472 -0.0634922 0
M  V30 7805 C 775.935 -1.76303 -0.614337 0
M  V30 7806 C 776.286 -0.836578 -1.77471 0
M  V30 7807 O 775.411 -0.0227184 -2.16388 0
M  V30 7808 C 776.006 -3.19709 -1.12122 0
M  V30 7809 C 774.565 -3.39856 -1.61786 0
M  V30 7810 C 773.712 -2.71975 -0.540845 0
M  V30 7811 H 776.663 -1.57864 0.162702 0
M  V30 7812 H 776.684 -3.24326 -1.98979 0
M  V30 7813 H 776.196 -3.87114 -0.276472 0
M  V30 7814 H 774.297 -2.77578 -2.48558 0
M  V30 7815 H 774.41 -4.48338 -1.68908 0
M  V30 7816 H 772.774 -2.34763 -0.987854 0
M  V30 7817 H 773.557 -3.4204 0.293856 0
M  V30 7818 N 776.003 0.335068 -1.53997 0
M  V30 7819 C 777.231 1.09418 -1.756 0
M  V30 7820 C 777.646 1.82083 -0.499138 0
M  V30 7821 O 777.003 1.74646 0.529631 0
M  V30 7822 C 777.054 2.10115 -2.94166 0
M  V30 7823 O 776.775 1.40404 -4.14992 0
M  V30 7824 C 778.276 2.98336 -3.27888 0
M  V30 7825 H 775.496 0.32595 -0.586513 0
M  V30 7826 H 778.04 0.384693 -2.00849 0
M  V30 7827 H 776.195 2.76616 -2.71224 0
M  V30 7828 H 776.609 2.07743 -4.81605 0
M  V30 7829 H 778.083 3.6491 -4.1418 0
M  V30 7830 H 778.56 3.64814 -2.44556 0
M  V30 7831 H 779.166 2.37412 -3.52868 0
M  V30 7832 N 777.481 1.45874 0.596531 0
M  V30 7833 C 778.413 1.51408 1.7207 0
M  V30 7834 C 779.426 0.403738 1.57714 0
M  V30 7835 O 780.615 0.671384 1.65393 0
M  V30 7836 C 777.715 1.3652 3.10186 0
M  V30 7837 C 776.888 2.61428 3.50677 0
M  V30 7838 C 775.947 2.40937 4.67799 0
M  V30 7839 O 774.973 3.14602 4.74357 0
M  V30 7840 N 776.175 1.4621 5.61785 0
M  V30 7841 H 778.94 2.48333 1.67782 0
M  V30 7842 H 776.501 1.41755 0.782129 0
M  V30 7843 H 778.493 1.20606 3.86311 0
M  V30 7844 H 777.063 0.478302 3.08919 0
M  V30 7845 H 776.283 2.92381 2.644 0
M  V30 7846 H 777.571 3.44432 3.74491 0
M  V30 7847 H 776.969 0.854382 5.59211 0
M  V30 7848 H 775.526 1.36264 6.37397 0
M  V30 7849 N 778.959 -0.83999 1.33349 0
M  V30 7850 C 780.207 -1.59202 1.24496 0
M  V30 7851 C 780.528 -1.94077 -0.189499 0
M  V30 7852 O 779.798 -1.60868 -1.11796 0
M  V30 7853 H 778.378 -0.590276 0.457802 0
M  V30 7854 H 781.04 -1.00394 1.67054 0
M  V30 7855 H 780.136 -2.52247 1.83788 0
M  V30 7856 N 780.437 -1.16799 -1.0581 0
M  V30 7857 C 781.369 -0.836774 -2.13379 0
M  V30 7858 C 782.382 0.158116 -1.6203 0
M  V30 7859 O 783.571 -0.0673211 -1.78373 0
M  V30 7860 C 780.671 -0.225959 -3.38146 0
M  V30 7861 C 779.844 -1.26217 -4.18794 0
M  V30 7862 C 778.903 -0.670257 -5.21914 0
M  V30 7863 O 777.929 -1.34042 -5.53192 0
M  V30 7864 N 779.131 0.540683 -5.77977 0
M  V30 7865 H 781.896 -1.76257 -2.42391 0
M  V30 7866 H 779.457 -1.06599 -1.21853 0
M  V30 7867 H 781.449 0.18317 -4.04285 0
M  V30 7868 H 780.019 0.603494 -3.06719 0
M  V30 7869 H 779.239 -1.84729 -3.48237 0
M  V30 7870 H 780.527 -1.9613 -4.69479 0
M  V30 7871 H 779.925 1.10322 -5.54838 0
M  V30 7872 H 778.482 0.891958 -6.45668 0
M  V30 7873 N 781.915 1.24427 -0.967243 0
M  V30 7874 C 783.163 1.92107 -0.627638 0
M  V30 7875 C 783.484 1.75991 0.83978 0
M  V30 7876 O 782.754 1.13118 1.59941 0
M  V30 7877 H 781.334 0.710986 -0.229145 0
M  V30 7878 H 783.996 1.51331 -1.22821 0
M  V30 7879 H 783.092 2.99791 -0.867844 0
M  V30 7880 N 783.393 0.737304 1.3929 0
M  V30 7881 C 784.809 0.413132 1.5416 0
M  V30 7882 C 785.009 -1.07574 1.70382 0
M  V30 7883 O 784.065 -1.86185 1.70562 0
M  V30 7884 C 785.378 1.19817 2.75798 0
M  V30 7885 C 786.926 1.18662 2.89635 0
M  V30 7886 C 787.401 1.95427 4.14213 0
M  V30 7887 N 788.892 1.92605 4.21257 0
M  V30 7888 C 789.627 2.48808 5.16606 0
M  V30 7889 N 789.123 3.13659 6.1773 0
M  V30 7890 N 790.916 2.38829 5.08839 0
M  V30 7891 H 783.067 1.70243 1.27008 0
M  V30 7892 H 785.33 0.720802 0.61575 0
M  V30 7893 H 785.036 2.25179 2.70161 0
M  V30 7894 H 784.91 0.804144 3.68529 0
M  V30 7895 H 787.297 0.141112 2.94762 0
M  V30 7896 H 787.378 1.62003 1.97961 0
M  V30 7897 H 787.022 2.9998 4.09847 0
M  V30 7898 H 786.952 1.4949 5.04936 0
M  V30 7899 H 789.443 1.45362 3.48824 0
M  V30 7900 H 789.756 3.54006 6.8695 0
M  V30 7901 H 788.101 3.17749 6.1811 0
M  V30 7902 H 791.292 1.87806 4.28773 0
M  V30 7903 H 791.465 2.82929 5.82971 0
M  V30 7904 N 784.871 -1.49948 0.485112 0
M  V30 7905 C 785.803 -2.26691 -0.338222 0
M  V30 7906 C 786.816 -1.32584 -0.944742 0
M  V30 7907 O 788.005 -1.57989 -0.830772 0
M  V30 7908 C 785.105 -3.04405 -1.48966 0
M  V30 7909 C 784.278 -4.25971 -0.993371 0
M  V30 7910 C 783.337 -4.85861 -2.02052 0
M  V30 7911 O 782.363 -5.46382 -1.59547 0
M  V30 7912 N 783.565 -4.74101 -3.34975 0
M  V30 7913 H 786.33 -2.97989 0.319748 0
M  V30 7914 H 783.891 -1.58772 0.316714 0
M  V30 7915 H 785.883 -3.41348 -2.17403 0
M  V30 7916 H 784.453 -2.35815 -2.05207 0
M  V30 7917 H 783.673 -3.93971 -0.134424 0
M  V30 7918 H 784.961 -5.0476 -0.639934 0
M  V30 7919 H 784.359 -4.26002 -3.72208 0
M  V30 7920 H 782.916 -5.15274 -3.9917 0
M  V30 7921 N 786.349 -0.21828 -1.56081 0
M  V30 7922 C 787.574 0.422302 -2.03055 0
M  V30 7923 C 787.999 1.5279 -1.09713 0
M  V30 7924 O 787.357 1.81102 -0.0847187 0
M  V30 7925 C 787.405 0.934177 -3.48289 0
M  V30 7926 O 786.509 2.04574 -3.58083 0
M  V30 7927 H 785.85 0.0959764 -0.657027 0
M  V30 7928 H 788.38 -0.335958 -2.01823 0
M  V30 7929 H 788.39 1.24484 -3.88546 0
M  V30 7930 H 787.065 0.124963 -4.15712 0
M  V30 7931 H 785.642 1.74196 -3.29712 0
M  V30 7932 N 787.827 1.57504 0.0551401 0
M  V30 7933 C 789.243 1.54236 0.410292 0
M  V30 7934 C 789.443 0.940839 1.78187 0
M  V30 7935 O 788.499 0.550541 2.46425 0
M  V30 7936 C 789.812 2.98816 0.336064 0
M  V30 7937 C 791.36 3.10236 0.415047 0
M  V30 7938 C 791.835 4.56499 0.37055 0
M  V30 7939 N 793.326 4.61199 0.43013 0
M  V30 7940 C 794.061 5.71873 0.418179 0
M  V30 7941 N 793.557 6.91864 0.360056 0
M  V30 7942 N 795.35 5.60165 0.465977 0
M  V30 7943 H 787.501 1.94965 -0.842759 0
M  V30 7944 H 789.764 0.893096 -0.317937 0
M  V30 7945 H 789.47 3.4645 -0.605429 0
M  V30 7946 H 789.344 3.59564 1.13988 0
M  V30 7947 H 791.731 2.62566 1.34697 0
M  V30 7948 H 791.812 2.52367 -0.417648 0
M  V30 7949 H 791.456 5.0483 -0.557592 0
M  V30 7950 H 791.386 5.12249 1.221 0
M  V30 7951 H 793.877 3.74857 0.478623 0
M  V30 7952 H 794.19 7.71983 0.35532 0
M  V30 7953 H 792.535 6.94233 0.326492 0
M  V30 7954 H 795.726 4.65322 0.509194 0
M  V30 7955 H 795.899 6.46413 0.453194 0
M  V30 7956 N 789.305 -0.326896 1.54172 0
M  V30 7957 C 790.716 -0.901533 1.63491 0
M  V30 7958 C 791.067 -1.88994 0.52684 0
M  V30 7959 O 790.192 -2.137 -0.340794 0
M  V30 7960 C 790.787 -1.64192 2.96355 0
M  V30 7961 C 789.346 -2.16533 3.07881 0
M  V30 7962 C 788.493 -0.98966 2.59039 0
M  V30 7963 H 791.444 -0.104568 1.58355 0
M  V30 7964 H 791.465 -2.50592 2.86328 0
M  V30 7965 H 790.977 -0.922291 3.76982 0
M  V30 7966 H 789.078 -2.91622 2.31922 0
M  V30 7967 H 789.191 -2.41762 4.13628 0
M  V30 7968 H 787.555 -1.36787 2.14852 0
M  V30 7969 H 788.338 -0.284401 3.4212 0
M  V30 7970 N 790.784 -1.46188 -0.588786 0
M  V30 7971 C 792.03 -1.51407 -1.34921 0
M  V30 7972 C 792.363 -0.162771 -1.93517 0
M  V30 7973 O 791.638 0.825082 -1.76132 0
M  V30 7974 C 791.921 -2.60795 -2.48311 0
M  V30 7975 C 791.774 -4.05435 -1.94789 0
M  V30 7976 C 793.093 -2.66313 -3.50379 0
M  V30 7977 H 790.212 -0.551213 -0.489217 0
M  V30 7978 H 792.854 -1.78095 -0.661993 0
M  V30 7979 H 791.004 -2.3817 -3.06932 0
M  V30 7980 H 792.676 -4.39328 -1.40672 0
M  V30 7981 H 790.919 -4.15202 -1.25659 0
M  V30 7982 H 791.59 -4.77691 -2.76613 0
M  V30 7983 H 794.066 -2.86634 -3.01629 0
M  V30 7984 H 792.942 -3.44681 -4.27184 0
M  V30 7985 H 793.203 -1.72127 -4.07216 0
M  V30 7986 N 792.262 0.832906 -1.33792 0
M  V30 7987 C 793.225 1.92471 -1.24449 0
M  V30 7988 C 794.225 1.59981 -0.162085 0
M  V30 7989 O 795.415 1.69208 -0.414029 0
M  V30 7990 C 792.547 3.28278 -0.919044 0
M  V30 7991 H 793.74 2.0218 -2.21502 0
M  V30 7992 H 791.293 1.0257 -1.17936 0
M  V30 7993 H 792.028 3.24263 0.048738 0
M  V30 7994 H 791.813 3.53241 -1.70187 0
M  V30 7995 H 793.303 4.08253 -0.878576 0
M  V30 7996 N 793.74 1.17359 1.05189 0
M  V30 7997 C 794.988 0.960087 1.77839 0
M  V30 7998 C 795.309 -0.512554 1.88143 0
M  V30 7999 O 794.579 -1.3721 1.39822 0
M  V30 8000 H 793.159 0.352234 0.658741 0
M  V30 8001 H 795.821 1.47834 1.27008 0
M  V30 8002 H 794.917 1.38843 2.79516 0
M  V30 8003 N 795.218 -1.23913 0.973828 0
M  V30 8004 C 796.466 -1.91771 0.637817 0
M  V30 8005 C 796.787 -1.76434 -0.830435 0
M  V30 8006 O 796.057 -1.13965 -1.59339 0
M  V30 8007 H 794.637 -0.709761 0.232912 0
M  V30 8008 H 797.299 -1.50677 1.23622 0
M  V30 8009 H 796.395 -2.99327 0.883731 0
M  V30 8010 N 796.696 -0.74468 -1.38897 0
M  V30 8011 C 798.107 -0.36568 -1.83084 0
M  V30 8012 C 798.458 1.10436 -1.62168 0
M  V30 8013 O 797.583 1.85281 -1.11804 0
M  V30 8014 C 798.178 -0.656946 -3.3237 0
M  V30 8015 C 796.737 -0.331329 -3.74939 0
M  V30 8016 C 795.884 -0.914661 -2.61781 0
M  V30 8017 H 798.835 -0.941551 -1.27752 0
M  V30 8018 H 798.856 0.0679546 -3.80439 0
M  V30 8019 H 798.368 -1.72693 -3.47561 0
M  V30 8020 H 796.469 0.732426 -3.6533 0
M  V30 8021 H 796.582 -0.820655 -4.72019 0
M  V30 8022 H 794.946 -0.34063 -2.52412 0
M  V30 8023 H 795.729 -1.98949 -2.79775 0
M  V30 8024 N 798.174 1.49689 -0.493057 0
M  V30 8025 C 799.422 2.02027 0.0541642 0
M  V30 8026 C 799.743 1.37554 1.38217 0
M  V30 8027 O 799.013 0.528174 1.88646 0
M  V30 8028 H 797.593 0.746646 0.0230069 0
M  V30 8029 H 800.255 1.83795 -0.648489 0
M  V30 8030 H 799.351 3.11523 0.189652 0
M  V30 8031 N 799.652 0.226554 1.55963 0
M  V30 8032 C 800.615 -0.668015 2.19249 0
M  V30 8033 C 801.615 -1.11794 1.1558 0
M  V30 8034 O 802.805 -1.02593 1.40784 0
M  V30 8035 C 799.937 -1.91571 2.81981 0
M  V30 8036 H 801.13 -0.116175 2.99675 0
M  V30 8037 H 798.683 -0.0230497 1.56283 0
M  V30 8038 H 799.418 -2.50929 2.05439 0
M  V30 8039 H 799.203 -1.6015 3.57903 0
M  V30 8040 H 800.693 -2.55294 3.30477 0
M  V30 8041 N 801.13 -1.57531 -0.0467866 0
M  V30 8042 C 802.541 -1.76945 -0.595603 0
M  V30 8043 C 802.892 -0.855354 -1.76573 0
M  V30 8044 O 802.017 -0.045668 -2.16352 0
M  V30 8045 C 802.612 -3.20881 -1.08725 0
M  V30 8046 C 801.171 -3.41553 -1.58172 0
M  V30 8047 C 800.318 -2.72533 -0.511968 0
M  V30 8048 H 803.269 -1.57682 0.179436 0
M  V30 8049 H 803.29 -3.26419 -1.95528 0
M  V30 8050 H 802.802 -3.87385 -0.235398 0
M  V30 8051 H 800.903 -2.80199 -2.456 0
M  V30 8052 H 801.016 -4.50104 -1.64143 0
M  V30 8053 H 799.38 -2.35797 -0.962899 0
M  V30 8054 H 800.163 -3.41709 0.330117 0
M  V30 8055 N 802.608 0.318715 -1.54344 0
M  V30 8056 C 804.019 0.89285 -1.63967 0
M  V30 8057 C 804.37 1.88712 -0.536855 0
M  V30 8058 O 803.495 2.13877 0.329457 0
M  V30 8059 C 804.09 1.62618 -2.97222 0
M  V30 8060 C 802.649 2.14897 -3.09025 0
M  V30 8061 C 801.796 0.975909 -2.5956 0
M  V30 8062 H 804.747 0.0961687 -1.58408 0
M  V30 8063 H 804.768 2.4907 -2.87653 0
M  V30 8064 H 804.28 0.902286 -3.77466 0
M  V30 8065 H 802.381 2.90387 -2.33465 0
M  V30 8066 H 802.494 2.39565 -4.14904 0
M  V30 8067 H 800.858 1.35646 -2.15574 0
M  V30 8068 H 801.641 0.266253 -3.42266 0
M  V30 8069 N 804.086 1.46499 0.581025 0
M  V30 8070 C 805.049 1.5677 1.672 0
M  V30 8071 C 806.049 0.444716 1.54528 0
M  V30 8072 O 807.239 0.709074 1.59116 0
M  V30 8073 C 804.371 1.4896 3.06633 0
M  V30 8074 H 805.564 2.54 1.5945 0
M  V30 8075 H 803.117 1.34334 0.799003 0
M  V30 8076 H 803.852 0.530168 3.19937 0
M  V30 8077 H 803.637 2.30439 3.17239 0
M  V30 8078 H 805.127 1.59237 3.86048 0
M  V30 8079 N 805.565 -0.825799 1.34232 0
M  V30 8080 C 806.528 -1.91808 1.25468 0
M  V30 8081 C 807.528 -1.59893 0.170567 0
M  V30 8082 O 808.718 -1.68986 0.422996 0
M  V30 8083 C 805.85 -3.27786 0.93644 0
M  V30 8084 H 807.043 -2.01003 2.22571 0
M  V30 8085 H 804.596 -1.01944 1.18479 0
M  V30 8086 H 805.331 -3.24285 -0.0315408 0
M  V30 8087 H 805.116 -3.52333 1.72057 0
M  V30 8088 H 806.606 -4.07782 0.900214 0
M  V30 8089 N 807.043 -1.17915 -1.04565 0
M  V30 8090 C 808.459 -0.927761 -1.29864 0
M  V30 8091 C 808.659 0.409536 -1.97294 0
M  V30 8092 O 807.715 1.14505 -2.25044 0
M  V30 8093 C 809.028 -2.08967 -2.16225 0
M  V30 8094 C 810.576 -2.12741 -2.29587 0
M  V30 8095 C 811.051 -3.28335 -3.19312 0
M  V30 8096 N 812.542 -3.28164 -3.26898 0
M  V30 8097 C 813.277 -4.14249 -3.96466 0
M  V30 8098 N 812.773 -5.10457 -4.68407 0
M  V30 8099 N 814.566 -4.02179 -3.92694 0
M  V30 8100 H 806.717 -2.03983 -0.592011 0
M  V30 8101 H 808.98 -0.891023 -0.323701 0
M  V30 8102 H 808.686 -3.05654 -1.73979 0
M  V30 8103 H 808.56 -2.04606 -3.16885 0
M  V30 8104 H 810.947 -1.16636 -2.71072 0
M  V30 8105 H 811.028 -2.21162 -1.28535 0
M  V30 8106 H 810.672 -4.2471 -2.78539 0
M  V30 8107 H 810.602 -3.17151 -4.20384 0
M  V30 8108 H 813.093 -2.58511 -2.75646 0
M  V30 8109 H 813.406 -5.72526 -5.1907 0
M  V30 8110 H 811.751 -5.14422 -4.67328 0
M  V30 8111 H 814.942 -3.26308 -3.3562 0
M  V30 8112 H 815.115 -4.69486 -4.4664 0
M  V30 8113 N 808.521 1.23394 -0.980386 0
M  V30 8114 C 809.932 1.73631 -0.686239 0
M  V30 8115 C 810.283 1.79259 0.797541 0
M  V30 8116 O 809.408 1.43046 1.62379 0
M  V30 8117 C 810.003 3.15332 -1.239 0
M  V30 8118 C 808.562 3.63024 -0.994494 0
M  V30 8119 C 807.709 2.41279 -1.36673 0
M  V30 8120 H 810.66 1.08918 -1.15423 0
M  V30 8121 H 810.681 3.75556 -0.611414 0
M  V30 8122 H 810.193 3.11204 -2.31892 0
M  V30 8123 H 808.294 3.72535 0.0693492 0
M  V30 8124 H 808.407 4.49825 -1.64906 0
M  V30 8125 H 806.771 2.42295 -0.785195 0
M  V30 8126 H 807.554 2.39822 -2.45642 0
M  V30 8127 N 809.999 0.752036 1.385 0
M  V30 8128 C 811.41 0.375385 1.82887 0
M  V30 8129 C 811.761 -1.09575 1.62751 0
M  V30 8130 O 810.886 -1.84685 1.12785 0
M  V30 8131 C 811.481 0.674563 3.32017 0
M  V30 8132 C 810.04 0.351208 3.74758 0
M  V30 8133 C 809.187 0.928531 2.61292 0
M  V30 8134 H 812.138 0.948313 1.27251 0
M  V30 8135 H 812.159 -0.0477781 3.8047 0
M  V30 8136 H 811.671 1.74533 3.46641 0
M  V30 8137 H 809.772 -0.713042 3.65714 0
M  V30 8138 H 809.885 0.845675 4.71577 0
M  V30 8139 H 808.249 0.354012 2.52228 0
M  V30 8140 H 809.032 2.0043 2.78716 0
M  V30 8141 N 811.477 -1.49425 0.500989 0
M  V30 8142 C 812.44 -2.27646 -0.266416 0
M  V30 8143 C 813.44 -1.3366 -0.893961 0
M  V30 8144 O 814.63 -1.5682 -0.758495 0
M  V30 8145 C 811.762 -3.11618 -1.38227 0
M  V30 8146 H 812.955 -2.96945 0.419973 0
M  V30 8147 H 810.508 -1.5419 0.255954 0
M  V30 8148 H 811.243 -2.46885 -2.10281 0
M  V30 8149 H 811.028 -3.80721 -0.937746 0
M  V30 8150 H 812.518 -3.70698 -1.92283 0
M  V30 8151 N 812.955 -0.234822 -1.55841 0
M  V30 8152 C 814.18 0.400741 -2.03492 0
M  V30 8153 C 814.605 1.51618 -1.11327 0
M  V30 8154 O 813.963 1.81002 -0.103922 0
M  V30 8155 C 814.011 0.897184 -3.49261 0
M  V30 8156 O 813.115 2.00764 -3.60233 0
M  V30 8157 H 812.456 0.0890023 -0.658008 0
M  V30 8158 H 814.986 -0.357345 -2.01455 0
M  V30 8159 H 814.996 1.20356 -3.89844 0
M  V30 8160 H 813.671 0.0808639 -4.15821 0
M  V30 8161 H 812.248 1.70689 -3.31541 0
M  V30 8162 N 814.433 1.57553 0.0384317 0
M  V30 8163 C 815.844 1.77258 0.586211 0
M  V30 8164 C 816.195 0.864706 1.76117 0
M  V30 8165 O 815.32 0.057141 2.16325 0
M  V30 8166 C 815.915 3.21453 1.07021 0
M  V30 8167 C 814.474 3.42387 1.56358 0
M  V30 8168 C 813.621 2.72801 0.497508 0
M  V30 8169 H 816.572 1.57585 -0.187796 0
M  V30 8170 H 816.593 3.27451 1.93794 0
M  V30 8171 H 816.105 3.87505 0.214851 0
M  V30 8172 H 814.206 2.81497 2.44111 0
M  V30 8173 H 814.319 4.50968 1.61754 0
M  V30 8174 H 812.683 2.36305 0.95038 0
M  V30 8175 H 813.466 3.41529 -0.348234 0
M  V30 8176 N 815.911 -0.310526 1.54511 0
M  V30 8177 C 817.136 -1.07046 1.7764 0
M  V30 8178 C 817.561 -1.80488 0.529696 0
M  V30 8179 O 816.919 -1.73702 -0.519361 0
M  V30 8180 C 816.967 -2.03411 2.97752 0
M  V30 8181 O 816.071 -3.11545 2.7021 0
M  V30 8182 H 815.412 -0.307994 0.588248 0
M  V30 8183 H 817.942 -0.350848 2.01569 0
M  V30 8184 H 817.952 -2.46048 3.2546 0
M  V30 8185 H 816.627 -1.49361 3.88155 0
M  V30 8186 H 815.204 -2.7349 2.53491 0
M  V30 8187 N 817.389 -1.46805 -0.573248 0
M  V30 8188 C 818.8 -1.46655 -1.15539 0
M  V30 8189 C 819.151 -0.2125 -1.95046 0
M  V30 8190 O 818.276 0.683759 -2.05314 0
M  V30 8191 C 818.871 -2.65711 -2.10198 0
M  V30 8192 C 817.43 -2.68572 -2.63716 0
M  V30 8193 C 816.577 -2.39498 -1.39772 0
M  V30 8194 H 819.528 -1.54547 -0.36068 0
M  V30 8195 H 819.549 -2.41768 -2.93817 0
M  V30 8196 H 819.061 -3.56967 -1.52303 0
M  V30 8197 H 817.162 -1.81414 -3.25453 0
M  V30 8198 H 817.275 -3.68809 -3.05805 0
M  V30 8199 H 815.639 -1.89749 -1.69904 0
M  V30 8200 H 816.422 -3.32942 -0.836943 0
M  V30 8201 N 818.867 0.818669 -1.34668 0
M  V30 8202 C 819.799 1.93754 -1.22442 0
M  V30 8203 C 820.812 1.62103 -0.150501 0
M  V30 8204 O 822.001 1.73898 -0.402728 0
M  V30 8205 C 819.101 3.27806 -0.860031 0
M  V30 8206 C 818.274 3.8745 -2.02981 0
M  V30 8207 C 817.333 4.99887 -1.64314 0
M  V30 8208 O 816.359 5.17957 -2.36029 0
M  V30 8209 N 817.561 5.77795 -0.55976 0
M  V30 8210 H 820.326 2.04773 -2.18833 0
M  V30 8211 H 817.887 0.995472 -1.27679 0
M  V30 8212 H 819.879 4.00478 -0.583068 0
M  V30 8213 H 818.449 3.12597 0.0138253 0
M  V30 8214 H 817.669 3.07119 -2.47127 0
M  V30 8215 H 818.957 4.2403 -2.81204 0
M  V30 8216 H 818.355 5.65688 0.0363329 0
M  V30 8217 H 816.912 6.50899 -0.342541 0
M  V30 8218 N 820.346 1.18468 1.03938 0
M  V30 8219 C 821.762 0.934635 1.29371 0
M  V30 8220 C 821.962 -0.399067 1.97509 0
M  V30 8221 O 821.018 -1.13309 2.25648 0
M  V30 8222 C 822.331 2.10111 2.15114 0
M  V30 8223 C 823.879 2.13955 2.28456 0
M  V30 8224 C 824.354 3.30024 3.17566 0
M  V30 8225 N 825.845 3.29893 3.25153 0
M  V30 8226 C 826.58 4.16346 3.94263 0
M  V30 8227 N 826.076 5.12934 4.65693 0
M  V30 8228 N 827.869 4.04256 3.90556 0
M  V30 8229 H 820.02 2.04294 0.581185 0
M  V30 8230 H 822.283 0.892727 0.318971 0
M  V30 8231 H 821.989 3.06572 1.72355 0
M  V30 8232 H 821.863 2.06283 3.15796 0
M  V30 8233 H 824.25 1.18072 2.7045 0
M  V30 8234 H 824.331 2.2184 1.2736 0
M  V30 8235 H 823.975 4.26181 2.76283 0
M  V30 8236 H 823.905 3.19376 4.18697 0
M  V30 8237 H 826.396 2.59969 2.74271 0
M  V30 8238 H 826.709 5.75271 5.16026 0
M  V30 8239 H 825.054 5.16893 4.64593 0
M  V30 8240 H 828.245 3.28083 3.33885 0
M  V30 8241 H 828.418 4.71848 4.44144 0
M  V30 8242 N 821.824 -1.22873 0.986916 0
M  V30 8243 C 822.756 -2.23889 0.490537 0
M  V30 8244 C 823.769 -1.57523 -0.411144 0
M  V30 8245 O 824.958 -1.7721 -0.214236 0
M  V30 8246 C 822.058 -3.37488 -0.30902 0
M  V30 8247 C 821.231 -4.33438 0.587354 0
M  V30 8248 C 820.29 -5.25958 -0.159467 0
M  V30 8249 O 819.316 -5.67394 0.453115 0
M  V30 8250 N 820.518 -5.62265 -1.44355 0
M  V30 8251 H 823.283 -2.67109 1.35914 0
M  V30 8252 H 820.844 -1.37111 0.860937 0
M  V30 8253 H 822.836 -3.96365 -0.817139 0
M  V30 8254 H 821.406 -2.934 -1.07868 0
M  V30 8255 H 820.626 -3.72969 1.27622 0
M  V30 8256 H 821.914 -4.94495 1.19801 0
M  V30 8257 H 821.312 -5.30562 -1.96266 0
M  V30 8258 H 819.869 -6.23585 -1.89698 0
M  V30 8259 N 823.302 -0.75937 -1.38099 0
M  V30 8260 C 824.265 -0.14372 -2.28749 0
M  V30 8261 C 825.265 0.641338 -1.47457 0
M  V30 8262 O 826.455 0.466751 -1.67831 0
M  V30 8263 C 823.587 0.804545 -3.3127 0
M  V30 8264 H 824.78 -0.942663 -2.847 0
M  V30 8265 H 822.333 -0.526757 -1.47156 0
M  V30 8266 H 823.068 1.62895 -2.80421 0
M  V30 8267 H 822.853 0.243939 -3.9134 0
M  V30 8268 H 824.343 1.23111 -3.99041 0
M  V30 8269 N 824.78 1.49157 -0.508906 0
M  V30 8270 C 826.028 2.02073 0.0327335 0
M  V30 8271 C 826.349 1.39012 1.3675 0
M  V30 8272 O 825.619 0.548153 1.88075 0
M  V30 8273 H 824.199 0.746848 0.0150864 0
M  V30 8274 H 826.861 1.83097 -0.667946 0
M  V30 8275 H 825.957 3.11707 0.1566 0
M  V30 8276 N 826.258 0.243083 1.55714 0
M  V30 8277 C 827.669 -0.260788 1.8487 0
M  V30 8278 C 828.02 -1.57879 1.16485 0
M  V30 8279 O 827.145 -2.1184 0.441908 0
M  V30 8280 C 827.74 -0.479954 3.35383 0
M  V30 8281 C 826.299 -0.928096 3.64778 0
M  V30 8282 C 825.446 -0.00316416 2.773 0
M  V30 8283 H 828.397 0.465743 1.51712 0
M  V30 8284 H 828.418 -1.32308 3.56756 0
M  V30 8285 H 827.93 0.479468 3.85127 0
M  V30 8286 H 826.031 -1.90012 3.20509 0
M  V30 8287 H 826.144 -0.7876 4.72582 0
M  V30 8288 H 824.508 -0.513849 2.49463 0
M  V30 8289 H 825.291 0.951562 3.29849 0
M  V30 8290 N 827.736 -1.57571 -0.0300757 0
M  V30 8291 C 829.147 -1.77567 -0.576802 0
M  V30 8292 C 829.498 -0.874034 -1.75656 0
M  V30 8293 O 828.623 -0.0686124 -2.16291 0
M  V30 8294 C 829.218 -3.22016 -1.05315 0
M  V30 8295 C 827.777 -3.43212 -1.5454 0
M  V30 8296 C 826.924 -2.73061 -0.483033 0
M  V30 8297 H 829.875 -1.57483 0.196151 0
M  V30 8298 H 829.896 -3.28474 -1.92055 0
M  V30 8299 H 829.408 -3.87613 -0.194298 0
M  V30 8300 H 827.509 -2.82788 -2.42615 0
M  V30 8301 H 827.622 -4.5182 -1.5936 0
M  V30 8302 H 825.986 -2.36805 -0.937835 0
M  V30 8303 H 826.769 -3.4134 0.366341 0
M  V30 8304 N 829.214 0.302327 -1.54673 0
M  V30 8305 C 830.146 1.39443 -1.81902 0
M  V30 8306 C 831.159 1.46891 -0.701914 0
M  V30 8307 O 832.348 1.49233 -0.979369 0
M  V30 8308 C 829.448 2.77824 -1.9408 0
M  V30 8309 C 828.621 2.93324 -3.24468 0
M  V30 8310 C 827.68 4.12196 -3.27079 0
M  V30 8311 O 826.706 4.04344 -4.00617 0
M  V30 8312 N 827.908 5.22768 -2.52376 0
M  V30 8313 H 830.673 1.1644 -2.76155 0
M  V30 8314 H 828.234 0.492392 -1.54231 0
M  V30 8315 H 830.226 3.5559 -1.9323 0
M  V30 8316 H 828.796 2.9378 -1.06828 0
M  V30 8317 H 828.016 2.02682 -3.38103 0
M  V30 8318 H 829.304 3.0059 -4.10516 0
M  V30 8319 H 828.702 5.32027 -1.92259 0
M  V30 8320 H 827.259 5.98874 -2.57281 0
M  V30 8321 N 830.692 1.47107 0.565454 0
M  V30 8322 C 831.655 1.58535 1.65527 0
M  V30 8323 C 832.655 0.461081 1.54048 0
M  V30 8324 O 833.845 0.725911 1.58355 0
M  V30 8325 C 830.977 1.52204 3.05036 0
M  V30 8326 H 832.17 2.55676 1.56747 0
M  V30 8327 H 829.723 1.35174 0.78471 0
M  V30 8328 H 830.458 0.564071 3.19357 0
M  V30 8329 H 830.243 2.3379 3.14777 0
M  V30 8330 H 831.733 1.63322 3.84338 0
M  V30 8331 N 832.17 -0.811516 1.35101 0
M  V30 8332 C 833.398 -1.59981 1.31201 0
M  V30 8333 C 833.813 -1.8847 -0.111552 0
M  V30 8334 O 833.17 -1.48414 -1.06205 0
M  V30 8335 C 833.221 -2.934 2.11184 0
M  V30 8336 O 832.942 -2.66148 3.4799 0
M  V30 8337 C 834.443 -3.87776 2.14813 0
M  V30 8338 H 831.663 -0.496921 0.450899 0
M  V30 8339 H 834.207 -1.00886 1.77883 0
M  V30 8340 H 832.362 -3.49022 1.68115 0
M  V30 8341 H 832.776 -3.51301 3.89471 0
M  V30 8342 H 834.25 -4.7852 2.75178 0
M  V30 8343 H 834.727 -4.23997 1.14556 0
M  V30 8344 H 835.333 -3.3809 2.58022 0
M  V30 8345 N 833.648 -1.19017 -1.03309 0
M  V30 8346 C 835.064 -0.941483 -1.28873 0
M  V30 8347 C 835.264 0.388587 -1.97718 0
M  V30 8348 O 834.32 1.12111 -2.26246 0
M  V30 8349 C 835.633 -2.11249 -2.13996 0
M  V30 8350 C 837.181 -2.15164 -2.27318 0
M  V30 8351 C 837.656 -3.31704 -3.15811 0
M  V30 8352 N 839.147 -3.31613 -3.23399 0
M  V30 8353 C 839.882 -4.18431 -3.9205 0
M  V30 8354 N 839.378 -5.15397 -4.62966 0
M  V30 8355 N 841.171 -4.06321 -3.88406 0
M  V30 8356 H 833.322 -2.04599 -0.570343 0
M  V30 8357 H 835.585 -0.894406 -0.314232 0
M  V30 8358 H 835.291 -3.07482 -1.70727 0
M  V30 8359 H 835.165 -2.07955 -3.14697 0
M  V30 8360 H 837.552 -1.19504 -2.6982 0
M  V30 8361 H 837.633 -2.22513 -1.26182 0
M  V30 8362 H 837.277 -4.2764 -2.74019 0
M  V30 8363 H 837.207 -3.21592 -4.16997 0
M  V30 8364 H 839.698 -2.6142 -2.72888 0
M  V30 8365 H 840.011 -5.78 -5.12968 0
M  V30 8366 H 838.356 -5.19349 -4.61846 0
M  V30 8367 H 841.547 -3.29849 -3.3214 0
M  V30 8368 H 841.72 -4.74196 -4.41635 0
M  V30 8369 N 835.127 1.22348 -0.993418 0
M  V30 8370 C 836.059 2.23626 -0.502404 0
M  V30 8371 C 837.072 1.57739 0.402784 0
M  V30 8372 O 838.261 1.77321 0.204835 0
M  V30 8373 C 835.361 3.37647 0.291118 0
M  V30 8374 C 834.534 4.33121 -0.610332 0
M  V30 8375 C 833.593 5.26035 0.131572 0
M  V30 8376 O 832.619 5.67145 -0.483199 0
M  V30 8377 N 833.821 5.63023 1.41371 0
M  V30 8378 H 836.586 2.66385 -1.37329 0
M  V30 8379 H 834.147 1.36653 -0.868196 0
M  V30 8380 H 836.139 3.96792 0.796107 0
M  V30 8381 H 834.709 2.93967 1.0631 0
M  V30 8382 H 833.929 3.72287 -1.29598 0
M  V30 8383 H 835.217 4.93853 -1.22422 0
M  V30 8384 H 834.615 5.31596 1.93449 0
M  V30 8385 H 833.172 6.24582 1.86388 0
M  V30 8386 N 836.605 0.766683 1.37694 0
M  V30 8387 C 837.833 0.339939 2.04088 0
M  V30 8388 C 838.248 -1.03617 1.57826 0
M  V30 8389 O 837.605 -1.6605 0.757214 0
M  V30 8390 C 837.656 0.368269 3.59619 0
M  V30 8391 O 837.377 1.69009 4.04188 0
M  V30 8392 C 838.878 -0.0707053 4.43244 0
M  V30 8393 H 836.098 0.143189 0.655544 0
M  V30 8394 H 838.642 1.03919 1.76128 0
M  V30 8395 H 836.797 -0.282359 3.8637 0
M  V30 8396 H 837.211 1.62523 4.98685 0
M  V30 8397 H 838.685 0.000273538 5.52 0
M  V30 8398 H 839.162 -1.1204 4.24669 0
M  V30 8399 H 839.768 0.551543 4.21709 0
M  V30 8400 N 838.083 -1.48885 0.516809 0
M  V30 8401 C 839.308 -2.0739 -0.0205201 0
M  V30 8402 C 839.733 -1.37259 -1.28614 0
M  V30 8403 O 839.091 -0.434304 -1.76021 0
M  V30 8404 C 839.139 -3.59793 -0.24104 0
M  V30 8405 O 838.243 -3.90957 -1.31251 0
M  V30 8406 H 837.584 -0.663167 0.0332564 0
M  V30 8407 H 840.114 -1.91477 0.720956 0
M  V30 8408 H 840.124 -4.0531 -0.467737 0
M  V30 8409 H 838.799 -4.10244 0.68356 0
M  V30 8410 H 837.376 -3.57234 -1.06951 0
M  V30 8411 N 839.561 -0.251338 -1.55583 0
M  V30 8412 C 840.807 0.37272 -1.99346 0
M  V30 8413 C 841.14 1.57266 -1.13934 0
M  V30 8414 O 840.415 1.9343 -0.20377 0
M  V30 8415 C 840.698 0.778245 -3.5159 0
M  V30 8416 C 840.551 -0.427394 -4.47765 0
M  V30 8417 C 841.87 1.62358 -4.09057 0
M  V30 8418 H 838.989 0.134002 -0.724715 0
M  V30 8419 H 841.631 -0.353536 -1.86682 0
M  V30 8420 H 839.781 1.39704 -3.62512 0
M  V30 8421 H 841.453 -1.06586 -4.48818 0
M  V30 8422 H 839.696 -1.06972 -4.20404 0
M  V30 8423 H 840.367 -0.10025 -5.51909 0
M  V30 8424 H 842.843 1.1012 -4.01264 0
M  V30 8425 H 841.719 1.87617 -5.1584 0
M  V30 8426 H 841.98 2.59688 -3.57791 0
M  V30 8427 N 841.039 1.57585 0.0217189 0
M  V30 8428 C 842.264 1.94267 0.726309 0
M  V30 8429 C 842.689 0.851904 1.67703 0
M  V30 8430 O 842.047 -0.191792 1.80283 0
M  V30 8431 C 842.095 3.30023 1.45318 0
M  V30 8432 O 841.199 3.22791 2.5667 0
M  V30 8433 H 840.54 0.634777 0.194818 0
M  V30 8434 H 843.07 2.04585 -0.0249985 0
M  V30 8435 H 843.08 3.65084 1.82147 0
M  V30 8436 H 841.755 4.08972 0.755962 0
M  V30 8437 H 840.332 2.99373 2.2233 0
M  V30 8438 N 842.517 -0.29412 1.54831 0
M  V30 8439 C 843.765 -1.02643 1.74094 0
M  V30 8440 C 844.086 -1.87563 0.533402 0
M  V30 8441 O 843.356 -1.9061 -0.452192 0
M  V30 8442 H 841.936 -0.381959 0.641963 0
M  V30 8443 H 844.598 -0.323444 1.92197 0
M  V30 8444 H 843.694 -1.67558 2.63307 0
M  V30 8445 N 843.995 -1.47404 -0.557645 0
M  V30 8446 C 845.406 -1.47872 -1.13977 0
M  V30 8447 C 845.757 -0.233176 -1.94809 0
M  V30 8448 O 844.882 0.661945 -2.06027 0
M  V30 8449 C 845.477 -2.67926 -2.07368 0
M  V30 8450 C 844.036 -2.71354 -2.60852 0
M  V30 8451 C 843.183 -2.40967 -1.37223 0
M  V30 8452 H 846.134 -1.54921 -0.344268 0
M  V30 8453 H 846.155 -2.44871 -2.91236 0
M  V30 8454 H 845.667 -3.58562 -1.48509 0
M  V30 8455 H 843.768 -1.84855 -3.23511 0
M  V30 8456 H 843.881 -3.72032 -3.01876 0
M  V30 8457 H 842.245 -1.91541 -1.67882 0
M  V30 8458 H 843.028 -3.33811 -0.801583 0
M  V30 8459 N 845.473 0.80434 -1.35529 0
M  V30 8460 C 846.436 1.89788 -1.28503 0
M  V30 8461 C 847.436 1.59601 -0.195983 0
M  V30 8462 O 848.626 1.68292 -0.449827 0
M  V30 8463 C 845.758 3.26255 -0.98847 0
M  V30 8464 H 846.951 1.97436 -2.25741 0
M  V30 8465 H 844.504 1.00046 -1.20086 0
M  V30 8466 H 845.239 3.24294 -0.0200541 0
M  V30 8467 H 845.024 3.49551 -1.77641 0
M  V30 8468 H 846.514 4.06298 -0.964975 0
M  V30 8469 N 846.951 1.19563 1.02676 0
M  V30 8470 C 848.362 1.00158 1.57561 0
M  V30 8471 C 848.713 -0.444922 1.91089 0
M  V30 8472 O 847.838 -1.32466 1.71119 0
M  V30 8473 C 848.433 1.81181 2.86284 0
M  V30 8474 C 846.992 1.66171 3.37734 0
M  V30 8475 C 846.139 1.7975 2.11152 0
M  V30 8476 H 849.09 1.33904 0.85179 0
M  V30 8477 H 849.111 1.30916 3.57269 0
M  V30 8478 H 848.623 2.86454 2.6185 0
M  V30 8479 H 846.724 0.634927 3.6715 0
M  V30 8480 H 846.837 2.46832 4.10622 0
M  V30 8481 H 845.201 1.22833 2.23123 0
M  V30 8482 H 845.984 2.86487 1.89157 0
M  V30 8483 N 848.429 -1.21819 0.999893 0
M  V30 8484 C 849.84 -1.72517 0.713775 0
M  V30 8485 C 850.191 -1.80505 -0.768922 0
M  V30 8486 O 849.316 -1.45611 -1.60083 0
M  V30 8487 C 849.911 -3.13321 1.28901 0
M  V30 8488 C 848.47 -3.61396 1.05212 0
M  V30 8489 C 847.617 -2.39074 1.40494 0
M  V30 8490 H 850.568 -1.07068 1.17141 0
M  V30 8491 H 850.589 -3.74535 0.671084 0
M  V30 8492 H 850.101 -3.07475 2.36814 0
M  V30 8493 H 848.202 -3.72599 -0.0100732 0
M  V30 8494 H 848.315 -4.47145 1.72042 0
M  V30 8495 H 846.679 -2.41015 0.823642 0
M  V30 8496 H 847.462 -2.35884 2.49427 0
M  V30 8497 N 849.908 -0.773975 -1.37286 0
M  V30 8498 C 850.855 -0.159938 -2.30245 0
M  V30 8499 C 851.825 0.687356 -1.51211 0
M  V30 8500 O 853.01 0.639255 -1.79773 0
M  V30 8501 C 850.15 0.711452 -3.37687 0
M  V30 8502 C 849.263 -0.152692 -4.3173 0
M  V30 8503 C 848.398 0.723613 -5.26248 0
M  V30 8504 C 847.437 -0.14293 -6.11933 0
M  V30 8505 N 846.574 0.691479 -6.98687 0
M  V30 8506 H 851.414 -0.958182 -2.82175 0
M  V30 8507 H 848.951 -0.48411 -1.38906 0
M  V30 8508 H 850.909 1.2315 -3.9861 0
M  V30 8509 H 849.539 1.47528 -2.87116 0
M  V30 8510 H 848.591 -0.790574 -3.72094 0
M  V30 8511 H 849.903 -0.821027 -4.91997 0
M  V30 8512 H 849.057 1.31006 -5.92387 0
M  V30 8513 H 847.796 1.42562 -4.66398 0
M  V30 8514 H 846.801 -0.7419 -5.44771 0
M  V30 8515 H 848.026 -0.842305 -6.73856 0
M  V30 8516 H 845.972 1.37806 -6.41362 0
M  V30 8517 H 845.889 0.0804911 -7.55957 0
M  V30 8518 H 847.157 1.26225 -7.69212 0
M  V30 8519 N 851.386 1.48609 -0.524698 0
M  V30 8520 C 852.349 2.28041 0.230166 0
M  V30 8521 C 853.349 1.35065 0.872584 0
M  V30 8522 O 854.539 1.58007 0.73345 0
M  V30 8523 C 851.671 3.13778 1.33252 0
M  V30 8524 H 852.864 2.96239 -0.467161 0
M  V30 8525 H 850.417 1.53763 -0.280452 0
M  V30 8526 H 851.152 2.502 2.06327 0
M  V30 8527 H 850.937 3.82165 0.877058 0
M  V30 8528 H 852.427 3.7371 1.86362 0
M  V30 8529 N 852.864 0.259585 1.55447 0
M  V30 8530 C 854.089 -0.368317 2.04103 0
M  V30 8531 C 854.514 -1.49827 1.13725 0
M  V30 8532 O 853.872 -1.80814 0.132705 0
M  V30 8533 C 853.92 -0.841506 3.50644 0
M  V30 8534 O 853.024 -1.95008 3.63381 0
M  V30 8535 H 852.365 -0.0785227 0.659341 0
M  V30 8536 H 854.895 0.389349 2.00861 0
M  V30 8537 H 854.905 -1.14138 3.9171 0
M  V30 8538 H 853.58 -0.0147001 4.15897 0
M  V30 8539 H 852.157 -1.65393 3.34215 0
M  V30 8540 N 854.342 -1.57594 -0.0133615 0
M  V30 8541 C 855.59 -1.89605 -0.699596 0
M  V30 8542 C 855.911 -0.85926 -1.75048 0
M  V30 8543 O 855.181 0.105112 -1.95618 0
M  V30 8544 H 853.761 -0.699776 -0.261385 0
M  V30 8545 H 856.423 -1.94885 0.0244044 0
M  V30 8546 H 855.519 -2.88962 -1.17928 0
M  V30 8547 N 855.82 0.285905 -1.54985 0
M  V30 8548 C 856.783 1.33625 -1.86218 0
M  V30 8549 C 857.783 1.42971 -0.735936 0
M  V30 8550 O 858.973 1.42345 -1.00417 0
M  V30 8551 C 856.105 2.71926 -2.05595 0
M  V30 8552 H 857.298 1.07167 -2.80099 0
M  V30 8553 H 854.851 0.523335 -1.47278 0
M  V30 8554 H 855.586 3.03583 -1.14053 0
M  V30 8555 H 855.371 2.6653 -2.87583 0
M  V30 8556 H 856.861 3.47841 -2.31077 0
M  V30 8557 N 857.298 1.47698 0.54982 0
M  V30 8558 C 858.709 1.48474 1.13191 0
M  V30 8559 C 859.06 0.243504 1.94683 0
M  V30 8560 O 858.185 -0.651009 2.06375 0
M  V30 8561 C 858.78 2.69022 2.05944 0
M  V30 8562 C 857.339 2.72733 2.5941 0
M  V30 8563 C 856.486 2.41691 1.35944 0
M  V30 8564 H 859.437 1.55101 0.336048 0
M  V30 8565 H 859.458 2.46412 2.89934 0
M  V30 8566 H 858.97 3.59345 1.46605 0
M  V30 8567 H 857.071 1.86568 3.22526 0
M  V30 8568 H 857.184 3.73628 2.99899 0
M  V30 8569 H 855.548 1.92428 1.66864 0
M  V30 8570 H 856.331 3.34231 0.783869 0
M  V30 8571 N 858.776 -0.797141 1.35954 0
M  V30 8572 C 860.187 -1.37179 1.26644 0
M  V30 8573 C 860.538 -1.9596 -0.0971046 0
M  V30 8574 O 859.663 -1.91994 -0.998355 0
M  V30 8575 C 860.258 -2.49395 2.2932 0
M  V30 8576 C 858.817 -3.02697 2.23722 0
M  V30 8577 C 857.964 -1.75721 2.14517 0
M  V30 8578 H 860.915 -0.599407 1.46945 0
M  V30 8579 H 860.936 -3.28204 1.92515 0
M  V30 8580 H 860.448 -2.06584 3.2855 0
M  V30 8581 H 858.549 -3.49948 1.27934 0
M  V30 8582 H 858.662 -3.60036 3.16087 0
M  V30 8583 H 857.026 -1.97649 1.60646 0
M  V30 8584 H 857.809 -1.35049 3.15621 0
M  V30 8585 N 860.254 -1.20106 -1.0204 0
M  V30 8586 C 861.502 -1.0069 -1.75231 0
M  V30 8587 C 861.823 0.462491 -1.89436 0
M  V30 8588 O 861.093 1.33455 -1.4341 0
M  V30 8589 H 859.673 -0.369576 -0.649171 0
M  V30 8590 H 862.335 -1.51149 -1.23044 0
M  V30 8591 H 861.431 -1.46205 -2.75736 0
M  V30 8592 N 861.732 1.21287 -1.00634 0
M  V30 8593 C 862.98 1.90013 -0.688438 0
M  V30 8594 C 863.301 1.78573 0.783365 0
M  V30 8595 O 862.571 1.1815 1.56261 0
M  V30 8596 H 861.151 0.703336 -0.251648 0
M  V30 8597 H 863.813 1.47346 -1.27574 0
M  V30 8598 H 862.909 2.96879 -0.962781 0
M  V30 8599 N 863.21 0.781244 1.36873 0
M  V30 8600 C 864.142 0.132075 2.28819 0
M  V30 8601 C 865.155 -0.653925 1.49089 0
M  V30 8602 O 866.344 -0.490453 1.7163 0
M  V30 8603 C 863.444 -0.836297 3.28419 0
M  V30 8604 C 862.617 -0.102097 4.37281 0
M  V30 8605 C 861.676 -0.985217 5.16894 0
M  V30 8606 O 860.702 -0.445478 5.67454 0
M  V30 8607 N 861.904 -2.31043 5.3254 0
M  V30 8608 H 864.669 0.921838 2.85171 0
M  V30 8609 H 862.23 0.634427 1.48952 0
M  V30 8610 H 864.222 -1.43074 3.78566 0
M  V30 8611 H 862.792 -1.52698 2.72767 0
M  V30 8612 H 862.012 0.67335 3.88407 0
M  V30 8613 H 863.3 0.404862 5.07187 0
M  V30 8614 H 862.698 -2.77318 4.93063 0
M  V30 8615 H 861.255 -2.85472 5.8596 0
M  V30 8616 N 864.689 -1.48329 0.532571 0
M  V30 8617 C 865.621 -2.27652 -0.265931 0
M  V30 8618 C 866.634 -1.35522 -0.902083 0
M  V30 8619 O 867.823 -1.60552 -0.780088 0
M  V30 8620 C 864.923 -3.0899 -1.39207 0
M  V30 8621 C 864.096 -4.28915 -0.857349 0
M  V30 8622 C 863.155 -4.92044 -1.86493 0
M  V30 8623 O 862.181 -5.51181 -1.42084 0
M  V30 8624 N 863.383 -4.84518 -3.19723 0
M  V30 8625 H 866.148 -2.96821 0.414389 0
M  V30 8626 H 863.709 -1.57684 0.367066 0
M  V30 8627 H 865.701 -3.48091 -2.06433 0
M  V30 8628 H 864.271 -2.42224 -1.97601 0
M  V30 8629 H 863.491 -3.94199 -0.00901765 0
M  V30 8630 H 864.779 -5.0654 -0.479025 0
M  V30 8631 H 864.177 -4.37628 -3.58467 0
M  V30 8632 H 862.734 -5.27712 -3.82575 0
M  V30 8633 N 866.167 -0.267825 -1.55308 0
M  V30 8634 C 867.583 0.0865107 -1.59365 0
M  V30 8635 C 867.783 1.55205 -1.28505 0
M  V30 8636 O 866.839 2.29978 -1.04241 0
M  V30 8637 C 868.152 -0.28155 -2.99379 0
M  V30 8638 C 869.7 -0.227565 -3.12172 0
M  V30 8639 C 870.175 -0.569959 -4.5444 0
M  V30 8640 N 871.666 -0.521238 -4.60258 0
M  V30 8641 C 872.401 -0.759061 -5.68354 0
M  V30 8642 N 871.897 -1.06112 -6.84626 0
M  V30 8643 N 873.69 -0.688351 -5.57869 0
M  V30 8644 H 865.841 -1.22332 -1.73633 0
M  V30 8645 H 868.104 -0.493703 -0.809297 0
M  V30 8646 H 867.81 -1.3005 -3.26772 0
M  V30 8647 H 867.684 0.381192 -3.75269 0
M  V30 8648 H 870.071 0.782093 -2.84548 0
M  V30 8649 H 870.152 -0.924461 -2.38511 0
M  V30 8650 H 869.796 -1.57727 -4.82788 0
M  V30 8651 H 869.726 0.148646 -5.2639 0
M  V30 8652 H 872.217 -0.297359 -3.76728 0
M  V30 8653 H 872.53 -1.22945 -7.62958 0
M  V30 8654 H 870.875 -1.09881 -6.86259 0
M  V30 8655 H 874.066 -0.452268 -4.6591 0
M  V30 8656 H 874.239 -0.877081 -6.42037 0
M  V30 8657 N 867.645 1.57599 0.00500368 0
M  V30 8658 C 868.577 2.04949 1.02609 0
M  V30 8659 C 869.59 0.966507 1.31006 0
M  V30 8660 O 870.779 1.2434 1.2807 0
M  V30 8661 C 867.879 2.43023 2.36206 0
M  V30 8662 C 867.052 3.73993 2.26821 0
M  V30 8663 C 866.111 3.9899 3.43065 0
M  V30 8664 O 865.137 4.69725 3.21477 0
M  V30 8665 N 866.339 3.46496 4.65748 0
M  V30 8666 H 869.104 2.93167 0.622336 0
M  V30 8667 H 866.665 1.60752 0.192488 0
M  V30 8668 H 868.657 2.56863 3.12735 0
M  V30 8669 H 867.227 1.60349 2.68341 0
M  V30 8670 H 866.447 3.70277 1.35235 0
M  V30 8671 H 867.735 4.59865 2.17719 0
M  V30 8672 H 867.133 2.89206 4.86186 0
M  V30 8673 H 865.69 3.65675 5.3956 0
M  V30 8674 N 869.123 -0.277682 1.55134 0
M  V30 8675 C 870.371 -1.00791 1.75173 0
M  V30 8676 C 870.692 -1.86987 0.553266 0
M  V30 8677 O 869.962 -1.91079 -0.43195 0
M  V30 8678 H 868.542 -0.375129 0.645978 0
M  V30 8679 H 871.204 -0.303041 1.9253 0
M  V30 8680 H 870.3 -1.64756 2.6507 0
M  V30 8681 N 870.601 -1.47988 -0.541979 0
M  V30 8682 C 872.012 -1.49073 -1.12402 0
M  V30 8683 C 872.363 -0.253825 -1.94551 0
M  V30 8684 O 871.488 0.640056 -2.06718 0
M  V30 8685 C 872.083 -2.7011 -2.04514 0
M  V30 8686 C 870.642 -2.74105 -2.5796 0
M  V30 8687 C 869.789 -2.42409 -1.3466 0
M  V30 8688 H 872.74 -1.55277 -0.327818 0
M  V30 8689 H 872.761 -2.47946 -2.88623 0
M  V30 8690 H 872.273 -3.60117 -1.44697 0
M  V30 8691 H 870.374 -1.88276 -3.21532 0
M  V30 8692 H 870.487 -3.75213 -2.97913 0
M  V30 8693 H 868.851 -1.9331 -1.65841 0
M  V30 8694 H 869.634 -3.34642 -0.766133 0
M  V30 8695 N 872.079 0.78992 -1.36375 0
M  V30 8696 C 873.49 1.36506 -1.2737 0
M  V30 8697 C 873.841 1.96008 0.086711 0
M  V30 8698 O 872.966 1.92521 0.988159 0
M  V30 8699 C 873.561 2.48175 -2.30639 0
M  V30 8700 C 872.12 3.01506 -2.25325 0
M  V30 8701 C 871.267 1.74581 -2.15445 0
M  V30 8702 H 874.218 0.591606 -1.47261 0
M  V30 8703 H 874.239 3.27179 -1.94253 0
M  V30 8704 H 873.751 2.04838 -3.2964 0
M  V30 8705 H 871.852 3.49265 -1.29788 0
M  V30 8706 H 871.965 3.58355 -3.17992 0
M  V30 8707 H 870.329 1.96794 -1.61692 0
M  V30 8708 H 871.112 1.33373 -3.16333 0
M  V30 8709 N 873.557 1.20646 1.01402 0
M  V30 8710 C 874.489 0.915392 2.10127 0
M  V30 8711 C 875.502 -0.0978705 1.62506 0
M  V30 8712 O 876.691 0.133477 1.78 0
M  V30 8713 C 873.791 0.351304 3.37074 0
M  V30 8714 C 872.964 1.41673 4.13821 0
M  V30 8715 C 872.023 0.8635 5.19067 0
M  V30 8716 O 871.049 1.54481 5.47836 0
M  V30 8717 N 872.251 -0.325799 5.79585 0
M  V30 8718 H 875.016 1.85132 2.35682 0
M  V30 8719 H 872.577 1.11048 1.17813 0
M  V30 8720 H 874.569 -0.032996 4.04687 0
M  V30 8721 H 873.139 -0.489242 3.08748 0
M  V30 8722 H 872.359 1.97526 3.41141 0
M  V30 8723 H 873.647 2.1342 4.61876 0
M  V30 8724 H 873.045 -0.896534 5.58551 0
M  V30 8725 H 871.602 -0.651708 6.48534 0
M  V30 8726 N 875.035 -1.20752 1.01276 0
M  V30 8727 C 875.982 -2.234 0.579732 0
M  V30 8728 C 876.952 -1.61256 -0.398206 0
M  V30 8729 O 878.137 -1.8845 -0.29851 0
M  V30 8730 C 875.277 -3.45008 -0.0797006 0
M  V30 8731 C 874.39 -4.21597 0.942343 0
M  V30 8732 C 873.525 -5.30591 0.254364 0
M  V30 8733 C 872.564 -5.98919 1.26343 0
M  V30 8734 N 871.701 -6.99511 0.602384 0
M  V30 8735 H 876.541 -2.59801 1.45971 0
M  V30 8736 H 874.078 -1.27663 0.730787 0
M  V30 8737 H 876.036 -4.1444 -0.479125 0
M  V30 8738 H 874.666 -3.09312 -0.923354 0
M  V30 8739 H 873.718 -3.51268 1.45996 0
M  V30 8740 H 875.03 -4.68576 1.70992 0
M  V30 8741 H 874.184 -6.06368 -0.200763 0
M  V30 8742 H 872.923 -4.84639 -0.545553 0
M  V30 8743 H 871.928 -5.21906 1.72898 0
M  V30 8744 H 873.153 -6.46957 2.06456 0
M  V30 8745 H 871.099 -6.55759 -0.177734 0
M  V30 8746 H 871.016 -7.44597 1.30809 0
M  V30 8747 H 872.284 -7.79313 0.17072 0
M  V30 8748 N 876.513 -0.788492 -1.36457 0
M  V30 8749 C 877.924 -0.423742 -1.81828 0
M  V30 8750 C 878.275 1.05221 -1.65599 0
M  V30 8751 O 877.4 1.8163 -1.17641 0
M  V30 8752 C 877.995 -0.762354 -3.30112 0
M  V30 8753 C 876.554 -0.450445 -3.73695 0
M  V30 8754 C 875.701 -0.997482 -2.58738 0
M  V30 8755 H 878.652 -0.981718 -1.24692 0
M  V30 8756 H 878.673 -0.0531136 -3.80463 0
M  V30 8757 H 878.185 -1.83662 -3.41891 0
M  V30 8758 H 876.286 0.615829 -3.67476 0
M  V30 8759 H 876.399 -0.970408 -4.69169 0
M  V30 8760 H 874.763 -0.420761 -2.51201 0
M  V30 8761 H 875.546 -2.07749 -2.73304 0
M  V30 8762 N 877.991 1.48044 -0.54043 0
M  V30 8763 C 879.402 1.86418 -0.102662 0
M  V30 8764 C 879.753 1.4489 1.32293 0
M  V30 8765 O 878.878 0.844319 1.99249 0
M  V30 8766 C 879.473 3.38324 -0.179533 0
M  V30 8767 C 878.032 3.75852 0.203098 0
M  V30 8768 C 877.179 2.72097 -0.534637 0
M  V30 8769 H 880.13 1.398 -0.751103 0
M  V30 8770 H 880.151 3.75641 0.606147 0
M  V30 8771 H 879.663 3.68518 -1.21721 0
M  V30 8772 H 877.764 3.51272 1.24252 0
M  V30 8773 H 877.877 4.78884 -0.143784 0
M  V30 8774 H 876.241 2.54692 0.0203358 0
M  V30 8775 H 877.024 3.05135 -1.57314 0
M  V30 8776 N 879.47 0.276058 1.55163 0
M  V30 8777 C 880.718 -0.339782 1.99223 0
M  V30 8778 C 881.039 -1.56307 1.16589 0
M  V30 8779 O 880.309 -1.94225 0.25564 0
M  V30 8780 H 878.889 -0.128534 0.735859 0
M  V30 8781 H 881.551 0.381612 1.91128 0
M  V30 8782 H 880.647 -0.629 3.05696 0
M  V30 8783 N 880.948 -1.576 0.00335426 0
M  V30 8784 C 882.359 -1.7875 -0.539008 0
M  V30 8785 C 882.71 -0.911097 -1.73763 0
M  V30 8786 O 881.835 -0.114476 -2.16097 0
M  V30 8787 C 882.43 -3.24177 -0.984611 0
M  V30 8788 C 880.989 -3.46412 -1.47226 0
M  V30 8789 C 880.136 -2.74024 -0.425004 0
M  V30 8790 H 883.087 -1.57032 0.229511 0
M  V30 8791 H 883.108 -3.32474 -1.85044 0
M  V30 8792 H 882.62 -3.87938 -0.112035 0
M  V30 8793 H 880.721 -2.8787 -2.36562 0
M  V30 8794 H 880.834 -4.55098 -1.49741 0
M  V30 8795 H 879.198 -2.38741 -0.887394 0
M  V30 8796 H 879.981 -3.40486 0.438662 0
M  V30 8797 N 882.426 0.269451 -1.5528 0
M  V30 8798 C 883.389 1.31642 -1.87625 0
M  V30 8799 C 884.389 1.42182 -0.751058 0
M  V30 8800 O 885.579 1.41272 -1.01921 0
M  V30 8801 C 882.711 2.6973 -2.08467 0
M  V30 8802 H 883.904 1.0419 -2.81219 0
M  V30 8803 H 881.457 0.507685 -1.47825 0
M  V30 8804 H 882.192 3.02356 -1.17266 0
M  V30 8805 H 881.977 2.63465 -2.90394 0
M  V30 8806 H 883.467 3.4537 -2.34753 0
M  V30 8807 N 883.904 1.48273 0.534124 0
M  V30 8808 C 885.152 1.55771 1.28762 0
M  V30 8809 C 885.473 0.231575 1.9362 0
M  V30 8810 O 884.743 -0.746533 1.81118 0
M  V30 8811 H 883.323 0.573851 0.47823 0
M  V30 8812 H 885.985 1.84712 0.621888 0
M  V30 8813 H 885.081 2.33657 2.06908 0
M  V30 8814 N 885.382 -0.782676 1.36792 0
M  V30 8815 C 886.793 -1.35828 1.28092 0
M  V30 8816 C 887.144 -1.96052 -0.076315 0
M  V30 8817 O 886.269 -1.93042 -0.977935 0
M  V30 8818 C 886.864 -2.46949 2.31952 0
M  V30 8819 C 885.423 -3.00307 2.2692 0
M  V30 8820 C 884.57 -1.73436 2.16368 0
M  V30 8821 H 887.521 -0.583788 1.47572 0
M  V30 8822 H 887.542 -3.26144 1.95986 0
M  V30 8823 H 887.054 -2.03087 3.30722 0
M  V30 8824 H 885.155 -3.48571 1.31639 0
M  V30 8825 H 885.268 -3.56663 3.19887 0
M  V30 8826 H 883.632 -1.95934 1.62733 0
M  V30 8827 H 884.415 -1.31693 3.17036 0
M  V30 8828 N 886.86 -1.21182 -1.00761 0
M  V30 8829 C 888.088 -1.05335 -1.78079 0
M  V30 8830 C 888.503 0.396988 -1.84579 0
M  V30 8831 O 887.86 1.27548 -1.30529 0
M  V30 8832 C 887.911 -1.64089 -3.22113 0
M  V30 8833 O 887.632 -3.03448 -3.15992 0
M  V30 8834 C 889.133 -1.53318 -4.15943 0
M  V30 8835 H 886.353 -0.37005 -0.559736 0
M  V30 8836 H 888.897 -1.60463 -1.26775 0
M  V30 8837 H 887.052 -1.13059 -3.70535 0
M  V30 8838 H 887.466 -3.31492 -4.06465 0
M  V30 8839 H 888.94 -1.99174 -5.14814 0
M  V30 8840 H 889.417 -0.487166 -4.3649 0
M  V30 8841 H 890.023 -2.03582 -3.73409 0
M  V30 8842 N 888.338 1.20213 -1.01915 0
M  V30 8843 C 889.754 1.41696 -0.734459 0
M  V30 8844 C 889.954 1.89504 0.684867 0
M  V30 8845 O 889.01 2.06556 1.45227 0
M  V30 8846 C 890.323 2.43644 -1.76233 0
M  V30 8847 C 891.871 2.57406 -1.78076 0
M  V30 8848 C 892.346 3.626 -2.79796 0
M  V30 8849 N 893.837 3.70086 -2.78551 0
M  V30 8850 C 894.572 4.51145 -3.53915 0
M  V30 8851 N 894.068 5.35988 -4.38963 0
M  V30 8852 N 895.861 4.45702 -3.425 0
M  V30 8853 H 888.012 0.874976 -1.93541 0
M  V30 8854 H 890.275 0.446647 -0.836188 0
M  V30 8855 H 889.981 2.15519 -2.77929 0
M  V30 8856 H 889.855 3.42672 -1.57657 0
M  V30 8857 H 892.242 2.8486 -0.770634 0
M  V30 8858 H 892.323 1.58565 -2.00725 0
M  V30 8859 H 891.967 3.35889 -3.80973 0
M  V30 8860 H 891.897 4.61069 -2.54407 0
M  V30 8861 H 894.388 3.09484 -2.1686 0
M  V30 8862 H 894.701 5.94932 -4.9323 0
M  V30 8863 H 893.046 5.35482 -4.4304 0
M  V30 8864 H 896.237 3.78456 -2.75478 0
M  V30 8865 H 896.41 5.08637 -4.01487 0
M  V30 8866 N 889.816 0.795718 1.36037 0
M  V30 8867 C 890.748 0.156336 2.28666 0
M  V30 8868 C 891.761 -0.638075 1.49775 0
M  V30 8869 O 892.95 -0.472222 1.7214 0
M  V30 8870 C 890.05 -0.801417 3.29288 0
M  V30 8871 C 889.223 -0.0557118 4.37365 0
M  V30 8872 C 888.282 -0.930338 5.1791 0
M  V30 8873 O 887.308 -0.385266 5.67895 0
M  V30 8874 N 888.51 -2.25382 5.34961 0
M  V30 8875 H 891.275 0.952033 2.84177 0
M  V30 8876 H 888.836 0.650189 1.48271 0
M  V30 8877 H 890.828 -1.39051 3.80062 0
M  V30 8878 H 889.398 -1.49796 2.74372 0
M  V30 8879 H 888.618 0.714508 3.87671 0
M  V30 8880 H 889.906 0.458633 5.06729 0
M  V30 8881 H 889.304 -2.72073 4.95977 0
M  V30 8882 H 887.861 -2.79241 5.88955 0
M  V30 8883 N 891.294 -1.47756 0.548274 0
M  V30 8884 C 892.257 -2.28379 -0.193857 0
M  V30 8885 C 893.257 -1.36436 -0.850986 0
M  V30 8886 O 894.447 -1.59154 -0.70822 0
M  V30 8887 C 891.579 -3.15858 -1.28243 0
M  V30 8888 H 892.772 -2.95458 0.514231 0
M  V30 8889 H 890.325 -1.53298 0.304879 0
M  V30 8890 H 891.06 -2.5345 -2.0232 0
M  V30 8891 H 890.845 -3.83512 -0.816148 0
M  V30 8892 H 892.335 -3.76627 -1.80393 0
M  V30 8893 N 892.772 -0.284283 -1.55015 0
M  V30 8894 C 893.997 0.335799 -2.04664 0
M  V30 8895 C 894.422 1.47999 -1.16094 0
M  V30 8896 O 893.78 1.8058 -0.161454 0
M  V30 8897 C 893.828 0.785615 -3.51938 0
M  V30 8898 O 892.932 1.89202 -3.66437 0
M  V30 8899 H 892.273 0.0680233 -0.660506 0
M  V30 8900 H 894.803 -0.421255 -2.00216 0
M  V30 8901 H 894.813 1.07892 -3.93476 0
M  V30 8902 H 893.488 -0.0514675 -4.15868 0
M  V30 8903 H 892.065 1.60055 -3.36804 0
M  V30 8904 N 894.251 1.57596 -0.0117121 0
M  V30 8905 C 895.183 2.06025 1.0043 0
M  V30 8906 C 896.196 0.980348 1.29973 0
M  V30 8907 O 897.385 1.25691 1.26744 0
M  V30 8908 C 894.485 2.45514 2.33615 0
M  V30 8909 C 893.658 3.76378 2.22842 0
M  V30 8910 C 892.717 4.02606 3.38814 0
M  V30 8911 O 891.743 4.73108 3.16477 0
M  V30 8912 N 892.945 3.51416 4.62047 0
M  V30 8913 H 895.71 2.93811 0.591206 0
M  V30 8914 H 893.271 1.60947 0.175427 0
M  V30 8915 H 895.263 2.60166 3.09993 0
M  V30 8916 H 893.833 1.63186 2.66625 0
M  V30 8917 H 893.053 3.71691 1.313 0
M  V30 8918 H 894.341 4.62149 2.12829 0
M  V30 8919 H 893.739 2.94346 4.83091 0
M  V30 8920 H 892.296 3.71377 5.35651 0
M  V30 8921 N 895.729 -0.261212 1.5542 0
M  V30 8922 C 896.692 -1.30645 1.8832 0
M  V30 8923 C 897.692 -1.41782 0.758588 0
M  V30 8924 O 898.882 -1.40729 1.02669 0
M  V30 8925 C 896.014 -2.6862 2.09895 0
M  V30 8926 H 897.207 -1.02698 2.81768 0
M  V30 8927 H 894.76 -0.499838 1.48092 0
M  V30 8928 H 895.495 -3.0173 1.18868 0
M  V30 8929 H 895.28 -2.61921 2.91787 0
M  V30 8930 H 896.77 -3.44121 2.36581 0
M  V30 8931 N 897.207 -1.48554 -0.526253 0
M  V30 8932 C 898.455 -1.56452 -1.27935 0
M  V30 8933 C 898.776 -0.24184 -1.93495 0
M  V30 8934 O 898.046 0.736917 -1.81511 0
M  V30 8935 H 896.626 -0.576379 -0.47518 0
M  V30 8936 H 899.288 -1.85039 -0.612083 0
M  V30 8937 H 898.384 -2.34751 -2.05666 0
M  V30 8938 N 898.685 0.775411 -1.37205 0
M  V30 8939 C 900.096 1.35147 -1.28811 0
M  V30 8940 C 900.447 1.96089 0.0659168 0
M  V30 8941 O 899.572 1.93558 0.967684 0
M  V30 8942 C 900.167 2.45715 -2.33258 0
M  V30 8943 C 898.726 2.99099 -2.2851 0
M  V30 8944 C 897.873 1.72286 -2.17285 0
M  V30 8945 H 900.824 0.575954 -1.4788 0
M  V30 8946 H 900.845 3.251 -1.97712 0
M  V30 8947 H 900.357 2.01331 -3.31795 0
M  V30 8948 H 898.458 3.47868 -1.33485 0
M  V30 8949 H 898.571 3.54962 -3.21774 0
M  V30 8950 H 896.935 1.95068 -1.6377 0
M  V30 8951 H 897.718 1.3001 -3.1773 0
M  V30 8952 N 900.163 1.21714 1.00117 0
M  V30 8953 C 901.409 1.03823 1.74208 0
M  V30 8954 C 901.742 -0.426733 1.89454 0
M  V30 8955 O 901.017 -1.31658 1.43166 0
M  V30 8956 C 901.3 1.74047 3.15246 0
M  V30 8957 C 901.153 3.28087 3.077 0
M  V30 8958 C 902.472 1.48614 4.14249 0
M  V30 8959 H 899.591 0.378573 0.632338 0
M  V30 8960 H 902.233 1.49942 1.16694 0
M  V30 8961 H 900.383 1.3484 3.64349 0
M  V30 8962 H 902.055 3.76686 2.6628 0
M  V30 8963 H 900.298 3.58191 2.44707 0
M  V30 8964 H 900.969 3.72392 4.07466 0
M  V30 8965 H 903.445 1.82656 3.73866 0
M  V30 8966 H 902.321 2.00257 5.11066 0
M  V30 8967 H 902.582 0.416957 4.40129 0
M  V30 8968 N 901.641 -1.19671 1.02551 0
M  V30 8969 C 903.052 -1.70964 0.750208 0
M  V30 8970 C 903.403 -1.82095 -0.730461 0
M  V30 8971 O 902.528 -1.48974 -1.56958 0
M  V30 8972 C 903.123 -3.10516 1.35518 0
M  V30 8973 C 901.682 -3.59083 1.12854 0
M  V30 8974 C 900.829 -2.36041 1.45534 0
M  V30 8975 H 903.78 -1.04559 1.19386 0
M  V30 8976 H 903.801 -3.73028 0.750378 0
M  V30 8977 H 903.313 -3.02383 2.43282 0
M  V30 8978 H 901.414 -3.72536 0.0689627 0
M  V30 8979 H 901.527 -4.43395 1.81488 0
M  V30 8980 H 899.891 -2.39214 0.87458 0
M  V30 8981 H 900.674 -2.3054 2.54374 0
M  V30 8982 N 903.119 -0.802921 -1.35613 0
M  V30 8983 C 904.535 -0.486214 -1.52014 0
M  V30 8984 C 904.735 0.993219 -1.75321 0
M  V30 8985 O 903.791 1.77835 -1.79251 0
M  V30 8986 C 905.104 -1.32839 -2.69767 0
M  V30 8987 C 906.652 -1.32346 -2.83643 0
M  V30 8988 C 907.127 -2.14967 -4.04417 0
M  V30 8989 N 908.618 -2.12484 -4.11588 0
M  V30 8990 C 909.353 -2.73173 -5.04147 0
M  V30 8991 N 908.849 -3.42774 -6.02061 0
M  V30 8992 N 910.642 -2.62834 -4.96865 0
M  V30 8993 H 902.793 -1.76109 -1.18741 0
M  V30 8994 H 905.056 -0.74936 -0.580658 0
M  V30 8995 H 904.762 -2.37813 -2.5911 0
M  V30 8996 H 904.636 -0.979058 -3.64272 0
M  V30 8997 H 907.023 -0.281586 -2.93753 0
M  V30 8998 H 907.104 -1.71264 -1.90006 0
M  V30 8999 H 906.748 -3.19193 -3.95068 0
M  V30 9000 H 906.678 -1.73411 -4.97228 0
M  V30 9001 H 909.169 -1.61839 -3.41492 0
M  V30 9002 H 909.482 -3.86378 -6.69277 0
M  V30 9003 H 907.827 -3.46878 -6.02246 0
M  V30 9004 H 911.018 -2.08049 -4.19325 0
M  V30 9005 H 911.191 -3.10421 -5.68808 0
M  V30 9006 N 904.597 1.47463 -0.556102 0
M  V30 9007 C 905.825 2.06868 -0.0364585 0
M  V30 9008 C 906.24 1.40893 1.25677 0
M  V30 9009 O 905.597 0.505083 1.75371 0
M  V30 9010 C 905.648 3.61128 0.163984 0
M  V30 9011 O 905.369 4.24629 -1.07803 0
M  V30 9012 C 906.87 4.37397 0.721036 0
M  V30 9013 H 904.09 0.669466 -0.0453399 0
M  V30 9014 H 906.634 1.89482 -0.769198 0
M  V30 9015 H 904.789 3.78031 0.84685 0
M  V30 9016 H 905.203 5.17149 -0.875067 0
M  V30 9017 H 906.677 5.46016 0.810584 0
M  V30 9018 H 907.154 4.03604 1.73206 0
M  V30 9019 H 907.76 4.25236 0.073904 0
M  V30 9020 N 906.075 0.2925 1.54862 0
M  V30 9021 C 907.323 -0.318633 1.99572 0
M  V30 9022 C 907.644 -1.55062 1.1824 0
M  V30 9023 O 906.914 -1.93943 0.276226 0
M  V30 9024 H 905.494 -0.120722 0.737181 0
M  V30 9025 H 908.156 0.401862 1.90712 0
M  V30 9026 H 907.252 -0.596542 3.06346 0
M  V30 9027 N 907.553 -1.57587 0.0200696 0
M  V30 9028 C 908.964 -1.79312 -0.520019 0
M  V30 9029 C 909.315 -0.929475 -1.72787 0
M  V30 9030 O 908.44 -0.137389 -2.15963 0
M  V30 9031 C 909.035 -3.25203 -0.950172 0
M  V30 9032 C 907.594 -3.47954 -1.43543 0
M  V30 9033 C 906.741 -2.74459 -0.395917 0
M  V30 9034 H 909.692 -1.56779 0.246153 0
M  V30 9035 H 909.713 -3.34418 -1.81508 0
M  V30 9036 H 909.225 -3.88035 -0.070883 0
M  V30 9037 H 907.326 -2.90363 -2.33495 0
M  V30 9038 H 907.439 -4.56661 -1.44905 0
M  V30 9039 H 905.803 -2.39669 -0.862022 0
M  V30 9040 H 906.586 -3.40001 0.47475 0
M  V30 9041 N 909.032 0.252966 -1.55557 0
M  V30 9042 C 910.443 0.822503 -1.67606 0
M  V30 9043 C 910.794 1.86265 -0.616411 0
M  V30 9044 O 909.919 2.15082 0.238447 0
M  V30 9045 C 910.514 1.49866 -3.03852 0
M  V30 9046 C 909.073 2.01597 -3.17861 0
M  V30 9047 C 908.22 0.864943 -2.63465 0
M  V30 9048 H 911.171 0.0288958 -1.58674 0
M  V30 9049 H 911.192 2.36646 -2.97958 0
M  V30 9050 H 910.704 0.741378 -3.80953 0
M  V30 9051 H 908.805 2.80224 -2.45571 0
M  V30 9052 H 908.918 2.21752 -4.24692 0
M  V30 9053 H 907.282 1.2638 -2.21134 0
M  V30 9054 H 908.065 0.120847 -3.43087 0
M  V30 9055 N 910.51 1.48831 0.518367 0
M  V30 9056 C 911.738 1.6112 1.298 0
M  V30 9057 C 912.153 0.275872 1.86774 0
M  V30 9058 O 911.51 -0.736416 1.66983 0
M  V30 9059 C 911.561 2.66675 2.44063 0
M  V30 9060 O 911.282 3.95027 1.89434 0
M  V30 9061 C 912.783 2.8951 3.35706 0
M  V30 9062 H 910.003 0.542916 0.394314 0
M  V30 9063 H 912.547 1.94743 0.624142 0
M  V30 9064 H 910.702 2.35879 3.07311 0
M  V30 9065 H 911.116 4.53031 2.64316 0
M  V30 9066 H 912.59 3.67142 4.12202 0
M  V30 9067 H 913.067 1.98768 3.91648 0
M  V30 9068 H 913.673 3.21656 2.7824 0
M  V30 9069 N 911.988 -0.768124 1.37614 0
M  V30 9070 C 913.216 -1.55726 1.36224 0
M  V30 9071 C 913.631 -1.8873 -0.0515357 0
M  V30 9072 O 912.988 -1.51718 -1.0143 0
M  V30 9073 C 913.039 -2.86533 2.20412 0
M  V30 9074 O 912.76 -2.54942 3.56281 0
M  V30 9075 C 914.261 -3.80745 2.27041 0
M  V30 9076 H 911.481 -0.482325 0.46648 0
M  V30 9077 H 914.025 -0.95176 1.81002 0
M  V30 9078 H 912.18 -3.43496 1.79134 0
M  V30 9079 H 912.594 -3.38732 4.00451 0
M  V30 9080 H 914.068 -4.69523 2.90263 0
M  V30 9081 H 914.545 -4.20138 1.27987 0
M  V30 9082 H 915.151 -3.2971 2.68647 0
M  V30 9083 N 913.466 -1.22244 -0.994698 0
M  V30 9084 C 914.398 -0.948706 -2.08644 0
M  V30 9085 C 915.411 0.0720049 -1.62641 0
M  V30 9086 O 916.6 -0.161778 -1.77765 0
M  V30 9087 C 913.7 -0.404885 -3.36473 0
M  V30 9088 C 912.873 -1.48239 -4.11514 0
M  V30 9089 C 911.932 -0.94597 -5.17627 0
M  V30 9090 O 910.958 -1.63177 -5.45309 0
M  V30 9091 N 912.16 0.23355 -5.8003 0
M  V30 9092 H 914.925 -1.88858 -2.32707 0
M  V30 9093 H 912.486 -1.12908 -1.16032 0
M  V30 9094 H 914.478 -0.0313903 -4.04688 0
M  V30 9095 H 913.048 0.440061 -3.09487 0
M  V30 9096 H 912.268 -2.02928 -3.37955 0
M  V30 9097 H 913.556 -2.20741 -4.58422 0
M  V30 9098 H 912.954 0.80756 -5.59906 0
M  V30 9099 H 911.511 0.54845 -6.49488 0
M  V30 9100 N 914.944 1.19125 -1.03184 0
M  V30 9101 C 915.876 2.21914 -0.573294 0
M  V30 9102 C 916.889 1.5894 0.352397 0
M  V30 9103 O 918.078 1.77883 0.148318 0
M  V30 9104 C 915.178 3.38403 0.18355 0
M  V30 9105 C 914.351 4.3096 -0.747817 0
M  V30 9106 C 913.41 5.26188 -0.0358489 0
M  V30 9107 O 912.436 5.65321 -0.663388 0
M  V30 9108 N 913.638 5.67235 1.23387 0
M  V30 9109 H 916.403 2.61881 -1.45734 0
M  V30 9110 H 913.964 1.33821 -0.911231 0
M  V30 9111 H 915.956 3.99124 0.669468 0
M  V30 9112 H 914.526 2.97201 0.969043 0
M  V30 9113 H 913.746 3.67976 -1.41377 0
M  V30 9114 H 915.034 4.89708 -1.38071 0
M  V30 9115 H 914.432 5.37481 1.76439 0
M  V30 9116 H 912.989 6.30196 1.66423 0
M  V30 9117 N 916.422 0.810101 1.35185 0
M  V30 9118 C 917.833 0.452616 1.81131 0
M  V30 9119 C 918.184 -1.02573 1.67252 0
M  V30 9120 O 917.309 -1.79735 1.20516 0
M  V30 9121 C 917.904 0.814775 3.28857 0
M  V30 9122 C 916.463 0.509839 3.72931 0
M  V30 9123 C 915.61 1.03852 2.57119 0
M  V30 9124 H 918.561 1.00143 1.23114 0
M  V30 9125 H 918.582 0.113635 3.8033 0
M  V30 9126 H 918.094 1.89078 3.38926 0
M  V30 9127 H 916.195 -0.557289 3.68409 0
M  V30 9128 H 916.308 1.04493 4.67566 0
M  V30 9129 H 914.672 0.460671 2.50499 0
M  V30 9130 H 915.455 2.12071 2.69964 0
M  V30 9131 N 917.9 -1.47166 0.563914 0
M  V30 9132 C 919.316 -1.58018 0.224173 0
M  V30 9133 C 919.516 -1.56163 -1.27339 0
M  V30 9134 O 918.572 -1.4686 -2.05398 0
M  V30 9135 C 919.885 -2.88236 0.856762 0
M  V30 9136 C 921.433 -3.01833 0.82861 0
M  V30 9137 C 921.908 -4.34761 1.44039 0
M  V30 9138 N 923.399 -4.41413 1.40388 0
M  V30 9139 C 924.134 -5.42845 1.84681 0
M  V30 9140 N 923.63 -6.51052 2.3686 0
M  V30 9141 N 925.423 -5.33931 1.75711 0
M  V30 9142 H 917.574 -1.46615 1.53681 0
M  V30 9143 H 919.837 -0.698195 0.64127 0
M  V30 9144 H 919.543 -2.95349 1.90949 0
M  V30 9145 H 919.417 -3.75537 0.353766 0
M  V30 9146 H 921.804 -2.94312 -0.215451 0
M  V30 9147 H 921.885 -2.16056 1.36943 0
M  V30 9148 H 921.529 -4.43037 2.48355 0
M  V30 9149 H 921.459 -5.1928 0.874953 0
M  V30 9150 H 923.95 -3.63811 1.02227 0
M  V30 9151 H 924.263 -7.24633 2.68564 0
M  V30 9152 H 922.608 -6.51924 2.40875 0
M  V30 9153 H 925.799 -4.48295 1.34718 0
M  V30 9154 H 925.972 -6.12841 2.10547 0
M  V30 9155 N 919.378 -0.300708 -1.54705 0
M  V30 9156 C 920.789 0.191995 -1.8571 0
M  V30 9157 C 921.14 1.53447 -1.22264 0
M  V30 9158 O 920.265 2.10054 -0.520226 0
M  V30 9159 C 920.86 0.355148 -3.36933 0
M  V30 9160 C 919.419 0.792071 -3.67972 0
M  V30 9161 C 918.566 -0.099756 -2.77121 0
M  V30 9162 H 921.517 -0.521729 -1.49879 0
M  V30 9163 H 921.538 1.18977 -3.61421 0
M  V30 9164 H 921.05 -0.622075 -3.83082 0
M  V30 9165 H 919.151 1.77986 -3.27341 0
M  V30 9166 H 919.264 0.611661 -4.75179 0
M  V30 9167 H 917.628 0.420909 -2.51198 0
M  V30 9168 H 918.411 -1.07333 -3.2609 0
M  V30 9169 N 920.856 1.57574 -0.0284266 0
M  V30 9170 C 922.081 1.96479 0.664137 0
M  V30 9171 C 922.506 0.904826 1.64908 0
M  V30 9172 O 921.864 -0.134339 1.80802 0
M  V30 9173 C 921.912 3.34479 1.34745 0
M  V30 9174 O 921.016 3.30794 2.46271 0
M  V30 9175 H 920.357 0.640654 0.174524 0
M  V30 9176 H 922.887 2.04402 -0.0900729 0
M  V30 9177 H 922.897 3.70694 1.7044 0
M  V30 9178 H 921.572 4.1117 0.625468 0
M  V30 9179 H 920.149 3.06294 2.12693 0
M  V30 9180 N 922.334 -0.244713 1.55689 0
M  V30 9181 C 923.582 -0.970525 1.77272 0
M  V30 9182 C 923.903 -1.85771 0.592804 0
M  V30 9183 O 923.173 -1.91952 -0.391323 0
M  V30 9184 H 921.753 -0.361342 0.653789 0
M  V30 9185 H 924.415 -0.262134 1.93129 0
M  V30 9186 H 923.511 -1.59096 2.68505 0
M  V30 9187 N 923.813 -1.49104 -0.510467 0
M  V30 9188 C 925.224 -1.51423 -1.09215 0
M  V30 9189 C 925.575 -0.295035 -1.93969 0
M  V30 9190 O 924.7 0.596064 -2.08029 0
M  V30 9191 C 925.295 -2.74387 -1.98739 0
M  V30 9192 C 923.854 -2.79515 -2.52088 0
M  V30 9193 C 923.001 -2.4521 -1.29488 0
M  V30 9194 H 925.952 -1.55938 -0.294807 0
M  V30 9195 H 925.973 -2.54012 -2.83298 0
M  V30 9196 H 925.485 -3.63105 -1.37026 0
M  V30 9197 H 923.586 -1.95054 -3.17466 0
M  V30 9198 H 923.699 -3.81447 -2.89887 0
M  V30 9199 H 922.063 -1.96785 -1.61703 0
M  V30 9200 H 922.846 -3.36192 -0.694978 0
M  V30 9201 N 925.291 0.760815 -1.38019 0
M  V30 9202 C 926.539 1.51673 -1.33566 0
M  V30 9203 C 926.86 1.94852 0.076024 0
M  V30 9204 O 926.13 1.67112 1.02227 0
M  V30 9205 H 924.71 0.562581 -0.491438 0
M  V30 9206 H 927.372 0.904832 -1.72623 0
M  V30 9207 H 926.468 2.41102 -1.98182 0
M  V30 9208 N 926.769 1.22769 0.988202 0
M  V30 9209 C 928.18 1.0512 1.54294 0
M  V30 9210 C 928.531 -0.383904 1.92407 0
M  V30 9211 O 927.656 -1.26955 1.75246 0
M  V30 9212 C 928.251 1.90198 2.80375 0
M  V30 9213 C 926.81 1.76831 3.32276 0
M  V30 9214 C 925.957 1.86377 2.05326 0
M  V30 9215 H 928.908 1.36546 0.808758 0
M  V30 9216 H 928.929 1.42216 3.52923 0
M  V30 9217 H 928.441 2.9464 2.52605 0
M  V30 9218 H 926.542 0.751412 3.64945 0
M  V30 9219 H 926.655 2.59771 4.02562 0
M  V30 9220 H 925.019 1.2987 2.19103 0
M  V30 9221 H 925.802 2.9236 1.79946 0
M  V30 9222 N 928.247 -1.18576 1.03814 0
M  V30 9223 C 929.21 -2.2033 0.63146 0
M  V30 9224 C 930.21 -1.57787 -0.309816 0
M  V30 9225 O 931.4 -1.73938 -0.0955598 0
M  V30 9226 C 928.532 -3.40818 -0.0745963 0
M  V30 9227 H 929.725 -2.57824 1.53189 0
M  V30 9228 H 927.278 -1.32416 0.830398 0
M  V30 9229 H 928.013 -3.08853 -0.988947 0
M  V30 9230 H 927.798 -3.87453 0.6019 0
M  V30 9231 H 929.288 -4.16166 -0.345727 0
M  V30 9232 N 929.725 -0.817259 -1.34754 0
M  V30 9233 C 930.973 -0.401852 -1.98065 0
M  V30 9234 C 931.294 1.03718 -1.65129 0
M  V30 9235 O 930.564 1.71921 -0.939141 0
M  V30 9236 H 929.144 -0.145603 -0.732672 0
M  V30 9237 H 931.806 -1.04545 -1.64488 0
M  V30 9238 H 930.902 -0.516241 -3.07801 0
M  V30 9239 N 931.203 1.46865 -0.571711 0
M  V30 9240 C 932.619 1.57897 -0.23255 0
M  V30 9241 C 932.819 1.56836 1.26509 0
M  V30 9242 O 931.875 1.47947 2.04617 0
M  V30 9243 C 933.188 2.87778 -0.872036 0
M  V30 9244 C 934.736 3.01389 -0.844605 0
M  V30 9245 C 935.211 4.33991 -1.46343 0
M  V30 9246 N 936.702 4.40662 -1.42727 0
M  V30 9247 C 937.437 5.41858 -1.87557 0
M  V30 9248 N 936.933 6.49787 -2.4031 0
M  V30 9249 N 938.726 5.32992 -1.7854 0
M  V30 9250 H 930.877 1.45798 -1.54457 0
M  V30 9251 H 933.14 0.694785 -0.644964 0
M  V30 9252 H 932.846 2.94332 -1.92513 0
M  V30 9253 H 932.72 3.75345 -0.373677 0
M  V30 9254 H 935.107 2.94423 0.19984 0
M  V30 9255 H 935.188 2.15327 -1.38087 0
M  V30 9256 H 934.832 4.41714 -2.50701 0
M  V30 9257 H 934.762 5.18809 -0.902479 0
M  V30 9258 H 937.253 3.63263 -1.04155 0
M  V30 9259 H 937.566 7.23199 -2.72403 0
M  V30 9260 H 935.911 6.50637 -2.44329 0
M  V30 9261 H 939.102 4.47575 -1.37093 0
M  V30 9262 H 939.275 6.11716 -2.13794 0
M  V30 9263 N 932.681 0.308908 1.54543 0
M  V30 9264 C 934.092 -0.182144 1.85809 0
M  V30 9265 C 934.443 -1.52796 1.23076 0
M  V30 9266 O 933.568 -2.09775 0.531358 0
M  V30 9267 C 934.163 -0.337275 3.37117 0
M  V30 9268 C 932.722 -0.772545 3.68387 0
M  V30 9269 C 931.869 0.114451 2.77064 0
M  V30 9270 H 934.82 0.529671 1.496 0
M  V30 9271 H 934.841 -1.17058 3.62046 0
M  V30 9272 H 934.353 0.642382 3.82747 0
M  V30 9273 H 932.454 -1.76247 3.2828 0
M  V30 9274 H 932.567 -0.586453 4.75497 0
M  V30 9275 H 930.931 -0.407581 2.51418 0
M  V30 9276 H 931.714 1.09061 3.25516 0
M  V30 9277 N 934.159 -1.57557 0.0367827 0
M  V30 9278 C 935.106 -2.10679 -0.942499 0
M  V30 9279 C 936.076 -1.01068 -1.31812 0
M  V30 9280 O 937.261 -1.28533 -1.41011 0
M  V30 9281 C 934.401 -2.64467 -2.21701 0
M  V30 9282 C 933.514 -3.88114 -1.89715 0
M  V30 9283 C 932.649 -4.30268 -3.11518 0
M  V30 9284 C 931.688 -5.46652 -2.75387 0
M  V30 9285 N 930.825 -5.83927 -3.89838 0
M  V30 9286 H 935.665 -2.94066 -0.482588 0
M  V30 9287 H 933.202 -1.45344 -0.226597 0
M  V30 9288 H 935.16 -2.93745 -2.96259 0
M  V30 9289 H 933.79 -1.83898 -2.65295 0
M  V30 9290 H 932.842 -3.65516 -1.05366 0
M  V30 9291 H 934.154 -4.72743 -1.5911 0
M  V30 9292 H 933.308 -4.61023 -3.94389 0
M  V30 9293 H 932.047 -3.44421 -3.4529 0
M  V30 9294 H 931.052 -5.15583 -1.90929 0
M  V30 9295 H 932.277 -6.34204 -2.42822 0
M  V30 9296 H 930.223 -5.01035 -4.23438 0
M  V30 9297 H 930.14 -6.63214 -3.62883 0
M  V30 9298 H 931.408 -6.19291 -4.73391 0
M  V30 9299 N 935.637 0.236453 -1.55816 0
M  V30 9300 C 937.048 0.80468 -1.68469 0
M  V30 9301 C 937.399 1.85601 -0.636133 0
M  V30 9302 O 936.524 2.15323 0.215622 0
M  V30 9303 C 937.119 1.46634 -3.05424 0
M  V30 9304 C 935.678 1.98214 -3.19981 0
M  V30 9305 C 934.825 0.83695 -2.64368 0
M  V30 9306 H 937.776 0.0120647 -1.58695 0
M  V30 9307 H 937.797 2.33472 -3.00451 0
M  V30 9308 H 937.309 0.700931 -3.81718 0
M  V30 9309 H 935.41 2.77604 -2.4853 0
M  V30 9310 H 935.523 2.17235 -4.2702 0
M  V30 9311 H 933.887 1.24028 -2.22462 0
M  V30 9312 H 934.67 0.084451 -3.43196 0
M  V30 9313 N 937.115 1.49373 0.502552 0
M  V30 9314 C 938.047 1.62045 1.62093 0
M  V30 9315 C 939.06 0.503221 1.54827 0
M  V30 9316 O 940.249 0.775208 1.60788 0
M  V30 9317 C 937.349 1.55971 3.00876 0
M  V30 9318 C 936.522 2.832 3.33341 0
M  V30 9319 C 935.581 2.702 4.51529 0
M  V30 9320 O 934.607 3.44132 4.53389 0
M  V30 9321 N 935.809 1.81642 5.5135 0
M  V30 9322 H 938.574 2.58501 1.51649 0
M  V30 9323 H 936.135 1.46442 0.690396 0
M  V30 9324 H 938.127 1.4493 3.77859 0
M  V30 9325 H 936.697 0.673795 3.05252 0
M  V30 9326 H 935.917 3.08604 2.4527 0
M  V30 9327 H 937.205 3.67551 3.51829 0
M  V30 9328 H 936.603 1.20829 5.52645 0
M  V30 9329 H 935.16 1.76524 6.27441 0
M  V30 9330 N 938.594 -0.753485 1.38421 0
M  V30 9331 C 939.524 -1.8808 1.38377 0
M  V30 9332 C 940.505 -1.68258 0.249664 0
M  V30 9333 O 941.69 -1.88848 0.45276 0
M  V30 9334 C 938.82 -3.25608 1.20818 0
M  V30 9335 C 937.774 -3.60032 2.31433 0
M  V30 9336 C 937.1 -4.96297 1.9898 0
M  V30 9337 C 938.4 -3.64898 3.73694 0
M  V30 9338 H 940.094 -1.88375 2.32713 0
M  V30 9339 H 937.64 -0.90489 1.12017 0
M  V30 9340 H 939.593 -4.04127 1.19412 0
M  V30 9341 H 938.317 -3.25793 0.229433 0
M  V30 9342 H 936.976 -2.83831 2.32025 0
M  V30 9343 H 936.624 -4.93043 0.995889 0
M  V30 9344 H 936.324 -5.20298 2.73063 0
M  V30 9345 H 937.848 -5.77196 1.99193 0
M  V30 9346 H 939.262 -4.33531 3.75132 0
M  V30 9347 H 937.659 -4.00407 4.46983 0
M  V30 9348 H 938.729 -2.65124 4.06002 0
M  V30 9349 N 940.072 -1.23292 -0.981677 0
M  V30 9350 C 941.035 -1.01417 -2.05542 0
M  V30 9351 C 942.035 0.0235354 -1.60783 0
M  V30 9352 O 943.225 -0.216082 -1.72855 0
M  V30 9353 C 940.357 -0.534239 -3.36688 0
M  V30 9354 H 941.55 -1.96702 -2.26381 0
M  V30 9355 H 939.103 -1.05318 -1.1549 0
M  V30 9356 H 939.838 0.422452 -3.21537 0
M  V30 9357 H 939.623 -1.28304 -3.70514 0
M  V30 9358 H 941.113 -0.40179 -4.15663 0
M  V30 9359 N 941.55 1.18024 -1.04442 0
M  V30 9360 C 942.482 2.21294 -0.596799 0
M  V30 9361 C 943.495 1.59305 0.33552 0
M  V30 9362 O 944.684 1.7803 0.129443 0
M  V30 9363 C 941.784 3.38578 0.147648 0
M  V30 9364 C 940.957 4.30143 -0.793484 0
M  V30 9365 C 940.016 5.2612 -0.0916561 0
M  V30 9366 O 939.042 5.64586 -0.72331 0
M  V30 9367 N 940.244 5.68512 1.17364 0
M  V30 9368 H 943.009 2.6032 -1.48504 0
M  V30 9369 H 940.57 1.32847 -0.925374 0
M  V30 9370 H 942.562 3.99812 0.627098 0
M  V30 9371 H 941.132 2.98212 0.937466 0
M  V30 9372 H 940.352 3.66456 -1.45272 0
M  V30 9373 H 941.64 4.88216 -1.43258 0
M  V30 9374 H 941.038 5.39322 1.70729 0
M  V30 9375 H 939.595 6.31925 1.5973 0
M  V30 9376 N 943.028 0.824394 1.34319 0
M  V30 9377 C 943.975 0.245282 2.29493 0
M  V30 9378 C 944.945 -0.630762 1.53657 0
M  V30 9379 O 946.13 -0.572094 1.82021 0
M  V30 9380 C 943.27 -0.585631 3.40095 0
M  V30 9381 C 942.383 0.312821 4.30866 0
M  V30 9382 C 941.518 -0.527801 5.28571 0
M  V30 9383 C 940.557 0.369946 6.10981 0
M  V30 9384 N 939.694 -0.43169 7.00772 0
M  V30 9385 H 944.534 1.06225 2.78425 0
M  V30 9386 H 942.071 0.53533 1.37013 0
M  V30 9387 H 944.029 -1.08271 4.02906 0
M  V30 9388 H 942.659 -1.3677 2.92393 0
M  V30 9389 H 941.711 0.928129 3.68904 0
M  V30 9390 H 943.023 1.00306 4.8861 0
M  V30 9391 H 942.177 -1.0893 5.96841 0
M  V30 9392 H 940.916 -1.25154 4.71368 0
M  V30 9393 H 939.921 0.943577 5.41643 0
M  V30 9394 H 941.146 1.09182 6.70266 0
M  V30 9395 H 939.092 -1.13908 6.46035 0
M  V30 9396 H 939.009 0.200133 7.55735 0
M  V30 9397 H 940.277 -0.975894 7.73367 0
M  V30 9398 N 944.506 -1.46559 0.579492 0
M  V30 9399 C 945.917 -1.8608 0.152052 0
M  V30 9400 C 946.268 -1.48346 -1.28405 0
M  V30 9401 O 945.393 -0.89685 -1.9694 0
M  V30 9402 C 945.988 -3.37729 0.269171 0
M  V30 9403 C 944.547 -3.76258 -0.103376 0
M  V30 9404 C 943.694 -2.70584 0.60659 0
M  V30 9405 H 946.645 -1.3776 0.787904 0
M  V30 9406 H 946.666 -3.77116 -0.506339 0
M  V30 9407 H 946.178 -3.65162 1.31448 0
M  V30 9408 H 944.279 -3.54443 -1.14895 0
M  V30 9409 H 944.392 -4.78335 0.270701 0
M  V30 9410 H 942.756 -2.54656 0.0471984 0
M  V30 9411 H 943.539 -3.00856 1.65349 0
M  V30 9412 N 945.984 -0.3171 -1.54377 0
M  V30 9413 C 947.209 0.292311 -2.0533 0
M  V30 9414 C 947.634 1.45503 -1.19207 0
M  V30 9415 O 946.992 1.80197 -0.199721 0
M  V30 9416 C 947.04 0.710787 -3.53525 0
M  V30 9417 O 946.144 1.81387 -3.70368 0
M  V30 9418 H 945.485 0.0539976 -0.661801 0
M  V30 9419 H 948.015 -0.463629 -1.99278 0
M  V30 9420 H 948.025 0.995216 -3.95676 0
M  V30 9421 H 946.7 -0.139668 -4.15665 0
M  V30 9422 H 945.277 1.52875 -3.40123 0
M  V30 9423 N 947.462 1.57535 -0.0451378 0
M  V30 9424 C 948.394 2.08109 0.960372 0
M  V30 9425 C 949.407 1.0077 1.27864 0
M  V30 9426 O 950.596 1.28351 1.24049 0
M  V30 9427 C 947.696 2.50414 2.28355 0
M  V30 9428 C 946.869 3.8102 2.14808 0
M  V30 9429 C 945.928 4.09702 3.30198 0
M  V30 9430 O 944.954 4.79715 3.0637 0
M  V30 9431 N 946.156 3.61138 4.54489 0
M  V30 9432 H 948.921 2.94999 0.528752 0
M  V30 9433 H 946.482 1.61283 0.141248 0
M  V30 9434 H 948.474 2.66683 3.04405 0
M  V30 9435 H 947.044 1.68805 2.63104 0
M  V30 9436 H 946.264 3.74392 1.23387 0
M  V30 9437 H 947.552 4.66559 2.02978 0
M  V30 9438 H 946.95 3.04527 4.76739 0
M  V30 9439 H 945.507 3.82656 5.27653 0
M  V30 9440 N 948.94 -0.228186 1.55939 0
M  V30 9441 C 950.217 -0.977492 1.69424 0
M  V30 9442 C 950.597 -2.02674 0.590479 0
M  V30 9443 O 949.945 -2.2491 -0.403467 0
M  V30 9444 C 950.155 -1.59394 3.10475 0
M  V30 9445 C 951.503 -2.08871 3.69673 0
M  V30 9446 O 952.527 -1.693 3.13394 0
M  V30 9447 O 951.386 -2.81584 4.68372 0
M  V30 9448 H 948.48 -0.456185 0.6898 0
M  V30 9449 H 951.026 -0.220492 1.68261 0
M  V30 9450 H 949.798 -0.835971 3.82266 0
M  V30 9451 H 949.421 -2.41665 3.15727 0
M  V30 9452 N 950.418 -1.49637 -0.494624 0
M  V30 9453 C 951.664 -1.59681 -1.25019 0
M  V30 9454 C 951.997 -0.285511 -1.9209 0
M  V30 9455 O 951.272 0.711398 -1.81023 0
M  V30 9456 C 951.555 -2.76058 -2.31222 0
M  V30 9457 C 951.408 -4.17002 -1.68611 0
M  V30 9458 C 952.727 -2.88056 -3.32734 0
M  V30 9459 H 949.846 -0.581209 -0.453172 0
M  V30 9460 H 952.488 -1.81944 -0.547391 0
M  V30 9461 H 950.638 -2.57207 -2.91164 0
M  V30 9462 H 952.31 -4.47385 -1.12447 0
M  V30 9463 H 950.553 -4.22352 -0.989991 0
M  V30 9464 H 951.224 -4.94316 -2.45674 0
M  V30 9465 H 953.7 -3.05237 -2.82789 0
M  V30 9466 H 952.576 -3.71151 -4.04399 0
M  V30 9467 H 952.837 -1.97676 -3.95445 0
M  V30 9468 N 951.896 0.746133 -1.38819 0
M  V30 9469 C 953.307 1.32384 -1.31648 0
M  V30 9470 C 953.658 1.96185 0.0243086 0
M  V30 9471 O 952.783 1.95567 0.92641 0
M  V30 9472 C 953.378 2.40712 -2.38418 0
M  V30 9473 C 951.937 2.94185 -2.34803 0
M  V30 9474 C 951.084 1.67639 -2.20891 0
M  V30 9475 H 954.035 0.544457 -1.49068 0
M  V30 9476 H 954.056 3.20833 -2.04564 0
M  V30 9477 H 953.568 1.94247 -3.3599 0
M  V30 9478 H 951.669 3.44959 -1.40834 0
M  V30 9479 H 951.782 3.48057 -3.29231 0
M  V30 9480 H 950.146 1.9155 -1.67871 0
M  V30 9481 H 950.929 1.23242 -3.20416 0
M  V30 9482 N 953.375 1.23811 0.975125 0
M  V30 9483 C 954.786 1.0675 1.53171 0
M  V30 9484 C 955.137 -0.363475 1.92804 0
M  V30 9485 O 954.262 -1.25089 1.76583 0
M  V30 9486 C 954.857 1.93161 2.78342 0
M  V30 9487 C 953.416 1.80346 3.30382 0
M  V30 9488 C 952.563 1.88544 2.03338 0
M  V30 9489 H 955.514 1.37396 0.79423 0
M  V30 9490 H 955.535 1.45951 3.51395 0
M  V30 9491 H 955.047 2.97302 2.49465 0
M  V30 9492 H 953.148 0.790077 3.64127 0
M  V30 9493 H 953.261 2.64026 3.99784 0
M  V30 9494 H 951.625 1.32186 2.17713 0
M  V30 9495 H 952.408 2.94252 1.76836 0
M  V30 9496 N 954.853 -1.17469 1.05066 0
M  V30 9497 C 956.264 -1.69334 0.786304 0
M  V30 9498 C 956.615 -1.83604 -0.691671 0
M  V30 9499 O 955.74 -1.52269 -1.53763 0
M  V30 9500 C 956.335 -3.07572 1.42074 0
M  V30 9501 C 954.894 -3.56609 1.20446 0
M  V30 9502 C 954.041 -2.329 1.50508 0
M  V30 9503 H 956.992 -1.02003 1.21577 0
M  V30 9504 H 957.013 -3.71352 0.829334 0
M  V30 9505 H 956.525 -2.97154 2.49642 0
M  V30 9506 H 954.626 -3.72306 0.147968 0
M  V30 9507 H 954.739 -4.39446 1.90852 0
M  V30 9508 H 953.103 -2.37305 0.925124 0
M  V30 9509 H 953.886 -2.25093 2.59207 0
M  V30 9510 N 956.331 -0.831506 -1.3388 0
M  V30 9511 C 957.294 -0.264773 -2.27666 0
M  V30 9512 C 958.294 0.562273 -1.50649 0
M  V30 9513 O 959.484 0.377131 -1.70069 0
M  V30 9514 C 956.616 0.627814 -3.35069 0
M  V30 9515 H 957.809 -1.09225 -2.79303 0
M  V30 9516 H 955.362 -0.604021 -1.44157 0
M  V30 9517 H 956.097 1.47802 -2.88661 0
M  V30 9518 H 955.882 0.0361552 -3.92083 0
M  V30 9519 H 957.372 1.01786 -4.05005 0
M  V30 9520 N 957.809 1.4625 -0.587256 0
M  V30 9521 C 959.037 2.06744 -0.08033 0
M  V30 9522 C 959.452 1.43527 1.2266 0
M  V30 9523 O 958.809 0.542168 1.74261 0
M  V30 9524 C 958.86 3.61394 0.0873469 0
M  V30 9525 O 958.581 4.22247 -1.16785 0
M  V30 9526 C 960.082 4.38828 0.628095 0
M  V30 9527 H 957.302 0.668354 -0.0595301 0
M  V30 9528 H 959.846 1.87808 -0.809217 0
M  V30 9529 H 958.001 3.79742 0.766473 0
M  V30 9530 H 958.415 5.15176 -0.984565 0
M  V30 9531 H 959.889 5.47613 0.694583 0
M  V30 9532 H 960.366 4.07188 1.64606 0
M  V30 9533 H 960.972 4.25297 -0.0163115 0
M  V30 9534 N 959.287 0.325282 1.54207 0
M  V30 9535 C 960.25 -0.527228 2.23054 0
M  V30 9536 C 961.25 -1.04217 1.22456 0
M  V30 9537 O 962.44 -0.934325 1.47024 0
M  V30 9538 C 959.572 -1.7325 2.93594 0
M  V30 9539 H 960.765 0.0746423 2.99807 0
M  V30 9540 H 958.318 0.0763872 1.56113 0
M  V30 9541 H 959.053 -2.37356 2.20981 0
M  V30 9542 H 958.838 -1.37065 3.67363 0
M  V30 9543 H 960.328 -2.3376 3.46043 0
M  V30 9544 N 960.765 -1.57509 0.0534917 0
M  V30 9545 C 961.728 -2.10563 -0.905307 0
M  V30 9546 C 962.728 -1.02571 -1.23838 0
M  V30 9547 O 963.918 -1.28635 -1.17468 0
M  V30 9548 C 961.05 -2.5918 -2.21447 0
M  V30 9549 H 962.243 -2.96575 -0.445354 0
M  V30 9550 H 959.796 -1.55079 -0.194947 0
M  V30 9551 H 960.531 -1.76568 -2.72019 0
M  V30 9552 H 960.316 -3.38098 -1.98575 0
M  V30 9553 H 961.806 -3.00365 -2.90122 0
M  V30 9554 N 962.243 0.219913 -1.56058 0
M  V30 9555 C 963.206 1.25606 -1.91718 0
M  V30 9556 C 964.206 1.39721 -0.795912 0
M  V30 9557 O 965.396 1.37958 -1.06364 0
M  V30 9558 C 962.528 2.62961 -2.16943 0
M  V30 9559 H 963.721 0.951909 -2.84392 0
M  V30 9560 H 961.274 0.460398 -1.49365 0
M  V30 9561 H 962.009 2.98472 -1.26826 0
M  V30 9562 H 961.794 2.54093 -2.98629 0
M  V30 9563 H 963.284 3.37727 -2.45622 0
M  V30 9564 N 963.721 1.49897 0.486681 0
M  V30 9565 C 964.969 1.59789 1.23742 0
M  V30 9566 C 965.29 0.293056 1.92785 0
M  V30 9567 O 964.56 -0.688534 1.83401 0
M  V30 9568 H 963.14 0.588775 0.459731 0
M  V30 9569 H 965.802 1.86597 0.562808 0
M  V30 9570 H 964.898 2.40121 1.9937 0
M  V30 9571 N 965.199 -0.738761 1.39212 0
M  V30 9572 C 966.447 -1.49529 1.35962 0
M  V30 9573 C 966.768 -1.94948 -0.0450152 0
M  V30 9574 O 966.038 -1.68717 -0.995552 0
M  V30 9575 H 964.618 -0.554692 0.500326 0
M  V30 9576 H 967.28 -0.877255 1.74041 0
M  V30 9577 H 966.376 -2.37919 2.01993 0
M  V30 9578 N 966.677 -1.24326 -0.968545 0
M  V30 9579 C 968.088 -1.07561 -1.52603 0
M  V30 9580 C 968.439 0.353245 -1.92994 0
M  V30 9581 O 967.564 1.24151 -1.77244 0
M  V30 9582 C 968.159 -1.94634 -2.77314 0
M  V30 9583 C 966.718 -1.82095 -3.29421 0
M  V30 9584 C 965.865 -1.8962 -2.02335 0
M  V30 9585 H 968.816 -1.37815 -0.786932 0
M  V30 9586 H 968.837 -1.47812 -3.50616 0
M  V30 9587 H 968.349 -2.98621 -2.47885 0
M  V30 9588 H 966.45 -0.809376 -3.63703 0
M  V30 9589 H 966.563 -2.66142 -3.98378 0
M  V30 9590 H 964.927 -1.33339 -2.17009 0
M  V30 9591 H 965.71 -2.95185 -1.75273 0
M  V30 9592 N 968.156 1.1691 -1.05688 0
M  V30 9593 C 969.567 1.68915 -0.795273 0
M  V30 9594 C 969.918 1.83968 0.681925 0
M  V30 9595 O 969.043 1.53083 1.52953 0
M  V30 9596 C 969.638 3.06814 -1.43703 0
M  V30 9597 C 968.197 3.55965 -1.22335 0
M  V30 9598 C 967.344 2.32099 -1.51741 0
M  V30 9599 H 970.295 1.01357 -1.22116 0
M  V30 9600 H 970.316 3.70907 -0.849016 0
M  V30 9601 H 969.828 2.95826 -2.51214 0
M  V30 9602 H 967.929 3.72222 -0.16771 0
M  V30 9603 H 968.042 4.38427 -1.9318 0
M  V30 9604 H 966.406 2.36811 -0.937696 0
M  V30 9605 H 967.189 2.23715 -2.60397 0
M  V30 9606 N 969.634 0.838594 1.33437 0
M  V30 9607 C 970.584 0.243681 2.26694 0
M  V30 9608 C 971.568 -0.601168 1.49247 0
M  V30 9609 O 972.76 -0.453181 1.711 0
M  V30 9610 C 969.889 -0.580525 3.38356 0
M  V30 9611 C 968.975 0.275819 4.23202 0
M  V30 9612 N 969.366 1.3544 4.87329 0
M  V30 9613 C 967.664 0.0628047 4.45956 0
M  V30 9614 C 968.365 1.87991 5.50486 0
M  V30 9615 N 967.341 1.18143 5.30607 0
M  V30 9616 H 971.143 1.06849 2.73789 0
M  V30 9617 H 968.657 0.683019 1.47338 0
M  V30 9618 H 970.654 -1.02301 4.04153 0
M  V30 9619 H 969.314 -1.40331 2.92809 0
M  V30 9620 H 970.325 1.73729 4.87892 0
M  V30 9621 H 967.002 -0.726563 4.11129 0
M  V30 9622 H 968.392 2.78312 6.11549 0
M  V30 9623 N 971.112 -1.45937 0.595003 0
M  V30 9624 C 972.523 -1.85908 0.171779 0
M  V30 9625 C 972.874 -1.497 -1.26824 0
M  V30 9626 O 971.999 -0.917688 -1.95978 0
M  V30 9627 C 972.594 -3.37425 0.304976 0
M  V30 9628 C 971.153 -3.76346 -0.0634635 0
M  V30 9629 C 970.3 -2.69926 0.635255 0
M  V30 9630 H 973.251 -1.36916 0.802471 0
M  V30 9631 H 973.272 -3.77632 -0.466313 0
M  V30 9632 H 972.784 -3.63747 1.35314 0
M  V30 9633 H 970.885 -3.55642 -1.11129 0
M  V30 9634 H 970.998 -4.78021 0.321419 0
M  V30 9635 H 969.362 -2.54592 0.0742054 0
M  V30 9636 H 970.145 -2.99086 1.68531 0
M  V30 9637 N 972.59 -0.333456 -1.54032 0
M  V30 9638 C 973.522 0.562174 -2.22199 0
M  V30 9639 C 974.535 1.07202 -1.22522 0
M  V30 9640 O 975.724 0.983897 -1.48935 0
M  V30 9641 C 972.824 1.78525 -2.88066 0
M  V30 9642 C 971.997 1.41242 -4.13968 0
M  V30 9643 C 971.056 2.49408 -4.63338 0
M  V30 9644 O 970.082 2.13138 -5.27789 0
M  V30 9645 N 971.284 3.805 -4.38406 0
M  V30 9646 H 974.049 -0.0215629 -2.99692 0
M  V30 9647 H 971.61 -0.157111 -1.61136 0
M  V30 9648 H 973.602 2.50298 -3.18014 0
M  V30 9649 H 972.172 2.2766 -2.14219 0
M  V30 9650 H 971.392 0.525887 -3.90676 0
M  V30 9651 H 972.68 1.13916 -4.95884 0
M  V30 9652 H 972.078 4.12761 -3.86839 0
M  V30 9653 H 970.635 4.48474 -4.72984 0
M  V30 9654 N 974.068 1.57479 -0.061844 0
M  V30 9655 C 974.998 2.15181 0.9066 0
M  V30 9656 C 975.979 1.07624 1.31724 0
M  V30 9657 O 977.164 1.35614 1.39006 0
M  V30 9658 C 974.294 2.70542 2.17771 0
M  V30 9659 C 973.248 3.83178 1.9068 0
M  V30 9660 C 972.574 4.25099 3.24337 0
M  V30 9661 C 973.874 5.07853 1.21994 0
M  V30 9662 H 975.568 2.96355 0.42594 0
M  V30 9663 H 973.114 1.42556 0.203435 0
M  V30 9664 H 975.067 3.09552 2.85929 0
M  V30 9665 H 973.791 1.86575 2.68062 0
M  V30 9666 H 972.45 3.44656 1.24931 0
M  V30 9667 H 972.098 3.38069 3.72449 0
M  V30 9668 H 971.798 5.01021 3.07005 0
M  V30 9669 H 973.322 4.66718 3.93709 0
M  V30 9670 H 974.736 5.44242 1.80204 0
M  V30 9671 H 973.133 5.88987 1.14954 0
M  V30 9672 H 974.203 4.84497 0.197536 0
M  V30 9673 N 975.546 -0.211634 1.56173 0
M  V30 9674 C 976.494 -1.28188 1.94089 0
M  V30 9675 C 977.488 -1.47999 0.824167 0
M  V30 9676 O 978.694 -1.49056 1.00907 0
M  V30 9677 H 975.069 -0.42999 0.616938 0
M  V30 9678 H 977.04 -0.934962 2.83374 0
M  V30 9679 C 975.789 -2.62294 2.28248 0
M  V30 9680 H 975.112 -2.4786 3.13696 0
M  V30 9681 H 976.552 -3.35967 2.58655 0
M  V30 9682 C 975.011 -3.18049 1.11113 0
M  V30 9683 O 975.541 -3.99923 0.377458 0
M  V30 9684 N 973.747 -2.76561 0.892321 0
M  V30 9685 H 973.294 -2.10088 1.49067 0
M  V30 9686 H 973.252 -3.14206 0.110344 0
M  V30 9687 N 977.024 -1.50153 -0.478725 0
M  V30 9688 C 977.971 -1.68458 -1.57767 0
M  V30 9689 C 978.941 -0.5259 -1.57555 0
M  V30 9690 O 980.126 -0.755574 -1.75202 0
M  V30 9691 C 977.266 -1.77772 -2.95789 0
M  V30 9692 C 976.379 -3.05092 -3.05848 0
M  V30 9693 C 975.514 -3.05247 -4.34739 0
M  V30 9694 C 974.553 -4.27053 -4.38512 0
M  V30 9695 N 973.69 -4.24991 -5.58862 0
M  V30 9696 H 978.53 -2.62282 -1.41464 0
M  V30 9697 H 976.067 -1.30023 -0.687921 0
M  V30 9698 H 978.025 -1.81152 -3.75819 0
M  V30 9699 H 976.655 -0.873944 -3.10744 0
M  V30 9700 H 975.707 -3.11219 -2.1874 0
M  V30 9701 H 977.019 -3.95075 -3.04495 0
M  V30 9702 H 976.173 -3.07314 -5.23109 0
M  V30 9703 H 974.912 -2.13081 -4.38689 0
M  V30 9704 H 973.917 -4.25206 -3.4854 0
M  V30 9705 H 975.142 -5.20437 -4.36259 0
M  V30 9706 H 973.088 -3.35674 -5.63612 0
M  V30 9707 H 973.005 -5.08734 -5.59219 0
M  V30 9708 H 974.273 -4.31193 -6.49379 0
M  V30 9709 N 978.502 0.731368 -1.39602 0
M  V30 9710 C 979.727 1.52567 -1.40492 0
M  V30 9711 C 980.152 1.881 -0.00228828 0
M  V30 9712 O 979.51 1.52167 0.985643 0
M  V30 9713 C 979.558 2.78749 -2.2876 0
M  V30 9714 O 978.662 3.7482 -1.71999 0
M  V30 9715 H 978.003 0.460601 -0.478271 0
M  V30 9716 H 980.533 0.902042 -1.83642 0
M  V30 9717 H 980.543 3.27446 -2.43399 0
M  V30 9718 H 979.218 2.5222 -3.30693 0
M  V30 9719 H 977.795 3.33604 -1.66622 0
M  V30 9720 N 979.98 1.24838 0.961938 0
M  V30 9721 C 980.912 1.00369 2.06055 0
M  V30 9722 C 981.925 -0.0288583 1.62774 0
M  V30 9723 O 983.114 0.208853 1.77274 0
M  V30 9724 C 980.214 0.493953 3.35281 0
M  V30 9725 C 979.387 1.59097 4.07439 0
M  V30 9726 C 978.446 1.08288 5.14937 0
M  V30 9727 O 977.472 1.77577 5.40791 0
M  V30 9728 N 978.674 -0.0796836 5.80445 0
M  V30 9729 H 981.439 1.94962 2.27618 0
M  V30 9730 H 979 1.15945 1.12997 0
M  V30 9731 H 980.992 0.138675 4.04462 0
M  V30 9732 H 979.562 -0.357851 3.10545 0
M  V30 9733 H 978.782 2.11817 3.32456 0
M  V30 9734 H 980.07 2.32817 4.52409 0
M  V30 9735 H 979.468 -0.658827 5.6185 0
M  V30 9736 H 978.025 -0.376057 6.50714 0
M  V30 9737 N 981.458 -1.16348 1.06306 0
M  V30 9738 C 982.683 -1.91323 0.800636 0
M  V30 9739 C 983.108 -1.7691 -0.639105 0
M  V30 9740 O 982.466 -1.0945 -1.44535 0
M  V30 9741 C 982.514 -3.40038 1.20027 0
M  V30 9742 O 981.618 -4.11003 0.339142 0
M  V30 9743 H 980.959 -0.596057 0.292595 0
M  V30 9744 H 983.489 -1.47406 1.41889 0
M  V30 9745 H 983.499 -3.90808 1.17188 0
M  V30 9746 H 982.174 -3.49848 2.24898 0
M  V30 9747 H 980.751 -3.70423 0.42911 0
M  V30 9748 N 982.937 -0.845659 -1.3299 0
M  V30 9749 C 983.867 -0.298957 -2.31578 0
M  V30 9750 C 984.848 0.597012 -1.59279 0
M  V30 9751 O 986.033 0.519142 -1.87132 0
M  V30 9752 C 983.163 0.521109 -3.43368 0
M  V30 9753 C 982.117 -0.279651 -4.27085 0
M  V30 9754 C 981.443 0.664591 -5.30554 0
M  V30 9755 C 982.743 -1.50046 -5.00283 0
M  V30 9756 H 984.437 -1.12272 -2.77552 0
M  V30 9757 H 981.983 -0.54132 -1.33438 0
M  V30 9758 H 983.936 0.913921 -4.1137 0
M  V30 9759 H 982.66 1.37815 -2.96099 0
M  V30 9760 H 981.319 -0.654106 -3.60717 0
M  V30 9761 H 980.967 1.51822 -4.79541 0
M  V30 9762 H 980.667 0.132871 -5.8745 0
M  V30 9763 H 982.191 1.05477 -6.01421 0
M  V30 9764 H 983.605 -1.18044 -5.61016 0
M  V30 9765 H 982.002 -1.96946 -5.66862 0
M  V30 9766 H 983.072 -2.26659 -4.28665 0
M  V30 9767 N 984.415 1.45619 -0.602734 0
M  V30 9768 C 985.643 2.06647 -0.102253 0
M  V30 9769 C 986.058 1.4482 1.21131 0
M  V30 9770 O 985.415 0.560621 1.73676 0
M  V30 9771 C 985.466 3.61467 0.0490113 0
M  V30 9772 O 985.187 4.20985 -1.21257 0
M  V30 9773 C 986.688 4.39469 0.581517 0
M  V30 9774 H 983.908 0.667685 -0.0666155 0
M  V30 9775 H 986.452 1.86939 -0.829091 0
M  V30 9776 H 984.607 3.80534 0.726153 0
M  V30 9777 H 985.021 5.14103 -1.03915 0
M  V30 9778 H 986.495 5.48318 0.636462 0
M  V30 9779 H 986.972 4.0891 1.60277 0
M  V30 9780 H 987.578 4.25256 -0.061419 0
M  V30 9781 N 985.893 0.34162 1.53853 0
M  V30 9782 C 986.841 -0.531412 2.26448 0
M  V30 9783 C 987.835 -1.10357 1.28521 0
M  V30 9784 O 989.041 -1.04953 1.46236 0
M  V30 9785 H 985.416 -0.190054 0.727588 0
M  V30 9786 H 987.387 0.102922 2.98222 0
M  V30 9787 C 986.136 -1.67154 3.04885 0
M  V30 9788 H 985.459 -1.24055 3.80066 0
M  V30 9789 H 986.899 -2.25762 3.58898 0
M  V30 9790 C 985.358 -2.59984 2.14266 0
M  V30 9791 O 985.888 -3.62181 1.73746 0
M  V30 9792 N 984.094 -2.28625 1.79385 0
M  V30 9793 H 983.641 -1.45559 2.12533 0
M  V30 9794 H 983.599 -2.90995 1.19035 0
M  V30 9795 N 987.371 -1.57444 0.0701946 0
M  V30 9796 C 988.334 -2.11511 -0.882923 0
M  V30 9797 C 989.334 -1.03879 -1.22743 0
M  V30 9798 O 990.524 -1.29874 -1.16097 0
M  V30 9799 C 987.656 -2.61514 -2.18686 0
M  V30 9800 H 988.849 -2.9703 -0.413873 0
M  V30 9801 H 986.402 -1.55278 -0.178488 0
M  V30 9802 H 987.137 -1.79443 -2.70131 0
M  V30 9803 H 986.922 -3.40185 -1.94978 0
M  V30 9804 H 988.412 -3.03425 -2.86919 0
M  V30 9805 N 988.849 0.203349 -1.56283 0
M  V30 9806 C 990.096 0.92501 -1.80138 0
M  V30 9807 C 990.424 1.83598 -0.64204 0
M  V30 9808 O 989.679 1.92119 0.372658 0
M  V30 9809 C 989.978 1.78016 -3.09912 0
M  V30 9810 C 989.644 1.02088 -4.39191 0
M  V30 9811 C 988.306 0.811208 -4.74313 0
M  V30 9812 C 990.658 0.486037 -5.18929 0
M  V30 9813 C 987.986 0.0550856 -5.86674 0
M  V30 9814 C 990.338 -0.256833 -6.32078 0
M  V30 9815 C 989.002 -0.477594 -6.65789 0
M  V30 9816 H 988.272 0.338485 -0.659173 0
M  V30 9817 H 990.919 0.191923 -1.90536 0
M  V30 9818 H 989.224 2.58167 -2.94715 0
M  V30 9819 H 990.921 2.341 -3.25574 0
M  V30 9820 H 987.511 1.1943 -4.11624 0
M  V30 9821 H 991.695 0.635446 -4.92215 0
M  V30 9822 H 986.951 -0.126006 -6.1127 0
M  V30 9823 H 991.125 -0.678683 -6.93085 0
M  V30 9824 H 988.752 -1.0654 -7.52697 0
M  V30 9825 N 990.327 1.50405 0.470755 0
M  V30 9826 C 991.275 1.6982 1.58946 0
M  V30 9827 C 992.269 0.56407 1.59733 0
M  V30 9828 O 993.475 0.744576 1.63878 0
M  V30 9829 H 989.85 0.536016 0.527438 0
M  V30 9830 H 991.821 2.63662 1.39732 0
M  V30 9831 C 990.57 1.80986 2.96883 0
M  V30 9832 H 989.893 2.67645 2.96996 0
M  V30 9833 H 991.333 1.98596 3.74614 0
M  V30 9834 C 989.792 0.561551 3.32187 0
M  V30 9835 O 990.322 -0.299136 4.00585 0
M  V30 9836 N 988.528 0.415476 2.87615 0
M  V30 9837 H 988.075 1.11691 2.32127 0
M  V30 9838 H 988.033 -0.418592 3.11601 0
M  V30 9839 N 991.805 -0.723954 1.39988 0
M  V30 9840 C 992.735 -1.85103 1.42335 0
M  V30 9841 C 993.716 -1.6769 0.285297 0
M  V30 9842 O 994.901 -1.87846 0.492716 0
M  V30 9843 C 992.031 -3.22972 1.27697 0
M  V30 9844 C 990.985 -3.55041 2.39018 0
M  V30 9845 C 990.311 -4.91965 2.09462 0
M  V30 9846 C 991.611 -3.56889 3.8135 0
M  V30 9847 H 993.305 -1.83396 2.36656 0
M  V30 9848 H 990.851 -0.880926 1.13911 0
M  V30 9849 H 992.804 -4.01503 1.27958 0
M  V30 9850 H 991.528 -3.25233 0.298487 0
M  V30 9851 H 990.187 -2.78845 2.37993 0
M  V30 9852 H 989.835 -4.90819 1.10025 0
M  V30 9853 H 989.535 -5.14389 2.84038 0
M  V30 9854 H 991.059 -5.7284 2.11391 0
M  V30 9855 H 992.473 -4.25476 3.84243 0
M  V30 9856 H 990.87 -3.90836 4.55376 0
M  V30 9857 H 991.94 -2.56452 4.11534 0
M  V30 9858 N 993.283 -1.25346 -0.955304 0
M  V30 9859 C 994.694 -1.09173 -1.51453 0
M  V30 9860 C 995.045 0.332755 -1.93358 0
M  V30 9861 O 994.17 1.22264 -1.78551 0
M  V30 9862 C 994.765 -1.97564 -2.75234 0
M  V30 9863 C 993.324 -1.85579 -3.27471 0
M  V30 9864 C 992.471 -1.91755 -2.00313 0
M  V30 9865 H 995.422 -1.38642 -0.772271 0
M  V30 9866 H 995.443 -1.51523 -3.49029 0
M  V30 9867 H 994.955 -3.01233 -2.44704 0
M  V30 9868 H 993.056 -0.847906 -3.62824 0
M  V30 9869 H 993.169 -2.70353 -3.95533 0
M  V30 9870 H 991.533 -1.35633 -2.15582 0
M  V30 9871 H 992.316 -2.97028 -1.72132 0
M  V30 9872 N 994.761 1.15782 -1.06922 0
M  V30 9873 C 995.671 2.24008 -0.696948 0
M  V30 9874 C 996.687 1.71569 0.289862 0
M  V30 9875 O 997.863 2.00929 0.137585 0
M  V30 9876 C 994.928 3.46568 -0.0957895 0
M  V30 9877 C 993.989 4.14017 -1.13528 0
M  V30 9878 C 993.222 5.30725 -0.562713 0
M  V30 9879 O 993.445 5.66992 0.62259 0
M  V30 9880 O 992.379 5.87572 -1.30549 0
M  V30 9881 H 996.205 2.58174 -1.59938 0
M  V30 9882 H 993.79 1.2342 -0.841889 0
M  V30 9883 H 995.672 4.20731 0.237407 0
M  V30 9884 H 994.347 3.14161 0.780027 0
M  V30 9885 H 993.254 3.41795 -1.52076 0
M  V30 9886 H 994.587 4.50493 -1.98285 0
M  V30 9887 N 996.239 0.8527 1.3254 0
M  V30 9888 C 997.65 0.510012 1.79599 0
M  V30 9889 C 998.001 -0.972002 1.70431 0
M  V30 9890 O 997.126 -1.7581 1.26173 0
M  V30 9891 C 997.721 0.918986 3.26098 0
M  V30 9892 C 996.28 0.628227 3.7112 0
M  V30 9893 C 995.427 1.11979 2.53685 0
M  V30 9894 H 998.378 1.04009 1.19866 0
M  V30 9895 H 998.399 0.234577 3.79776 0
M  V30 9896 H 997.911 1.99765 3.32739 0
M  V30 9897 H 996.012 -0.4398 3.69995 0
M  V30 9898 H 996.125 1.19315 4.64005 0
M  V30 9899 H 994.489 0.540133 2.48907 0
M  V30 9900 H 995.272 2.20552 2.63081 0
M  V30 9901 N 997.718 -1.45297 0.610449 0
M  V30 9902 C 998.681 -2.28995 -0.0968194 0
M  V30 9903 C 999.681 -1.39923 -0.792353 0
M  V30 9904 O 1000.87 -1.62014 -0.64008 0
M  V30 9905 C 998.003 -3.21013 -1.14731 0
M  V30 9906 H 999.196 -2.93012 0.639082 0
M  V30 9907 H 996.749 -1.51867 0.369624 0
M  V30 9908 H 997.484 -2.61803 -1.91388 0
M  V30 9909 H 997.269 -3.86628 -0.652753 0
M  V30 9910 H 998.759 -3.8394 -1.64256 0
M  V30 9911 N 999.196 -0.349774 -1.5367 0
M  V30 9912 C 1000.61 0.132815 -1.86227 0
M  V30 9913 C 1000.96 1.49479 -1.27084 0
M  V30 9914 O 1000.08 2.08292 -0.58679 0
M  V30 9915 C 1000.68 0.247775 -3.37893 0
M  V30 9916 C 999.237 0.674603 -3.70305 0
M  V30 9917 C 998.384 -0.187869 -2.76663 0
M  V30 9918 H 1001.33 -0.569148 -1.48143 0
M  V30 9919 H 1001.36 1.07418 -3.65023 0
M  V30 9920 H 1000.87 -0.743635 -3.80909 0
M  V30 9921 H 998.969 1.67481 -3.32837 0
M  V30 9922 H 999.082 0.460177 -4.76885 0
M  V30 9923 H 997.446 0.340779 -2.5241 0
M  V30 9924 H 998.229 -1.17653 -3.2251 0
M  V30 9925 N 1000.67 1.57404 -0.0785433 0
M  V30 9926 C 1002.08 1.81118 0.45311 0
M  V30 9927 C 1002.44 0.992963 1.69218 0
M  V30 9928 O 1001.56 0.217448 2.15305 0
M  V30 9929 C 1002.16 3.28506 0.82882 0
M  V30 9930 C 1000.71 3.53042 1.3053 0
M  V30 9931 C 999.862 2.75739 0.29378 0
M  V30 9932 H 1002.81 1.55758 -0.304171 0
M  V30 9933 H 1002.83 3.40924 1.68971 0
M  V30 9934 H 1002.35 3.88031 -0.0731826 0
M  V30 9935 H 1000.45 2.98829 2.22558 0
M  V30 9936 H 1000.56 4.61724 1.27857 0
M  V30 9937 H 998.924 2.42703 0.772477 0
M  V30 9938 H 999.707 3.38005 -0.600613 0
M  V30 9939 N 1002.15 -0.195058 1.56388 0
M  V30 9940 C 1003.57 -0.545894 1.49974 0
M  V30 9941 C 1003.77 -1.85851 0.778568 0
M  V30 9942 O 1002.82 -2.50346 0.329105 0
M  V30 9943 C 1004.14 -0.600599 2.94641 0
M  V30 9944 C 1005.68 -0.689429 3.05313 0
M  V30 9945 C 1006.16 -0.775243 4.51391 0
M  V30 9946 N 1007.65 -0.838769 4.55542 0
M  V30 9947 C 1008.39 -0.925337 5.65884 0
M  V30 9948 N 1007.88 -0.974204 6.85916 0
M  V30 9949 N 1009.67 -0.962528 5.53798 0
M  V30 9950 H 1001.83 0.66595 2.0169 0
M  V30 9951 H 1004.09 0.237215 0.917842 0
M  V30 9952 H 1003.79 0.29478 3.50462 0
M  V30 9953 H 1003.67 -1.45528 3.47996 0
M  V30 9954 H 1006.06 -1.57524 2.4954 0
M  V30 9955 H 1006.14 0.191451 2.55083 0
M  V30 9956 H 1005.78 0.106215 5.07789 0
M  V30 9957 H 1005.71 -1.67193 4.99354 0
M  V30 9958 H 1008.2 -0.810249 3.69112 0
M  V30 9959 H 1008.51 -1.04077 7.6576 0
M  V30 9960 H 1006.86 -0.942881 6.88574 0
M  V30 9961 H 1010.05 -0.921188 4.58946 0
M  V30 9962 H 1010.22 -1.02653 6.39817 0
M  V30 9963 N 1003.63 -1.50653 -0.462772 0
M  V30 9964 C 1005.04 -1.54821 -1.04342 0
M  V30 9965 C 1005.39 -0.356595 -1.92932 0
M  V30 9966 O 1004.52 0.529579 -2.0982 0
M  V30 9967 C 1005.11 -2.80571 -1.89909 0
M  V30 9968 C 1003.67 -2.87394 -2.43067 0
M  V30 9969 C 1002.82 -2.49206 -1.21621 0
M  V30 9970 H 1005.77 -1.56797 -0.245048 0
M  V30 9971 H 1005.79 -2.62897 -2.75074 0
M  V30 9972 H 1005.3 -3.67281 -1.25405 0
M  V30 9973 H 1003.4 -2.05055 -3.111 0
M  V30 9974 H 1003.52 -3.90477 -2.77605 0
M  V30 9975 H 1001.88 -2.01829 -1.55361 0
M  V30 9976 H 1002.66 -3.38233 -0.587669 0
M  V30 9977 N 1005.11 0.71652 -1.4037 0
M  V30 9978 C 1006.33 1.51069 -1.42102 0
M  V30 9979 C 1006.76 1.88087 -0.0222387 0
M  V30 9980 O 1006.12 1.53204 0.969448 0
M  V30 9981 C 1006.16 2.76307 -2.31704 0
M  V30 9982 O 1005.27 3.72975 -1.75964 0
M  V30 9983 H 1004.61 0.455502 -0.483129 0
M  V30 9984 H 1007.14 0.882514 -1.84588 0
M  V30 9985 H 1007.15 3.24846 -2.46859 0
M  V30 9986 H 1005.82 2.48698 -3.3335 0
M  V30 9987 H 1004.4 3.31818 -1.70151 0
M  V30 9988 N 1006.59 1.25851 0.948643 0
M  V30 9989 C 1007.52 1.09248 2.06367 0
M  V30 9990 C 1008.5 -0.000205168 1.701 0
M  V30 9991 O 1009.68 0.170442 1.93451 0
M  V30 9992 C 1006.81 0.716777 3.39823 0
M  V30 9993 C 1005.77 1.76036 3.90122 0
M  V30 9994 C 1005.09 1.23918 5.20143 0
M  V30 9995 C 1006.39 3.16039 4.15833 0
M  V30 9996 H 1008.09 2.02518 2.20515 0
M  V30 9997 H 1005.63 0.975093 1.05962 0
M  V30 9998 H 1007.59 0.587531 4.17284 0
M  V30 9999 H 1006.31 -0.251626 3.25629 0
M  V30 10000 H 1004.97 1.87815 3.14835 0
M  V30 10001 H 1004.62 0.260836 5.02323 0
M  V30 10002 H 1004.32 1.93673 5.54765 0
M  V30 10003 H 1005.84 1.12245 6.00194 0
M  V30 10004 H 1007.25 3.0738 4.83933 0
M  V30 10005 H 1005.65 3.83317 4.61723 0
M  V30 10006 H 1006.72 3.62652 3.21887 0
M  V30 10007 N 1008.06 -1.15214 1.07534 0
M  V30 10008 C 1009.29 -1.90463 0.820883 0
M  V30 10009 C 1009.71 -1.77578 -0.620305 0
M  V30 10010 O 1009.07 -1.10976 -1.43366 0
M  V30 10011 C 1009.12 -3.38746 1.23627 0
M  V30 10012 O 1008.22 -4.1062 0.382715 0
M  V30 10013 H 1007.57 -0.59292 0.298901 0
M  V30 10014 H 1010.1 -1.45893 1.43445 0
M  V30 10015 H 1010.11 -3.89543 1.21327 0
M  V30 10016 H 1008.78 -3.47443 2.28596 0
M  V30 10017 H 1007.36 -3.69947 0.468374 0
M  V30 10018 N 1009.54 -0.859717 -1.32086 0
M  V30 10019 C 1010.47 -0.265258 -2.2766 0
M  V30 10020 C 1011.49 0.565889 -1.52648 0
M  V30 10021 O 1012.68 0.389554 -1.74197 0
M  V30 10022 C 1009.78 0.643397 -3.32737 0
M  V30 10023 C 1008.95 -0.153024 -4.37132 0
M  V30 10024 C 1008.01 0.682176 -5.21759 0
M  V30 10025 O 1007.03 0.113878 -5.69086 0
M  V30 10026 N 1008.24 1.99602 -5.45105 0
M  V30 10027 H 1011 -1.08653 -2.79311 0
M  V30 10028 H 1008.56 -0.720191 -1.45 0
M  V30 10029 H 1010.55 1.20759 -3.86263 0
M  V30 10030 H 1009.12 1.36535 -2.81206 0
M  V30 10031 H 1008.34 -0.898657 -3.8382 0
M  V30 10032 H 1009.63 -0.699877 -5.03963 0
M  V30 10033 H 1009.03 2.481 -5.08393 0
M  V30 10034 H 1007.59 2.50823 -6.01607 0
M  V30 10035 N 1011.02 1.44971 -0.618145 0
M  V30 10036 C 1012.3 1.95539 -0.0489895 0
M  V30 10037 C 1012.68 1.5604 1.42179 0
M  V30 10038 O 1012.03 0.82809 2.12967 0
M  V30 10039 C 1012.24 3.48044 -0.258193 0
M  V30 10040 C 1013.58 4.24354 -0.144541 0
M  V30 10041 O 1014.61 3.55699 -0.18887 0
M  V30 10042 O 1013.47 5.46486 -0.038519 0
M  V30 10043 H 1010.56 0.826466 0.0297256 0
M  V30 10044 H 1013.11 1.55086 -0.688944 0
M  V30 10045 H 1011.88 3.69798 -1.27926 0
M  V30 10046 H 1011.5 3.95412 0.416522 0
M  V30 10047 N 1012.5 0.357919 1.53482 0
M  V30 10048 C 1013.41 -0.500273 2.29204 0
M  V30 10049 C 1014.42 -1.09936 1.3487 0
M  V30 10050 O 1015.6 -1.11195 1.67921 0
M  V30 10051 C 1012.67 -1.62828 3.06085 0
M  V30 10052 C 1011.73 -1.05751 4.16071 0
M  V30 10053 C 1010.96 -2.13176 4.89277 0
M  V30 10054 O 1011.18 -3.34153 4.62274 0
M  V30 10055 O 1010.12 -1.76663 5.7539 0
M  V30 10056 H 1013.94 0.115696 3.0348 0
M  V30 10057 H 1011.53 0.122527 1.48897 0
M  V30 10058 H 1013.41 -2.28427 3.54117 0
M  V30 10059 H 1012.08 -2.22979 2.34653 0
M  V30 10060 H 1010.99 -0.365642 3.72309 0
M  V30 10061 H 1012.32 -0.500661 4.89647 0
M  V30 10062 N 1013.98 -1.5736 0.0868897 0
M  V30 10063 C 1015.22 -1.94341 -0.579598 0
M  V30 10064 C 1015.56 -0.968238 -1.68341 0
M  V30 10065 O 1014.83 8.29649e-05 -1.945 0
M  V30 10066 C 1015.11 -3.41497 -1.14245 0
M  V30 10067 C 1014.97 -4.49778 -0.044255 0
M  V30 10068 C 1016.29 -3.89788 -2.04336 0
M  V30 10069 H 1013.4 -0.70668 -0.20922 0
M  V30 10070 H 1016.05 -1.89359 0.15593 0
M  V30 10071 H 1014.2 -3.45873 -1.76929 0
M  V30 10072 H 1015.87 -4.57517 0.58959 0
M  V30 10073 H 1014.11 -4.293 0.623207 0
M  V30 10074 H 1014.78 -5.4992 -0.478749 0
M  V30 10075 H 1017.26 -3.87513 -1.51569 0
M  V30 10076 H 1016.13 -4.93335 -2.40648 0
M  V30 10077 H 1016.4 -3.28603 -2.95757 0
M  V30 10078 N 1015.45 0.186762 -1.56489 0
M  V30 10079 C 1016.4 1.23141 -1.95205 0
M  V30 10080 C 1017.37 1.44799 -0.81378 0
M  V30 10081 O 1018.56 1.57795 -1.07263 0
M  V30 10082 C 1015.7 2.56926 -2.30397 0
M  V30 10083 C 1014.81 2.42777 -3.57328 0
M  V30 10084 C 1013.94 3.69323 -3.81804 0
M  V30 10085 C 1012.98 3.50041 -5.02133 0
M  V30 10086 N 1012.12 4.68619 -5.2282 0
M  V30 10087 H 1016.96 0.894256 -2.84266 0
M  V30 10088 H 1014.5 0.430187 -1.40669 0
M  V30 10089 H 1016.46 3.3488 -2.4882 0
M  V30 10090 H 1015.09 2.88668 -1.44466 0
M  V30 10091 H 1014.14 1.56078 -3.46906 0
M  V30 10092 H 1015.45 2.24468 -4.45439 0
M  V30 10093 H 1014.6 4.55715 -4.00511 0
M  V30 10094 H 1013.34 3.90595 -2.92039 0
M  V30 10095 H 1012.35 2.62034 -4.8334 0
M  V30 10096 H 1013.57 3.30206 -5.93414 0
M  V30 10097 H 1011.52 4.90139 -4.36005 0
M  V30 10098 H 1011.44 4.53165 -6.05126 0
M  V30 10099 H 1012.7 5.56338 -5.45993 0
M  V30 10100 N 1016.93 1.50896 0.454776 0
M  V30 10101 C 1017.9 1.70377 1.53312 0
M  V30 10102 C 1018.9 0.57408 1.50203 0
M  V30 10103 O 1020.09 0.841374 1.52534 0
M  V30 10104 C 1017.22 1.74411 2.92905 0
M  V30 10105 H 1018.41 2.66599 1.37349 0
M  V30 10106 H 1015.96 1.40622 0.68228 0
M  V30 10107 H 1016.7 0.799408 3.14293 0
M  V30 10108 H 1016.48 2.56496 2.96568 0
M  V30 10109 H 1017.97 1.91382 3.71164 0
M  V30 10110 N 1018.41 -0.709066 1.40748 0
M  V30 10111 C 1019.32 -1.85314 1.43861 0
M  V30 10112 C 1020.34 -1.70832 0.330539 0
M  V30 10113 O 1021.51 -1.92983 0.576152 0
M  V30 10114 C 1018.58 -3.21174 1.30568 0
M  V30 10115 C 1017.64 -3.47863 2.51574 0
M  V30 10116 C 1016.87 -4.77241 2.38906 0
M  V30 10117 O 1017.09 -5.52791 1.40636 0
M  V30 10118 O 1016.03 -5.04413 3.28407 0
M  V30 10119 H 1019.85 -1.85644 2.40354 0
M  V30 10120 H 1017.44 -0.860352 1.2214 0
M  V30 10121 H 1019.32 -4.02313 1.25388 0
M  V30 10122 H 1018 -3.21557 0.371841 0
M  V30 10123 H 1016.9 -2.66708 2.62331 0
M  V30 10124 H 1018.24 -3.52283 3.43741 0
M  V30 10125 N 1019.89 -1.26353 -0.941956 0
M  V30 10126 C 1021.12 -1.14626 -1.72245 0
M  V30 10127 C 1021.53 0.298588 -1.86424 0
M  V30 10128 O 1020.89 1.2045 -1.37106 0
M  V30 10129 C 1020.94 -1.80933 -3.12963 0
M  V30 10130 O 1020.66 -3.19771 -2.99463 0
M  V30 10131 C 1022.16 -1.7515 -4.07231 0
M  V30 10132 H 1019.38 -0.3992 -0.539333 0
M  V30 10133 H 1021.93 -1.66958 -1.1809 0
M  V30 10134 H 1020.08 -1.32541 -3.64021 0
M  V30 10135 H 1020.5 -3.52571 -3.88322 0
M  V30 10136 H 1021.97 -2.26183 -5.03533 0
M  V30 10137 H 1022.45 -0.717855 -4.33294 0
M  V30 10138 H 1023.05 -2.2309 -3.62093 0
M  V30 10139 N 1021.37 1.14642 -1.08144 0
M  V30 10140 C 1022.62 1.84964 -0.804437 0
M  V30 10141 C 1022.93 1.8369 0.672106 0
M  V30 10142 O 1024.14 2.49775 1.06417 0
M  V30 10143 C 1022.59 3.32015 -1.38904 0
M  V30 10144 C 1022.2 3.41713 -2.89718 0
M  V30 10145 C 1023.94 4.07467 -1.19041 0
M  V30 10146 C 1021.85 4.82958 -3.41329 0
M  V30 10147 H 1020.78 0.692932 -0.297256 0
M  V30 10148 H 1023.43 1.29255 -1.30251 0
M  V30 10149 H 1021.81 3.87445 -0.818679 0
M  V30 10150 H 1022.99 2.96347 -3.52867 0
M  V30 10151 H 1021.3 2.79713 -3.08463 0
M  V30 10152 H 1023.9 5.1172 -1.55069 0
M  V30 10153 H 1024.24 4.16097 -0.130027 0
M  V30 10154 H 1024.78 3.58329 -1.72757 0
M  V30 10155 H 1021.51 4.79515 -4.46929 0
M  V30 10156 H 1021.03 5.28873 -2.82937 0
M  V30 10157 H 1022.71 5.51841 -3.37759 0
M  V30 10158 N 1022.85 0.866709 1.31628 0
M  V30 10159 C 1024.26 0.558188 1.49521 0
M  V30 10160 C 1024.46 -0.90844 1.7986 0
M  V30 10161 O 1023.52 -1.6908 1.87531 0
M  V30 10162 C 1024.83 1.45559 2.63122 0
M  V30 10163 C 1026.38 1.45728 2.77006 0
M  V30 10164 C 1026.85 2.34017 3.937 0
M  V30 10165 N 1028.34 2.31879 4.00982 0
M  V30 10166 C 1029.08 2.96915 4.90539 0
M  V30 10167 N 1028.58 3.71109 5.85021 0
M  V30 10168 N 1030.37 2.86241 4.83759 0
M  V30 10169 H 1022.52 1.81574 1.10203 0
M  V30 10170 H 1024.78 0.77621 0.544244 0
M  V30 10171 H 1024.49 2.49904 2.47469 0
M  V30 10172 H 1024.36 1.15174 3.59186 0
M  V30 10173 H 1026.75 0.421419 2.92075 0
M  V30 10174 H 1026.83 1.80134 1.81619 0
M  V30 10175 H 1026.47 3.37678 3.79389 0
M  V30 10176 H 1026.4 1.96937 4.88388 0
M  V30 10177 H 1028.9 1.77948 3.33381 0
M  V30 10178 H 1029.21 4.1787 6.5008 0
M  V30 10179 H 1027.55 3.75217 5.8501 0
M  V30 10180 H 1030.74 2.27819 4.08921 0
M  V30 10181 H 1030.92 3.37206 5.5335 0
M  V30 10182 N 1024.32 -1.44642 0.625825 0
M  V30 10183 C 1025.55 -2.06971 0.133373 0
M  V30 10184 C 1025.97 -1.46421 -1.18078 0
M  V30 10185 O 1025.33 -0.563676 -1.72315 0
M  V30 10186 C 1025.38 -3.6059 0.0265097 0
M  V30 10187 O 1024.48 -3.99615 -1.01889 0
M  V30 10188 H 1023.82 -0.658873 0.0823568 0
M  V30 10189 H 1026.35 -1.85601 0.861002 0
M  V30 10190 H 1026.36 -4.07663 -0.1658 0
M  V30 10191 H 1025.04 -4.04043 0.985986 0
M  V30 10192 H 1023.62 -3.64183 -0.801577 0
M  V30 10193 N 1025.8 -0.366053 -1.5329 0
M  V30 10194 C 1026.73 0.47211 -2.28677 0
M  V30 10195 C 1027.71 1.08353 -1.31125 0
M  V30 10196 O 1028.9 1.10069 -1.59995 0
M  V30 10197 C 1026.03 1.61174 -3.07637 0
M  V30 10198 C 1024.98 1.12755 -4.12881 0
M  V30 10199 C 1024.31 2.35745 -4.79925 0
M  V30 10200 C 1025.61 0.211954 -5.2187 0
M  V30 10201 H 1027.3 -0.156838 -2.98989 0
M  V30 10202 H 1024.85 -0.0768709 -1.43795 0
M  V30 10203 H 1026.8 2.20473 -3.59123 0
M  V30 10204 H 1025.52 2.26793 -2.35016 0
M  V30 10205 H 1024.18 0.557234 -3.6234 0
M  V30 10206 H 1023.83 2.99821 -4.03877 0
M  V30 10207 H 1023.53 2.04019 -5.51044 0
M  V30 10208 H 1025.06 2.95729 -5.34207 0
M  V30 10209 H 1026.47 0.71244 -5.68856 0
M  V30 10210 H 1024.87 -0.0144501 -6.00098 0
M  V30 10211 H 1025.94 -0.745753 -4.79131 0
M  V30 10212 N 1027.28 1.57312 -0.0952337 0
M  V30 10213 C 1028.7 1.57445 0.261416 0
M  V30 10214 C 1028.9 1.10639 1.68408 0
M  V30 10215 O 1027.95 0.782912 2.40056 0
M  V30 10216 C 1029.26 3.00659 0.0497206 0
M  V30 10217 C 1030.81 3.1278 0.117459 0
M  V30 10218 C 1031.29 4.57952 -0.0662441 0
M  V30 10219 N 1032.78 4.63199 -0.0114146 0
M  V30 10220 C 1033.51 5.73255 -0.128799 0
M  V30 10221 N 1033.01 6.92146 -0.301026 0
M  V30 10222 N 1034.8 5.62056 -0.0700599 0
M  V30 10223 H 1026.95 1.86045 -1.02475 0
M  V30 10224 H 1029.22 0.858726 -0.401614 0
M  V30 10225 H 1028.92 3.39102 -0.932888 0
M  V30 10226 H 1028.8 3.68792 0.791975 0
M  V30 10227 H 1031.18 2.74209 1.09057 0
M  V30 10228 H 1031.26 2.47238 -0.656288 0
M  V30 10229 H 1030.91 4.97217 -1.03623 0
M  V30 10230 H 1030.84 5.21555 0.727198 0
M  V30 10231 H 1033.33 3.77712 0.119154 0
M  V30 10232 H 1033.64 7.71855 -0.382104 0
M  V30 10233 H 1031.99 6.94184 -0.336695 0
M  V30 10234 H 1035.18 4.68057 0.0633587 0
M  V30 10235 H 1035.35 6.4779 -0.164991 0
M  V30 10236 N 1028.76 -0.17846 1.56586 0
M  V30 10237 C 1029.7 -1.22104 1.95855 0
M  V30 10238 C 1030.67 -1.44366 0.821447 0
M  V30 10239 O 1031.86 -1.57224 1.08098 0
M  V30 10240 C 1029 -2.55701 2.31757 0
M  V30 10241 C 1028.11 -2.40879 3.5861 0
M  V30 10242 C 1027.25 -3.67293 3.83757 0
M  V30 10243 C 1026.29 -3.47373 5.03982 0
M  V30 10244 N 1025.42 -4.65839 5.25298 0
M  V30 10245 H 1030.26 -0.879168 2.84736 0
M  V30 10246 H 1027.8 -0.422721 1.40895 0
M  V30 10247 H 1029.76 -3.33556 2.50592 0
M  V30 10248 H 1028.39 -2.87898 1.45995 0
M  V30 10249 H 1027.44 -1.54236 3.47729 0
M  V30 10250 H 1028.75 -2.22102 4.46623 0
M  V30 10251 H 1027.91 -4.53584 4.02922 0
M  V30 10252 H 1026.65 -3.89041 2.94107 0
M  V30 10253 H 1025.65 -2.59467 4.84723 0
M  V30 10254 H 1026.88 -3.27055 5.95157 0
M  V30 10255 H 1024.82 -4.8782 4.38598 0
M  V30 10256 H 1024.74 -4.4995 6.0752 0
M  V30 10257 H 1026.01 -5.53435 5.48936 0
M  V30 10258 N 1030.24 -1.51135 -0.446768 0
M  V30 10259 C 1031.46 -1.67411 -1.22427 0
M  V30 10260 C 1031.89 -0.367009 -1.84485 0
M  V30 10261 O 1031.24 0.67185 -1.68392 0
M  V30 10262 C 1031.29 -2.78473 -2.29096 0
M  V30 10263 O 1030.4 -2.41419 -3.34351 0
M  V30 10264 H 1029.74 -0.558512 -0.359111 0
M  V30 10265 H 1032.27 -1.97648 -0.5288 0
M  V30 10266 H 1032.28 -3.02277 -2.7403 0
M  V30 10267 H 1030.95 -3.73326 -1.83304 0
M  V30 10268 H 1029.53 -2.28152 -2.9496 0
M  V30 10269 N 1031.71 0.701592 -1.41122 0
M  V30 10270 C 1032.96 1.4616 -1.40155 0
M  V30 10271 C 1033.29 1.94498 -0.00861553 0
M  V30 10272 O 1032.54 1.69484 0.978452 0
M  V30 10273 C 1032.84 2.693 -2.34973 0
M  V30 10274 C 1032.51 2.39652 -3.81939 0
M  V30 10275 C 1031.17 2.31277 -4.21977 0
M  V30 10276 C 1033.52 2.15076 -4.74755 0
M  V30 10277 C 1030.85 1.96413 -5.52846 0
M  V30 10278 C 1033.2 1.81722 -6.05937 0
M  V30 10279 C 1031.87 1.71838 -6.45002 0
M  V30 10280 H 1031.14 0.534837 -0.512865 0
M  V30 10281 H 1033.78 0.802425 -1.73878 0
M  V30 10282 H 1032.09 3.40123 -1.94484 0
M  V30 10283 H 1033.79 3.27427 -2.31501 0
M  V30 10284 H 1030.38 2.47063 -3.50226 0
M  V30 10285 H 1034.56 2.20495 -4.4463 0
M  V30 10286 H 1029.82 1.87308 -5.82001 0
M  V30 10287 H 1033.99 1.61723 -6.77362 0
M  V30 10288 H 1031.62 1.44591 -7.46323 0
M  V30 10289 N 1033.19 1.2685 0.935242 0
M  V30 10290 C 1034.15 1.08975 2.01636 0
M  V30 10291 C 1035.15 0.0361543 1.60759 0
M  V30 10292 O 1036.34 0.280087 1.71934 0
M  V30 10293 C 1033.48 0.658831 3.34473 0
M  V30 10294 H 1034.67 2.04968 2.18925 0
M  V30 10295 H 1032.22 1.09531 1.11501 0
M  V30 10296 H 1032.96 -0.302824 3.22883 0
M  V30 10297 H 1032.74 1.41967 3.65497 0
M  V30 10298 H 1034.23 0.555783 4.13885 0
M  V30 10299 N 1034.67 -1.14067 1.0875 0
M  V30 10300 C 1035.9 -1.89582 0.841038 0
M  V30 10301 C 1036.32 -1.78226 -0.601436 0
M  V30 10302 O 1035.68 -1.12491 -1.42181 0
M  V30 10303 C 1035.73 -3.37415 1.27213 0
M  V30 10304 O 1034.83 -4.10191 0.426246 0
M  V30 10305 H 1034.17 -0.589716 0.305173 0
M  V30 10306 H 1036.7 -1.44364 1.44984 0
M  V30 10307 H 1036.71 -3.88234 1.25451 0
M  V30 10308 H 1035.39 -3.44999 2.32268 0
M  V30 10309 H 1033.96 -3.69429 0.507585 0
M  V30 10310 N 1036.15 -0.873678 -1.31166 0
M  V30 10311 C 1037.08 -0.348011 -2.30892 0
M  V30 10312 C 1038.06 0.563092 -1.60509 0
M  V30 10313 O 1039.24 0.479332 -1.88192 0
M  V30 10314 C 1036.37 0.448158 -3.44396 0
M  V30 10315 C 1035.33 -0.370179 -4.26396 0
M  V30 10316 C 1034.65 0.551903 -5.31844 0
M  V30 10317 C 1035.95 -1.60624 -4.96988 0
M  V30 10318 H 1037.65 -1.18134 -2.75109 0
M  V30 10319 H 1035.19 -0.569502 -1.3226 0
M  V30 10320 H 1037.15 0.826458 -4.13216 0
M  V30 10321 H 1035.87 1.31503 -2.98956 0
M  V30 10322 H 1034.53 -0.730472 -3.59249 0
M  V30 10323 H 1034.18 1.41616 -4.82653 0
M  V30 10324 H 1033.88 0.00823478 -5.87599 0
M  V30 10325 H 1035.4 0.926965 -6.03523 0
M  V30 10326 H 1036.82 -1.29917 -5.58386 0
M  V30 10327 H 1035.21 -2.08926 -5.62557 0
M  V30 10328 H 1036.28 -2.357 -4.23761 0
M  V30 10329 N 1037.63 1.44308 -0.633487 0
M  V30 10330 C 1038.87 2.02023 -0.138917 0
M  V30 10331 C 1039.2 1.49841 1.24008 0
M  V30 10332 O 1038.46 0.673718 1.83738 0
M  V30 10333 C 1038.76 3.57316 -0.0773886 0
M  V30 10334 C 1038.42 4.28762 -1.39548 0
M  V30 10335 C 1037.08 4.47997 -1.75648 0
M  V30 10336 C 1039.44 4.69391 -2.26542 0
M  V30 10337 C 1036.76 5.05121 -2.98445 0
M  V30 10338 C 1039.12 5.27876 -3.48612 0
M  V30 10339 C 1037.78 5.45329 -3.84932 0
M  V30 10340 H 1037.05 0.739254 -0.0508333 0
M  V30 10341 H 1039.7 1.73043 -0.820271 0
M  V30 10342 H 1038 3.85724 0.687345 0
M  V30 10343 H 1039.7 3.99706 0.321837 0
M  V30 10344 H 1036.29 4.14122 -1.10456 0
M  V30 10345 H 1040.47 4.54241 -1.99946 0
M  V30 10346 H 1035.73 5.16821 -3.26658 0
M  V30 10347 H 1039.9 5.58307 -4.16253 0
M  V30 10348 H 1037.53 5.8936 -4.80166 0
M  V30 10349 N 1039.1 0.374177 1.53094 0
M  V30 10350 C 1040.33 -0.215903 2.06273 0
M  V30 10351 C 1040.75 -1.40979 1.24526 0
M  V30 10352 O 1040.11 -1.79331 0.266462 0
M  V30 10353 C 1040.16 -0.579089 3.5592 0
M  V30 10354 O 1039.26 -1.67516 3.76845 0
M  V30 10355 H 1038.61 -0.0293981 0.663349 0
M  V30 10356 H 1041.14 0.537271 1.9742 0
M  V30 10357 H 1041.15 -0.847678 3.99097 0
M  V30 10358 H 1039.82 0.293843 4.14861 0
M  V30 10359 H 1038.4 -1.40146 3.45563 0
M  V30 10360 N 1040.58 -1.57259 0.103575 0
M  V30 10361 C 1041.86 -1.86143 -0.600852 0
M  V30 10362 C 1042.24 -1.00198 -1.85805 0
M  V30 10363 O 1041.59 -0.0766791 -2.28371 0
M  V30 10364 C 1041.8 -3.36978 -0.908108 0
M  V30 10365 C 1043.15 -4.05228 -1.26788 0
M  V30 10366 O 1044.17 -3.41908 -0.998859 0
M  V30 10367 O 1043.03 -5.16971 -1.7721 0
M  V30 10368 H 1040.12 -0.770064 -0.301547 0
M  V30 10369 H 1042.67 -1.69147 0.136914 0
M  V30 10370 H 1041.44 -3.91296 -0.0165615 0
M  V30 10371 H 1041.06 -3.5935 -1.70156 0
M  V30 10372 O 1042.1 0.0362313 -1.61459 0
M  V30 10373 H 1042.79 0.657704 -1.82192 0
M  V30 END ATOM
M  V30 BEGIN BOND
M  V30 END BOND
M  V30 END CTAB
M  END
$$$$
