drugbank_target|P01834 Ig kappa chain C region (DB01851; DB04688; DB07375; DB07416; DB07441; DB07716; DB07784; DB07882; DB07893; DB07909; DB08289; DB08413; DB08562; DB08647)
 OpenBabel12092120423D

  0  0  0     0  0            999 V3000
M  V30 BEGIN CTAB
M  V30 COUNTS 1606 1622 0 0 0
M  V30 BEGIN ATOM
M  V30 1 H -0.908 1.98254 -0.117106 0
M  V30 2 N 0 1.576 0 0
M  V30 3 C 1.228 1.94848 0.695833 0
M  V30 4 C 1.643 0.874846 1.67308 0
M  V30 5 O 1 -0.146215 1.81913 0
M  V30 6 C 1.051 3.32113 1.4277 0
M  V30 7 O 0.772 4.35355 0.489647 0
M  V30 8 C 2.273 3.8382 2.21804 0
M  V30 9 H -0.507 0.642403 0.193802 0
M  V30 10 H 2.037 2.04436 -0.0511197 0
M  V30 11 H 0.192 3.23833 2.12628 0
M  V30 12 H 0.606 5.14762 1.00601 0
M  V30 13 H 2.08 4.82293 2.6851 0
M  V30 14 H 2.557 3.16527 3.04479 0
M  V30 15 H 3.163 3.95276 1.56962 0
M  V30 16 N 1.4781 -0.272755 1.55222 0
M  V30 17 C 2.7241 -1.00581 1.761 0
M  V30 18 C 3.0571 -1.85932 0.560625 0
M  V30 19 O 2.3321 -1.89416 -0.441801 0
M  V30 20 C 2.6151 -1.88816 3.06628 0
M  V30 21 C 2.4681 -1.06457 4.37021 0
M  V30 22 C 3.7871 -2.8752 3.33197 0
M  V30 23 H 0.9061 -0.364244 0.640699 0
M  V30 24 H 3.5481 -0.278189 1.87952 0
M  V30 25 H 1.6981 -2.50856 2.96654 0
M  V30 26 H 3.3701 -0.464863 4.58952 0
M  V30 27 H 1.6131 -0.368043 4.32236 0
M  V30 28 H 2.2841 -1.71514 5.24678 0
M  V30 29 H 4.7601 -2.35615 3.42965 0
M  V30 30 H 3.6361 -3.46399 4.25792 0
M  V30 31 H 3.8971 -3.62657 2.52849 0
M  V30 32 N 2.9562 -1.48159 -0.537278 0
M  V30 33 C 3.9192 -1.61665 -1.62472 0
M  V30 34 C 4.9192 -0.490395 -1.5314 0
M  V30 35 O 6.1092 -0.755998 -1.5694 0
M  V30 36 C 3.2412 -1.57997 -3.02076 0
M  V30 37 H 4.4342 -2.58621 -1.51839 0
M  V30 38 H 1.9872 -1.36647 -0.758771 0
M  V30 39 H 2.7222 -0.624913 -3.18222 0
M  V30 40 H 2.5072 -2.39755 -3.10258 0
M  V30 41 H 3.9972 -1.70627 -3.81151 0
M  V30 42 N 4.4343 0.785586 -1.36625 0
M  V30 43 C 5.3973 1.87999 -1.31107 0
M  V30 44 C 6.3973 1.59316 -0.217959 0
M  V30 45 O 7.5873 1.67656 -0.472977 0
M  V30 46 C 4.7193 3.24861 -1.03334 0
M  V30 47 H 5.9123 1.94307 -2.2844 0
M  V30 48 H 3.4653 0.983813 -1.21453 0
M  V30 49 H 4.2003 3.24235 -0.0647432 0
M  V30 50 H 3.9853 3.4707 -1.82441 0
M  V30 51 H 5.4753 4.04929 -1.02088 0
M  V30 52 N 5.9124 1.20967 1.01018 0
M  V30 53 C 7.3234 1.02319 1.56165 0
M  V30 54 C 7.6744 -0.418546 1.91684 0
M  V30 55 O 6.7994 -1.30096 1.72928 0
M  V30 56 C 7.3944 1.85109 2.8376 0
M  V30 57 C 5.9534 1.70809 3.35412 0
M  V30 58 C 5.1004 1.82643 2.08655 0
M  V30 59 H 8.0514 1.35065 0.833255 0
M  V30 60 H 8.0724 1.35827 3.55431 0
M  V30 61 H 7.5844 2.90035 2.57878 0
M  V30 62 H 5.6854 0.685464 3.66241 0
M  V30 63 H 5.7984 2.52467 4.07182 0
M  V30 64 H 4.1624 1.25896 2.21409 0
M  V30 65 H 4.9454 2.89066 1.85191 0
M  V30 66 N 7.3905 -1.2043 1.01659 0
M  V30 67 C 8.6155 -1.94318 0.724942 0
M  V30 68 C 9.0405 -1.74266 -0.708034 0
M  V30 69 O 8.3985 -1.03694 -1.48719 0
M  V30 70 C 8.4465 -3.44486 1.06591 0
M  V30 71 O 7.5505 -4.12017 0.177599 0
M  V30 72 H 6.8915 -0.60708 0.26898 0
M  V30 73 H 9.4215 -1.52861 1.35995 0
M  V30 74 H 9.4315 -3.95106 1.01762 0
M  V30 75 H 8.1065 -3.58404 2.10997 0
M  V30 76 H 6.6835 -3.71821 0.283421 0
M  V30 77 N 8.8686 -0.792821 -1.36206 0
M  V30 78 C 10.1146 -0.36733 -1.99446 0
M  V30 79 C 10.4476 1.05917 -1.62774 0
M  V30 80 O 9.7226 1.7324 -0.88421 0
M  V30 81 C 10.0056 -0.535044 -3.56103 0
M  V30 82 C 9.8586 -2.00548 -4.02617 0
M  V30 83 C 11.1776 0.0478191 -4.40074 0
M  V30 84 H 8.2966 -0.134941 -0.724541 0
M  V30 85 H 10.9386 -0.999794 -1.61568 0
M  V30 86 H 9.0886 0.00336329 -3.885 0
M  V30 87 H 10.7606 -2.60521 -3.80692 0
M  V30 88 H 9.0036 -2.50686 -3.54032 0
M  V30 89 H 9.6746 -2.07377 -5.11565 0
M  V30 90 H 12.1506 -0.411822 -4.14057 0
M  V30 91 H 11.0266 -0.0995336 -5.4881 0
M  V30 92 H 11.2876 1.14025 -4.27142 0
M  V30 93 N 10.3467 1.47872 -0.545128 0
M  V30 94 C 11.5937 2.02493 -0.0165858 0
M  V30 95 C 11.9217 1.42073 1.32836 0
M  V30 96 O 11.1767 0.561459 1.87473 0
M  V30 97 C 11.4757 3.57131 0.13867 0
M  V30 98 C 11.1417 4.36411 -1.13384 0
M  V30 99 C 9.8037 4.57792 -1.48256 0
M  V30 100 C 12.1557 4.82223 -1.97764 0
M  V30 101 C 9.4837 5.22233 -2.67376 0
M  V30 102 C 11.8357 5.47977 -3.16076 0
M  V30 103 C 10.4997 5.67593 -3.51275 0
M  V30 104 H 9.7697 0.740975 -0.00606918 0
M  V30 105 H 12.4167 1.77683 -0.714207 0
M  V30 106 H 10.7217 3.80865 0.919172 0
M  V30 107 H 12.4187 3.97031 0.562782 0
M  V30 108 H 9.0087 4.2004 -0.852297 0
M  V30 109 H 13.1927 4.65493 -1.72132 0
M  V30 110 H 8.4487 5.35616 -2.94831 0
M  V30 111 H 12.6227 5.8244 -3.81755 0
M  V30 112 H 10.2497 6.17298 -4.43675 0
M  V30 113 N 11.8248 0.280983 1.55075 0
M  V30 114 C 13.0738 -0.334784 1.98902 0
M  V30 115 C 13.3868 -1.56534 1.17288 0
M  V30 116 O 14.5928 -2.25443 1.51287 0
M  V30 117 C 13.0488 -0.646994 3.54037 0
M  V30 118 C 12.6568 0.564085 4.44435 0
M  V30 119 C 14.4008 -1.22506 4.06439 0
M  V30 120 C 12.3078 0.226137 5.90967 0
M  V30 121 H 11.2378 -0.128866 0.742906 0
M  V30 122 H 13.8888 0.386556 1.79382 0
M  V30 123 H 12.2708 -1.42739 3.6938 0
M  V30 124 H 13.4448 1.34082 4.40861 0
M  V30 125 H 11.7598 1.0594 4.02698 0
M  V30 126 H 14.3568 -1.49182 5.13468 0
M  V30 127 H 14.6998 -2.16085 3.55827 0
M  V30 128 H 15.2328 -0.50682 3.94558 0
M  V30 129 H 11.9718 1.12996 6.45687 0
M  V30 130 H 11.4918 -0.513717 5.97596 0
M  V30 131 H 13.1708 -0.179539 6.46751 0
M  V30 132 N 13.3029 -1.57598 0.00835791 0
M  V30 133 C 14.5499 -1.90928 -0.674732 0
M  V30 134 C 14.8779 -0.88277 -1.73313 0
M  V30 135 O 14.1329 0.111294 -1.95383 0
M  V30 136 C 14.4319 -3.3101 -1.34787 0
M  V30 137 C 14.0979 -4.48922 -0.421861 0
M  V30 138 C 12.7599 -4.8091 -0.166927 0
M  V30 139 C 15.1119 -5.20755 0.215211 0
M  V30 140 C 12.4399 -5.821 0.733232 0
M  V30 141 C 14.7919 -6.22905 1.1033 0
M  V30 142 C 13.4559 -6.53346 1.36733 0
M  V30 143 H 12.7259 -0.698656 -0.246902 0
M  V30 144 H 15.3729 -1.91387 0.0656779 0
M  V30 145 H 13.6779 -3.26714 -2.16253 0
M  V30 146 H 15.3749 -3.54061 -1.8826 0
M  V30 147 H 11.9649 -4.23934 -0.630729 0
M  V30 148 H 16.1489 -4.9629 0.0312829 0
M  V30 149 H 11.4049 -6.04042 0.945712 0
M  V30 150 H 15.5789 -6.77694 1.60325 0
M  V30 151 H 13.2059 -7.31573 2.06652 0
M  V30 152 N 14.781 0.264519 -1.55364 0
M  V30 153 C 16.192 0.834936 -1.6699 0
M  V30 154 C 16.543 1.86718 -0.602552 0
M  V30 155 O 15.668 2.14899 0.254425 0
M  V30 156 C 16.263 1.5212 -3.02729 0
M  V30 157 C 14.822 2.03954 -3.16354 0
M  V30 158 C 13.969 0.884498 -2.62815 0
M  V30 159 H 16.92 0.0406869 -1.58648 0
M  V30 160 H 16.941 2.38853 -2.96191 0
M  V30 161 H 16.453 0.769668 -3.80392 0
M  V30 162 H 14.554 2.82041 -2.43482 0
M  V30 163 H 14.667 2.24902 -4.23032 0
M  V30 164 H 13.031 1.2802 -2.20188 0
M  V30 165 H 13.814 0.14634 -3.42988 0
M  V30 166 N 16.2591 1.48442 0.529413 0
M  V30 167 C 17.6701 1.5002 1.11134 0
M  V30 168 C 18.0211 0.27031 1.94329 0
M  V30 169 O 17.1461 -0.622507 2.07253 0
M  V30 170 C 17.7411 2.71834 2.02217 0
M  V30 171 C 16.3001 2.76283 2.55627 0
M  V30 172 C 15.4471 2.43542 1.326 0
M  V30 173 H 18.3981 1.5555 0.314641 0
M  V30 174 H 18.4191 2.50384 2.8651 0
M  V30 175 H 17.9311 3.61331 1.41639 0
M  V30 176 H 16.0321 1.90995 3.19924 0
M  V30 177 H 16.1451 3.77725 2.94721 0
M  V30 178 H 14.5091 1.94709 1.64196 0
M  V30 179 H 15.2921 3.3528 0.737734 0
M  V30 180 N 17.7372 -0.778329 1.37039 0
M  V30 181 C 18.9622 -1.57248 1.35233 0
M  V30 182 C 19.3872 -1.87999 -0.0615568 0
M  V30 183 O 18.7452 -1.48734 -1.03672 0
M  V30 184 C 18.7932 -2.86353 2.19167 0
M  V30 185 O 17.8972 -3.80442 1.59178 0
M  V30 186 H 17.2382 -0.476569 0.462362 0
M  V30 187 H 19.7682 -0.963853 1.80474 0
M  V30 188 H 19.7782 -3.35519 2.32145 0
M  V30 189 H 18.4532 -2.63299 3.21942 0
M  V30 190 H 17.0302 -3.39067 1.55203 0
M  V30 191 N 19.2153 -1.21501 -1.00376 0
M  V30 192 C 20.4923 -0.941745 -1.71437 0
M  V30 193 C 20.8723 0.546114 -2.03914 0
M  V30 194 O 20.2203 1.51128 -1.71384 0
M  V30 195 C 20.4303 -1.82812 -2.97289 0
M  V30 196 C 21.7783 -2.07771 -3.70292 0
M  V30 197 O 22.8023 -1.80171 -3.07273 0
M  V30 198 O 21.6613 -2.54456 -4.83647 0
M  V30 199 H 18.7553 -0.353243 -0.747762 0
M  V30 200 H 21.3013 -1.32436 -1.06108 0
M  V30 201 H 20.0733 -2.83501 -2.69709 0
M  V30 202 H 19.6963 -1.4464 -3.70358 0
M  V30 203 N 20.6934 1.19889 -1.02296 0
M  V30 204 C 21.6034 2.26571 -0.608508 0
M  V30 205 C 22.6194 1.70299 0.356964 0
M  V30 206 O 23.7954 2.00235 0.216326 0
M  V30 207 C 20.8604 3.46677 0.0402814 0
M  V30 208 C 19.9214 4.18153 -0.97194 0
M  V30 209 C 19.1544 5.32525 -0.354016 0
M  V30 210 O 19.3774 5.64112 0.844604 0
M  V30 211 O 18.3114 5.92242 -1.07391 0
M  V30 212 H 22.1374 2.64251 -1.49684 0
M  V30 213 H 19.7224 1.26629 -0.792809 0
M  V30 214 H 21.6044 4.19475 0.402324 0
M  V30 215 H 20.2794 3.10858 0.902707 0
M  V30 216 H 19.1864 3.47499 -1.38546 0
M  V30 217 H 20.5194 4.57927 -1.80454 0
M  V30 218 N 22.1715 0.800033 1.35784 0
M  V30 219 C 23.1035 0.163596 2.28615 0
M  V30 220 C 24.1165 -0.633317 1.49976 0
M  V30 221 O 25.3055 -0.466754 1.72289 0
M  V30 222 C 22.4055 -0.790958 3.29541 0
M  V30 223 C 21.5785 -0.0418255 4.3738 0
M  V30 224 C 20.6375 -0.91389 5.18203 0
M  V30 225 O 19.6635 -0.367234 5.68014 0
M  V30 226 N 20.8655 -2.23682 5.35674 0
M  V30 227 H 23.6305 0.96105 2.83873 0
M  V30 228 H 21.1915 0.654894 1.48063 0
M  V30 229 H 23.1835 -1.37844 3.80501 0
M  V30 230 H 21.7535 -1.48925 2.74846 0
M  V30 231 H 20.9735 0.726813 3.87442 0
M  V30 232 H 22.2615 0.474719 5.06581 0
M  V30 233 H 21.6595 -2.70497 4.96838 0
M  V30 234 H 20.2165 -2.77369 5.89839 0
M  V30 235 N 23.6496 -1.47581 0.552962 0
M  V30 236 C 24.5796 -2.32762 -0.185451 0
M  V30 237 C 25.5606 -1.43527 -0.912905 0
M  V30 238 O 26.7456 -1.72388 -0.894201 0
M  V30 239 C 23.8756 -3.25219 -1.21859 0
M  V30 240 C 22.8296 -4.23661 -0.607864 0
M  V30 241 C 22.1556 -5.05413 -1.74533 0
M  V30 242 C 23.4556 -5.20481 0.435582 0
M  V30 243 H 25.1496 -2.94749 0.525684 0
M  V30 244 H 22.6956 -1.41738 0.254251 0
M  V30 245 H 24.6486 -3.8365 -1.7433 0
M  V30 246 H 23.3726 -2.61279 -1.95961 0
M  V30 247 H 22.0316 -3.66451 -0.104489 0
M  V30 248 H 21.6796 -4.3788 -2.47529 0
M  V30 249 H 21.3796 -5.72059 -1.34249 0
M  V30 250 H 22.9036 -5.66701 -2.27338 0
M  V30 251 H 24.3176 -5.733 -0.00290157 0
M  V30 252 H 22.7146 -5.95305 0.757067 0
M  V30 253 H 23.7846 -4.66217 1.33303 0
M  V30 254 N 25.1277 -0.289203 -1.54924 0
M  V30 255 C 26.0747 0.592115 -2.23075 0
M  V30 256 C 27.0447 1.13881 -1.20915 0
M  V30 257 O 28.2297 1.18551 -1.495 0
M  V30 258 C 25.3697 1.76376 -2.96623 0
M  V30 259 C 24.4827 1.24959 -4.13533 0
M  V30 260 C 23.6177 2.38416 -4.74691 0
M  V30 261 C 22.6567 1.84072 -5.83767 0
M  V30 262 N 21.7937 2.91057 -6.38929 0
M  V30 263 H 26.6337 0.00432038 -2.98 0
M  V30 264 H 24.1707 -0.00963529 -1.47097 0
M  V30 265 H 26.1287 2.45268 -3.3749 0
M  V30 266 H 24.7587 2.32337 -2.24097 0
M  V30 267 H 23.8107 0.453307 -3.77689 0
M  V30 268 H 25.1227 0.811662 -4.92152 0
M  V30 269 H 24.2767 3.15276 -5.18349 0
M  V30 270 H 23.0157 2.8553 -3.95378 0
M  V30 271 H 22.0207 1.05697 -5.39545 0
M  V30 272 H 23.2457 1.37877 -6.64956 0
M  V30 273 H 21.1917 3.37526 -5.62505 0
M  V30 274 H 21.1087 2.51724 -7.12861 0
M  V30 275 H 22.3767 3.6785 -6.87246 0
M  V30 276 N 26.6058 1.57591 -0.0167156 0
M  V30 277 C 27.8308 1.9598 0.67872 0
M  V30 278 C 28.2558 0.892546 1.65575 0
M  V30 279 O 27.6138 -0.147772 1.80697 0
M  V30 280 C 27.6618 3.33468 1.37227 0
M  V30 281 O 26.7658 3.28954 2.48722 0
M  V30 282 H 26.1068 0.639339 0.17928 0
M  V30 283 H 28.6368 2.04463 -0.0748802 0
M  V30 284 H 28.6468 3.69417 1.7319 0
M  V30 285 H 27.3218 4.10694 0.656007 0
M  V30 286 H 25.8988 3.04705 2.14963 0
M  V30 287 N 28.0839 -0.256276 1.55502 0
M  V30 288 C 29.3319 -0.983672 1.76545 0
M  V30 289 C 29.6529 -1.86206 0.578982 0
M  V30 290 O 28.9229 -1.91656 -0.405577 0
M  V30 291 H 27.5029 -0.366191 0.651086 0
M  V30 292 H 30.1649 -0.276479 1.92929 0
M  V30 293 H 29.2609 -1.61087 2.67315 0
M  V30 294 N 29.562 -1.4872 -0.521534 0
M  V30 295 C 30.79 -1.60843 -1.30142 0
M  V30 296 C 31.205 -0.271897 -1.86832 0
M  V30 297 O 30.562 0.739969 -1.66825 0
M  V30 298 C 30.613 -2.66155 -2.4463 0
M  V30 299 O 30.334 -3.94623 -1.90275 0
M  V30 300 C 31.835 -2.88795 -3.36322 0
M  V30 301 H 29.055 -0.542075 -0.395468 0
M  V30 302 H 31.599 -1.94609 -0.628285 0
M  V30 303 H 29.754 -2.35224 -3.07812 0
M  V30 304 H 30.168 -4.52468 -2.65279 0
M  V30 305 H 31.642 -3.66264 -4.12983 0
M  V30 306 H 32.119 -1.97934 -3.9207 0
M  V30 307 H 32.725 -3.21063 -2.78924 0
M  V30 308 N 31.0401 0.771051 -1.3745 0
M  V30 309 C 32.0031 1.86598 -1.33093 0
M  V30 310 C 33.0031 1.59076 -0.234845 0
M  V30 311 O 34.1931 1.67145 -0.490732 0
M  V30 312 C 31.3251 3.23747 -1.06773 0
M  V30 313 H 32.5181 1.91873 -2.30488 0
M  V30 314 H 30.0711 0.970876 -1.2249 0
M  V30 315 H 30.8061 3.24148 -0.099129 0
M  V30 316 H 30.5911 3.45115 -1.86112 0
M  V30 317 H 32.0811 4.03824 -1.06377 0
M  V30 318 N 32.5182 1.22032 0.997298 0
M  V30 319 C 33.7432 1.06921 1.77715 0
M  V30 320 C 34.1682 -0.376226 1.84299 0
M  V30 321 O 33.5262 -1.27165 1.29223 0
M  V30 322 C 33.5742 1.67996 3.19076 0
M  V30 323 O 32.6782 0.930653 4.01762 0
M  V30 324 H 32.0192 0.375814 0.547412 0
M  V30 325 H 34.5492 1.61737 1.25309 0
M  V30 326 H 34.5592 1.72538 3.69723 0
M  V30 327 H 33.2342 2.73182 3.13599 0
M  V30 328 H 31.8112 0.960917 3.60307 0
M  V30 329 N 33.9963 -1.19345 1.0293 0
M  V30 330 C 35.2423 -1.89318 0.727083 0
M  V30 331 C 35.5753 -1.79446 -0.742483 0
M  V30 332 O 34.8503 -1.1871 -1.54072 0
M  V30 333 C 35.1333 -3.40238 1.17942 0
M  V30 334 C 34.9863 -3.58979 2.71024 0
M  V30 335 C 36.3053 -4.33479 0.760548 0
M  V30 336 H 33.4243 -0.687475 0.265606 0
M  V30 337 H 36.0663 -1.40477 1.2793 0
M  V30 338 H 34.2163 -3.81964 0.709608 0
M  V30 339 H 35.8883 -3.26421 3.25955 0
M  V30 340 H 34.1313 -3.02018 3.11396 0
M  V30 341 H 34.8023 -4.64823 2.9773 0
M  V30 342 H 37.2783 -3.99469 1.16464 0
M  V30 343 H 36.1543 -5.37664 1.10493 0
M  V30 344 H 36.4153 -4.40813 -0.337063 0
M  V30 345 N 35.4744 -0.807222 -1.35358 0
M  V30 346 C 36.7204 -0.388463 -1.99045 0
M  V30 347 C 37.0534 1.04184 -1.63888 0
M  V30 348 O 36.3284 1.72292 -0.902535 0
M  V30 349 C 36.6114 -0.572783 -3.55515 0
M  V30 350 C 36.4644 -2.04807 -4.00468 0
M  V30 351 C 37.7834 0.00114064 -4.401 0
M  V30 352 H 34.9024 -0.142619 -0.723069 0
M  V30 353 H 37.5444 -1.01687 -1.60498 0
M  V30 354 H 35.6944 -0.0378425 -3.88482 0
M  V30 355 H 37.3664 -2.64544 -3.77908 0
M  V30 356 H 35.6094 -2.54427 -3.51353 0
M  V30 357 H 36.2804 -2.12792 -5.09337 0
M  V30 358 H 38.7564 -0.455716 -4.13597 0
M  V30 359 H 37.6324 -0.157737 -5.48673 0
M  V30 360 H 37.8934 1.09488 -4.28328 0
M  V30 361 N 36.9525 1.47285 -0.560781 0
M  V30 362 C 38.1925 2.0436 -0.0404627 0
M  V30 363 C 38.5565 1.42534 1.28639 0
M  V30 364 O 39.7575 1.90677 1.89462 0
M  V30 365 C 38.0285 3.57369 0.0471856 0
M  V30 366 S 39.5875 4.3579 0.513109 0
M  V30 367 H 36.4055 0.710492 -0.0268674 0
M  V30 368 H 39.0075 1.80611 -0.748323 0
M  V30 369 H 37.7115 3.9989 -0.922817 0
M  V30 370 H 37.2425 3.8562 0.778491 0
M  V30 371 H 39.2575 4.63476 1.77212 0
M  V30 372 N 38.4306 0.297415 1.54768 0
M  V30 373 C 39.3606 -0.573494 2.26348 0
M  V30 374 C 40.3416 -1.14085 1.26169 0
M  V30 375 O 41.5266 -1.17086 1.54934 0
M  V30 376 C 38.6566 -1.74716 3.00153 0
M  V30 377 C 37.6106 -1.31032 4.07449 0
M  V30 378 C 36.9366 -2.56887 4.68949 0
M  V30 379 C 38.2366 -0.444183 5.20408 0
M  V30 380 H 39.9306 0.0235131 2.99391 0
M  V30 381 H 37.4766 0.0127488 1.43994 0
M  V30 382 H 39.4296 -2.3625 3.48947 0
M  V30 383 H 38.1536 -2.37035 2.24682 0
M  V30 384 H 36.8126 -0.718066 3.59499 0
M  V30 385 H 36.4606 -3.17512 3.90122 0
M  V30 386 H 36.1606 -2.2836 5.41411 0
M  V30 387 H 37.6846 -3.19229 5.20505 0
M  V30 388 H 39.0986 -0.9651 5.65118 0
M  V30 389 H 37.4956 -0.252846 5.99567 0
M  V30 390 H 38.5656 0.531609 4.81977 0
M  V30 391 N 39.9087 -1.5758 0.0250728 0
M  V30 392 C 40.8387 -2.13007 -0.956575 0
M  V30 393 C 41.8197 -1.0452 -1.342 0
M  V30 394 O 43.0047 -1.32332 -1.42133 0
M  V30 395 C 40.1347 -2.65386 -2.24026 0
M  V30 396 C 39.0887 -3.78623 -1.99571 0
M  V30 397 C 38.4147 -4.17414 -3.3417 0
M  V30 398 C 39.7147 -5.04867 -1.33814 0
M  V30 399 H 41.4087 -2.9528 -0.494991 0
M  V30 400 H 38.9547 -1.42042 -0.236651 0
M  V30 401 H 40.9077 -3.02794 -2.93076 0
M  V30 402 H 39.6317 -1.80268 -2.72343 0
M  V30 403 H 38.2907 -3.41646 -1.32941 0
M  V30 404 H 37.9387 -3.29284 -3.80238 0
M  V30 405 H 37.6387 -4.93719 -3.18615 0
M  V30 406 H 39.1627 -4.57402 -4.04495 0
M  V30 407 H 40.5767 -5.39888 -1.92857 0
M  V30 408 H 38.9737 -5.86144 -1.28669 0
M  V30 409 H 40.0437 -4.83904 -0.310561 0
M  V30 410 N 41.3868 0.248026 -1.55636 0
M  V30 411 C 42.3348 1.32683 -1.91045 0
M  V30 412 C 43.3288 1.49883 -0.789401 0
M  V30 413 O 44.5348 1.51371 -0.974007 0
M  V30 414 H 40.9098 0.444272 -0.606734 0
M  V30 415 H 42.8808 1.00085 -2.81115 0
M  V30 416 C 41.6298 2.6755 -2.22064 0
M  V30 417 H 40.9528 2.55114 -3.07826 0
M  V30 418 H 42.3928 3.41912 -2.50743 0
M  V30 419 C 40.8518 3.20556 -1.0366 0
M  V30 420 O 41.3818 4.00695 -0.284016 0
M  V30 421 N 39.5878 2.78568 -0.82753 0
M  V30 422 H 39.1348 2.1351 -1.44123 0
M  V30 423 H 39.0928 3.14378 -0.0369803 0
M  V30 424 N 42.8649 1.48995 0.513639 0
M  V30 425 C 43.8129 1.65199 1.63744 0
M  V30 426 C 44.8069 0.51809 1.61283 0
M  V30 427 O 46.0129 0.697335 1.65943 0
M  V30 428 H 42.3879 0.52069 0.542574 0
M  V30 429 H 44.3589 2.59552 1.47226 0
M  V30 430 C 43.1079 1.72409 3.01945 0
M  V30 431 H 42.4309 2.59029 3.04539 0
M  V30 432 H 43.8709 1.87785 3.80148 0
M  V30 433 C 42.3299 0.46618 3.33659 0
M  V30 434 O 42.8599 -0.413744 3.99564 0
M  V30 435 N 41.0659 0.332931 2.88687 0
M  V30 436 H 40.6129 1.04996 2.35231 0
M  V30 437 H 40.5709 -0.507665 3.10274 0
M  V30 438 N 44.343 -0.763751 1.37857 0
M  V30 439 C 45.59 -1.52257 1.33506 0
M  V30 440 C 45.918 -1.94343 -0.078022 0
M  V30 441 O 45.173 -1.64958 -1.05297 0
M  V30 442 C 45.472 -2.79499 2.22745 0
M  V30 443 C 45.138 -2.56426 3.70886 0
M  V30 444 C 43.8 -2.49842 4.11257 0
M  V30 445 C 46.152 -2.36008 4.64704 0
M  V30 446 C 43.48 -2.20841 5.43549 0
M  V30 447 C 45.832 -2.0853 5.97242 0
M  V30 448 C 44.496 -2.00396 6.36709 0
M  V30 449 H 43.766 -0.557149 0.488534 0
M  V30 450 H 46.413 -0.879073 1.70131 0
M  V30 451 H 44.718 -3.48447 1.79142 0
M  V30 452 H 46.415 -3.37413 2.16688 0
M  V30 453 H 43.005 -2.62416 3.38874 0
M  V30 454 H 47.189 -2.40079 4.34368 0
M  V30 455 H 42.445 -2.13045 5.73081 0
M  V30 456 H 46.619 -1.91732 6.69486 0
M  V30 457 H 44.246 -1.77688 7.39142 0
M  V30 458 N 45.8211 -1.22559 -0.990812 0
M  V30 459 C 47.0511 -1.07623 -1.76355 0
M  V30 460 C 47.4591 0.37601 -1.85426 0
M  V30 461 O 46.8021 1.27228 -1.32509 0
M  V30 462 C 46.8641 -1.61507 -3.21179 0
M  V30 463 C 46.5281 -3.10146 -3.35646 0
M  V30 464 C 47.5251 -4.07553 -3.22796 0
M  V30 465 C 45.2101 -3.49644 -3.60631 0
M  V30 466 C 47.2041 -5.42442 -3.34716 0
M  V30 467 C 44.8911 -4.84682 -3.72192 0
M  V30 468 C 45.8891 -5.8089 -3.59243 0
M  V30 469 O 45.5771 -7.13476 -3.70415 0
M  V30 470 H 45.3091 -0.377745 -0.560611 0
M  V30 471 H 47.8631 -1.62658 -1.25425 0
M  V30 472 H 46.0931 -1.00881 -3.73309 0
M  V30 473 H 47.7821 -1.42202 -3.80175 0
M  V30 474 H 48.5481 -3.78381 -3.03403 0
M  V30 475 H 44.4271 -2.75282 -3.69785 0
M  V30 476 H 47.9711 -6.17518 -3.24526 0
M  V30 477 H 43.8681 -5.13534 -3.91092 0
M  V30 478 H 44.6361 -7.21083 -3.87275 0
M  V30 479 N 47.2992 1.18797 -1.03562 0
M  V30 480 C 48.7102 1.70322 -0.764676 0
M  V30 481 C 49.0612 1.82708 0.714996 0
M  V30 482 O 48.1862 1.50299 1.55689 0
M  V30 483 C 48.7812 3.09356 -1.38145 0
M  V30 484 C 47.3402 3.58114 -1.15895 0
M  V30 485 C 46.4872 2.34798 -1.4753 0
M  V30 486 H 49.4382 1.03543 -1.20268 0
M  V30 487 H 49.4592 3.72378 -0.781977 0
M  V30 488 H 48.9712 3.00309 -2.45837 0
M  V30 489 H 47.0722 3.72464 -0.100544 0
M  V30 490 H 47.1852 4.4184 -1.8524 0
M  V30 491 H 45.5492 2.38464 -0.894829 0
M  V30 492 H 46.3322 2.28375 -2.56319 0
M  V30 493 N 48.7773 0.814389 1.34928 0
M  V30 494 C 50.1933 0.499084 1.51596 0
M  V30 495 C 50.3933 -0.978319 1.76157 0
M  V30 496 O 49.4493 -1.76309 1.80752 0
M  V30 497 C 50.7623 1.35121 2.68631 0
M  V30 498 C 52.3103 1.34746 2.82511 0
M  V30 499 C 52.7853 2.18388 4.0258 0
M  V30 500 N 54.2763 2.15966 4.09772 0
M  V30 501 C 55.0113 2.77437 5.01813 0
M  V30 502 N 54.5073 3.47866 5.99134 0
M  V30 503 N 56.3003 2.67037 4.94619 0
M  V30 504 H 48.4513 1.7711 1.17243 0
M  V30 505 H 50.7143 0.754256 0.574284 0
M  V30 506 H 50.4203 2.40001 2.57085 0
M  V30 507 H 50.2943 1.00991 3.63429 0
M  V30 508 H 52.6813 0.30648 2.93504 0
M  V30 509 H 52.7623 1.72869 1.88547 0
M  V30 510 H 52.4063 3.2253 3.92347 0
M  V30 511 H 52.3363 1.77621 4.9574 0
M  V30 512 H 54.8273 1.64729 3.40107 0
M  V30 513 H 55.1403 3.92038 6.65977 0
M  V30 514 H 53.4853 3.51972 5.99284 0
M  V30 515 H 56.6763 2.11597 4.17546 0
M  V30 516 H 56.8493 3.15232 5.66156 0
M  V30 517 N 50.2554 -1.46986 0.568584 0
M  V30 518 C 51.1654 -2.33942 -0.17555 0
M  V30 519 C 52.1814 -1.48891 -0.90041 0
M  V30 520 O 53.3574 -1.81794 -0.86676 0
M  V30 521 C 50.4224 -3.25811 -1.18524 0
M  V30 522 C 49.4834 -4.26757 -0.466582 0
M  V30 523 C 48.7164 -5.14236 -1.42817 0
M  V30 524 O 48.9394 -5.04379 -2.66379 0
M  V30 525 O 47.8734 -5.94412 -0.946453 0
M  V30 526 H 51.6994 -2.98896 0.538036 0
M  V30 527 H 49.2844 -1.4573 0.329097 0
M  V30 528 H 51.1664 -3.82527 -1.76779 0
M  V30 529 H 49.8414 -2.63471 -1.88055 0
M  V30 530 H 48.7484 -3.73769 0.157451 0
M  V30 531 H 50.0814 -4.91843 0.187485 0
M  V30 532 N 51.7335 -0.305618 -1.54608 0
M  V30 533 C 52.6965 0.555591 -2.22364 0
M  V30 534 C 53.6965 1.05768 -1.21119 0
M  V30 535 O 54.8865 0.952972 -1.45822 0
M  V30 536 C 52.0185 1.76974 -2.91364 0
M  V30 537 H 53.2115 -0.0364572 -2.99878 0
M  V30 538 H 50.7645 -0.0565007 -1.56198 0
M  V30 539 H 51.4995 2.40151 -2.17941 0
M  V30 540 H 51.2845 1.41732 -3.65588 0
M  V30 541 H 52.7745 2.38148 -3.43038 0
M  V30 542 N 53.2116 1.57565 -0.0334293 0
M  V30 543 C 54.1586 2.10478 0.946981 0
M  V30 544 C 55.1286 1.00787 1.32027 0
M  V30 545 O 56.3136 1.28232 1.41284 0
M  V30 546 C 53.4536 2.63994 2.22263 0
M  V30 547 C 52.5666 3.87709 1.90541 0
M  V30 548 C 51.7016 4.29604 3.12433 0
M  V30 549 C 50.7406 5.46065 2.76549 0
M  V30 550 N 49.8776 5.83096 3.9108 0
M  V30 551 H 54.7176 2.93963 0.488846 0
M  V30 552 H 52.2546 1.45296 0.22969 0
M  V30 553 H 54.2126 2.93114 2.96884 0
M  V30 554 H 52.8426 1.83333 2.65685 0
M  V30 555 H 51.8946 3.65291 1.06144 0
M  V30 556 H 53.2066 4.72403 1.60116 0
M  V30 557 H 52.3606 4.60182 3.9537 0
M  V30 558 H 51.0996 3.43685 3.46023 0
M  V30 559 H 50.1046 5.15176 1.92026 0
M  V30 560 H 51.3296 6.33685 2.44171 0
M  V30 561 H 49.2756 5.00132 4.24504 0
M  V30 562 H 49.1926 6.6244 3.64293 0
M  V30 563 H 50.4606 6.18282 4.74708 0
M  V30 564 N 54.6897 -0.239769 1.55765 0
M  V30 565 C 55.9357 -0.968234 1.78194 0
M  V30 566 C 56.2687 -1.84701 0.599938 0
M  V30 567 O 55.5437 -1.9031 -0.401524 0
M  V30 568 C 55.8267 -1.8227 3.10564 0
M  V30 569 C 55.6797 -0.971633 4.3918 0
M  V30 570 C 56.9987 -2.80388 3.39221 0
M  V30 571 H 54.1177 -0.350572 0.648281 0
M  V30 572 H 56.7597 -0.238259 1.885 0
M  V30 573 H 54.9097 -2.44507 3.01908 0
M  V30 574 H 56.5817 -0.367408 4.59835 0
M  V30 575 H 54.8247 -0.276276 4.32919 0
M  V30 576 H 55.4957 -1.60346 5.28198 0
M  V30 577 H 57.9717 -2.28287 3.47885 0
M  V30 578 H 56.8477 -3.3729 4.33044 0
M  V30 579 H 57.1087 -3.57212 2.60484 0
M  V30 580 N 56.1678 -1.49265 -0.50573 0
M  V30 581 C 57.0998 -1.617 -1.62437 0
M  V30 582 C 58.1128 -0.499924 -1.54934 0
M  V30 583 O 59.3018 -0.771785 -1.60953 0
M  V30 584 C 56.4018 -1.5533 -3.01207 0
M  V30 585 C 55.5748 -2.8249 -3.33943 0
M  V30 586 C 54.6338 -2.69238 -4.52103 0
M  V30 587 O 53.6598 -3.43167 -4.5412 0
M  V30 588 N 54.8618 -1.80468 -5.51735 0
M  V30 589 H 57.6268 -2.58177 -1.52199 0
M  V30 590 H 55.1878 -1.46294 -0.693511 0
M  V30 591 H 57.1798 -1.44125 -3.78167 0
M  V30 592 H 55.7498 -0.667297 -3.05395 0
M  V30 593 H 54.9698 -3.08081 -2.45926 0
M  V30 594 H 56.2578 -3.66802 -3.5261 0
M  V30 595 H 55.6558 -1.19653 -5.52901 0
M  V30 596 H 54.2128 -1.75188 -6.27816 0
M  V30 597 N 57.6459 0.756429 -1.3826 0
M  V30 598 C 58.8919 1.5168 -1.35517 0
M  V30 599 C 59.2469 1.9232 0.0554451 0
M  V30 600 O 58.5399 1.62352 1.01746 0
M  V30 601 C 58.7339 2.78313 -2.24224 0
M  V30 602 C 58.5629 2.50053 -3.7377 0
M  V30 603 C 57.3329 2.43414 -4.42807 0
M  V30 604 C 59.5309 2.1702 -4.66269 0
M  V30 605 N 57.5129 2.07398 -5.77805 0
M  V30 606 C 58.8839 1.91271 -5.89759 0
M  V30 607 C 60.9389 2.03305 -4.54501 0
M  V30 608 C 59.6419 1.53192 -7.02798 0
M  V30 609 C 61.6679 1.66627 -5.67441 0
M  V30 610 C 61.0299 1.4175 -6.8999 0
M  V30 611 H 57.1289 0.554735 -0.551174 0
M  V30 612 H 59.7129 0.881106 -1.73622 0
M  V30 613 H 57.8839 3.39696 -1.88311 0
M  V30 614 H 59.6159 3.44343 -2.12627 0
M  V30 615 H 56.3709 2.59789 -3.95988 0
M  V30 616 H 56.7949 1.92044 -6.4919 0
M  V30 617 H 61.4369 2.21215 -3.60311 0
M  V30 618 H 59.1549 1.34022 -7.96909 0
M  V30 619 H 62.7409 1.56652 -5.60314 0
M  V30 620 H 61.6209 1.1379 -7.759 0
M  V30 621 N 59.124 1.23083 0.984299 0
M  V30 622 C 60.071 1.00854 2.07598 0
M  V30 623 C 61.041 -0.0726709 1.65941 0
M  V30 624 O 62.226 0.0786535 1.90638 0
M  V30 625 C 59.366 0.601645 3.39815 0
M  V30 626 C 58.479 1.75456 3.94765 0
M  V30 627 C 57.614 1.29482 5.15177 0
M  V30 628 C 56.653 2.41873 5.62284 0
M  V30 629 N 55.79 1.96885 6.73929 0
M  V30 630 H 60.63 1.943 2.25946 0
M  V30 631 H 58.167 0.968001 1.10762 0
M  V30 632 H 60.125 0.346854 4.15756 0
M  V30 633 H 58.755 -0.295803 3.21442 0
M  V30 634 H 57.807 2.12346 3.15616 0
M  V30 635 H 59.119 2.59965 4.25699 0
M  V30 636 H 58.273 0.997923 5.98437 0
M  V30 637 H 57.012 0.420046 4.85888 0
M  V30 638 H 56.017 2.72342 4.77608 0
M  V30 639 H 57.242 3.29881 5.93595 0
M  V30 640 H 55.188 1.11782 6.46406 0
M  V30 641 H 55.105 2.74956 7.04227 0
M  V30 642 H 56.373 1.70289 7.60672 0
M  V30 643 N 60.6021 -1.18246 1.0419 0
M  V30 644 C 61.8481 -1.88536 0.747122 0
M  V30 645 C 62.1811 -1.80223 -0.723409 0
M  V30 646 O 61.4561 -1.20337 -1.52804 0
M  V30 647 C 61.7391 -3.38968 1.21544 0
M  V30 648 C 61.5921 -3.56084 2.74816 0
M  V30 649 C 62.9111 -4.32648 0.806482 0
M  V30 650 H 60.0301 -0.684619 0.272883 0
M  V30 651 H 62.6721 -1.39113 1.29413 0
M  V30 652 H 60.8221 -3.8119 0.750081 0
M  V30 653 H 62.4941 -3.22946 3.29399 0
M  V30 654 H 60.7371 -2.98699 3.14582 0
M  V30 655 H 61.4081 -4.61639 3.02644 0
M  V30 656 H 63.8841 -3.98211 1.20695 0
M  V30 657 H 62.7601 -5.36462 1.1619 0
M  V30 658 H 63.0211 -4.41146 -0.29029 0
M  V30 659 N 62.0802 -0.821533 -1.34494 0
M  V30 660 C 63.3572 -0.33159 -1.92769 0
M  V30 661 C 63.7372 1.18088 -1.74981 0
M  V30 662 O 63.0852 1.98733 -1.12772 0
M  V30 663 C 63.2952 -0.759398 -3.40638 0
M  V30 664 C 64.6432 -0.757433 -4.1779 0
M  V30 665 O 65.6672 -0.70189 -3.49216 0
M  V30 666 O 64.5262 -0.829361 -5.4017 0
M  V30 667 H 61.6202 -0.0902502 -0.822061 0
M  V30 668 H 64.1662 -0.906231 -1.43477 0
M  V30 669 H 62.9382 -1.8012 -3.47379 0
M  V30 670 H 62.5612 -0.160378 -3.97276 0
M  V30 671 N 63.5583 1.46682 -0.576371 0
M  V30 672 C 64.5063 2.31953 0.17335 0
M  V30 673 C 65.5003 1.44098 0.89062 0
M  V30 674 O 66.7063 1.60759 0.809728 0
M  V30 675 H 63.0813 0.748273 0.0747727 0
M  V30 676 H 65.0523 2.93007 -0.564738 0
M  V30 677 C 63.8013 3.27142 1.17786 0
M  V30 678 H 63.1243 3.94719 0.635361 0
M  V30 679 H 64.5643 3.896 1.67296 0
M  V30 680 C 63.0233 2.52036 2.23561 0
M  V30 681 O 63.5533 2.27877 3.3081 0
M  V30 682 N 61.7593 2.12709 1.97998 0
M  V30 683 H 61.3063 2.32557 1.10792 0
M  V30 684 H 61.2643 1.62776 2.68982 0
M  V30 685 N 65.0364 0.313813 1.54444 0
M  V30 686 C 65.9994 -0.54379 2.22656 0
M  V30 687 C 66.9994 -1.05124 1.21678 0
M  V30 688 O 68.1894 -0.945225 1.46325 0
M  V30 689 C 65.3214 -1.75427 2.92298 0
M  V30 690 H 66.5144 0.0523599 2.99854 0
M  V30 691 H 64.0674 0.0647834 1.56166 0
M  V30 692 H 64.8024 -2.38991 2.19211 0
M  V30 693 H 64.5874 -1.39791 3.66334 0
M  V30 694 H 66.0774 -2.36325 3.44297 0
M  V30 695 N 66.5145 -1.57545 0.0417849 0
M  V30 696 C 67.4445 -2.14009 -0.933929 0
M  V30 697 C 68.4255 -1.05938 -1.33083 0
M  V30 698 O 69.6105 -1.33833 -1.40721 0
M  V30 699 C 66.7405 -2.67747 -2.21199 0
M  V30 700 C 65.6945 -3.80718 -1.95544 0
M  V30 701 C 65.0205 -4.20935 -3.29724 0
M  V30 702 C 66.3205 -5.06258 -1.28452 0
M  V30 703 H 68.0145 -2.95788 -0.463645 0
M  V30 704 H 65.5605 -1.42285 -0.221573 0
M  V30 705 H 67.5135 -3.05886 -2.89848 0
M  V30 706 H 66.2375 -1.83147 -2.70416 0
M  V30 707 H 64.8965 -3.43037 -1.2931 0
M  V30 708 H 64.5445 -3.33298 -3.76724 0
M  V30 709 H 64.2445 -4.9707 -3.13361 0
M  V30 710 H 65.7685 -4.61666 -3.9962 0
M  V30 711 H 67.1825 -5.41903 -1.8712 0
M  V30 712 H 65.5795 -5.87475 -1.22445 0
M  V30 713 H 66.6495 -4.84207 -0.259219 0
M  V30 714 N 67.9926 0.231505 -1.5589 0
M  V30 715 C 68.9246 1.31006 -1.8807 0
M  V30 716 C 69.9376 1.43539 -0.768145 0
M  V30 717 O 71.1266 1.44614 -1.04638 0
M  V30 718 C 68.2266 2.68688 -2.06543 0
M  V30 719 C 67.3996 2.78228 -3.37502 0
M  V30 720 C 66.4586 3.96857 -3.4553 0
M  V30 721 O 65.4846 3.85662 -4.18633 0
M  V30 722 N 66.6866 5.1072 -2.75944 0
M  V30 723 H 69.4516 1.03731 -2.81176 0
M  V30 724 H 67.0126 0.421573 -1.56315 0
M  V30 725 H 69.0046 3.46412 -2.09239 0
M  V30 726 H 67.5746 2.88605 -1.20109 0
M  V30 727 H 66.7946 1.87059 -3.46991 0
M  V30 728 H 68.0826 2.81564 -4.23791 0
M  V30 729 H 67.4806 5.2271 -2.16311 0
M  V30 730 H 66.0376 5.86523 -2.84314 0
M  V30 731 N 69.4707 1.49531 0.497807 0
M  V30 732 C 70.6957 1.63159 1.28039 0
M  V30 733 C 71.1207 0.30418 1.85624 0
M  V30 734 O 70.4787 -0.728618 1.66015 0
M  V30 735 C 70.5267 2.70537 2.38416 0
M  V30 736 O 69.6307 2.29931 3.42353 0
M  V30 737 H 68.9717 0.546001 0.377861 0
M  V30 738 H 71.5017 1.9574 0.59558 0
M  V30 739 H 71.5117 2.92802 2.84132 0
M  V30 740 H 70.1867 3.6689 1.95869 0
M  V30 741 H 68.7637 2.18009 3.02533 0
M  V30 742 N 70.9488 -0.749086 1.3866 0
M  V30 743 C 72.1968 -1.50535 1.34847 0
M  V30 744 C 72.5178 -1.94909 -0.0595016 0
M  V30 745 O 71.7878 -1.67973 -1.00806 0
M  V30 746 H 70.3678 -0.558395 0.49619 0
M  V30 747 H 73.0298 -0.890165 1.73384 0
M  V30 748 H 72.1258 -2.39413 2.00219 0
M  V30 749 N 72.4269 -1.23603 -0.977757 0
M  V30 750 C 73.3749 -1.01704 -2.09187 0
M  V30 751 C 74.3689 0.0448214 -1.69341 0
M  V30 752 O 75.5749 -0.108902 -1.7967 0
M  V30 753 H 71.9499 -0.311803 -0.684312 0
M  V30 754 H 73.9209 -1.96207 -2.24823 0
M  V30 755 C 72.6699 -0.627746 -3.41986 0
M  V30 756 H 71.9929 -1.43656 -3.73099 0
M  V30 757 H 73.4329 -0.514053 -4.20872 0
M  V30 758 C 71.8919 0.664238 -3.30287 0
M  V30 759 O 72.4219 1.71268 -3.6336 0
M  V30 760 N 70.6279 0.641156 -2.83439 0
M  V30 761 H 70.1749 -0.212376 -2.56723 0
M  V30 762 H 70.1329 1.50583 -2.75993 0
M  V30 763 N 73.905 1.17692 -1.04816 0
M  V30 764 C 75.13 1.92327 -0.776207 0
M  V30 765 C 75.555 1.76082 0.661581 0
M  V30 766 O 74.913 1.076 1.45917 0
M  V30 767 C 74.961 3.41539 -1.15687 0
M  V30 768 O 74.065 4.11402 -0.286775 0
M  V30 769 H 73.406 0.599735 -0.284981 0
M  V30 770 H 75.936 1.49201 -1.4 0
M  V30 771 H 75.946 3.92269 -1.12202 0
M  V30 772 H 74.621 3.52684 -2.20425 0
M  V30 773 H 73.198 3.70939 -0.381903 0
M  V30 774 N 75.3831 0.828654 1.34056 0
M  V30 775 C 76.3151 0.212052 2.28217 0
M  V30 776 C 77.3281 -0.601362 1.51286 0
M  V30 777 O 78.5171 -0.430104 1.73241 0
M  V30 778 C 75.6171 -0.72088 3.31144 0
M  V30 779 C 74.7901 0.0509587 4.3737 0
M  V30 780 C 73.8491 -0.803766 5.20025 0
M  V30 781 O 72.8751 -0.246667 5.68665 0
M  V30 782 N 74.0771 -2.1227 5.40298 0
M  V30 783 H 76.8421 1.02105 2.81771 0
M  V30 784 H 74.4031 0.686153 1.46641 0
M  V30 785 H 76.3951 -1.29742 3.8334 0
M  V30 786 H 74.9651 -1.43061 2.77943 0
M  V30 787 H 74.1851 0.808831 3.85813 0
M  V30 788 H 75.4731 0.582065 5.0546 0
M  V30 789 H 74.8711 -2.59898 5.02464 0
M  V30 790 H 73.4281 -2.64796 5.95589 0
M  V30 791 N 76.8612 -1.46375 0.584142 0
M  V30 792 C 77.7712 -2.34115 -0.150728 0
M  V30 793 C 78.7872 -1.49838 -0.884567 0
M  V30 794 O 79.9632 -1.82704 -0.847429 0
M  V30 795 C 77.0282 -3.2705 -1.15062 0
M  V30 796 C 76.0892 -4.27228 -0.421293 0
M  V30 797 C 75.3222 -5.15722 -1.37355 0
M  V30 798 O 75.5452 -5.07176 -2.61014 0
M  V30 799 O 74.4792 -5.95383 -0.883355 0
M  V30 800 H 78.3052 -2.98309 0.569708 0
M  V30 801 H 75.8902 -1.45373 0.344535 0
M  V30 802 H 77.7722 -3.84381 -1.72712 0
M  V30 803 H 76.4472 -2.65451 -1.8525 0
M  V30 804 H 75.3542 -3.7358 0.197085 0
M  V30 805 H 76.6872 -4.91616 0.239641 0
M  V30 806 N 78.3393 -0.321999 -1.54275 0
M  V30 807 C 79.5643 0.285791 -2.05422 0
M  V30 808 C 79.9893 1.45124 -1.19669 0
M  V30 809 O 79.3473 1.80132 -0.205441 0
M  V30 810 C 79.3953 0.69956 -3.53749 0
M  V30 811 O 78.4993 1.8021 -3.70942 0
M  V30 812 H 77.8403 0.0518962 -0.661969 0
M  V30 813 H 80.3703 -0.469954 -1.9913 0
M  V30 814 H 80.3803 0.982649 -3.9599 0
M  V30 815 H 79.0553 -0.152864 -4.15619 0
M  V30 816 H 77.6323 1.51794 -3.40607 0
M  V30 817 N 79.8174 1.5752 -0.0501392 0
M  V30 818 C 81.0634 1.92936 0.624798 0
M  V30 819 C 81.3964 0.928685 1.70555 0
M  V30 820 O 80.6714 -0.0454779 1.94447 0
M  V30 821 C 80.9544 3.38737 1.22185 0
M  V30 822 C 80.8074 4.49552 0.149218 0
M  V30 823 C 82.1264 3.84913 2.13378 0
M  V30 824 H 79.2454 0.701604 0.225657 0
M  V30 825 H 81.8874 1.89671 -0.111693 0
M  V30 826 H 80.0374 3.4165 1.84953 0
M  V30 827 H 81.7094 4.58768 -0.482648 0
M  V30 828 H 79.9524 4.30638 -0.522841 0
M  V30 829 H 80.6234 5.48653 0.606966 0
M  V30 830 H 83.0994 3.8387 1.60572 0
M  V30 831 H 81.9754 4.87584 2.52097 0
M  V30 832 H 82.2364 3.21611 3.03346 0
M  V30 833 N 81.2955 -0.223234 1.56011 0
M  V30 834 C 82.5235 -0.964812 1.83027 0
M  V30 835 C 82.9385 -1.78013 0.62904 0
M  V30 836 O 82.2955 -1.78008 -0.402414 0
M  V30 837 C 82.3465 -1.88373 3.08542 0
M  V30 838 O 82.0675 -1.10137 4.2403 0
M  V30 839 C 83.5685 -2.73934 3.48533 0
M  V30 840 H 80.7885 -0.282842 0.608475 0
M  V30 841 H 83.3325 -0.238971 2.03099 0
M  V30 842 H 81.4875 -2.56354 2.9045 0
M  V30 843 H 81.9015 -1.72501 4.95322 0
M  V30 844 H 83.3755 -3.34117 4.39397 0
M  V30 845 H 83.8525 -3.46244 2.70207 0
M  V30 846 H 84.4585 -2.11369 3.69057 0
M  V30 847 N 82.7736 -1.49793 -0.48987 0
M  V30 848 C 83.6836 -1.70036 -1.61632 0
M  V30 849 C 84.6996 -0.583102 -1.63939 0
M  V30 850 O 85.8756 -0.859169 -1.82154 0
M  V30 851 C 82.9406 -1.77277 -2.97949 0
M  V30 852 C 82.0016 -3.00918 -3.06181 0
M  V30 853 C 81.2346 -3.07804 -4.35996 0
M  V30 854 O 81.4576 -2.21982 -5.25433 0
M  V30 855 O 80.3916 -4.00369 -4.49431 0
M  V30 856 H 84.2176 -2.65486 -1.47482 0
M  V30 857 H 81.8026 -1.33666 -0.667362 0
M  V30 858 H 83.6846 -1.84329 -3.78947 0
M  V30 859 H 82.3596 -0.850076 -3.12339 0
M  V30 860 H 81.2666 -2.99377 -2.2433 0
M  V30 861 H 82.5996 -3.92704 -2.96723 0
M  V30 862 N 84.2517 0.741722 -1.39055 0
M  V30 863 C 85.1837 1.8657 -1.33133 0
M  V30 864 C 86.1967 1.61001 -0.241329 0
M  V30 865 O 87.3857 1.7136 -0.499784 0
M  V30 866 C 84.4857 3.22457 -1.04283 0
M  V30 867 C 83.6587 3.75435 -2.24427 0
M  V30 868 C 82.7177 4.89867 -1.92138 0
M  V30 869 O 81.7437 5.03879 -2.64754 0
M  V30 870 N 82.9457 5.73738 -0.88347 0
M  V30 871 H 85.7107 1.92156 -2.29991 0
M  V30 872 H 83.2717 0.922172 -1.3307 0
M  V30 873 H 85.2637 3.9657 -0.807128 0
M  V30 874 H 83.8337 3.12181 -0.161807 0
M  V30 875 H 83.0537 2.92751 -2.6399 0
M  V30 876 H 84.3417 4.07563 -3.04581 0
M  V30 877 H 83.7397 5.64999 -0.281517 0
M  V30 878 H 82.2967 6.47947 -0.707662 0
M  V30 879 N 85.7298 1.2412 0.971189 0
M  V30 880 C 87.0068 0.986867 1.6888 0
M  V30 881 C 87.3868 -0.491857 2.0529 0
M  V30 882 O 86.7348 -1.46531 1.75331 0
M  V30 883 C 86.9448 1.9063 2.92338 0
M  V30 884 C 88.2928 2.17515 3.64654 0
M  V30 885 O 89.3168 1.88254 3.02388 0
M  V30 886 O 88.1758 2.6719 4.7673 0
M  V30 887 H 85.2698 0.372944 0.738134 0
M  V30 888 H 87.8158 1.35203 1.02559 0
M  V30 889 H 86.5878 2.90552 2.62097 0
M  V30 890 H 86.2108 1.54408 3.66393 0
M  V30 891 N 87.2079 -1.17134 1.05439 0
M  V30 892 C 88.4329 -1.91913 0.786396 0
M  V30 893 C 88.8579 -1.7643 -0.652234 0
M  V30 894 O 88.2159 -1.08372 -1.45345 0
M  V30 895 C 88.2639 -3.40921 1.17497 0
M  V30 896 O 87.3679 -4.11244 0.308589 0
M  V30 897 H 86.7089 -0.598215 0.288158 0
M  V30 898 H 89.2389 -1.48457 1.4079 0
M  V30 899 H 89.2489 -3.91668 1.14281 0
M  V30 900 H 87.9239 -3.5151 2.22292 0
M  V30 901 H 86.5009 -3.70731 0.40157 0
M  V30 902 N 88.686 -0.835752 -1.33615 0
M  V30 903 C 89.633 -0.26473 -2.29277 0
M  V30 904 C 90.603 0.617712 -1.54187 0
M  V30 905 O 91.788 0.556641 -1.825 0
M  V30 906 C 88.928 0.556777 -3.40579 0
M  V30 907 C 88.041 -0.349339 -4.30585 0
M  V30 908 C 87.176 0.482969 -5.29 0
M  V30 909 C 86.215 -0.421732 -6.10645 0
M  V30 910 N 85.352 0.372262 -7.01112 0
M  V30 911 H 90.192 -1.08582 -2.77514 0
M  V30 912 H 87.729 -0.546927 -1.36554 0
M  V30 913 H 89.687 1.04852 -4.03809 0
M  V30 914 H 88.317 1.34286 -2.93542 0
M  V30 915 H 87.369 -0.959372 -3.68104 0
M  V30 916 H 88.681 -1.04445 -4.87742 0
M  V30 917 H 87.835 1.03866 -5.97743 0
M  V30 918 H 86.574 1.21153 -4.72412 0
M  V30 919 H 85.579 -0.989464 -5.40823 0
M  V30 920 H 86.804 -1.14861 -6.69316 0
M  V30 921 H 84.75 1.08426 -6.46977 0
M  V30 922 H 84.667 -0.264198 -7.55538 0
M  V30 923 H 85.935 0.910293 -7.74167 0
M  V30 924 N 90.1641 1.46063 -0.591896 0
M  V30 925 C 91.4411 1.95595 -0.0137119 0
M  V30 926 C 91.8211 1.5345 1.4497 0
M  V30 927 O 91.1691 0.789543 2.14426 0
M  V30 928 C 91.3791 3.48453 -0.195373 0
M  V30 929 C 92.7271 4.24546 -0.0679765 0
M  V30 930 O 93.7511 3.55982 -0.124681 0
M  V30 931 O 92.6101 5.46467 0.0600579 0
M  V30 932 H 89.7041 0.825795 0.0446279 0
M  V30 933 H 92.2501 1.56303 -0.660859 0
M  V30 934 H 91.0221 3.72045 -1.21235 0
M  V30 935 H 90.6451 3.94597 0.487775 0
M  V30 936 N 91.6422 0.330177 1.54103 0
M  V30 937 C 92.8672 -0.274893 2.0557 0
M  V30 938 C 93.2922 -1.44487 1.20437 0
M  V30 939 O 92.6502 -1.80021 0.214991 0
M  V30 940 C 92.6982 -0.68079 3.54115 0
M  V30 941 O 91.8022 -1.7824 3.71893 0
M  V30 942 H 91.1432 -0.0483849 0.662235 0
M  V30 943 H 93.6732 0.480508 1.98878 0
M  V30 944 H 93.6832 -0.961635 3.96505 0
M  V30 945 H 92.3582 0.174903 4.15532 0
M  V30 946 H 90.9352 -1.49985 3.41407 0
M  V30 947 N 93.1203 -1.57491 0.0584922 0
M  V30 948 C 94.3483 -1.97296 -0.623037 0
M  V30 949 C 94.7633 -0.936338 -1.63946 0
M  V30 950 O 94.1203 0.0785981 -1.82331 0
M  V30 951 C 94.1713 -3.37183 -1.30345 0
M  V30 952 O 93.8923 -4.36872 -0.32773 0
M  V30 953 C 95.3933 -3.91788 -2.07406 0
M  V30 954 H 92.6133 -0.649153 -0.169826 0
M  V30 955 H 95.1573 -2.04106 0.12696 0
M  V30 956 H 93.3123 -3.31502 -2.00463 0
M  V30 957 H 93.7263 -5.18141 -0.814269 0
M  V30 958 H 95.2003 -4.91926 -2.50425 0
M  V30 959 H 95.6773 -3.27609 -2.92521 0
M  V30 960 H 96.2833 -4.00829 -1.42184 0
M  V30 961 N 94.5984 0.214957 -1.56127 0
M  V30 962 C 95.8284 0.953707 -1.8327 0
M  V30 963 C 96.2364 1.78181 -0.636262 0
M  V30 964 O 95.5794 1.79191 0.404516 0
M  V30 965 C 95.6414 1.91516 -3.0424 0
M  V30 966 C 95.3054 1.27094 -4.38972 0
M  V30 967 C 96.3024 0.657575 -5.15725 0
M  V30 968 C 93.9874 1.28073 -4.85698 0
M  V30 969 C 95.9814 0.0625968 -6.37369 0
M  V30 970 C 93.6684 0.681914 -6.07283 0
M  V30 971 C 94.6664 0.0739046 -6.8296 0
M  V30 972 O 94.3544 -0.515582 -8.02245 0
M  V30 973 H 94.0864 0.284764 -0.613095 0
M  V30 974 H 96.6404 0.233283 -2.04071 0
M  V30 975 H 94.8704 2.67475 -2.79274 0
M  V30 976 H 96.5594 2.52001 -3.18198 0
M  V30 977 H 97.3254 0.642288 -4.80728 0
M  V30 978 H 93.2044 1.74337 -4.26764 0
M  V30 979 H 96.7484 -0.412593 -6.96379 0
M  V30 980 H 92.6454 0.694636 -6.41752 0
M  V30 981 H 93.4134 -0.410544 -8.1747 0
M  V30 982 N 96.0765 1.50051 0.48192 0
M  V30 983 C 97.3015 1.64508 1.26301 0
M  V30 984 C 97.7265 0.323851 1.85291 0
M  V30 985 O 97.0845 -0.710969 1.66778 0
M  V30 986 C 97.1325 2.7305 2.35533 0
M  V30 987 O 96.2365 2.3355 3.39895 0
M  V30 988 H 95.5775 0.549978 0.372048 0
M  V30 989 H 98.1075 1.9636 0.574786 0
M  V30 990 H 98.1175 2.95799 2.8101 0
M  V30 991 H 96.7925 3.68946 1.91967 0
M  V30 992 H 95.3695 2.21205 3.00204 0
M  V30 993 N 97.5546 -0.734337 1.39446 0
M  V30 994 C 98.4846 -1.86155 1.40955 0
M  V30 995 C 99.4656 -1.67898 0.272827 0
M  V30 996 O 100.651 -1.88207 0.478743 0
M  V30 997 C 97.7806 -3.23912 1.25294 0
M  V30 998 C 96.7346 -3.56808 2.36373 0
M  V30 999 C 96.0606 -4.93508 2.058 0
M  V30 1000 C 97.3606 -3.59713 3.78687 0
M  V30 1001 H 99.0546 -1.8515 2.35287 0
M  V30 1002 H 96.6006 -0.889367 1.13253 0
M  V30 1003 H 98.5536 -4.02443 1.2497 0
M  V30 1004 H 97.2776 -3.25446 0.274308 0
M  V30 1005 H 95.9366 -2.80606 2.35914 0
M  V30 1006 H 95.5846 -4.91623 1.06374 0
M  V30 1007 H 95.2846 -5.16486 2.80208 0
M  V30 1008 H 96.8086 -5.74396 2.07128 0
M  V30 1009 H 98.2226 -4.2832 3.81071 0
M  V30 1010 H 96.6196 -3.94209 4.52459 0
M  V30 1011 H 97.6896 -2.59504 4.09617 0
M  V30 1012 N 99.0327 -1.24633 -0.964593 0
M  V30 1013 C 100.258 -1.11596 -1.74818 0
M  V30 1014 C 100.683 0.32723 -1.85232 0
M  V30 1015 O 100.041 1.23695 -1.32549 0
M  V30 1016 C 100.089 -1.76397 -3.1451 0
M  V30 1017 O 99.1927 -1.03685 -3.99153 0
M  V30 1018 H 98.5337 -0.390196 -0.537255 0
M  V30 1019 H 101.064 -1.65002 -1.20977 0
M  V30 1020 H 101.074 -1.8228 -3.65018 0
M  V30 1021 H 99.7487 -2.81401 -3.06246 0
M  V30 1022 H 98.3257 -1.05611 -3.57632 0
M  V30 1023 N 100.511 1.16574 -1.06058 0
M  V30 1024 C 101.736 1.91493 -0.796562 0
M  V30 1025 C 102.161 1.76773 0.642868 0
M  V30 1026 O 101.519 1.09142 1.44768 0
M  V30 1027 C 101.567 3.40293 -1.19303 0
M  V30 1028 O 100.671 4.11074 -0.330394 0
M  V30 1029 H 100.012 0.596678 -0.291326 0
M  V30 1030 H 102.542 1.47708 -1.41575 0
M  V30 1031 H 102.552 3.91057 -1.16356 0
M  V30 1032 H 101.227 3.50326 -2.24153 0
M  V30 1033 H 99.8038 3.70513 -0.421225 0
M  V30 1034 N 101.989 0.842826 1.3317 0
M  V30 1035 C 103.217 0.454055 2.01856 0
M  V30 1036 C 103.632 -0.94587 1.63397 0
M  V30 1037 O 102.989 -1.61534 0.849302 0
M  V30 1038 C 103.04 0.569715 3.56982 0
M  V30 1039 O 102.761 1.91448 3.94055 0
M  V30 1040 C 104.262 0.178412 4.42941 0
M  V30 1041 H 101.482 0.17979 0.646465 0
M  V30 1042 H 104.026 1.1365 1.70012 0
M  V30 1043 H 102.181 -0.0648587 3.87346 0
M  V30 1044 H 102.595 1.90282 4.88767 0
M  V30 1045 H 104.069 0.310376 5.51127 0
M  V30 1046 H 104.546 -0.880056 4.30293 0
M  V30 1047 H 105.152 0.787579 4.17944 0
M  V30 1048 N 103.467 -1.45747 0.599634 0
M  V30 1049 C 104.397 -2.33235 -0.111306 0
M  V30 1050 C 105.378 -1.46359 -0.866781 0
M  V30 1051 O 106.563 -1.75146 -0.838904 0
M  V30 1052 C 103.693 -3.28932 -1.11451 0
M  V30 1053 C 102.647 -4.25381 -0.472772 0
M  V30 1054 C 101.973 -5.1071 -1.58365 0
M  V30 1055 C 103.273 -5.18831 0.600948 0
M  V30 1056 H 104.967 -2.92927 0.61919 0
M  V30 1057 H 102.513 -1.40857 0.299215 0
M  V30 1058 H 104.466 -3.89002 -1.62036 0
M  V30 1059 H 103.19 -2.67381 -1.8755 0
M  V30 1060 H 101.849 -3.66598 0.0121472 0
M  V30 1061 H 101.497 -4.45533 -2.33473 0
M  V30 1062 H 101.197 -5.7604 -1.15982 0
M  V30 1063 H 102.721 -5.73647 -2.09194 0
M  V30 1064 H 104.135 -5.73019 0.179491 0
M  V30 1065 H 102.532 -5.92595 0.946076 0
M  V30 1066 H 103.602 -4.6174 1.48068 0
M  V30 1067 N 104.945 -0.338344 -1.53925 0
M  V30 1068 C 106.173 0.261298 -2.05243 0
M  V30 1069 C 106.588 1.44625 -1.21363 0
M  V30 1070 O 105.945 1.80811 -0.247736 0
M  V30 1071 C 105.996 0.681412 -3.5502 0
M  V30 1072 O 105.717 -0.456414 -4.35716 0
M  V30 1073 C 107.218 1.34232 -4.22489 0
M  V30 1074 H 104.438 0.0513685 -0.669031 0
M  V30 1075 H 106.982 -0.488822 -1.98572 0
M  V30 1076 H 105.137 1.38148 -3.61931 0
M  V30 1077 H 105.551 -0.122564 -5.24357 0
M  V30 1078 H 107.025 1.58708 -5.28693 0
M  V30 1079 H 107.502 2.29426 -3.74514 0
M  V30 1080 H 108.108 0.684424 -4.19757 0
M  V30 1081 N 106.423 1.57458 -0.0668435 0
M  V30 1082 C 107.353 2.15468 0.899764 0
M  V30 1083 C 108.334 1.08042 1.31381 0
M  V30 1084 O 109.519 1.36054 1.38574 0
M  V30 1085 C 106.649 2.71232 2.16911 0
M  V30 1086 C 105.603 3.83781 1.89463 0
M  V30 1087 C 104.929 4.26127 3.22986 0
M  V30 1088 C 106.229 5.08238 1.20381 0
M  V30 1089 H 107.923 2.96488 0.416529 0
M  V30 1090 H 105.469 1.4262 0.198908 0
M  V30 1091 H 107.422 3.10458 2.84945 0
M  V30 1092 H 106.146 1.87426 2.67468 0
M  V30 1093 H 104.805 3.45051 1.23836 0
M  V30 1094 H 104.453 3.39249 3.71374 0
M  V30 1095 H 104.153 5.01993 3.05413 0
M  V30 1096 H 105.677 4.67966 3.92225 0
M  V30 1097 H 107.091 5.44811 1.78475 0
M  V30 1098 H 105.488 5.89349 1.13083 0
M  V30 1099 H 106.558 4.84558 0.182153 0
M  V30 1100 N 107.901 -0.206675 1.56239 0
M  V30 1101 C 109.126 -0.949474 1.8439 0
M  V30 1102 C 109.551 -1.76549 0.649016 0
M  V30 1103 O 108.909 -1.76782 -0.402231 0
M  V30 1104 C 108.957 -1.83078 3.10668 0
M  V30 1105 O 108.061 -2.9281 2.90407 0
M  V30 1106 H 107.402 -0.268033 0.607499 0
M  V30 1107 H 109.932 -0.215488 2.03462 0
M  V30 1108 H 109.942 -2.2377 3.41161 0
M  V30 1109 H 108.617 -1.23112 3.97261 0
M  V30 1110 H 107.194 -2.55956 2.71184 0
M  V30 1111 N 109.379 -1.50304 -0.473955 0
M  V30 1112 C 110.326 -1.68959 -1.57231 0
M  V30 1113 C 111.296 -0.530899 -1.57387 0
M  V30 1114 O 112.481 -0.761133 -1.74961 0
M  V30 1115 C 109.621 -1.7871 -2.95223 0
M  V30 1116 C 108.734 -3.06061 -3.04878 0
M  V30 1117 C 107.869 -3.06626 -4.33767 0
M  V30 1118 C 106.908 -4.28443 -4.37154 0
M  V30 1119 N 106.045 -4.26763 -5.5751 0
M  V30 1120 H 110.885 -2.6273 -1.40631 0
M  V30 1121 H 108.422 -1.30241 -0.683789 0
M  V30 1122 H 110.38 -1.82344 -3.75242 0
M  V30 1123 H 109.01 -0.883806 -3.10465 0
M  V30 1124 H 108.062 -3.11911 -2.17751 0
M  V30 1125 H 109.374 -3.96039 -3.0324 0
M  V30 1126 H 108.528 -3.08973 -5.22131 0
M  V30 1127 H 107.267 -2.14473 -4.3801 0
M  V30 1128 H 106.272 -4.2631 -3.47188 0
M  V30 1129 H 107.497 -5.2182 -4.34605 0
M  V30 1130 H 105.443 -3.37462 -5.62544 0
M  V30 1131 H 105.36 -5.10507 -5.57601 0
M  V30 1132 H 106.628 -4.33253 -6.48006 0
M  V30 1133 N 110.857 0.726932 -1.39834 0
M  V30 1134 C 111.82 1.82269 -1.38962 0
M  V30 1135 C 112.82 1.58248 -0.285334 0
M  V30 1136 O 114.01 1.65499 -0.54366 0
M  V30 1137 C 111.142 3.20186 -1.17019 0
M  V30 1138 H 112.335 1.84443 -2.36476 0
M  V30 1139 H 109.888 0.931416 -1.25516 0
M  V30 1140 H 110.623 3.23669 -0.202204 0
M  V30 1141 H 110.408 3.3902 -1.96998 0
M  V30 1142 H 111.898 4.00235 -1.1917 0
M  V30 1143 N 112.336 1.25143 0.95797 0
M  V30 1144 C 113.613 1.00472 1.67823 0
M  V30 1145 C 113.993 -0.470056 2.058 0
M  V30 1146 O 113.341 -1.44663 1.76875 0
M  V30 1147 C 113.551 1.9372 2.90299 0
M  V30 1148 C 114.899 2.21371 3.62326 0
M  V30 1149 O 115.923 1.91451 3.00375 0
M  V30 1150 O 114.782 2.72231 4.7387 0
M  V30 1151 H 111.876 0.380752 0.734137 0
M  V30 1152 H 114.422 1.36283 1.01119 0
M  V30 1153 H 113.194 2.93316 2.59001 0
M  V30 1154 H 112.817 1.58286 3.64735 0
M  V30 1155 N 113.814 -1.1601 1.06675 0
M  V30 1156 C 115.044 -1.90251 0.805497 0
M  V30 1157 C 115.452 -1.77891 -0.64431 0
M  V30 1158 O 114.795 -1.12383 -1.45313 0
M  V30 1159 C 114.857 -3.41419 1.12576 0
M  V30 1160 C 114.521 -3.77564 2.57477 0
M  V30 1161 C 115.518 -3.79161 3.55715 0
M  V30 1162 C 113.203 -4.08079 2.92877 0
M  V30 1163 C 115.197 -4.10767 4.8739 0
M  V30 1164 C 112.884 -4.39351 4.24751 0
M  V30 1165 C 113.882 -4.40675 5.21818 0
M  V30 1166 O 113.57 -4.71202 6.51325 0
M  V30 1167 H 113.302 -0.610018 0.291297 0
M  V30 1168 H 115.856 -1.47958 1.4247 0
M  V30 1169 H 114.086 -3.84079 0.449503 0
M  V30 1170 H 115.775 -3.9694 0.84814 0
M  V30 1171 H 116.541 -3.55693 3.29708 0
M  V30 1172 H 112.42 -4.06211 2.17976 0
M  V30 1173 H 115.964 -4.11715 5.63148 0
M  V30 1174 H 111.861 -4.62285 4.50514 0
M  V30 1175 H 112.629 -4.88996 6.56373 0
M  V30 1176 N 115.292 -0.849877 -1.32721 0
M  V30 1177 C 116.202 -0.293791 -2.32753 0
M  V30 1178 C 117.218 0.585906 -1.63839 0
M  V30 1179 O 118.394 0.487413 -1.95413 0
M  V30 1180 C 115.459 0.512752 -3.42887 0
M  V30 1181 C 114.52 -0.39252 -4.27502 0
M  V30 1182 C 113.753 0.375625 -5.32377 0
M  V30 1183 O 113.976 1.60613 -5.4732 0
M  V30 1184 O 112.91 -0.256094 -6.01355 0
M  V30 1185 H 116.736 -1.12242 -2.82197 0
M  V30 1186 H 114.321 -0.612685 -1.36259 0
M  V30 1187 H 116.203 0.970704 -4.10067 0
M  V30 1188 H 114.878 1.31826 -2.95641 0
M  V30 1189 H 113.785 -0.898547 -3.63149 0
M  V30 1190 H 115.118 -1.16309 -4.7826 0
M  V30 1191 N 116.77 1.45427 -0.607355 0
M  V30 1192 C 117.717 2.3053 0.111625 0
M  V30 1193 C 118.687 1.4209 0.860216 0
M  V30 1194 O 119.872 1.71019 0.845998 0
M  V30 1195 C 117.012 3.26992 1.10319 0
M  V30 1196 C 116.125 4.30535 0.355493 0
M  V30 1197 C 115.26 5.14105 1.33676 0
M  V30 1198 C 114.299 6.09376 0.576862 0
M  V30 1199 N 113.436 6.85727 1.5074 0
M  V30 1200 H 118.276 2.91477 -0.620093 0
M  V30 1201 H 115.813 1.43631 -0.317594 0
M  V30 1202 H 117.771 3.81385 1.6912 0
M  V30 1203 H 116.401 2.67799 1.80232 0
M  V30 1204 H 115.453 3.78805 -0.348023 0
M  V30 1205 H 116.765 4.98235 -0.237423 0
M  V30 1206 H 115.919 5.72897 1.99684 0
M  V30 1207 H 114.658 4.46423 1.9636 0
M  V30 1208 H 113.663 5.49715 -0.0968519 0
M  V30 1209 H 114.888 6.79085 -0.0449341 0
M  V30 1210 H 112.834 6.20735 2.12189 0
M  V30 1211 H 112.751 7.49778 0.967913 0
M  V30 1212 H 114.019 7.4906 2.15706 0
M  V30 1213 N 118.248 0.346503 1.53744 0
M  V30 1214 C 119.198 -0.524953 2.21874 0
M  V30 1215 C 120.182 -1.06376 1.20718 0
M  V30 1216 O 121.374 -0.996972 1.46251 0
M  V30 1217 C 118.503 -1.6739 2.99726 0
M  V30 1218 C 117.589 -1.14888 4.08242 0
M  V30 1219 N 117.98 -0.345329 5.0462 0
M  V30 1220 C 116.278 -1.4255 4.22606 0
M  V30 1221 C 116.979 -0.0600706 5.81669 0
M  V30 1222 N 115.955 -0.65252 5.39669 0
M  V30 1223 H 119.757 0.0960091 2.93743 0
M  V30 1224 H 117.271 0.15352 1.61673 0
M  V30 1225 H 119.268 -2.3102 3.47038 0
M  V30 1226 H 117.928 -2.29811 2.29384 0
M  V30 1227 H 118.939 0.0138439 5.17898 0
M  V30 1228 H 115.616 -2.05389 3.63486 0
M  V30 1229 H 117.006 0.588321 6.69319 0
M  V30 1230 N 119.726 -1.57421 0.075193 0
M  V30 1231 C 120.673 -2.12915 -0.890843 0
M  V30 1232 C 121.643 -1.04252 -1.29309 0
M  V30 1233 O 122.828 -1.31933 -1.37834 0
M  V30 1234 C 119.968 -2.69795 -2.15186 0
M  V30 1235 C 119.081 -3.92624 -1.80194 0
M  V30 1236 C 118.216 -4.37736 -3.00933 0
M  V30 1237 C 117.255 -5.53205 -2.61974 0
M  V30 1238 N 116.392 -5.9326 -3.75483 0
M  V30 1239 H 121.232 -2.95156 -0.410735 0
M  V30 1240 H 118.769 -1.45854 -0.191086 0
M  V30 1241 H 120.727 -3.00883 -2.89008 0
M  V30 1242 H 119.357 -1.90313 -2.60731 0
M  V30 1243 H 118.409 -3.67977 -0.964218 0
M  V30 1244 H 119.721 -4.76482 -1.47534 0
M  V30 1245 H 118.875 -4.70503 -3.8303 0
M  V30 1246 H 117.614 -3.52739 -3.36789 0
M  V30 1247 H 116.619 -5.20086 -1.783 0
M  V30 1248 H 117.844 -6.39936 -2.27284 0
M  V30 1249 H 115.79 -5.11212 -4.11094 0
M  V30 1250 H 115.707 -6.71865 -3.46602 0
M  V30 1251 H 116.975 -6.30651 -4.58148 0
M  V30 1252 N 121.204 0.198386 -1.56346 0
M  V30 1253 C 122.45 0.920648 -1.80698 0
M  V30 1254 C 122.783 1.83045 -0.648697 0
M  V30 1255 O 122.058 1.91308 0.350925 0
M  V30 1256 C 122.341 1.73971 -3.15287 0
M  V30 1257 C 122.194 0.85485 -4.41602 0
M  V30 1258 C 123.513 2.71296 -3.46535 0
M  V30 1259 H 120.632 0.333261 -0.657348 0
M  V30 1260 H 123.274 0.188198 -1.89066 0
M  V30 1261 H 121.424 2.36416 -3.08285 0
M  V30 1262 H 123.096 0.245362 -4.60647 0
M  V30 1263 H 121.339 0.161398 -4.335 0
M  V30 1264 H 122.01 1.46286 -5.32264 0
M  V30 1265 H 124.486 2.18983 -3.53816 0
M  V30 1266 H 123.362 3.2569 -4.41834 0
M  V30 1267 H 123.623 3.5018 -2.69864 0
M  V30 1268 N 122.682 1.50554 0.465978 0
M  V30 1269 C 123.912 1.65323 1.23903 0
M  V30 1270 C 124.32 0.338051 1.86155 0
M  V30 1271 O 123.663 -0.690518 1.70228 0
M  V30 1272 C 123.725 2.69048 2.3844 0
M  V30 1273 C 123.389 4.12462 1.96784 0
M  V30 1274 C 124.386 4.98168 1.48745 0
M  V30 1275 C 122.071 4.58407 2.05349 0
M  V30 1276 C 124.065 6.27868 1.0982 0
M  V30 1277 C 121.752 5.88112 1.66035 0
M  V30 1278 C 122.75 6.72668 1.18349 0
M  V30 1279 O 122.438 7.99951 0.795825 0
M  V30 1280 H 122.17 0.558629 0.38067 0
M  V30 1281 H 124.724 1.97561 0.562022 0
M  V30 1282 H 122.954 2.32062 3.09328 0
M  V30 1283 H 124.643 2.72985 3.0039 0
M  V30 1284 H 125.409 4.63885 1.41546 0
M  V30 1285 H 121.288 3.92735 2.41414 0
M  V30 1286 H 124.832 6.93819 0.725293 0
M  V30 1287 H 120.729 6.21914 1.72895 0
M  V30 1288 H 121.497 8.13265 0.924222 0
M  V30 1289 N 124.16 -0.719506 1.40217 0
M  V30 1290 C 125.123 -1.8153 1.39927 0
M  V30 1291 C 126.123 -1.58095 0.293723 0
M  V30 1292 O 127.313 -1.65209 0.552429 0
M  V30 1293 C 124.445 -3.19561 1.18716 0
M  V30 1294 H 125.638 -1.83186 2.37451 0
M  V30 1295 H 123.191 -0.924746 1.26008 0
M  V30 1296 H 123.926 -3.23557 0.219366 0
M  V30 1297 H 123.711 -3.3797 1.98793 0
M  V30 1298 H 125.201 -3.99598 1.21291 0
M  V30 1299 N 125.638 -1.25649 -0.95132 0
M  V30 1300 C 126.878 -1.11802 -1.71113 0
M  V30 1301 C 127.242 0.334758 -1.89059 0
M  V30 1302 O 128.443 0.595121 -2.62129 0
M  V30 1303 C 126.714 -1.85512 -3.05483 0
M  V30 1304 S 128.273 -1.87597 -3.96677 0
M  V30 1305 H 125.091 -0.399552 -0.588115 0
M  V30 1306 H 127.693 -1.59222 -1.1344 0
M  V30 1307 H 126.397 -2.90299 -2.90094 0
M  V30 1308 H 125.928 -1.38493 -3.68216 0
M  V30 1309 H 127.943 -0.955389 -4.86916 0
M  V30 1310 N 127.117 1.15442 -1.07289 0
M  V30 1311 C 128.027 2.23786 -0.704057 0
M  V30 1312 C 129.043 1.7166 0.284413 0
M  V30 1313 O 130.219 2.00972 0.131205 0
M  V30 1314 C 127.284 3.46535 -0.106792 0
M  V30 1315 C 126.345 4.13654 -1.14842 0
M  V30 1316 C 125.578 5.30544 -0.57956 0
M  V30 1317 O 125.801 5.67187 0.604585 0
M  V30 1318 O 124.735 5.87154 -1.32414 0
M  V30 1319 H 128.561 2.57664 -1.60757 0
M  V30 1320 H 126.146 1.23152 -0.845803 0
M  V30 1321 H 128.028 4.20804 0.224048 0
M  V30 1322 H 126.703 3.14407 0.770049 0
M  V30 1323 H 125.61 3.4131 -1.5316 0
M  V30 1324 H 126.943 4.49861 -1.99714 0
M  V30 1325 N 128.595 0.856903 1.32268 0
M  V30 1326 C 129.841 0.462069 1.97466 0
M  V30 1327 C 130.174 -0.980298 1.67642 0
M  V30 1328 O 129.449 -1.68824 0.965858 0
M  V30 1329 C 129.732 0.704336 3.53145 0
M  V30 1330 C 129.585 2.19529 3.9259 0
M  V30 1331 C 130.904 0.1622 4.39801 0
M  V30 1332 H 128.023 0.169357 0.717278 0
M  V30 1333 H 130.665 1.07574 1.56614 0
M  V30 1334 H 128.815 0.181999 3.88073 0
M  V30 1335 H 130.487 2.78387 3.67829 0
M  V30 1336 H 128.73 2.67292 3.41668 0
M  V30 1337 H 129.401 2.31549 5.01088 0
M  V30 1338 H 131.877 0.608905 4.11621 0
M  V30 1339 H 130.753 0.361265 5.4771 0
M  V30 1340 H 131.014 -0.935158 4.32096 0
M  V30 1341 N 130.073 -1.45103 0.615059 0
M  V30 1342 C 131.301 -2.06553 0.11977 0
M  V30 1343 C 131.716 -1.45842 -1.19898 0
M  V30 1344 O 131.073 -0.575325 -1.73194 0
M  V30 1345 C 131.124 -3.61495 -0.018364 0
M  V30 1346 O 130.845 -4.19942 1.24822 0
M  V30 1347 C 132.346 -4.39947 -0.544237 0
M  V30 1348 H 129.566 -0.667096 0.0722739 0
M  V30 1349 H 132.11 -1.8623 0.84491 0
M  V30 1350 H 130.265 -3.81135 -0.693865 0
M  V30 1351 H 130.679 -5.13204 1.0827 0
M  V30 1352 H 132.153 -5.48838 -0.589953 0
M  V30 1353 H 132.63 -4.10255 -1.56805 0
M  V30 1354 H 133.236 -4.25188 0.0974703 0
M  V30 1355 N 131.551 -0.354651 -1.53558 0
M  V30 1356 C 132.501 0.513179 -2.2215 0
M  V30 1357 C 133.485 1.05734 -1.21281 0
M  V30 1358 O 134.677 0.989202 -1.46778 0
M  V30 1359 C 131.806 1.65798 -3.00609 0
M  V30 1360 C 130.892 1.12722 -4.08845 0
M  V30 1361 N 131.283 0.318563 -5.04796 0
M  V30 1362 C 129.581 1.40307 -4.23356 0
M  V30 1363 C 130.282 0.0292224 -5.81693 0
M  V30 1364 N 129.258 0.623891 -5.40008 0
M  V30 1365 H 133.06 -0.111586 -2.93688 0
M  V30 1366 H 130.574 -0.162091 -1.61589 0
M  V30 1367 H 132.571 2.29176 -3.48258 0
M  V30 1368 H 131.231 2.28591 -2.306 0
M  V30 1369 H 132.242 -0.0413091 -5.17884 0
M  V30 1370 H 128.919 2.03458 -3.6457 0
M  V30 1371 H 130.309 -0.623808 -6.68998 0
M  V30 1372 N 133.029 1.57378 -0.0835403 0
M  V30 1373 C 133.961 2.10389 0.909338 0
M  V30 1374 C 134.974 1.03858 1.25369 0
M  V30 1375 O 136.163 1.31338 1.20882 0
M  V30 1376 C 133.263 2.55908 2.2218 0
M  V30 1377 C 132.436 3.86145 2.05453 0
M  V30 1378 C 131.495 4.17633 3.20108 0
M  V30 1379 O 130.521 4.87043 2.94581 0
M  V30 1380 N 131.723 3.72113 4.45547 0
M  V30 1381 H 134.488 2.962 0.456657 0
M  V30 1382 H 132.049 1.61579 0.101877 0
M  V30 1383 H 134.041 2.74027 2.97811 0
M  V30 1384 H 132.611 1.75171 2.58909 0
M  V30 1385 H 131.831 3.7729 1.1422 0
M  V30 1386 H 133.119 4.7137 1.91541 0
M  V30 1387 H 132.517 3.16062 4.69171 0
M  V30 1388 H 131.074 3.95409 5.18165 0
M  V30 1389 N 134.507 -0.190092 1.56449 0
M  V30 1390 C 135.755 -0.907908 1.80559 0
M  V30 1391 C 136.076 -1.83583 0.657438 0
M  V30 1392 O 135.346 -1.93203 -0.323924 0
M  V30 1393 H 133.926 -0.338247 0.666032 0
M  V30 1394 H 136.588 -0.194403 1.93928 0
M  V30 1395 H 135.684 -1.49604 2.73907 0
M  V30 1396 N 135.985 -1.50799 -0.457987 0
M  V30 1397 C 136.915 -1.73553 -1.5621 0
M  V30 1398 C 137.896 -0.584774 -1.59732 0
M  V30 1399 O 139.081 -0.825314 -1.7579 0
M  V30 1400 C 136.211 -1.84169 -2.94447 0
M  V30 1401 C 135.165 -2.99461 -3.0579 0
M  V30 1402 C 134.491 -2.95235 -4.45803 0
M  V30 1403 C 135.791 -4.39766 -2.81786 0
M  V30 1404 H 137.485 -2.66 -1.37421 0
M  V30 1405 H 135.031 -1.28002 -0.659662 0
M  V30 1406 H 136.984 -1.98672 -3.71628 0
M  V30 1407 H 135.708 -0.883545 -3.14422 0
M  V30 1408 H 134.367 -2.8463 -2.31044 0
M  V30 1409 H 134.015 -1.97239 -4.62715 0
M  V30 1410 H 133.715 -3.72642 -4.54326 0
M  V30 1411 H 135.239 -3.11803 -5.24987 0
M  V30 1412 H 136.653 -4.55054 -3.4871 0
M  V30 1413 H 135.05 -5.18722 -3.0174 0
M  V30 1414 H 136.12 -4.51229 -1.7754 0
M  V30 1415 N 137.463 0.71206 -1.40597 0
M  V30 1416 C 138.688 1.50617 -1.42581 0
M  V30 1417 C 139.113 1.88079 -0.0282102 0
M  V30 1418 O 138.471 1.53511 0.964579 0
M  V30 1419 C 138.519 2.7557 -2.3258 0
M  V30 1420 O 137.623 3.72414 -1.77148 0
M  V30 1421 H 136.964 0.453966 -0.484573 0
M  V30 1422 H 139.494 0.876649 -1.84868 0
M  V30 1423 H 139.504 3.2406 -2.47889 0
M  V30 1424 H 138.179 2.47639 -3.34138 0
M  V30 1425 H 136.756 3.31276 -1.71204 0
M  V30 1426 N 138.941 1.26152 0.944643 0
M  V30 1427 C 140.166 1.14363 1.7302 0
M  V30 1428 C 140.591 -0.29772 1.85729 0
M  V30 1429 O 139.949 -1.2157 1.34501 0
M  V30 1430 C 139.997 1.81378 3.11664 0
M  V30 1431 O 139.101 1.10022 3.97453 0
M  V30 1432 H 138.442 0.398694 0.53098 0
M  V30 1433 H 140.972 1.66906 1.18337 0
M  V30 1434 H 140.982 1.88064 3.62072 0
M  V30 1435 H 139.657 2.86237 3.0173 0
M  V30 1436 H 138.234 1.11287 3.55907 0
M  V30 1437 N 140.419 -1.14872 1.07899 0
M  V30 1438 C 141.83 -1.67367 0.827363 0
M  V30 1439 C 142.181 -1.85236 -0.646693 0
M  V30 1440 O 141.306 -1.55974 -1.50004 0
M  V30 1441 C 141.901 -3.04016 1.49532 0
M  V30 1442 C 140.46 -3.53566 1.29106 0
M  V30 1443 C 139.607 -2.29161 1.56143 0
M  V30 1444 H 142.558 -0.990083 1.24028 0
M  V30 1445 H 142.579 -3.69219 0.919643 0
M  V30 1446 H 142.091 -2.90978 2.56814 0
M  V30 1447 H 140.192 -3.71835 0.238713 0
M  V30 1448 H 140.305 -4.34661 2.01511 0
M  V30 1449 H 138.669 -2.34978 0.982717 0
M  V30 1450 H 139.452 -2.18705 2.64619 0
M  V30 1451 N 141.898 -0.863906 -1.31812 0
M  V30 1452 C 143.144 -0.472535 -1.97218 0
M  V30 1453 C 143.477 0.971394 -1.68159 0
M  V30 1454 O 142.752 1.68309 -0.974798 0
M  V30 1455 C 143.035 -0.723054 -3.52766 0
M  V30 1456 C 142.888 -2.21608 -3.91421 0
M  V30 1457 C 144.207 -0.185522 -4.39709 0
M  V30 1458 H 141.326 -0.173158 -0.71637 0
M  V30 1459 H 143.968 -1.08403 -1.56041 0
M  V30 1460 H 142.118 -0.202577 -3.87971 0
M  V30 1461 H 143.79 -2.80334 -3.66347 0
M  V30 1462 H 142.033 -2.691 -3.40246 0
M  V30 1463 H 142.704 -2.34203 -4.99853 0
M  V30 1464 H 145.18 -0.630726 -4.11292 0
M  V30 1465 H 144.056 -0.390306 -5.47511 0
M  V30 1466 H 144.317 0.912229 -4.32586 0
M  V30 1467 N 143.376 1.44774 -0.622745 0
M  V30 1468 C 144.604 2.06487 -0.130722 0
M  V30 1469 C 145.019 1.46476 1.19123 0
M  V30 1470 O 144.376 0.584502 1.72887 0
M  V30 1471 C 144.427 3.615 -0.000807207 0
M  V30 1472 O 144.148 4.19274 -1.27048 0
M  V30 1473 C 145.649 4.40229 0.520898 0
M  V30 1474 H 142.869 0.666704 -0.0758106 0
M  V30 1475 H 145.413 1.85779 -0.854774 0
M  V30 1476 H 143.568 3.81498 0.673643 0
M  V30 1477 H 143.982 5.12622 -1.1099 0
M  V30 1478 H 145.456 5.49144 0.560838 0
M  V30 1479 H 145.933 4.1108 1.54627 0
M  V30 1480 H 146.539 4.25131 -0.120018 0
M  V30 1481 N 144.854 0.36279 1.53368 0
M  V30 1482 C 145.801 -0.485008 2.25646 0
M  V30 1483 C 146.771 -1.07982 1.2621 0
M  V30 1484 O 147.956 -1.11284 1.54986 0
M  V30 1485 C 145.096 -1.62023 3.04701 0
M  V30 1486 C 144.209 -1.05086 4.19024 0
M  V30 1487 C 143.344 -2.15496 4.85525 0
M  V30 1488 C 142.383 -1.5601 5.91884 0
M  V30 1489 N 141.52 -2.60241 6.52088 0
M  V30 1490 H 146.36 0.137864 2.97681 0
M  V30 1491 H 143.897 0.0798061 1.46883 0
M  V30 1492 H 145.855 -2.28887 3.48807 0
M  V30 1493 H 144.485 -2.2138 2.34927 0
M  V30 1494 H 143.537 -0.27259 3.79422 0
M  V30 1495 H 144.849 -0.575926 4.95464 0
M  V30 1496 H 144.003 -2.90186 5.32801 0
M  V30 1497 H 142.742 -2.66341 4.08551 0
M  V30 1498 H 141.747 -0.798338 5.43973 0
M  V30 1499 H 142.972 -1.05994 6.70777 0
M  V30 1500 H 140.918 -3.10304 5.77968 0
M  V30 1501 H 140.835 -2.17426 7.24059 0
M  V30 1502 H 142.103 -3.34641 7.04014 0
M  V30 1503 N 146.332 -1.57332 0.0918853 0
M  V30 1504 C 147.557 -1.98995 -0.584442 0
M  V30 1505 C 147.982 -0.970528 -1.61128 0
M  V30 1506 O 147.34 0.0613904 -1.81196 0
M  V30 1507 C 147.388 -3.39636 -1.21161 0
M  V30 1508 O 146.492 -3.40447 -2.32744 0
M  V30 1509 H 145.833 -0.647165 -0.148572 0
M  V30 1510 H 148.363 -2.03873 0.172347 0
M  V30 1511 H 148.373 -3.7726 -1.55367 0
M  V30 1512 H 147.048 -4.13356 -0.459313 0
M  V30 1513 H 145.625 -3.14614 -2.0018 0
M  V30 1514 N 147.81 0.181792 -1.56548 0
M  V30 1515 C 149.057 0.900097 -1.81396 0
M  V30 1516 C 149.385 1.82695 -0.667281 0
M  V30 1517 O 148.64 1.92614 0.346146 0
M  V30 1518 C 148.939 1.73728 -3.12335 0
M  V30 1519 C 148.605 0.960255 -4.40556 0
M  V30 1520 C 147.267 0.745766 -4.75386 0
M  V30 1521 C 149.619 0.414477 -5.19549 0
M  V30 1522 C 146.947 -0.0257694 -5.86694 0
M  V30 1523 C 149.299 -0.343916 -6.31664 0
M  V30 1524 C 147.963 -0.569301 -6.65068 0
M  V30 1525 H 147.233 0.329369 -0.663775 0
M  V30 1526 H 149.88 0.165647 -1.90782 0
M  V30 1527 H 148.185 2.54081 -2.98245 0
M  V30 1528 H 149.882 2.29591 -3.28769 0
M  V30 1529 H 146.472 1.13746 -4.13231 0
M  V30 1530 H 150.656 0.567554 -4.93044 0
M  V30 1531 H 145.912 -0.210233 -6.11038 0
M  V30 1532 H 150.086 -0.774133 -6.92084 0
M  V30 1533 H 147.713 -1.16903 -7.51158 0
M  V30 1534 N 149.288 1.51039 0.449983 0
M  V30 1535 C 150.236 1.71995 1.5659 0
M  V30 1536 C 151.23 0.586029 1.5894 0
M  V30 1537 O 152.436 0.76709 1.62837 0
M  V30 1538 H 148.811 0.543233 0.520001 0
M  V30 1539 H 150.782 2.65562 1.36085 0
M  V30 1540 C 149.531 1.8506 2.9436 0
M  V30 1541 H 148.854 2.71712 2.93279 0
M  V30 1542 H 150.294 2.0374 3.71842 0
M  V30 1543 C 148.753 0.607277 3.31382 0
M  V30 1544 O 149.283 -0.243903 4.00959 0
M  V30 1545 N 147.489 0.455073 2.87015 0
M  V30 1546 H 147.036 1.14879 2.30566 0
M  V30 1547 H 146.994 -0.375611 3.12148 0
M  V30 1548 N 150.766 -0.704594 1.40972 0
M  V30 1549 C 152.182 -1.01406 1.23244 0
M  V30 1550 C 152.382 -2.01169 0.115399 0
M  V30 1551 O 151.438 -2.47021 -0.523147 0
M  V30 1552 C 152.751 -1.54728 2.57836 0
M  V30 1553 C 154.299 -1.66658 2.64942 0
M  V30 1554 C 154.774 -2.23383 3.9983 0
M  V30 1555 N 156.265 -2.30756 4.01629 0
M  V30 1556 C 157 -2.75655 5.02794 0
M  V30 1557 N 156.496 -3.20225 6.14352 0
M  V30 1558 N 158.289 -2.75138 4.90159 0
M  V30 1559 H 150.44 -0.0435285 2.12355 0
M  V30 1560 H 152.703 -0.0818951 0.944456 0
M  V30 1561 H 152.409 -0.888832 3.40283 0
M  V30 1562 H 152.283 -2.53084 2.79693 0
M  V30 1563 H 154.67 -2.31617 1.8286 0
M  V30 1564 H 154.751 -0.668717 2.46904 0
M  V30 1565 H 154.395 -1.59043 4.82357 0
M  V30 1566 H 154.325 -3.23904 4.15203 0
M  V30 1567 H 156.816 -1.99291 3.21079 0
M  V30 1568 H 157.129 -3.53084 6.87424 0
M  V30 1569 H 155.474 -3.18156 6.17901 0
M  V30 1570 H 158.665 -2.39661 4.02095 0
M  V30 1571 H 158.838 -3.09812 5.6914 0
M  V30 1572 N 152.244 -1.26651 -0.937939 0
M  V30 1573 C 153.492 -1.12165 -1.68118 0
M  V30 1574 C 153.813 0.334983 -1.92101 0
M  V30 1575 O 153.083 1.23583 -1.52 0
M  V30 1576 H 151.663 -0.412093 -0.623048 0
M  V30 1577 H 154.325 -1.59027 -1.12678 0
M  V30 1578 H 153.421 -1.64289 -2.6536 0
M  V30 1579 N 153.722 1.14298 -1.08507 0
M  V30 1580 C 154.632 2.23027 -0.727753 0
M  V30 1581 C 155.648 1.71952 0.26619 0
M  V30 1582 O 156.824 2.011 0.109882 0
M  V30 1583 C 153.889 3.46403 -0.143541 0
M  V30 1584 C 152.95 4.12413 -1.19223 0
M  V30 1585 C 152.183 5.29899 -0.635798 0
M  V30 1586 O 152.406 5.67796 0.544393 0
M  V30 1587 O 151.34 5.85717 -1.38634 0
M  V30 1588 H 155.166 2.55945 -1.63481 0
M  V30 1589 H 152.751 1.22248 -0.858817 0
M  V30 1590 H 154.633 4.21018 0.179404 0
M  V30 1591 H 153.308 3.15206 0.736659 0
M  V30 1592 H 152.215 3.39667 -1.56772 0
M  V30 1593 H 153.548 4.47718 -2.04474 0
M  V30 1594 N 155.201 0.870884 1.31352 0
M  V30 1595 C 156.441 0.488783 1.9847 0
M  V30 1596 C 156.805 -0.941536 1.67329 0
M  V30 1597 O 158.006 -1.42903 2.27667 0
M  V30 1598 C 156.277 0.739688 3.49662 0
M  V30 1599 S 157.836 0.457582 4.36408 0
M  V30 1600 H 154.654 0.18242 0.6872 0
M  V30 1601 H 157.256 1.12711 1.59739 0
M  V30 1602 H 155.96 1.77944 3.69816 0
M  V30 1603 H 155.491 0.0883905 3.93301 0
M  V30 1604 H 157.506 -0.709752 4.91098 0
M  V30 1605 O 156.718 -1.41941 0.770395 0
M  V30 1606 H 157.409 -1.908 0.333941 0
M  V30 END ATOM
M  V30 BEGIN BOND
M  V30 END BOND
M  V30 END CTAB
M  END
$$$$
