drugbank_target|P0A753 Nicotinate-nucleotide adenylyltransferase (DB04272)
 OpenBabel12092120233D

  0  0  0     0  0            999 V3000
M  V30 BEGIN CTAB
M  V30 COUNTS 3442 3492 0 0 0
M  V30 BEGIN ATOM
M  V30 1 H -0.908 1.98254 -0.117106 0
M  V30 2 N 0 1.576 0 0
M  V30 3 C 0.933 2.03868 1.02534 0
M  V30 4 C 1.911 0.928543 1.3348 0
M  V30 5 O 3.095 1.19667 1.45644 0
M  V30 6 C 0.222 2.43627 2.35294 0
M  V30 7 C -0.732 3.65373 2.2001 0
M  V30 8 S 0.101 5.13292 1.52614 0
M  V30 9 C 1.257 5.56322 2.86805 0
M  V30 10 H 1.49 2.90518 0.631377 0
M  V30 11 H -0.977 1.52953 0.210867 0
M  V30 12 H 0.981 2.67203 3.11629 0
M  V30 13 H -0.358 1.57376 2.7183 0
M  V30 14 H -1.165 3.90944 3.18086 0
M  V30 15 H -1.563 3.418 1.51819 0
M  V30 16 H 0.729 5.58782 3.83104 0
M  V30 17 H 1.672 6.56266 2.65933 0
M  V30 18 H 2.08 4.83886 2.90714 0
M  V30 19 N 1.4781 -0.272755 1.55222 0
M  V30 20 C 2.4251 -1.33716 1.88119 0
M  V30 21 C 3.3951 -1.49066 0.73271 0
M  V30 22 O 4.5801 -1.63469 0.984002 0
M  V30 23 C 1.7201 -2.69238 2.15882 0
M  V30 24 C 0.8331 -2.62108 3.43399 0
M  V30 25 C -0.0319 -3.89811 3.60861 0
M  V30 26 C -0.9929 -3.77193 4.8207 0
M  V30 27 N -1.8559 -4.9673 4.96189 0
M  V30 28 H 2.9841 -1.04962 2.78903 0
M  V30 29 H 0.5211 -0.507088 1.38083 0
M  V30 30 H 2.4791 -3.48089 2.29978 0
M  V30 31 H 1.1091 -2.96194 1.28331 0
M  V30 32 H 0.1611 -1.74967 3.37773 0
M  V30 33 H 1.4731 -2.48685 4.32386 0
M  V30 34 H 0.6271 -4.77103 3.74777 0
M  V30 35 H -0.6339 -4.06102 2.7006 0
M  V30 36 H -1.6289 -2.88284 4.68159 0
M  V30 37 H -0.4039 -3.62421 5.74307 0
M  V30 38 H -2.4579 -5.13431 4.08319 0
M  V30 39 H -2.5409 -4.85839 5.79221 0
M  V30 40 H -1.2729 -5.85594 5.1449 0
M  V30 41 N 2.9562 -1.48159 -0.537278 0
M  V30 42 C 4.1812 -1.59707 -1.32319 0
M  V30 43 C 4.6062 -0.254859 -1.86365 0
M  V30 44 O 3.9642 0.772378 -1.64024 0
M  V30 45 C 4.0122 -2.6412 -2.45505 0
M  V30 46 O 3.1162 -2.20774 -3.48328 0
M  V30 47 H 2.4572 -0.535791 -0.392204 0
M  V30 48 H 4.9872 -1.94092 -0.647268 0
M  V30 49 H 4.9972 -2.85166 -2.91795 0
M  V30 50 H 3.6722 -3.61567 -2.05528 0
M  V30 51 H 2.2492 -2.09911 -3.08207 0
M  V30 52 N 4.4343 0.785586 -1.36625 0
M  V30 53 C 5.3643 1.91259 -1.33949 0
M  V30 54 C 6.3453 1.68795 -0.210325 0
M  V30 55 O 7.5303 1.89854 -0.408561 0
M  V30 56 C 4.6603 3.28339 -1.13186 0
M  V30 57 C 3.6143 3.65335 -2.22967 0
M  V30 58 C 2.9403 5.00806 -1.87342 0
M  V30 59 C 4.2403 3.7352 -3.65075 0
M  V30 60 H 5.9343 1.93755 -2.28253 0
M  V30 61 H 3.4803 0.930788 -1.09874 0
M  V30 62 H 5.4333 4.06804 -1.09948 0
M  V30 63 H 4.1573 3.2624 -0.153332 0
M  V30 64 H 2.8163 2.89169 -2.25337 0
M  V30 65 H 2.4643 4.95233 -0.880545 0
M  V30 66 H 2.1643 5.26529 -2.60846 0
M  V30 67 H 3.6883 5.81687 -1.85667 0
M  V30 68 H 5.1023 4.42168 -3.64911 0
M  V30 69 H 3.4993 4.10731 -4.37516 0
M  V30 70 H 4.5693 2.74527 -3.99703 0
M  V30 71 N 5.9124 1.20967 1.01018 0
M  V30 72 C 6.8444 0.922059 2.09835 0
M  V30 73 C 7.8574 -0.0927106 1.62536 0
M  V30 74 O 9.0464 0.139127 1.77957 0
M  V30 75 C 6.1464 0.362004 3.36961 0
M  V30 76 C 5.3194 1.42986 4.13369 0
M  V30 77 C 4.3784 0.879976 5.1879 0
M  V30 78 O 3.4044 1.56219 5.47343 0
M  V30 79 N 4.6064 -0.307396 5.79686 0
M  V30 80 H 7.3714 1.8588 2.35093 0
M  V30 81 H 4.9324 1.11422 1.1746 0
M  V30 82 H 6.9244 -0.0201474 4.04695 0
M  V30 83 H 5.4944 -0.479437 3.08902 0
M  V30 84 H 4.7144 1.98608 3.40512 0
M  V30 85 H 6.0024 2.14885 4.61196 0
M  V30 86 H 5.4004 -0.878796 5.58832 0
M  V30 87 H 3.9574 -0.631115 6.48737 0
M  V30 88 N 7.3905 -1.2043 1.01659 0
M  V30 89 C 8.3535 -2.21433 0.591616 0
M  V30 90 C 9.3535 -1.57203 -0.338226 0
M  V30 91 O 10.5435 -1.73737 -0.126918 0
M  V30 92 C 7.6755 -3.40628 -0.136058 0
M  V30 93 H 8.8685 -2.60545 1.48514 0
M  V30 94 H 6.4215 -1.33893 0.806379 0
M  V30 95 H 7.1565 -3.07019 -1.04449 0
M  V30 96 H 6.9415 -3.88475 0.531917 0
M  V30 97 H 8.4315 -4.15475 -0.420735 0
M  V30 98 N 8.8686 -0.792821 -1.36206 0
M  V30 99 C 9.7986 -0.207853 -2.32573 0
M  V30 100 C 10.7796 0.659055 -1.56813 0
M  V30 101 O 11.9646 0.592176 -1.84951 0
M  V30 102 C 9.0946 0.655449 -3.41059 0
M  V30 103 C 8.0486 -0.111842 -4.27854 0
M  V30 104 C 7.3746 0.872274 -5.27537 0
M  V30 105 C 8.6746 -1.30299 -5.05786 0
M  V30 106 H 10.3686 -1.01294 -2.81744 0
M  V30 107 H 7.9146 -0.48854 -1.3546 0
M  V30 108 H 9.8676 1.07464 -4.07467 0
M  V30 109 H 8.5916 1.49328 -2.90463 0
M  V30 110 H 7.2506 -0.512053 -3.63006 0
M  V30 111 H 6.8986 1.70523 -4.73214 0
M  V30 112 H 6.5986 0.363291 -5.86476 0
M  V30 113 H 8.1226 1.28996 -5.96818 0
M  V30 114 H 9.5366 -0.959379 -5.65216 0
M  V30 115 H 7.9336 -1.7455 -5.74154 0
M  V30 116 H 9.0036 -2.09663 -4.37229 0
M  V30 117 N 10.3467 1.47872 -0.545128 0
M  V30 118 C 11.5937 2.02493 -0.0165858 0
M  V30 119 C 11.9217 1.42073 1.32836 0
M  V30 120 O 11.1767 0.561459 1.87473 0
M  V30 121 C 11.4757 3.57131 0.13867 0
M  V30 122 C 11.1417 4.36411 -1.13384 0
M  V30 123 C 9.8037 4.57792 -1.48256 0
M  V30 124 C 12.1557 4.82223 -1.97764 0
M  V30 125 C 9.4837 5.22233 -2.67376 0
M  V30 126 C 11.8357 5.47977 -3.16076 0
M  V30 127 C 10.4997 5.67593 -3.51275 0
M  V30 128 H 9.7697 0.740975 -0.00606918 0
M  V30 129 H 12.4167 1.77683 -0.714207 0
M  V30 130 H 10.7217 3.80865 0.919172 0
M  V30 131 H 12.4187 3.97031 0.562782 0
M  V30 132 H 9.0087 4.2004 -0.852297 0
M  V30 133 H 13.1927 4.65493 -1.72132 0
M  V30 134 H 8.4487 5.35616 -2.94831 0
M  V30 135 H 12.6227 5.8244 -3.81755 0
M  V30 136 H 10.2497 6.17298 -4.43675 0
M  V30 137 N 11.8248 0.280983 1.55075 0
M  V30 138 C 13.0728 -0.333455 1.9933 0
M  V30 139 C 13.3938 -1.55937 1.17085 0
M  V30 140 O 12.6638 -1.94143 0.261805 0
M  V30 141 H 11.2438 -0.126197 0.736263 0
M  V30 142 H 13.9058 0.387678 1.91005 0
M  V30 143 H 13.0018 -0.619292 3.05894 0
M  V30 144 N 13.3029 -1.57598 0.00835791 0
M  V30 145 C 14.5509 -1.90551 -0.6734 0
M  V30 146 C 14.8719 -0.883301 -1.73847 0
M  V30 147 O 14.1419 0.0781442 -1.95744 0
M  V30 148 H 12.7219 -0.703312 -0.251717 0
M  V30 149 H 15.3839 -1.94833 0.0512592 0
M  V30 150 H 14.4799 -2.9056 -1.13935 0
M  V30 151 N 14.781 0.264519 -1.55364 0
M  V30 152 C 16.009 1.013 -1.80405 0
M  V30 153 C 16.424 1.79618 -0.581622 0
M  V30 154 O 15.781 1.76879 0.449468 0
M  V30 155 C 15.832 1.96487 -3.03439 0
M  V30 156 O 15.553 1.21341 -4.20961 0
M  V30 157 C 17.054 2.83079 -3.41147 0
M  V30 158 H 14.274 0.298875 -0.600762 0
M  V30 159 H 16.818 0.292736 -2.02394 0
M  V30 160 H 14.973 2.63965 -2.83551 0
M  V30 161 H 15.387 1.85573 -4.90574 0
M  V30 162 H 16.861 3.4565 -4.30384 0
M  V30 163 H 17.338 3.53286 -2.60932 0
M  V30 164 H 17.944 2.2108 -3.63323 0
M  V30 165 N 16.2591 1.48442 0.529413 0
M  V30 166 C 17.5061 1.56488 1.28521 0
M  V30 167 C 17.8341 0.239042 1.93025 0
M  V30 168 O 17.0891 -0.770713 1.79885 0
M  V30 169 C 17.3881 2.6523 2.39558 0
M  V30 170 C 17.0541 4.07648 1.92702 0
M  V30 171 C 15.7161 4.46411 1.79641 0
M  V30 172 C 18.0681 4.96896 1.573 0
M  V30 173 C 15.3961 5.72226 1.29514 0
M  V30 174 C 17.7481 6.23202 1.08636 0
M  V30 175 C 16.4121 6.60821 0.941919 0
M  V30 176 H 15.6821 0.572631 0.470292 0
M  V30 177 H 18.3291 1.82161 0.59072 0
M  V30 178 H 16.6341 2.33419 3.14679 0
M  V30 179 H 18.3311 2.68671 2.97686 0
M  V30 180 H 14.9211 3.77036 2.03819 0
M  V30 181 H 19.1051 4.67626 1.66251 0
M  V30 182 H 14.3611 6.00097 1.17019 0
M  V30 183 H 18.5351 6.91753 0.803136 0
M  V30 184 H 16.1621 7.58198 0.5513 0
M  V30 185 N 17.7372 -0.778329 1.37039 0
M  V30 186 C 19.0142 -1.52551 1.22424 0
M  V30 187 C 19.3942 -2.10288 -0.184964 0
M  V30 188 O 18.7422 -1.94953 -1.19187 0
M  V30 189 C 18.9522 -2.61164 2.31504 0
M  V30 190 C 20.3002 -3.28746 2.68721 0
M  V30 191 O 21.3242 -2.71455 2.30631 0
M  V30 192 O 20.1832 -4.3231 3.3432 0
M  V30 193 H 17.2772 -0.675343 0.477326 0
M  V30 194 H 19.8232 -0.815859 1.48801 0
M  V30 195 H 18.5952 -2.16574 3.25901 0
M  V30 196 H 18.2182 -3.39737 2.06554 0
M  V30 197 N 19.2153 -1.21501 -1.00376 0
M  V30 198 C 20.6263 -1.03146 -1.55621 0
M  V30 199 C 20.9773 0.408375 -1.91903 0
M  V30 200 O 20.1023 1.29177 -1.73616 0
M  V30 201 C 20.6973 -1.86612 -2.82775 0
M  V30 202 C 19.2563 -1.72586 -3.34501 0
M  V30 203 C 18.4033 -1.83747 -2.07683 0
M  V30 204 H 21.3543 -1.35505 -0.826081 0
M  V30 205 H 21.3753 -1.3771 -3.54706 0
M  V30 206 H 20.8873 -2.91399 -2.56336 0
M  V30 207 H 18.9883 -0.704877 -3.65872 0
M  V30 208 H 19.1013 -2.54623 -4.05837 0
M  V30 209 H 17.4653 -1.27069 -2.20739 0
M  V30 210 H 18.2483 -2.90044 -1.83655 0
M  V30 211 N 20.6934 1.19889 -1.02296 0
M  V30 212 C 21.9394 1.89701 -0.717033 0
M  V30 213 C 22.2724 1.7905 0.751989 0
M  V30 214 O 21.5474 1.17891 1.547 0
M  V30 215 C 21.8304 3.40858 -1.16136 0
M  V30 216 C 21.6834 3.60411 -2.69117 0
M  V30 217 C 23.0024 4.33876 -0.737549 0
M  V30 218 H 20.1214 0.688874 -0.261957 0
M  V30 219 H 22.7634 1.41154 -1.27183 0
M  V30 220 H 20.9134 3.82335 -0.689342 0
M  V30 221 H 22.5854 3.28145 -3.2422 0
M  V30 222 H 20.8284 3.03665 -3.0979 0
M  V30 223 H 21.4994 4.66396 -2.95261 0
M  V30 224 H 23.9754 4.00081 -1.14344 0
M  V30 225 H 22.8514 5.38242 -1.0764 0
M  V30 226 H 23.1124 4.40628 0.360436 0
M  V30 227 N 22.1715 0.800033 1.35784 0
M  V30 228 C 23.1215 0.178654 2.27299 0
M  V30 229 C 24.1055 -0.643667 1.47464 0
M  V30 230 O 25.2975 -0.502 1.69732 0
M  V30 231 C 22.4265 -0.677194 3.36555 0
M  V30 232 C 21.5125 0.154497 4.23818 0
M  V30 233 N 21.9035 1.21427 4.91008 0
M  V30 234 C 20.2015 -0.0649462 4.45953 0
M  V30 235 C 20.9025 1.72147 5.55644 0
M  V30 236 N 19.8785 1.02897 5.33773 0
M  V30 237 H 23.6805 0.989637 2.76737 0
M  V30 238 H 21.1945 0.64054 1.49234 0
M  V30 239 H 23.1915 -1.13835 4.01058 0
M  V30 240 H 21.8515 -1.4866 2.8867 0
M  V30 241 H 22.8625 1.59684 4.92668 0
M  V30 242 H 19.5395 -0.844016 4.0888 0
M  V30 243 H 20.9295 2.60683 6.19269 0
M  V30 244 N 23.6496 -1.47581 0.552962 0
M  V30 245 C 24.8796 -2.06575 0.0320091 0
M  V30 246 C 25.2876 -1.4067 -1.26525 0
M  V30 247 O 24.6306 -0.495808 -1.76883 0
M  V30 248 C 24.6926 -3.58705 -0.238913 0
M  V30 249 C 24.3566 -4.46625 0.968272 0
M  V30 250 C 25.3536 -4.85 1.87274 0
M  V30 251 C 23.0386 -4.88201 1.18175 0
M  V30 252 C 25.0326 -5.63745 2.9744 0
M  V30 253 C 22.7196 -5.66712 2.28651 0
M  V30 254 C 23.7176 -6.04394 3.18114 0
M  V30 255 O 23.4056 -6.81324 4.26676 0
M  V30 256 H 23.1376 -0.674763 0.0408689 0
M  V30 257 H 25.6916 -1.90634 0.764719 0
M  V30 258 H 23.9216 -3.72844 -1.02588 0
M  V30 259 H 25.6106 -3.99735 -0.704731 0
M  V30 260 H 26.3766 -4.53482 1.71984 0
M  V30 261 H 22.2556 -4.58339 0.494593 0
M  V30 262 H 25.7996 -5.93077 3.67296 0
M  V30 263 H 21.6966 -5.97642 2.43915 0
M  V30 264 H 22.4646 -6.99712 4.24671 0
M  V30 265 N 25.1277 -0.289203 -1.54924 0
M  V30 266 C 26.3757 0.322879 -1.99504 0
M  V30 267 C 26.6967 1.55313 -1.1791 0
M  V30 268 O 25.9667 1.94001 -0.272097 0
M  V30 269 H 24.5467 0.122291 -0.736922 0
M  V30 270 H 27.2087 -0.397802 -1.90797 0
M  V30 271 H 26.3047 0.603061 -3.06218 0
M  V30 272 N 26.6058 1.57591 -0.0167156 0
M  V30 273 C 27.5558 2.05953 0.978137 0
M  V30 274 C 28.5398 0.957532 1.29306 0
M  V30 275 O 29.7318 1.22119 1.28125 0
M  V30 276 C 26.8608 2.58006 2.26468 0
M  V30 277 C 25.9468 3.75113 1.97867 0
M  V30 278 N 26.3378 4.86187 1.39486 0
M  V30 279 C 24.6358 3.83363 2.27924 0
M  V30 280 C 25.3368 5.67502 1.27735 0
M  V30 281 N 24.3128 5.14023 1.76866 0
M  V30 282 H 28.1148 2.89236 0.521522 0
M  V30 283 H 25.6288 1.61301 0.188596 0
M  V30 284 H 27.6258 2.90937 2.98599 0
M  V30 285 H 26.2858 1.76148 2.72767 0
M  V30 286 H 27.2968 5.06695 1.07147 0
M  V30 287 H 23.9738 3.1239 2.76982 0
M  V30 288 H 25.3638 6.66791 0.826978 0
M  V30 289 N 28.0839 -0.256276 1.55502 0
M  V30 290 C 29.0139 -1.32102 1.92539 0
M  V30 291 C 29.9949 -1.50684 0.789194 0
M  V30 292 O 31.1799 -1.63449 1.04872 0
M  V30 293 C 28.3099 -2.67752 2.21192 0
M  V30 294 C 27.2639 -2.63878 3.36975 0
M  V30 295 C 26.5899 -4.03236 3.51147 0
M  V30 296 C 27.8899 -2.21682 4.72921 0
M  V30 297 H 29.5839 -1.01351 2.81724 0
M  V30 298 H 27.1299 -0.486105 1.35547 0
M  V30 299 H 29.0829 -3.42365 2.45691 0
M  V30 300 H 27.8069 -3.0012 1.28824 0
M  V30 301 H 26.4659 -1.91722 3.12471 0
M  V30 302 H 26.1139 -4.32854 2.56216 0
M  V30 303 H 25.8139 -4.01535 4.29003 0
M  V30 304 H 27.3379 -4.79563 3.77957 0
M  V30 305 H 28.7519 -2.86023 4.96854 0
M  V30 306 H 27.1489 -2.3111 5.53812 0
M  V30 307 H 28.2189 -1.16833 4.70615 0
M  V30 308 N 29.562 -1.4872 -0.521534 0
M  V30 309 C 30.509 -1.63871 -1.62527 0
M  V30 310 C 31.479 -0.480559 -1.58996 0
M  V30 311 O 32.664 -0.705085 -1.77294 0
M  V30 312 C 29.804 -1.69227 -3.00759 0
M  V30 313 C 28.917 -2.96207 -3.14461 0
M  V30 314 C 28.052 -2.92671 -4.43303 0
M  V30 315 C 27.091 -4.14318 -4.50563 0
M  V30 316 N 26.228 -4.0881 -5.70805 0
M  V30 317 H 31.068 -2.58123 -1.48918 0
M  V30 318 H 28.605 -1.28 -0.724878 0
M  V30 319 H 30.563 -1.70314 -3.80853 0
M  V30 320 H 29.193 -0.784586 -3.1312 0
M  V30 321 H 28.245 -3.04826 -2.27564 0
M  V30 322 H 29.557 -3.86192 -3.15686 0
M  V30 323 H 28.711 -2.92206 -5.31696 0
M  V30 324 H 27.45 -2.00429 -4.44612 0
M  V30 325 H 26.455 -4.15049 -3.60575 0
M  V30 326 H 27.68 -5.07729 -4.50986 0
M  V30 327 H 25.626 -3.19394 -5.72995 0
M  V30 328 H 25.543 -4.92509 -5.7356 0
M  V30 329 H 26.811 -4.12418 -6.61462 0
M  V30 330 N 31.0401 0.771051 -1.3745 0
M  V30 331 C 32.4511 1.34737 -1.29239 0
M  V30 332 C 32.8021 1.96109 0.0596908 0
M  V30 333 O 31.9271 1.93865 0.961534 0
M  V30 334 C 32.5221 2.44973 -2.34037 0
M  V30 335 C 31.0811 2.98372 -2.29458 0
M  V30 336 C 30.2281 1.71595 -2.17831 0
M  V30 337 H 33.1791 0.571256 -1.48062 0
M  V30 338 H 33.2001 3.24471 -1.98744 0
M  V30 339 H 32.7121 2.00276 -3.32432 0
M  V30 340 H 30.8131 3.47443 -1.34589 0
M  V30 341 H 30.9261 3.53939 -3.229 0
M  V30 342 H 29.2901 1.94547 -1.64388 0
M  V30 343 H 30.0731 1.29001 -3.18141 0
M  V30 344 N 32.5182 1.22032 0.997298 0
M  V30 345 C 33.7642 1.04376 1.73878 0
M  V30 346 C 34.0972 -0.420716 1.89588 0
M  V30 347 O 33.3722 -1.31202 1.43583 0
M  V30 348 C 33.6552 1.75047 3.14691 0
M  V30 349 C 33.5082 3.29062 3.06656 0
M  V30 350 C 34.8272 1.49928 4.13775 0
M  V30 351 H 31.9462 0.380578 0.631133 0
M  V30 352 H 34.5882 1.50312 1.16217 0
M  V30 353 H 32.7382 1.35996 3.63919 0
M  V30 354 H 34.4102 3.7753 2.65083 0
M  V30 355 H 32.6532 3.58967 2.43568 0
M  V30 356 H 33.3242 3.73683 4.06282 0
M  V30 357 H 35.8002 1.83842 3.73285 0
M  V30 358 H 34.6762 2.01878 5.10428 0
M  V30 359 H 34.9372 0.430929 4.39995 0
M  V30 360 N 33.9963 -1.19345 1.0293 0
M  V30 361 C 34.9063 -2.26245 0.620515 0
M  V30 362 C 35.9223 -1.70486 -0.347928 0
M  V30 363 O 37.0983 -2.00347 -0.205704 0
M  V30 364 C 34.1633 -3.46693 -0.0218957 0
M  V30 365 C 33.2243 -4.17632 0.994102 0
M  V30 366 C 32.4573 -5.32329 0.382253 0
M  V30 367 O 32.6803 -5.64552 -0.814676 0
M  V30 368 O 31.6143 -5.91664 1.10531 0
M  V30 369 H 35.4403 -2.63453 1.51083 0
M  V30 370 H 33.0253 -1.26207 0.799513 0
M  V30 371 H 34.9073 -4.19683 -0.380072 0
M  V30 372 H 33.5823 -3.11333 -0.886209 0
M  V30 373 H 32.4893 -3.4676 1.40387 0
M  V30 374 H 33.8223 -4.56964 1.8288 0
M  V30 375 N 35.4744 -0.807222 -1.35358 0
M  V30 376 C 36.7024 -0.400377 -2.02989 0
M  V30 377 C 37.1174 0.988859 -1.60832 0
M  V30 378 O 36.4744 1.63729 -0.806175 0
M  V30 379 C 36.5254 -0.474867 -3.58368 0
M  V30 380 O 36.2464 -1.80933 -3.98992 0
M  V30 381 C 37.7474 -0.0609112 -4.43258 0
M  V30 382 H 34.9674 -0.162587 -0.651004 0
M  V30 383 H 37.5114 -1.09102 -1.72965 0
M  V30 384 H 35.6664 0.167534 -3.87038 0
M  V30 385 H 36.0804 -1.77256 -4.9364 0
M  V30 386 H 37.5544 -0.164145 -5.51756 0
M  V30 387 H 38.0314 0.993831 -4.27808 0
M  V30 388 H 38.6374 -0.676492 -4.19885 0
M  V30 389 N 36.9525 1.47285 -0.560781 0
M  V30 390 C 37.8825 2.32857 0.173105 0
M  V30 391 C 38.8635 1.44009 0.905281 0
M  V30 392 O 40.0485 1.7286 0.885046 0
M  V30 393 C 37.1785 3.25861 1.20133 0
M  V30 394 C 36.1325 4.23978 0.585388 0
M  V30 395 C 35.4585 5.06332 1.7185 0
M  V30 396 C 36.7585 5.20242 -0.463178 0
M  V30 397 H 38.4525 2.94466 -0.541307 0
M  V30 398 H 35.9985 1.41601 -0.261764 0
M  V30 399 H 37.9515 3.84569 1.72293 0
M  V30 400 H 36.6755 2.62315 1.94573 0
M  V30 401 H 35.3345 3.66501 0.085054 0
M  V30 402 H 34.9825 4.39186 2.45203 0
M  V30 403 H 34.6825 5.72762 1.31213 0
M  V30 404 H 36.2065 5.67899 2.24329 0
M  V30 405 H 37.6205 5.73293 -0.027502 0
M  V30 406 H 36.0175 5.94896 -0.788627 0
M  V30 407 H 37.0875 4.65504 -1.35773 0
M  V30 408 N 38.4306 0.297415 1.54768 0
M  V30 409 C 39.3936 -0.567375 2.22066 0
M  V30 410 C 40.3936 -1.06409 1.20556 0
M  V30 411 O 41.5836 -0.960691 1.45315 0
M  V30 412 C 38.7156 -1.78517 2.90421 0
M  V30 413 H 39.9086 0.0205534 2.99893 0
M  V30 414 H 37.4616 0.0482163 1.56226 0
M  V30 415 H 38.1966 -2.41303 2.16664 0
M  V30 416 H 37.9816 -1.43669 3.64831 0
M  V30 417 H 39.4716 -2.39964 3.41771 0
M  V30 418 N 39.9087 -1.5758 0.0250728 0
M  V30 419 C 40.8567 -2.11125 -0.97617 0
M  V30 420 C 41.8507 -1.03689 -1.33959 0
M  V30 421 O 43.0567 -1.22128 -1.3223 0
M  V30 422 H 39.4317 -0.674468 -0.332561 0
M  V30 423 H 41.4027 -2.94194 -0.499223 0
M  V30 424 C 40.1517 -2.65017 -2.2508 0
M  V30 425 H 39.4747 -3.47333 -1.9799 0
M  V30 426 H 40.9147 -3.06133 -2.93357 0
M  V30 427 C 39.3737 -1.57574 -2.97779 0
M  V30 428 O 39.9037 -0.973203 -3.89733 0
M  V30 429 N 38.1097 -1.29716 -2.60043 0
M  V30 430 H 37.6567 -1.789 -1.85345 0
M  V30 431 H 37.6147 -0.58051 -3.08994 0
M  V30 432 N 41.3868 0.248026 -1.55636 0
M  V30 433 C 42.3168 1.31079 -1.93237 0
M  V30 434 C 43.2978 1.50264 -0.797174 0
M  V30 435 O 44.4828 1.62891 -1.05737 0
M  V30 436 C 41.6128 2.66575 -2.22609 0
M  V30 437 C 40.5668 2.62087 -3.3837 0
M  V30 438 C 39.8928 4.01369 -3.53281 0
M  V30 439 C 41.1928 2.19171 -4.7409 0
M  V30 440 H 42.8868 0.998556 -2.82257 0
M  V30 441 H 40.4328 0.47891 -1.35803 0
M  V30 442 H 42.3858 3.41057 -2.47503 0
M  V30 443 H 41.1098 2.99432 -1.30414 0
M  V30 444 H 39.7688 1.90063 -3.13483 0
M  V30 445 H 39.4168 4.31489 -2.58508 0
M  V30 446 H 39.1168 3.99254 -4.31127 0
M  V30 447 H 40.6408 4.77552 -3.80495 0
M  V30 448 H 42.0548 2.83384 -4.98363 0
M  V30 449 H 40.4518 2.2817 -5.5503 0
M  V30 450 H 41.5218 1.14336 -4.71227 0
M  V30 451 N 42.8649 1.48995 0.513639 0
M  V30 452 C 44.1139 1.57093 1.2651 0
M  V30 453 C 44.4269 0.257091 1.93903 0
M  V30 454 O 45.6329 0.216478 2.70636 0
M  V30 455 C 44.0889 2.77118 2.29638 0
M  V30 456 C 43.6969 4.15209 1.68241 0
M  V30 457 C 45.4409 2.94538 3.05692 0
M  V30 458 C 43.3479 5.26474 2.69406 0
M  V30 459 H 42.2779 0.584876 0.475854 0
M  V30 460 H 44.9289 1.7536 0.540487 0
M  V30 461 H 43.3109 2.52319 3.05207 0
M  V30 462 H 44.4849 4.50094 0.987505 0
M  V30 463 H 42.7999 4.03042 1.04623 0
M  V30 464 H 45.3969 3.74832 3.8132 0
M  V30 465 H 45.7399 2.04614 3.62545 0
M  V30 466 H 46.2729 3.19316 2.37238 0
M  V30 467 H 43.0119 6.18417 2.17351 0
M  V30 468 H 42.5319 4.96058 3.37175 0
M  V30 469 H 44.2109 5.55277 3.32078 0
M  V30 470 N 44.343 -0.763751 1.37857 0
M  V30 471 C 45.591 -1.51957 1.33243 0
M  V30 472 C 45.912 -1.94835 -0.0801709 0
M  V30 473 O 45.182 -1.66894 -1.02582 0
M  V30 474 H 43.762 -0.563626 0.49024 0
M  V30 475 H 46.424 -0.908504 1.7243 0
M  V30 476 H 45.52 -2.41523 1.97669 0
M  V30 477 N 45.8211 -1.22559 -0.990812 0
M  V30 478 C 46.7511 -1.0218 -2.09956 0
M  V30 479 C 47.7321 0.0579394 -1.70001 0
M  V30 480 O 48.9171 -0.104684 -1.93918 0
M  V30 481 C 46.0471 -0.601023 -3.4206 0
M  V30 482 C 45.0011 -1.62694 -3.95872 0
M  V30 483 C 44.3271 -1.06193 -5.24049 0
M  V30 484 C 45.6271 -3.01743 -4.2632 0
M  V30 485 H 47.3211 -1.94916 -2.27262 0
M  V30 486 H 44.8671 -0.938566 -1.09211 0
M  V30 487 H 46.8201 -0.445561 -4.19038 0
M  V30 488 H 45.5441 0.362005 -3.24588 0
M  V30 489 H 44.2031 -1.77021 -3.21028 0
M  V30 490 H 43.8511 -0.0901903 -5.02919 0
M  V30 491 H 43.5511 -1.74732 -5.61019 0
M  V30 492 H 45.0751 -0.918092 -6.03658 0
M  V30 493 H 46.4891 -2.90777 -4.94087 0
M  V30 494 H 44.8861 -3.67425 -4.74467 0
M  V30 495 H 45.9561 -3.51518 -3.34011 0
M  V30 496 N 47.2992 1.18797 -1.03562 0
M  V30 497 C 48.5272 1.92599 -0.755869 0
M  V30 498 C 48.9422 1.75886 0.686271 0
M  V30 499 O 48.2992 1.08517 1.46732 0
M  V30 500 C 48.3502 3.44159 -1.10619 0
M  V30 501 O 48.0712 3.60341 -2.4917 0
M  V30 502 C 49.5722 4.3507 -0.850214 0
M  V30 503 H 46.7922 0.611587 -0.276048 0
M  V30 504 H 49.3362 1.50742 -1.38192 0
M  V30 505 H 47.4912 3.83823 -0.525194 0
M  V30 506 H 47.9052 4.54128 -2.62427 0
M  V30 507 H 49.3792 5.39989 -1.14523 0
M  V30 508 H 49.8562 4.38673 0.215176 0
M  V30 509 H 50.4622 4.01097 -1.41426 0
M  V30 510 N 48.7773 0.814389 1.34928 0
M  V30 511 C 50.1933 0.499084 1.51596 0
M  V30 512 C 50.3933 -0.978319 1.76157 0
M  V30 513 O 49.4493 -1.76309 1.80752 0
M  V30 514 C 50.7623 1.35121 2.68631 0
M  V30 515 C 52.3103 1.34746 2.82511 0
M  V30 516 C 52.7853 2.18388 4.0258 0
M  V30 517 N 54.2763 2.15966 4.09772 0
M  V30 518 C 55.0113 2.77437 5.01813 0
M  V30 519 N 54.5073 3.47866 5.99134 0
M  V30 520 N 56.3003 2.67037 4.94619 0
M  V30 521 H 48.4513 1.7711 1.17243 0
M  V30 522 H 50.7143 0.754256 0.574284 0
M  V30 523 H 50.4203 2.40001 2.57085 0
M  V30 524 H 50.2943 1.00991 3.63429 0
M  V30 525 H 52.6813 0.30648 2.93504 0
M  V30 526 H 52.7623 1.72869 1.88547 0
M  V30 527 H 52.4063 3.2253 3.92347 0
M  V30 528 H 52.3363 1.77621 4.9574 0
M  V30 529 H 54.8273 1.64729 3.40107 0
M  V30 530 H 55.1403 3.92038 6.65977 0
M  V30 531 H 53.4853 3.51972 5.99284 0
M  V30 532 H 56.6763 2.11597 4.17546 0
M  V30 533 H 56.8493 3.15232 5.66156 0
M  V30 534 N 50.2554 -1.46986 0.568584 0
M  V30 535 C 51.5014 -2.02741 0.0488709 0
M  V30 536 C 51.8344 -1.44077 -1.30214 0
M  V30 537 O 51.1094 -0.600552 -1.84996 0
M  V30 538 C 51.3924 -3.60086 -0.032047 0
M  V30 539 C 51.2454 -4.29162 1.34686 0
M  V30 540 C 52.5644 -4.33838 -0.739798 0
M  V30 541 H 49.6834 -0.736749 0.0192338 0
M  V30 542 H 52.3254 -1.75289 0.733065 0
M  V30 543 H 50.4754 -3.83606 -0.61473 0
M  V30 544 H 52.1474 -4.16948 1.97362 0
M  V30 545 H 50.3904 -3.89073 1.91846 0
M  V30 546 H 51.0614 -5.37826 1.24285 0
M  V30 547 H 53.5374 -4.15378 -0.244939 0
M  V30 548 H 52.4134 -5.43537 -0.765406 0
M  V30 549 H 52.6744 -4.03875 -1.79827 0
M  V30 550 N 51.7335 -0.305618 -1.54608 0
M  V30 551 C 52.9615 0.304775 -2.04643 0
M  V30 552 C 53.3765 1.47167 -1.18268 0
M  V30 553 O 52.7335 1.81296 -0.209328 0
M  V30 554 C 52.7845 0.756564 -3.53495 0
M  V30 555 O 52.5055 -0.36389 -4.36586 0
M  V30 556 C 54.0065 1.43163 -4.19546 0
M  V30 557 H 51.2265 0.0655481 -0.667791 0
M  V30 558 H 53.7705 -0.446592 -1.99564 0
M  V30 559 H 51.9255 1.45794 -3.58919 0
M  V30 560 H 52.3395 -0.0113121 -5.24499 0
M  V30 561 H 53.8135 1.69886 -5.25207 0
M  V30 562 H 54.2905 2.37318 -3.69563 0
M  V30 563 H 54.8965 0.773307 -4.18211 0
M  V30 564 N 53.2116 1.57565 -0.0334293 0
M  V30 565 C 54.4606 1.91155 0.643639 0
M  V30 566 C 54.7736 0.91192 1.73042 0
M  V30 567 O 55.9796 1.13923 2.46442 0
M  V30 568 C 54.4356 3.39443 1.1961 0
M  V30 569 C 54.0436 4.47774 0.142381 0
M  V30 570 C 55.7876 3.82094 1.84944 0
M  V30 571 C 53.6946 5.87162 0.706727 0
M  V30 572 H 52.6246 0.713368 0.244176 0
M  V30 573 H 55.2756 1.8323 -0.0994323 0
M  V30 574 H 53.6576 3.42313 1.99092 0
M  V30 575 H 54.8316 4.56469 -0.630296 0
M  V30 576 H 53.1466 4.14352 -0.412446 0
M  V30 577 H 55.7436 4.83591 2.2813 0
M  V30 578 H 56.0866 3.17386 2.69392 0
M  V30 579 H 56.6196 3.81665 1.12145 0
M  V30 580 H 53.3586 6.55424 -0.0997178 0
M  V30 581 H 52.8786 5.82064 1.44779 0
M  V30 582 H 54.5576 6.35866 1.19514 0
M  V30 583 N 54.6897 -0.239769 1.55765 0
M  V30 584 C 55.9387 -0.964754 1.77131 0
M  V30 585 C 56.2517 -1.86213 0.59868 0
M  V30 586 O 57.4577 -2.6244 0.695522 0
M  V30 587 C 55.9137 -1.76552 3.1362 0
M  V30 588 C 55.5217 -0.915185 4.38553 0
M  V30 589 C 57.2657 -2.48281 3.44321 0
M  V30 590 C 55.1727 -1.71225 5.66071 0
M  V30 591 H 54.1027 -0.363953 0.660344 0
M  V30 592 H 56.7537 -0.219181 1.82186 0
M  V30 593 H 55.1357 -2.55331 3.02691 0
M  V30 594 H 56.3097 -0.169217 4.60489 0
M  V30 595 H 54.6247 -0.310889 4.15238 0
M  V30 596 H 57.2217 -3.08382 4.36812 0
M  V30 597 H 57.5647 -3.20256 2.65973 0
M  V30 598 H 58.0977 -1.76507 3.56497 0
M  V30 599 H 54.8367 -1.03612 6.4726 0
M  V30 600 H 54.3567 -2.43331 5.48224 0
M  V30 601 H 56.0357 -2.27758 6.05587 0
M  V30 602 N 56.1678 -1.49265 -0.50573 0
M  V30 603 C 57.5788 -1.51769 -1.08734 0
M  V30 604 C 57.9298 -0.301192 -1.93874 0
M  V30 605 O 57.0548 0.589456 -2.08217 0
M  V30 606 C 57.6498 -2.75017 -1.97867 0
M  V30 607 C 56.2088 -2.80314 -2.51199 0
M  V30 608 C 55.3558 -2.4562 -1.28709 0
M  V30 609 H 58.3068 -1.56031 -0.289855 0
M  V30 610 H 58.3278 -2.5491 -2.82491 0
M  V30 611 H 57.8398 -3.63539 -1.35873 0
M  V30 612 H 55.9408 -1.96061 -3.16845 0
M  V30 613 H 56.0538 -3.82366 -2.88675 0
M  V30 614 H 54.4178 -1.97297 -1.61078 0
M  V30 615 H 55.2008 -3.36411 -0.6843 0
M  V30 616 N 57.6459 0.756429 -1.3826 0
M  V30 617 C 58.5939 1.89149 -1.35372 0
M  V30 618 C 59.5879 1.67691 -0.24004 0
M  V30 619 O 60.7939 1.75294 -0.408919 0
M  V30 620 H 57.1689 0.622271 -0.422236 0
M  V30 621 H 59.1399 1.88701 -2.31159 0
M  V30 622 C 57.8889 3.26599 -1.19284 0
M  V30 623 H 57.2119 3.43695 -2.0424 0
M  V30 624 H 58.6519 4.06274 -1.21316 0
M  V30 625 C 57.1109 3.3675 0.100454 0
M  V30 626 O 57.6409 3.86951 1.07851 0
M  V30 627 N 55.8469 2.90179 0.15633 0
M  V30 628 H 55.3939 2.49517 -0.640253 0
M  V30 629 H 55.3519 2.97352 1.02123 0
M  V30 630 N 59.124 1.23083 0.984299 0
M  V30 631 C 60.072 1.00593 2.09723 0
M  V30 632 C 61.066 -0.0538014 1.69315 0
M  V30 633 O 62.272 0.0993719 1.79725 0
M  V30 634 H 58.647 0.30817 0.685956 0
M  V30 635 H 60.618 1.95012 2.2586 0
M  V30 636 C 59.367 0.609601 3.42314 0
M  V30 637 H 58.69 1.41675 3.73856 0
M  V30 638 H 60.13 0.491726 4.21139 0
M  V30 639 C 58.589 -0.681745 3.2993 0
M  V30 640 O 59.119 -1.73192 3.62446 0
M  V30 641 N 57.325 -0.656178 2.83095 0
M  V30 642 H 56.872 0.198759 2.56832 0
M  V30 643 H 56.83 -1.52044 2.75191 0
M  V30 644 N 60.6021 -1.18246 1.0419 0
M  V30 645 C 61.8481 -1.88536 0.747122 0
M  V30 646 C 62.1811 -1.80223 -0.723409 0
M  V30 647 O 61.4561 -1.20337 -1.52804 0
M  V30 648 C 61.7391 -3.38968 1.21544 0
M  V30 649 C 61.5921 -3.56084 2.74816 0
M  V30 650 C 62.9111 -4.32648 0.806482 0
M  V30 651 H 60.0301 -0.684619 0.272883 0
M  V30 652 H 62.6721 -1.39113 1.29413 0
M  V30 653 H 60.8221 -3.8119 0.750081 0
M  V30 654 H 62.4941 -3.22946 3.29399 0
M  V30 655 H 60.7371 -2.98699 3.14582 0
M  V30 656 H 61.4081 -4.61639 3.02644 0
M  V30 657 H 63.8841 -3.98211 1.20695 0
M  V30 658 H 62.7601 -5.36462 1.1619 0
M  V30 659 H 63.0211 -4.41146 -0.29029 0
M  V30 660 N 62.0802 -0.821533 -1.34494 0
M  V30 661 C 63.4912 -0.467956 -1.8074 0
M  V30 662 C 63.8422 1.01151 -1.68116 0
M  V30 663 O 62.9672 1.78707 -1.22036 0
M  V30 664 C 63.5622 -0.842627 -3.28154 0
M  V30 665 C 62.1212 -0.541439 -3.72485 0
M  V30 666 C 61.2682 -1.06028 -2.56229 0
M  V30 667 H 64.2192 -1.01183 -1.22261 0
M  V30 668 H 64.2402 -0.145876 -3.8022 0
M  V30 669 H 63.7522 -1.91945 -3.37311 0
M  V30 670 H 61.8532 0.526034 -3.68868 0
M  V30 671 H 61.9662 -1.08453 -4.66663 0
M  V30 672 H 60.3302 -0.481892 -2.501 0
M  V30 673 H 61.1132 -2.14352 -2.68157 0
M  V30 674 N 63.5583 1.46682 -0.576371 0
M  V30 675 C 64.9693 1.86112 -0.148091 0
M  V30 676 C 65.3203 1.48073 1.2872 0
M  V30 677 O 64.4453 0.892656 1.97131 0
M  V30 678 C 65.0403 3.37786 -0.261982 0
M  V30 679 C 63.5993 3.76235 0.111384 0
M  V30 680 C 62.7463 2.70713 -0.60083 0
M  V30 681 H 65.6973 1.37927 -0.78497 0
M  V30 682 H 65.7183 3.77007 0.514364 0
M  V30 683 H 65.2303 3.6544 -1.30671 0
M  V30 684 H 63.3313 3.54198 1.15649 0
M  V30 685 H 63.4443 4.78391 -0.26052 0
M  V30 686 H 61.8083 2.54666 -0.0417783 0
M  V30 687 H 62.5913 3.01208 -1.64708 0
M  V30 688 N 65.0364 0.313813 1.54444 0
M  V30 689 C 65.9864 -0.571898 2.20711 0
M  V30 690 C 66.9704 -1.08913 1.18435 0
M  V30 691 O 68.1624 -1.02777 1.44104 0
M  V30 692 C 65.2914 -1.7371 2.96108 0
M  V30 693 C 64.3774 -1.23522 4.05713 0
M  V30 694 N 64.7684 -0.452288 5.03774 0
M  V30 695 C 63.0664 -1.51482 4.19487 0
M  V30 696 C 63.7674 -0.183438 5.81411 0
M  V30 697 N 62.7434 -0.766845 5.38164 0
M  V30 698 H 66.5454 0.0336802 2.93881 0
M  V30 699 H 64.0594 0.119192 1.61962 0
M  V30 700 H 66.0564 -2.38329 3.4206 0
M  V30 701 H 64.7164 -2.34625 2.24458 0
M  V30 702 H 65.7274 -0.0960131 5.17811 0
M  V30 703 H 62.4044 -2.13053 3.59047 0
M  V30 704 H 63.7944 0.446216 6.70417 0
M  V30 705 N 66.5145 -1.57545 0.0417849 0
M  V30 706 C 67.9305 -1.56467 -0.314704 0
M  V30 707 C 68.1305 -1.04859 -1.72066 0
M  V30 708 O 67.1865 -0.700983 -2.42575 0
M  V30 709 C 68.4995 -3.00317 -0.15174 0
M  V30 710 C 70.0475 -3.12201 -0.223553 0
M  V30 711 C 70.5225 -4.57913 -0.0892295 0
M  V30 712 N 72.0135 -4.6297 -0.145808 0
M  V30 713 C 72.7485 -5.73362 -0.0658459 0
M  V30 714 N 72.2445 -6.92769 0.0659282 0
M  V30 715 N 74.0375 -5.6197 -0.12075 0
M  V30 716 H 66.1885 -1.89416 0.961014 0
M  V30 717 H 68.4515 -0.871862 0.372237 0
M  V30 718 H 68.1575 -3.42073 0.817254 0
M  V30 719 H 68.0315 -3.65892 -0.916692 0
M  V30 720 H 70.4185 -2.70349 -1.18301 0
M  V30 721 H 70.4995 -2.49323 0.571994 0
M  V30 722 H 70.1435 -5.00448 0.866867 0
M  V30 723 H 70.0735 -5.18786 -0.903802 0
M  V30 724 H 72.5645 -3.7709 -0.247286 0
M  V30 725 H 72.8775 -7.72707 0.119905 0
M  V30 726 H 71.2225 -6.94927 0.100885 0
M  V30 727 H 74.4135 -4.67572 -0.222187 0
M  V30 728 H 74.5865 -6.47977 -0.0549735 0
M  V30 729 N 67.9926 0.231505 -1.5589 0
M  V30 730 C 69.4036 0.799327 -1.68724 0
M  V30 731 C 69.7546 1.85398 -0.642022 0
M  V30 732 O 68.8796 2.1539 0.208784 0
M  V30 733 C 69.4746 1.45664 -3.05888 0
M  V30 734 C 68.0336 1.97197 -3.20609 0
M  V30 735 C 67.1806 0.828552 -2.64632 0
M  V30 736 H 70.1316 0.00702616 -1.58698 0
M  V30 737 H 70.1526 2.32517 -3.01191 0
M  V30 738 H 69.6646 0.688808 -3.81939 0
M  V30 739 H 67.7656 2.76813 -2.4941 0
M  V30 740 H 67.8786 2.15878 -4.27707 0
M  V30 741 H 66.2426 1.23321 -2.22854 0
M  V30 742 H 67.0256 0.0735544 -3.43221 0
M  V30 743 N 69.4707 1.49531 0.497807 0
M  V30 744 C 70.4027 1.62559 1.61578 0
M  V30 745 C 71.4157 0.508134 1.54667 0
M  V30 746 O 72.6047 0.780309 1.60541 0
M  V30 747 C 69.7047 1.56925 3.00379 0
M  V30 748 C 68.8777 2.84257 3.3244 0
M  V30 749 C 67.9367 2.71632 4.50669 0
M  V30 750 O 66.9627 3.4557 4.52294 0
M  V30 751 N 68.1647 1.83391 5.5077 0
M  V30 752 H 70.9297 2.58981 1.50828 0
M  V30 753 H 68.4907 1.4666 0.685743 0
M  V30 754 H 70.4827 1.46129 3.77397 0
M  V30 755 H 69.0527 0.683483 3.05037 0
M  V30 756 H 68.2727 3.09381 2.44289 0
M  V30 757 H 69.5607 3.68666 3.5066 0
M  V30 758 H 68.9587 1.22583 5.52259 0
M  V30 759 H 67.5157 1.78515 6.26878 0
M  V30 760 N 70.9488 -0.749086 1.3866 0
M  V30 761 C 72.3598 -1.32664 1.31366 0
M  V30 762 C 72.7108 -1.96179 -0.028484 0
M  V30 763 O 71.8358 -1.9537 -0.93057 0
M  V30 764 C 72.4308 -2.41219 2.37905 0
M  V30 765 C 70.9898 -2.94684 2.34176 0
M  V30 766 C 70.1368 -1.68108 2.20533 0
M  V30 767 H 73.0878 -0.547628 1.48952 0
M  V30 768 H 73.1088 -3.21268 2.0388 0
M  V30 769 H 72.6208 -1.94962 3.35576 0
M  V30 770 H 70.7218 -3.45258 1.401 0
M  V30 771 H 70.8348 -3.48757 3.2849 0
M  V30 772 H 69.1988 -1.91907 1.67463 0
M  V30 773 H 69.9818 -1.23923 3.20153 0
M  V30 774 N 72.4269 -1.23603 -0.977757 0
M  V30 775 C 73.3369 -1.03632 -2.1047 0
M  V30 776 C 74.3529 0.0199435 -1.73989 0
M  V30 777 O 75.5289 -0.176076 -2.00629 0
M  V30 778 C 72.5939 -0.63276 -3.40877 0
M  V30 779 C 71.6549 -1.76437 -3.91367 0
M  V30 780 C 70.8879 -1.37997 -5.15551 0
M  V30 781 O 71.1109 -0.265357 -5.69782 0
M  V30 782 O 70.0449 -2.20201 -5.60174 0
M  V30 783 H 73.8709 -1.98086 -2.30208 0
M  V30 784 H 71.4559 -1.02332 -1.08851 0
M  V30 785 H 73.3379 -0.418761 -4.19314 0
M  V30 786 H 72.0129 0.282754 -3.22463 0
M  V30 787 H 70.9199 -2.03304 -3.14036 0
M  V30 788 H 72.2529 -2.6583 -4.14241 0
M  V30 789 N 73.905 1.17692 -1.04816 0
M  V30 790 C 74.868 2.19787 -0.650117 0
M  V30 791 C 75.868 1.58044 0.296427 0
M  V30 792 O 77.058 1.74012 0.0808097 0
M  V30 793 C 74.19 3.40869 0.0456987 0
M  V30 794 H 75.383 2.56516 -1.5537 0
M  V30 795 H 72.936 1.31708 -0.841594 0
M  V30 796 H 73.671 3.09681 0.962726 0
M  V30 797 H 73.456 3.86928 -0.634727 0
M  V30 798 H 74.946 4.16445 0.310432 0
M  V30 799 N 75.3831 0.828654 1.34056 0
M  V30 800 C 76.3311 0.242973 2.31327 0
M  V30 801 C 77.3251 -0.61944 1.57668 0
M  V30 802 O 78.5311 -0.51014 1.7262 0
M  V30 803 H 74.9061 0.059834 0.749616 0
M  V30 804 H 76.8771 1.07809 2.78244 0
M  V30 805 C 75.6261 -0.575733 3.429 0
M  V30 806 H 74.9491 0.0785582 3.99723 0
M  V30 807 H 76.3891 -0.951547 4.13185 0
M  V30 808 C 74.8481 -1.75044 2.87856 0
M  V30 809 O 75.3781 -2.84882 2.83205 0
M  V30 810 N 73.5841 -1.56903 2.44602 0
M  V30 811 H 73.1311 -0.675547 2.48584 0
M  V30 812 H 73.0891 -2.35652 2.08124 0
M  V30 813 N 76.8612 -1.46375 0.584142 0
M  V30 814 C 78.0862 -2.07268 0.0740405 0
M  V30 815 C 78.5112 -1.42979 -1.22223 0
M  V30 816 O 77.8692 -0.514092 -1.73859 0
M  V30 817 C 77.9172 -3.60518 -0.0767769 0
M  V30 818 O 77.0212 -3.96533 -1.13292 0
M  V30 819 H 76.3622 -0.660961 0.0634524 0
M  V30 820 H 78.8922 -1.87991 0.807492 0
M  V30 821 H 78.9022 -4.07021 -0.282489 0
M  V30 822 H 77.5772 -4.06702 0.86986 0
M  V30 823 H 76.1542 -3.61738 -0.905553 0
M  V30 824 N 78.3393 -0.321999 -1.54275 0
M  V30 825 C 79.5853 0.281461 -2.00837 0
M  V30 826 C 79.9183 1.51909 -1.20985 0
M  V30 827 O 79.1933 1.923 -0.291733 0
M  V30 828 C 79.4763 0.617162 -3.54772 0
M  V30 829 C 79.3293 -0.631064 -4.45351 0
M  V30 830 C 80.6483 1.43542 -4.16033 0
M  V30 831 H 77.7673 0.100826 -0.730071 0
M  V30 832 H 80.4093 -0.438268 -1.84876 0
M  V30 833 H 78.5593 1.23034 -3.68504 0
M  V30 834 H 80.2313 -1.26934 -4.43492 0
M  V30 835 H 78.4743 -1.26025 -4.15091 0
M  V30 836 H 79.1453 -0.351735 -5.50878 0
M  V30 837 H 81.6213 0.917134 -4.05867 0
M  V30 838 H 80.4973 1.63907 -5.23856 0
M  V30 839 H 80.7583 2.43108 -3.69257 0
M  V30 840 N 79.8174 1.5752 -0.0501392 0
M  V30 841 C 80.7494 2.08413 0.95376 0
M  V30 842 C 81.7624 1.01175 1.27544 0
M  V30 843 O 82.9514 1.28744 1.23641 0
M  V30 844 C 80.0514 2.51138 2.27559 0
M  V30 845 C 79.2244 3.817 2.13598 0
M  V30 846 C 78.2834 4.10749 3.28895 0
M  V30 847 O 77.3094 4.80685 3.04845 0
M  V30 848 N 78.5114 3.62579 4.5334 0
M  V30 849 H 81.2764 2.95165 0.519383 0
M  V30 850 H 78.8374 1.61327 0.136127 0
M  V30 851 H 80.8294 2.67648 3.03557 0
M  V30 852 H 79.3994 1.6964 2.62567 0
M  V30 853 H 78.6194 3.74782 1.22197 0
M  V30 854 H 79.9074 4.67201 2.01496 0
M  V30 855 H 79.3054 3.06039 4.75769 0
M  V30 856 H 77.8624 3.84329 5.26436 0
M  V30 857 N 81.2955 -0.223234 1.56011 0
M  V30 858 C 82.7115 -0.572856 1.48965 0
M  V30 859 C 82.9115 -1.87225 0.74492 0
M  V30 860 O 81.9675 -2.50899 0.283896 0
M  V30 861 C 83.2805 -0.653646 2.9351 0
M  V30 862 C 84.8285 -0.744386 3.0402 0
M  V30 863 C 85.3035 -0.856535 4.49919 0
M  V30 864 N 86.7945 -0.9208 4.53955 0
M  V30 865 C 87.5295 -1.02726 5.64123 0
M  V30 866 N 87.0255 -1.09777 6.84047 0
M  V30 867 N 88.8185 -1.06226 5.51971 0
M  V30 868 H 80.9695 0.629462 2.02858 0
M  V30 869 H 83.2325 0.220621 0.921971 0
M  V30 870 H 82.9385 0.231518 3.50937 0
M  V30 871 H 82.8125 -1.51781 3.45315 0
M  V30 872 H 85.1995 -1.61999 2.46658 0
M  V30 873 H 85.2805 0.14541 2.55386 0
M  V30 874 H 84.9245 0.0146069 5.07898 0
M  V30 875 H 84.8545 -1.76172 4.96257 0
M  V30 876 H 87.3455 -0.876694 3.6759 0
M  V30 877 H 87.6585 -1.17872 7.63758 0
M  V30 878 H 86.0035 -1.06693 6.86762 0
M  V30 879 H 89.1945 -1.00382 4.5721 0
M  V30 880 H 89.3675 -1.14177 6.37862 0
M  V30 881 N 82.7736 -1.49793 -0.48987 0
M  V30 882 C 83.7206 -1.67281 -1.59014 0
M  V30 883 C 84.6906 -0.514177 -1.57941 0
M  V30 884 O 85.8756 -0.742533 -1.75759 0
M  V30 885 C 83.0156 -1.75569 -2.97102 0
M  V30 886 C 82.1286 -3.0281 -3.08107 0
M  V30 887 C 81.2636 -3.02008 -4.36995 0
M  V30 888 C 80.3026 -4.23782 -4.41673 0
M  V30 889 N 79.4396 -4.20826 -5.62005 0
M  V30 890 H 84.2796 -2.61224 -1.43409 0
M  V30 891 H 81.8166 -1.29508 -0.697565 0
M  V30 892 H 83.7746 -1.78354 -3.77155 0
M  V30 893 H 82.4046 -0.850827 -3.11385 0
M  V30 894 H 81.4566 -3.09584 -2.21047 0
M  V30 895 H 82.7686 -3.92801 -3.07423 0
M  V30 896 H 81.9226 -3.03418 -5.25378 0
M  V30 897 H 80.6616 -2.09815 -4.4026 0
M  V30 898 H 79.6666 -4.22604 -3.5169 0
M  V30 899 H 80.8916 -5.17181 -4.40115 0
M  V30 900 H 78.8376 -3.31476 -5.66091 0
M  V30 901 H 78.7546 -5.04564 -5.62984 0
M  V30 902 H 80.0226 -4.26355 -6.52565 0
M  V30 903 N 84.2517 0.741722 -1.39055 0
M  V30 904 C 85.2017 1.84661 -1.33732 0
M  V30 905 C 86.1857 1.59397 -0.219401 0
M  V30 906 O 87.3777 1.71015 -0.456375 0
M  V30 907 C 84.5067 3.22512 -1.17647 0
M  V30 908 C 83.5927 3.53628 -2.34112 0
M  V30 909 N 83.9837 3.55723 -3.59576 0
M  V30 910 C 82.2817 3.83956 -2.26923 0
M  V30 911 C 82.9827 3.84443 -4.36553 0
M  V30 912 N 81.9587 4.01877 -3.66055 0
M  V30 913 H 85.7607 1.84576 -2.28711 0
M  V30 914 H 83.2747 0.939647 -1.32455 0
M  V30 915 H 85.2717 4.01597 -1.11917 0
M  V30 916 H 83.9317 3.2384 -0.236124 0
M  V30 917 H 84.9427 3.37196 -3.93089 0
M  V30 918 H 81.6197 3.92929 -1.41113 0
M  V30 919 H 83.0097 3.92588 -5.45274 0
M  V30 920 N 85.7298 1.2412 0.971189 0
M  V30 921 C 86.6628 0.97373 2.06382 0
M  V30 922 C 87.6408 -0.0912662 1.62344 0
M  V30 923 O 88.8248 0.0449365 1.88446 0
M  V30 924 C 85.9518 0.468746 3.35441 0
M  V30 925 C 84.9978 1.52176 3.98428 0
M  V30 926 S 85.8308 3.10203 4.36503 0
M  V30 927 C 86.9868 2.61398 5.68702 0
M  V30 928 H 87.2198 1.89893 2.28753 0
M  V30 929 H 84.7528 1.07466 1.10862 0
M  V30 930 H 86.7108 0.184012 4.10087 0
M  V30 931 H 85.3718 -0.435688 3.11064 0
M  V30 932 H 84.5648 1.11876 4.91426 0
M  V30 933 H 84.1668 1.75632 3.30196 0
M  V30 934 H 86.4588 2.03992 6.4606 0
M  V30 935 H 87.4018 3.52972 6.13854 0
M  V30 936 H 87.8098 2.01941 5.27143 0
M  V30 937 N 87.2079 -1.17134 1.05439 0
M  V30 938 C 88.1379 -2.2342 0.678649 0
M  V30 939 C 89.1189 -1.66971 -0.32476 0
M  V30 940 O 90.3039 -1.93149 -0.201802 0
M  V30 941 C 87.4339 -3.47256 0.0552099 0
M  V30 942 C 86.3879 -4.16543 0.98365 0
M  V30 943 C 85.7139 -5.34231 0.223961 0
M  V30 944 C 87.0139 -4.68495 2.3089 0
M  V30 945 H 88.7079 -2.55105 1.56722 0
M  V30 946 H 86.2539 -1.2262 0.754998 0
M  V30 947 H 88.2069 -4.20828 -0.21946 0
M  V30 948 H 86.9309 -3.14846 -0.868319 0
M  V30 949 H 85.5899 -3.44887 1.24293 0
M  V30 950 H 85.2379 -4.98071 -0.702412 0
M  V30 951 H 84.9379 -5.81527 0.842627 0
M  V30 952 H 86.4619 -6.10585 -0.0433671 0
M  V30 953 H 87.8759 -5.33691 2.09396 0
M  V30 954 H 86.2729 -5.26379 2.88176 0
M  V30 955 H 87.3429 -3.85169 2.94572 0
M  V30 956 N 88.686 -0.835752 -1.33615 0
M  V30 957 C 89.596 -0.269088 -2.33052 0
M  V30 958 C 90.612 0.603251 -1.63208 0
M  V30 959 O 91.788 0.508112 -1.94885 0
M  V30 960 C 88.853 0.549091 -3.42324 0
M  V30 961 C 87.914 -0.347156 -4.27894 0
M  V30 962 C 87.147 0.43207 -5.31948 0
M  V30 963 O 87.37 1.66409 -5.45586 0
M  V30 964 O 86.304 -0.192298 -6.01593 0
M  V30 965 H 90.13 -1.09243 -2.83372 0
M  V30 966 H 87.715 -0.598198 -1.36901 0
M  V30 967 H 89.597 1.01414 -4.09015 0
M  V30 968 H 88.272 1.34955 -2.94226 0
M  V30 969 H 87.179 -0.859979 -3.64081 0
M  V30 970 H 88.512 -1.1123 -4.79467 0
M  V30 971 N 90.1641 1.46063 -0.591896 0
M  V30 972 C 91.0941 2.33172 0.123673 0
M  V30 973 C 92.0751 1.45897 0.87453 0
M  V30 974 O 93.2601 1.74698 0.848181 0
M  V30 975 C 90.3901 3.28336 1.13194 0
M  V30 976 C 89.3441 4.25124 0.495324 0
M  V30 977 C 88.6701 5.09863 1.61071 0
M  V30 978 C 89.9701 5.19143 -0.573425 0
M  V30 979 H 91.6641 2.93252 -0.603646 0
M  V30 980 H 89.2101 1.41014 -0.291741 0
M  V30 981 H 91.1631 3.88137 1.64097 0
M  V30 982 H 89.8871 2.66383 1.88965 0
M  V30 983 H 88.5461 3.66599 0.00729452 0
M  V30 984 H 88.1941 4.44288 2.35832 0
M  V30 985 H 87.8941 5.75417 1.19035 0
M  V30 986 H 89.4181 5.72529 2.12233 0
M  V30 987 H 90.8321 5.73106 -0.1491 0
M  V30 988 H 89.2291 5.93089 -0.914636 0
M  V30 989 H 90.2991 4.62519 -1.45617 0
M  V30 990 N 91.6422 0.330177 1.54103 0
M  V30 991 C 92.6052 -0.520144 2.2322 0
M  V30 992 C 93.6052 -1.03828 1.22786 0
M  V30 993 O 94.7952 -0.929652 1.4732 0
M  V30 994 C 91.9272 -1.72317 2.94142 0
M  V30 995 H 93.1202 0.0841605 2.99782 0
M  V30 996 H 90.6732 0.0813433 1.56088 0
M  V30 997 H 91.4082 -2.36653 2.21734 0
M  V30 998 H 91.1932 -1.35898 3.67796 0
M  V30 999 H 92.6832 -2.3266 3.46784 0
M  V30 1000 N 93.1203 -1.57491 0.0584922 0
M  V30 1001 C 94.3693 -1.92155 -0.613146 0
M  V30 1002 C 94.6823 -0.939334 -1.71569 0
M  V30 1003 O 95.8883 -1.17829 -2.44599 0
M  V30 1004 C 94.3443 -3.41303 -1.14195 0
M  V30 1005 C 93.9523 -4.47944 -0.0711265 0
M  V30 1006 C 95.6963 -3.84988 -1.78841 0
M  V30 1007 C 93.6033 -5.88212 -0.613225 0
M  V30 1008 H 92.5333 -0.717162 -0.232796 0
M  V30 1009 H 95.1843 -1.83049 0.12857 0
M  V30 1010 H 93.5663 -3.45437 -1.93621 0
M  V30 1011 H 94.7403 -4.55408 0.702836 0
M  V30 1012 H 93.0553 -4.13644 0.478313 0
M  V30 1013 H 95.6523 -4.87159 -2.20408 0
M  V30 1014 H 95.9953 -3.21632 -2.64308 0
M  V30 1015 H 96.5283 -3.83401 -1.06059 0
M  V30 1016 H 93.2673 -6.55183 0.203978 0
M  V30 1017 H 92.7873 -5.84294 -1.35501 0
M  V30 1018 H 94.4663 -6.37687 -1.09383 0
M  V30 1019 N 94.5984 0.214957 -1.56127 0
M  V30 1020 C 95.5614 1.24997 -1.92116 0
M  V30 1021 C 96.5614 1.39467 -0.800344 0
M  V30 1022 O 97.7514 1.37619 -1.06802 0
M  V30 1023 C 94.8834 2.62271 -2.17777 0
M  V30 1024 H 96.0764 0.942875 -2.84693 0
M  V30 1025 H 93.6294 0.455654 -1.49511 0
M  V30 1026 H 94.3644 2.98068 -1.27773 0
M  V30 1027 H 94.1494 2.53143 -2.99434 0
M  V30 1028 H 95.6394 3.36946 -2.46693 0
M  V30 1029 N 96.0765 1.50051 0.48192 0
M  V30 1030 C 97.3535 1.51009 1.2432 0
M  V30 1031 C 97.7335 0.248587 2.09631 0
M  V30 1032 O 97.0815 -0.768409 2.15192 0
M  V30 1033 C 97.2915 2.79981 2.08355 0
M  V30 1034 C 98.6395 3.3022 2.66908 0
M  V30 1035 O 99.6635 2.81228 2.18607 0
M  V30 1036 O 98.5225 4.15595 3.54884 0
M  V30 1037 H 95.6165 0.605239 0.563573 0
M  V30 1038 H 98.1625 1.62332 0.494627 0
M  V30 1039 H 96.9345 3.63275 1.45419 0
M  V30 1040 H 96.5575 2.7161 2.90368 0
M  V30 1041 N 97.5546 -0.734337 1.39446 0
M  V30 1042 C 98.5016 -1.84835 1.38219 0
M  V30 1043 C 99.4716 -1.64331 0.24179 0
M  V30 1044 O 100.657 -1.85728 0.437002 0
M  V30 1045 C 97.7966 -3.22355 1.23212 0
M  V30 1046 C 96.9096 -3.5456 2.46801 0
M  V30 1047 C 96.0446 -4.81485 2.24377 0
M  V30 1048 C 95.0836 -5.06536 3.43639 0
M  V30 1049 N 94.2206 -6.24665 3.20528 0
M  V30 1050 H 99.0606 -1.85219 2.33448 0
M  V30 1051 H 96.5976 -0.905039 1.15963 0
M  V30 1052 H 98.5556 -4.0174 1.12522 0
M  V30 1053 H 97.1856 -3.21248 0.316121 0
M  V30 1054 H 96.2376 -2.69872 2.68092 0
M  V30 1055 H 97.5496 -3.6899 3.3563 0
M  V30 1056 H 96.7036 -5.68852 2.10933 0
M  V30 1057 H 95.4426 -4.6923 1.32944 0
M  V30 1058 H 94.4476 -4.17632 3.5758 0
M  V30 1059 H 95.6726 -5.20676 4.35974 0
M  V30 1060 H 93.6186 -6.13696 2.3176 0
M  V30 1061 H 93.5356 -6.39685 4.02913 0
M  V30 1062 H 94.8036 -7.14868 3.10779 0
M  V30 1063 N 99.0327 -1.24633 -0.964593 0
M  V30 1064 C 100.444 -1.08045 -1.5226 0
M  V30 1065 C 100.795 0.347116 -1.93105 0
M  V30 1066 O 99.9197 1.23588 -1.77637 0
M  V30 1067 C 100.515 -1.95514 -2.76695 0
M  V30 1068 C 99.0737 -1.8314 -3.28841 0
M  V30 1069 C 98.2207 -1.90262 -2.01732 0
M  V30 1070 H 101.172 -1.38064 -0.782553 0
M  V30 1071 H 101.193 -1.48925 -3.50145 0
M  V30 1072 H 100.705 -2.99407 -2.46936 0
M  V30 1073 H 98.8057 -0.82092 -3.63444 0
M  V30 1074 H 98.9187 -2.67406 -3.97531 0
M  V30 1075 H 97.2827 -1.34027 -2.16584 0
M  V30 1076 H 98.0657 -2.9574 -1.74334 0
M  V30 1077 N 100.511 1.16574 -1.06058 0
M  V30 1078 C 101.441 2.23057 -0.690488 0
M  V30 1079 C 102.422 1.67141 0.315901 0
M  V30 1080 O 103.607 1.93253 0.191556 0
M  V30 1081 C 100.737 3.47222 -0.073625 0
M  V30 1082 C 99.6908 4.16016 -1.00573 0
M  V30 1083 C 99.0168 5.34104 -0.252289 0
M  V30 1084 C 100.317 4.67264 -2.33371 0
M  V30 1085 H 102.011 2.54271 -1.58072 0
M  V30 1086 H 99.5568 1.22218 -0.76149 0
M  V30 1087 H 101.51 4.20939 0.19714 0
M  V30 1088 H 100.234 3.15302 0.85161 0
M  V30 1089 H 98.8928 3.44223 -1.2612 0
M  V30 1090 H 98.5408 4.98437 0.675988 0
M  V30 1091 H 98.2408 5.81072 -0.873455 0
M  V30 1092 H 99.7648 6.10599 0.0109857 0
M  V30 1093 H 101.179 5.32573 -2.12223 0
M  V30 1094 H 99.5758 5.24843 -2.90963 0
M  V30 1095 H 100.646 3.83602 -2.96611 0
M  V30 1096 N 101.989 0.842826 1.3317 0
M  V30 1097 C 103.236 0.440447 1.97652 0
M  V30 1098 C 103.564 -1.00123 1.6675 0
M  V30 1099 O 102.819 -1.7155 0.941761 0
M  V30 1100 C 103.118 0.612607 3.52111 0
M  V30 1101 C 102.784 2.02297 4.02972 0
M  V30 1102 C 101.446 2.40874 4.16573 0
M  V30 1103 C 103.798 2.94402 4.30089 0
M  V30 1104 C 101.126 3.70852 4.54627 0
M  V30 1105 C 103.478 4.23865 4.69597 0
M  V30 1106 C 102.142 4.62392 4.81404 0
M  V30 1107 H 101.412 0.161171 0.72326 0
M  V30 1108 H 104.059 1.07061 1.58777 0
M  V30 1109 H 102.364 -0.100849 3.9167 0
M  V30 1110 H 104.061 0.2815 4.00011 0
M  V30 1111 H 100.651 1.71338 3.92863 0
M  V30 1112 H 104.835 2.65835 4.19101 0
M  V30 1113 H 100.091 4.00501 4.61962 0
M  V30 1114 H 104.265 4.95306 4.89536 0
M  V30 1115 H 101.892 5.63154 5.10648 0
M  V30 1116 N 103.467 -1.45747 0.599634 0
M  V30 1117 C 104.695 -2.06668 0.0978551 0
M  V30 1118 C 105.11 -1.44562 -1.21439 0
M  V30 1119 O 104.467 -0.556923 -1.73795 0
M  V30 1120 C 104.518 -3.61456 -0.0567044 0
M  V30 1121 O 104.239 -4.21242 1.20361 0
M  V30 1122 C 105.74 -4.39345 -0.590869 0
M  V30 1123 H 102.96 -0.667825 0.0651943 0
M  V30 1124 H 105.504 -1.87115 0.82511 0
M  V30 1125 H 103.659 -3.80378 -0.734251 0
M  V30 1126 H 104.073 -5.14323 1.02821 0
M  V30 1127 H 105.547 -5.48182 -0.648131 0
M  V30 1128 H 106.024 -4.08568 -1.61147 0
M  V30 1129 H 106.63 -4.25268 0.0523679 0
M  V30 1130 N 104.945 -0.338344 -1.53925 0
M  V30 1131 C 105.875 0.51328 -2.27789 0
M  V30 1132 C 106.856 1.107 -1.29149 0
M  V30 1133 O 108.041 1.12937 -1.57984 0
M  V30 1134 C 105.171 1.66697 -3.04679 0
M  V30 1135 C 104.125 1.20183 -4.1078 0
M  V30 1136 C 103.451 2.44363 -4.75595 0
M  V30 1137 C 104.751 0.30605 -5.21403 0
M  V30 1138 H 106.445 -0.102883 -2.99223 0
M  V30 1139 H 103.991 -0.0509219 -1.4391 0
M  V30 1140 H 105.944 2.26915 -3.55088 0
M  V30 1141 H 104.668 2.30995 -2.30887 0
M  V30 1142 H 103.327 0.622499 -3.61276 0
M  V30 1143 H 102.975 3.07057 -3.98403 0
M  V30 1144 H 102.675 2.13925 -5.47275 0
M  V30 1145 H 104.199 3.05317 -5.28786 0
M  V30 1146 H 105.613 0.814929 -5.67478 0
M  V30 1147 H 104.01 0.0937929 -6.00027 0
M  V30 1148 H 105.08 -0.65921 -4.80398 0
M  V30 1149 N 106.423 1.57458 -0.0668435 0
M  V30 1150 C 107.7 1.8469 0.644132 0
M  V30 1151 C 108.08 0.958343 1.88093 0
M  V30 1152 O 107.428 0.0233579 2.28488 0
M  V30 1153 C 107.638 3.34767 0.986509 0
M  V30 1154 C 108.986 4.02159 1.36212 0
M  V30 1155 O 110.01 3.39484 1.07839 0
M  V30 1156 O 108.869 5.12694 1.89227 0
M  V30 1157 H 105.963 0.762816 0.319437 0
M  V30 1158 H 108.509 1.6942 -0.0973986 0
M  V30 1159 H 107.281 3.91151 0.107883 0
M  V30 1160 H 106.904 3.55281 1.78497 0
M  V30 1161 N 107.901 -0.206675 1.56239 0
M  V30 1162 C 108.811 -1.27686 1.96808 0
M  V30 1163 C 109.827 -1.50455 0.874035 0
M  V30 1164 O 111.003 -1.63295 1.17884 0
M  V30 1165 C 108.068 -2.60358 2.28942 0
M  V30 1166 C 107.129 -2.45762 3.51994 0
M  V30 1167 C 106.362 -3.72108 3.82585 0
M  V30 1168 O 106.585 -4.75776 3.14631 0
M  V30 1169 O 105.519 -3.6833 4.76043 0
M  V30 1170 H 109.345 -0.962593 2.88041 0
M  V30 1171 H 106.93 -0.410746 1.43643 0
M  V30 1172 H 108.812 -3.38687 2.50737 0
M  V30 1173 H 107.487 -2.91435 1.4088 0
M  V30 1174 H 106.394 -1.65584 3.35459 0
M  V30 1175 H 107.727 -2.19621 4.40486 0
M  V30 1176 N 109.379 -1.50304 -0.473955 0
M  V30 1177 C 110.795 -1.37667 -0.807466 0
M  V30 1178 C 110.995 -0.430555 -1.96846 0
M  V30 1179 O 110.051 0.127874 -2.52176 0
M  V30 1180 C 111.364 -2.78974 -1.12223 0
M  V30 1181 C 112.912 -2.87868 -1.22885 0
M  V30 1182 C 113.387 -4.30003 -1.57676 0
M  V30 1183 N 114.878 -4.3294 -1.64673 0
M  V30 1184 C 115.613 -5.3991 -1.93091 0
M  V30 1185 N 115.109 -6.57092 -2.1955 0
M  V30 1186 N 116.902 -5.27351 -1.94569 0
M  V30 1187 H 109.053 -2.10394 0.291212 0
M  V30 1188 H 111.316 -0.945575 0.0677609 0
M  V30 1189 H 111.022 -3.50031 -0.342229 0
M  V30 1190 H 110.896 -3.16038 -2.05913 0
M  V30 1191 H 113.283 -2.17032 -1.99953 0
M  V30 1192 H 113.364 -2.54352 -0.271814 0
M  V30 1193 H 113.008 -5.01375 -0.81149 0
M  V30 1194 H 112.938 -4.61004 -2.54525 0
M  V30 1195 H 115.429 -3.48441 -1.46277 0
M  V30 1196 H 115.742 -7.34425 -2.405 0
M  V30 1197 H 114.087 -6.60272 -2.16948 0
M  V30 1198 H 117.278 -4.34801 -1.73394 0
M  V30 1199 H 117.451 -6.10805 -2.16381 0
M  V30 1200 N 110.857 0.726932 -1.39834 0
M  V30 1201 C 111.767 1.87131 -1.41489 0
M  V30 1202 C 112.783 1.71239 -0.308757 0
M  V30 1203 O 113.959 1.93701 -0.551529 0
M  V30 1204 C 111.024 3.22811 -1.26468 0
M  V30 1205 C 110.085 3.51039 -2.47124 0
M  V30 1206 C 109.318 4.80245 -2.3281 0
M  V30 1207 O 109.541 5.54537 -1.33585 0
M  V30 1208 O 108.475 5.08554 -3.21957 0
M  V30 1209 H 112.301 1.8869 -2.3797 0
M  V30 1210 H 109.886 0.875837 -1.21035 0
M  V30 1211 H 111.768 4.03877 -1.20255 0
M  V30 1212 H 110.443 3.22005 -0.330862 0
M  V30 1213 H 109.35 2.70027 -2.58914 0
M  V30 1214 H 110.683 3.56632 -3.39227 0
M  V30 1215 N 112.336 1.25143 0.95797 0
M  V30 1216 C 113.266 1.07711 2.07173 0
M  V30 1217 C 114.247 -0.0128462 1.70095 0
M  V30 1218 O 115.432 0.156061 1.93572 0
M  V30 1219 C 112.562 0.691503 3.40346 0
M  V30 1220 C 111.516 1.73132 3.9142 0
M  V30 1221 C 110.842 1.20049 5.21049 0
M  V30 1222 C 112.142 3.1294 4.1817 0
M  V30 1223 H 113.836 2.00873 2.22014 0
M  V30 1224 H 111.382 0.967191 1.06684 0
M  V30 1225 H 113.335 0.556505 4.17709 0
M  V30 1226 H 112.059 -0.275819 3.25433 0
M  V30 1227 H 110.718 1.8547 3.16222 0
M  V30 1228 H 110.366 0.223499 5.02503 0
M  V30 1229 H 110.066 1.89545 5.56189 0
M  V30 1230 H 111.59 1.07782 6.01012 0
M  V30 1231 H 113.004 3.03775 4.86203 0
M  V30 1232 H 111.401 3.79875 4.64559 0
M  V30 1233 H 112.471 3.6025 3.24573 0
M  V30 1234 N 113.814 -1.1601 1.06675 0
M  V30 1235 C 114.761 -2.20525 0.680967 0
M  V30 1236 C 115.731 -1.62904 -0.324283 0
M  V30 1237 O 116.916 -1.89615 -0.212294 0
M  V30 1238 C 114.056 -3.45013 0.0776551 0
M  V30 1239 C 113.169 -4.16863 1.13355 0
M  V30 1240 C 112.304 -5.2888 0.49597 0
M  V30 1241 C 111.343 -5.92537 1.53513 0
M  V30 1242 N 110.48 -6.96038 0.920631 0
M  V30 1243 H 115.32 -2.52876 1.57663 0
M  V30 1244 H 112.857 -1.24199 0.788223 0
M  V30 1245 H 114.815 -4.16193 -0.289704 0
M  V30 1246 H 113.445 -3.132 -0.781393 0
M  V30 1247 H 112.497 -3.44248 1.61857 0
M  V30 1248 H 113.809 -4.60294 1.92174 0
M  V30 1249 H 112.963 -6.06653 0.0758604 0
M  V30 1250 H 111.702 -4.86622 -0.324062 0
M  V30 1251 H 110.707 -5.13482 1.9651 0
M  V30 1252 H 111.932 -6.36873 2.35733 0
M  V30 1253 H 109.878 -6.55888 0.12138 0
M  V30 1254 H 109.795 -7.3786 1.64616 0
M  V30 1255 H 111.063 -7.77725 0.525795 0
M  V30 1256 N 115.292 -0.849877 -1.32721 0
M  V30 1257 C 116.708 -0.539102 -1.50219 0
M  V30 1258 C 116.908 0.931271 -1.78689 0
M  V30 1259 O 115.964 1.71455 -1.85363 0
M  V30 1260 C 117.277 -1.42196 -2.64954 0
M  V30 1261 C 118.825 -1.42189 -2.78839 0
M  V30 1262 C 119.3 -2.28985 -3.96648 0
M  V30 1263 N 120.791 -2.26754 -4.03902 0
M  V30 1264 C 121.526 -2.90644 -4.94281 0
M  V30 1265 N 121.022 -3.63629 -5.897 0
M  V30 1266 N 122.815 -2.80057 -4.87365 0
M  V30 1267 H 114.966 -1.80156 -1.12506 0
M  V30 1268 H 117.229 -0.769217 -0.554085 0
M  V30 1269 H 116.935 -2.46733 -2.50631 0
M  V30 1270 H 116.809 -1.10591 -3.60624 0
M  V30 1271 H 119.196 -0.38419 -2.92588 0
M  V30 1272 H 119.277 -1.77807 -1.83898 0
M  V30 1273 H 118.921 -3.32819 -3.83658 0
M  V30 1274 H 118.851 -1.90702 -4.90857 0
M  V30 1275 H 121.342 -1.73688 -3.3562 0
M  V30 1276 H 121.655 -4.09558 -6.55349 0
M  V30 1277 H 120 -3.67737 -5.89741 0
M  V30 1278 H 123.191 -2.22593 -4.11789 0
M  V30 1279 H 123.364 -3.30132 -5.57599 0
M  V30 1280 N 116.77 1.45427 -0.607355 0
M  V30 1281 C 117.718 2.32269 0.12411 0
M  V30 1282 C 118.712 1.45955 0.859854 0
M  V30 1283 O 119.918 1.6244 0.775447 0
M  V30 1284 H 116.293 0.749691 0.0588839 0
M  V30 1285 H 118.264 2.91743 -0.626762 0
M  V30 1286 C 117.013 3.29567 1.1082 0
M  V30 1287 H 116.336 3.95978 0.551492 0
M  V30 1288 H 117.776 3.93061 1.58995 0
M  V30 1289 C 116.235 2.56722 2.18164 0
M  V30 1290 O 116.765 2.34842 3.25902 0
M  V30 1291 N 114.971 2.16861 1.93442 0
M  V30 1292 H 114.518 2.34855 1.05834 0
M  V30 1293 H 114.476 1.68444 2.65469 0
M  V30 1294 N 118.248 0.346503 1.53744 0
M  V30 1295 C 119.211 -0.496439 2.23759 0
M  V30 1296 C 120.211 -1.0252 1.2388 0
M  V30 1297 O 121.401 -0.913974 1.48297 0
M  V30 1298 C 118.533 -1.69187 2.95954 0
M  V30 1299 H 119.726 0.115952 2.99676 0
M  V30 1300 H 117.279 0.0978939 1.55993 0
M  V30 1301 H 118.014 -2.34288 2.24231 0
M  V30 1302 H 117.799 -1.31989 3.69217 0
M  V30 1303 H 119.289 -2.28969 3.49232 0
M  V30 1304 N 119.726 -1.57421 0.075193 0
M  V30 1305 C 121.137 -1.81021 -0.456964 0
M  V30 1306 C 121.488 -0.98936 -1.69429 0
M  V30 1307 O 120.613 -0.212865 -2.15351 0
M  V30 1308 C 121.208 -3.28329 -0.83581 0
M  V30 1309 C 119.767 -3.52764 -1.31281 0
M  V30 1310 C 118.914 -2.75676 -0.299648 0
M  V30 1311 H 121.865 -1.55822 0.300856 0
M  V30 1312 H 121.886 -3.40564 -1.69696 0
M  V30 1313 H 121.398 -3.88046 0.0649238 0
M  V30 1314 H 119.499 -2.98355 -2.23193 0
M  V30 1315 H 119.612 -4.61451 -1.28839 0
M  V30 1316 H 117.976 -2.42538 -0.777641 0
M  V30 1317 H 118.759 -3.38132 0.593417 0
M  V30 1318 N 121.204 0.198386 -1.56346 0
M  V30 1319 C 122.429 0.939682 -1.84891 0
M  V30 1320 C 122.854 1.76202 -0.658369 0
M  V30 1321 O 122.212 1.76993 0.392851 0
M  V30 1322 C 122.26 1.81428 -3.11635 0
M  V30 1323 O 121.364 2.91265 -2.91956 0
M  V30 1324 H 120.705 0.264807 -0.608912 0
M  V30 1325 H 123.235 0.204695 -2.03573 0
M  V30 1326 H 123.245 2.21958 -3.42343 0
M  V30 1327 H 121.92 1.21004 -3.97908 0
M  V30 1328 H 120.497 2.54514 -2.72538 0
M  V30 1329 N 122.682 1.50554 0.465978 0
M  V30 1330 C 123.912 1.65323 1.23903 0
M  V30 1331 C 124.32 0.338051 1.86155 0
M  V30 1332 O 123.663 -0.690518 1.70228 0
M  V30 1333 C 123.725 2.69048 2.3844 0
M  V30 1334 C 123.389 4.12462 1.96784 0
M  V30 1335 C 124.386 4.98168 1.48745 0
M  V30 1336 C 122.071 4.58407 2.05349 0
M  V30 1337 C 124.065 6.27868 1.0982 0
M  V30 1338 C 121.752 5.88112 1.66035 0
M  V30 1339 C 122.75 6.72668 1.18349 0
M  V30 1340 O 122.438 7.99951 0.795825 0
M  V30 1341 H 122.17 0.558629 0.38067 0
M  V30 1342 H 124.724 1.97561 0.562022 0
M  V30 1343 H 122.954 2.32062 3.09328 0
M  V30 1344 H 124.643 2.72985 3.0039 0
M  V30 1345 H 125.409 4.63885 1.41546 0
M  V30 1346 H 121.288 3.92735 2.41414 0
M  V30 1347 H 124.832 6.93819 0.725293 0
M  V30 1348 H 120.729 6.21914 1.72895 0
M  V30 1349 H 121.497 8.13265 0.924222 0
M  V30 1350 N 124.16 -0.719506 1.40217 0
M  V30 1351 C 125.388 -1.50864 1.41589 0
M  V30 1352 C 125.803 -1.88794 0.0145275 0
M  V30 1353 O 125.16 -1.55174 -0.960594 0
M  V30 1354 C 125.211 -2.78646 2.30302 0
M  V30 1355 O 124.932 -2.42321 3.64983 0
M  V30 1356 C 126.433 -3.72569 2.40224 0
M  V30 1357 H 123.653 -0.465709 0.48307 0
M  V30 1358 H 126.197 -0.88785 1.84221 0
M  V30 1359 H 124.352 -3.37019 1.91042 0
M  V30 1360 H 124.766 -3.24514 4.12057 0
M  V30 1361 H 126.24 -4.5908 3.06512 0
M  V30 1362 H 126.717 -4.15403 1.42608 0
M  V30 1363 H 127.323 -3.20109 2.80019 0
M  V30 1364 N 125.638 -1.25649 -0.95132 0
M  V30 1365 C 126.601 -1.06399 -2.03007 0
M  V30 1366 C 127.601 -0.0156794 -1.60792 0
M  V30 1367 O 128.791 -0.25817 -1.72276 0
M  V30 1368 C 125.923 -0.616184 -3.35285 0
M  V30 1369 H 127.116 -2.02164 -2.21517 0
M  V30 1370 H 124.669 -1.08103 -1.12887 0
M  V30 1371 H 125.404 0.343917 -3.22471 0
M  V30 1372 H 125.189 -1.37301 -3.67275 0
M  V30 1373 H 126.679 -0.503032 -4.14559 0
M  V30 1374 N 127.117 1.15442 -1.07289 0
M  V30 1375 C 128.049 2.19773 -0.650585 0
M  V30 1376 C 129.062 1.60076 0.296572 0
M  V30 1377 O 130.251 1.78293 0.0859905 0
M  V30 1378 C 127.351 3.38838 0.0650398 0
M  V30 1379 C 126.524 4.2808 -0.898141 0
M  V30 1380 C 125.583 5.2574 -0.219926 0
M  V30 1381 O 124.609 5.62654 -0.860773 0
M  V30 1382 N 125.811 5.71205 1.03466 0
M  V30 1383 H 128.576 2.56622 -1.54808 0
M  V30 1384 H 126.137 1.30551 -0.957494 0
M  V30 1385 H 128.129 4.01222 0.529415 0
M  V30 1386 H 126.699 3.00409 0.864466 0
M  V30 1387 H 125.919 3.62804 -1.54165 0
M  V30 1388 H 127.207 4.84577 -1.5512 0
M  V30 1389 H 126.605 5.43325 1.57526 0
M  V30 1390 H 125.162 6.35633 1.44272 0
M  V30 1391 N 128.595 0.856903 1.32268 0
M  V30 1392 C 129.823 0.475439 2.01363 0
M  V30 1393 C 130.238 -0.928486 1.64392 0
M  V30 1394 O 129.595 -1.60624 0.866387 0
M  V30 1395 C 129.646 0.607545 3.56358 0
M  V30 1396 O 129.367 1.95617 3.92002 0
M  V30 1397 C 130.868 0.225382 4.42727 0
M  V30 1398 H 128.088 0.186636 0.644521 0
M  V30 1399 H 130.632 1.15446 1.68797 0
M  V30 1400 H 128.787 -0.0237719 3.87393 0
M  V30 1401 H 129.201 1.95455 4.86721 0
M  V30 1402 H 130.675 0.368813 5.50767 0
M  V30 1403 H 131.152 -0.834369 4.31202 0
M  V30 1404 H 131.758 0.831864 4.17085 0
M  V30 1405 N 130.073 -1.45103 0.615059 0
M  V30 1406 C 131.003 -2.33339 -0.0865619 0
M  V30 1407 C 131.984 -1.4727 -0.851209 0
M  V30 1408 O 133.169 -1.76026 -0.820281 0
M  V30 1409 C 130.299 -3.30095 -1.07956 0
M  V30 1410 C 129.253 -4.25858 -0.427628 0
M  V30 1411 C 128.579 -5.12361 -1.5294 0
M  V30 1412 C 129.879 -5.18165 0.655944 0
M  V30 1413 H 131.573 -2.92254 0.650224 0
M  V30 1414 H 129.119 -1.40532 0.314138 0
M  V30 1415 H 131.072 -3.90698 -1.57901 0
M  V30 1416 H 129.796 -2.69355 -1.84703 0
M  V30 1417 H 128.455 -3.66564 0.0510292 0
M  V30 1418 H 128.103 -4.47984 -2.28734 0
M  V30 1419 H 127.803 -5.77238 -1.09865 0
M  V30 1420 H 129.327 -5.75833 -2.03098 0
M  V30 1421 H 130.741 -5.72796 0.240257 0
M  V30 1422 H 129.138 -5.91559 1.00888 0
M  V30 1423 H 130.208 -4.60144 1.52957 0
M  V30 1424 N 131.551 -0.354651 -1.53558 0
M  V30 1425 C 132.498 0.496968 -2.25386 0
M  V30 1426 C 133.468 1.0865 -1.25636 0
M  V30 1427 O 134.653 1.12104 -1.54394 0
M  V30 1428 C 131.793 1.63637 -3.03837 0
M  V30 1429 C 130.906 1.07307 -4.18461 0
M  V30 1430 C 130.041 2.18068 -4.84376 0
M  V30 1431 C 129.08 1.59147 -5.91049 0
M  V30 1432 N 128.217 2.63695 -6.50699 0
M  V30 1433 H 133.057 -0.122075 -2.9775 0
M  V30 1434 H 130.594 -0.0720154 -1.46924 0
M  V30 1435 H 132.552 2.30734 -3.47589 0
M  V30 1436 H 131.182 2.22623 -2.33749 0
M  V30 1437 H 130.234 0.292708 -3.79272 0
M  V30 1438 H 131.546 0.602193 -4.95152 0
M  V30 1439 H 130.7 2.93007 -5.31255 0
M  V30 1440 H 129.439 2.68504 -4.07133 0
M  V30 1441 H 128.444 0.827175 -5.43542 0
M  V30 1442 H 129.669 1.09549 -6.70206 0
M  V30 1443 H 127.615 3.13365 -5.76315 0
M  V30 1444 H 127.532 2.21263 -7.22896 0
M  V30 1445 H 128.8 3.3837 -7.02229 0
M  V30 1446 N 133.029 1.57378 -0.0835403 0
M  V30 1447 C 133.939 2.16897 0.894021 0
M  V30 1448 C 134.955 1.13528 1.31861 0
M  V30 1449 O 136.131 1.45848 1.3889 0
M  V30 1450 C 133.196 2.72831 2.13925 0
M  V30 1451 C 132.257 3.91115 1.76997 0
M  V30 1452 C 131.49 4.44371 2.95584 0
M  V30 1453 O 131.713 3.96596 4.09961 0
M  V30 1454 O 130.647 5.35549 2.74719 0
M  V30 1455 H 134.473 3.00814 0.417679 0
M  V30 1456 H 132.058 1.48741 0.140181 0
M  V30 1457 H 133.94 3.0863 2.86924 0
M  V30 1458 H 132.615 1.91967 2.60635 0
M  V30 1459 H 131.522 3.60148 1.01214 0
M  V30 1460 H 132.855 4.73307 1.3506 0
M  V30 1461 N 134.507 -0.190092 1.56449 0
M  V30 1462 C 135.753 -0.906472 1.82084 0
M  V30 1463 C 136.108 -1.80677 0.661335 0
M  V30 1464 O 135.401 -1.88501 -0.343237 0
M  V30 1465 C 135.595 -1.75382 3.1141 0
M  V30 1466 C 135.424 -0.937053 4.39829 0
M  V30 1467 C 134.194 -0.619507 5.01488 0
M  V30 1468 C 136.392 -0.2874 5.13496 0
M  V30 1469 N 134.374 0.215367 6.13522 0
M  V30 1470 C 135.745 0.409454 6.18646 0
M  V30 1471 C 137.8 -0.203639 4.97483 0
M  V30 1472 C 136.503 1.1821 7.0952 0
M  V30 1473 C 138.529 0.555622 5.88784 0
M  V30 1474 C 137.891 1.24091 6.93384 0
M  V30 1475 H 133.99 -0.310931 0.717528 0
M  V30 1476 H 136.574 -0.174821 1.93914 0
M  V30 1477 H 134.745 -2.45703 3.00806 0
M  V30 1478 H 136.477 -2.41006 3.25112 0
M  V30 1479 H 133.232 -0.945126 4.64074 0
M  V30 1480 H 133.656 0.622562 6.74131 0
M  V30 1481 H 138.298 -0.719099 4.1664 0
M  V30 1482 H 136.016 1.70897 7.89823 0
M  V30 1483 H 139.602 0.621854 5.78467 0
M  V30 1484 H 138.482 1.81901 7.62812 0
M  V30 1485 N 135.985 -1.50799 -0.457987 0
M  V30 1486 C 137.401 -1.38515 -0.792819 0
M  V30 1487 C 137.601 -0.451409 -1.96379 0
M  V30 1488 O 136.657 0.10112 -2.52297 0
M  V30 1489 C 137.97 -2.80149 -1.09258 0
M  V30 1490 C 139.518 -2.89156 -1.19825 0
M  V30 1491 C 139.993 -4.31651 -1.53106 0
M  V30 1492 N 141.484 -4.34662 -1.60072 0
M  V30 1493 C 142.219 -5.41928 -1.87354 0
M  V30 1494 N 141.715 -6.59384 -2.12568 0
M  V30 1495 N 143.508 -5.29385 -1.88965 0
M  V30 1496 H 135.659 -2.10073 0.313511 0
M  V30 1497 H 137.922 -0.944803 0.0777862 0
M  V30 1498 H 137.628 -3.50374 -0.305084 0
M  V30 1499 H 137.502 -3.18204 -2.02549 0
M  V30 1500 H 139.889 -2.19141 -1.97639 0
M  V30 1501 H 139.97 -2.54626 -0.244821 0
M  V30 1502 H 139.614 -5.02208 -0.758266 0
M  V30 1503 H 139.544 -4.63678 -2.49621 0
M  V30 1504 H 142.035 -3.49973 -1.42573 0
M  V30 1505 H 142.348 -7.36934 -2.32696 0
M  V30 1506 H 140.693 -6.62535 -2.09933 0
M  V30 1507 H 143.884 -4.36616 -1.68772 0
M  V30 1508 H 144.057 -6.13066 -2.09891 0
M  V30 1509 N 137.463 0.71206 -1.40597 0
M  V30 1510 C 138.395 1.83704 -1.37061 0
M  V30 1511 C 139.408 1.60453 -0.275426 0
M  V30 1512 O 140.597 1.70262 -0.53602 0
M  V30 1513 C 137.697 3.20172 -1.11099 0
M  V30 1514 C 136.87 3.7059 -2.3234 0
M  V30 1515 C 135.929 4.85681 -2.02485 0
M  V30 1516 O 134.955 4.9815 -2.75382 0
M  V30 1517 N 136.157 5.71735 -1.00497 0
M  V30 1518 H 138.922 1.87235 -2.34016 0
M  V30 1519 H 136.483 0.893739 -1.34996 0
M  V30 1520 H 138.475 3.94768 -0.891064 0
M  V30 1521 H 137.045 3.11767 -0.227989 0
M  V30 1522 H 136.265 2.87085 -2.7014 0
M  V30 1523 H 137.553 4.01011 -3.13157 0
M  V30 1524 H 136.951 5.64275 -0.401298 0
M  V30 1525 H 135.508 6.463 -0.844942 0
M  V30 1526 N 138.941 1.26152 0.944643 0
M  V30 1527 C 139.851 1.09176 2.07648 0
M  V30 1528 C 140.867 0.0261935 1.7398 0
M  V30 1529 O 142.043 0.229208 2.00091 0
M  V30 1530 C 139.108 0.722915 3.39079 0
M  V30 1531 C 138.169 1.86752 3.86552 0
M  V30 1532 C 137.402 1.51617 5.11711 0
M  V30 1533 O 137.625 0.416331 5.68879 0
M  V30 1534 O 136.559 2.34975 5.54139 0
M  V30 1535 H 140.385 2.0412 2.24875 0
M  V30 1536 H 137.97 1.05182 1.061 0
M  V30 1537 H 139.852 0.529787 4.18056 0
M  V30 1538 H 138.527 -0.197159 3.23099 0
M  V30 1539 H 137.434 2.11558 3.08535 0
M  V30 1540 H 138.767 2.76719 4.07047 0
M  V30 1541 N 140.419 -1.14872 1.07899 0
M  V30 1542 C 141.351 -2.19425 0.662231 0
M  V30 1543 C 142.364 -1.60231 -0.288079 0
M  V30 1544 O 143.553 -1.78336 -0.076534 0
M  V30 1545 C 140.653 -3.38867 -0.0470695 0
M  V30 1546 C 139.826 -4.27597 0.920831 0
M  V30 1547 C 138.885 -5.25616 0.247805 0
M  V30 1548 O 137.911 -5.62189 0.890599 0
M  V30 1549 N 139.113 -5.71746 -1.00435 0
M  V30 1550 H 141.878 -2.55797 1.56166 0
M  V30 1551 H 139.439 -1.30042 0.964404 0
M  V30 1552 H 141.431 -4.01497 -0.50813 0
M  V30 1553 H 140.001 -3.00864 -0.848523 0
M  V30 1554 H 139.221 -3.61982 1.56087 0
M  V30 1555 H 140.509 -4.83748 1.57688 0
M  V30 1556 H 139.907 -5.44153 -1.54642 0
M  V30 1557 H 138.464 -6.36389 -1.40899 0
M  V30 1558 N 141.898 -0.863906 -1.31812 0
M  V30 1559 C 143.146 -0.470904 -1.96537 0
M  V30 1560 C 143.467 0.978771 -1.68657 0
M  V30 1561 O 142.737 1.6853 -0.998717 0
M  V30 1562 H 141.317 -0.171148 -0.72713 0
M  V30 1563 H 143.979 -1.10236 -1.60729 0
M  V30 1564 H 143.075 -0.623616 -3.05806 0
M  V30 1565 N 143.376 1.44774 -0.622745 0
M  V30 1566 C 144.787 1.85546 -0.207226 0
M  V30 1567 C 145.138 1.52093 1.23944 0
M  V30 1568 O 144.263 0.95492 1.94191 0
M  V30 1569 C 144.858 3.36781 -0.369313 0
M  V30 1570 C 143.417 3.76399 -0.00836847 0
M  V30 1571 C 142.564 2.68664 -0.686651 0
M  V30 1572 H 145.515 1.3536 -0.828454 0
M  V30 1573 H 145.536 3.78453 0.394162 0
M  V30 1574 H 145.048 3.61098 -1.42231 0
M  V30 1575 H 143.149 3.57698 1.04322 0
M  V30 1576 H 143.262 4.7732 -0.412584 0
M  V30 1577 H 141.626 2.54404 -0.122777 0
M  V30 1578 H 142.409 2.95815 -1.74208 0
M  V30 1579 N 144.854 0.36279 1.53368 0
M  V30 1580 C 146.131 -0.284021 1.93527 0
M  V30 1581 C 146.511 -1.66628 1.29608 0
M  V30 1582 O 145.859 -2.23942 0.45413 0
M  V30 1583 C 146.069 -0.337028 3.47369 0
M  V30 1584 C 147.417 -0.578708 4.20638 0
M  V30 1585 O 148.441 -0.418352 3.53735 0
M  V30 1586 O 147.3 -0.89074 5.39192 0
M  V30 1587 H 144.394 -0.169743 0.809393 0
M  V30 1588 H 146.94 0.41537 1.64538 0
M  V30 1589 H 145.712 0.632217 3.86159 0
M  V30 1590 H 145.335 -1.08243 3.82582 0
M  V30 1591 N 146.332 -1.57332 0.0918853 0
M  V30 1592 C 147.578 -1.94524 -0.573425 0
M  V30 1593 C 147.911 -0.973578 -1.68033 0
M  V30 1594 O 147.186 -0.00609226 -1.94499 0
M  V30 1595 C 147.469 -3.41858 -1.13161 0
M  V30 1596 C 147.322 -4.4979 -0.0299747 0
M  V30 1597 C 148.641 -3.90435 -2.03098 0
M  V30 1598 H 145.76 -0.70734 -0.206975 0
M  V30 1599 H 148.402 -1.89309 0.161942 0
M  V30 1600 H 146.552 -3.46433 -1.7583 0
M  V30 1601 H 148.224 -4.57327 0.604112 0
M  V30 1602 H 146.467 -4.291 0.636833 0
M  V30 1603 H 147.138 -5.50069 -0.461287 0
M  V30 1604 H 149.614 -3.87992 -1.50338 0
M  V30 1605 H 148.49 -4.94097 -2.39081 0
M  V30 1606 H 148.751 -3.29541 -2.94712 0
M  V30 1607 N 147.81 0.181792 -1.56548 0
M  V30 1608 C 149.221 0.745244 -1.71181 0
M  V30 1609 C 149.572 1.83262 -0.70068 0
M  V30 1610 O 148.697 2.15946 0.140154 0
M  V30 1611 C 149.292 1.35859 -3.10367 0
M  V30 1612 C 147.851 1.86898 -3.2672 0
M  V30 1613 C 146.998 0.743942 -2.67134 0
M  V30 1614 H 149.949 -0.0434661 -1.5864 0
M  V30 1615 H 149.97 2.22817 -3.08436 0
M  V30 1616 H 149.482 0.566948 -3.83937 0
M  V30 1617 H 147.583 2.68738 -2.5809 0
M  V30 1618 H 147.696 2.02162 -4.34359 0
M  V30 1619 H 146.06 1.16169 -2.26665 0
M  V30 1620 H 146.843 -0.035676 -3.43281 0
M  V30 1621 N 149.288 1.51039 0.449983 0
M  V30 1622 C 150.218 1.74379 1.55288 0
M  V30 1623 C 151.199 0.593236 1.5942 0
M  V30 1624 O 152.384 0.834625 1.7535 0
M  V30 1625 C 149.514 1.85728 2.93466 0
M  V30 1626 C 148.468 3.01078 3.04197 0
M  V30 1627 C 147.794 2.97595 4.44231 0
M  V30 1628 C 149.094 4.41254 2.7945 0
M  V30 1629 H 150.788 2.66725 1.36008 0
M  V30 1630 H 148.334 1.2835 0.652864 0
M  V30 1631 H 150.287 2.0064 3.70569 0
M  V30 1632 H 149.011 0.900207 3.13949 0
M  V30 1633 H 147.67 2.85851 2.29531 0
M  V30 1634 H 147.318 1.99691 4.61663 0
M  V30 1635 H 147.018 3.75046 4.52343 0
M  V30 1636 H 148.542 3.14583 5.23326 0
M  V30 1637 H 149.956 4.56897 3.46292 0
M  V30 1638 H 148.353 5.20315 2.98985 0
M  V30 1639 H 149.423 4.52164 1.75144 0
M  V30 1640 N 150.766 -0.704594 1.40972 0
M  V30 1641 C 151.729 -1.80035 1.41845 0
M  V30 1642 C 152.729 -1.57774 0.310474 0
M  V30 1643 O 153.919 -1.64613 0.56992 0
M  V30 1644 C 151.051 -3.18284 1.22098 0
M  V30 1645 H 152.244 -1.80658 2.3938 0
M  V30 1646 H 149.797 -0.911329 1.26982 0
M  V30 1647 H 150.532 -3.23306 0.253672 0
M  V30 1648 H 150.317 -3.35843 2.02366 0
M  V30 1649 H 151.807 -3.98289 1.25522 0
M  V30 1650 N 152.244 -1.26651 -0.937939 0
M  V30 1651 C 153.491 -1.12387 -1.6845 0
M  V30 1652 C 153.819 0.332208 -1.91642 0
M  V30 1653 O 153.074 1.2602 -1.49725 0
M  V30 1654 C 153.373 -1.84168 -3.06295 0
M  V30 1655 C 153.039 -3.34056 -3.02849 0
M  V30 1656 C 151.701 -3.74942 -3.01616 0
M  V30 1657 C 154.053 -4.29741 -2.9491 0
M  V30 1658 C 151.381 -5.09894 -2.90215 0
M  V30 1659 C 153.733 -5.64738 -2.8505 0
M  V30 1660 C 152.397 -6.0493 -2.82162 0
M  V30 1661 H 151.667 -0.411252 -0.616403 0
M  V30 1662 H 154.314 -1.57134 -1.09459 0
M  V30 1663 H 152.619 -1.319 -3.6893 0
M  V30 1664 H 154.316 -1.70569 -3.62915 0
M  V30 1665 H 150.906 -3.01534 -3.0459 0
M  V30 1666 H 155.09 -3.99133 -2.94969 0
M  V30 1667 H 150.346 -5.40194 -2.86358 0
M  V30 1668 H 154.52 -6.38561 -2.77872 0
M  V30 1669 H 152.147 -7.09457 -2.73084 0
M  V30 1670 N 153.722 1.14298 -1.08507 0
M  V30 1671 C 154.971 1.84708 -0.810305 0
M  V30 1672 C 155.284 1.83903 0.666271 0
M  V30 1673 O 156.49 2.50112 1.05624 0
M  V30 1674 C 154.946 3.31572 -1.39957 0
M  V30 1675 C 154.554 3.40791 -2.90801 0
M  V30 1676 C 156.298 4.07087 -1.20334 0
M  V30 1677 C 154.205 4.81872 -3.4286 0
M  V30 1678 H 153.135 0.691985 -0.299454 0
M  V30 1679 H 155.786 1.28841 -1.30661 0
M  V30 1680 H 154.168 3.87183 -0.830976 0
M  V30 1681 H 155.342 2.95225 -3.53806 0
M  V30 1682 H 153.657 2.78732 -3.0935 0
M  V30 1683 H 156.254 5.11225 -1.56693 0
M  V30 1684 H 156.597 4.16054 -0.143237 0
M  V30 1685 H 157.13 3.57779 -1.73893 0
M  V30 1686 H 153.869 4.78094 -4.48449 0
M  V30 1687 H 153.389 5.27972 -2.84615 0
M  V30 1688 H 155.068 5.50765 -3.39509 0
M  V30 1689 N 155.201 0.870884 1.31352 0
M  V30 1690 C 156.45 0.478408 1.95944 0
M  V30 1691 C 156.763 -0.974493 1.69597 0
M  V30 1692 O 157.969 -1.47316 2.28058 0
M  V30 1693 C 156.425 0.804609 3.50791 0
M  V30 1694 C 156.033 2.27433 3.85977 0
M  V30 1695 C 157.777 0.480648 4.2177 0
M  V30 1696 C 155.684 2.5429 5.33939 0
M  V30 1697 H 154.614 0.175175 0.733369 0
M  V30 1698 H 157.265 1.06391 1.4951 0
M  V30 1699 H 155.647 0.148347 3.95722 0
M  V30 1700 H 156.821 2.97373 3.52002 0
M  V30 1701 H 155.136 2.56442 3.28065 0
M  V30 1702 H 157.733 0.658519 5.30629 0
M  V30 1703 H 158.076 -0.578979 4.12254 0
M  V30 1704 H 158.609 1.09349 3.82476 0
M  V30 1705 H 155.348 3.58939 5.48491 0
M  V30 1706 H 154.868 1.88945 5.69263 0
M  V30 1707 H 156.547 2.39066 6.01212 0
M  V30 1708 N 156.679 -1.44442 0.630414 0
M  V30 1709 C 157.927 -2.01653 0.134351 0
M  V30 1710 C 158.248 -1.49836 -1.24796 0
M  V30 1711 O 157.518 -0.701684 -1.82902 0
M  V30 1712 H 156.098 -0.74554 0.0466769 0
M  V30 1713 H 158.76 -1.76952 0.816955 0
M  V30 1714 H 157.856 -3.11935 0.101498 0
M  V30 1715 N 158.157 -0.370918 -1.53173 0
M  V30 1716 C 159.089 0.507823 -2.23503 0
M  V30 1717 C 160.102 1.04182 -1.251 0
M  V30 1718 O 161.291 0.947286 -1.5129 0
M  V30 1719 C 158.391 1.71447 -2.92334 0
M  V30 1720 C 157.564 1.31105 -4.17289 0
M  V30 1721 C 156.623 2.38035 -4.69282 0
M  V30 1722 O 155.649 2.00204 -5.32829 0
M  V30 1723 N 156.851 3.69697 -4.47554 0
M  V30 1724 H 159.616 -0.0946382 -2.99551 0
M  V30 1725 H 157.177 -0.196358 -1.60705 0
M  V30 1726 H 159.169 2.42469 -3.24023 0
M  V30 1727 H 157.739 2.22368 -2.19707 0
M  V30 1728 H 156.959 0.430462 -3.91843 0
M  V30 1729 H 158.247 1.0179 -4.98514 0
M  V30 1730 H 157.645 4.03205 -3.9679 0
M  V30 1731 H 156.202 4.36807 -4.8378 0
M  V30 1732 N 159.635 1.57281 -0.100228 0
M  V30 1733 C 160.912 1.86014 0.604812 0
M  V30 1734 C 161.292 0.998025 1.86018 0
M  V30 1735 O 160.64 0.0718184 2.28387 0
M  V30 1736 C 160.85 3.36784 0.915278 0
M  V30 1737 C 162.198 4.04957 1.27651 0
M  V30 1738 O 163.222 3.41695 1.00613 0
M  V30 1739 O 162.081 5.16593 1.7831 0
M  V30 1740 H 159.175 0.76942 0.303185 0
M  V30 1741 H 161.721 1.69176 -0.133313 0
M  V30 1742 H 160.493 3.91292 0.0248896 0
M  V30 1743 H 160.116 3.58987 1.70921 0
M  V30 1744 N 161.113 -0.173488 1.56642 0
M  V30 1745 C 162.338 -0.910149 1.86363 0
M  V30 1746 C 162.763 -1.75132 0.686318 0
M  V30 1747 O 162.121 -1.77595 -0.364643 0
M  V30 1748 C 162.169 -1.76447 3.14482 0
M  V30 1749 O 161.273 -2.86584 2.96553 0
M  V30 1750 H 160.614 -0.255086 0.613047 0
M  V30 1751 H 163.144 -0.172283 2.03873 0
M  V30 1752 H 163.154 -2.16483 3.45831 0
M  V30 1753 H 161.829 -1.14658 3.99783 0
M  V30 1754 H 160.406 -2.50146 2.76553 0
M  V30 1755 N 162.591 -1.51276 -0.441967 0
M  V30 1756 C 163.521 -1.752 -1.54361 0
M  V30 1757 C 164.502 -0.601682 -1.59103 0
M  V30 1758 O 165.687 -0.843913 -1.74905 0
M  V30 1759 C 162.817 -1.87282 -2.92477 0
M  V30 1760 C 161.771 -3.02687 -3.02596 0
M  V30 1761 C 161.097 -2.99947 -4.42647 0
M  V30 1762 C 162.397 -4.4273 -2.77106 0
M  V30 1763 H 164.091 -2.67442 -1.34592 0
M  V30 1764 H 161.637 -1.28694 -0.646048 0
M  V30 1765 H 163.59 -2.02602 -3.695 0
M  V30 1766 H 162.314 -0.916844 -3.13467 0
M  V30 1767 H 160.973 -2.87065 -2.28012 0
M  V30 1768 H 160.621 -2.02136 -4.60597 0
M  V30 1769 H 160.321 -3.77439 -4.50348 0
M  V30 1770 H 161.845 -3.17354 -5.2165 0
M  V30 1771 H 163.259 -4.58727 -3.43864 0
M  V30 1772 H 161.656 -5.21893 -2.96222 0
M  V30 1773 H 162.726 -4.53087 -1.72744 0
M  V30 1774 N 164.069 0.697108 -1.41344 0
M  V30 1775 C 164.999 1.82353 -1.45841 0
M  V30 1776 C 165.98 1.67115 -0.317247 0
M  V30 1777 O 167.165 1.86871 -0.528474 0
M  V30 1778 C 164.295 3.20476 -1.33838 0
M  V30 1779 C 163.249 3.50415 -2.4575 0
M  V30 1780 C 162.575 4.87878 -2.18813 0
M  V30 1781 C 163.875 3.49546 -3.88091 0
M  V30 1782 H 165.569 1.78846 -2.40113 0
M  V30 1783 H 163.115 0.859028 -1.15571 0
M  V30 1784 H 165.068 3.98988 -1.35596 0
M  V30 1785 H 163.792 3.24604 -0.360498 0
M  V30 1786 H 162.451 2.74253 -2.43271 0
M  V30 1787 H 162.099 4.8863 -1.19371 0
M  V30 1788 H 161.799 5.08875 -2.93803 0
M  V30 1789 H 163.323 5.68702 -2.22284 0
M  V30 1790 H 164.737 4.18066 -3.92293 0
M  V30 1791 H 163.134 3.82075 -4.62751 0
M  V30 1792 H 164.204 2.48552 -4.16353 0
M  V30 1793 N 165.547 1.27147 0.931209 0
M  V30 1794 C 166.775 1.16082 1.71267 0
M  V30 1795 C 167.19 -0.282772 1.8667 0
M  V30 1796 O 166.547 -1.19283 1.38122 0
M  V30 1797 C 166.598 1.8358 3.11417 0
M  V30 1798 O 166.319 3.22299 2.96741 0
M  V30 1799 C 167.82 1.78597 4.05732 0
M  V30 1800 H 165.04 0.403758 0.535929 0
M  V30 1801 H 167.584 1.67953 1.16671 0
M  V30 1802 H 165.739 1.35623 3.62885 0
M  V30 1803 H 166.153 3.55851 3.85319 0
M  V30 1804 H 167.627 2.30444 5.01597 0
M  V30 1805 H 168.104 0.754564 4.3267 0
M  V30 1806 H 168.71 2.26152 3.60188 0
M  V30 1807 N 167.025 -1.13721 1.09112 0
M  V30 1808 C 168.272 -1.84924 0.825192 0
M  V30 1809 C 168.6 -1.83347 -0.649151 0
M  V30 1810 O 167.855 -1.26449 -1.49362 0
M  V30 1811 C 168.154 -3.32861 1.30146 0
M  V30 1812 C 167.82 -3.54621 2.78486 0
M  V30 1813 C 166.482 -3.60268 3.18999 0
M  V30 1814 C 168.834 -3.62855 3.74146 0
M  V30 1815 C 166.162 -3.71679 4.53951 0
M  V30 1816 C 168.514 -3.75793 5.08883 0
M  V30 1817 C 167.178 -3.79692 5.4899 0
M  V30 1818 H 166.448 -0.676684 0.301959 0
M  V30 1819 H 169.095 -1.3428 1.36533 0
M  V30 1820 H 167.4 -3.85835 0.681064 0
M  V30 1821 H 169.097 -3.86395 1.07236 0
M  V30 1822 H 165.687 -3.50879 2.46134 0
M  V30 1823 H 169.871 -3.57775 3.43963 0
M  V30 1824 H 165.127 -3.72963 4.84467 0
M  V30 1825 H 169.301 -3.81107 5.82864 0
M  V30 1826 H 166.928 -3.88287 6.53558 0
M  V30 1827 N 168.503 -0.877838 -1.30888 0
M  V30 1828 C 169.914 -0.544193 -1.78593 0
M  V30 1829 C 170.265 0.939301 -1.72254 0
M  V30 1830 O 169.39 1.7337 -1.29505 0
M  V30 1831 C 169.985 -0.98105 -3.24285 0
M  V30 1832 C 168.544 -0.698935 -3.69854 0
M  V30 1833 C 167.691 -1.168 -2.51502 0
M  V30 1834 H 170.642 -1.06278 -1.17859 0
M  V30 1835 H 170.663 -0.307009 -3.79259 0
M  V30 1836 H 170.175 -2.06079 -3.28866 0
M  V30 1837 H 168.276 0.369112 -3.70767 0
M  V30 1838 H 168.389 -1.28148 -4.61644 0
M  V30 1839 H 166.753 -0.587535 -2.47831 0
M  V30 1840 H 167.536 -2.25533 -2.58824 0
M  V30 1841 N 169.982 1.44106 -0.638065 0
M  V30 1842 C 171.21 2.06336 -0.152615 0
M  V30 1843 C 171.625 1.47731 1.17563 0
M  V30 1844 O 170.982 0.602806 1.72257 0
M  V30 1845 C 171.033 3.61479 -0.0391491 0
M  V30 1846 O 170.754 4.17903 -1.31487 0
M  V30 1847 C 172.255 4.40757 0.474176 0
M  V30 1848 H 169.475 0.665862 -0.0828776 0
M  V30 1849 H 172.019 1.84862 -0.87443 0
M  V30 1850 H 170.174 3.82191 0.633142 0
M  V30 1851 H 170.588 5.11416 -1.16421 0
M  V30 1852 H 172.062 5.49707 0.502562 0
M  V30 1853 H 172.539 4.12697 1.50258 0
M  V30 1854 H 173.145 4.24979 -0.165102 0
M  V30 1855 N 171.46 0.379036 1.52974 0
M  V30 1856 C 172.706 -0.199244 2.02422 0
M  V30 1857 C 173.061 -1.4532 1.26095 0
M  V30 1858 O 172.354 -1.88377 0.34996 0
M  V30 1859 C 172.548 -0.53096 3.53434 0
M  V30 1860 C 172.377 0.689298 4.44386 0
M  V30 1861 C 171.147 1.20546 4.9071 0
M  V30 1862 C 173.345 1.55856 4.90116 0
M  V30 1863 N 171.327 2.38434 5.65705 0
M  V30 1864 C 172.698 2.58396 5.63588 0
M  V30 1865 C 174.753 1.57986 4.7217 0
M  V30 1866 C 173.456 3.62939 6.21022 0
M  V30 1867 C 175.482 2.6143 5.30479 0
M  V30 1868 C 174.844 3.62693 6.03849 0
M  V30 1869 H 170.943 -0.0352671 0.781204 0
M  V30 1870 H 173.527 0.526614 1.87443 0
M  V30 1871 H 171.698 -1.22588 3.68547 0
M  V30 1872 H 173.43 -1.0955 3.89591 0
M  V30 1873 H 170.185 0.768022 4.67331 0
M  V30 1874 H 170.609 2.98055 6.07859 0
M  V30 1875 H 175.251 0.810475 4.14959 0
M  V30 1876 H 172.969 4.40751 6.77321 0
M  V30 1877 H 176.555 2.63949 5.18481 0
M  V30 1878 H 175.435 4.41424 6.48163 0
M  V30 1879 N 172.938 -1.57226 0.108567 0
M  V30 1880 C 174.168 -1.9889 -0.559142 0
M  V30 1881 C 174.576 -0.986889 -1.61422 0
M  V30 1882 O 173.919 0.0298705 -1.83676 0
M  V30 1883 C 173.981 -3.36952 -1.25315 0
M  V30 1884 C 173.645 -4.55679 -0.347248 0
M  V30 1885 C 174.642 -5.18281 0.409996 0
M  V30 1886 C 172.327 -5.0162 -0.261367 0
M  V30 1887 C 174.321 -6.25203 1.24096 0
M  V30 1888 C 172.008 -6.08405 0.573238 0
M  V30 1889 C 173.006 -6.70063 1.32304 0
M  V30 1890 O 172.694 -7.74788 2.14381 0
M  V30 1891 H 172.426 -0.658343 -0.153492 0
M  V30 1892 H 174.98 -2.04532 0.188584 0
M  V30 1893 H 173.21 -3.28032 -2.04773 0
M  V30 1894 H 174.899 -3.62974 -1.81673 0
M  V30 1895 H 175.665 -4.8371 0.353457 0
M  V30 1896 H 171.544 -4.53381 -0.834656 0
M  V30 1897 H 175.088 -6.73259 1.82669 0
M  V30 1898 H 170.985 -6.42406 0.631208 0
M  V30 1899 H 171.753 -7.91837 2.07209 0
M  V30 1900 N 174.416 0.165178 -1.56732 0
M  V30 1901 C 175.326 1.22423 -2.00125 0
M  V30 1902 C 176.342 1.48084 -0.913619 0
M  V30 1903 O 177.518 1.60112 -1.22172 0
M  V30 1904 C 174.583 2.54197 -2.35764 0
M  V30 1905 C 173.644 2.36343 -3.58386 0
M  V30 1906 C 172.877 3.61834 -3.92316 0
M  V30 1907 O 173.1 4.67267 -3.27135 0
M  V30 1908 O 172.034 3.55579 -4.85641 0
M  V30 1909 H 175.86 0.885886 -2.90492 0
M  V30 1910 H 173.445 0.372518 -1.44681 0
M  V30 1911 H 175.327 3.3192 -2.59629 0
M  V30 1912 H 174.002 2.87598 -1.48557 0
M  V30 1913 H 172.909 1.56632 -3.39731 0
M  V30 1914 H 174.242 2.07865 -4.46154 0
M  V30 1915 N 175.894 1.51508 0.433938 0
M  V30 1916 C 177.124 1.67914 1.20369 0
M  V30 1917 C 177.532 0.377461 1.85397 0
M  V30 1918 O 176.875 -0.654255 1.71654 0
M  V30 1919 C 176.937 2.74045 2.32679 0
M  V30 1920 C 176.601 4.16543 1.87991 0
M  V30 1921 C 177.598 5.01211 1.38145 0
M  V30 1922 C 175.283 4.6266 1.95579 0
M  V30 1923 C 177.277 6.30056 0.964774 0
M  V30 1924 C 174.964 5.91501 1.53523 0
M  V30 1925 C 175.962 6.75027 1.04055 0
M  V30 1926 O 175.65 8.01459 0.625964 0
M  V30 1927 H 175.382 0.566578 0.368735 0
M  V30 1928 H 177.936 1.98709 0.51999 0
M  V30 1929 H 176.166 2.38572 3.04336 0
M  V30 1930 H 177.855 2.79295 2.94532 0
M  V30 1931 H 178.621 4.66783 1.31675 0
M  V30 1932 H 174.5 3.97767 2.33029 0
M  V30 1933 H 178.044 6.95202 0.57796 0
M  V30 1934 H 173.941 6.25442 1.59665 0
M  V30 1935 H 174.709 8.15043 0.751509 0
M  V30 1936 N 177.372 -0.689602 1.41712 0
M  V30 1937 C 178.282 -1.83314 1.46401 0
M  V30 1938 C 179.298 -1.7036 0.35405 0
M  V30 1939 O 180.474 -1.92171 0.602692 0
M  V30 1940 C 177.539 -3.19344 1.34982 0
M  V30 1941 C 176.6 -3.44363 2.56344 0
M  V30 1942 C 175.833 -4.73904 2.45461 0
M  V30 1943 O 176.056 -5.508 1.48241 0
M  V30 1944 O 174.99 -4.99839 3.35328 0
M  V30 1945 H 178.816 -1.82314 2.42889 0
M  V30 1946 H 176.401 -0.843438 1.23315 0
M  V30 1947 H 178.283 -4.00547 1.3092 0
M  V30 1948 H 176.958 -3.21014 0.41612 0
M  V30 1949 H 175.865 -2.63067 2.65982 0
M  V30 1950 H 177.198 -3.47512 3.48563 0
M  V30 1951 N 178.85 -1.27639 -0.924453 0
M  V30 1952 C 180.078 -1.16989 -1.70649 0
M  V30 1953 C 180.493 0.272869 -1.86818 0
M  V30 1954 O 179.85 1.18549 -1.38753 0
M  V30 1955 C 179.901 -1.85229 -3.10439 0
M  V30 1956 O 179.622 -3.23868 -2.95028 0
M  V30 1957 C 181.123 -1.80746 -4.04779 0
M  V30 1958 H 178.343 -0.406595 -0.53378 0
M  V30 1959 H 180.887 -1.68569 -1.15778 0
M  V30 1960 H 179.042 -1.37545 -3.6216 0
M  V30 1961 H 179.456 -3.57889 -3.83426 0
M  V30 1962 H 180.93 -2.33101 -5.00368 0
M  V30 1963 H 181.407 -0.777499 -4.32263 0
M  V30 1964 H 182.013 -2.28059 -3.58984 0
M  V30 1965 N 180.328 1.1314 -1.09713 0
M  V30 1966 C 181.577 1.83838 -0.829851 0
M  V30 1967 C 181.89 1.84599 0.646728 0
M  V30 1968 O 183.096 2.51218 1.02965 0
M  V30 1969 C 181.552 3.30069 -1.43466 0
M  V30 1970 C 181.16 3.37688 -2.94399 0
M  V30 1971 C 182.904 4.05788 -1.24645 0
M  V30 1972 C 180.811 4.78209 -3.47952 0
M  V30 1973 H 179.741 0.68877 -0.306777 0
M  V30 1974 H 182.392 1.27448 -1.3202 0
M  V30 1975 H 180.774 3.8628 -0.871996 0
M  V30 1976 H 181.948 2.91456 -3.56918 0
M  V30 1977 H 180.263 2.75436 -3.12289 0
M  V30 1978 H 182.86 5.09535 -1.62107 0
M  V30 1979 H 183.203 4.15878 -0.187357 0
M  V30 1980 H 183.736 3.55915 -1.77678 0
M  V30 1981 H 180.475 4.73311 -4.53495 0
M  V30 1982 H 179.995 5.24924 -2.90198 0
M  V30 1983 H 181.674 5.47133 -3.45332 0
M  V30 1984 N 181.806 0.884767 1.30421 0
M  V30 1985 C 182.736 0.367574 2.30589 0
M  V30 1986 C 183.717 -0.549464 1.60981 0
M  V30 1987 O 184.902 -0.46336 1.88591 0
M  V30 1988 C 182.032 -0.418944 3.44764 0
M  V30 1989 C 180.986 0.406316 4.26067 0
M  V30 1990 C 180.312 -0.506793 5.32293 0
M  V30 1991 C 181.612 1.64832 4.95608 0
M  V30 1992 H 183.306 1.20462 2.74097 0
M  V30 1993 H 180.852 0.580695 1.31772 0
M  V30 1994 H 182.805 -0.791395 4.13902 0
M  V30 1995 H 181.529 -1.28964 3.0006 0
M  V30 1996 H 180.188 0.760903 3.58617 0
M  V30 1997 H 179.836 -1.37519 4.83836 0
M  V30 1998 H 179.536 0.0415828 5.87585 0
M  V30 1999 H 181.06 -0.875764 6.04287 0
M  V30 2000 H 182.474 1.34646 5.57264 0
M  V30 2001 H 180.871 2.13688 5.60765 0
M  V30 2002 H 181.941 2.39284 4.21748 0
M  V30 2003 N 183.284 -1.43765 0.645699 0
M  V30 2004 C 184.561 -1.9541 0.0862963 0
M  V30 2005 C 184.941 -1.58725 -1.39175 0
M  V30 2006 O 184.289 -0.868581 -2.11348 0
M  V30 2007 C 184.499 -3.47488 0.324565 0
M  V30 2008 C 185.847 -4.24001 0.225497 0
M  V30 2009 O 186.871 -3.55274 0.256715 0
M  V30 2010 O 185.73 -5.46313 0.142801 0
M  V30 2011 H 182.824 -0.826882 -0.0139483 0
M  V30 2012 H 185.37 -1.53743 0.718415 0
M  V30 2013 H 184.142 -3.67289 1.3496 0
M  V30 2014 H 183.765 -3.96135 -0.340987 0
M  V30 2015 N 184.763 -0.387143 -1.52771 0
M  V30 2016 C 185.711 0.463953 -2.27926 0
M  V30 2017 C 186.705 1.06493 -1.31741 0
M  V30 2018 O 187.911 1.00565 -1.49287 0
M  V30 2019 H 184.286 0.16837 -0.732909 0
M  V30 2020 H 186.257 -0.19141 -2.97785 0
M  V30 2021 C 185.006 1.5803 -3.09713 0
M  V30 2022 H 184.329 1.12718 -3.83581 0
M  V30 2023 H 185.769 2.15008 -3.65442 0
M  V30 2024 C 184.228 2.53509 -2.2189 0
M  V30 2025 O 184.758 3.56863 -1.84422 0
M  V30 2026 N 182.964 2.23199 -1.86093 0
M  V30 2027 H 182.511 1.39185 -2.16761 0
M  V30 2028 H 182.469 2.87333 -1.27621 0
M  V30 2029 N 186.241 1.57166 -0.116904 0
M  V30 2030 C 187.204 2.14039 0.819742 0
M  V30 2031 C 188.204 1.07477 1.19605 0
M  V30 2032 O 189.394 1.33263 1.1219 0
M  V30 2033 C 186.526 2.67891 2.10826 0
M  V30 2034 H 187.719 2.98128 0.325511 0
M  V30 2035 H 185.272 1.55739 0.132312 0
M  V30 2036 H 186.007 1.87384 2.64685 0
M  V30 2037 H 185.792 3.45823 1.84793 0
M  V30 2038 H 187.282 3.11809 2.77785 0
M  V30 2039 N 187.719 -0.156864 1.56817 0
M  V30 2040 C 188.669 -1.19891 1.93934 0
M  V30 2041 C 189.653 -1.39061 0.809372 0
M  V30 2042 O 190.845 -1.40789 1.07273 0
M  V30 2043 C 187.974 -2.53493 2.31508 0
M  V30 2044 C 187.06 -2.37957 3.51052 0
M  V30 2045 N 187.451 -1.92158 4.67877 0
M  V30 2046 C 185.749 -2.68739 3.55943 0
M  V30 2047 C 186.45 -1.8943 5.49992 0
M  V30 2048 N 185.426 -2.32375 4.91429 0
M  V30 2049 H 189.228 -0.836746 2.81737 0
M  V30 2050 H 186.742 -0.365012 1.58245 0
M  V30 2051 H 188.739 -3.28811 2.56299 0
M  V30 2052 H 187.399 -2.905 1.45051 0
M  V30 2053 H 188.41 -1.62274 4.91821 0
M  V30 2054 H 185.087 -3.09687 2.80001 0
M  V30 2055 H 186.477 -1.55596 6.53636 0
M  V30 2056 N 189.197 -1.51736 -0.425897 0
M  V30 2057 C 190.127 -1.76827 -1.52494 0
M  V30 2058 C 191.108 -0.618524 -1.58456 0
M  V30 2059 O 192.293 -0.862416 -1.74 0
M  V30 2060 C 189.423 -1.90374 -2.90474 0
M  V30 2061 C 188.377 -3.0588 -2.99369 0
M  V30 2062 C 187.703 -3.04625 -4.3944 0
M  V30 2063 C 189.003 -4.45644 -2.72394 0
M  V30 2064 H 190.697 -2.68855 -1.31748 0
M  V30 2065 H 188.243 -1.29372 -0.632362 0
M  V30 2066 H 190.196 -2.0651 -3.6733 0
M  V30 2067 H 188.92 -0.95004 -3.12477 0
M  V30 2068 H 187.579 -2.89467 -2.24954 0
M  V30 2069 H 187.227 -2.0701 -4.58428 0
M  V30 2070 H 186.927 -3.82195 -4.46319 0
M  V30 2071 H 188.451 -3.22869 -5.18255 0
M  V30 2072 H 189.865 -4.62348 -3.38979 0
M  V30 2073 H 188.262 -5.25006 -2.9067 0
M  V30 2074 H 189.332 -4.54893 -1.67929 0
M  V30 2075 N 190.675 0.682077 -1.42076 0
M  V30 2076 C 191.924 1.43786 -1.41451 0
M  V30 2077 C 192.237 1.95574 -0.0317074 0
M  V30 2078 O 193.443 2.71326 0.0971462 0
M  V30 2079 C 191.899 2.60071 -2.48779 0
M  V30 2080 C 191.507 2.15013 -3.93031 0
M  V30 2081 C 193.251 3.37626 -2.57311 0
M  V30 2082 C 191.158 3.28336 -4.91883 0
M  V30 2083 H 190.088 0.540143 -0.526082 0
M  V30 2084 H 192.739 0.739157 -1.67955 0
M  V30 2085 H 191.121 3.32275 -2.15429 0
M  V30 2086 H 192.295 1.5001 -4.35699 0
M  V30 2087 H 190.61 1.50416 -3.88284 0
M  V30 2088 H 193.207 4.22012 -3.28345 0
M  V30 2089 H 193.55 3.83727 -1.61429 0
M  V30 2090 H 194.083 2.72488 -2.89819 0
M  V30 2091 H 190.822 2.87234 -5.89217 0
M  V30 2092 H 190.342 3.92145 -4.53853 0
M  V30 2093 H 192.021 3.93913 -5.13265 0
M  V30 2094 N 192.153 1.28127 0.917671 0
M  V30 2095 C 193.399 1.15223 1.66888 0
M  V30 2096 C 193.732 -0.299293 1.9188 0
M  V30 2097 O 193.007 -1.21805 1.51637 0
M  V30 2098 C 193.29 1.94706 3.02922 0
M  V30 2099 C 193.143 3.47898 2.85109 0
M  V30 2100 C 194.462 1.75939 4.03402 0
M  V30 2101 H 191.581 0.419946 0.605652 0
M  V30 2102 H 194.223 1.57398 1.06423 0
M  V30 2103 H 192.373 1.58864 3.54534 0
M  V30 2104 H 194.045 3.93624 2.40537 0
M  V30 2105 H 192.288 3.7373 2.20246 0
M  V30 2106 H 192.959 3.98765 3.81694 0
M  V30 2107 H 195.435 2.07209 3.60837 0
M  V30 2108 H 194.311 2.33931 4.96556 0
M  V30 2109 H 194.572 0.709877 4.36364 0
M  V30 2110 N 193.631 -1.12557 1.10312 0
M  V30 2111 C 194.871 -1.8568 0.854543 0
M  V30 2112 C 195.235 -1.82091 -0.608843 0
M  V30 2113 O 196.436 -2.50544 -0.973717 0
M  V30 2114 C 194.707 -3.2942 1.38626 0
M  V30 2115 S 196.266 -4.19931 1.27293 0
M  V30 2116 H 193.084 -0.640427 0.308827 0
M  V30 2117 H 195.686 -1.35599 1.40831 0
M  V30 2118 H 194.39 -3.2959 2.44537 0
M  V30 2119 H 193.921 -3.84566 0.82902 0
M  V30 2120 H 195.936 -4.95668 0.229776 0
M  V30 2121 N 195.109 -0.891671 -1.2995 0
M  V30 2122 C 196.525 -0.58662 -1.48428 0
M  V30 2123 C 196.725 0.873951 -1.81561 0
M  V30 2124 O 195.781 1.65471 -1.90724 0
M  V30 2125 C 197.094 -1.50553 -2.60296 0
M  V30 2126 C 198.642 -1.50988 -2.74175 0
M  V30 2127 C 199.117 -2.41488 -3.89163 0
M  V30 2128 N 200.608 -2.39489 -3.96483 0
M  V30 2129 C 201.343 -3.06223 -4.84784 0
M  V30 2130 N 200.839 -3.82206 -5.77833 0
M  V30 2131 N 202.632 -2.95421 -4.78208 0
M  V30 2132 H 194.783 -1.83644 -1.06718 0
M  V30 2133 H 197.046 -0.786455 -0.529332 0
M  V30 2134 H 196.752 -2.54581 -2.42654 0
M  V30 2135 H 196.626 -1.22008 -3.56923 0
M  V30 2136 H 199.013 -0.47708 -2.91218 0
M  V30 2137 H 199.094 -1.83567 -1.78148 0
M  V30 2138 H 198.738 -3.44857 -3.72876 0
M  V30 2139 H 198.668 -2.06222 -4.84541 0
M  V30 2140 H 201.159 -1.84278 -3.29924 0
M  V30 2141 H 201.472 -4.302 -6.41988 0
M  V30 2142 H 199.817 -3.86313 -5.77743 0
M  V30 2143 H 203.008 -2.35581 -4.04499 0
M  V30 2144 H 203.181 -3.47704 -5.46814 0
M  V30 2145 N 196.587 1.43421 -0.653314 0
M  V30 2146 C 198.003 1.56341 -0.320886 0
M  V30 2147 C 198.203 1.63696 1.17499 0
M  V30 2148 O 197.259 1.59208 1.95982 0
M  V30 2149 C 198.572 2.82424 -1.03233 0
M  V30 2150 C 200.12 2.96168 -1.01259 0
M  V30 2151 C 200.595 4.25084 -1.70492 0
M  V30 2152 N 202.086 4.31948 -1.67257 0
M  V30 2153 C 202.821 5.30466 -2.17701 0
M  V30 2154 N 202.317 6.35261 -2.76434 0
M  V30 2155 N 204.11 5.2212 -2.082 0
M  V30 2156 H 196.261 1.3689 -1.62403 0
M  V30 2157 H 198.524 0.657455 -0.682977 0
M  V30 2158 H 198.23 2.83053 -2.08744 0
M  V30 2159 H 198.104 3.72653 -0.583948 0
M  V30 2160 H 200.491 2.9508 0.0341235 0
M  V30 2161 H 200.572 2.07229 -1.49966 0
M  V30 2162 H 200.216 4.26932 -2.7512 0
M  V30 2163 H 200.146 5.1292 -1.19251 0
M  V30 2164 H 202.637 3.56838 -1.24398 0
M  V30 2165 H 202.95 7.06754 -3.12601 0
M  V30 2166 H 201.295 6.35884 -2.80495 0
M  V30 2167 H 204.486 4.39166 -1.62021 0
M  V30 2168 H 204.659 5.98739 -2.47822 0
M  V30 2169 N 198.065 0.39524 1.52563 0
M  V30 2170 C 199.476 -0.0774719 1.86539 0
M  V30 2171 C 199.827 -1.45641 1.31466 0
M  V30 2172 O 198.952 -2.06459 0.648367 0
M  V30 2173 C 199.547 -0.147356 3.38479 0
M  V30 2174 C 198.106 -0.564373 3.72145 0
M  V30 2175 C 197.253 0.269919 2.75983 0
M  V30 2176 H 200.204 0.612876 1.46388 0
M  V30 2177 H 200.225 -0.965343 3.68051 0
M  V30 2178 H 199.737 0.856387 3.78534 0
M  V30 2179 H 197.838 -1.57527 3.37663 0
M  V30 2180 H 197.951 -0.318402 4.78041 0
M  V30 2181 H 196.315 -0.265696 2.5331 0
M  V30 2182 H 197.098 1.27175 3.18875 0
M  V30 2183 N 199.544 -1.57102 0.125237 0
M  V30 2184 C 200.792 -1.95021 -0.530198 0
M  V30 2185 C 201.113 -1.00982 -1.66816 0
M  V30 2186 O 200.383 -0.0672693 -1.95784 0
M  V30 2187 H 198.963 -0.720046 -0.198853 0
M  V30 2188 H 201.625 -1.93916 0.19564 0
M  V30 2189 H 200.721 -2.98211 -0.920681 0
M  V30 2190 N 201.022 0.148545 -1.56898 0
M  V30 2191 C 202.252 0.875118 -1.8715 0
M  V30 2192 C 202.66 1.75322 -0.711262 0
M  V30 2193 O 202.003 1.80745 0.328151 0
M  V30 2194 C 202.065 1.7844 -3.12089 0
M  V30 2195 C 201.729 1.08361 -4.43967 0
M  V30 2196 C 202.726 0.438247 -5.1805 0
M  V30 2197 C 200.411 1.07358 -4.90693 0
M  V30 2198 C 202.405 -0.20779 -6.37061 0
M  V30 2199 C 200.092 0.42373 -6.09629 0
M  V30 2200 C 201.09 -0.215829 -6.82659 0
M  V30 2201 O 200.778 -0.855378 -7.99336 0
M  V30 2202 H 200.51 0.258504 -0.624621 0
M  V30 2203 H 203.064 0.14652 -2.04877 0
M  V30 2204 H 201.294 2.55389 -2.90367 0
M  V30 2205 H 202.983 2.38279 -3.286 0
M  V30 2206 H 203.749 0.437817 -4.8302 0
M  V30 2207 H 199.628 1.5608 -4.33774 0
M  V30 2208 H 203.172 -0.70758 -6.94002 0
M  V30 2209 H 199.069 0.421822 -6.4412 0
M  V30 2210 H 199.837 -0.756892 -8.14993 0
M  V30 2211 N 202.5 1.5196 0.417844 0
M  V30 2212 C 203.911 1.57851 0.997 0
M  V30 2213 C 204.262 0.413714 1.91789 0
M  V30 2214 O 203.387 -0.467057 2.113 0
M  V30 2215 C 203.982 2.86085 1.81496 0
M  V30 2216 C 202.541 2.94483 2.34428 0
M  V30 2217 C 201.688 2.52707 1.14169 0
M  V30 2218 H 204.639 1.57455 0.198392 0
M  V30 2219 H 204.66 2.70947 2.67148 0
M  V30 2220 H 204.172 3.70842 1.14446 0
M  V30 2221 H 202.273 2.142 3.04875 0
M  V30 2222 H 202.386 3.98546 2.65891 0
M  V30 2223 H 200.75 2.06353 1.49301 0
M  V30 2224 H 201.533 3.39828 0.486999 0
M  V30 2225 N 203.978 -0.674533 1.42435 0
M  V30 2226 C 204.908 -1.80009 1.48724 0
M  V30 2227 C 205.889 -1.6659 0.343793 0
M  V30 2228 O 207.074 -1.86007 0.558137 0
M  V30 2229 C 204.204 -3.18306 1.38919 0
M  V30 2230 C 203.158 -3.46461 2.51294 0
M  V30 2231 C 202.484 -4.84335 2.26547 0
M  V30 2232 C 203.784 -3.43328 3.93603 0
M  V30 2233 H 205.478 -1.75004 2.42928 0
M  V30 2234 H 203.024 -0.840533 1.16923 0
M  V30 2235 H 204.977 -3.9678 1.41927 0
M  V30 2236 H 203.701 -3.2399 0.412094 0
M  V30 2237 H 202.36 -2.70348 2.47604 0
M  V30 2238 H 202.008 -4.86669 1.2713 0
M  V30 2239 H 201.708 -5.04136 3.01861 0
M  V30 2240 H 203.232 -5.65094 2.31304 0
M  V30 2241 H 204.646 -4.11772 3.98894 0
M  V30 2242 H 203.043 -3.74664 4.68771 0
M  V30 2243 H 204.113 -2.41897 4.20255 0
M  V30 2244 N 205.456 -1.28612 -0.910864 0
M  V30 2245 C 206.366 -1.14643 -2.0468 0
M  V30 2246 C 207.382 -0.0723121 -1.7385 0
M  V30 2247 O 208.558 -0.282178 -1.99413 0
M  V30 2248 C 205.623 -0.812561 -3.37044 0
M  V30 2249 C 204.684 -1.96935 -3.81465 0
M  V30 2250 C 203.917 -1.65131 -5.07511 0
M  V30 2251 O 204.14 -0.567013 -5.67575 0
M  V30 2252 O 203.074 -2.49585 -5.47714 0
M  V30 2253 H 206.9 -2.1001 -2.19384 0
M  V30 2254 H 204.485 -1.07958 -1.03274 0
M  V30 2255 H 206.367 -0.640441 -4.16505 0
M  V30 2256 H 205.042 0.111426 -3.23508 0
M  V30 2257 H 203.949 -2.19664 -3.02818 0
M  V30 2258 H 205.282 -2.87414 -3.99567 0
M  V30 2259 N 206.934 1.1197 -1.10907 0
M  V30 2260 C 207.867 2.16998 -0.706192 0
M  V30 2261 C 208.845 1.59903 0.294897 0
M  V30 2262 O 210.029 1.87513 0.192636 0
M  V30 2263 C 207.156 3.38673 -0.0427664 0
M  V30 2264 C 206.202 4.14414 -1.00811 0
M  V30 2265 S 207.035 4.72079 -2.52789 0
M  V30 2266 C 208.191 5.97083 -1.87731 0
M  V30 2267 H 208.424 2.50837 -1.59587 0
M  V30 2268 H 205.957 1.23508 -0.926555 0
M  V30 2269 H 207.915 4.09142 0.333668 0
M  V30 2270 H 206.576 3.03105 0.823788 0
M  V30 2271 H 205.769 5.016 -0.491259 0
M  V30 2272 H 205.371 3.49678 -1.3267 0
M  V30 2273 H 207.663 6.66599 -1.21044 0
M  V30 2274 H 208.606 6.53403 -2.72892 0
M  V30 2275 H 209.014 5.4837 -1.33979 0
M  V30 2276 N 208.412 0.89855 1.29475 0
M  V30 2277 C 209.375 0.380272 2.26023 0
M  V30 2278 C 210.375 -0.484891 1.53315 0
M  V30 2279 O 211.565 -0.290108 1.71767 0
M  V30 2280 C 208.697 -0.45651 3.3783 0
M  V30 2281 H 209.89 1.23295 2.73383 0
M  V30 2282 H 207.443 0.676589 1.40897 0
M  V30 2283 H 208.178 -1.32922 2.95808 0
M  V30 2284 H 207.963 0.163393 3.91759 0
M  V30 2285 H 209.453 -0.810466 4.0966 0
M  V30 2286 N 209.89 -1.43072 0.660911 0
M  V30 2287 C 210.822 -2.29108 -0.0647641 0
M  V30 2288 C 211.835 -1.42928 -0.779448 0
M  V30 2289 O 213.024 -1.66788 -0.635921 0
M  V30 2290 C 210.124 -3.20032 -1.11503 0
M  V30 2291 C 209.297 -4.34792 -0.476955 0
M  V30 2292 C 208.356 -5.06534 -1.42513 0
M  V30 2293 O 207.382 -5.61538 -0.930771 0
M  V30 2294 N 208.584 -5.1075 -2.75889 0
M  V30 2295 H 211.349 -2.92029 0.673731 0
M  V30 2296 H 208.91 -1.53846 0.50427 0
M  V30 2297 H 210.902 -3.64892 -1.75032 0
M  V30 2298 H 209.472 -2.58658 -1.75541 0
M  V30 2299 H 208.692 -3.92752 0.337572 0
M  V30 2300 H 209.98 -5.0879 -0.0318525 0
M  V30 2301 H 209.378 -4.67447 -3.18606 0
M  V30 2302 H 207.935 -5.59302 -3.347 0
M  V30 2303 N 211.368 -0.403325 -1.52352 0
M  V30 2304 C 212.779 0.0675782 -1.86578 0
M  V30 2305 C 213.13 1.44941 -1.32236 0
M  V30 2306 O 212.255 2.06112 -0.659307 0
M  V30 2307 C 212.85 0.129404 -3.38553 0
M  V30 2308 C 211.409 0.544629 -3.72439 0
M  V30 2309 C 210.556 -0.284551 -2.75836 0
M  V30 2310 H 213.507 -0.620631 -1.46061 0
M  V30 2311 H 213.528 0.94581 -3.68558 0
M  V30 2312 H 213.04 -0.87645 -3.78074 0
M  V30 2313 H 211.141 1.55734 -3.38493 0
M  V30 2314 H 211.254 0.293046 -4.78203 0
M  V30 2315 H 209.618 0.252258 -2.53448 0
M  V30 2316 H 210.401 -1.28865 -3.18196 0
M  V30 2317 N 212.846 1.57033 -0.133567 0
M  V30 2318 C 213.778 2.13176 0.841944 0
M  V30 2319 C 214.791 1.07794 1.22001 0
M  V30 2320 O 215.98 1.35117 1.16643 0
M  V30 2321 C 213.08 2.62847 2.13926 0
M  V30 2322 C 212.253 3.92486 1.93064 0
M  V30 2323 C 211.312 4.27605 3.0666 0
M  V30 2324 O 210.338 4.96168 2.78937 0
M  V30 2325 N 211.54 3.861 4.33483 0
M  V30 2326 H 214.305 2.97503 0.362192 0
M  V30 2327 H 211.866 1.61821 0.05042 0
M  V30 2328 H 213.858 2.83363 2.88942 0
M  V30 2329 H 212.428 1.83319 2.53205 0
M  V30 2330 H 211.648 3.80732 1.02159 0
M  V30 2331 H 212.936 4.77225 1.76447 0
M  V30 2332 H 212.334 3.30828 4.58878 0
M  V30 2333 H 210.891 4.11694 5.05323 0
M  V30 2334 N 214.325 -0.140222 1.56975 0
M  V30 2335 C 215.555 -0.865181 1.87612 0
M  V30 2336 C 215.963 -1.74942 0.72055 0
M  V30 2337 O 215.306 -1.80917 -0.318561 0
M  V30 2338 C 215.368 -1.76782 3.13031 0
M  V30 2339 C 215.032 -1.06005 4.44536 0
M  V30 2340 C 216.029 -0.410768 5.18275 0
M  V30 2341 C 213.714 -1.04754 4.91255 0
M  V30 2342 C 215.708 0.241572 6.36942 0
M  V30 2343 C 213.395 -0.391394 6.09845 0
M  V30 2344 C 214.393 0.252029 6.82535 0
M  V30 2345 O 214.081 0.897757 7.98871 0
M  V30 2346 H 213.813 -0.255188 0.625983 0
M  V30 2347 H 216.367 -0.135653 2.04952 0
M  V30 2348 H 214.597 -2.53846 2.91718 0
M  V30 2349 H 216.286 -2.36533 3.29859 0
M  V30 2350 H 217.052 -0.412195 4.83245 0
M  V30 2351 H 212.931 -1.53777 4.34596 0
M  V30 2352 H 216.475 0.744375 6.93617 0
M  V30 2353 H 212.372 -0.387656 6.44335 0
M  V30 2354 H 213.14 0.800102 8.1458 0
M  V30 2355 N 215.803 -1.52179 -0.40978 0
M  V30 2356 C 216.735 -1.71703 -1.51825 0
M  V30 2357 C 217.748 -0.597445 -1.51441 0
M  V30 2358 O 218.937 -0.872582 -1.55719 0
M  V30 2359 C 216.037 -1.74171 -2.90719 0
M  V30 2360 C 215.21 -3.03156 -3.15302 0
M  V30 2361 C 214.269 -2.97445 -4.34065 0
M  V30 2362 O 213.295 -3.71352 -4.31377 0
M  V30 2363 N 214.497 -2.15191 -5.39141 0
M  V30 2364 H 217.262 -2.67334 -1.35472 0
M  V30 2365 H 214.823 -1.50409 -0.599069 0
M  V30 2366 H 216.815 -1.67884 -3.68235 0
M  V30 2367 H 215.385 -0.860166 -3.00533 0
M  V30 2368 H 214.605 -3.23097 -2.25836 0
M  V30 2369 H 215.893 -3.88484 -3.28569 0
M  V30 2370 H 215.291 -1.54573 -5.44173 0
M  V30 2371 H 213.848 -2.1476 -6.15403 0
M  V30 2372 N 217.281 0.66697 -1.42791 0
M  V30 2373 C 218.213 1.7925 -1.42836 0
M  V30 2374 C 219.226 1.59496 -0.326333 0
M  V30 2375 O 220.415 1.6847 -0.589916 0
M  V30 2376 C 217.515 3.16476 -1.21229 0
M  V30 2377 C 216.688 3.63011 -2.44013 0
M  V30 2378 C 215.747 4.78993 -2.17834 0
M  V30 2379 O 214.773 4.89137 -2.91091 0
M  V30 2380 N 215.975 5.68248 -1.18635 0
M  V30 2381 H 218.74 1.79695 -2.39854 0
M  V30 2382 H 216.301 0.850338 -1.37771 0
M  V30 2383 H 218.293 3.91734 -1.01621 0
M  V30 2384 H 216.863 3.10884 -0.32706 0
M  V30 2385 H 216.083 2.78346 -2.79137 0
M  V30 2386 H 217.371 3.90845 -3.25757 0
M  V30 2387 H 216.769 5.62712 -0.580615 0
M  V30 2388 H 215.326 6.43285 -1.05013 0
M  V30 2389 N 218.759 1.29093 0.90403 0
M  V30 2390 C 220.005 1.17996 1.65676 0
M  V30 2391 C 220.36 -0.266816 1.90541 0
M  V30 2392 O 219.653 -1.19 1.50165 0
M  V30 2393 C 219.847 1.92224 3.01305 0
M  V30 2394 C 219.676 3.43972 2.89678 0
M  V30 2395 C 218.446 4.1332 2.90679 0
M  V30 2396 C 220.644 4.39546 2.67028 0
M  V30 2397 N 218.626 5.51463 2.69743 0
M  V30 2398 C 219.997 5.65119 2.5503 0
M  V30 2399 C 222.052 4.29359 2.52101 0
M  V30 2400 C 220.755 6.81663 2.29626 0
M  V30 2401 C 222.781 5.4565 2.28079 0
M  V30 2402 C 222.143 6.70193 2.16843 0
M  V30 2403 H 218.242 0.486759 0.612037 0
M  V30 2404 H 220.826 1.62868 1.06688 0
M  V30 2405 H 218.997 1.49773 3.58361 0
M  V30 2406 H 220.729 1.73429 3.65656 0
M  V30 2407 H 217.484 3.64984 3.01801 0
M  V30 2408 H 217.908 6.24105 2.6234 0
M  V30 2409 H 222.55 3.33769 2.59534 0
M  V30 2410 H 220.268 7.77313 2.20932 0
M  V30 2411 H 223.854 5.39664 2.1738 0
M  V30 2412 H 222.734 7.58659 1.98511 0
M  V30 2413 N 220.237 -1.11381 1.11499 0
M  V30 2414 C 221.167 -2.19509 0.796125 0
M  V30 2415 C 222.148 -1.68458 -0.235796 0
M  V30 2416 O 223.333 -1.93947 -0.0991344 0
M  V30 2417 C 220.463 -3.46475 0.239205 0
M  V30 2418 C 219.417 -4.10744 1.20307 0
M  V30 2419 C 218.743 -5.32293 0.50683 0
M  V30 2420 C 220.043 -4.55597 2.55399 0
M  V30 2421 H 221.737 -2.46439 1.70024 0
M  V30 2422 H 219.283 -1.18446 0.818935 0
M  V30 2423 H 221.236 -4.214 0.00392006 0
M  V30 2424 H 219.96 -3.19006 -0.700206 0
M  V30 2425 H 218.619 -3.37813 1.42399 0
M  V30 2426 H 218.267 -5.01095 -0.437408 0
M  V30 2427 H 217.967 -5.76243 1.1497 0
M  V30 2428 H 219.491 -6.09956 0.280351 0
M  V30 2429 H 220.905 -5.21841 2.37391 0
M  V30 2430 H 219.302 -5.10363 3.15673 0
M  V30 2431 H 220.372 -3.69013 3.14575 0
M  V30 2432 N 221.715 -0.905404 -1.28997 0
M  V30 2433 C 222.625 -0.392246 -2.31298 0
M  V30 2434 C 223.641 0.515889 -1.66176 0
M  V30 2435 O 224.817 0.404093 -1.97304 0
M  V30 2436 C 221.882 0.36686 -3.44754 0
M  V30 2437 C 220.943 -0.573485 -4.25452 0
M  V30 2438 C 220.176 0.149488 -5.33491 0
M  V30 2439 O 220.399 1.37255 -5.5364 0
M  V30 2440 O 219.333 -0.510919 -5.99728 0
M  V30 2441 H 223.159 -1.2411 -2.77183 0
M  V30 2442 H 220.744 -0.669926 -1.33538 0
M  V30 2443 H 222.626 0.795907 -4.13816 0
M  V30 2444 H 221.301 1.19169 -3.00966 0
M  V30 2445 H 220.208 -1.05176 -3.59011 0
M  V30 2446 H 221.541 -1.36489 -4.72897 0
M  V30 2447 N 223.193 1.4272 -0.668489 0
M  V30 2448 C 224.47 1.95248 -0.117373 0
M  V30 2449 C 224.85 1.60919 1.36632 0
M  V30 2450 O 224.198 0.902095 2.09939 0
M  V30 2451 C 224.408 3.46927 -0.379806 0
M  V30 2452 C 225.756 4.23588 -0.292923 0
M  V30 2453 O 226.78 3.5482 -0.313204 0
M  V30 2454 O 225.639 5.46017 -0.229697 0
M  V30 2455 H 222.733 0.827 0.00079152 0
M  V30 2456 H 225.279 1.52581 -0.742783 0
M  V30 2457 H 224.051 3.65096 -1.40786 0
M  V30 2458 H 223.674 3.96627 0.277923 0
M  V30 2459 N 224.671 0.411399 1.52136 0
M  V30 2460 C 225.621 -0.430376 2.23901 0
M  V30 2461 C 226.605 -1.0116 1.25121 0
M  V30 2462 O 227.797 -0.934044 1.50348 0
M  V30 2463 C 224.926 -1.54527 3.06556 0
M  V30 2464 C 224.012 -0.9747 4.12747 0
M  V30 2465 N 224.403 -0.130991 5.0563 0
M  V30 2466 C 222.701 -1.24497 4.28271 0
M  V30 2467 C 223.402 0.186689 5.814 0
M  V30 2468 N 222.378 -0.42304 5.41951 0
M  V30 2469 H 226.18 0.220509 2.93072 0
M  V30 2470 H 223.694 0.221952 1.60876 0
M  V30 2471 H 225.691 -2.16093 3.56524 0
M  V30 2472 H 224.351 -2.19875 2.38925 0
M  V30 2473 H 225.362 0.23349 5.17373 0
M  V30 2474 H 222.039 -1.89787 3.7187 0
M  V30 2475 H 223.429 0.871673 6.66222 0
M  V30 2476 N 226.149 -1.5696 0.141893 0
M  V30 2477 C 227.079 -2.19516 -0.795936 0
M  V30 2478 C 228.06 -1.14187 -1.26077 0
M  V30 2479 O 229.245 -1.42511 -1.31925 0
M  V30 2480 C 226.375 -2.81272 -2.03723 0
M  V30 2481 C 225.329 -3.92384 -1.70936 0
M  V30 2482 C 224.655 -4.41052 -3.02287 0
M  V30 2483 C 225.955 -5.13403 -0.959954 0
M  V30 2484 H 227.649 -2.98138 -0.274596 0
M  V30 2485 H 225.195 -1.43406 -0.130636 0
M  V30 2486 H 227.148 -3.237 -2.69808 0
M  V30 2487 H 225.872 -1.99973 -2.58221 0
M  V30 2488 H 224.531 -3.50566 -1.07232 0
M  V30 2489 H 224.179 -3.56582 -3.54765 0
M  V30 2490 H 223.879 -5.15993 -2.81114 0
M  V30 2491 H 225.403 -4.86146 -3.69451 0
M  V30 2492 H 226.817 -5.52706 -1.52279 0
M  V30 2493 H 225.214 -5.94073 -0.848357 0
M  V30 2494 H 226.284 -4.84875 0.0492434 0
M  V30 2495 N 227.627 0.131896 -1.57047 0
M  V30 2496 C 228.855 0.856461 -1.88341 0
M  V30 2497 C 229.27 1.74042 -0.731757 0
M  V30 2498 O 228.627 1.80051 0.297945 0
M  V30 2499 C 228.678 1.70064 -3.18999 0
M  V30 2500 O 228.399 0.852278 -4.2973 0
M  V30 2501 C 229.9 2.53148 -3.63911 0
M  V30 2502 H 227.12 0.246885 -0.62393 0
M  V30 2503 H 229.664 0.120152 -2.04147 0
M  V30 2504 H 227.819 2.38984 -3.04902 0
M  V30 2505 H 228.233 1.43329 -5.04537 0
M  V30 2506 H 229.707 3.07931 -4.58129 0
M  V30 2507 H 230.184 3.29901 -2.89935 0
M  V30 2508 H 230.79 1.89492 -3.80753 0
M  V30 2509 N 229.106 1.52395 0.401703 0
M  V30 2510 C 230.056 1.72649 1.48917 0
M  V30 2511 C 231.04 0.580436 1.50066 0
M  V30 2512 O 232.232 0.83779 1.55917 0
M  V30 2513 C 229.361 1.88729 2.86769 0
M  V30 2514 C 228.447 3.09228 2.90239 0
M  V30 2515 N 228.838 4.31805 2.63396 0
M  V30 2516 C 227.136 3.09214 3.21408 0
M  V30 2517 C 227.837 5.13326 2.73625 0
M  V30 2518 N 226.813 4.48735 3.06819 0
M  V30 2519 H 230.615 2.65058 1.26971 0
M  V30 2520 H 228.129 1.50528 0.609504 0
M  V30 2521 H 230.126 2.01358 3.65049 0
M  V30 2522 H 228.786 0.975252 3.09708 0
M  V30 2523 H 229.797 4.60154 2.37653 0
M  V30 2524 H 226.474 2.27774 3.49893 0
M  V30 2525 H 227.864 6.21003 2.56524 0
M  V30 2526 N 230.584 -0.659388 1.43143 0
M  V30 2527 C 231.532 -1.79374 1.4808 0
M  V30 2528 C 232.526 -1.65639 0.354988 0
M  V30 2529 O 233.732 -1.7206 0.528704 0
M  V30 2530 H 230.107 -0.591705 0.4641 0
M  V30 2531 H 232.078 -1.72329 2.43609 0
M  V30 2532 C 230.827 -3.17606 1.41499 0
M  V30 2533 H 230.15 -3.28809 2.27431 0
M  V30 2534 H 231.59 -3.96951 1.49015 0
M  V30 2535 C 230.049 -3.36642 0.131765 0
M  V30 2536 O 230.579 -3.93461 -0.809386 0
M  V30 2537 N 228.785 -2.90567 0.0439396 0
M  V30 2538 H 228.332 -2.44513 0.810619 0
M  V30 2539 H 228.29 -3.03681 -0.813969 0
M  V30 2540 N 232.062 -1.29571 -0.897171 0
M  V30 2541 C 233.473 -1.15964 -1.46319 0
M  V30 2542 C 233.824 0.244267 -1.94674 0
M  V30 2543 O 232.949 1.13998 -1.83939 0
M  V30 2544 C 233.544 -2.09906 -2.65942 0
M  V30 2545 C 232.103 -2.00314 -3.18671 0
M  V30 2546 C 231.25 -2.00687 -1.91363 0
M  V30 2547 H 234.201 -1.42019 -0.708268 0
M  V30 2548 H 234.222 -1.67276 -3.41759 0
M  V30 2549 H 233.734 -3.12075 -2.30718 0
M  V30 2550 H 231.835 -1.01242 -3.58582 0
M  V30 2551 H 231.948 -2.88102 -3.82798 0
M  V30 2552 H 230.312 -1.45319 -2.09175 0
M  V30 2553 H 231.095 -3.04566 -1.58413 0
M  V30 2554 N 233.54 1.10788 -1.12088 0
M  V30 2555 C 234.45 2.20599 -0.798338 0
M  V30 2556 C 235.466 1.72712 0.21135 0
M  V30 2557 O 236.642 2.01348 0.0458477 0
M  V30 2558 C 233.707 3.45771 -0.253674 0
M  V30 2559 C 232.768 4.08411 -1.32283 0
M  V30 2560 C 232.001 5.27608 -0.80406 0
M  V30 2561 O 232.224 5.69241 0.363478 0
M  V30 2562 O 231.158 5.8101 -1.57198 0
M  V30 2563 H 234.984 2.50614 -1.7154 0
M  V30 2564 H 232.569 1.19454 -0.897275 0
M  V30 2565 H 234.451 4.21376 0.0453691 0
M  V30 2566 H 233.126 3.1739 0.636005 0
M  V30 2567 H 232.033 3.34507 -1.67499 0
M  V30 2568 H 233.366 4.40986 -2.18614 0
M  V30 2569 N 235.018 0.912232 1.28515 0
M  V30 2570 C 236.295 0.463597 1.90027 0
M  V30 2571 C 236.675 -1.05753 1.82701 0
M  V30 2572 O 236.023 -1.90492 1.26194 0
M  V30 2573 C 236.233 0.992253 3.34597 0
M  V30 2574 C 237.581 1.04344 4.11579 0
M  V30 2575 O 238.605 0.94079 3.43551 0
M  V30 2576 O 237.464 1.1995 5.33174 0
M  V30 2577 H 234.558 0.146666 0.813891 0
M  V30 2578 H 237.104 1.00292 1.36893 0
M  V30 2579 H 235.876 2.03623 3.34146 0
M  V30 2580 H 235.499 0.433672 3.95228 0
M  V30 2581 N 236.496 -1.42363 0.676048 0
M  V30 2582 C 237.426 -2.33497 0.0124832 0
M  V30 2583 C 238.407 -1.50748 -0.787981 0
M  V30 2584 O 239.592 -1.79346 -0.744884 0
M  V30 2585 C 236.722 -3.34377 -0.938582 0
M  V30 2586 C 235.676 -4.27289 -0.246622 0
M  V30 2587 C 235.002 -5.18386 -1.31071 0
M  V30 2588 C 236.302 -5.14916 0.875125 0
M  V30 2589 H 237.996 -2.89233 0.773593 0
M  V30 2590 H 235.542 -1.39073 0.37346 0
M  V30 2591 H 237.495 -3.97044 -1.41188 0
M  V30 2592 H 236.219 -2.76947 -1.73113 0
M  V30 2593 H 234.878 -3.66018 0.206456 0
M  V30 2594 H 234.526 -4.57282 -2.09528 0
M  V30 2595 H 234.226 -5.81378 -0.852839 0
M  V30 2596 H 235.75 -5.83929 -1.78492 0
M  V30 2597 H 237.164 -5.71262 0.482983 0
M  V30 2598 H 235.561 -5.86747 1.25887 0
M  V30 2599 H 236.631 -4.53242 1.72335 0
M  V30 2600 N 237.974 -0.419461 -1.51915 0
M  V30 2601 C 238.924 0.418496 -2.24126 0
M  V30 2602 C 239.908 1.00495 -1.25656 0
M  V30 2603 O 241.1 0.926058 -1.50842 0
M  V30 2604 C 238.229 1.52899 -3.07371 0
M  V30 2605 C 237.315 0.952797 -4.13258 0
M  V30 2606 N 237.706 0.104175 -5.05693 0
M  V30 2607 C 236.004 1.22224 -4.28926 0
M  V30 2608 C 236.705 -0.21752 -5.81293 0
M  V30 2609 N 235.681 0.394293 -5.42168 0
M  V30 2610 H 239.483 -0.236048 -2.92951 0
M  V30 2611 H 236.997 -0.230481 -1.60756 0
M  V30 2612 H 238.994 2.14199 -3.57665 0
M  V30 2613 H 237.654 2.18605 -2.40088 0
M  V30 2614 H 238.665 -0.260924 -5.17242 0
M  V30 2615 H 235.342 1.87812 -3.72871 0
M  V30 2616 H 236.732 -0.906992 -6.6575 0
M  V30 2617 N 239.452 1.56882 -0.150215 0
M  V30 2618 C 240.382 2.19935 0.784284 0
M  V30 2619 C 241.363 1.14854 1.25469 0
M  V30 2620 O 242.548 1.43209 1.31168 0
M  V30 2621 C 239.678 2.82349 2.02229 0
M  V30 2622 C 238.632 3.93285 1.68853 0
M  V30 2623 C 237.958 4.42649 2.99944 0
M  V30 2624 C 239.258 5.13904 0.932714 0
M  V30 2625 H 240.952 2.9828 0.258781 0
M  V30 2626 H 238.498 1.43473 0.123029 0
M  V30 2627 H 240.451 3.25126 2.68088 0
M  V30 2628 H 239.175 2.0134 2.57157 0
M  V30 2629 H 237.834 3.5113 1.05371 0
M  V30 2630 H 237.482 3.58458 3.52869 0
M  V30 2631 H 237.182 5.17476 2.78374 0
M  V30 2632 H 238.706 4.88099 3.66868 0
M  V30 2633 H 240.12 5.53506 1.49345 0
M  V30 2634 H 238.517 5.94515 0.81684 0
M  V30 2635 H 239.587 4.84842 -0.0749568 0
M  V30 2636 N 240.93 -0.123565 1.57115 0
M  V30 2637 C 241.862 -1.17739 1.96648 0
M  V30 2638 C 242.875 -1.37906 0.865201 0
M  V30 2639 O 244.064 -1.37062 1.14351 0
M  V30 2640 C 241.164 -2.53821 2.24562 0
M  V30 2641 C 240.337 -2.54317 3.55867 0
M  V30 2642 C 239.396 -3.72112 3.72047 0
M  V30 2643 O 238.422 -3.55907 4.44206 0
M  V30 2644 N 239.624 -4.90498 3.10471 0
M  V30 2645 H 242.389 -0.841147 2.87654 0
M  V30 2646 H 239.95 -0.31289 1.58848 0
M  V30 2647 H 241.942 -3.31175 2.32606 0
M  V30 2648 H 240.512 -2.79645 1.39705 0
M  V30 2649 H 239.732 -1.62711 3.59053 0
M  V30 2650 H 241.02 -2.51701 4.42181 0
M  V30 2651 H 240.418 -5.06567 2.51806 0
M  V30 2652 H 238.975 -5.65544 3.24043 0
M  V30 2653 N 242.408 -1.52605 -0.393616 0
M  V30 2654 C 243.819 -1.59417 -0.971761 0
M  V30 2655 C 244.17 -0.444173 -1.91106 0
M  V30 2656 O 243.295 0.433382 -2.12016 0
M  V30 2657 C 243.89 -2.88936 -1.76921 0
M  V30 2658 C 242.449 -2.98175 -2.29714 0
M  V30 2659 C 241.596 -2.54491 -1.10135 0
M  V30 2660 H 244.547 -1.57751 -0.173317 0
M  V30 2661 H 244.568 -2.75163 -2.62804 0
M  V30 2662 H 244.08 -3.72616 -1.08532 0
M  V30 2663 H 242.181 -2.19024 -3.01429 0
M  V30 2664 H 242.294 -4.02726 -2.59517 0
M  V30 2665 H 240.658 -2.08702 -1.45999 0
M  V30 2666 H 241.441 -3.4056 -0.432874 0
M  V30 2667 N 243.887 0.651787 -1.4349 0
M  V30 2668 C 244.85 1.74647 -1.48429 0
M  V30 2669 C 245.85 1.56513 -0.368817 0
M  V30 2670 O 247.04 1.62385 -0.630623 0
M  V30 2671 C 244.172 3.13533 -1.33827 0
M  V30 2672 H 245.365 1.71649 -2.4592 0
M  V30 2673 H 242.918 0.863573 -1.30277 0
M  V30 2674 H 243.653 3.22142 -0.37349 0
M  V30 2675 H 243.438 3.28101 -2.14691 0
M  V30 2676 H 244.928 3.93356 -1.40218 0
M  V30 2677 N 245.365 1.30045 0.890287 0
M  V30 2678 C 246.613 1.18327 1.63839 0
M  V30 2679 C 246.934 -0.263455 1.93212 0
M  V30 2680 O 246.204 -1.17856 1.56482 0
M  V30 2681 H 244.784 0.434933 0.607324 0
M  V30 2682 H 247.446 1.631 1.06698 0
M  V30 2683 H 246.542 1.74024 2.59079 0
M  V30 2684 N 246.843 -1.10192 1.12674 0
M  V30 2685 C 247.79 -2.16606 0.796906 0
M  V30 2686 C 248.76 -1.64394 -0.237476 0
M  V30 2687 O 249.945 -1.90474 -0.111484 0
M  V30 2688 C 247.085 -3.44116 0.26043 0
M  V30 2689 C 246.198 -4.10268 1.35293 0
M  V30 2690 C 245.333 -5.25507 0.775621 0
M  V30 2691 C 244.372 -5.83567 1.84706 0
M  V30 2692 N 243.509 -6.90179 1.28829 0
M  V30 2693 H 248.349 -2.44163 1.70846 0
M  V30 2694 H 245.886 -1.19846 0.85295 0
M  V30 2695 H 247.844 -4.17143 -0.0686814 0
M  V30 2696 H 246.474 -3.16901 -0.614274 0
M  V30 2697 H 245.526 -3.35184 1.79877 0
M  V30 2698 H 246.838 -4.4946 2.16303 0
M  V30 2699 H 245.992 -6.05398 0.397327 0
M  V30 2700 H 244.731 -4.87656 -0.0656581 0
M  V30 2701 H 243.736 -5.02344 2.23452 0
M  V30 2702 H 244.961 -6.23482 2.69161 0
M  V30 2703 H 242.907 -6.54322 0.468881 0
M  V30 2704 H 242.824 -7.28097 2.03497 0
M  V30 2705 H 244.092 -7.73844 0.937311 0
M  V30 2706 N 248.321 -0.919034 -1.28029 0
M  V30 2707 C 249.57 -0.550802 -1.94034 0
M  V30 2708 C 249.883 0.910877 -1.73096 0
M  V30 2709 O 251.089 1.3875 -2.33368 0
M  V30 2710 C 249.545 -0.934249 -3.47563 0
M  V30 2711 C 249.153 -2.41602 -3.7727 0
M  V30 2712 C 250.897 -0.636854 -4.19696 0
M  V30 2713 C 248.804 -2.73932 -5.24133 0
M  V30 2714 H 247.734 -0.202273 -0.726362 0
M  V30 2715 H 250.385 -1.11867 -1.45458 0
M  V30 2716 H 248.767 -0.295115 -3.94899 0
M  V30 2717 H 249.941 -3.10233 -3.40723 0
M  V30 2718 H 248.256 -2.68441 -3.18321 0
M  V30 2719 H 250.853 -0.855005 -5.2782 0
M  V30 2720 H 251.196 0.425575 -4.14119 0
M  V30 2721 H 251.729 -1.23469 -3.78154 0
M  V30 2722 H 248.468 -3.79049 -5.34792 0
M  V30 2723 H 247.988 -2.09942 -5.61858 0
M  V30 2724 H 249.667 -2.61215 -5.91925 0
M  V30 2725 N 249.799 1.42003 -0.683588 0
M  V30 2726 C 251.029 2.05448 -0.217866 0
M  V30 2727 C 251.437 1.51491 1.13346 0
M  V30 2728 O 250.78 0.653048 1.717 0
M  V30 2729 C 250.842 3.59399 -0.0850118 0
M  V30 2730 C 250.506 4.36093 -1.36645 0
M  V30 2731 C 251.503 4.66169 -2.30179 0
M  V30 2732 C 249.188 4.75578 -1.61649 0
M  V30 2733 C 251.182 5.34676 -3.46988 0
M  V30 2734 C 248.869 5.43824 -2.78745 0
M  V30 2735 C 249.867 5.73299 -3.71238 0
M  V30 2736 O 249.555 6.40142 -4.86285 0
M  V30 2737 H 249.287 0.668344 -0.101454 0
M  V30 2738 H 251.841 1.82974 -0.933248 0
M  V30 2739 H 250.071 3.80566 0.686031 0
M  V30 2740 H 251.76 4.04457 0.341973 0
M  V30 2741 H 252.526 4.36156 -2.12115 0
M  V30 2742 H 248.405 4.52025 -0.905243 0
M  V30 2743 H 251.949 5.57599 -4.19201 0
M  V30 2744 H 247.846 5.73254 -2.96732 0
M  V30 2745 H 248.614 6.58636 -4.85944 0
M  V30 2746 N 251.277 0.427512 1.51691 0
M  V30 2747 C 252.207 -0.3796 2.30394 0
M  V30 2748 C 253.188 -1.02982 1.35384 0
M  V30 2749 O 254.373 -1.03534 1.643 0
M  V30 2750 C 251.503 -1.48649 3.1388 0
M  V30 2751 C 250.457 -0.960294 4.17088 0
M  V30 2752 C 249.783 -2.16219 4.89033 0
M  V30 2753 C 251.083 -0.00153679 5.223 0
M  V30 2754 H 252.777 0.277164 2.98114 0
M  V30 2755 H 250.323 0.134739 1.43368 0
M  V30 2756 H 252.276 -2.05826 3.67714 0
M  V30 2757 H 251 -2.1714 2.43962 0
M  V30 2758 H 249.659 -0.410806 3.64291 0
M  V30 2759 H 249.307 -2.83307 4.15628 0
M  V30 2760 H 249.007 -1.81654 5.58816 0
M  V30 2761 H 250.531 -2.73968 5.45687 0
M  V30 2762 H 251.945 -0.482687 5.71264 0
M  V30 2763 H 250.342 0.256199 5.99553 0
M  V30 2764 H 251.412 0.938174 4.75738 0
M  V30 2765 N 252.755 -1.56801 0.158532 0
M  V30 2766 C 253.718 -2.16138 -0.762705 0
M  V30 2767 C 254.718 -1.1061 -1.16713 0
M  V30 2768 O 255.908 -1.36191 -1.08617 0
M  V30 2769 C 253.04 -2.73386 -2.03649 0
M  V30 2770 H 254.233 -2.98886 -0.246354 0
M  V30 2771 H 251.786 -1.56035 -0.0909744 0
M  V30 2772 H 252.521 -1.94335 -2.59623 0
M  V30 2773 H 252.306 -3.50601 -1.75559 0
M  V30 2774 H 253.796 -3.19065 -2.6942 0
M  V30 2775 N 254.233 0.115231 -1.57178 0
M  V30 2776 C 255.143 1.15994 -2.03918 0
M  V30 2777 C 256.159 1.45103 -0.960268 0
M  V30 2778 O 257.335 1.56144 -1.27204 0
M  V30 2779 C 254.4 2.46568 -2.43732 0
M  V30 2780 C 253.461 2.24822 -3.65723 0
M  V30 2781 C 252.694 3.4917 -4.03629 0
M  V30 2782 O 252.917 4.56623 -3.41835 0
M  V30 2783 O 251.851 3.39949 -4.96708 0
M  V30 2784 H 255.677 0.793019 -2.93164 0
M  V30 2785 H 253.262 0.3263 -1.45793 0
M  V30 2786 H 255.144 3.23492 -2.70057 0
M  V30 2787 H 253.819 2.82726 -1.57631 0
M  V30 2788 H 252.726 1.45744 -3.44542 0
M  V30 2789 H 254.059 1.93566 -4.52541 0
M  V30 2790 N 255.711 1.52812 0.385517 0
M  V30 2791 C 256.939 1.71907 1.15133 0
M  V30 2792 C 257.354 0.439004 1.83625 0
M  V30 2793 O 256.711 -0.586765 1.7281 0
M  V30 2794 C 256.762 2.87099 2.19673 0
M  V30 2795 O 256.483 4.10151 1.53973 0
M  V30 2796 C 257.984 3.17902 3.08955 0
M  V30 2797 H 255.204 0.575479 0.345057 0
M  V30 2798 H 257.748 1.99476 0.45052 0
M  V30 2799 H 255.903 2.61982 2.85384 0
M  V30 2800 H 256.317 4.74514 2.23465 0
M  V30 2801 H 257.791 4.01959 3.7833 0
M  V30 2802 H 258.268 2.3243 3.72657 0
M  V30 2803 H 258.874 3.44871 2.48885 0
M  V30 2804 N 257.189 -0.644168 1.43834 0
M  V30 2805 C 258.6 -1.22554 1.40845 0
M  V30 2806 C 258.951 -1.9585 0.117115 0
M  V30 2807 O 258.076 -2.01734 -0.783086 0
M  V30 2808 C 258.671 -2.22907 2.55143 0
M  V30 2809 C 257.23 -2.76501 2.5539 0
M  V30 2810 C 256.377 -1.51287 2.32396 0
M  V30 2811 H 259.328 -0.43563 1.52604 0
M  V30 2812 H 259.349 -3.05259 2.2715 0
M  V30 2813 H 258.861 -1.69533 3.49114 0
M  V30 2814 H 256.962 -3.33914 1.65324 0
M  V30 2815 H 257.075 -3.23429 3.53455 0
M  V30 2816 H 255.439 -1.78957 1.81236 0
M  V30 2817 H 256.222 -0.998336 3.28463 0
M  V30 2818 N 258.668 -1.30515 -0.883378 0
M  V30 2819 C 259.914 -1.20617 -1.63778 0
M  V30 2820 C 260.269 0.236469 -1.90941 0
M  V30 2821 O 259.562 1.16596 -1.52039 0
M  V30 2822 C 259.756 -1.96994 -2.98209 0
M  V30 2823 C 259.585 -3.48537 -2.84169 0
M  V30 2824 C 258.355 -4.17893 -2.84067 0
M  V30 2825 C 260.553 -4.43738 -2.60001 0
M  V30 2826 N 258.535 -5.55685 -2.60936 0
M  V30 2827 C 259.906 -5.69105 -2.46007 0
M  V30 2828 C 261.961 -4.33316 -2.45239 0
M  V30 2829 C 260.664 -6.8523 -2.18752 0
M  V30 2830 C 262.69 -5.4921 -2.19369 0
M  V30 2831 C 262.052 -6.73558 -2.06153 0
M  V30 2832 H 258.151 -0.496434 -0.604216 0
M  V30 2833 H 260.735 -1.64544 -1.04083 0
M  V30 2834 H 258.906 -1.55455 -3.55933 0
M  V30 2835 H 260.638 -1.79225 -3.62851 0
M  V30 2836 H 257.393 -3.69739 -2.95956 0
M  V30 2837 H 257.817 -6.28199 -2.52378 0
M  V30 2838 H 262.459 -3.37856 -2.54191 0
M  V30 2839 H 260.177 -7.80729 -2.08537 0
M  V30 2840 H 263.763 -5.43054 -2.08766 0
M  V30 2841 H 262.643 -7.61721 -1.86416 0
M  V30 2842 N 260.146 1.09593 -1.13257 0
M  V30 2843 C 261.393 1.81734 -0.893257 0
M  V30 2844 C 261.721 1.8563 0.580656 0
M  V30 2845 O 260.976 1.31906 1.44566 0
M  V30 2846 C 261.275 3.27802 -1.42411 0
M  V30 2847 C 260.941 3.44041 -2.91456 0
M  V30 2848 C 259.603 3.48181 -3.3215 0
M  V30 2849 C 261.955 3.48719 -3.87356 0
M  V30 2850 C 259.283 3.54575 -4.67433 0
M  V30 2851 C 261.635 3.56648 -5.2248 0
M  V30 2852 C 260.299 3.59055 -5.62704 0
M  V30 2853 H 259.569 0.665011 -0.326866 0
M  V30 2854 H 262.216 1.2912 -1.41422 0
M  V30 2855 H 260.521 3.83042 -0.823795 0
M  V30 2856 H 262.218 3.82149 -1.21503 0
M  V30 2857 H 258.808 3.41502 -2.58987 0
M  V30 2858 H 262.992 3.44763 -3.57004 0
M  V30 2859 H 258.248 3.54725 -4.97976 0
M  V30 2860 H 262.422 3.59212 -5.96607 0
M  V30 2861 H 260.049 3.63763 -6.67518 0
M  V30 2862 N 261.624 0.925811 1.2754 0
M  V30 2863 C 262.572 0.413897 2.28888 0
M  V30 2864 C 263.566 -0.500779 1.61829 0
M  V30 2865 O 264.772 -0.38069 1.75928 0
M  V30 2866 H 261.147 0.115274 0.743112 0
M  V30 2867 H 263.118 1.28151 2.69481 0
M  V30 2868 C 261.867 -0.319792 3.46226 0
M  V30 2869 H 261.19 0.374846 3.98039 0
M  V30 2870 H 262.63 -0.642435 4.19105 0
M  V30 2871 C 261.089 -1.53209 3.00048 0
M  V30 2872 O 261.619 -2.6309 3.03557 0
M  V30 2873 N 259.825 -1.38326 2.55566 0
M  V30 2874 H 259.372 -0.489292 2.5291 0
M  V30 2875 H 259.33 -2.19564 2.25031 0
M  V30 2876 N 263.102 -1.41638 0.69111 0
M  V30 2877 C 264.351 -2.00526 0.217318 0
M  V30 2878 C 264.664 -1.55353 -1.18848 0
M  V30 2879 O 265.87 -2.06769 -1.75951 0
M  V30 2880 C 264.326 -3.58313 0.337639 0
M  V30 2881 C 263.934 -4.12469 1.74852 0
M  V30 2882 C 265.678 -4.24431 -0.0766066 0
M  V30 2883 C 263.585 -5.62675 1.82074 0
M  V30 2884 H 262.515 -0.750008 0.0774893 0
M  V30 2885 H 265.166 -1.6217 0.858661 0
M  V30 2886 H 263.548 -3.9425 -0.371879 0
M  V30 2887 H 264.722 -3.8796 2.48644 0
M  V30 2888 H 263.037 -3.58861 2.11205 0
M  V30 2889 H 265.634 -5.34683 -0.0430284 0
M  V30 2890 H 265.977 -4.01101 -1.1146 0
M  V30 2891 H 266.51 -3.93512 0.582476 0
M  V30 2892 H 263.249 -5.90826 2.83911 0
M  V30 2893 H 262.769 -5.89124 1.12661 0
M  V30 2894 H 264.448 -6.27371 1.58159 0
M  V30 2895 N 264.58 -0.43555 -1.51462 0
M  V30 2896 C 265.805 0.132627 -2.06976 0
M  V30 2897 C 266.23 1.35848 -1.30104 0
M  V30 2898 O 265.588 1.78112 -0.338493 0
M  V30 2899 C 265.636 0.43523 -3.57964 0
M  V30 2900 O 264.74 1.52198 -3.83288 0
M  V30 2901 H 264.081 0.00265 -0.663995 0
M  V30 2902 H 266.611 -0.616369 -1.95095 0
M  V30 2903 H 266.621 0.686206 -4.02188 0
M  V30 2904 H 265.296 -0.460739 -4.1334 0
M  V30 2905 H 263.873 1.2611 -3.50928 0
M  V30 2906 N 266.058 1.56714 -0.166846 0
M  V30 2907 C 267.021 2.16539 0.751232 0
M  V30 2908 C 268.021 1.11228 1.16125 0
M  V30 2909 O 269.211 1.36765 1.07894 0
M  V30 2910 C 266.343 2.74462 2.02196 0
M  V30 2911 H 267.536 2.99013 0.230499 0
M  V30 2912 H 265.089 1.56081 0.0826982 0
M  V30 2913 H 265.824 1.95709 2.58589 0
M  V30 2914 H 265.609 3.51527 1.73698 0
M  V30 2915 H 267.099 3.20489 2.67725 0
M  V30 2916 N 267.536 -0.106894 1.57237 0
M  V30 2917 C 268.764 -0.826389 1.8968 0
M  V30 2918 C 269.179 -1.72856 0.759353 0
M  V30 2919 O 268.536 -1.80503 -0.269263 0
M  V30 2920 C 268.587 -1.64967 3.21665 0
M  V30 2921 O 268.308 -0.783804 4.31031 0
M  V30 2922 C 269.809 -2.47326 3.67892 0
M  V30 2923 H 267.029 -0.236927 0.627779 0
M  V30 2924 H 269.573 -0.0876593 2.04312 0
M  V30 2925 H 267.728 -2.34103 3.08666 0
M  V30 2926 H 268.142 -1.35284 5.06753 0
M  V30 2927 H 269.616 -3.00604 4.6297 0
M  V30 2928 H 270.093 -3.25247 2.95146 0
M  V30 2929 H 270.699 -1.83411 3.83719 0
M  V30 2930 N 269.014 -1.53014 -0.377408 0
M  V30 2931 C 270.263 -1.67845 -1.11853 0
M  V30 2932 C 270.576 -0.430625 -1.90801 0
M  V30 2933 O 271.782 -0.459261 -2.67587 0
M  V30 2934 C 270.238 -2.96668 -2.03756 0
M  V30 2935 C 269.846 -4.28671 -1.30175 0
M  V30 2936 C 271.59 -3.20865 -2.77932 0
M  V30 2937 C 269.497 -5.48591 -2.20911 0
M  V30 2938 H 268.427 -0.625343 -0.421263 0
M  V30 2939 H 271.078 -1.79514 -0.380409 0
M  V30 2940 H 269.46 -2.78773 -2.8125 0
M  V30 2941 H 270.634 -4.57157 -0.578259 0
M  V30 2942 H 268.949 -4.10825 -0.679108 0
M  V30 2943 H 271.546 -4.07642 -3.46024 0
M  V30 2944 H 271.889 -2.36424 -3.4265 0
M  V30 2945 H 272.422 -3.39379 -2.07525 0
M  V30 2946 H 269.161 -6.35474 -1.6079 0
M  V30 2947 H 268.681 -5.244 -2.91144 0
M  V30 2948 H 270.36 -5.8292 -2.80736 0
M  V30 2949 N 270.492 0.636531 -1.44174 0
M  V30 2950 C 271.741 1.39213 -1.45954 0
M  V30 2951 C 272.054 1.95374 -0.0939119 0
M  V30 2952 O 273.26 2.71498 0.0107767 0
M  V30 2953 C 271.716 2.52025 -2.56927 0
M  V30 2954 C 271.324 2.024 -3.99673 0
M  V30 2955 C 273.068 3.29269 -2.67922 0
M  V30 2956 C 270.975 3.12521 -5.0208 0
M  V30 2957 H 269.905 0.523132 -0.542999 0
M  V30 2958 H 272.556 0.685349 -1.70221 0
M  V30 2959 H 270.938 3.25253 -2.25891 0
M  V30 2960 H 272.112 1.36073 -4.40251 0
M  V30 2961 H 270.427 1.37987 -3.92872 0
M  V30 2962 H 273.024 4.11352 -3.41605 0
M  V30 2963 H 273.367 3.78397 -1.73555 0
M  V30 2964 H 273.9 2.63129 -2.98342 0
M  V30 2965 H 270.639 2.68343 -5.98057 0
M  V30 2966 H 270.159 3.77507 -4.66099 0
M  V30 2967 H 271.838 3.77385 -5.25538 0
M  V30 2968 N 271.97 1.30982 0.876444 0
M  V30 2969 C 273.386 1.09498 1.16113 0
M  V30 2970 C 273.586 -0.13875 2.01022 0
M  V30 2971 O 272.642 -0.829935 2.38471 0
M  V30 2972 C 273.955 2.36308 1.85954 0
M  V30 2973 C 275.503 2.41856 1.98683 0
M  V30 2974 C 275.978 3.6853 2.71937 0
M  V30 2975 N 277.469 3.69387 2.79477 0
M  V30 2976 C 278.204 4.64096 3.36753 0
M  V30 2977 N 277.7 5.69155 3.95012 0
M  V30 2978 N 279.493 4.51626 3.3465 0
M  V30 2979 H 271.644 2.10118 0.310494 0
M  V30 2980 H 273.907 0.926634 0.200131 0
M  V30 2981 H 273.613 3.26388 1.31011 0
M  V30 2982 H 273.487 2.4561 2.86278 0
M  V30 2983 H 275.874 1.52249 2.52793 0
M  V30 2984 H 275.955 2.36523 0.9742 0
M  V30 2985 H 275.599 4.58499 2.18496 0
M  V30 2986 H 275.529 3.71127 3.73593 0
M  V30 2987 H 278.02 2.93438 2.38123 0
M  V30 2988 H 278.333 6.3751 4.36808 0
M  V30 2989 H 276.678 5.72937 3.93406 0
M  V30 2990 H 279.869 3.68728 2.8837 0
M  V30 2991 H 280.042 5.25614 3.7899 0
M  V30 2992 N 273.449 -1.08991 1.13837 0
M  V30 2993 C 274.359 -2.19301 0.833333 0
M  V30 2994 C 275.375 -1.73026 -0.183847 0
M  V30 2995 O 276.551 -2.01395 -0.0138092 0
M  V30 2996 C 273.616 -3.45323 0.308651 0
M  V30 2997 C 272.677 -4.06255 1.38764 0
M  V30 2998 C 271.91 -5.26262 0.887896 0
M  V30 2999 O 272.133 -5.69747 -0.27287 0
M  V30 3000 O 271.067 -5.78435 1.66421 0
M  V30 3001 H 274.893 -2.47854 1.75506 0
M  V30 3002 H 272.478 -1.18012 0.916166 0
M  V30 3003 H 274.36 -4.21394 0.0216739 0
M  V30 3004 H 273.035 -3.18362 -0.585431 0
M  V30 3005 H 271.942 -3.318 1.72799 0
M  V30 3006 H 273.275 -4.37452 2.25602 0
M  V30 3007 N 274.927 -0.932562 -1.27047 0
M  V30 3008 C 276.343 -0.633544 -1.46487 0
M  V30 3009 C 276.543 0.815746 -1.84249 0
M  V30 3010 O 275.599 1.59319 -1.95892 0
M  V30 3011 C 276.912 -1.58758 -2.55375 0
M  V30 3012 C 278.46 -1.59634 -2.69232 0
M  V30 3013 C 278.935 -2.53747 -3.81283 0
M  V30 3014 N 280.426 -2.51982 -3.88664 0
M  V30 3015 C 281.161 -3.21491 -4.74796 0
M  V30 3016 N 280.657 -4.00395 -5.65381 0
M  V30 3017 N 282.45 -3.10485 -4.68568 0
M  V30 3018 H 274.601 -1.86946 -1.00821 0
M  V30 3019 H 276.864 -0.802897 -0.504044 0
M  V30 3020 H 276.57 -2.62172 -2.34432 0
M  V30 3021 H 276.444 -1.33301 -3.52861 0
M  V30 3022 H 278.831 -0.569488 -2.89553 0
M  V30 3023 H 278.912 -1.89142 -1.72218 0
M  V30 3024 H 278.556 -3.56545 -3.61715 0
M  V30 3025 H 278.486 -2.21532 -4.77735 0
M  V30 3026 H 280.977 -1.94681 -3.23895 0
M  V30 3027 H 281.29 -4.50406 -6.27976 0
M  V30 3028 H 279.635 -4.04498 -5.65161 0
M  V30 3029 H 282.826 -2.48331 -3.96799 0
M  V30 3030 H 282.999 -3.64925 -5.35475 0
M  V30 3031 N 276.405 1.4127 -0.698611 0
M  V30 3032 C 277.335 2.33447 -0.049629 0
M  V30 3033 C 278.316 1.51982 0.763898 0
M  V30 3034 O 279.501 1.80509 0.716257 0
M  V30 3035 C 276.631 3.35828 0.885267 0
M  V30 3036 C 275.585 4.27627 0.178613 0
M  V30 3037 C 274.911 5.20406 1.22807 0
M  V30 3038 C 276.211 5.13459 -0.956933 0
M  V30 3039 H 277.905 2.87966 -0.81951 0
M  V30 3040 H 275.451 1.38461 -0.395538 0
M  V30 3041 H 277.404 3.9924 1.34854 0
M  V30 3042 H 276.128 2.79666 1.68685 0
M  V30 3043 H 274.787 3.65643 -0.26466 0
M  V30 3044 H 274.435 4.60558 2.02226 0
M  V30 3045 H 274.135 5.82661 0.760239 0
M  V30 3046 H 275.659 5.86695 1.69179 0
M  V30 3047 H 277.073 5.70421 -0.573805 0
M  V30 3048 H 275.47 5.8467 -1.35205 0
M  V30 3049 H 276.54 4.50443 -1.79524 0
M  V30 3050 N 277.883 0.443576 1.51229 0
M  V30 3051 C 278.815 -0.400608 2.25672 0
M  V30 3052 C 279.828 -0.980945 1.29928 0
M  V30 3053 O 281.017 -0.874024 1.55638 0
M  V30 3054 C 278.117 -1.57304 3.00181 0
M  V30 3055 C 277.29 -1.11046 4.23069 0
M  V30 3056 C 276.349 -2.15374 4.80105 0
M  V30 3057 O 275.375 -1.74554 5.41774 0
M  V30 3058 N 276.577 -3.47922 4.64683 0
M  V30 3059 H 279.342 0.23745 2.98758 0
M  V30 3060 H 276.903 0.272809 1.59585 0
M  V30 3061 H 278.895 -2.26733 3.35223 0
M  V30 3062 H 277.465 -2.11632 2.30066 0
M  V30 3063 H 276.685 -0.243019 3.9345 0
M  V30 3064 H 277.973 -0.778888 5.02803 0
M  V30 3065 H 277.371 -3.83815 4.15575 0
M  V30 3066 H 275.928 -4.13228 5.0407 0
M  V30 3067 N 279.361 -1.56624 0.175154 0
M  V30 3068 C 280.309 -2.19468 -0.770495 0
M  V30 3069 C 281.303 -1.15985 -1.23466 0
M  V30 3070 O 282.509 -1.34176 -1.19987 0
M  V30 3071 H 278.884 -0.703095 -0.266761 0
M  V30 3072 H 280.855 -2.97613 -0.216542 0
M  V30 3073 C 279.604 -2.85264 -1.98796 0
M  V30 3074 H 278.927 -3.64623 -1.63983 0
M  V30 3075 H 280.367 -3.327 -2.62843 0
M  V30 3076 C 278.826 -1.85239 -2.81404 0
M  V30 3077 O 279.356 -1.34024 -3.78682 0
M  V30 3078 N 277.562 -1.53911 -2.46495 0
M  V30 3079 H 277.109 -1.95751 -1.67449 0
M  V30 3080 H 277.067 -0.872382 -3.02054 0
M  V30 3081 N 280.839 0.0985539 -1.57292 0
M  V30 3082 C 282.087 0.801092 -1.85545 0
M  V30 3083 C 282.408 1.79438 -0.763353 0
M  V30 3084 O 281.678 1.94763 0.21073 0
M  V30 3085 H 280.258 0.29884 -0.684619 0
M  V30 3086 H 282.92 0.0810064 -1.94732 0
M  V30 3087 H 282.016 1.3338 -2.82163 0
M  V30 3088 N 282.317 1.53212 0.369288 0
M  V30 3089 C 283.227 1.82342 1.47609 0
M  V30 3090 C 284.243 0.711532 1.58787 0
M  V30 3091 O 285.419 1.0012 1.74751 0
M  V30 3092 C 282.484 2.00393 2.8292 0
M  V30 3093 C 281.545 3.24297 2.81301 0
M  V30 3094 C 280.778 3.41478 4.10157 0
M  V30 3095 O 281.001 2.63033 5.06132 0
M  V30 3096 O 279.935 4.34817 4.16194 0
M  V30 3097 H 283.761 2.76366 1.25918 0
M  V30 3098 H 281.346 1.38547 0.559034 0
M  V30 3099 H 283.228 2.13859 3.63101 0
M  V30 3100 H 281.903 1.09559 3.04596 0
M  V30 3101 H 280.81 3.16257 1.99831 0
M  V30 3102 H 282.143 4.15041 2.64578 0
M  V30 3103 N 283.795 -0.628877 1.44509 0
M  V30 3104 C 285.02 -1.42048 1.5112 0
M  V30 3105 C 285.445 -1.87594 0.137818 0
M  V30 3106 O 284.803 -1.58873 -0.873437 0
M  V30 3107 C 284.851 -2.61541 2.48251 0
M  V30 3108 O 283.955 -3.61453 1.98559 0
M  V30 3109 H 283.296 -0.424942 0.510216 0
M  V30 3110 H 285.826 -0.767374 1.89664 0
M  V30 3111 H 285.836 -3.09057 2.66361 0
M  V30 3112 H 284.511 -2.27736 3.48007 0
M  V30 3113 H 283.088 -3.20731 1.90227 0
M  V30 3114 N 285.273 -1.31445 -0.869486 0
M  V30 3115 C 286.513 -1.22458 -1.63656 0
M  V30 3116 C 286.877 0.213846 -1.90805 0
M  V30 3117 O 288.078 0.427212 -2.65383 0
M  V30 3118 C 286.349 -2.04564 -2.93067 0
M  V30 3119 S 287.908 -2.12445 -3.83944 0
M  V30 3120 H 284.726 -0.436145 -0.561514 0
M  V30 3121 H 287.328 -1.66114 -1.03085 0
M  V30 3122 H 286.032 -3.0816 -2.71045 0
M  V30 3123 H 285.563 -1.6163 -3.58663 0
M  V30 3124 H 287.578 -1.26312 -4.79854 0
M  V30 3125 N 286.751 1.08385 -1.14413 0
M  V30 3126 C 287.661 2.18856 -0.844951 0
M  V30 3127 C 288.677 1.73121 0.174668 0
M  V30 3128 O 289.853 2.014 0.00312857 0
M  V30 3129 C 286.918 3.45155 -0.32696 0
M  V30 3130 C 285.979 4.05513 -1.40916 0
M  V30 3131 C 285.212 5.25784 -0.915793 0
M  V30 3132 O 285.435 5.69884 0.242651 0
M  V30 3133 O 284.369 5.77545 -1.69487 0
M  V30 3134 H 288.195 2.46919 -1.76818 0
M  V30 3135 H 285.78 1.17524 -0.922411 0
M  V30 3136 H 287.662 4.21377 -0.0440211 0
M  V30 3137 H 286.337 3.18668 0.568539 0
M  V30 3138 H 285.244 3.30879 -1.74556 0
M  V30 3139 H 286.577 4.3625 -2.27919 0
M  V30 3140 N 288.23 0.939286 1.26551 0
M  V30 3141 C 289.507 0.5038 1.89001 0
M  V30 3142 C 289.887 -1.01854 1.84903 0
M  V30 3143 O 289.235 -1.87773 1.30206 0
M  V30 3144 C 289.445 1.063 3.32417 0
M  V30 3145 C 290.793 1.13051 4.09273 0
M  V30 3146 O 291.817 1.01345 3.41479 0
M  V30 3147 O 290.676 1.31233 5.30509 0
M  V30 3148 H 287.77 0.163897 0.810597 0
M  V30 3149 H 290.316 1.03173 1.34735 0
M  V30 3150 H 289.088 2.10665 3.29752 0
M  V30 3151 H 288.711 0.517408 3.94219 0
M  V30 3152 N 289.708 -1.40897 0.706093 0
M  V30 3153 C 290.638 -2.33418 0.0620085 0
M  V30 3154 C 291.619 -1.52385 -0.755827 0
M  V30 3155 O 292.804 -1.80886 -0.706674 0
M  V30 3156 C 289.934 -3.36293 -0.867445 0
M  V30 3157 C 288.888 -4.27716 -0.155932 0
M  V30 3158 C 288.214 -5.2105 -1.20046 0
M  V30 3159 C 289.514 -5.12944 0.984149 0
M  V30 3160 H 291.208 -2.87527 0.83477 0
M  V30 3161 H 288.754 -1.38249 0.402875 0
M  V30 3162 H 290.707 -3.99949 -1.32735 0
M  V30 3163 H 289.431 -2.80556 -1.67199 0
M  V30 3164 H 288.09 -3.65498 0.284047 0
M  V30 3165 H 287.738 -4.61624 -1.99781 0
M  V30 3166 H 287.438 -5.83056 -0.729328 0
M  V30 3167 H 288.962 -5.87584 -1.66066 0
M  V30 3168 H 290.376 -5.70109 0.604048 0
M  V30 3169 H 288.773 -5.83945 1.38304 0
M  V30 3170 H 289.843 -4.49485 1.81911 0
M  V30 3171 N 291.186 -0.45159 -1.50991 0
M  V30 3172 C 292.116 0.342898 -2.30969 0
M  V30 3173 C 293.097 1.00815 -1.37005 0
M  V30 3174 O 294.282 1.00907 -1.65926 0
M  V30 3175 C 291.412 1.43637 -3.16205 0
M  V30 3176 C 290.366 0.893818 -4.18563 0
M  V30 3177 C 289.692 2.08411 -4.92411 0
M  V30 3178 C 290.992 -0.0815568 -5.22236 0
M  V30 3179 H 292.686 -0.324556 -2.97636 0
M  V30 3180 H 290.232 -0.157531 -1.43136 0
M  V30 3181 H 292.185 1.9995 -3.70942 0
M  V30 3182 H 290.909 2.13232 -2.47386 0
M  V30 3183 H 289.568 0.352798 -3.64898 0
M  V30 3184 H 289.216 2.76658 -4.20082 0
M  V30 3185 H 288.916 1.72741 -5.61636 0
M  V30 3186 H 290.44 2.65251 -5.49976 0
M  V30 3187 H 291.854 0.391742 -5.7196 0
M  V30 3188 H 290.251 -0.351551 -5.99069 0
M  V30 3189 H 291.321 -1.01374 -4.74185 0
M  V30 3190 N 292.664 1.56529 -0.183458 0
M  V30 3191 C 294.075 1.83739 0.331177 0
M  V30 3192 C 294.426 1.10373 1.62211 0
M  V30 3193 O 293.551 0.36071 2.13373 0
M  V30 3194 C 294.146 3.33306 0.607646 0
M  V30 3195 C 292.705 3.60969 1.06668 0
M  V30 3196 C 291.852 2.77086 0.109029 0
M  V30 3197 H 294.803 1.53379 -0.407484 0
M  V30 3198 H 294.824 3.51444 1.45832 0
M  V30 3199 H 294.336 3.86677 -0.332086 0
M  V30 3200 H 292.437 3.13021 2.0211 0
M  V30 3201 H 292.55 4.69231 0.967447 0
M  V30 3202 H 290.914 2.47319 0.608714 0
M  V30 3203 H 291.697 3.33241 -0.82494 0
M  V30 3204 N 294.142 -0.090211 1.57342 0
M  V30 3205 C 295.052 -1.12735 2.05738 0
M  V30 3206 C 296.068 -1.43557 0.983231 0
M  V30 3207 O 297.244 -1.54101 1.29672 0
M  V30 3208 C 294.309 -2.42659 2.47624 0
M  V30 3209 C 293.37 -2.18975 3.69254 0
M  V30 3210 C 292.603 -3.42704 4.09133 0
M  V30 3211 O 292.826 -4.51127 3.49057 0
M  V30 3212 O 291.76 -3.32003 5.02053 0
M  V30 3213 H 295.586 -0.746279 2.94388 0
M  V30 3214 H 293.171 -0.303064 1.46294 0
M  V30 3215 H 295.053 -3.19155 2.7517 0
M  V30 3216 H 293.728 -2.80182 1.62109 0
M  V30 3217 H 292.635 -1.40244 3.46818 0
M  V30 3218 H 293.968 -1.86342 4.55563 0
M  V30 3219 N 295.62 -1.53406 -0.361157 0
M  V30 3220 C 297.031 -1.61442 -0.937728 0
M  V30 3221 C 297.382 -0.48461 -1.90121 0
M  V30 3222 O 296.507 0.388312 -2.12888 0
M  V30 3223 C 297.102 -2.92624 -1.70753 0
M  V30 3224 C 295.661 -3.02981 -2.23337 0
M  V30 3225 C 294.808 -2.5677 -1.04712 0
M  V30 3226 H 297.759 -1.58083 -0.139816 0
M  V30 3227 H 297.78 -2.80675 -2.56908 0
M  V30 3228 H 297.292 -3.74834 -1.00604 0
M  V30 3229 H 295.393 -2.25368 -2.96715 0
M  V30 3230 H 295.506 -4.0814 -2.50916 0
M  V30 3231 H 293.87 -2.11752 -1.41539 0
M  V30 3232 H 294.653 -3.41402 -0.360539 0
M  V30 3233 N 297.098 0.621204 -1.44841 0
M  V30 3234 C 298.344 1.3826 -1.48365 0
M  V30 3235 C 298.677 1.93831 -0.119624 0
M  V30 3236 O 297.952 1.74251 0.864111 0
M  V30 3237 C 298.235 2.54058 -2.55199 0
M  V30 3238 C 298.088 2.03772 -4.00995 0
M  V30 3239 C 299.407 3.56225 -2.58442 0
M  V30 3240 H 296.526 0.501374 -0.540179 0
M  V30 3241 H 299.168 0.7015 -1.76576 0
M  V30 3242 H 297.318 3.12162 -2.31274 0
M  V30 3243 H 298.99 1.50423 -4.36086 0
M  V30 3244 H 297.233 1.34876 -4.12299 0
M  V30 3245 H 297.904 2.87185 -4.71411 0
M  V30 3246 H 300.38 3.07939 -2.79844 0
M  V30 3247 H 299.256 4.34756 -3.3508 0
M  V30 3248 H 299.517 4.10949 -1.63013 0
M  V30 3249 N 298.576 1.31904 0.862503 0
M  V30 3250 C 299.506 1.22782 1.98612 0
M  V30 3251 C 300.487 0.113362 1.69722 0
M  V30 3252 O 301.672 0.299218 1.91881 0
M  V30 3253 C 298.802 0.942058 3.34279 0
M  V30 3254 C 297.756 2.0169 3.77499 0
M  V30 3255 C 297.082 1.58369 5.10709 0
M  V30 3256 C 298.382 3.43096 3.93805 0
M  V30 3257 H 300.076 2.16788 2.06502 0
M  V30 3258 H 297.622 1.04366 0.992154 0
M  V30 3259 H 299.575 0.864818 4.1243 0
M  V30 3260 H 298.299 -0.0336603 3.26583 0
M  V30 3261 H 296.958 2.08416 3.01593 0
M  V30 3262 H 296.606 0.595628 4.99461 0
M  V30 3263 H 296.306 2.30279 5.40597 0
M  V30 3264 H 297.83 1.52067 5.91361 0
M  V30 3265 H 299.244 3.39003 4.62331 0
M  V30 3266 H 297.641 4.13288 4.35101 0
M  V30 3267 H 298.711 3.83334 2.96957 0
M  V30 3268 N 300.054 -1.07777 1.14986 0
M  V30 3269 C 301.282 -1.84018 0.945773 0
M  V30 3270 C 301.697 -1.81897 -0.505863 0
M  V30 3271 O 301.054 -1.22726 -1.35072 0
M  V30 3272 C 301.105 -3.31287 1.44677 0
M  V30 3273 O 300.826 -3.33449 2.84154 0
M  V30 3274 C 302.327 -4.24311 1.28355 0
M  V30 3275 H 299.547 -0.580716 0.336169 0
M  V30 3276 H 302.091 -1.36077 1.52654 0
M  V30 3277 H 300.246 -3.76594 0.908625 0
M  V30 3278 H 300.66 -4.25427 3.06777 0
M  V30 3279 H 302.134 -5.2573 1.68261 0
M  V30 3280 H 302.611 -4.38612 0.227184 0
M  V30 3281 H 303.217 -3.84836 1.81056 0
M  V30 3282 N 301.532 -0.945985 -1.26051 0
M  V30 3283 C 302.762 -0.612136 -1.97323 0
M  V30 3284 C 303.17 0.818171 -1.70595 0
M  V30 3285 O 302.513 1.55777 -0.973613 0
M  V30 3286 C 302.575 -0.780347 -3.50929 0
M  V30 3287 C 302.239 -2.18619 -4.01317 0
M  V30 3288 C 303.236 -3.16209 -4.12683 0
M  V30 3289 C 300.921 -2.50805 -4.35203 0
M  V30 3290 C 302.915 -4.44085 -4.57238 0
M  V30 3291 C 300.602 -3.78912 -4.79446 0
M  V30 3292 C 301.6 -4.75365 -4.90425 0
M  V30 3293 O 301.288 -6.01191 -5.3369 0
M  V30 3294 H 301.02 -0.229134 -0.635982 0
M  V30 3295 H 303.574 -1.27036 -1.61404 0
M  V30 3296 H 301.804 -0.0649864 -3.86645 0
M  V30 3297 H 303.493 -0.448842 -4.03411 0
M  V30 3298 H 304.259 -2.92668 -3.86744 0
M  V30 3299 H 300.138 -1.76463 -4.2589 0
M  V30 3300 H 303.682 -5.19373 -4.65723 0
M  V30 3301 H 299.579 -4.02265 -5.0483 0
M  V30 3302 H 300.347 -6.04442 -5.51899 0
M  V30 3303 N 303.011 1.40521 -0.713556 0
M  V30 3304 C 304.26 2.00155 -0.249192 0
M  V30 3305 C 304.573 1.57224 1.16362 0
M  V30 3306 O 305.779 2.09542 1.72639 0
M  V30 3307 C 304.235 3.5773 -0.3946 0
M  V30 3308 C 303.843 4.09635 -1.81392 0
M  V30 3309 C 305.587 4.24499 0.00907364 0
M  V30 3310 C 303.494 5.59707 -1.91003 0
M  V30 3311 H 302.424 0.74868 -0.0894114 0
M  V30 3312 H 305.075 1.60784 -0.884352 0
M  V30 3313 H 303.457 3.94792 0.30911 0
M  V30 3314 H 304.631 3.83955 -2.54785 0
M  V30 3315 H 302.946 3.55456 -2.16888 0
M  V30 3316 H 305.543 5.34683 -0.0420404 0
M  V30 3317 H 305.886 4.02824 1.05065 0
M  V30 3318 H 306.419 3.92536 -0.645007 0
M  V30 3319 H 303.158 5.86234 -2.93275 0
M  V30 3320 H 302.678 5.87258 -1.22019 0
M  V30 3321 H 304.357 6.24776 -1.6812 0
M  V30 3322 N 304.489 0.459591 1.5075 0
M  V30 3323 C 305.437 -0.354678 2.2988 0
M  V30 3324 C 306.431 -1.00086 1.36672 0
M  V30 3325 O 307.637 -0.933277 1.53915 0
M  V30 3326 H 304.012 -0.13321 0.740107 0
M  V30 3327 H 305.983 0.333269 2.96533 0
M  V30 3328 C 304.732 -1.43073 3.169 0
M  V30 3329 H 304.055 -0.942882 3.88523 0
M  V30 3330 H 305.495 -1.97328 3.75284 0
M  V30 3331 C 303.954 -2.42633 2.33732 0
M  V30 3332 O 304.484 -3.47658 2.01238 0
M  V30 3333 N 302.69 -2.14066 1.9653 0
M  V30 3334 H 302.237 -1.28685 2.23155 0
M  V30 3335 H 302.195 -2.80917 1.41185 0
M  V30 3336 N 305.967 -1.56429 0.191757 0
M  V30 3337 C 306.899 -2.16154 -0.762245 0
M  V30 3338 C 307.912 -1.12247 -1.17917 0
M  V30 3339 O 309.101 -1.39353 -1.11548 0
M  V30 3340 C 306.201 -2.70606 -2.04024 0
M  V30 3341 C 305.374 -3.99381 -1.78364 0
M  V30 3342 C 304.433 -4.38692 -2.90578 0
M  V30 3343 O 303.459 -5.06179 -2.6033 0
M  V30 3344 N 304.661 -4.01922 -4.18854 0
M  V30 3345 H 307.426 -2.98643 -0.251526 0
M  V30 3346 H 304.987 -1.61897 0.00967373 0
M  V30 3347 H 306.979 -2.93891 -2.78227 0
M  V30 3348 H 305.549 -1.9259 -2.46227 0
M  V30 3349 H 304.769 -3.84262 -0.879581 0
M  V30 3350 H 306.057 -4.83445 -1.58614 0
M  V30 3351 H 305.455 -3.47631 -4.46283 0
M  V30 3352 H 304.012 -4.30165 -4.89695 0
M  V30 3353 N 307.445 0.0818655 -1.57387 0
M  V30 3354 C 308.377 1.12484 -1.997 0
M  V30 3355 C 309.39 1.35564 -0.90146 0
M  V30 3356 O 310.579 1.33982 -1.17945 0
M  V30 3357 C 307.679 2.47778 -2.31213 0
M  V30 3358 C 306.852 2.44793 -3.62485 0
M  V30 3359 C 305.911 3.62117 -3.81782 0
M  V30 3360 O 304.937 3.44005 -4.53486 0
M  V30 3361 N 306.139 4.82094 -3.23367 0
M  V30 3362 H 308.904 0.764585 -2.89783 0
M  V30 3363 H 306.465 0.270664 -1.59621 0
M  V30 3364 H 308.457 3.24891 -2.41304 0
M  V30 3365 H 307.027 2.75843 -1.4707 0
M  V30 3366 H 306.247 1.53134 -3.6324 0
M  V30 3367 H 307.535 2.39889 -4.48699 0
M  V30 3368 H 306.933 4.99713 -2.65148 0
M  V30 3369 H 305.49 5.56753 -3.38923 0
M  V30 3370 N 308.923 1.53595 0.353017 0
M  V30 3371 C 310.171 1.70049 1.09215 0
M  V30 3372 C 310.492 0.461406 1.89463 0
M  V30 3373 O 309.762 -0.524633 1.88744 0
M  V30 3374 H 308.342 0.626912 0.40619 0
M  V30 3375 H 311.004 1.90822 0.396585 0
M  V30 3376 H 310.1 2.56718 1.77488 0
M  V30 3377 N 310.401 -0.613514 1.45168 0
M  V30 3378 C 311.331 -1.7354 1.56225 0
M  V30 3379 C 312.312 -1.64981 0.41414 0
M  V30 3380 O 313.497 -1.83472 0.636526 0
M  V30 3381 C 310.627 -3.12128 1.52295 0
M  V30 3382 C 309.581 -3.35491 2.65762 0
M  V30 3383 C 308.907 -4.74291 2.46885 0
M  V30 3384 C 310.207 -3.26325 4.0781 0
M  V30 3385 H 311.901 -1.64543 2.50132 0
M  V30 3386 H 309.447 -0.790185 1.20383 0
M  V30 3387 H 311.4 -3.90404 1.58628 0
M  V30 3388 H 310.124 -3.2195 0.549139 0
M  V30 3389 H 308.783 -2.59603 2.58847 0
M  V30 3390 H 308.431 -4.80839 1.47657 0
M  V30 3391 H 308.131 -4.9088 3.22972 0
M  V30 3392 H 309.655 -5.54775 2.55063 0
M  V30 3393 H 311.069 -3.94483 4.16 0
M  V30 3394 H 309.466 -3.54445 4.8424 0
M  V30 3395 H 310.536 -2.23855 4.30136 0
M  V30 3396 N 311.879 -1.3236 -0.855495 0
M  V30 3397 C 313.109 -1.25688 -1.6397 0
M  V30 3398 C 313.517 0.177592 -1.88365 0
M  V30 3399 O 312.86 1.12485 -1.45234 0
M  V30 3400 C 312.922 -1.94602 -3.02275 0
M  V30 3401 C 312.586 -3.43937 -3.00926 0
M  V30 3402 C 313.583 -4.39435 -2.77835 0
M  V30 3403 C 311.268 -3.85858 -3.21588 0
M  V30 3404 C 313.262 -5.74829 -2.75409 0
M  V30 3405 C 310.949 -5.21361 -3.18789 0
M  V30 3406 C 311.947 -6.15658 -2.95727 0
M  V30 3407 O 311.635 -7.48681 -2.928 0
M  V30 3408 H 311.367 -0.434972 -0.51747 0
M  V30 3409 H 313.921 -1.75023 -1.075 0
M  V30 3410 H 312.151 -1.39836 -3.60531 0
M  V30 3411 H 313.84 -1.81651 -3.62985 0
M  V30 3412 H 314.606 -4.08374 -2.6164 0
M  V30 3413 H 310.485 -3.12883 -3.38564 0
M  V30 3414 H 314.029 -6.48404 -2.57328 0
M  V30 3415 H 309.926 -5.52052 -3.34528 0
M  V30 3416 H 310.694 -7.5803 -3.0876 0
M  V30 3417 N 313.357 1.07166 -1.15556 0
M  V30 3418 C 314.773 1.31899 -0.898603 0
M  V30 3419 C 314.973 1.96333 0.453383 0
M  V30 3420 O 314.029 2.22438 1.19489 0
M  V30 3421 C 315.342 2.20826 -2.04099 0
M  V30 3422 C 316.89 2.34269 -2.07574 0
M  V30 3423 C 317.365 3.26546 -3.21141 0
M  V30 3424 N 318.856 3.34127 -3.20801 0
M  V30 3425 C 319.591 4.05595 -4.05315 0
M  V30 3426 N 319.087 4.79661 -4.99897 0
M  V30 3427 N 320.88 4.01555 -3.93332 0
M  V30 3428 H 313.031 0.637302 -2.02613 0
M  V30 3429 H 315.294 0.343468 -0.883591 0
M  V30 3430 H 315 1.80744 -3.01703 0
M  V30 3431 H 314.874 3.21364 -1.97496 0
M  V30 3432 H 317.261 2.73603 -1.10568 0
M  V30 3433 H 317.342 1.33429 -2.18244 0
M  V30 3434 H 316.986 2.87931 -4.184 0
M  V30 3435 H 316.916 4.27345 -3.07708 0
M  V30 3436 H 319.407 2.81336 -2.52306 0
M  V30 3437 H 319.72 5.31694 -5.60822 0
M  V30 3438 H 318.065 4.78671 -5.03884 0
M  V30 3439 H 321.256 3.42806 -3.18751 0
M  V30 3440 H 321.429 4.56987 -4.5942 0
M  V30 3441 O 314.874 1.08282 1.19822 0
M  V30 3442 H 315.565 0.773615 1.77581 0
M  V30 END ATOM
M  V30 BEGIN BOND
M  V30 END BOND
M  V30 END CTAB
M  END
$$$$
