drugbank_target|Q9H306 Matrix metalloproteinase-27 (DB00786)
 OpenBabel12092120373D

  0  0  0     0  0            999 V3000
M  V30 BEGIN CTAB
M  V30 COUNTS 8292 8415 0 0 0
M  V30 BEGIN ATOM
M  V30 1 H -0.908 1.98254 -0.117106 0
M  V30 2 N 0 1.576 0 0
M  V30 3 C 0.933 2.03868 1.02534 0
M  V30 4 C 1.911 0.928543 1.3348 0
M  V30 5 O 3.095 1.19667 1.45644 0
M  V30 6 C 0.222 2.43627 2.35294 0
M  V30 7 C -0.732 3.65373 2.2001 0
M  V30 8 S 0.101 5.13292 1.52614 0
M  V30 9 C 1.257 5.56322 2.86805 0
M  V30 10 H 1.49 2.90518 0.631377 0
M  V30 11 H -0.977 1.52953 0.210867 0
M  V30 12 H 0.981 2.67203 3.11629 0
M  V30 13 H -0.358 1.57376 2.7183 0
M  V30 14 H -1.165 3.90944 3.18086 0
M  V30 15 H -1.563 3.418 1.51819 0
M  V30 16 H 0.729 5.58782 3.83104 0
M  V30 17 H 1.672 6.56266 2.65933 0
M  V30 18 H 2.08 4.83886 2.90714 0
M  V30 19 N 1.4781 -0.272755 1.55222 0
M  V30 20 C 2.4251 -1.33716 1.88119 0
M  V30 21 C 3.3951 -1.49066 0.73271 0
M  V30 22 O 4.5801 -1.63469 0.984002 0
M  V30 23 C 1.7201 -2.69238 2.15882 0
M  V30 24 C 0.8331 -2.62108 3.43399 0
M  V30 25 C -0.0319 -3.89811 3.60861 0
M  V30 26 C -0.9929 -3.77193 4.8207 0
M  V30 27 N -1.8559 -4.9673 4.96189 0
M  V30 28 H 2.9841 -1.04962 2.78903 0
M  V30 29 H 0.5211 -0.507088 1.38083 0
M  V30 30 H 2.4791 -3.48089 2.29978 0
M  V30 31 H 1.1091 -2.96194 1.28331 0
M  V30 32 H 0.1611 -1.74967 3.37773 0
M  V30 33 H 1.4731 -2.48685 4.32386 0
M  V30 34 H 0.6271 -4.77103 3.74777 0
M  V30 35 H -0.6339 -4.06102 2.7006 0
M  V30 36 H -1.6289 -2.88284 4.68159 0
M  V30 37 H -0.4039 -3.62421 5.74307 0
M  V30 38 H -2.4579 -5.13431 4.08319 0
M  V30 39 H -2.5409 -4.85839 5.79221 0
M  V30 40 H -1.2729 -5.85594 5.1449 0
M  V30 41 N 2.9562 -1.48159 -0.537278 0
M  V30 42 C 4.3722 -1.34118 -0.865129 0
M  V30 43 C 4.5722 -0.346678 -1.98495 0
M  V30 44 O 3.6282 0.234715 -2.51407 0
M  V30 45 C 4.9412 -2.73963 -1.23954 0
M  V30 46 C 6.4892 -2.82397 -1.34984 0
M  V30 47 C 6.9642 -4.22928 -1.75772 0
M  V30 48 N 8.4552 -4.25566 -1.82887 0
M  V30 49 C 9.1902 -5.31235 -2.15817 0
M  V30 50 N 8.6862 -6.47189 -2.47222 0
M  V30 51 N 10.4792 -5.18624 -2.16761 0
M  V30 52 H 2.6302 -2.1144 0.201715 0
M  V30 53 H 4.8932 -0.947598 0.0275949 0
M  V30 54 H 4.5992 -3.48264 -0.490381 0
M  V30 55 H 4.4732 -3.0702 -2.19132 0
M  V30 56 H 6.8602 -2.08356 -2.08978 0
M  V30 57 H 6.9412 -2.5297 -0.379448 0
M  V30 58 H 6.5852 -4.97482 -1.02341 0
M  V30 59 H 6.5152 -4.49794 -2.73848 0
M  V30 60 H 9.0062 -3.41924 -1.60924 0
M  V30 61 H 9.3192 -7.23564 -2.71433 0
M  V30 62 H 7.6642 -6.50476 -2.44757 0
M  V30 63 H 10.8552 -4.27056 -1.91679 0
M  V30 64 H 11.0282 -6.01078 -2.42093 0
M  V30 65 N 4.4343 0.785586 -1.36625 0
M  V30 66 C 5.3643 1.91259 -1.33949 0
M  V30 67 C 6.3453 1.68795 -0.210325 0
M  V30 68 O 7.5303 1.89854 -0.408561 0
M  V30 69 C 4.6603 3.28339 -1.13186 0
M  V30 70 C 3.6143 3.65335 -2.22967 0
M  V30 71 C 2.9403 5.00806 -1.87342 0
M  V30 72 C 4.2403 3.7352 -3.65075 0
M  V30 73 H 5.9343 1.93755 -2.28253 0
M  V30 74 H 3.4803 0.930788 -1.09874 0
M  V30 75 H 5.4333 4.06804 -1.09948 0
M  V30 76 H 4.1573 3.2624 -0.153332 0
M  V30 77 H 2.8163 2.89169 -2.25337 0
M  V30 78 H 2.4643 4.95233 -0.880545 0
M  V30 79 H 2.1643 5.26529 -2.60846 0
M  V30 80 H 3.6883 5.81687 -1.85667 0
M  V30 81 H 5.1023 4.42168 -3.64911 0
M  V30 82 H 3.4993 4.10731 -4.37516 0
M  V30 83 H 4.5693 2.74527 -3.99703 0
M  V30 84 N 5.9124 1.20967 1.01018 0
M  V30 85 C 6.8424 0.988272 2.11555 0
M  V30 86 C 7.8234 -0.0849778 1.69888 0
M  V30 87 O 9.0084 0.0738202 1.9406 0
M  V30 88 C 6.1384 0.546528 3.42973 0
M  V30 89 C 5.0924 1.56375 3.9841 0
M  V30 90 C 4.4184 0.97842 5.25672 0
M  V30 91 C 5.7184 2.94922 4.31066 0
M  V30 92 H 7.4124 1.91276 2.30334 0
M  V30 93 H 4.9584 0.921073 1.1069 0
M  V30 94 H 6.9114 0.378839 4.19694 0
M  V30 95 H 5.6354 -0.413598 3.23971 0
M  V30 96 H 4.2944 1.71891 3.23804 0
M  V30 97 H 3.9424 0.0101688 5.02999 0
M  V30 98 H 3.6424 1.65784 5.63728 0
M  V30 99 H 5.1664 0.821939 6.05043 0
M  V30 100 H 6.5804 2.8288 4.9865 0
M  V30 101 H 4.9774 3.5983 4.80253 0
M  V30 102 H 6.0474 3.4616 3.39561 0
M  V30 103 N 7.3905 -1.2043 1.01659 0
M  V30 104 C 8.3205 -2.25466 0.607226 0
M  V30 105 C 9.3015 -1.65853 -0.377716 0
M  V30 106 O 10.4865 -1.92409 -0.263149 0
M  V30 107 C 7.6165 -3.47256 -0.0552949 0
M  V30 108 C 6.5705 -4.19462 0.850632 0
M  V30 109 C 5.8965 -5.34673 0.0538859 0
M  V30 110 C 7.1965 -4.75603 2.15868 0
M  V30 111 H 8.8905 -2.59962 1.48526 0
M  V30 112 H 6.4365 -1.2496 0.715605 0
M  V30 113 H 8.3895 -4.19917 -0.353233 0
M  V30 114 H 7.1135 -3.11924 -0.968045 0
M  V30 115 H 5.7725 -3.48667 1.13257 0
M  V30 116 H 5.4205 -4.95585 -0.860514 0
M  V30 117 H 5.1205 -5.83913 0.657192 0
M  V30 118 H 6.6445 -6.10138 -0.237598 0
M  V30 119 H 8.0585 -5.40083 1.92311 0
M  V30 120 H 6.4555 -5.3528 2.71284 0
M  V30 121 H 7.5255 -3.94346 2.82169 0
M  V30 122 N 8.8686 -0.792821 -1.36206 0
M  V30 123 C 9.7986 -0.207853 -2.32573 0
M  V30 124 C 10.7796 0.659055 -1.56813 0
M  V30 125 O 11.9646 0.592176 -1.84951 0
M  V30 126 C 9.0946 0.655449 -3.41059 0
M  V30 127 C 8.0486 -0.111842 -4.27854 0
M  V30 128 C 7.3746 0.872274 -5.27537 0
M  V30 129 C 8.6746 -1.30299 -5.05786 0
M  V30 130 H 10.3686 -1.01294 -2.81744 0
M  V30 131 H 7.9146 -0.48854 -1.3546 0
M  V30 132 H 9.8676 1.07464 -4.07467 0
M  V30 133 H 8.5916 1.49328 -2.90463 0
M  V30 134 H 7.2506 -0.512053 -3.63006 0
M  V30 135 H 6.8986 1.70523 -4.73214 0
M  V30 136 H 6.5986 0.363291 -5.86476 0
M  V30 137 H 8.1226 1.28996 -5.96818 0
M  V30 138 H 9.5366 -0.959379 -5.65216 0
M  V30 139 H 7.9336 -1.7455 -5.74154 0
M  V30 140 H 9.0036 -2.09663 -4.37229 0
M  V30 141 N 10.3467 1.47872 -0.545128 0
M  V30 142 C 11.5937 2.02493 -0.0165858 0
M  V30 143 C 11.9217 1.42073 1.32836 0
M  V30 144 O 11.1767 0.561459 1.87473 0
M  V30 145 C 11.4757 3.57131 0.13867 0
M  V30 146 C 11.1417 4.36411 -1.13384 0
M  V30 147 C 9.8037 4.57792 -1.48256 0
M  V30 148 C 12.1557 4.82223 -1.97764 0
M  V30 149 C 9.4837 5.22233 -2.67376 0
M  V30 150 C 11.8357 5.47977 -3.16076 0
M  V30 151 C 10.4997 5.67593 -3.51275 0
M  V30 152 H 9.7697 0.740975 -0.00606918 0
M  V30 153 H 12.4167 1.77683 -0.714207 0
M  V30 154 H 10.7217 3.80865 0.919172 0
M  V30 155 H 12.4187 3.97031 0.562782 0
M  V30 156 H 9.0087 4.2004 -0.852297 0
M  V30 157 H 13.1927 4.65493 -1.72132 0
M  V30 158 H 8.4487 5.35616 -2.94831 0
M  V30 159 H 12.6227 5.8244 -3.81755 0
M  V30 160 H 10.2497 6.17298 -4.43675 0
M  V30 161 N 11.8248 0.280983 1.55075 0
M  V30 162 C 12.7548 -0.597469 2.25727 0
M  V30 163 C 13.7358 -1.15417 1.24952 0
M  V30 164 O 14.9208 -1.18722 1.53684 0
M  V30 165 C 12.0508 -1.7789 2.98283 0
M  V30 166 C 11.0048 -1.35347 4.06036 0
M  V30 167 C 10.3308 -2.61846 4.66198 0
M  V30 168 C 11.6308 -0.499354 5.19907 0
M  V30 169 H 13.3248 -0.00824265 2.99399 0
M  V30 170 H 10.8708 -0.0025244 1.44 0
M  V30 171 H 12.8238 -2.39937 3.46422 0
M  V30 172 H 11.5478 -2.39405 2.22155 0
M  V30 173 H 10.2068 -0.756156 3.58717 0
M  V30 174 H 9.8548 -3.21632 3.86732 0
M  V30 175 H 9.5548 -2.3409 5.38958 0
M  V30 176 H 11.0788 -3.24732 5.1709 0
M  V30 177 H 12.4928 -1.02498 5.64063 0
M  V30 178 H 10.8898 -0.316424 5.99265 0
M  V30 179 H 11.9598 0.480459 4.82514 0
M  V30 180 N 13.3029 -1.57598 0.00835791 0
M  V30 181 C 14.5499 -1.90928 -0.674732 0
M  V30 182 C 14.8779 -0.88277 -1.73313 0
M  V30 183 O 14.1329 0.111294 -1.95383 0
M  V30 184 C 14.4319 -3.3101 -1.34787 0
M  V30 185 C 14.0979 -4.48922 -0.421861 0
M  V30 186 C 12.7599 -4.8091 -0.166927 0
M  V30 187 C 15.1119 -5.20755 0.215211 0
M  V30 188 C 12.4399 -5.821 0.733232 0
M  V30 189 C 14.7919 -6.22905 1.1033 0
M  V30 190 C 13.4559 -6.53346 1.36733 0
M  V30 191 H 12.7259 -0.698656 -0.246902 0
M  V30 192 H 15.3729 -1.91387 0.0656779 0
M  V30 193 H 13.6779 -3.26714 -2.16253 0
M  V30 194 H 15.3749 -3.54061 -1.8826 0
M  V30 195 H 11.9649 -4.23934 -0.630729 0
M  V30 196 H 16.1489 -4.9629 0.0312829 0
M  V30 197 H 11.4049 -6.04042 0.945712 0
M  V30 198 H 15.5789 -6.77694 1.60325 0
M  V30 199 H 13.2059 -7.31573 2.06652 0
M  V30 200 N 14.781 0.264519 -1.55364 0
M  V30 201 C 16.028 0.994986 -1.7637 0
M  V30 202 C 16.356 1.85976 -0.5695 0
M  V30 203 O 15.611 1.90509 0.44776 0
M  V30 204 C 15.91 1.9004 -3.02687 0
M  V30 205 C 15.576 1.19243 -4.34847 0
M  V30 206 C 14.238 0.996709 -4.70764 0
M  V30 207 C 16.59 0.689296 -5.16622 0
M  V30 208 C 13.918 0.285261 -5.86006 0
M  V30 209 C 16.27 -0.00860079 -6.32599 0
M  V30 210 C 14.934 -0.215963 -6.67151 0
M  V30 211 H 14.204 0.364091 -0.645383 0
M  V30 212 H 16.851 0.266543 -1.89636 0
M  V30 213 H 15.156 2.69533 -2.84357 0
M  V30 214 H 16.853 2.46695 -3.16137 0
M  V30 215 H 13.443 1.3549 -4.06621 0
M  V30 216 H 17.627 0.828108 -4.89342 0
M  V30 217 H 12.883 0.113961 -6.11294 0
M  V30 218 H 17.057 -0.406186 -6.95214 0
M  V30 219 H 14.684 -0.769217 -7.56298 0
M  V30 220 N 16.2591 1.48442 0.529413 0
M  V30 221 C 17.5081 1.55742 1.28169 0
M  V30 222 C 17.8211 0.236511 1.94165 0
M  V30 223 O 19.0271 0.187761 2.7085 0
M  V30 224 C 17.4831 2.74667 2.32564 0
M  V30 225 C 17.0911 4.13402 1.72636 0
M  V30 226 C 18.8351 2.9128 3.08798 0
M  V30 227 C 16.7421 5.23587 2.74975 0
M  V30 228 H 15.6721 0.579796 0.48203 0
M  V30 229 H 18.3231 1.74776 0.559056 0
M  V30 230 H 16.7051 2.49067 3.07866 0
M  V30 231 H 17.8791 4.49022 1.03519 0
M  V30 232 H 16.1941 4.0191 1.08892 0
M  V30 233 H 18.7911 3.70767 3.85274 0
M  V30 234 H 19.1341 2.00757 3.64695 0
M  V30 235 H 19.6671 3.16782 2.40611 0
M  V30 236 H 16.4061 6.16076 2.23897 0
M  V30 237 H 15.9261 4.92454 3.42417 0
M  V30 238 H 17.6051 5.51724 3.37949 0
M  V30 239 N 17.7372 -0.778329 1.37039 0
M  V30 240 C 18.9652 -1.56734 1.35063 0
M  V30 241 C 19.3802 -1.88686 -0.0655597 0
M  V30 242 O 18.7372 -1.5096 -1.02554 0
M  V30 243 C 18.7882 -2.88163 2.18276 0
M  V30 244 O 18.5092 -2.57583 3.54376 0
M  V30 245 C 20.0102 -3.82422 2.24206 0
M  V30 246 H 17.2302 -0.485778 0.462883 0
M  V30 247 H 19.7742 -0.965185 1.8029 0
M  V30 248 H 17.9292 -3.44818 1.76576 0
M  V30 249 H 18.3432 -3.41699 3.97922 0
M  V30 250 H 19.8172 -4.71667 2.86765 0
M  V30 251 H 20.2942 -4.21078 1.24861 0
M  V30 252 H 20.9002 -3.31697 2.6619 0
M  V30 253 N 19.2153 -1.21501 -1.00376 0
M  V30 254 C 20.4623 -1.03299 -1.74171 0
M  V30 255 C 20.7903 0.433326 -1.89612 0
M  V30 256 O 20.0453 1.33779 -1.42834 0
M  V30 257 C 20.3443 -1.67673 -3.15627 0
M  V30 258 C 20.0103 -3.17533 -3.2013 0
M  V30 259 C 18.6723 -3.58427 -3.21067 0
M  V30 260 C 21.0243 -4.13504 -3.17275 0
M  V30 261 C 18.3523 -4.93794 -3.16835 0
M  V30 262 C 20.7043 -5.48834 -3.14585 0
M  V30 263 C 19.3683 -5.89123 -3.13831 0
M  V30 264 H 18.6383 -0.377999 -0.637336 0
M  V30 265 H 21.2853 -1.51111 -1.17634 0
M  V30 266 H 19.5903 -1.12158 -3.75404 0
M  V30 267 H 21.2873 -1.51091 -3.71446 0
M  V30 268 H 17.8773 -2.84965 -3.20145 0
M  V30 269 H 22.0613 -3.82936 -3.15711 0
M  V30 270 H 17.3173 -5.24255 -3.1459 0
M  V30 271 H 21.4913 -6.22934 -3.1133 0
M  V30 272 H 19.1183 -6.93984 -3.10307 0
M  V30 273 N 20.6934 1.19889 -1.02296 0
M  V30 274 C 21.9184 1.9393 -0.735237 0
M  V30 275 C 22.3434 1.74639 0.698782 0
M  V30 276 O 21.7014 1.04481 1.48167 0
M  V30 277 C 21.7494 3.43916 -1.08417 0
M  V30 278 O 20.8534 4.11917 -0.199446 0
M  V30 279 H 20.1944 0.605645 -0.272196 0
M  V30 280 H 22.7244 1.52137 -1.36804 0
M  V30 281 H 22.7344 3.9456 -1.03856 0
M  V30 282 H 21.4094 3.5728 -2.12894 0
M  V30 283 H 19.9864 3.71666 -0.303136 0
M  V30 284 N 22.1715 0.800033 1.35784 0
M  V30 285 C 23.3965 0.388511 2.03729 0
M  V30 286 C 23.8215 -0.990481 1.5991 0
M  V30 287 O 23.1795 -1.64013 0.772612 0
M  V30 288 C 23.2275 0.4726 3.5749 0
M  V30 289 O 22.3315 -0.51646 4.09153 0
M  V30 290 H 21.6725 0.163271 0.643614 0
M  V30 291 H 24.2025 1.0841 1.73518 0
M  V30 292 H 24.2125 0.34003 4.06581 0
M  V30 293 H 22.8875 1.47848 3.88734 0
M  V30 294 H 21.4645 -0.344673 3.71304 0
M  V30 295 N 23.6496 -1.47581 0.552962 0
M  V30 296 C 24.6126 -2.28439 -0.186605 0
M  V30 297 C 25.6126 -1.36706 -0.84665 0
M  V30 298 O 26.8026 -1.59378 -0.703164 0
M  V30 299 C 23.9346 -3.16264 -1.2724 0
M  V30 300 H 25.1276 -2.95294 0.523609 0
M  V30 301 H 22.6806 -1.532 0.309745 0
M  V30 302 H 23.4156 -2.54091 -2.01514 0
M  V30 303 H 23.2006 -3.83769 -0.803968 0
M  V30 304 H 24.6906 -3.77198 -1.79196 0
M  V30 305 N 25.1277 -0.289203 -1.54924 0
M  V30 306 C 26.3747 0.323519 -1.99899 0
M  V30 307 C 26.7027 1.54797 -1.17762 0
M  V30 308 O 25.9577 1.94237 -0.238835 0
M  V30 309 C 26.2567 0.736119 -3.49737 0
M  V30 310 C 25.9227 -0.385276 -4.49251 0
M  V30 311 C 24.5847 -0.693156 -4.76181 0
M  V30 312 C 26.9367 -1.14021 -5.08575 0
M  V30 313 C 24.2647 -1.7593 -5.59701 0
M  V30 314 C 26.6167 -2.19619 -5.93254 0
M  V30 315 C 25.2807 -2.51026 -6.185 0
M  V30 316 H 24.5507 0.118384 -0.731482 0
M  V30 317 H 27.1977 -0.405847 -1.8715 0
M  V30 318 H 25.5027 1.54539 -3.60035 0
M  V30 319 H 27.1997 1.22118 -3.81953 0
M  V30 320 H 23.7897 -0.135202 -4.28387 0
M  V30 321 H 27.9737 -0.915611 -4.87781 0
M  V30 322 H 23.2297 -2.0075 -5.77503 0
M  V30 323 H 27.4037 -2.78581 -6.38252 0
M  V30 324 H 25.0307 -3.33772 -6.83008 0
M  V30 325 N 26.6058 1.57591 -0.0167156 0
M  V30 326 C 28.0168 1.79201 0.523834 0
M  V30 327 C 28.3678 0.925796 1.72984 0
M  V30 328 O 27.4928 0.132792 2.15992 0
M  V30 329 C 28.0878 3.25 0.957091 0
M  V30 330 C 26.6468 3.47648 1.44283 0
M  V30 331 C 25.7938 2.74374 0.401757 0
M  V30 332 H 28.7448 1.56831 -0.242816 0
M  V30 333 H 28.7658 3.34031 1.82219 0
M  V30 334 H 28.2778 3.88019 0.0791415 0
M  V30 335 H 26.3788 2.89866 2.34113 0
M  V30 336 H 26.4918 4.56352 1.45877 0
M  V30 337 H 24.8558 2.39485 0.867121 0
M  V30 338 H 25.6388 3.40102 -0.467513 0
M  V30 339 N 28.0839 -0.256276 1.55502 0
M  V30 340 C 29.0139 -1.32102 1.92539 0
M  V30 341 C 29.9949 -1.50684 0.789194 0
M  V30 342 O 31.1799 -1.63449 1.04872 0
M  V30 343 C 28.3099 -2.67752 2.21192 0
M  V30 344 C 27.2639 -2.63878 3.36975 0
M  V30 345 C 26.5899 -4.03236 3.51147 0
M  V30 346 C 27.8899 -2.21682 4.72921 0
M  V30 347 H 29.5839 -1.01351 2.81724 0
M  V30 348 H 27.1299 -0.486105 1.35547 0
M  V30 349 H 29.0829 -3.42365 2.45691 0
M  V30 350 H 27.8069 -3.0012 1.28824 0
M  V30 351 H 26.4659 -1.91722 3.12471 0
M  V30 352 H 26.1139 -4.32854 2.56216 0
M  V30 353 H 25.8139 -4.01535 4.29003 0
M  V30 354 H 27.3379 -4.79563 3.77957 0
M  V30 355 H 28.7519 -2.86023 4.96854 0
M  V30 356 H 27.1489 -2.3111 5.53812 0
M  V30 357 H 28.2189 -1.16833 4.70615 0
M  V30 358 N 29.562 -1.4872 -0.521534 0
M  V30 359 C 30.808 -1.574 -1.27879 0
M  V30 360 C 31.141 -0.250817 -1.92573 0
M  V30 361 O 30.416 0.743934 -1.79711 0
M  V30 362 C 30.699 -2.71843 -2.36164 0
M  V30 363 C 30.552 -4.13893 -1.76105 0
M  V30 364 C 31.871 -2.82008 -3.37875 0
M  V30 365 H 28.99 -0.572941 -0.463581 0
M  V30 366 H 31.632 -1.80927 -0.580119 0
M  V30 367 H 29.782 -2.51914 -2.95756 0
M  V30 368 H 31.454 -4.45284 -1.20499 0
M  V30 369 H 29.697 -4.20498 -1.06601 0
M  V30 370 H 30.368 -4.89804 -2.5455 0
M  V30 371 H 32.844 -3.00086 -2.88249 0
M  V30 372 H 31.72 -3.63796 -4.11028 0
M  V30 373 H 31.981 -1.90511 -3.98946 0
M  V30 374 N 31.0401 0.771051 -1.3745 0
M  V30 375 C 32.4561 1.07171 -1.18265 0
M  V30 376 C 32.6561 2.01491 -0.019287 0
M  V30 377 O 31.7121 2.44244 0.640408 0
M  V30 378 C 33.0251 1.66854 -2.50161 0
M  V30 379 C 34.5731 1.79109 -2.56689 0
M  V30 380 C 35.0481 2.42205 -3.88717 0
M  V30 381 N 36.5391 2.49655 -3.90162 0
M  V30 382 C 37.2741 2.9933 -4.8907 0
M  V30 383 N 36.7701 3.49172 -5.98374 0
M  V30 384 N 38.5631 2.9821 -4.76474 0
M  V30 385 H 30.7141 0.144796 -2.11906 0
M  V30 386 H 32.9771 0.126863 -0.939473 0
M  V30 387 H 32.6831 1.05017 -3.35655 0
M  V30 388 H 32.5571 2.6614 -2.673 0
M  V30 389 H 34.9441 2.40077 -1.71601 0
M  V30 390 H 35.0251 0.785757 -2.43433 0
M  V30 391 H 34.6691 1.81875 -4.74219 0
M  V30 392 H 34.5991 3.43345 -3.99276 0
M  V30 393 H 37.0901 2.14383 -3.11205 0
M  V30 394 H 37.4031 3.8548 -6.69795 0
M  V30 395 H 35.7481 3.47275 -6.02018 0
M  V30 396 H 38.9391 2.58572 -3.90203 0
M  V30 397 H 39.1121 3.36613 -5.53711 0
M  V30 398 N 32.5182 1.22032 0.997298 0
M  V30 399 C 33.4512 0.929735 2.08401 0
M  V30 400 C 34.4292 -0.125681 1.62114 0
M  V30 401 O 35.6132 0.00495409 1.88499 0
M  V30 402 C 32.7402 0.397488 3.3636 0
M  V30 403 C 31.7862 1.4369 4.01566 0
M  V30 404 S 32.6192 3.00874 4.42984 0
M  V30 405 C 33.7752 2.49276 5.74119 0
M  V30 406 H 34.0082 1.84998 2.32729 0
M  V30 407 H 31.5412 1.0509 1.13117 0
M  V30 408 H 33.4992 0.0969846 4.10385 0
M  V30 409 H 32.1602 -0.501571 3.10069 0
M  V30 410 H 31.3532 1.01427 4.93689 0
M  V30 411 H 30.9552 1.68588 3.33847 0
M  V30 412 H 33.2472 1.90242 6.50242 0
M  V30 413 H 34.1902 3.39872 6.21203 0
M  V30 414 H 34.5982 1.90714 5.31308 0
M  V30 415 N 33.9963 -1.19345 1.0293 0
M  V30 416 C 35.2243 -1.92997 0.745644 0
M  V30 417 C 35.6393 -1.75519 -0.695589 0
M  V30 418 O 34.9963 -1.07737 -1.47306 0
M  V30 419 C 35.0473 -3.44741 1.08792 0
M  V30 420 O 34.7683 -3.61658 2.47256 0
M  V30 421 C 36.2693 -4.35515 0.827129 0
M  V30 422 H 33.4893 -0.613042 0.272801 0
M  V30 423 H 36.0333 -1.51473 1.3739 0
M  V30 424 H 34.1883 -3.84097 0.504832 0
M  V30 425 H 34.6023 -4.55514 2.60015 0
M  V30 426 H 36.0763 -5.40589 1.11658 0
M  V30 427 H 36.5533 -4.38552 -0.238436 0
M  V30 428 H 37.1593 -4.01841 1.39297 0
M  V30 429 N 35.4744 -0.807222 -1.35358 0
M  V30 430 C 36.3844 -0.219594 -2.3357 0
M  V30 431 C 37.4004 0.637734 -1.61892 0
M  V30 432 O 38.5764 0.549336 -1.93763 0
M  V30 433 C 35.6414 0.62158 -3.41083 0
M  V30 434 C 34.7024 -0.256315 -4.28534 0
M  V30 435 C 33.9354 0.544807 -5.30912 0
M  V30 436 O 34.1584 1.77944 -5.41934 0
M  V30 437 O 33.0924 -0.0646478 -6.01865 0
M  V30 438 H 36.9184 -1.03208 -2.85625 0
M  V30 439 H 34.5034 -0.569025 -1.38139 0
M  V30 440 H 36.3854 1.10067 -4.06772 0
M  V30 441 H 35.0604 1.41165 -2.91297 0
M  V30 442 H 33.9674 -0.782559 -3.65823 0
M  V30 443 H 35.3004 -1.01034 -4.81719 0
M  V30 444 N 36.9525 1.47285 -0.560781 0
M  V30 445 C 37.9005 2.31756 0.197942 0
M  V30 446 C 38.8945 1.43146 0.905854 0
M  V30 447 O 40.1005 1.59891 0.826733 0
M  V30 448 H 36.4755 0.747438 0.0827049 0
M  V30 449 H 38.4465 2.9359 -0.533629 0
M  V30 450 C 37.1955 3.25874 1.21249 0
M  V30 451 H 36.5185 3.94023 0.67719 0
M  V30 452 H 37.9585 3.87803 1.71419 0
M  V30 453 C 36.4175 2.49651 2.26221 0
M  V30 454 O 36.9475 2.24355 3.33208 0
M  V30 455 N 35.1535 2.10597 2.00243 0
M  V30 456 H 34.7005 2.31369 1.13252 0
M  V30 457 H 34.6585 1.59913 2.70694 0
M  V30 458 N 38.4306 0.297415 1.54768 0
M  V30 459 C 39.3406 -0.58983 2.27064 0
M  V30 460 C 40.3566 -1.15144 1.30453 0
M  V30 461 O 41.5326 -1.17699 1.63428 0
M  V30 462 C 38.5976 -1.74714 2.9946 0
M  V30 463 C 37.6586 -1.21997 4.11601 0
M  V30 464 C 36.8916 -2.32212 4.80535 0
M  V30 465 O 37.1146 -3.52036 4.48806 0
M  V30 466 O 36.0486 -1.99106 5.68014 0
M  V30 467 H 39.8746 -0.00348199 3.037 0
M  V30 468 H 37.4596 0.0640035 1.49263 0
M  V30 469 H 39.3416 -2.42147 3.44881 0
M  V30 470 H 38.0166 -2.32016 2.25722 0
M  V30 471 H 36.9236 -0.511458 3.70587 0
M  V30 472 H 38.2566 -0.692419 4.87305 0
M  V30 473 N 39.9087 -1.5758 0.0250728 0
M  V30 474 C 40.8187 -2.1343 -0.973905 0
M  V30 475 C 41.8347 -1.08556 -1.35984 0
M  V30 476 O 43.0107 -1.40592 -1.44207 0
M  V30 477 C 40.0757 -2.64703 -2.23904 0
M  V30 478 C 39.1367 -3.84276 -1.91391 0
M  V30 479 C 38.3697 -4.33095 -3.11873 0
M  V30 480 O 38.5927 -3.81107 -4.24398 0
M  V30 481 O 37.5267 -5.24984 -2.94406 0
M  V30 482 H 41.3527 -2.99057 -0.529036 0
M  V30 483 H 38.9377 -1.48118 -0.195288 0
M  V30 484 H 40.8197 -2.97769 -2.98181 0
M  V30 485 H 39.4947 -1.82161 -2.6758 0
M  V30 486 H 38.4017 -3.56143 -1.14511 0
M  V30 487 H 39.7347 -4.67968 -1.52534 0
M  V30 488 N 41.3868 0.248026 -1.55636 0
M  V30 489 C 42.3348 1.32683 -1.91045 0
M  V30 490 C 43.3288 1.49883 -0.789401 0
M  V30 491 O 44.5348 1.51371 -0.974007 0
M  V30 492 H 40.9098 0.444272 -0.606734 0
M  V30 493 H 42.8808 1.00085 -2.81115 0
M  V30 494 C 41.6298 2.6755 -2.22064 0
M  V30 495 H 40.9528 2.55114 -3.07826 0
M  V30 496 H 42.3928 3.41912 -2.50743 0
M  V30 497 C 40.8518 3.20556 -1.0366 0
M  V30 498 O 41.3818 4.00695 -0.284016 0
M  V30 499 N 39.5878 2.78568 -0.82753 0
M  V30 500 H 39.1348 2.1351 -1.44123 0
M  V30 501 H 39.0928 3.14378 -0.0369803 0
M  V30 502 N 42.8649 1.48995 0.513639 0
M  V30 503 C 43.7979 1.59319 1.63379 0
M  V30 504 C 44.7759 0.442816 1.56454 0
M  V30 505 O 45.9599 0.656655 1.76693 0
M  V30 506 C 43.0869 1.5364 3.01848 0
M  V30 507 C 42.1329 2.7372 3.27078 0
M  V30 508 S 42.9659 4.35528 3.1157 0
M  V30 509 C 44.1219 4.32473 4.52458 0
M  V30 510 H 44.3549 2.54079 1.54374 0
M  V30 511 H 41.8879 1.3773 0.697849 0
M  V30 512 H 43.8459 1.51049 3.81699 0
M  V30 513 H 42.5069 0.601898 3.08279 0
M  V30 514 H 41.6999 2.6593 4.28132 0
M  V30 515 H 41.3019 2.73657 2.54927 0
M  V30 516 H 43.5939 4.03414 5.44301 0
M  V30 517 H 44.5369 5.33762 4.65299 0
M  V30 518 H 44.9449 3.62718 4.32546 0
M  V30 519 N 44.343 -0.763751 1.37857 0
M  V30 520 C 45.275 -1.88664 1.30148 0
M  V30 521 C 46.288 -1.61365 0.215685 0
M  V30 522 O 47.477 -1.72134 0.472459 0
M  V30 523 C 44.577 -3.24075 0.991396 0
M  V30 524 C 43.75 -3.78958 2.18426 0
M  V30 525 C 42.809 -4.92862 1.8432 0
M  V30 526 O 41.835 -5.08027 2.56704 0
M  V30 527 N 43.037 -5.75071 0.792081 0
M  V30 528 H 45.802 -1.95791 2.26905 0
M  V30 529 H 43.363 -0.943226 1.31586 0
M  V30 530 H 45.355 -3.97804 0.743935 0
M  V30 531 H 43.925 -3.12399 0.112122 0
M  V30 532 H 43.145 -2.96913 2.59299 0
M  V30 533 H 44.433 -4.12357 2.98058 0
M  V30 534 H 43.831 -5.65375 0.191595 0
M  V30 535 H 42.388 -6.48991 0.60449 0
M  V30 536 N 45.8211 -1.22559 -0.990812 0
M  V30 537 C 46.7511 -1.0218 -2.09956 0
M  V30 538 C 47.7321 0.0579394 -1.70001 0
M  V30 539 O 48.9171 -0.104684 -1.93918 0
M  V30 540 C 46.0471 -0.601023 -3.4206 0
M  V30 541 C 45.0011 -1.62694 -3.95872 0
M  V30 542 C 44.3271 -1.06193 -5.24049 0
M  V30 543 C 45.6271 -3.01743 -4.2632 0
M  V30 544 H 47.3211 -1.94916 -2.27262 0
M  V30 545 H 44.8671 -0.938566 -1.09211 0
M  V30 546 H 46.8201 -0.445561 -4.19038 0
M  V30 547 H 45.5441 0.362005 -3.24588 0
M  V30 548 H 44.2031 -1.77021 -3.21028 0
M  V30 549 H 43.8511 -0.0901903 -5.02919 0
M  V30 550 H 43.5511 -1.74732 -5.61019 0
M  V30 551 H 45.0751 -0.918092 -6.03658 0
M  V30 552 H 46.4891 -2.90777 -4.94087 0
M  V30 553 H 44.8861 -3.67425 -4.74467 0
M  V30 554 H 45.9561 -3.51518 -3.34011 0
M  V30 555 N 47.2992 1.18797 -1.03562 0
M  V30 556 C 48.2622 2.20464 -0.626769 0
M  V30 557 C 49.2622 1.57721 0.313173 0
M  V30 558 O 50.4522 1.73917 0.0992615 0
M  V30 559 C 47.5842 3.40802 0.0818498 0
M  V30 560 H 48.7772 2.58149 -1.5264 0
M  V30 561 H 46.3302 1.32593 -0.827578 0
M  V30 562 H 47.0652 3.08642 0.995518 0
M  V30 563 H 46.8502 3.8758 -0.593652 0
M  V30 564 H 48.3402 4.16092 0.354584 0
M  V30 565 N 48.7773 0.814389 1.34928 0
M  V30 566 C 49.7093 0.187834 2.28429 0
M  V30 567 C 50.7223 -0.617374 1.5064 0
M  V30 568 O 51.9113 -0.448454 1.72775 0
M  V30 569 C 49.0113 -0.755962 3.30361 0
M  V30 570 C 48.1843 0.00456686 4.374 0
M  V30 571 C 47.2433 -0.858876 5.19143 0
M  V30 572 O 46.2693 -0.306968 5.68372 0
M  V30 573 N 47.4713 -2.17988 5.38016 0
M  V30 574 H 50.2363 0.991105 2.82838 0
M  V30 575 H 47.7973 0.670561 1.4736 0
M  V30 576 H 49.7893 -1.338 3.81942 0
M  V30 577 H 48.3593 -1.46001 2.7641 0
M  V30 578 H 47.5793 0.767865 3.86649 0
M  V30 579 H 48.8673 0.528422 5.06049 0
M  V30 580 H 48.2653 -2.65212 4.99679 0
M  V30 581 H 46.8223 -2.71098 5.92747 0
M  V30 582 N 50.2554 -1.46986 0.568584 0
M  V30 583 C 51.2184 -2.28624 -0.162366 0
M  V30 584 C 52.2184 -1.37596 -0.832103 0
M  V30 585 O 53.4084 -1.60115 -0.68622 0
M  V30 586 C 50.5404 -3.17596 -1.23878 0
M  V30 587 H 51.7334 -2.94722 0.554899 0
M  V30 588 H 49.2864 -1.52863 0.325976 0
M  V30 589 H 50.0214 -2.56214 -1.98808 0
M  V30 590 H 49.8064 -3.846 -0.763219 0
M  V30 591 H 51.2964 -3.79078 -1.75185 0
M  V30 592 N 51.7335 -0.305618 -1.54608 0
M  V30 593 C 52.9635 0.304333 -2.04346 0
M  V30 594 C 53.3715 1.47715 -1.18224 0
M  V30 595 O 52.7145 1.82591 -0.201577 0
M  V30 596 C 52.7765 0.819031 -3.50046 0
M  V30 597 C 52.4405 -0.22912 -4.56425 0
M  V30 598 C 53.4375 -1.05914 -5.08997 0
M  V30 599 C 51.1225 -0.372148 -5.0092 0
M  V30 600 C 53.1165 -2.01809 -6.04609 0
M  V30 601 C 50.8035 -1.33454 -5.9635 0
M  V30 602 C 51.8015 -2.15599 -6.48079 0
M  V30 603 O 51.4895 -3.10205 -7.41639 0
M  V30 604 H 51.2215 0.0693996 -0.672428 0
M  V30 605 H 53.7755 -0.444548 -2.00532 0
M  V30 606 H 52.0055 1.61852 -3.51199 0
M  V30 607 H 53.6945 1.34537 -3.82955 0
M  V30 608 H 54.4605 -0.959538 -4.75413 0
M  V30 609 H 50.3395 0.257304 -4.60281 0
M  V30 610 H 53.8835 -2.65966 -6.44909 0
M  V30 611 H 49.7805 -1.43485 -6.29351 0
M  V30 612 H 50.5485 -3.05237 -7.59455 0
M  V30 613 N 53.2116 1.57565 -0.0334293 0
M  V30 614 C 54.1416 2.13511 0.945265 0
M  V30 615 C 55.1226 1.05231 1.33643 0
M  V30 616 O 56.3076 1.33084 1.41429 0
M  V30 617 C 53.4376 2.6657 2.22616 0
M  V30 618 C 52.3916 3.79676 1.97561 0
M  V30 619 C 51.7176 4.1918 3.31952 0
M  V30 620 C 53.0176 5.0557 1.31135 0
M  V30 621 H 54.7116 2.95538 0.479325 0
M  V30 622 H 52.2576 1.42166 0.229115 0
M  V30 623 H 54.2106 3.04344 2.91466 0
M  V30 624 H 52.9346 1.8171 2.71384 0
M  V30 625 H 51.5936 3.42347 1.31127 0
M  V30 626 H 51.2416 3.31296 3.78487 0
M  V30 627 H 50.9416 4.95402 3.15992 0
M  V30 628 H 52.4656 4.59541 4.02063 0
M  V30 629 H 53.8796 5.40903 1.89992 0
M  V30 630 H 52.2766 5.86818 1.25559 0
M  V30 631 H 53.3466 4.84062 0.284894 0
M  V30 632 N 54.6897 -0.239769 1.55765 0
M  V30 633 C 55.6377 -1.31668 1.91745 0
M  V30 634 C 56.6317 -1.49462 0.797338 0
M  V30 635 O 57.8377 -1.50852 0.982021 0
M  V30 636 H 54.2127 -0.441048 0.609082 0
M  V30 637 H 56.1837 -0.985923 2.81642 0
M  V30 638 C 54.9327 -2.66368 2.2348 0
M  V30 639 H 54.2557 -2.53478 3.09175 0
M  V30 640 H 55.6957 -3.40578 2.52553 0
M  V30 641 C 54.1547 -3.20002 1.05359 0
M  V30 642 O 54.6847 -4.00538 0.305261 0
M  V30 643 N 52.8907 -2.78126 0.842292 0
M  V30 644 H 52.4377 -2.12742 1.45253 0
M  V30 645 H 52.3957 -3.14354 0.053652 0
M  V30 646 N 56.1678 -1.49265 -0.50573 0
M  V30 647 C 57.0998 -1.617 -1.62437 0
M  V30 648 C 58.1128 -0.499924 -1.54934 0
M  V30 649 O 59.3018 -0.771785 -1.60953 0
M  V30 650 C 56.4018 -1.5533 -3.01207 0
M  V30 651 C 55.5748 -2.8249 -3.33943 0
M  V30 652 C 54.6338 -2.69238 -4.52103 0
M  V30 653 O 53.6598 -3.43167 -4.5412 0
M  V30 654 N 54.8618 -1.80468 -5.51735 0
M  V30 655 H 57.6268 -2.58177 -1.52199 0
M  V30 656 H 55.1878 -1.46294 -0.693511 0
M  V30 657 H 57.1798 -1.44125 -3.78167 0
M  V30 658 H 55.7498 -0.667297 -3.05395 0
M  V30 659 H 54.9698 -3.08081 -2.45926 0
M  V30 660 H 56.2578 -3.66802 -3.5261 0
M  V30 661 H 55.6558 -1.19653 -5.52901 0
M  V30 662 H 54.2128 -1.75188 -6.27816 0
M  V30 663 N 57.6459 0.756429 -1.3826 0
M  V30 664 C 58.8929 1.51547 -1.34312 0
M  V30 665 C 59.2209 1.94382 0.0677144 0
M  V30 666 O 58.4759 1.65514 1.04421 0
M  V30 667 C 58.7749 2.78313 -2.24224 0
M  V30 668 C 58.4409 2.54455 -3.72241 0
M  V30 669 C 57.1029 2.47657 -4.12576 0
M  V30 670 C 59.4549 2.3354 -4.65949 0
M  V30 671 C 56.7829 2.17956 -5.44713 0
M  V30 672 C 59.1349 2.05359 -5.9834 0
M  V30 673 C 57.7989 1.97016 -6.37762 0
M  V30 674 H 57.0689 0.55455 -0.491482 0
M  V30 675 H 59.7159 0.870039 -1.70595 0
M  V30 676 H 58.0209 3.47492 -1.80987 0
M  V30 677 H 59.7179 3.36259 -2.18474 0
M  V30 678 H 56.3079 2.60616 -3.40261 0
M  V30 679 H 60.4919 2.37772 -4.35635 0
M  V30 680 H 55.7479 2.10003 -5.74203 0
M  V30 681 H 59.9219 1.88179 -6.70494 0
M  V30 682 H 57.5489 1.73766 -7.40074 0
M  V30 683 N 59.124 1.23083 0.984299 0
M  V30 684 C 60.354 1.08556 1.75781 0
M  V30 685 C 60.762 -0.366171 1.85623 0
M  V30 686 O 60.105 -1.26524 1.33182 0
M  V30 687 C 60.167 1.63208 3.20318 0
M  V30 688 C 59.831 3.11922 3.33997 0
M  V30 689 C 60.828 4.09259 3.2063 0
M  V30 690 C 58.513 3.51552 3.58771 0
M  V30 691 C 60.507 5.4421 3.31835 0
M  V30 692 C 58.194 4.86649 3.69616 0
M  V30 693 C 59.192 5.82787 3.56157 0
M  V30 694 O 58.88 7.15431 3.66626 0
M  V30 695 H 58.612 0.380713 0.5586 0
M  V30 696 H 61.166 1.63321 1.2456 0
M  V30 697 H 59.396 1.0286 3.72769 0
M  V30 698 H 61.085 1.44216 3.79416 0
M  V30 699 H 61.851 3.79984 3.01392 0
M  V30 700 H 57.73 2.77239 3.6832 0
M  V30 701 H 61.274 6.1923 3.21247 0
M  V30 702 H 57.171 5.15601 3.88363 0
M  V30 703 H 57.939 7.23127 3.83445 0
M  V30 704 N 60.6021 -1.18246 1.0419 0
M  V30 705 C 61.8271 -1.92736 0.765996 0
M  V30 706 C 62.2521 -1.75728 -0.67091 0
M  V30 707 O 61.6101 -1.06825 -1.46486 0
M  V30 708 C 61.6581 -3.42148 1.13875 0
M  V30 709 O 60.7621 -4.11548 0.264954 0
M  V30 710 H 60.1031 -0.601238 0.281797 0
M  V30 711 H 62.6331 -1.49942 1.39207 0
M  V30 712 H 62.6431 -3.92858 1.1012 0
M  V30 713 H 61.3181 -3.53848 2.18551 0
M  V30 714 H 59.8951 -3.71137 0.362226 0
M  V30 715 N 62.0802 -0.821533 -1.34494 0
M  V30 716 C 63.0102 -0.257138 -2.3208 0
M  V30 717 C 63.9912 0.625645 -1.58176 0
M  V30 718 O 65.1762 0.552811 -1.86166 0
M  V30 719 C 62.3062 0.582958 -3.42372 0
M  V30 720 C 61.2602 -0.202571 -4.2752 0
M  V30 721 C 60.5862 0.760179 -5.29269 0
M  V30 722 C 61.8862 -1.40998 -5.02908 0
M  V30 723 H 63.5802 -1.07247 -2.79532 0
M  V30 724 H 61.1262 -0.517163 -1.34393 0
M  V30 725 H 63.0792 0.987972 -4.09655 0
M  V30 726 H 61.8032 1.43133 -2.93565 0
M  V30 727 H 60.4622 -0.588936 -3.61838 0
M  V30 728 H 60.1102 1.60447 -4.76724 0
M  V30 729 H 59.8102 0.238809 -5.87115 0
M  V30 730 H 61.3342 1.16308 -5.9942 0
M  V30 731 H 62.7482 -1.07905 -5.63054 0
M  V30 732 H 61.1452 -1.86689 -5.70322 0
M  V30 733 H 62.2152 -2.1889 -4.32684 0
M  V30 734 N 63.5583 1.46682 -0.576371 0
M  V30 735 C 64.4683 2.34032 0.163141 0
M  V30 736 C 65.4843 1.49367 0.892501 0
M  V30 737 O 66.6603 1.82252 0.857106 0
M  V30 738 C 63.7253 3.26435 1.16795 0
M  V30 739 C 62.7863 4.26998 0.443944 0
M  V30 740 C 62.0193 5.14986 1.40088 0
M  V30 741 O 62.2423 5.05785 2.637 0
M  V30 742 O 61.1763 5.94906 0.914917 0
M  V30 743 H 65.0023 2.98607 -0.55388 0
M  V30 744 H 62.5873 1.45554 -0.336821 0
M  V30 745 H 64.4693 3.83459 1.74748 0
M  V30 746 H 63.1443 2.64465 1.86655 0
M  V30 747 H 62.0513 3.7368 -0.177271 0
M  V30 748 H 63.3843 4.91736 -0.213566 0
M  V30 749 N 65.0364 0.313813 1.54444 0
M  V30 750 C 66.2854 -0.292519 1.99568 0
M  V30 751 C 66.5984 -1.54011 1.20582 0
M  V30 752 O 67.8044 -2.22183 1.56035 0
M  V30 753 C 66.2604 -0.571752 3.55329 0
M  V30 754 C 65.8684 0.658229 4.43138 0
M  V30 755 C 67.6124 -1.13857 4.08946 0
M  V30 756 C 65.5194 0.351439 5.90355 0
M  V30 757 H 64.4494 -0.113079 0.745472 0
M  V30 758 H 67.1004 0.424518 1.78522 0
M  V30 759 H 65.4824 -1.34872 3.72325 0
M  V30 760 H 66.6564 1.43403 4.37918 0
M  V30 761 H 64.9714 1.14458 4.0036 0
M  V30 762 H 67.5684 -1.38257 5.16516 0
M  V30 763 H 67.9114 -2.08489 3.6033 0
M  V30 764 H 68.4444 -0.423015 3.95544 0
M  V30 765 H 65.1834 1.26667 6.43145 0
M  V30 766 H 64.7034 -0.386842 5.98551 0
M  V30 767 H 66.3824 -0.0423134 6.46986 0
M  V30 768 N 66.5145 -1.57545 0.0417849 0
M  V30 769 C 67.4245 -2.14451 -0.951213 0
M  V30 770 C 68.4405 -1.09992 -1.34825 0
M  V30 771 O 69.6165 -1.42114 -1.42708 0
M  V30 772 C 66.6815 -2.67063 -2.21084 0
M  V30 773 C 65.7425 -3.86284 -1.87304 0
M  V30 774 C 64.9755 -4.36378 -3.07261 0
M  V30 775 O 65.1985 -3.85587 -4.20332 0
M  V30 776 O 64.1325 -5.28077 -2.88822 0
M  V30 777 H 67.9585 -2.99601 -0.497287 0
M  V30 778 H 65.5435 -1.48317 -0.179567 0
M  V30 779 H 67.4255 -3.00914 -2.95006 0
M  V30 780 H 66.1005 -1.84989 -2.65633 0
M  V30 781 H 65.0075 -3.57338 -1.10727 0
M  V30 782 H 66.3405 -4.6956 -1.47562 0
M  V30 783 N 67.9926 0.231505 -1.5589 0
M  V30 784 C 69.2406 0.955461 -1.78088 0
M  V30 785 C 69.5616 1.85262 -0.608533 0
M  V30 786 O 68.8316 1.92277 0.375035 0
M  V30 787 H 67.4116 0.355787 -0.656829 0
M  V30 788 H 70.0736 0.245751 -1.93344 0
M  V30 789 H 69.1696 1.56814 -2.69844 0
M  V30 790 N 69.4707 1.49531 0.497807 0
M  V30 791 C 70.4187 1.66926 1.61983 0
M  V30 792 C 71.4127 0.535167 1.60724 0
M  V30 793 O 72.6187 0.714896 1.65195 0
M  V30 794 H 68.9937 0.526415 0.537021 0
M  V30 795 H 70.9647 2.61098 1.44465 0
M  V30 796 C 69.7137 1.75602 3.00099 0
M  V30 797 H 69.0367 2.62244 3.01775 0
M  V30 798 H 70.4767 1.91807 3.78135 0
M  V30 799 C 68.9357 0.501543 3.33146 0
M  V30 800 O 69.4657 -0.371342 3.9998 0
M  V30 801 N 67.6717 0.363531 2.88317 0
M  V30 802 H 67.2187 1.07485 2.34104 0
M  V30 803 H 67.1767 -0.474728 3.10795 0
M  V30 804 N 70.9488 -0.749086 1.3866 0
M  V30 805 C 71.8988 -1.85368 1.32751 0
M  V30 806 C 72.8828 -1.59511 0.210945 0
M  V30 807 O 74.0748 -1.71255 0.447299 0
M  V30 808 C 71.2038 -3.23131 1.15935 0
M  V30 809 C 70.2898 -3.54864 2.32233 0
M  V30 810 N 70.6808 -3.57625 3.57684 0
M  V30 811 C 68.9788 -3.85154 2.24883 0
M  V30 812 C 69.6798 -3.86753 4.34508 0
M  V30 813 N 68.6558 -4.03812 3.63918 0
M  V30 814 H 72.4578 -1.85787 2.27729 0
M  V30 815 H 69.9718 -0.946658 1.31955 0
M  V30 816 H 71.9688 -4.02185 1.09786 0
M  V30 817 H 70.6288 -3.23961 0.218947 0
M  V30 818 H 71.6398 -3.39276 3.91295 0
M  V30 819 H 68.3168 -3.93672 1.39027 0
M  V30 820 H 69.7068 -3.95474 5.43185 0
M  V30 821 N 72.4269 -1.23603 -0.977757 0
M  V30 822 C 73.3569 -1.04401 -2.0886 0
M  V30 823 C 74.3379 0.0399052 -1.70053 0
M  V30 824 O 75.5229 -0.125246 -1.93796 0
M  V30 825 C 72.6529 -0.637269 -3.41403 0
M  V30 826 C 71.6069 -1.66883 -3.94124 0
M  V30 827 C 70.9329 -1.11745 -5.22893 0
M  V30 828 C 72.2329 -3.06247 -4.23096 0
M  V30 829 H 73.9269 -1.97316 -2.25182 0
M  V30 830 H 71.4729 -0.950096 -1.08209 0
M  V30 831 H 73.4259 -0.48998 -4.18542 0
M  V30 832 H 72.1499 0.327557 -3.24953 0
M  V30 833 H 70.8089 -1.80416 -3.19133 0
M  V30 834 H 70.4569 -0.143527 -5.02795 0
M  V30 835 H 70.1569 -1.80672 -5.59134 0
M  V30 836 H 71.6809 -0.982067 -6.02651 0
M  V30 837 H 73.0949 -2.96001 -4.90975 0
M  V30 838 H 71.4919 -3.72436 -4.70544 0
M  V30 839 H 72.5619 -3.55041 -3.30263 0
M  V30 840 N 73.905 1.17692 -1.04816 0
M  V30 841 C 75.151 1.88137 -0.75711 0
M  V30 842 C 75.484 1.80604 0.713841 0
M  V30 843 O 74.759 1.21146 1.52164 0
M  V30 844 C 75.042 3.38318 -1.2334 0
M  V30 845 C 74.895 3.54622 -2.76701 0
M  V30 846 C 76.214 4.32214 -0.829415 0
M  V30 847 H 73.333 0.683163 -0.27651 0
M  V30 848 H 75.975 1.38424 -1.30149 0
M  V30 849 H 74.125 3.80787 -0.770286 0
M  V30 850 H 75.797 3.21194 -3.31107 0
M  V30 851 H 74.04 2.97026 -3.16161 0
M  V30 852 H 74.711 4.60028 -3.05088 0
M  V30 853 H 77.187 3.97565 -1.22805 0
M  V30 854 H 76.063 5.35838 -1.19033 0
M  V30 855 H 76.324 4.41294 0.266891 0
M  V30 856 N 75.3831 0.828654 1.34056 0
M  V30 857 C 76.3151 0.212052 2.28217 0
M  V30 858 C 77.3281 -0.601362 1.51286 0
M  V30 859 O 78.5171 -0.430104 1.73241 0
M  V30 860 C 75.6171 -0.72088 3.31144 0
M  V30 861 C 74.7901 0.0509587 4.3737 0
M  V30 862 C 73.8491 -0.803766 5.20025 0
M  V30 863 O 72.8751 -0.246667 5.68665 0
M  V30 864 N 74.0771 -2.1227 5.40298 0
M  V30 865 H 76.8421 1.02105 2.81771 0
M  V30 866 H 74.4031 0.686153 1.46641 0
M  V30 867 H 76.3951 -1.29742 3.8334 0
M  V30 868 H 74.9651 -1.43061 2.77943 0
M  V30 869 H 74.1851 0.808831 3.85813 0
M  V30 870 H 75.4731 0.582065 5.0546 0
M  V30 871 H 74.8711 -2.59898 5.02464 0
M  V30 872 H 73.4281 -2.64796 5.95589 0
M  V30 873 N 76.8612 -1.46375 0.584142 0
M  V30 874 C 78.0862 -2.07268 0.0740405 0
M  V30 875 C 78.5112 -1.42979 -1.22223 0
M  V30 876 O 77.8692 -0.514092 -1.73859 0
M  V30 877 C 77.9172 -3.60518 -0.0767769 0
M  V30 878 O 77.0212 -3.96533 -1.13292 0
M  V30 879 H 76.3622 -0.660961 0.0634524 0
M  V30 880 H 78.8922 -1.87991 0.807492 0
M  V30 881 H 78.9022 -4.07021 -0.282489 0
M  V30 882 H 77.5772 -4.06702 0.86986 0
M  V30 883 H 76.1542 -3.61738 -0.905553 0
M  V30 884 N 78.3393 -0.321999 -1.54275 0
M  V30 885 C 79.2863 0.544664 -2.24281 0
M  V30 886 C 80.2563 1.1129 -1.23303 0
M  V30 887 O 81.4413 1.15354 -1.51981 0
M  V30 888 C 78.5813 1.70045 -3.00298 0
M  V30 889 C 77.6943 1.16159 -4.1609 0
M  V30 890 C 76.8293 2.28293 -4.79641 0
M  V30 891 C 75.8683 1.71648 -5.8754 0
M  V30 892 N 75.0053 2.77438 -6.44959 0
M  V30 893 H 79.8453 -0.0588907 -2.97942 0
M  V30 894 H 77.3823 -0.0408345 -1.47043 0
M  V30 895 H 79.3403 2.38054 -3.42616 0
M  V30 896 H 77.9703 2.27531 -2.28975 0
M  V30 897 H 77.0223 0.373092 -3.78566 0
M  V30 898 H 78.3343 0.707087 -4.93763 0
M  V30 899 H 77.4883 3.0421 -5.2492 0
M  V30 900 H 76.2273 2.77079 -4.01346 0
M  V30 901 H 75.2323 0.942282 -5.41665 0
M  V30 902 H 76.4573 1.23741 -6.67731 0
M  V30 903 H 74.4033 3.25519 -5.69538 0
M  V30 904 H 74.3203 2.36547 -7.1804 0
M  V30 905 H 75.5883 3.53189 -6.94894 0
M  V30 906 N 79.8174 1.5752 -0.0501392 0
M  V30 907 C 80.7654 2.12651 0.942459 0
M  V30 908 C 81.7594 1.05807 1.32292 0
M  V30 909 O 82.9654 1.24217 1.3027 0
M  V30 910 H 79.3404 0.679673 0.321789 0
M  V30 911 H 81.3114 2.94951 0.452356 0
M  V30 912 C 80.0604 2.68565 2.20836 0
M  V30 913 H 79.3834 3.50439 1.92439 0
M  V30 914 H 80.8234 3.10761 2.8845 0
M  V30 915 C 79.2824 1.62291 2.95234 0
M  V30 916 O 79.8124 1.03508 3.88135 0
M  V30 917 N 78.0184 1.33836 2.57946 0
M  V30 918 H 77.5654 1.81826 1.82475 0
M  V30 919 H 77.5234 0.629595 3.08032 0
M  V30 920 N 81.2955 -0.223234 1.56011 0
M  V30 921 C 82.7115 -0.572856 1.48965 0
M  V30 922 C 82.9115 -1.87225 0.74492 0
M  V30 923 O 81.9675 -2.50899 0.283896 0
M  V30 924 C 83.2805 -0.653646 2.9351 0
M  V30 925 C 84.8285 -0.744386 3.0402 0
M  V30 926 C 85.3035 -0.856535 4.49919 0
M  V30 927 N 86.7945 -0.9208 4.53955 0
M  V30 928 C 87.5295 -1.02726 5.64123 0
M  V30 929 N 87.0255 -1.09777 6.84047 0
M  V30 930 N 88.8185 -1.06226 5.51971 0
M  V30 931 H 80.9695 0.629462 2.02858 0
M  V30 932 H 83.2325 0.220621 0.921971 0
M  V30 933 H 82.9385 0.231518 3.50937 0
M  V30 934 H 82.8125 -1.51781 3.45315 0
M  V30 935 H 85.1995 -1.61999 2.46658 0
M  V30 936 H 85.2805 0.14541 2.55386 0
M  V30 937 H 84.9245 0.0146069 5.07898 0
M  V30 938 H 84.8545 -1.76172 4.96257 0
M  V30 939 H 87.3455 -0.876694 3.6759 0
M  V30 940 H 87.6585 -1.17872 7.63758 0
M  V30 941 H 86.0035 -1.06693 6.86762 0
M  V30 942 H 89.1945 -1.00382 4.5721 0
M  V30 943 H 89.3675 -1.14177 6.37862 0
M  V30 944 N 82.7736 -1.49793 -0.48987 0
M  V30 945 C 83.9986 -1.63836 -1.27172 0
M  V30 946 C 84.4236 -0.31402 -1.8546 0
M  V30 947 O 83.7816 0.719803 -1.66399 0
M  V30 948 C 83.8296 -2.71797 -2.36978 0
M  V30 949 O 82.9336 -2.31744 -3.41128 0
M  V30 950 H 82.2746 -0.547997 -0.37496 0
M  V30 951 H 84.8046 -1.96053 -0.585191 0
M  V30 952 H 84.8146 -2.94305 -2.82575 0
M  V30 953 H 83.4896 -3.67923 -1.93921 0
M  V30 954 H 82.0666 -2.1961 -3.01373 0
M  V30 955 N 84.2517 0.741722 -1.39055 0
M  V30 956 C 85.1817 1.869 -1.39966 0
M  V30 957 C 86.1627 1.6804 -0.26392 0
M  V30 958 O 87.3477 1.88458 -0.468755 0
M  V30 959 C 84.4777 3.24572 -1.23574 0
M  V30 960 C 83.4317 3.58056 -2.34477 0
M  V30 961 C 82.7577 4.94593 -2.0318 0
M  V30 962 C 84.0577 3.61716 -3.76774 0
M  V30 963 H 85.7517 1.86395 -2.34302 0
M  V30 964 H 83.2977 0.895361 -1.1278 0
M  V30 965 H 85.2507 4.031 -1.22834 0
M  V30 966 H 83.9747 3.25587 -0.257045 0
M  V30 967 H 82.6337 2.81854 -2.34423 0
M  V30 968 H 82.2817 4.92181 -1.03765 0
M  V30 969 H 81.9817 5.17964 -2.77465 0
M  V30 970 H 83.5057 5.75486 -2.04079 0
M  V30 971 H 84.9197 4.30335 -3.78794 0
M  V30 972 H 83.3167 3.96603 -4.50362 0
M  V30 973 H 84.3867 2.61672 -4.08235 0
M  V30 974 N 85.7298 1.2412 0.971189 0
M  V30 975 C 86.9788 1.07284 1.70801 0
M  V30 976 C 87.2918 -0.388902 1.91695 0
M  V30 977 O 88.4978 -0.677379 2.62914 0
M  V30 978 C 86.9538 1.87145 3.07416 0
M  V30 979 C 86.5618 3.37707 2.94377 0
M  V30 980 C 88.3058 1.78828 3.84995 0
M  V30 981 C 86.2128 4.09925 4.26281 0
M  V30 982 H 85.1428 0.397854 0.64049 0
M  V30 983 H 87.7938 1.4817 1.0825 0
M  V30 984 H 86.1758 1.39071 3.70777 0
M  V30 985 H 87.3498 3.93335 2.4005 0
M  V30 986 H 85.6648 3.46938 2.30267 0
M  V30 987 H 88.2618 2.30089 4.82662 0
M  V30 988 H 88.6048 0.75284 4.09436 0
M  V30 989 H 89.1378 2.24563 3.28354 0
M  V30 990 H 85.8768 5.13813 4.07033 0
M  V30 991 H 85.3968 3.59083 4.80437 0
M  V30 992 H 87.0758 4.1673 4.94919 0
M  V30 993 N 87.2079 -1.17134 1.05439 0
M  V30 994 C 88.4849 -1.83411 0.679699 0
M  V30 995 C 88.8649 -1.9368 -0.839726 0
M  V30 996 O 88.2129 -1.47325 -1.74664 0
M  V30 997 C 88.4229 -3.20918 1.37159 0
M  V30 998 C 89.7709 -3.96796 1.51123 0
M  V30 999 O 90.7949 -3.30406 1.3308 0
M  V30 1000 O 89.6539 -5.15778 1.80651 0
M  V30 1001 H 86.7479 -0.79154 0.239569 0
M  V30 1002 H 89.2939 -1.24411 1.15413 0
M  V30 1003 H 88.0659 -3.08428 2.40807 0
M  V30 1004 H 87.6889 -3.87587 0.886674 0
M  V30 1005 N 88.686 -0.835752 -1.33615 0
M  V30 1006 C 89.963 -0.352017 -1.92406 0
M  V30 1007 C 90.343 1.16225 -1.76224 0
M  V30 1008 O 89.691 1.97526 -1.14873 0
M  V30 1009 C 89.901 -0.795485 -3.39813 0
M  V30 1010 C 91.249 -0.801703 -4.16963 0
M  V30 1011 O 92.273 -0.738889 -3.48452 0
M  V30 1012 O 91.132 -0.886607 -5.3926 0
M  V30 1013 H 88.226 -0.0989641 -0.821057 0
M  V30 1014 H 90.772 -0.921397 -1.42507 0
M  V30 1015 H 89.544 -1.83795 -3.45449 0
M  V30 1016 H 89.167 -0.202505 -3.97084 0
M  V30 1017 N 90.1641 1.46063 -0.591896 0
M  V30 1018 C 91.1111 2.30399 0.136069 0
M  V30 1019 C 92.0811 1.41169 0.875238 0
M  V30 1020 O 93.2661 1.70112 0.86409 0
M  V30 1021 C 90.4061 3.25804 1.13781 0
M  V30 1022 C 89.5191 4.30134 0.401137 0
M  V30 1023 C 88.6541 5.12659 1.39121 0
M  V30 1024 C 87.6931 6.0873 0.641462 0
M  V30 1025 N 86.8301 6.8409 1.58004 0
M  V30 1026 H 91.6701 2.92118 -0.589144 0
M  V30 1027 H 89.2071 1.43959 -0.302342 0
M  V30 1028 H 91.1651 3.79569 1.73156 0
M  V30 1029 H 89.7951 2.65872 1.83062 0
M  V30 1030 H 88.8471 3.79152 -0.307826 0
M  V30 1031 H 90.1591 4.98458 -0.184565 0
M  V30 1032 H 89.3131 5.70747 2.05749 0
M  V30 1033 H 88.0521 4.44316 2.01084 0
M  V30 1034 H 87.0571 5.49786 -0.0385419 0
M  V30 1035 H 88.2821 6.79095 0.0270945 0
M  V30 1036 H 86.2281 6.18449 2.18761 0
M  V30 1037 H 86.1451 7.48709 1.04738 0
M  V30 1038 H 87.4131 7.4673 2.23639 0
M  V30 1039 N 91.6422 0.330177 1.54103 0
M  V30 1040 C 92.8912 -0.271336 1.99867 0
M  V30 1041 C 93.2042 -1.52723 1.22209 0
M  V30 1042 O 94.4102 -2.20515 1.58383 0
M  V30 1043 C 92.8662 -0.534032 3.55916 0
M  V30 1044 C 92.4742 0.705193 4.42415 0
M  V30 1045 C 94.2182 -1.09514 4.1013 0
M  V30 1046 C 92.1252 0.414035 5.89949 0
M  V30 1047 H 91.0552 -0.105166 0.74663 0
M  V30 1048 H 93.7062 0.443429 1.78062 0
M  V30 1049 H 92.0882 -1.30915 3.73734 0
M  V30 1050 H 93.2622 1.4804 4.36372 0
M  V30 1051 H 91.5772 1.18698 3.99124 0
M  V30 1052 H 94.1742 -1.3277 5.17954 0
M  V30 1053 H 94.5172 -2.04656 3.62521 0
M  V30 1054 H 95.0502 -0.381038 3.95971 0
M  V30 1055 H 91.7892 1.33481 6.41766 0
M  V30 1056 H 91.3092 -0.323336 5.98928 0
M  V30 1057 H 92.9882 0.0263105 6.46995 0
M  V30 1058 N 93.1203 -1.57491 0.0584922 0
M  V30 1059 C 94.5363 -1.56792 -0.298091 0
M  V30 1060 C 94.7363 -1.06679 -1.70944 0
M  V30 1061 O 93.7923 -0.726672 -2.41818 0
M  V30 1062 C 95.1053 -3.00461 -0.119879 0
M  V30 1063 C 96.6533 -3.1242 -0.190428 0
M  V30 1064 C 97.1283 -4.57982 -0.0406567 0
M  V30 1065 N 98.6193 -4.63099 -0.0966958 0
M  V30 1066 C 99.3543 -5.734 -0.00502943 0
M  V30 1067 N 98.8503 -6.9266 0.139402 0
M  V30 1068 N 100.643 -5.62067 -0.0611391 0
M  V30 1069 H 92.7943 -1.88386 0.98105 0
M  V30 1070 H 95.0573 -0.867865 0.381463 0
M  V30 1071 H 94.7633 -3.41187 0.85349 0
M  V30 1072 H 94.6373 -3.66843 -0.877833 0
M  V30 1073 H 97.0243 -2.71589 -1.15427 0
M  V30 1074 H 97.1053 -2.48702 0.598405 0
M  V30 1075 H 96.7493 -4.995 0.919897 0
M  V30 1076 H 96.6793 -5.19715 -0.848727 0
M  V30 1077 H 99.1703 -3.77331 -0.207277 0
M  V30 1078 H 99.4833 -7.72536 0.201855 0
M  V30 1079 H 97.8283 -6.94781 0.174586 0
M  V30 1080 H 101.019 -4.67782 -0.172583 0
M  V30 1081 H 101.192 -6.47999 0.0137562 0
M  V30 1082 N 94.5984 0.214957 -1.56127 0
M  V30 1083 C 95.5084 1.28727 -1.96129 0
M  V30 1084 C 96.5244 1.50916 -0.866044 0
M  V30 1085 O 97.7004 1.63918 -1.17016 0
M  V30 1086 C 94.7654 2.61569 -2.27558 0
M  V30 1087 C 93.8264 2.47625 -3.50685 0
M  V30 1088 C 93.0594 3.74132 -3.80606 0
M  V30 1089 O 93.2824 4.77438 -3.12104 0
M  V30 1090 O 92.2164 3.70849 -4.74083 0
M  V30 1091 H 96.0424 0.977855 -2.87527 0
M  V30 1092 H 93.6274 0.418358 -1.43423 0
M  V30 1093 H 95.5094 3.40012 -2.48938 0
M  V30 1094 H 94.1844 2.92178 -1.39332 0
M  V30 1095 H 93.0914 1.67361 -3.34576 0
M  V30 1096 H 94.4244 2.21954 -4.39315 0
M  V30 1097 N 96.0765 1.50051 0.48192 0
M  V30 1098 C 97.0095 1.62749 1.59963 0
M  V30 1099 C 97.9875 0.475903 1.5548 0
M  V30 1100 O 99.1715 0.693986 1.7526 0
M  V30 1101 C 96.2985 1.60008 2.98522 0
M  V30 1102 C 95.3445 2.80596 3.21198 0
M  V30 1103 S 96.1775 4.42038 3.02262 0
M  V30 1104 C 97.3335 4.41973 4.43182 0
M  V30 1105 H 97.5665 2.57296 1.4895 0
M  V30 1106 H 95.0995 1.39179 0.668477 0
M  V30 1107 H 97.0575 1.59112 3.78409 0
M  V30 1108 H 95.7185 0.667153 3.06933 0
M  V30 1109 H 94.9115 2.74952 4.22395 0
M  V30 1110 H 94.5135 2.79003 2.49065 0
M  V30 1111 H 96.8055 4.14868 5.35622 0
M  V30 1112 H 97.7485 5.43512 4.53873 0
M  V30 1113 H 98.1565 3.71812 4.24755 0
M  V30 1114 N 97.5546 -0.734337 1.39446 0
M  V30 1115 C 98.4866 -1.85861 1.34121 0
M  V30 1116 C 99.4996 -1.60871 0.249864 0
M  V30 1117 O 100.689 -1.71093 0.508865 0
M  V30 1118 C 97.7886 -3.21899 1.05991 0
M  V30 1119 C 96.9616 -3.74239 2.26415 0
M  V30 1120 C 96.0206 -4.88841 1.94733 0
M  V30 1121 O 95.0466 -5.02468 2.67422 0
M  V30 1122 N 96.2486 -5.73261 0.913884 0
M  V30 1123 H 99.0136 -1.90934 2.31007 0
M  V30 1124 H 96.5746 -0.915102 1.33557 0
M  V30 1125 H 98.5666 -3.96136 0.828147 0
M  V30 1126 H 97.1366 -3.12091 0.178361 0
M  V30 1127 H 96.3566 -2.91347 2.65539 0
M  V30 1128 H 97.6446 -4.05942 3.06738 0
M  V30 1129 H 97.0426 -5.64842 0.311476 0
M  V30 1130 H 95.5996 -6.47563 0.742015 0
M  V30 1131 N 99.0327 -1.24633 -0.964593 0
M  V30 1132 C 99.9957 -1.0424 -2.04124 0
M  V30 1133 C 100.996 0.00137563 -1.608 0
M  V30 1134 O 102.186 -0.239883 -1.7254 0
M  V30 1135 C 99.3177 -0.580588 -3.3592 0
M  V30 1136 H 100.511 -1.99803 -2.23649 0
M  V30 1137 H 98.0637 -1.06899 -1.14027 0
M  V30 1138 H 98.7987 0.3781 -3.22088 0
M  V30 1139 H 98.5837 -1.33398 -3.6871 0
M  V30 1140 H 100.074 -0.459034 -4.15069 0
M  V30 1141 N 100.511 1.16574 -1.06058 0
M  V30 1142 C 101.758 1.87047 -0.775873 0
M  V30 1143 C 102.086 1.81562 0.697534 0
M  V30 1144 O 101.341 1.22445 1.52662 0
M  V30 1145 C 101.64 3.36195 -1.21275 0
M  V30 1146 C 101.306 3.6188 -2.68986 0
M  V30 1147 C 99.9678 3.68599 -3.09335 0
M  V30 1148 C 102.32 3.72648 -3.64394 0
M  V30 1149 C 99.6478 3.83584 -4.43937 0
M  V30 1150 C 102 3.89154 -4.98741 0
M  V30 1151 C 100.664 3.94114 -5.3873 0
M  V30 1152 H 99.9338 0.684452 -0.283912 0
M  V30 1153 H 102.581 1.37853 -1.32925 0
M  V30 1154 H 100.886 3.87505 -0.578528 0
M  V30 1155 H 102.583 3.89103 -0.969542 0
M  V30 1156 H 99.1728 3.57281 -2.36744 0
M  V30 1157 H 103.357 3.66769 -3.34356 0
M  V30 1158 H 98.6128 3.85677 -4.74409 0
M  V30 1159 H 102.787 3.96427 -5.72554 0
M  V30 1160 H 100.414 4.05478 -6.43033 0
M  V30 1161 N 101.989 0.842826 1.3317 0
M  V30 1162 C 103.236 0.440447 1.97652 0
M  V30 1163 C 103.564 -1.00123 1.6675 0
M  V30 1164 O 102.819 -1.7155 0.941761 0
M  V30 1165 C 103.118 0.612607 3.52111 0
M  V30 1166 C 102.784 2.02297 4.02972 0
M  V30 1167 C 101.446 2.40874 4.16573 0
M  V30 1168 C 103.798 2.94402 4.30089 0
M  V30 1169 C 101.126 3.70852 4.54627 0
M  V30 1170 C 103.478 4.23865 4.69597 0
M  V30 1171 C 102.142 4.62392 4.81404 0
M  V30 1172 H 101.412 0.161171 0.72326 0
M  V30 1173 H 104.059 1.07061 1.58777 0
M  V30 1174 H 102.364 -0.100849 3.9167 0
M  V30 1175 H 104.061 0.2815 4.00011 0
M  V30 1176 H 100.651 1.71338 3.92863 0
M  V30 1177 H 104.835 2.65835 4.19101 0
M  V30 1178 H 100.091 4.00501 4.61962 0
M  V30 1179 H 104.265 4.95306 4.89536 0
M  V30 1180 H 101.892 5.63154 5.10648 0
M  V30 1181 N 103.467 -1.45747 0.599634 0
M  V30 1182 C 104.715 -2.01893 0.0915472 0
M  V30 1183 C 105.036 -1.47155 -1.27946 0
M  V30 1184 O 104.306 -0.66273 -1.84349 0
M  V30 1185 H 102.886 -0.746363 0.0308524 0
M  V30 1186 H 105.548 -1.78645 0.779237 0
M  V30 1187 H 104.644 -3.1208 0.0353086 0
M  V30 1188 N 104.945 -0.338344 -1.53925 0
M  V30 1189 C 105.875 0.51328 -2.27789 0
M  V30 1190 C 106.856 1.107 -1.29149 0
M  V30 1191 O 108.041 1.12937 -1.57984 0
M  V30 1192 C 105.171 1.66697 -3.04679 0
M  V30 1193 C 104.125 1.20183 -4.1078 0
M  V30 1194 C 103.451 2.44363 -4.75595 0
M  V30 1195 C 104.751 0.30605 -5.21403 0
M  V30 1196 H 106.445 -0.102883 -2.99223 0
M  V30 1197 H 103.991 -0.0509219 -1.4391 0
M  V30 1198 H 105.944 2.26915 -3.55088 0
M  V30 1199 H 104.668 2.30995 -2.30887 0
M  V30 1200 H 103.327 0.622499 -3.61276 0
M  V30 1201 H 102.975 3.07057 -3.98403 0
M  V30 1202 H 102.675 2.13925 -5.47275 0
M  V30 1203 H 104.199 3.05317 -5.28786 0
M  V30 1204 H 105.613 0.814929 -5.67478 0
M  V30 1205 H 104.01 0.0937929 -6.00027 0
M  V30 1206 H 105.08 -0.65921 -4.80398 0
M  V30 1207 N 106.423 1.57458 -0.0668435 0
M  V30 1208 C 107.651 1.97624 0.612565 0
M  V30 1209 C 108.066 0.94502 1.63447 0
M  V30 1210 O 107.423 -0.0689276 1.8237 0
M  V30 1211 C 107.474 3.37869 1.28555 0
M  V30 1212 O 107.195 4.3704 0.304557 0
M  V30 1213 C 108.696 3.92882 2.05325 0
M  V30 1214 H 105.916 0.650045 0.166381 0
M  V30 1215 H 108.46 2.04035 -0.137782 0
M  V30 1216 H 106.615 3.3256 1.98702 0
M  V30 1217 H 107.029 5.18565 0.786779 0
M  V30 1218 H 108.503 4.93247 2.47812 0
M  V30 1219 H 108.98 3.29156 2.9078 0
M  V30 1220 H 109.586 4.01577 1.40056 0
M  V30 1221 N 107.901 -0.206675 1.56239 0
M  V30 1222 C 109.147 -0.930218 1.80208 0
M  V30 1223 C 109.48 -1.83387 0.638981 0
M  V30 1224 O 108.755 -1.91119 -0.361066 0
M  V30 1225 C 109.038 -1.75641 3.1436 0
M  V30 1226 C 108.891 -0.878257 4.41142 0
M  V30 1227 C 110.21 -2.73129 3.45092 0
M  V30 1228 H 107.329 -0.336742 0.655571 0
M  V30 1229 H 109.971 -0.198222 1.88963 0
M  V30 1230 H 108.121 -2.38048 3.07027 0
M  V30 1231 H 109.793 -0.269787 4.6051 0
M  V30 1232 H 108.036 -0.184385 4.33408 0
M  V30 1233 H 108.707 -1.49106 5.3148 0
M  V30 1234 H 111.183 -2.20856 3.52649 0
M  V30 1235 H 110.059 -3.28028 4.40101 0
M  V30 1236 H 110.32 -3.51606 2.68003 0
M  V30 1237 N 109.379 -1.50304 -0.473955 0
M  V30 1238 C 110.607 -1.64902 -1.24959 0
M  V30 1239 C 111.022 -0.331198 -1.85872 0
M  V30 1240 O 110.379 0.68652 -1.69095 0
M  V30 1241 C 110.43 -2.73803 -2.36038 0
M  V30 1242 O 110.151 -4.00477 -1.77624 0
M  V30 1243 C 111.652 -2.99349 -3.26964 0
M  V30 1244 H 108.872 -0.554383 -0.378022 0
M  V30 1245 H 111.416 -1.9651 -0.566054 0
M  V30 1246 H 109.571 -2.44898 -3.00173 0
M  V30 1247 H 109.985 -4.60678 -2.5075 0
M  V30 1248 H 111.459 -3.79217 -4.01121 0
M  V30 1249 H 111.936 -2.10307 -3.85574 0
M  V30 1250 H 112.542 -3.29774 -2.68569 0
M  V30 1251 N 110.857 0.726932 -1.39834 0
M  V30 1252 C 112.105 1.4837 -1.37225 0
M  V30 1253 C 112.426 1.94979 0.0284857 0
M  V30 1254 O 111.696 1.69555 0.981213 0
M  V30 1255 H 110.276 0.55043 -0.505011 0
M  V30 1256 H 112.938 0.862468 -1.74778 0
M  V30 1257 H 112.034 2.36198 -2.04003 0
M  V30 1258 N 112.336 1.25143 0.95797 0
M  V30 1259 C 113.283 1.05235 2.05412 0
M  V30 1260 C 114.253 -0.0374561 1.66058 0
M  V30 1261 O 115.438 0.119073 1.90428 0
M  V30 1262 C 112.578 0.673589 3.38462 0
M  V30 1263 C 111.691 1.8379 3.90954 0
M  V30 1264 C 110.826 1.40381 5.12315 0
M  V30 1265 C 109.865 2.53746 5.57027 0
M  V30 1266 N 109.002 2.11136 6.69601 0
M  V30 1267 H 113.842 1.99048 2.21774 0
M  V30 1268 H 111.379 0.991277 1.08683 0
M  V30 1269 H 113.337 0.434964 4.14926 0
M  V30 1270 H 111.967 -0.227554 3.21997 0
M  V30 1271 H 111.019 2.18992 3.11041 0
M  V30 1272 H 112.331 2.68937 4.20089 0
M  V30 1273 H 111.485 1.12464 5.96185 0
M  V30 1274 H 110.224 0.523015 4.84887 0
M  V30 1275 H 109.229 2.82412 4.71724 0
M  V30 1276 H 110.454 3.42398 5.86464 0
M  V30 1277 H 108.4 1.25468 6.4389 0
M  V30 1278 H 108.317 2.89832 6.98236 0
M  V30 1279 H 109.585 1.86385 7.56889 0
M  V30 1280 N 113.814 -1.1601 1.06675 0
M  V30 1281 C 114.744 -2.22688 0.702307 0
M  V30 1282 C 115.725 -1.67306 -0.307032 0
M  V30 1283 O 116.91 -1.93352 -0.181305 0
M  V30 1284 C 114.04 -3.47178 0.092038 0
M  V30 1285 C 112.994 -4.15477 1.02777 0
M  V30 1286 C 112.32 -5.33963 0.28061 0
M  V30 1287 C 113.62 -4.66019 2.35846 0
M  V30 1288 H 115.314 -2.53429 1.59419 0
M  V30 1289 H 112.86 -1.21813 0.767961 0
M  V30 1290 H 114.813 -4.21037 -0.174814 0
M  V30 1291 H 113.537 -3.15749 -0.834877 0
M  V30 1292 H 112.196 -3.43549 1.27944 0
M  V30 1293 H 111.844 -4.98788 -0.649545 0
M  V30 1294 H 111.544 -5.806 0.904258 0
M  V30 1295 H 113.068 -6.10596 0.021396 0
M  V30 1296 H 114.482 -5.3144 2.15045 0
M  V30 1297 H 112.879 -5.23293 2.93743 0
M  V30 1298 H 113.949 -3.82023 2.98641 0
M  V30 1299 N 115.292 -0.849877 -1.32721 0
M  V30 1300 C 116.569 -0.372405 -1.92022 0
M  V30 1301 C 116.949 1.1435 -1.77447 0
M  V30 1302 O 116.297 1.96296 -1.16962 0
M  V30 1303 C 116.507 -0.831482 -3.3895 0
M  V30 1304 C 117.855 -0.845882 -4.16089 0
M  V30 1305 O 118.879 -0.775806 -3.47649 0
M  V30 1306 O 117.738 -0.943753 -5.38289 0
M  V30 1307 H 114.832 -0.107667 -0.819961 0
M  V30 1308 H 117.378 -0.93646 -1.41522 0
M  V30 1309 H 116.15 -1.87448 -3.4348 0
M  V30 1310 H 115.773 -0.24461 -3.96847 0
M  V30 1311 N 116.77 1.45427 -0.607355 0
M  V30 1312 C 117.995 2.07124 -0.107006 0
M  V30 1313 C 118.42 1.44906 1.19933 0
M  V30 1314 O 117.778 0.541687 1.73019 0
M  V30 1315 C 117.826 3.60595 0.0194119 0
M  V30 1316 O 116.93 3.98285 1.0697 0
M  V30 1317 H 116.271 0.659868 -0.0739597 0
M  V30 1318 H 118.801 1.86683 -0.837297 0
M  V30 1319 H 118.811 4.07419 0.2177 0
M  V30 1320 H 117.486 4.05266 -0.934453 0
M  V30 1321 H 116.063 3.63133 0.847889 0
M  V30 1322 N 118.248 0.346503 1.53744 0
M  V30 1323 C 119.196 -0.52422 2.26616 0
M  V30 1324 C 120.19 -1.09948 1.28871 0
M  V30 1325 O 121.396 -1.04488 1.46568 0
M  V30 1326 H 117.771 -0.187743 0.728187 0
M  V30 1327 H 119.742 0.11239 2.98188 0
M  V30 1328 C 118.491 -1.66186 3.05414 0
M  V30 1329 H 117.814 -1.22848 3.80458 0
M  V30 1330 H 119.254 -2.24622 3.59612 0
M  V30 1331 C 117.713 -2.59302 2.1509 0
M  V30 1332 O 118.243 -3.61628 1.74895 0
M  V30 1333 N 116.449 -2.28055 1.8011 0
M  V30 1334 H 115.996 -1.44883 2.12994 0
M  V30 1335 H 115.954 -2.90615 1.19958 0
M  V30 1336 N 119.726 -1.57421 0.075193 0
M  V30 1337 C 120.954 -1.97946 -0.602076 0
M  V30 1338 C 121.369 -0.953674 -1.62943 0
M  V30 1339 O 120.726 0.0592551 -1.82404 0
M  V30 1340 C 120.777 -3.38546 -1.26762 0
M  V30 1341 O 120.498 -4.37195 -0.281376 0
M  V30 1342 C 121.999 -3.93966 -2.03239 0
M  V30 1343 H 119.219 -0.650918 -0.162931 0
M  V30 1344 H 121.763 -2.03959 0.148601 0
M  V30 1345 H 119.918 -3.33609 -1.96936 0
M  V30 1346 H 120.332 -5.18975 -0.759267 0
M  V30 1347 H 121.806 -4.94555 -2.45193 0
M  V30 1348 H 122.283 -3.30693 -2.8903 0
M  V30 1349 H 122.889 -4.02315 -1.37924 0
M  V30 1350 N 121.204 0.198386 -1.56346 0
M  V30 1351 C 122.134 1.24865 -1.9731 0
M  V30 1352 C 123.115 1.47651 -0.844576 0
M  V30 1353 O 124.3 1.59444 -1.10866 0
M  V30 1354 C 121.43 2.59358 -2.30977 0
M  V30 1355 C 120.384 2.5119 -3.46537 0
M  V30 1356 C 119.71 3.89926 -3.65871 0
M  V30 1357 C 121.01 2.03977 -4.80823 0
M  V30 1358 H 122.704 0.908252 -2.85291 0
M  V30 1359 H 120.25 0.435462 -1.37258 0
M  V30 1360 H 122.203 3.33011 -2.58228 0
M  V30 1361 H 120.927 2.95132 -1.39874 0
M  V30 1362 H 119.586 1.79993 -3.19371 0
M  V30 1363 H 119.234 4.23046 -2.72105 0
M  V30 1364 H 118.934 3.85336 -4.4361 0
M  V30 1365 H 120.458 4.65205 -3.95495 0
M  V30 1366 H 121.872 2.67386 -5.07127 0
M  V30 1367 H 120.269 2.10397 -5.62008 0
M  V30 1368 H 121.339 0.992861 -4.74626 0
M  V30 1369 N 122.682 1.50554 0.465978 0
M  V30 1370 C 123.592 1.72585 1.58907 0
M  V30 1371 C 124.608 0.60911 1.6299 0
M  V30 1372 O 125.784 0.88804 1.80765 0
M  V30 1373 C 122.849 1.81995 2.95091 0
M  V30 1374 C 121.91 3.05751 3.01355 0
M  V30 1375 C 121.143 3.14702 4.31043 0
M  V30 1376 O 121.366 2.30313 5.21835 0
M  V30 1377 O 120.3 4.07468 4.43005 0
M  V30 1378 H 124.126 2.67799 1.43239 0
M  V30 1379 H 121.711 1.34711 0.646013 0
M  V30 1380 H 123.593 1.90335 3.75966 0
M  V30 1381 H 122.268 0.899659 3.10947 0
M  V30 1382 H 121.175 3.02908 2.19539 0
M  V30 1383 H 122.508 3.97375 2.90437 0
M  V30 1384 N 124.16 -0.719506 1.40217 0
M  V30 1385 C 125.409 -1.47486 1.37589 0
M  V30 1386 C 125.722 -1.9559 -0.0201568 0
M  V30 1387 O 126.928 -2.70973 -0.169049 0
M  V30 1388 C 125.384 -2.66575 2.41796 0
M  V30 1389 C 124.992 -2.25358 3.87192 0
M  V30 1390 C 126.736 -3.4433 2.48269 0
M  V30 1391 C 124.643 -3.41262 4.83005 0
M  V30 1392 H 123.573 -0.553901 0.511576 0
M  V30 1393 H 126.224 -0.783427 1.65936 0
M  V30 1394 H 124.606 -3.3787 2.06543 0
M  V30 1395 H 125.78 -1.61509 4.31569 0
M  V30 1396 H 124.095 -1.60657 3.84159 0
M  V30 1397 H 126.692 -4.30569 3.17041 0
M  V30 1398 H 127.035 -3.87872 1.51198 0
M  V30 1399 H 127.568 -2.80076 2.82493 0
M  V30 1400 H 124.307 -3.02755 5.81394 0
M  V30 1401 H 123.827 -4.0404 4.43297 0
M  V30 1402 H 125.506 -4.07383 5.02641 0
M  V30 1403 N 125.638 -1.25649 -0.95132 0
M  V30 1404 C 126.571 -1.00644 -2.04807 0
M  V30 1405 C 127.549 0.0654271 -1.62468 0
M  V30 1406 O 128.733 -0.074911 -1.88351 0
M  V30 1407 C 125.86 -0.522052 -3.34653 0
M  V30 1408 C 124.906 -1.58495 -3.95957 0
M  V30 1409 S 125.739 -3.17108 -4.31512 0
M  V30 1410 C 126.895 -2.70412 -5.64471 0
M  V30 1411 H 127.128 -1.93508 -2.25703 0
M  V30 1412 H 124.661 -1.09216 -1.09139 0
M  V30 1413 H 126.619 -0.24923 -4.09743 0
M  V30 1414 H 125.28 0.386146 -3.11717 0
M  V30 1415 H 124.473 -1.1968 -4.89584 0
M  V30 1416 H 124.075 -1.80862 -3.2736 0
M  V30 1417 H 126.367 -2.14245 -6.42733 0
M  V30 1418 H 127.31 -3.62693 -6.08161 0
M  V30 1419 H 127.718 -2.10302 -5.23864 0
M  V30 1420 N 127.117 1.15442 -1.07289 0
M  V30 1421 C 128.064 2.20161 -0.692653 0
M  V30 1422 C 129.034 1.63073 0.31564 0
M  V30 1423 O 130.219 1.89725 0.202235 0
M  V30 1424 C 127.359 3.44967 -0.0959509 0
M  V30 1425 C 126.472 4.16256 -1.15564 0
M  V30 1426 C 125.607 5.28609 -0.524011 0
M  V30 1427 C 124.646 5.91715 -1.56653 0
M  V30 1428 N 123.783 6.9554 -0.957531 0
M  V30 1429 H 128.623 2.52037 -1.59002 0
M  V30 1430 H 126.16 1.2378 -0.794798 0
M  V30 1431 H 128.118 4.16341 0.267628 0
M  V30 1432 H 126.748 3.1361 0.764772 0
M  V30 1433 H 125.8 3.43385 -1.6368 0
M  V30 1434 H 127.112 4.59268 -1.94613 0
M  V30 1435 H 126.266 6.06604 -0.108032 0
M  V30 1436 H 125.005 4.86787 0.29825 0
M  V30 1437 H 124.01 5.12433 -1.9923 0
M  V30 1438 H 125.235 6.35614 -2.39107 0
M  V30 1439 H 123.181 6.55814 -0.156162 0
M  V30 1440 H 123.098 7.36977 -1.68526 0
M  V30 1441 H 124.366 7.77435 -0.567032 0
M  V30 1442 N 128.595 0.856903 1.32268 0
M  V30 1443 C 129.823 0.475439 2.01363 0
M  V30 1444 C 130.238 -0.928486 1.64392 0
M  V30 1445 O 129.595 -1.60624 0.866387 0
M  V30 1446 C 129.646 0.607545 3.56358 0
M  V30 1447 O 129.367 1.95617 3.92002 0
M  V30 1448 C 130.868 0.225382 4.42727 0
M  V30 1449 H 128.088 0.186636 0.644521 0
M  V30 1450 H 130.632 1.15446 1.68797 0
M  V30 1451 H 128.787 -0.0237719 3.87393 0
M  V30 1452 H 129.201 1.95455 4.86721 0
M  V30 1453 H 130.675 0.368813 5.50767 0
M  V30 1454 H 131.152 -0.834369 4.31202 0
M  V30 1455 H 131.758 0.831864 4.17085 0
M  V30 1456 N 130.073 -1.45103 0.615059 0
M  V30 1457 C 131.484 -1.85654 0.197383 0
M  V30 1458 C 131.835 -1.51433 -1.24749 0
M  V30 1459 O 130.96 -0.944608 -1.94695 0
M  V30 1460 C 131.555 -3.36972 0.351448 0
M  V30 1461 C 130.114 -3.76398 -0.011593 0
M  V30 1462 C 129.261 -2.69024 0.672394 0
M  V30 1463 H 132.212 -1.35797 0.821263 0
M  V30 1464 H 132.233 -3.78239 -0.414227 0
M  V30 1465 H 131.745 -3.61847 1.40314 0
M  V30 1466 H 129.846 -3.5714 -1.06217 0
M  V30 1467 H 129.959 -4.77532 0.387265 0
M  V30 1468 H 128.323 -2.54465 0.109284 0
M  V30 1469 H 129.106 -2.96735 1.72636 0
M  V30 1470 N 131.551 -0.354651 -1.53558 0
M  V30 1471 C 132.967 -0.00315426 -1.596 0
M  V30 1472 C 133.167 1.47741 -1.37021 0
M  V30 1473 O 132.223 2.23759 -1.16996 0
M  V30 1474 C 133.536 -0.44929 -2.97325 0
M  V30 1475 C 135.084 -0.402578 -3.104 0
M  V30 1476 C 135.559 -0.824355 -4.5052 0
M  V30 1477 N 137.05 -0.778979 -4.56603 0
M  V30 1478 C 137.785 -1.07715 -5.63192 0
M  V30 1479 N 137.281 -1.44405 -6.77583 0
M  V30 1480 N 139.074 -1.00066 -5.53121 0
M  V30 1481 H 131.225 -1.31893 -1.66487 0
M  V30 1482 H 133.488 -0.538388 -0.780284 0
M  V30 1483 H 133.194 -1.48202 -3.1895 0
M  V30 1484 H 133.068 0.169772 -3.76818 0
M  V30 1485 H 135.455 0.621004 -2.88492 0
M  V30 1486 H 135.536 -1.05699 -2.32941 0
M  V30 1487 H 135.18 -1.846 -4.73165 0
M  V30 1488 H 135.11 -0.147304 -5.26394 0
M  V30 1489 H 137.601 -0.508528 -3.74463 0
M  V30 1490 H 137.914 -1.65612 -7.54846 0
M  V30 1491 H 136.259 -1.4826 -6.79002 0
M  V30 1492 H 139.45 -0.713293 -4.62633 0
M  V30 1493 H 139.623 -1.23638 -6.36096 0
M  V30 1494 N 133.029 1.57378 -0.0835403 0
M  V30 1495 C 134.269 1.95808 0.586381 0
M  V30 1496 C 134.633 0.963706 1.66062 0
M  V30 1497 O 135.834 1.23608 2.38693 0
M  V30 1498 C 134.105 3.38808 1.13771 0
M  V30 1499 S 135.664 3.99225 1.82112 0
M  V30 1500 H 132.482 0.684675 0.191679 0
M  V30 1501 H 135.084 1.94843 -0.160194 0
M  V30 1502 H 133.788 4.08954 0.344197 0
M  V30 1503 H 133.319 3.43344 1.92038 0
M  V30 1504 H 135.334 3.87087 3.10449 0
M  V30 1505 N 134.507 -0.190092 1.56449 0
M  V30 1506 C 135.755 -0.907908 1.80559 0
M  V30 1507 C 136.076 -1.83583 0.657438 0
M  V30 1508 O 135.346 -1.93203 -0.323924 0
M  V30 1509 H 133.926 -0.338247 0.666032 0
M  V30 1510 H 136.588 -0.194403 1.93928 0
M  V30 1511 H 135.684 -1.49604 2.73907 0
M  V30 1512 N 135.985 -1.50799 -0.457987 0
M  V30 1513 C 137.231 -1.62683 -1.21088 0
M  V30 1514 C 137.564 -0.332268 -1.91336 0
M  V30 1515 O 136.839 0.667043 -1.82704 0
M  V30 1516 C 137.122 -2.81615 -2.24422 0
M  V30 1517 C 136.975 -4.20989 -1.58392 0
M  V30 1518 C 138.294 -2.96085 -3.2561 0
M  V30 1519 H 135.413 -0.592087 -0.438864 0
M  V30 1520 H 138.055 -1.83225 -0.50286 0
M  V30 1521 H 136.205 -2.64231 -2.84806 0
M  V30 1522 H 137.877 -4.49994 -1.01504 0
M  V30 1523 H 136.12 -4.24641 -0.886704 0
M  V30 1524 H 136.791 -5.0016 -2.33547 0
M  V30 1525 H 139.267 -3.12042 -2.75262 0
M  V30 1526 H 138.143 -3.80902 -3.95228 0
M  V30 1527 H 138.404 -2.0726 -3.90507 0
M  V30 1528 N 137.463 0.71206 -1.40597 0
M  V30 1529 C 138.874 1.29135 -1.34837 0
M  V30 1530 C 139.225 1.96186 -0.0235395 0
M  V30 1531 O 138.35 1.97768 0.878444 0
M  V30 1532 C 138.945 2.34827 -2.44217 0
M  V30 1533 C 137.504 2.88371 -2.41907 0
M  V30 1534 C 136.651 1.62202 -2.24913 0
M  V30 1535 H 139.602 0.507944 -1.50352 0
M  V30 1536 H 139.623 3.15749 -2.12327 0
M  V30 1537 H 139.135 1.85996 -3.40627 0
M  V30 1538 H 137.236 3.41422 -1.49204 0
M  V30 1539 H 137.349 3.39925 -3.37621 0
M  V30 1540 H 135.713 1.874 -1.72492 0
M  V30 1541 H 136.496 1.15391 -3.23326 0
M  V30 1542 N 138.941 1.26152 0.944643 0
M  V30 1543 C 140.218 1.02247 1.66748 0
M  V30 1544 C 140.598 -0.448202 2.06287 0
M  V30 1545 O 139.946 -1.42779 1.78399 0
M  V30 1546 C 140.156 1.96788 2.88228 0
M  V30 1547 C 141.504 2.25201 3.59958 0
M  V30 1548 O 142.528 1.94626 2.98327 0
M  V30 1549 O 141.387 2.77242 4.70956 0
M  V30 1550 H 138.481 0.388517 0.730057 0
M  V30 1551 H 141.027 1.37348 0.99668 0
M  V30 1552 H 139.799 2.96047 2.55875 0
M  V30 1553 H 139.422 1.62145 3.63035 0
M  V30 1554 N 140.419 -1.14872 1.07899 0
M  V30 1555 C 141.665 -1.86064 0.806725 0
M  V30 1556 C 141.998 -1.82434 -0.665706 0
M  V30 1557 O 141.273 -1.25138 -1.48899 0
M  V30 1558 C 141.556 -3.34929 1.32267 0
M  V30 1559 C 141.409 -3.47161 2.86006 0
M  V30 1560 C 142.728 -4.29863 0.943717 0
M  V30 1561 H 139.847 -0.675591 0.294526 0
M  V30 1562 H 142.489 -1.34925 1.33773 0
M  V30 1563 H 140.639 -3.78611 0.870974 0
M  V30 1564 H 142.311 -3.12302 3.39507 0
M  V30 1565 H 140.554 -2.88539 3.23925 0
M  V30 1566 H 141.225 -4.51777 3.17177 0
M  V30 1567 H 143.701 -3.9417 1.33302 0
M  V30 1568 H 142.577 -5.32494 1.33198 0
M  V30 1569 H 142.838 -4.41846 -0.149796 0
M  V30 1570 N 141.898 -0.863906 -1.31812 0
M  V30 1571 C 143.146 -0.470904 -1.96537 0
M  V30 1572 C 143.467 0.978771 -1.68657 0
M  V30 1573 O 142.737 1.6853 -0.998717 0
M  V30 1574 H 141.317 -0.171148 -0.72713 0
M  V30 1575 H 143.979 -1.10236 -1.60729 0
M  V30 1576 H 143.075 -0.623616 -3.05806 0
M  V30 1577 N 143.376 1.44774 -0.622745 0
M  V30 1578 C 144.308 2.28856 0.125485 0
M  V30 1579 C 145.321 1.40811 0.817069 0
M  V30 1580 O 146.51 1.65044 0.679918 0
M  V30 1581 C 143.61 3.16963 1.19949 0
M  V30 1582 C 142.783 4.33374 0.592064 0
M  V30 1583 C 141.842 5.02577 1.55893 0
M  V30 1584 O 140.868 5.58873 1.07933 0
M  V30 1585 N 142.07 5.03256 2.89334 0
M  V30 1586 H 144.835 2.93713 -0.596068 0
M  V30 1587 H 142.396 1.55129 -0.463303 0
M  V30 1588 H 144.388 3.60123 1.84644 0
M  V30 1589 H 142.958 2.53913 1.82337 0
M  V30 1590 H 142.178 3.93509 -0.233322 0
M  V30 1591 H 143.466 5.08527 0.166738 0
M  V30 1592 H 142.864 4.58836 3.30887 0
M  V30 1593 H 141.421 5.50232 3.49412 0
M  V30 1594 N 144.854 0.36279 1.53368 0
M  V30 1595 C 146.084 -0.228281 2.05335 0
M  V30 1596 C 146.492 -1.43226 1.23625 0
M  V30 1597 O 145.835 -1.81717 0.269206 0
M  V30 1598 C 145.897 -0.688549 3.52845 0
M  V30 1599 C 145.561 0.398362 4.5526 0
M  V30 1600 C 146.558 1.24732 5.04716 0
M  V30 1601 C 144.243 0.557805 4.99193 0
M  V30 1602 C 146.237 2.2411 5.96702 0
M  V30 1603 C 143.924 1.55495 5.90986 0
M  V30 1604 C 144.922 2.39503 6.39631 0
M  V30 1605 O 144.61 3.37517 7.29615 0
M  V30 1606 H 144.342 -0.044395 0.674541 0
M  V30 1607 H 146.896 0.518668 1.98744 0
M  V30 1608 H 145.126 -1.48706 3.56964 0
M  V30 1609 H 146.815 -1.20231 3.87685 0
M  V30 1610 H 147.581 1.13532 4.71525 0
M  V30 1611 H 143.46 -0.0862959 4.60919 0
M  V30 1612 H 147.004 2.89718 6.34594 0
M  V30 1613 H 142.901 1.66744 6.23592 0
M  V30 1614 H 143.669 3.33213 7.47604 0
M  V30 1615 N 146.332 -1.57332 0.0918853 0
M  V30 1616 C 147.58 -1.93853 -0.571446 0
M  V30 1617 C 147.901 -0.974212 -1.6892 0
M  V30 1618 O 147.171 -0.0257254 -1.95883 0
M  V30 1619 H 145.751 -0.715666 -0.214082 0
M  V30 1620 H 148.413 -1.94287 0.154464 0
M  V30 1621 H 147.509 -2.96191 -0.983729 0
M  V30 1622 N 147.81 0.181792 -1.56548 0
M  V30 1623 C 149.04 0.914618 -1.85252 0
M  V30 1624 C 149.448 1.76791 -0.673914 0
M  V30 1625 O 148.791 1.80009 0.366416 0
M  V30 1626 C 148.853 1.85019 -3.08234 0
M  V30 1627 C 148.517 1.17754 -4.41569 0
M  V30 1628 C 149.514 0.548035 -5.17003 0
M  V30 1629 C 147.199 1.17742 -4.88305 0
M  V30 1630 C 149.193 -0.0726128 -6.37359 0
M  V30 1631 C 146.88 0.552946 -6.08593 0
M  V30 1632 C 147.878 -0.070978 -6.82963 0
M  V30 1633 O 147.566 -0.685635 -8.00971 0
M  V30 1634 H 147.298 0.271695 -0.618998 0
M  V30 1635 H 149.852 0.189944 -2.0452 0
M  V30 1636 H 148.082 2.61491 -2.84885 0
M  V30 1637 H 149.771 2.45195 -3.23472 0
M  V30 1638 H 150.537 0.540174 -4.81982 0
M  V30 1639 H 146.416 1.65246 -4.30366 0
M  V30 1640 H 149.96 -0.560213 -6.95347 0
M  V30 1641 H 145.857 0.558354 -6.43081 0
M  V30 1642 H 146.625 -0.58385 -8.16415 0
M  V30 1643 N 149.288 1.51039 0.449983 0
M  V30 1644 C 150.516 1.66869 1.2232 0
M  V30 1645 C 150.931 0.360727 1.85322 0
M  V30 1646 O 150.288 -0.659531 1.70166 0
M  V30 1647 C 150.339 2.77524 2.31652 0
M  V30 1648 O 150.06 4.03252 1.7123 0
M  V30 1649 C 151.561 3.04512 3.2216 0
M  V30 1650 H 148.781 0.560326 0.369155 0
M  V30 1651 H 151.325 1.97385 0.534719 0
M  V30 1652 H 149.48 2.49642 2.96239 0
M  V30 1653 H 149.894 4.64609 2.43389 0
M  V30 1654 H 151.368 3.85551 3.95038 0
M  V30 1655 H 151.845 2.16415 3.8218 0
M  V30 1656 H 152.451 3.34005 2.63288 0
M  V30 1657 N 150.766 -0.704594 1.40972 0
M  V30 1658 C 151.696 -1.83124 1.44872 0
M  V30 1659 C 152.677 -1.67281 0.30838 0
M  V30 1660 O 153.862 -1.87149 0.518556 0
M  V30 1661 C 150.992 -3.21181 1.32136 0
M  V30 1662 C 149.946 -3.51714 2.43888 0
M  V30 1663 C 149.272 -4.89032 2.16222 0
M  V30 1664 C 150.572 -3.516 3.86232 0
M  V30 1665 H 152.266 -1.80117 2.39161 0
M  V30 1666 H 149.812 -0.865145 1.15114 0
M  V30 1667 H 151.765 -3.99702 1.33479 0
M  V30 1668 H 150.489 -3.24791 0.343279 0
M  V30 1669 H 149.148 -2.75539 2.41813 0
M  V30 1670 H 148.796 -4.89256 1.16778 0
M  V30 1671 H 148.496 -5.10426 2.911 0
M  V30 1672 H 150.02 -5.69873 2.19265 0
M  V30 1673 H 151.434 -4.2014 3.9007 0
M  V30 1674 H 149.831 -3.84523 4.60719 0
M  V30 1675 H 150.901 -2.50757 4.15029 0
M  V30 1676 N 152.244 -1.26651 -0.937939 0
M  V30 1677 C 153.655 -1.1125 -1.49934 0
M  V30 1678 C 154.006 0.306077 -1.93798 0
M  V30 1679 O 153.131 1.19792 -1.80219 0
M  V30 1680 C 153.726 -2.01339 -2.72485 0
M  V30 1681 C 152.285 -1.90074 -3.24883 0
M  V30 1682 C 151.432 -1.94498 -1.97651 0
M  V30 1683 H 154.383 -1.39693 -0.753091 0
M  V30 1684 H 154.404 -1.56319 -3.46907 0
M  V30 1685 H 153.916 -3.04577 -2.40529 0
M  V30 1686 H 152.017 -0.897827 -3.61621 0
M  V30 1687 H 152.13 -2.75778 -3.9177 0
M  V30 1688 H 150.494 -1.38591 -2.13693 0
M  V30 1689 H 151.277 -2.99372 -1.68022 0
M  V30 1690 N 153.722 1.14298 -1.08507 0
M  V30 1691 C 154.97 1.84993 -0.813763 0
M  V30 1692 C 155.291 1.83405 0.662393 0
M  V30 1693 O 154.561 1.28319 1.48024 0
M  V30 1694 H 153.141 0.684966 -0.298045 0
M  V30 1695 H 155.803 1.385 -1.37126 0
M  V30 1696 H 154.899 2.89788 -1.15884 0
M  V30 1697 N 155.201 0.870884 1.31352 0
M  V30 1698 C 156.447 0.492314 1.97352 0
M  V30 1699 C 156.802 -0.945174 1.67583 0
M  V30 1700 O 156.095 -1.65674 0.962423 0
M  V30 1701 C 156.289 0.687157 3.50732 0
M  V30 1702 C 156.118 2.14203 3.95407 0
M  V30 1703 C 154.888 2.78382 4.21701 0
M  V30 1704 C 157.086 3.1144 4.09279 0
M  V30 1705 N 155.068 4.14611 4.52737 0
M  V30 1706 C 156.439 4.32702 4.44037 0
M  V30 1707 C 158.494 3.07418 3.91661 0
M  V30 1708 C 157.197 5.50463 4.63015 0
M  V30 1709 C 159.223 4.24438 4.11833 0
M  V30 1710 C 158.585 5.44463 4.46923 0
M  V30 1711 H 154.684 0.229206 0.747655 0
M  V30 1712 H 157.268 1.12568 1.5886 0
M  V30 1713 H 155.439 0.083384 3.8831 0
M  V30 1714 H 157.171 0.276883 4.03752 0
M  V30 1715 H 153.926 2.29326 4.14375 0
M  V30 1716 H 154.35 4.84928 4.72413 0
M  V30 1717 H 158.992 2.15732 3.6362 0
M  V30 1718 H 156.71 6.42666 4.89904 0
M  V30 1719 H 160.296 4.2278 3.99685 0
M  V30 1720 H 159.176 6.33504 4.62214 0
M  V30 1721 N 156.679 -1.44442 0.630414 0
M  V30 1722 C 158.095 -1.56832 0.295973 0
M  V30 1723 C 158.295 -1.61806 -1.20088 0
M  V30 1724 O 157.351 -1.5607 -1.9849 0
M  V30 1725 C 158.664 -2.84031 0.987264 0
M  V30 1726 C 160.212 -2.97742 0.96534 0
M  V30 1727 C 160.687 -4.27743 1.63708 0
M  V30 1728 N 162.178 -4.34555 1.60364 0
M  V30 1729 C 162.913 -5.33862 2.09234 0
M  V30 1730 N 162.409 -6.39578 2.66292 0
M  V30 1731 N 164.202 -5.25366 1.99867 0
M  V30 1732 H 156.353 -1.39457 1.60205 0
M  V30 1733 H 158.616 -0.668237 0.672431 0
M  V30 1734 H 158.322 -2.86338 2.04215 0
M  V30 1735 H 158.196 -3.73534 0.524588 0
M  V30 1736 H 160.583 -2.94989 -0.0810639 0
M  V30 1737 H 160.664 -2.09589 1.4665 0
M  V30 1738 H 160.308 -4.31255 2.68293 0
M  V30 1739 H 160.238 -5.14752 1.11076 0
M  V30 1740 H 162.729 -3.58772 1.18705 0
M  V30 1741 H 163.042 -7.11637 3.01317 0
M  V30 1742 H 161.387 -6.40265 2.70343 0
M  V30 1743 H 164.578 -4.41688 1.55013 0
M  V30 1744 H 164.751 -6.02606 2.38265 0
M  V30 1745 N 158.157 -0.370918 -1.53173 0
M  V30 1746 C 159.104 0.473035 -2.259 0
M  V30 1747 C 160.074 1.07311 -1.26781 0
M  V30 1748 O 161.259 1.1046 -1.55574 0
M  V30 1749 C 158.399 1.60405 -3.05556 0
M  V30 1750 C 157.512 1.02863 -4.19575 0
M  V30 1751 C 156.647 2.12918 -4.86661 0
M  V30 1752 C 155.686 1.52869 -5.92704 0
M  V30 1753 N 154.823 2.56779 -6.53459 0
M  V30 1754 H 159.663 -0.153649 -2.97604 0
M  V30 1755 H 157.2 -0.0875946 -1.46839 0
M  V30 1756 H 159.158 2.27034 -3.50016 0
M  V30 1757 H 157.788 2.20131 -2.36097 0
M  V30 1758 H 156.84 0.252465 -3.79561 0
M  V30 1759 H 158.152 0.549642 -4.95762 0
M  V30 1760 H 157.306 2.87356 -5.34333 0
M  V30 1761 H 156.045 2.6417 -4.09958 0
M  V30 1762 H 155.05 0.769479 -5.44389 0
M  V30 1763 H 156.275 1.02435 -6.7133 0
M  V30 1764 H 154.221 3.07235 -5.79606 0
M  V30 1765 H 154.138 2.13583 -7.25202 0
M  V30 1766 H 155.406 3.30903 -7.05779 0
M  V30 1767 N 159.635 1.57281 -0.100228 0
M  V30 1768 C 160.865 1.98591 0.569681 0
M  V30 1769 C 161.273 0.978315 1.61943 0
M  V30 1770 O 160.616 -0.0396108 1.83657 0
M  V30 1771 C 160.678 3.36282 1.271 0
M  V30 1772 C 160.342 4.55488 0.371409 0
M  V30 1773 C 161.339 5.18491 -0.382504 0
M  V30 1774 C 159.024 5.01474 0.287965 0
M  V30 1775 C 161.018 6.25852 -1.20779 0
M  V30 1776 C 158.705 6.08701 -0.540965 0
M  V30 1777 C 159.703 6.70755 -1.28749 0
M  V30 1778 O 159.391 7.75914 -2.10269 0
M  V30 1779 H 159.123 0.65752 0.156982 0
M  V30 1780 H 161.677 2.0463 -0.177734 0
M  V30 1781 H 159.907 3.26941 2.0651 0
M  V30 1782 H 161.596 3.62005 1.83595 0
M  V30 1783 H 162.362 4.83891 -0.3278 0
M  V30 1784 H 158.241 4.52932 0.858689 0
M  V30 1785 H 161.785 6.74218 -1.79096 0
M  V30 1786 H 157.682 6.42732 -0.597131 0
M  V30 1787 H 158.45 7.92925 -2.03007 0
M  V30 1788 N 161.113 -0.173488 1.56642 0
M  V30 1789 C 162.061 -1.23417 1.97157 0
M  V30 1790 C 163.055 -1.45946 0.860013 0
M  V30 1791 O 164.261 -1.46551 1.04512 0
M  V30 1792 H 160.636 -0.414818 0.62724 0
M  V30 1793 H 162.607 -0.865582 2.8557 0
M  V30 1794 C 161.356 -2.5665 2.34576 0
M  V30 1795 H 160.679 -2.40137 3.19647 0
M  V30 1796 H 162.119 -3.2956 2.6677 0
M  V30 1797 C 160.578 -3.15245 1.18836 0
M  V30 1798 O 161.108 -3.98883 0.474869 0
M  V30 1799 N 159.314 -2.74303 0.959497 0
M  V30 1800 H 158.861 -2.0639 1.54146 0
M  V30 1801 H 158.819 -3.13844 0.186932 0
M  V30 1802 N 162.591 -1.51276 -0.441967 0
M  V30 1803 C 163.521 -1.752 -1.54361 0
M  V30 1804 C 164.502 -0.601682 -1.59103 0
M  V30 1805 O 165.687 -0.843913 -1.74905 0
M  V30 1806 C 162.817 -1.87282 -2.92477 0
M  V30 1807 C 161.771 -3.02687 -3.02596 0
M  V30 1808 C 161.097 -2.99947 -4.42647 0
M  V30 1809 C 162.397 -4.4273 -2.77106 0
M  V30 1810 H 164.091 -2.67442 -1.34592 0
M  V30 1811 H 161.637 -1.28694 -0.646048 0
M  V30 1812 H 163.59 -2.02602 -3.695 0
M  V30 1813 H 162.314 -0.916844 -3.13467 0
M  V30 1814 H 160.973 -2.87065 -2.28012 0
M  V30 1815 H 160.621 -2.02136 -4.60597 0
M  V30 1816 H 160.321 -3.77439 -4.50348 0
M  V30 1817 H 161.845 -3.17354 -5.2165 0
M  V30 1818 H 163.259 -4.58727 -3.43864 0
M  V30 1819 H 161.656 -5.21893 -2.96222 0
M  V30 1820 H 162.726 -4.53087 -1.72744 0
M  V30 1821 N 164.069 0.697108 -1.41344 0
M  V30 1822 C 165.297 1.48593 -1.43972 0
M  V30 1823 C 165.712 1.88747 -0.0445612 0
M  V30 1824 O 165.069 1.56682 0.935785 0
M  V30 1825 C 165.12 2.74946 -2.34706 0
M  V30 1826 O 164.841 2.36484 -3.68791 0
M  V30 1827 C 166.342 3.687 -2.46121 0
M  V30 1828 H 163.562 0.457964 -0.490418 0
M  V30 1829 H 166.106 0.858429 -1.8561 0
M  V30 1830 H 164.261 3.33937 -1.9638 0
M  V30 1831 H 164.675 3.17918 -4.17167 0
M  V30 1832 H 166.149 4.54145 -3.13777 0
M  V30 1833 H 166.626 4.13081 -1.49199 0
M  V30 1834 H 167.232 3.15613 -2.85076 0
M  V30 1835 N 165.547 1.27147 0.931209 0
M  V30 1836 C 166.777 1.15914 1.71019 0
M  V30 1837 C 167.185 -0.287112 1.87009 0
M  V30 1838 O 166.528 -1.20761 1.38429 0
M  V30 1839 C 166.59 1.76647 3.13107 0
M  V30 1840 C 166.254 3.25807 3.20467 0
M  V30 1841 C 167.251 4.22489 3.02983 0
M  V30 1842 C 164.936 3.66452 3.43538 0
M  V30 1843 C 166.93 5.57794 3.08454 0
M  V30 1844 C 164.617 5.01888 3.48643 0
M  V30 1845 C 165.615 5.97369 3.31119 0
M  V30 1846 O 165.303 7.30337 3.35952 0
M  V30 1847 H 165.035 0.404062 0.54195 0
M  V30 1848 H 167.589 1.68457 1.17521 0
M  V30 1849 H 165.819 1.18578 3.68071 0
M  V30 1850 H 167.508 1.60179 3.72958 0
M  V30 1851 H 168.274 3.92425 2.85004 0
M  V30 1852 H 164.153 2.92611 3.5623 0
M  V30 1853 H 167.697 6.32298 2.94694 0
M  V30 1854 H 163.594 5.31609 3.66145 0
M  V30 1855 H 164.362 7.38739 3.5243 0
M  V30 1856 N 167.025 -1.13721 1.09112 0
M  V30 1857 C 168.441 -1.36914 0.820174 0
M  V30 1858 C 168.641 -1.93356 -0.567079 0
M  V30 1859 O 167.697 -2.15093 -1.32255 0
M  V30 1860 C 169.01 -2.3235 1.90877 0
M  V30 1861 C 170.558 -2.45973 1.93562 0
M  V30 1862 C 171.033 -3.44714 3.01556 0
M  V30 1863 N 172.524 -3.52263 3.00775 0
M  V30 1864 C 173.259 -4.28536 3.80978 0
M  V30 1865 N 172.755 -5.07991 4.71081 0
M  V30 1866 N 174.548 -4.23804 3.69251 0
M  V30 1867 H 166.699 -0.754348 1.98553 0
M  V30 1868 H 168.962 -0.3944 0.862063 0
M  V30 1869 H 168.668 -1.98027 2.90651 0
M  V30 1870 H 168.542 -3.32332 1.78424 0
M  V30 1871 H 170.929 -2.79584 0.944286 0
M  V30 1872 H 171.01 -1.45926 2.10093 0
M  V30 1873 H 170.654 -3.11835 4.00901 0
M  V30 1874 H 170.584 -4.44558 2.82269 0
M  V30 1875 H 173.075 -2.95567 2.35475 0
M  V30 1876 H 173.388 -5.63487 5.28869 0
M  V30 1877 H 171.733 -5.07235 4.75119 0
M  V30 1878 H 174.924 -3.60806 2.98222 0
M  V30 1879 H 175.097 -4.82995 4.31995 0
M  V30 1880 N 168.503 -0.877838 -1.30888 0
M  V30 1881 C 169.752 -0.488793 -1.95688 0
M  V30 1882 C 170.065 0.965485 -1.70111 0
M  V30 1883 O 171.271 1.46104 -2.28836 0
M  V30 1884 C 169.727 -0.823201 -3.50359 0
M  V30 1885 C 169.335 -2.29477 -3.84765 0
M  V30 1886 C 171.079 -0.503009 -4.21509 0
M  V30 1887 C 168.986 -2.57118 -5.32583 0
M  V30 1888 H 167.916 -0.179062 -0.732429 0
M  V30 1889 H 170.567 -1.07183 -1.48943 0
M  V30 1890 H 168.949 -0.169331 -3.95638 0
M  V30 1891 H 170.123 -2.99236 -3.5042 0
M  V30 1892 H 168.438 -2.58178 -3.267 0
M  V30 1893 H 171.035 -0.68665 -5.30273 0
M  V30 1894 H 171.378 0.557109 -4.12555 0
M  V30 1895 H 171.911 -1.11376 -3.8189 0
M  V30 1896 H 168.65 -3.61843 -5.4658 0
M  V30 1897 H 168.17 -1.91961 -5.68253 0
M  V30 1898 H 169.849 -2.42251 -5.99936 0
M  V30 1899 N 169.982 1.44106 -0.638065 0
M  V30 1900 C 171.231 2.01194 -0.142744 0
M  V30 1901 C 171.544 1.50835 1.24532 0
M  V30 1902 O 172.75 2.00096 1.83504 0
M  V30 1903 C 171.206 3.59319 -0.20442 0
M  V30 1904 C 170.814 4.18674 -1.59423 0
M  V30 1905 C 172.558 4.23854 0.234079 0
M  V30 1906 C 170.465 5.69045 -1.61065 0
M  V30 1907 H 169.395 0.752367 -0.0495998 0
M  V30 1908 H 172.046 1.65246 -0.797881 0
M  V30 1909 H 170.428 3.92598 0.517946 0
M  V30 1910 H 171.602 3.96921 -2.34074 0
M  V30 1911 H 169.917 3.66453 -1.97741 0
M  V30 1912 H 172.514 5.34155 0.241443 0
M  V30 1913 H 172.857 3.96688 1.2627 0
M  V30 1914 H 173.39 3.95403 -0.436025 0
M  V30 1915 H 170.129 6.00956 -2.61787 0
M  V30 1916 H 169.649 5.929 -0.90718 0
M  V30 1917 H 171.328 6.32809 -1.34766 0
M  V30 1918 N 171.46 0.379036 1.52974 0
M  V30 1919 C 172.408 -0.476033 2.27677 0
M  V30 1920 C 173.402 -1.0719 1.31174 0
M  V30 1921 O 174.608 -1.01355 1.48752 0
M  V30 1922 H 170.983 -0.172255 0.732006 0
M  V30 1923 H 172.954 0.175615 2.97883 0
M  V30 1924 C 171.703 -1.5967 3.0887 0
M  V30 1925 H 171.026 -1.1475 3.82978 0
M  V30 1926 H 172.466 -2.16943 3.64296 0
M  V30 1927 C 170.925 -2.54682 2.20542 0
M  V30 1928 O 171.455 -3.57836 1.82527 0
M  V30 1929 N 169.661 -2.24183 1.84907 0
M  V30 1930 H 169.208 -1.40333 2.1602 0
M  V30 1931 H 169.166 -2.88006 1.26096 0
M  V30 1932 N 172.938 -1.57226 0.108567 0
M  V30 1933 C 174.168 -1.9889 -0.559142 0
M  V30 1934 C 174.576 -0.986889 -1.61422 0
M  V30 1935 O 173.919 0.0298705 -1.83676 0
M  V30 1936 C 173.981 -3.36952 -1.25315 0
M  V30 1937 C 173.645 -4.55679 -0.347248 0
M  V30 1938 C 174.642 -5.18281 0.409996 0
M  V30 1939 C 172.327 -5.0162 -0.261367 0
M  V30 1940 C 174.321 -6.25203 1.24096 0
M  V30 1941 C 172.008 -6.08405 0.573238 0
M  V30 1942 C 173.006 -6.70063 1.32304 0
M  V30 1943 O 172.694 -7.74788 2.14381 0
M  V30 1944 H 172.426 -0.658343 -0.153492 0
M  V30 1945 H 174.98 -2.04532 0.188584 0
M  V30 1946 H 173.21 -3.28032 -2.04773 0
M  V30 1947 H 174.899 -3.62974 -1.81673 0
M  V30 1948 H 175.665 -4.8371 0.353457 0
M  V30 1949 H 171.544 -4.53381 -0.834656 0
M  V30 1950 H 175.088 -6.73259 1.82669 0
M  V30 1951 H 170.985 -6.42406 0.631208 0
M  V30 1952 H 171.753 -7.91837 2.07209 0
M  V30 1953 N 174.416 0.165178 -1.56732 0
M  V30 1954 C 175.644 0.896218 -1.86482 0
M  V30 1955 C 176.059 1.75555 -0.694675 0
M  V30 1956 O 175.416 1.79379 0.33607 0
M  V30 1957 C 175.467 1.76792 -3.1532 0
M  V30 1958 O 175.188 0.943239 -4.27825 0
M  V30 1959 C 176.689 2.6081 -3.58459 0
M  V30 1960 H 173.909 0.260064 -0.618553 0
M  V30 1961 H 176.453 0.163428 -2.03846 0
M  V30 1962 H 174.608 2.45398 -2.99764 0
M  V30 1963 H 175.022 1.53998 -5.01383 0
M  V30 1964 H 176.496 3.17579 -4.51495 0
M  V30 1965 H 176.973 3.35977 -2.82872 0
M  V30 1966 H 177.579 1.97526 -3.76648 0
M  V30 1967 N 175.894 1.51508 0.433938 0
M  V30 1968 C 177.305 1.56784 1.01369 0
M  V30 1969 C 177.656 0.393349 1.92217 0
M  V30 1970 O 176.781 -0.489441 2.10792 0
M  V30 1971 C 177.376 2.84144 1.8452 0
M  V30 1972 C 175.935 2.9198 2.37539 0
M  V30 1973 C 175.082 2.51482 1.16843 0
M  V30 1974 H 178.033 1.57236 0.215081 0
M  V30 1975 H 178.054 2.68098 2.70007 0
M  V30 1976 H 177.566 3.69607 1.18373 0
M  V30 1977 H 175.667 2.10955 3.0713 0
M  V30 1978 H 175.78 3.95704 2.70103 0
M  V30 1979 H 174.144 2.04758 1.51481 0
M  V30 1980 H 174.927 3.39293 0.523015 0
M  V30 1981 N 177.372 -0.689602 1.41712 0
M  V30 1982 C 178.649 -1.44457 1.31877 0
M  V30 1983 C 179.029 -2.11039 -0.0508537 0
M  V30 1984 O 178.377 -2.02138 -1.06547 0
M  V30 1985 C 178.587 -2.45913 2.47645 0
M  V30 1986 C 179.935 -3.10991 2.89084 0
M  V30 1987 O 180.959 -2.56238 2.47428 0
M  V30 1988 O 179.818 -4.10174 3.61137 0
M  V30 1989 H 176.912 -0.64362 0.519309 0
M  V30 1990 H 179.458 -0.719576 1.53689 0
M  V30 1991 H 178.23 -1.95409 3.39015 0
M  V30 1992 H 177.853 -3.25913 2.27742 0
M  V30 1993 N 178.85 -1.27639 -0.924453 0
M  V30 1994 C 179.783 -1.04966 -2.02626 0
M  V30 1995 C 180.761 0.0309505 -1.62571 0
M  V30 1996 O 181.945 -0.114846 -1.8815 0
M  V30 1997 C 179.072 -0.59292 -3.3347 0
M  V30 1998 C 178.118 -1.66858 -3.92506 0
M  V30 1999 S 178.951 -3.2619 -4.24689 0
M  V30 2000 C 180.107 -2.82325 -5.58609 0
M  V30 2001 H 180.34 -1.98252 -2.21547 0
M  V30 2002 H 177.873 -1.11506 -1.06798 0
M  V30 2003 H 179.831 -0.336086 -4.09122 0
M  V30 2004 H 178.492 0.319939 -3.12466 0
M  V30 2005 H 177.685 -1.30038 -4.86935 0
M  V30 2006 H 177.287 -1.87766 -3.2345 0
M  V30 2007 H 179.579 -2.2783 -6.38044 0
M  V30 2008 H 180.522 -3.75511 -6.00331 0
M  V30 2009 H 180.93 -2.21367 -5.19285 0
M  V30 2010 N 180.328 1.1314 -1.09713 0
M  V30 2011 C 181.291 2.16831 -0.742751 0
M  V30 2012 C 182.291 1.59159 0.229129 0
M  V30 2013 O 183.481 1.74199 0.00693237 0
M  V30 2014 C 180.613 3.40756 -0.0989168 0
M  V30 2015 H 181.806 2.49695 -1.66109 0
M  V30 2016 H 179.359 1.2802 -0.896699 0
M  V30 2017 H 180.094 3.13485 0.830514 0
M  V30 2018 H 179.879 3.83888 -0.798265 0
M  V30 2019 H 181.369 4.17386 0.133524 0
M  V30 2020 N 181.806 0.884767 1.30421 0
M  V30 2021 C 183.222 0.57874 1.48737 0
M  V30 2022 C 183.422 -0.883567 1.81095 0
M  V30 2023 O 182.478 -1.6648 1.89844 0
M  V30 2024 C 183.791 1.49171 2.61091 0
M  V30 2025 C 185.339 1.49532 2.74971 0
M  V30 2026 C 185.814 2.39421 3.90438 0
M  V30 2027 N 187.305 2.37383 3.97748 0
M  V30 2028 C 188.04 3.03647 4.86401 0
M  V30 2029 N 187.536 3.79136 5.79852 0
M  V30 2030 N 189.329 2.9288 4.79768 0
M  V30 2031 H 181.48 1.83075 1.0769 0
M  V30 2032 H 183.743 0.783637 0.533495 0
M  V30 2033 H 183.449 2.53291 2.44001 0
M  V30 2034 H 183.323 1.20113 3.57565 0
M  V30 2035 H 185.71 0.46163 2.91467 0
M  V30 2036 H 185.791 1.8262 1.79119 0
M  V30 2037 H 185.435 3.42874 3.74699 0
M  V30 2038 H 185.365 2.03649 4.85628 0
M  V30 2039 H 187.856 1.82525 3.30897 0
M  V30 2040 H 188.169 4.26789 6.4426 0
M  V30 2041 H 186.514 3.83243 5.79784 0
M  V30 2042 H 189.705 2.33433 4.05742 0
M  V30 2043 H 189.878 3.448 5.4865 0
M  V30 2044 N 183.284 -1.43765 0.645699 0
M  V30 2045 C 184.247 -2.29163 -0.0409488 0
M  V30 2046 C 185.247 -1.41813 -0.757996 0
M  V30 2047 O 186.437 -1.63527 -0.600382 0
M  V30 2048 C 183.569 -3.23716 -1.06869 0
M  V30 2049 H 184.762 -2.91366 0.710345 0
M  V30 2050 H 182.315 -1.5092 0.406547 0
M  V30 2051 H 183.05 -2.66393 -1.84947 0
M  V30 2052 H 182.835 -3.88105 -0.558277 0
M  V30 2053 H 184.325 -3.87831 -1.54845 0
M  V30 2054 N 184.763 -0.387143 -1.52771 0
M  V30 2055 C 185.726 0.436939 -2.24997 0
M  V30 2056 C 186.726 0.991991 -1.26555 0
M  V30 2057 O 187.916 0.874335 -1.50669 0
M  V30 2058 C 185.048 1.61281 -3.00335 0
M  V30 2059 H 186.241 -0.195365 -2.99263 0
M  V30 2060 H 183.794 -0.139218 -1.55679 0
M  V30 2061 H 184.529 2.2826 -2.30364 0
M  V30 2062 H 184.314 1.22154 -3.72587 0
M  V30 2063 H 185.804 2.19629 -3.5518 0
M  V30 2064 N 186.241 1.57166 -0.116904 0
M  V30 2065 C 187.487 1.95412 0.542405 0
M  V30 2066 C 187.82 1.00019 1.66463 0
M  V30 2067 O 187.095 0.0370346 1.94465 0
M  V30 2068 C 187.378 3.43615 1.07708 0
M  V30 2069 C 187.231 4.49781 -0.0415868 0
M  V30 2070 C 188.55 3.93616 1.96861 0
M  V30 2071 H 185.669 0.710543 0.195696 0
M  V30 2072 H 188.311 1.89027 -0.192038 0
M  V30 2073 H 186.461 3.49187 1.70296 0
M  V30 2074 H 188.133 4.56308 -0.676793 0
M  V30 2075 H 186.376 4.28033 -0.705019 0
M  V30 2076 H 187.047 5.50733 0.373717 0
M  V30 2077 H 189.523 3.90335 1.44146 0
M  V30 2078 H 188.399 4.97838 2.3119 0
M  V30 2079 H 188.66 3.34188 2.89432 0
M  V30 2080 N 187.719 -0.156864 1.56817 0
M  V30 2081 C 188.996 -0.899244 1.73704 0
M  V30 2082 C 189.376 -1.99771 0.682254 0
M  V30 2083 O 188.724 -2.26515 -0.300522 0
M  V30 2084 C 188.934 -1.45075 3.17418 0
M  V30 2085 C 190.282 -1.91802 3.7881 0
M  V30 2086 O 191.306 -1.54838 3.20786 0
M  V30 2087 O 190.165 -2.5994 4.80722 0
M  V30 2088 H 187.259 -0.424267 0.709878 0
M  V30 2089 H 189.805 -0.143561 1.69092 0
M  V30 2090 H 188.577 -0.660846 3.85679 0
M  V30 2091 H 188.2 -2.27021 3.26416 0
M  V30 2092 N 189.197 -1.51736 -0.425897 0
M  V30 2093 C 190.107 -1.76738 -1.54275 0
M  V30 2094 C 191.123 -0.65211 -1.61318 0
M  V30 2095 O 192.299 -0.935654 -1.78346 0
M  V30 2096 C 189.364 -1.89755 -2.90162 0
M  V30 2097 C 188.425 -3.13633 -2.93143 0
M  V30 2098 C 187.658 -3.2602 -4.22548 0
M  V30 2099 O 187.881 -2.44067 -5.15546 0
M  V30 2100 O 186.815 -4.19071 -4.32046 0
M  V30 2101 H 190.641 -2.71502 -1.36089 0
M  V30 2102 H 188.226 -1.36376 -0.610069 0
M  V30 2103 H 190.108 -2.00236 -3.70788 0
M  V30 2104 H 188.783 -0.981785 -3.08452 0
M  V30 2105 H 187.69 -3.08622 -2.11431 0
M  V30 2106 H 189.023 -4.04936 -2.798 0
M  V30 2107 N 190.675 0.682077 -1.42076 0
M  V30 2108 C 191.638 1.77756 -1.44691 0
M  V30 2109 C 192.638 1.5726 -0.335535 0
M  V30 2110 O 193.828 1.63686 -0.596037 0
M  V30 2111 C 190.96 3.16301 -1.27146 0
M  V30 2112 H 192.153 1.76826 -2.42224 0
M  V30 2113 H 189.706 0.891012 -1.28416 0
M  V30 2114 H 190.441 3.22862 -0.305075 0
M  V30 2115 H 190.226 3.32581 -2.07683 0
M  V30 2116 H 191.716 3.96241 -1.31843 0
M  V30 2117 N 192.153 1.28127 0.917671 0
M  V30 2118 C 193.402 1.14432 1.66097 0
M  V30 2119 C 193.715 -0.307247 1.93172 0
M  V30 2120 O 194.921 -0.565259 2.65551 0
M  V30 2121 C 193.377 2.00015 2.99202 0
M  V30 2122 C 192.985 3.49889 2.79789 0
M  V30 2123 C 194.729 1.94996 3.77064 0
M  V30 2124 C 192.636 4.27636 4.08511 0
M  V30 2125 H 191.566 0.424662 0.62304 0
M  V30 2126 H 194.217 1.52628 1.01868 0
M  V30 2127 H 192.599 1.54672 3.64544 0
M  V30 2128 H 193.773 4.03162 2.23152 0
M  V30 2129 H 192.088 3.56392 2.15345 0
M  V30 2130 H 194.685 2.50354 4.72469 0
M  V30 2131 H 195.028 0.925819 4.05875 0
M  V30 2132 H 195.561 2.38287 3.18534 0
M  V30 2133 H 192.3 5.30615 3.84874 0
M  V30 2134 H 191.82 3.79137 4.64774 0
M  V30 2135 H 193.499 4.37346 4.76799 0
M  V30 2136 N 193.631 -1.12557 1.10312 0
M  V30 2137 C 194.563 -2.17971 0.708625 0
M  V30 2138 C 195.576 -1.60806 -0.254027 0
M  V30 2139 O 196.765 -1.78458 -0.0386891 0
M  V30 2140 C 193.865 -3.38891 0.0248198 0
M  V30 2141 C 193.038 -4.25548 1.01132 0
M  V30 2142 C 192.097 -5.24972 0.35924 0
M  V30 2143 O 191.123 -5.60174 1.00965 0
M  V30 2144 N 192.325 -5.73747 -0.882847 0
M  V30 2145 H 195.09 -2.52427 1.61557 0
M  V30 2146 H 192.651 -1.27967 0.991771 0
M  V30 2147 H 194.643 -4.02485 -0.422852 0
M  V30 2148 H 193.213 -3.02596 -0.784514 0
M  V30 2149 H 192.433 -3.58589 1.6373 0
M  V30 2150 H 193.721 -4.80294 1.67914 0
M  V30 2151 H 193.119 -5.4731 -1.43065 0
M  V30 2152 H 191.676 -6.39234 -1.27369 0
M  V30 2153 N 195.109 -0.891671 -1.2995 0
M  V30 2154 C 196.019 -0.367691 -2.31701 0
M  V30 2155 C 197.035 0.533486 -1.6562 0
M  V30 2156 O 198.211 0.424997 -1.96865 0
M  V30 2157 C 195.276 0.403406 -3.44345 0
M  V30 2158 C 194.337 -0.528328 -4.26037 0
M  V30 2159 C 193.57 0.206063 -5.33302 0
M  V30 2160 O 193.793 1.43119 -5.52153 0
M  V30 2161 O 192.727 -0.447281 -6.00236 0
M  V30 2162 H 196.553 -1.21163 -2.78484 0
M  V30 2163 H 194.138 -0.655725 -1.34241 0
M  V30 2164 H 196.02 0.839753 -4.12948 0
M  V30 2165 H 194.695 1.22354 -2.99685 0
M  V30 2166 H 193.602 -1.01362 -3.60106 0
M  V30 2167 H 194.935 -1.31465 -4.74318 0
M  V30 2168 N 196.587 1.43421 -0.653314 0
M  V30 2169 C 197.835 2.01414 -0.166415 0
M  V30 2170 C 198.156 1.51803 1.22397 0
M  V30 2171 O 197.426 0.730693 1.81763 0
M  V30 2172 H 196.006 0.744703 -0.0585319 0
M  V30 2173 H 198.668 1.75629 -0.845003 0
M  V30 2174 H 197.764 3.11734 -0.151111 0
M  V30 2175 N 198.065 0.39524 1.52563 0
M  V30 2176 C 198.995 -0.428384 2.29537 0
M  V30 2177 C 199.976 -1.05831 1.33169 0
M  V30 2178 O 201.161 -1.06995 1.62067 0
M  V30 2179 C 198.291 -1.55274 3.10656 0
M  V30 2180 C 197.245 -1.04855 4.14957 0
M  V30 2181 C 196.571 -2.26543 4.84337 0
M  V30 2182 C 197.871 -0.112324 5.22179 0
M  V30 2183 H 199.565 0.213867 2.98635 0
M  V30 2184 H 197.111 0.104298 1.43622 0
M  V30 2185 H 199.064 -2.1358 3.63265 0
M  V30 2186 H 197.788 -2.22266 2.39302 0
M  V30 2187 H 196.447 -0.487985 3.63338 0
M  V30 2188 H 196.095 -2.92059 4.09525 0
M  V30 2189 H 195.795 -1.93466 5.54837 0
M  V30 2190 H 197.319 -2.85481 5.39753 0
M  V30 2191 H 198.733 -0.603752 5.70112 0
M  V30 2192 H 197.13 0.128968 5.99961 0
M  V30 2193 H 198.2 0.837052 4.77621 0
M  V30 2194 N 199.544 -1.57102 0.125237 0
M  V30 2195 C 200.454 -2.19191 -0.8362 0
M  V30 2196 C 201.47 -1.16985 -1.28805 0
M  V30 2197 O 202.646 -1.49479 -1.34974 0
M  V30 2198 C 199.711 -2.78407 -2.06617 0
M  V30 2199 C 198.772 -3.9567 -1.66565 0
M  V30 2200 C 198.005 -4.52052 -2.83698 0
M  V30 2201 O 198.228 -4.07326 -3.99302 0
M  V30 2202 O 197.162 -5.42645 -2.60423 0
M  V30 2203 H 200.988 -3.01816 -0.337776 0
M  V30 2204 H 198.573 -1.4906 -0.100695 0
M  V30 2205 H 200.455 -3.16129 -2.7864 0
M  V30 2206 H 199.13 -1.9881 -2.55453 0
M  V30 2207 H 198.037 -3.62705 -0.916296 0
M  V30 2208 H 199.37 -4.76722 -1.22464 0
M  V30 2209 N 201.022 0.148545 -1.56898 0
M  V30 2210 C 202.268 0.862694 -1.83536 0
M  V30 2211 C 202.601 1.80889 -0.706604 0
M  V30 2212 O 201.876 1.92328 0.289885 0
M  V30 2213 C 202.159 1.63853 -3.20662 0
M  V30 2214 C 202.012 0.713925 -4.44098 0
M  V30 2215 C 203.331 2.60133 -3.54991 0
M  V30 2216 H 200.45 0.312179 -0.667618 0
M  V30 2217 H 203.092 0.127953 -1.89569 0
M  V30 2218 H 201.242 2.26489 -3.1565 0
M  V30 2219 H 202.914 0.098686 -4.61194 0
M  V30 2220 H 201.157 0.0234019 -4.33794 0
M  V30 2221 H 201.828 1.29278 -5.36648 0
M  V30 2222 H 204.304 2.07616 -3.60603 0
M  V30 2223 H 203.18 3.11468 -4.51972 0
M  V30 2224 H 203.441 3.41417 -2.80868 0
M  V30 2225 N 202.5 1.5196 0.417844 0
M  V30 2226 C 203.746 1.66793 1.16411 0
M  V30 2227 C 204.101 0.388758 1.88432 0
M  V30 2228 O 203.394 -0.616409 1.81414 0
M  V30 2229 C 203.588 2.82269 2.19223 0
M  V30 2230 C 203.417 4.21293 1.57297 0
M  V30 2231 C 202.187 4.86948 1.34944 0
M  V30 2232 C 204.385 5.03704 1.03858 0
M  V30 2233 N 202.367 6.1003 0.688195 0
M  V30 2234 C 203.738 6.1795 0.503742 0
M  V30 2235 C 205.793 4.89095 0.932203 0
M  V30 2236 C 204.496 7.19188 -0.127034 0
M  V30 2237 C 206.522 5.90559 0.315293 0
M  V30 2238 C 205.884 7.0409 -0.208906 0
M  V30 2239 H 201.983 0.66407 0.412959 0
M  V30 2240 H 204.567 1.89242 0.457772 0
M  V30 2241 H 202.738 2.61451 2.87225 0
M  V30 2242 H 204.47 2.86183 2.86149 0
M  V30 2243 H 201.225 4.45156 1.61657 0
M  V30 2244 H 201.649 6.75964 0.374449 0
M  V30 2245 H 206.291 4.01557 1.32332 0
M  V30 2246 H 204.009 8.06359 -0.530231 0
M  V30 2247 H 207.595 5.81327 0.234625 0
M  V30 2248 H 206.475 7.81257 -0.67875 0
M  V30 2249 N 203.978 -0.674533 1.42435 0
M  V30 2250 C 205.203 -1.46784 1.46524 0
M  V30 2251 C 205.628 -1.87938 0.078066 0
M  V30 2252 O 204.986 -1.56014 -0.92354 0
M  V30 2253 C 205.034 -2.69307 2.39805 0
M  V30 2254 O 204.138 -3.67587 1.86959 0
M  V30 2255 H 203.479 -0.440959 0.496439 0
M  V30 2256 H 206.009 -0.827326 1.87127 0
M  V30 2257 H 206.019 -3.17374 2.56393 0
M  V30 2258 H 204.694 -2.38692 3.40586 0
M  V30 2259 H 203.271 -3.2662 1.79927 0
M  V30 2260 N 205.456 -1.28612 -0.910864 0
M  V30 2261 C 206.403 -1.12786 -2.01365 0
M  V30 2262 C 207.373 -0.024201 -1.66082 0
M  V30 2263 O 208.558 -0.189667 -1.89855 0
M  V30 2264 C 205.698 -0.798743 -3.35729 0
M  V30 2265 C 204.811 -1.98173 -3.83864 0
M  V30 2266 C 203.946 -1.59298 -5.06752 0
M  V30 2267 C 202.985 -2.74245 -5.47226 0
M  V30 2268 N 202.122 -2.35842 -6.61304 0
M  V30 2269 H 206.962 -2.07142 -2.14234 0
M  V30 2270 H 204.499 -1.03093 -1.0493 0
M  V30 2271 H 206.457 -0.588662 -4.13026 0
M  V30 2272 H 205.087 0.10789 -3.2262 0
M  V30 2273 H 204.139 -2.30386 -3.02699 0
M  V30 2274 H 205.451 -2.84343 -4.09818 0
M  V30 2275 H 204.605 -1.34513 -5.916 0
M  V30 2276 H 203.344 -0.702618 -4.82612 0
M  V30 2277 H 202.349 -2.99725 -4.60918 0
M  V30 2278 H 203.574 -3.63928 -5.73353 0
M  V30 2279 H 201.52 -1.49279 -6.38789 0
M  V30 2280 H 201.437 -3.15546 -6.86998 0
M  V30 2281 H 202.705 -2.14348 -7.4945 0
M  V30 2282 N 206.934 1.1197 -1.10907 0
M  V30 2283 C 208.18 1.8386 -0.855773 0
M  V30 2284 C 208.513 1.84134 0.617103 0
M  V30 2285 O 207.788 1.29041 1.45529 0
M  V30 2286 C 208.071 3.31305 -1.411 0
M  V30 2287 C 207.924 3.39456 -2.9511 0
M  V30 2288 C 209.243 4.2721 -1.05736 0
M  V30 2289 H 206.362 0.667545 -0.312334 0
M  V30 2290 H 209.004 1.31331 -1.37303 0
M  V30 2291 H 207.154 3.76169 -0.97105 0
M  V30 2292 H 208.826 3.03191 -3.47668 0
M  V30 2293 H 207.069 2.79849 -3.31462 0
M  V30 2294 H 207.74 4.43209 -3.29044 0
M  V30 2295 H 210.216 3.90497 -1.43706 0
M  V30 2296 H 209.092 5.28775 -1.47269 0
M  V30 2297 H 209.353 4.42088 0.0325958 0
M  V30 2298 N 208.412 0.89855 1.29475 0
M  V30 2299 C 209.64 0.539261 1.99749 0
M  V30 2300 C 210.055 -0.875716 1.67262 0
M  V30 2301 O 209.412 -1.57786 0.917049 0
M  V30 2302 C 209.463 0.72061 3.54245 0
M  V30 2303 O 209.184 2.07989 3.8558 0
M  V30 2304 C 210.685 0.366118 4.41786 0
M  V30 2305 H 207.905 0.207047 0.638258 0
M  V30 2306 H 210.449 1.20758 1.65039 0
M  V30 2307 H 208.604 0.0994862 3.87272 0
M  V30 2308 H 209.018 2.10841 4.80257 0
M  V30 2309 H 210.492 0.543848 5.49314 0
M  V30 2310 H 210.969 -0.696763 4.33638 0
M  V30 2311 H 211.575 0.964135 4.14228 0
M  V30 2312 N 209.89 -1.43072 0.660911 0
M  V30 2313 C 211.301 -1.84932 0.256348 0
M  V30 2314 C 211.652 -1.55325 -1.19868 0
M  V30 2315 O 210.777 -1.00607 -1.91591 0
M  V30 2316 C 211.372 -3.35684 0.458475 0
M  V30 2317 C 209.931 -3.76245 0.108161 0
M  V30 2318 C 209.078 -2.66749 0.757641 0
M  V30 2319 H 212.029 -1.33116 0.864051 0
M  V30 2320 H 212.05 -3.79365 -0.293683 0
M  V30 2321 H 211.562 -3.572 1.51755 0
M  V30 2322 H 209.663 -3.60338 -0.948014 0
M  V30 2323 H 209.776 -4.76058 0.538992 0
M  V30 2324 H 208.14 -2.53989 0.190185 0
M  V30 2325 H 208.923 -2.91092 1.81989 0
M  V30 2326 N 211.368 -0.403325 -1.52352 0
M  V30 2327 C 212.298 0.416205 -2.29761 0
M  V30 2328 C 213.279 1.05123 -1.33728 0
M  V30 2329 O 214.464 1.06134 -1.62632 0
M  V30 2330 C 211.594 1.53624 -3.11475 0
M  V30 2331 C 210.548 1.02653 -4.15507 0
M  V30 2332 C 209.874 2.23971 -4.85532 0
M  V30 2333 C 211.174 0.08463 -5.22231 0
M  V30 2334 H 212.868 -0.229701 -2.98518 0
M  V30 2335 H 210.414 -0.111913 -1.43564 0
M  V30 2336 H 212.367 2.1165 -3.64393 0
M  V30 2337 H 211.091 2.20994 -2.40477 0
M  V30 2338 H 209.75 0.46871 -3.63591 0
M  V30 2339 H 209.398 2.89883 -4.11068 0
M  V30 2340 H 209.098 1.90521 -5.55856 0
M  V30 2341 H 210.622 2.82614 -5.41259 0
M  V30 2342 H 212.036 0.573509 -5.70424 0
M  V30 2343 H 210.433 -0.160783 -5.99885 0
M  V30 2344 H 211.503 -0.86237 -4.7717 0
M  V30 2345 N 212.846 1.57033 -0.133567 0
M  V30 2346 C 213.793 2.16074 0.811208 0
M  V30 2347 C 214.763 1.08979 1.2535 0
M  V30 2348 O 215.948 1.36958 1.32843 0
M  V30 2349 C 213.088 2.77595 2.05024 0
M  V30 2350 C 212.201 3.99042 1.65498 0
M  V30 2351 C 211.336 4.48603 2.84479 0
M  V30 2352 C 210.375 5.62547 2.41262 0
M  V30 2353 N 209.512 6.06787 3.53206 0
M  V30 2354 H 214.352 2.96477 0.300906 0
M  V30 2355 H 211.889 1.46462 0.136822 0
M  V30 2356 H 213.847 3.11402 2.77642 0
M  V30 2357 H 212.477 1.99859 2.53488 0
M  V30 2358 H 211.529 3.71302 0.826981 0
M  V30 2359 H 212.841 4.81629 1.29748 0
M  V30 2360 H 211.995 4.84395 3.65303 0
M  V30 2361 H 210.734 3.64995 3.23465 0
M  V30 2362 H 209.739 5.26345 1.58874 0
M  V30 2363 H 210.964 6.47931 2.03377 0
M  V30 2364 H 208.91 5.26117 3.91838 0
M  V30 2365 H 208.827 6.84266 3.21427 0
M  V30 2366 H 210.095 6.4722 4.34427 0
M  V30 2367 N 214.325 -0.140222 1.56975 0
M  V30 2368 C 215.572 -0.851687 1.83719 0
M  V30 2369 C 215.9 -1.80862 0.715485 0
M  V30 2370 O 215.155 -1.93464 -0.294956 0
M  V30 2371 C 215.454 -1.65386 3.16832 0
M  V30 2372 C 215.12 -0.843112 4.42947 0
M  V30 2373 C 213.782 -0.619464 4.77196 0
M  V30 2374 C 216.134 -0.276582 5.20466 0
M  V30 2375 C 213.462 0.181312 5.8642 0
M  V30 2376 C 215.814 0.51127 6.30531 0
M  V30 2377 C 214.478 0.745432 6.63325 0
M  V30 2378 H 213.748 -0.311654 0.672274 0
M  V30 2379 H 216.395 -0.115006 1.91154 0
M  V30 2380 H 214.7 -2.46084 3.04877 0
M  V30 2381 H 216.397 -2.20793 3.34741 0
M  V30 2382 H 212.987 -1.0275 4.16101 0
M  V30 2383 H 217.171 -0.436632 4.94376 0
M  V30 2384 H 212.427 0.372165 6.10266 0
M  V30 2385 H 216.601 0.957354 6.89788 0
M  V30 2386 H 214.228 1.36778 7.47794 0
M  V30 2387 N 215.803 -1.52179 -0.40978 0
M  V30 2388 C 217.031 -1.70054 -1.17853 0
M  V30 2389 C 217.446 -0.409735 -1.843 0
M  V30 2390 O 216.803 0.614183 -1.71855 0
M  V30 2391 C 216.854 -2.83568 -2.24213 0
M  V30 2392 O 216.575 -4.0765 -1.60478 0
M  V30 2393 C 218.076 -3.12947 -3.13973 0
M  V30 2394 H 215.296 -0.569917 -0.354169 0
M  V30 2395 H 217.84 -1.98734 -0.482198 0
M  V30 2396 H 215.995 -2.57409 -2.89516 0
M  V30 2397 H 216.409 -4.70899 -2.30986 0
M  V30 2398 H 217.883 -3.95889 -3.84677 0
M  V30 2399 H 218.36 -2.26472 -3.76307 0
M  V30 2400 H 218.966 -3.40868 -2.5434 0
M  V30 2401 N 217.281 0.66697 -1.42791 0
M  V30 2402 C 218.228 1.7803 -1.4688 0
M  V30 2403 C 219.198 1.6299 -0.319919 0
M  V30 2404 O 220.383 1.83432 -0.525118 0
M  V30 2405 C 217.523 3.1611 -1.38451 0
M  V30 2406 C 216.636 3.42381 -2.63437 0
M  V30 2407 C 215.771 4.70232 -2.47094 0
M  V30 2408 C 214.81 4.89564 -3.67415 0
M  V30 2409 N 213.947 6.08661 -3.49966 0
M  V30 2410 H 218.787 1.7387 -2.42019 0
M  V30 2411 H 216.324 0.84868 -1.20149 0
M  V30 2412 H 218.282 3.95914 -1.31561 0
M  V30 2413 H 216.912 3.19374 -0.469033 0
M  V30 2414 H 215.964 2.56774 -2.80662 0
M  V30 2415 H 217.276 3.52557 -3.52853 0
M  V30 2416 H 216.43 5.5814 -2.37834 0
M  V30 2417 H 215.169 4.62353 -1.5518 0
M  V30 2418 H 214.174 4.00096 -3.77099 0
M  V30 2419 H 215.399 4.99282 -4.6032 0
M  V30 2420 H 213.345 6.0194 -2.60776 0
M  V30 2421 H 213.262 6.19733 -4.32975 0
M  V30 2422 H 214.53 6.99226 -3.44532 0
M  V30 2423 N 218.759 1.29093 0.90403 0
M  V30 2424 C 220.008 1.16187 1.64874 0
M  V30 2425 C 220.321 -0.286742 1.93487 0
M  V30 2426 O 221.527 -0.537062 2.66135 0
M  V30 2427 C 219.983 2.03177 2.97064 0
M  V30 2428 C 219.591 3.52836 2.76062 0
M  V30 2429 C 221.335 1.98984 3.74974 0
M  V30 2430 C 219.242 4.31945 4.03952 0
M  V30 2431 H 218.172 0.431246 0.618501 0
M  V30 2432 H 220.823 1.53699 1.00243 0
M  V30 2433 H 219.205 1.5853 3.62883 0
M  V30 2434 H 220.379 4.05507 2.18863 0
M  V30 2435 H 218.694 3.58656 2.11553 0
M  V30 2436 H 221.291 2.55351 4.69787 0
M  V30 2437 H 221.634 0.968815 4.0487 0
M  V30 2438 H 222.167 2.41652 3.15989 0
M  V30 2439 H 218.906 5.34667 3.79225 0
M  V30 2440 H 218.426 3.84045 4.60727 0
M  V30 2441 H 220.105 4.42379 4.72133 0
M  V30 2442 N 220.237 -1.11381 1.11499 0
M  V30 2443 C 221.462 -1.87475 0.887019 0
M  V30 2444 C 221.887 -1.79639 -0.557796 0
M  V30 2445 O 221.245 -1.15924 -1.39396 0
M  V30 2446 C 221.293 -3.34213 1.35403 0
M  V30 2447 O 220.397 -4.0903 0.526146 0
M  V30 2448 H 219.738 -0.582099 0.319463 0
M  V30 2449 H 222.268 -1.40785 1.48461 0
M  V30 2450 H 222.278 -3.8506 1.34881 0
M  V30 2451 H 220.953 -3.39232 2.40612 0
M  V30 2452 H 219.53 -3.68082 0.597522 0
M  V30 2453 N 221.715 -0.905404 -1.28997 0
M  V30 2454 C 222.662 -0.385892 -2.27551 0
M  V30 2455 C 223.632 0.535113 -1.57244 0
M  V30 2456 O 224.817 0.459119 -1.85194 0
M  V30 2457 C 221.957 0.375461 -3.43051 0
M  V30 2458 C 221.07 -0.577092 -4.28128 0
M  V30 2459 C 220.205 0.201879 -5.30816 0
M  V30 2460 C 219.244 -0.744829 -6.07551 0
M  V30 2461 N 218.381 9.42587e-05 -7.021 0
M  V30 2462 H 223.221 -1.23139 -2.71368 0
M  V30 2463 H 220.758 -0.618542 -1.33463 0
M  V30 2464 H 222.716 0.832992 -4.088 0
M  V30 2465 H 221.346 1.18537 -3.00248 0
M  V30 2466 H 220.398 -1.15315 -3.62501 0
M  V30 2467 H 221.71 -1.30152 -4.8152 0
M  V30 2468 H 220.864 0.720351 -6.02408 0
M  V30 2469 H 219.603 0.959413 -4.7817 0
M  V30 2470 H 218.608 -1.27475 -5.34818 0
M  V30 2471 H 219.833 -1.50178 -6.62286 0
M  V30 2472 H 217.779 0.739791 -6.51815 0
M  V30 2473 H 217.696 -0.664321 -7.53076 0
M  V30 2474 H 218.964 0.498644 -7.77903 0
M  V30 2475 N 223.193 1.4272 -0.668489 0
M  V30 2476 C 224.441 2.01226 -0.187769 0
M  V30 2477 C 224.762 1.53092 1.2078 0
M  V30 2478 O 224.032 0.74993 1.80977 0
M  V30 2479 H 222.612 0.744041 -0.0664272 0
M  V30 2480 H 225.274 1.74723 -0.863583 0
M  V30 2481 H 224.37 3.11556 -0.184166 0
M  V30 2482 N 224.671 0.411399 1.52136 0
M  V30 2483 C 225.92 -0.165009 2.01024 0
M  V30 2484 C 226.233 -1.4603 1.30133 0
M  V30 2485 O 227.439 -2.1181 1.69849 0
M  V30 2486 C 225.895 -0.344618 3.58246 0
M  V30 2487 C 225.503 0.938716 4.38055 0
M  V30 2488 C 227.247 -0.876195 4.15359 0
M  V30 2489 C 225.154 0.726172 5.86925 0
M  V30 2490 H 224.084 -0.0654407 0.751155 0
M  V30 2491 H 226.735 0.537192 1.75461 0
M  V30 2492 H 225.117 -1.10921 3.80148 0
M  V30 2493 H 226.291 1.70963 4.27912 0
M  V30 2494 H 224.606 1.39688 3.92271 0
M  V30 2495 H 227.203 -1.05128 5.24263 0
M  V30 2496 H 227.546 -1.85152 3.7286 0
M  V30 2497 H 228.079 -0.170607 3.97434 0
M  V30 2498 H 224.818 1.67312 6.33788 0
M  V30 2499 H 224.338 -0.00540283 5.998 0
M  V30 2500 H 226.017 0.369231 6.45946 0
M  V30 2501 N 226.149 -1.5696 0.141893 0
M  V30 2502 C 227.112 -2.15316 -0.785587 0
M  V30 2503 C 228.112 -1.09366 -1.1788 0
M  V30 2504 O 229.302 -1.35031 -1.10056 0
M  V30 2505 C 226.434 -2.71211 -2.06537 0
M  V30 2506 H 227.627 -2.98608 -0.278041 0
M  V30 2507 H 225.18 -1.5593 -0.107519 0
M  V30 2508 H 225.915 -1.91571 -2.6167 0
M  V30 2509 H 225.7 -3.4872 -1.79268 0
M  V30 2510 H 227.19 -3.16189 -2.72789 0
M  V30 2511 N 227.627 0.131896 -1.57047 0
M  V30 2512 C 228.904 0.871495 -1.75112 0
M  V30 2513 C 229.284 1.9866 -0.713949 0
M  V30 2514 O 228.632 2.26965 0.264447 0
M  V30 2515 C 228.842 1.40007 -3.19686 0
M  V30 2516 C 230.19 1.85752 -3.81813 0
M  V30 2517 O 231.214 1.49715 -3.23209 0
M  V30 2518 O 230.073 2.5226 -4.84796 0
M  V30 2519 H 227.167 0.412919 -0.716538 0
M  V30 2520 H 229.713 0.116641 -1.69299 0
M  V30 2521 H 228.485 0.599404 -3.86682 0
M  V30 2522 H 228.108 2.218 -3.29986 0
M  V30 2523 N 229.106 1.52395 0.401703 0
M  V30 2524 C 230.355 1.66044 1.14509 0
M  V30 2525 C 230.668 0.400216 1.91462 0
M  V30 2526 O 231.874 0.416632 2.68284 0
M  V30 2527 C 230.33 2.93388 2.0845 0
M  V30 2528 C 229.938 4.26545 1.36978 0
M  V30 2529 C 231.682 3.16402 2.83001 0
M  V30 2530 C 229.589 5.45007 2.29611 0
M  V30 2531 H 228.519 0.618562 0.431158 0
M  V30 2532 H 231.17 1.78886 0.40892 0
M  V30 2533 H 229.552 2.74263 2.8565 0
M  V30 2534 H 230.726 4.56179 0.650916 0
M  V30 2535 H 229.041 4.09692 0.74438 0
M  V30 2536 H 231.638 4.02085 3.52465 0
M  V30 2537 H 231.981 2.30943 3.46368 0
M  V30 2538 H 232.514 3.36034 2.12898 0
M  V30 2539 H 229.253 6.32835 1.70879 0
M  V30 2540 H 228.773 5.19702 2.9945 0
M  V30 2541 H 230.452 5.7838 2.89974 0
M  V30 2542 N 230.584 -0.659388 1.43143 0
M  V30 2543 C 231.517 -1.78425 1.42267 0
M  V30 2544 C 232.495 -1.60085 0.284894 0
M  V30 2545 O 233.679 -1.82351 0.477527 0
M  V30 2546 C 230.806 -3.15642 1.22833 0
M  V30 2547 C 229.852 -3.52698 2.39806 0
M  V30 2548 S 230.685 -3.53372 4.02353 0
M  V30 2549 C 231.841 -4.93256 3.85291 0
M  V30 2550 H 232.074 -1.78897 2.37452 0
M  V30 2551 H 229.607 -0.831469 1.301 0
M  V30 2552 H 231.565 -3.94838 1.12308 0
M  V30 2553 H 230.226 -3.12739 0.29207 0
M  V30 2554 H 229.419 -4.52475 2.21996 0
M  V30 2555 H 229.021 -2.80899 2.46925 0
M  V30 2556 H 231.313 -5.81751 3.47235 0
M  V30 2557 H 232.256 -5.16115 4.84799 0
M  V30 2558 H 232.664 -4.665 3.17865 0
M  V30 2559 N 232.062 -1.29571 -0.897171 0
M  V30 2560 C 233.311 -1.1706 -1.64256 0
M  V30 2561 C 233.624 0.276476 -1.93636 0
M  V30 2562 O 234.83 0.52294 -2.66416 0
M  V30 2563 C 233.286 -2.0475 -2.95982 0
M  V30 2564 C 232.894 -3.54295 -2.74187 0
M  V30 2565 C 234.638 -2.0097 -3.73914 0
M  V30 2566 C 232.545 -4.34081 -4.01656 0
M  V30 2567 H 231.475 -0.43452 -0.616205 0
M  V30 2568 H 234.126 -1.54229 -0.994268 0
M  V30 2569 H 232.508 -1.60452 -3.62038 0
M  V30 2570 H 233.682 -4.06662 -2.1671 0
M  V30 2571 H 231.997 -3.59773 -2.09648 0
M  V30 2572 H 234.594 -2.57838 -4.68427 0
M  V30 2573 H 234.937 -0.990273 -4.0435 0
M  V30 2574 H 235.47 -2.43325 -3.14703 0
M  V30 2575 H 232.209 -5.36671 -3.76384 0
M  V30 2576 H 231.729 -3.86483 -4.58684 0
M  V30 2577 H 233.408 -4.44877 -4.69781 0
M  V30 2578 N 233.54 1.10788 -1.12088 0
M  V30 2579 C 234.503 2.15207 -0.788577 0
M  V30 2580 C 235.503 1.59609 0.195317 0
M  V30 2581 O 236.693 1.74174 -0.0300193 0
M  V30 2582 C 233.825 3.4047 -0.171174 0
M  V30 2583 H 235.018 2.46116 -1.71368 0
M  V30 2584 H 232.571 1.26089 -0.923652 0
M  V30 2585 H 233.306 3.15176 0.763832 0
M  V30 2586 H 233.091 3.82109 -0.879514 0
M  V30 2587 H 234.581 4.17576 0.04496 0
M  V30 2588 N 235.018 0.912232 1.28515 0
M  V30 2589 C 236.265 0.544599 1.95039 0
M  V30 2590 C 236.593 -0.911435 1.71823 0
M  V30 2591 O 235.848 -1.66317 1.03137 0
M  V30 2592 C 236.147 0.798392 3.48368 0
M  V30 2593 C 235.813 2.23374 3.91682 0
M  V30 2594 C 234.475 2.62617 4.03219 0
M  V30 2595 C 236.827 3.16786 4.13879 0
M  V30 2596 C 234.155 3.94429 4.3433 0
M  V30 2597 C 236.507 4.48161 4.46469 0
M  V30 2598 C 235.171 4.8726 4.56217 0
M  V30 2599 H 234.441 0.199283 0.7137 0
M  V30 2600 H 237.088 1.15327 1.52879 0
M  V30 2601 H 235.393 0.106908 3.91654 0
M  V30 2602 H 237.09 0.493141 3.97956 0
M  V30 2603 H 233.68 1.91922 3.83228 0
M  V30 2604 H 237.864 2.87677 4.0442 0
M  V30 2605 H 233.12 4.24426 4.40082 0
M  V30 2606 H 237.294 5.20559 4.62592 0
M  V30 2607 H 234.921 5.89431 4.80078 0
M  V30 2608 N 236.496 -1.42363 0.676048 0
M  V30 2609 C 237.912 -1.55811 0.345718 0
M  V30 2610 C 238.112 -1.65544 -1.14879 0
M  V30 2611 O 237.168 -1.62306 -1.93424 0
M  V30 2612 C 238.481 -2.80746 1.07713 0
M  V30 2613 C 240.029 -2.9452 1.05958 0
M  V30 2614 C 240.504 -4.22318 1.77233 0
M  V30 2615 N 241.995 -4.29233 1.74108 0
M  V30 2616 C 242.73 -5.26935 2.26113 0
M  V30 2617 N 242.226 -6.30783 2.86505 0
M  V30 2618 N 244.019 -5.18741 2.1648 0
M  V30 2619 H 236.17 -1.34289 1.6456 0
M  V30 2620 H 238.433 -0.646506 0.69335 0
M  V30 2621 H 238.139 -2.79696 2.13221 0
M  V30 2622 H 238.013 -3.71676 0.64316 0
M  V30 2623 H 240.4 -2.95097 0.0128255 0
M  V30 2624 H 240.481 -2.04817 1.53244 0
M  V30 2625 H 240.125 -4.22502 2.81877 0
M  V30 2626 H 240.055 -5.10958 1.27396 0
M  V30 2627 H 242.546 -3.54814 1.30059 0
M  V30 2628 H 242.859 -7.01691 3.23805 0
M  V30 2629 H 241.204 -6.31341 2.90575 0
M  V30 2630 H 244.395 -4.36533 1.68987 0
M  V30 2631 H 244.568 -5.94721 2.57316 0
M  V30 2632 N 237.974 -0.419461 -1.51915 0
M  V30 2633 C 239.202 0.152136 -2.0634 0
M  V30 2634 C 239.617 1.37988 -1.28859 0
M  V30 2635 O 238.974 1.79243 -0.343232 0
M  V30 2636 C 239.025 0.492266 -3.58133 0
M  V30 2637 O 238.746 -0.686736 -4.32684 0
M  V30 2638 C 240.247 1.11648 -4.2901 0
M  V30 2639 H 237.467 0.0158325 -0.670813 0
M  V30 2640 H 240.011 -0.593394 -1.95702 0
M  V30 2641 H 238.166 1.18769 -3.68745 0
M  V30 2642 H 238.58 -0.400341 -5.2297 0
M  V30 2643 H 240.054 1.3046 -5.36362 0
M  V30 2644 H 240.531 2.09251 -3.86148 0
M  V30 2645 H 241.137 0.460958 -4.22795 0
M  V30 2646 N 239.452 1.56882 -0.150215 0
M  V30 2647 C 240.868 1.58263 0.20617 0
M  V30 2648 C 241.068 1.16464 1.64434 0
M  V30 2649 O 240.124 0.866422 2.3717 0
M  V30 2650 C 241.437 3.00649 -0.0555025 0
M  V30 2651 C 242.985 3.12999 0.00795388 0
M  V30 2652 C 243.46 4.5744 -0.226429 0
M  V30 2653 N 244.951 4.62875 -0.173469 0
M  V30 2654 C 245.686 5.72454 -0.329288 0
M  V30 2655 N 245.182 6.90669 -0.543005 0
M  V30 2656 N 246.975 5.61467 -0.266666 0
M  V30 2657 H 239.126 1.82345 -1.08922 0
M  V30 2658 H 241.389 0.844149 -0.431413 0
M  V30 2659 H 241.095 3.3563 -1.05096 0
M  V30 2660 H 240.969 3.71337 0.66246 0
M  V30 2661 H 243.356 2.77857 0.993966 0
M  V30 2662 H 243.437 2.4479 -0.742388 0
M  V30 2663 H 243.081 4.93287 -1.20956 0
M  V30 2664 H 243.011 5.2378 0.544274 0
M  V30 2665 H 245.502 3.77898 -0.0130709 0
M  V30 2666 H 245.815 7.70045 -0.651922 0
M  V30 2667 H 244.16 6.92581 -0.579366 0
M  V30 2668 H 247.351 4.67992 -0.100441 0
M  V30 2669 H 247.524 6.46816 -0.391535 0
M  V30 2670 N 240.93 -0.123565 1.57115 0
M  V30 2671 C 242.176 -0.833386 1.84885 0
M  V30 2672 C 242.509 -1.79742 0.735292 0
M  V30 2673 O 241.784 -1.92764 -0.25925 0
M  V30 2674 C 242.067 -1.5873 3.23228 0
M  V30 2675 C 241.92 -0.643183 4.45178 0
M  V30 2676 C 243.239 -2.54453 3.59085 0
M  V30 2677 H 240.358 -0.301518 0.6725 0
M  V30 2678 H 243 -0.097778 1.89748 0
M  V30 2679 H 241.15 -2.21438 3.19214 0
M  V30 2680 H 242.822 -0.0253015 4.61293 0
M  V30 2681 H 241.065 0.0456139 4.33776 0
M  V30 2682 H 241.736 -1.20724 5.38637 0
M  V30 2683 H 244.212 -2.01853 3.63861 0
M  V30 2684 H 243.088 -3.04238 4.5687 0
M  V30 2685 H 243.349 -3.36906 2.86264 0
M  V30 2686 N 242.408 -1.52605 -0.393616 0
M  V30 2687 C 243.358 -1.73436 -1.48 0
M  V30 2688 C 244.342 -0.588386 -1.49756 0
M  V30 2689 O 245.534 -0.846047 -1.5547 0
M  V30 2690 C 242.663 -1.90247 -2.85764 0
M  V30 2691 C 241.749 -3.10763 -2.88595 0
M  V30 2692 N 242.14 -4.33196 -2.61103 0
M  V30 2693 C 240.438 -3.10914 -3.19763 0
M  V30 2694 C 241.139 -5.1477 -2.70899 0
M  V30 2695 N 240.115 -4.50356 -3.04435 0
M  V30 2696 H 243.917 -2.65727 -1.25563 0
M  V30 2697 H 241.431 -1.5085 -0.601513 0
M  V30 2698 H 243.428 -2.03291 -3.63976 0
M  V30 2699 H 242.088 -0.991663 -3.09186 0
M  V30 2700 H 243.099 -4.61408 -2.35209 0
M  V30 2701 H 239.776 -2.29626 -3.4868 0
M  V30 2702 H 241.166 -6.22355 -2.53227 0
M  V30 2703 N 243.887 0.651787 -1.4349 0
M  V30 2704 C 245.135 1.40888 -1.44897 0
M  V30 2705 C 245.456 1.94856 -0.0749086 0
M  V30 2706 O 244.726 1.74518 0.889956 0
M  V30 2707 H 243.306 0.522887 -0.533478 0
M  V30 2708 H 245.968 0.768609 -1.79104 0
M  V30 2709 H 245.064 2.25052 -2.16236 0
M  V30 2710 N 245.365 1.30045 0.890287 0
M  V30 2711 C 246.781 1.08261 1.17268 0
M  V30 2712 C 246.981 -0.160063 2.00863 0
M  V30 2713 O 246.037 -0.855181 2.37577 0
M  V30 2714 C 247.35 2.34323 1.8845 0
M  V30 2715 C 248.898 2.39735 2.01237 0
M  V30 2716 C 249.373 3.65625 2.7583 0
M  V30 2717 N 250.864 3.66402 2.83379 0
M  V30 2718 C 251.599 4.60498 3.41657 0
M  V30 2719 N 251.095 5.64933 4.01026 0
M  V30 2720 N 252.888 4.48051 3.39421 0
M  V30 2721 H 245.039 2.09777 0.332762 0
M  V30 2722 H 247.302 0.92446 0.209948 0
M  V30 2723 H 247.008 3.2498 1.34465 0
M  V30 2724 H 246.882 2.4256 2.88867 0
M  V30 2725 H 249.269 1.4956 2.54393 0
M  V30 2726 H 249.35 2.35476 0.999232 0
M  V30 2727 H 248.994 4.56156 2.23347 0
M  V30 2728 H 248.924 3.67144 3.77509 0
M  V30 2729 H 251.415 2.90896 2.41222 0
M  V30 2730 H 251.728 6.32841 4.43545 0
M  V30 2731 H 250.073 5.68732 3.99461 0
M  V30 2732 H 253.264 3.65649 2.92264 0
M  V30 2733 H 253.437 5.21565 3.84544 0
M  V30 2734 N 246.843 -1.10192 1.12674 0
M  V30 2735 C 248.083 -1.83825 0.893736 0
M  V30 2736 C 248.447 -1.83341 -0.570082 0
M  V30 2737 O 249.648 -2.52553 -0.920354 0
M  V30 2738 C 247.919 -3.26405 1.45582 0
M  V30 2739 S 249.478 -4.17136 1.36171 0
M  V30 2740 H 246.296 -0.633732 0.322342 0
M  V30 2741 H 248.898 -1.32581 1.43675 0
M  V30 2742 H 247.602 -3.24329 2.51473 0
M  V30 2743 H 247.133 -3.82721 0.910405 0
M  V30 2744 H 249.148 -4.95069 0.334863 0
M  V30 2745 N 248.321 -0.919034 -1.28029 0
M  V30 2746 C 249.732 -0.600735 -1.76771 0
M  V30 2747 C 250.083 0.884024 -1.75156 0
M  V30 2748 O 249.208 1.69163 -1.34956 0
M  V30 2749 C 249.803 -1.08372 -3.21 0
M  V30 2750 C 248.362 -0.816248 -3.67443 0
M  V30 2751 C 247.509 -1.24742 -2.47658 0
M  V30 2752 H 250.46 -1.09974 -1.14418 0
M  V30 2753 H 250.481 -0.427512 -3.78091 0
M  V30 2754 H 249.993 -2.16437 -3.22144 0
M  V30 2755 H 248.094 0.250968 -3.71754 0
M  V30 2756 H 248.207 -1.4277 -4.57333 0
M  V30 2757 H 246.571 -0.666083 -2.45836 0
M  V30 2758 H 247.354 -2.33653 -2.51518 0
M  V30 2759 N 249.799 1.42003 -0.683588 0
M  V30 2760 C 251.215 1.55625 -0.353976 0
M  V30 2761 C 251.415 1.66151 1.14 0
M  V30 2762 O 250.471 1.63329 1.92561 0
M  V30 2763 C 251.784 2.80171 -1.092 0
M  V30 2764 C 253.332 2.93954 -1.07518 0
M  V30 2765 C 253.807 4.21372 -1.79471 0
M  V30 2766 N 255.298 4.28303 -1.76381 0
M  V30 2767 C 256.033 5.25729 -2.28904 0
M  V30 2768 N 255.529 6.29254 -2.89846 0
M  V30 2769 N 257.322 5.17586 -2.19228 0
M  V30 2770 H 249.473 1.33415 -1.6527 0
M  V30 2771 H 251.736 0.64282 -0.696769 0
M  V30 2772 H 251.442 2.78561 -2.14701 0
M  V30 2773 H 251.316 3.7133 -0.662862 0
M  V30 2774 H 253.703 2.95086 -0.028475 0
M  V30 2775 H 253.784 2.04002 -1.54328 0
M  V30 2776 H 253.428 4.21001 -2.84114 0
M  V30 2777 H 253.358 5.10275 -1.30104 0
M  V30 2778 H 255.849 3.54119 -1.31939 0
M  V30 2779 H 256.162 6.99964 -3.27522 0
M  V30 2780 H 254.507 6.29791 -2.93919 0
M  V30 2781 H 257.698 4.35631 -1.71299 0
M  V30 2782 H 257.871 5.93348 -2.60466 0
M  V30 2783 N 251.277 0.427512 1.51691 0
M  V30 2784 C 252.507 -0.140986 2.06118 0
M  V30 2785 C 252.915 -1.37854 1.29588 0
M  V30 2786 O 252.258 -1.80411 0.346036 0
M  V30 2787 C 252.32 -0.538276 3.55447 0
M  V30 2788 C 251.984 0.591095 4.53161 0
M  V30 2789 C 252.981 1.46027 4.98971 0
M  V30 2790 C 250.666 0.769028 4.96378 0
M  V30 2791 C 252.66 2.49216 5.8666 0
M  V30 2792 C 250.347 1.80421 5.83859 0
M  V30 2793 C 251.345 2.66417 6.28897 0
M  V30 2794 O 251.033 3.68159 7.14643 0
M  V30 2795 H 250.765 -0.0157455 0.675817 0
M  V30 2796 H 253.319 0.602495 1.96365 0
M  V30 2797 H 251.549 -1.33432 3.6295 0
M  V30 2798 H 253.238 -1.0368 3.92435 0
M  V30 2799 H 254.004 1.33429 4.66285 0
M  V30 2800 H 249.883 0.109273 4.6087 0
M  V30 2801 H 253.427 3.16372 6.21735 0
M  V30 2802 H 249.324 1.93042 6.15959 0
M  V30 2803 H 250.092 3.64622 7.32798 0
M  V30 2804 N 252.755 -1.56801 0.158532 0
M  V30 2805 C 254.002 -1.9649 -0.489679 0
M  V30 2806 C 254.33 -1.04394 -1.6411 0
M  V30 2807 O 253.585 -0.0754401 -1.95555 0
M  V30 2808 C 253.884 -3.4235 -1.02623 0
M  V30 2809 C 253.55 -4.50899 0.00794526 0
M  V30 2810 C 252.212 -4.80312 0.292207 0
M  V30 2811 C 254.564 -5.16333 0.710584 0
M  V30 2812 C 251.892 -5.72461 1.28472 0
M  V30 2813 C 254.244 -6.09553 1.69199 0
M  V30 2814 C 252.908 -6.37339 1.98383 0
M  V30 2815 H 252.178 -0.719009 -0.179186 0
M  V30 2816 H 254.825 -1.8989 0.247798 0
M  V30 2817 H 253.13 -3.45838 -1.84128 0
M  V30 2818 H 254.827 -3.70393 -1.53656 0
M  V30 2819 H 251.417 -4.28015 -0.22379 0
M  V30 2820 H 255.601 -4.93732 0.504174 0
M  V30 2821 H 250.857 -5.92278 1.51714 0
M  V30 2822 H 255.031 -6.59327 2.24189 0
M  V30 2823 H 252.658 -7.08546 2.7544 0
M  V30 2824 N 254.233 0.115231 -1.57178 0
M  V30 2825 C 255.51 0.852873 -1.76027 0
M  V30 2826 C 255.89 1.97892 -0.73498 0
M  V30 2827 O 255.238 2.27232 0.24036 0
M  V30 2828 C 255.448 1.36608 -3.21153 0
M  V30 2829 C 256.796 1.81692 -3.83762 0
M  V30 2830 O 257.82 1.46278 -3.24779 0
M  V30 2831 O 256.679 2.47104 -4.87444 0
M  V30 2832 H 253.773 0.405296 -0.720877 0
M  V30 2833 H 256.319 0.0986785 -1.69413 0
M  V30 2834 H 255.091 0.558357 -3.87296 0
M  V30 2835 H 254.714 2.18287 -3.3232 0
M  V30 2836 N 255.711 1.52812 0.385517 0
M  V30 2837 C 256.959 1.67694 1.12797 0
M  V30 2838 C 257.28 0.421115 1.90399 0
M  V30 2839 O 256.55 -0.564551 1.87589 0
M  V30 2840 H 255.13 0.618155 0.419396 0
M  V30 2841 H 257.792 1.89938 0.436972 0
M  V30 2842 H 256.888 2.52896 1.82894 0
M  V30 2843 N 257.189 -0.644168 1.43834 0
M  V30 2844 C 258.6 -1.22554 1.40845 0
M  V30 2845 C 258.951 -1.9585 0.117115 0
M  V30 2846 O 258.076 -2.01734 -0.783086 0
M  V30 2847 C 258.671 -2.22907 2.55143 0
M  V30 2848 C 257.23 -2.76501 2.5539 0
M  V30 2849 C 256.377 -1.51287 2.32396 0
M  V30 2850 H 259.328 -0.43563 1.52604 0
M  V30 2851 H 259.349 -3.05259 2.2715 0
M  V30 2852 H 258.861 -1.69533 3.49114 0
M  V30 2853 H 256.962 -3.33914 1.65324 0
M  V30 2854 H 257.075 -3.23429 3.53455 0
M  V30 2855 H 255.439 -1.78957 1.81236 0
M  V30 2856 H 256.222 -0.998336 3.28463 0
M  V30 2857 N 258.668 -1.30515 -0.883378 0
M  V30 2858 C 259.598 -1.19607 -2.00541 0
M  V30 2859 C 260.579 -0.086346 -1.69881 0
M  V30 2860 O 261.764 -0.268654 -1.92333 0
M  V30 2861 C 258.894 -0.888758 -3.35736 0
M  V30 2862 C 257.848 -1.95659 -3.8066 0
M  V30 2863 C 257.174 -1.50224 -5.13164 0
M  V30 2864 C 258.474 -3.36788 -3.99213 0
M  V30 2865 H 260.168 -2.13476 -2.09925 0
M  V30 2866 H 257.714 -1.02775 -1.00863 0
M  V30 2867 H 259.667 -0.799094 -4.13754 0
M  V30 2868 H 258.391 0.0856125 -3.26488 0
M  V30 2869 H 257.05 -2.03591 -3.04871 0
M  V30 2870 H 256.698 -0.516092 -5.00345 0
M  V30 2871 H 256.398 -2.2165 -5.44192 0
M  V30 2872 H 257.922 -1.42639 -5.93706 0
M  V30 2873 H 259.336 -3.31605 -4.67665 0
M  V30 2874 H 257.733 -4.06314 -4.41621 0
M  V30 2875 H 258.803 -3.78561 -3.03017 0
M  V30 2876 N 260.146 1.09593 -1.13257 0
M  V30 2877 C 261.394 1.81375 -0.891492 0
M  V30 2878 C 261.715 1.86049 0.584009 0
M  V30 2879 O 260.985 1.34481 1.42449 0
M  V30 2880 H 259.565 0.671708 -0.326828 0
M  V30 2881 H 262.227 1.3256 -1.42877 0
M  V30 2882 H 261.323 2.84612 -1.28071 0
M  V30 2883 N 261.624 0.925811 1.2754 0
M  V30 2884 C 262.87 0.566092 1.94739 0
M  V30 2885 C 263.203 -0.890057 1.72603 0
M  V30 2886 O 262.478 -1.63467 1.05399 0
M  V30 2887 C 262.761 0.89054 3.48915 0
M  V30 2888 C 262.614 2.4003 3.80402 0
M  V30 2889 C 263.933 0.395101 4.38323 0
M  V30 2890 H 261.052 0.20714 0.707292 0
M  V30 2891 H 263.694 1.15725 1.50691 0
M  V30 2892 H 261.844 0.387452 3.86563 0
M  V30 2893 H 263.516 2.97494 3.52555 0
M  V30 2894 H 261.759 2.85028 3.2702 0
M  V30 2895 H 262.43 2.57785 4.8811 0
M  V30 2896 H 264.906 0.826241 4.07814 0
M  V30 2897 H 263.782 0.651086 5.45025 0
M  V30 2898 H 264.043 -0.704798 4.36446 0
M  V30 2899 N 263.102 -1.41638 0.69111 0
M  V30 2900 C 264.032 -2.3347 0.037248 0
M  V30 2901 C 265.013 -1.51575 -0.771947 0
M  V30 2902 O 266.198 -1.80126 -0.72582 0
M  V30 2903 C 263.328 -3.35354 -0.903064 0
M  V30 2904 C 262.282 -4.27526 -0.201288 0
M  V30 2905 C 261.608 -5.19747 -1.25565 0
M  V30 2906 C 262.908 -5.13959 0.929689 0
M  V30 2907 H 264.602 -2.88397 0.804227 0
M  V30 2908 H 262.148 -1.38669 0.388189 0
M  V30 2909 H 264.101 -3.98519 -1.36969 0
M  V30 2910 H 262.825 -2.78767 -1.70166 0
M  V30 2911 H 261.484 -3.65779 0.245265 0
M  V30 2912 H 261.132 -4.59479 -2.04666 0
M  V30 2913 H 260.832 -5.8225 -0.791128 0
M  V30 2914 H 262.356 -5.85789 -1.72288 0
M  V30 2915 H 263.77 -5.70718 0.543546 0
M  V30 2916 H 262.167 -5.85379 1.32103 0
M  V30 2917 H 263.237 -4.51389 1.77133 0
M  V30 2918 N 264.58 -0.43555 -1.51462 0
M  V30 2919 C 265.828 0.131254 -2.01673 0
M  V30 2920 C 266.149 1.43368 -1.32177 0
M  V30 2921 O 265.419 1.90524 -0.455769 0
M  V30 2922 H 263.999 0.0514954 -0.745223 0
M  V30 2923 H 266.661 -0.577847 -1.86137 0
M  V30 2924 H 265.757 0.308446 -3.10572 0
M  V30 2925 N 266.058 1.56714 -0.166846 0
M  V30 2926 C 267.008 2.14338 0.777382 0
M  V30 2927 C 267.992 1.07642 1.19591 0
M  V30 2928 O 269.184 1.33775 1.15902 0
M  V30 2929 C 266.313 2.78417 2.00846 0
M  V30 2930 C 265.399 3.92264 1.61212 0
M  V30 2931 N 265.79 4.97268 0.925104 0
M  V30 2932 C 264.088 4.03342 1.90346 0
M  V30 2933 C 264.789 5.77093 0.730627 0
M  V30 2934 N 263.765 5.2854 1.27067 0
M  V30 2935 H 267.567 2.9289 0.243466 0
M  V30 2936 H 265.081 1.62364 0.0339954 0
M  V30 2937 H 267.078 3.18073 2.69509 0
M  V30 2938 H 265.738 2.01344 2.54736 0
M  V30 2939 H 266.749 5.14601 0.583646 0
M  V30 2940 H 263.426 3.37368 2.45946 0
M  V30 2941 H 264.816 6.71638 0.187668 0
M  V30 2942 N 267.536 -0.106894 1.57237 0
M  V30 2943 C 268.499 -1.11466 2.0027 0
M  V30 2944 C 269.499 -1.33623 0.894519 0
M  V30 2945 O 270.689 -1.29935 1.16028 0
M  V30 2946 C 267.821 -2.46646 2.35327 0
M  V30 2947 H 269.014 -0.744516 2.90512 0
M  V30 2948 H 266.567 -0.351576 1.52295 0
M  V30 2949 H 267.302 -2.88558 1.48003 0
M  V30 2950 H 267.087 -2.31915 3.16161 0
M  V30 2951 H 268.577 -3.19151 2.69318 0
M  V30 2952 N 269.014 -1.53014 -0.377408 0
M  V30 2953 C 270.261 -1.68623 -1.12128 0
M  V30 2954 C 270.589 -0.431997 -1.89642 0
M  V30 2955 O 269.844 0.585855 -1.86725 0
M  V30 2956 C 270.143 -2.87982 -2.11663 0
M  V30 2957 C 269.809 -4.24964 -1.50719 0
M  V30 2958 C 268.471 -4.62217 -1.33825 0
M  V30 2959 C 270.823 -5.10199 -1.06519 0
M  V30 2960 C 268.151 -5.82352 -0.712963 0
M  V30 2961 C 270.503 -6.30969 -0.453955 0
M  V30 2962 C 269.167 -6.66944 -0.272411 0
M  V30 2963 H 268.437 -0.617034 -0.410305 0
M  V30 2964 H 271.084 -1.8718 -0.404484 0
M  V30 2965 H 269.389 -2.63889 -2.89603 0
M  V30 2966 H 271.086 -2.97253 -2.6915 0
M  V30 2967 H 267.676 -3.95626 -1.64858 0
M  V30 2968 H 271.86 -4.81978 -1.18368 0
M  V30 2969 H 267.116 -6.08824 -0.560611 0
M  V30 2970 H 271.29 -6.96324 -0.103217 0
M  V30 2971 H 268.917 -7.59898 0.214181 0
M  V30 2972 N 270.492 0.636531 -1.44174 0
M  V30 2973 C 271.903 1.21806 -1.41493 0
M  V30 2974 C 272.254 1.95785 -0.1275 0
M  V30 2975 O 271.379 2.02147 0.772376 0
M  V30 2976 C 271.974 2.21551 -2.56321 0
M  V30 2977 C 270.533 2.75143 -2.56853 0
M  V30 2978 C 269.68 1.50052 -2.33195 0
M  V30 2979 H 272.631 0.427531 -1.52833 0
M  V30 2980 H 272.652 3.0405 -2.28765 0
M  V30 2981 H 272.164 1.67679 -3.50008 0
M  V30 2982 H 270.265 3.33033 -1.67093 0
M  V30 2983 H 270.378 3.2155 -3.55165 0
M  V30 2984 H 268.742 1.77993 -1.82183 0
M  V30 2985 H 269.525 0.980903 -3.28988 0
M  V30 2986 N 271.97 1.30982 0.876444 0
M  V30 2987 C 273.381 1.18277 1.44456 0
M  V30 2988 C 273.732 -0.213265 1.95037 0
M  V30 2989 O 272.857 -1.11057 1.85729 0
M  V30 2990 C 273.452 2.1411 2.62569 0
M  V30 2991 C 272.011 2.05358 3.15444 0
M  V30 2992 C 271.158 2.03706 1.88146 0
M  V30 2993 H 274.109 1.43127 0.685584 0
M  V30 2994 H 274.13 1.72692 3.39054 0
M  V30 2995 H 273.642 3.15706 2.25724 0
M  V30 2996 H 271.743 1.06934 3.56926 0
M  V30 2997 H 271.856 2.94156 3.78166 0
M  V30 2998 H 270.22 1.48629 2.06837 0
M  V30 2999 H 271.003 3.07047 1.53547 0
M  V30 3000 N 273.449 -1.08991 1.13837 0
M  V30 3001 C 274.697 -1.80899 0.901098 0
M  V30 3002 C 275.018 -1.86356 -0.574134 0
M  V30 3003 O 274.288 -1.35235 -1.41733 0
M  V30 3004 H 272.868 -0.669966 0.330386 0
M  V30 3005 H 275.53 -1.318 1.43578 0
M  V30 3006 H 274.626 -2.83929 1.29578 0
M  V30 3007 N 274.927 -0.932562 -1.27047 0
M  V30 3008 C 276.338 -0.619451 -1.76124 0
M  V30 3009 C 276.689 0.865397 -1.76083 0
M  V30 3010 O 275.814 1.67722 -1.36742 0
M  V30 3011 C 276.409 -1.11771 -3.19832 0
M  V30 3012 C 274.968 -0.855174 -3.66557 0
M  V30 3013 C 274.115 -1.27362 -2.46321 0
M  V30 3014 H 277.066 -1.11181 -1.13245 0
M  V30 3015 H 277.087 -0.46759 -3.77616 0
M  V30 3016 H 276.599 -2.19842 -3.1983 0
M  V30 3017 H 274.7 0.211524 -3.71999 0
M  V30 3018 H 274.813 -1.47613 -4.55793 0
M  V30 3019 H 273.177 -0.692119 -2.45116 0
M  V30 3020 H 273.96 -2.36307 -2.49025 0
M  V30 3021 N 276.405 1.4127 -0.698611 0
M  V30 3022 C 277.653 2.00782 -0.230409 0
M  V30 3023 C 277.974 1.5562 1.17505 0
M  V30 3024 O 277.244 0.78815 1.79346 0
M  V30 3025 H 275.824 0.742464 -0.0821944 0
M  V30 3026 H 278.486 1.72852 -0.90045 0
M  V30 3027 H 277.582 3.11095 -0.25021 0
M  V30 3028 N 277.883 0.443576 1.51229 0
M  V30 3029 C 278.813 -0.355142 2.30783 0
M  V30 3030 C 279.794 -1.0154 1.36468 0
M  V30 3031 O 280.979 -1.01785 1.65389 0
M  V30 3032 C 278.109 -1.45312 3.15439 0
M  V30 3033 C 277.063 -0.916002 4.18083 0
M  V30 3034 C 276.389 -2.1102 4.91299 0
M  V30 3035 C 277.689 0.0538602 5.22272 0
M  V30 3036 H 279.383 0.308767 2.97804 0
M  V30 3037 H 276.929 0.149937 1.43217 0
M  V30 3038 H 278.882 -2.01914 3.69876 0
M  V30 3039 H 277.606 -2.14541 2.46252 0
M  V30 3040 H 276.265 -0.372145 3.64706 0
M  V30 3041 H 275.913 -2.78882 4.18609 0
M  V30 3042 H 275.613 -1.75717 5.60712 0
M  V30 3043 H 277.137 -2.68164 5.48562 0
M  V30 3044 H 278.551 -0.422069 5.71744 0
M  V30 3045 H 276.948 0.319776 5.99247 0
M  V30 3046 H 278.018 0.98858 4.74716 0
M  V30 3047 N 279.361 -1.56624 0.175154 0
M  V30 3048 C 280.609 -1.96609 -0.467885 0
M  V30 3049 C 280.93 -1.06238 -1.63519 0
M  V30 3050 O 280.2 -0.129523 -1.95471 0
M  V30 3051 H 278.78 -0.726008 -0.175845 0
M  V30 3052 H 281.442 -1.93195 0.257234 0
M  V30 3053 H 280.538 -3.00989 -0.825342 0
M  V30 3054 N 280.839 0.0985539 -1.57292 0
M  V30 3055 C 282.087 0.801092 -1.85545 0
M  V30 3056 C 282.408 1.79438 -0.763353 0
M  V30 3057 O 281.678 1.94763 0.21073 0
M  V30 3058 H 280.258 0.29884 -0.684619 0
M  V30 3059 H 282.92 0.0810064 -1.94732 0
M  V30 3060 H 282.016 1.3338 -2.82163 0
M  V30 3061 N 282.317 1.53212 0.369288 0
M  V30 3062 C 283.594 1.59815 1.12776 0
M  V30 3063 C 283.974 0.403402 2.0721 0
M  V30 3064 O 283.322 -0.606667 2.20299 0
M  V30 3065 C 283.532 2.94664 1.87013 0
M  V30 3066 C 284.88 3.49109 2.41677 0
M  V30 3067 O 285.904 2.96669 1.97144 0
M  V30 3068 O 284.763 4.40775 3.23079 0
M  V30 3069 H 281.857 0.645376 0.517125 0
M  V30 3070 H 284.403 1.65553 0.37285 0
M  V30 3071 H 283.175 3.73061 1.18071 0
M  V30 3072 H 282.798 2.92401 2.69421 0
M  V30 3073 N 283.795 -0.628877 1.44509 0
M  V30 3074 C 285.023 -1.41554 1.50897 0
M  V30 3075 C 285.438 -1.8832 0.134564 0
M  V30 3076 O 284.795 -1.60969 -0.859965 0
M  V30 3077 C 284.846 -2.63435 2.47556 0
M  V30 3078 O 284.567 -2.18619 3.79654 0
M  V30 3079 C 286.068 -3.56537 2.63431 0
M  V30 3080 H 283.288 -0.434044 0.511709 0
M  V30 3081 H 285.832 -0.768895 1.89495 0
M  V30 3082 H 283.987 -3.24187 2.12089 0
M  V30 3083 H 284.401 -2.97652 4.31861 0
M  V30 3084 H 285.875 -4.38657 3.35088 0
M  V30 3085 H 286.352 -4.05493 1.68738 0
M  V30 3086 H 286.958 -3.01653 2.9981 0
M  V30 3087 N 285.273 -1.31445 -0.869486 0
M  V30 3088 C 286.223 -1.15731 -1.96444 0
M  V30 3089 C 287.207 -0.0681855 -1.60755 0
M  V30 3090 O 288.399 -0.293154 -1.74555 0
M  V30 3091 C 285.528 -0.867255 -3.32165 0
M  V30 3092 C 284.614 -1.99738 -3.74119 0
M  V30 3093 N 285.005 -3.24447 -3.88031 0
M  V30 3094 C 283.303 -1.89723 -4.03635 0
M  V30 3095 C 284.004 -3.98374 -4.23879 0
M  V30 3096 N 282.98 -3.26547 -4.3459 0
M  V30 3097 H 286.782 -2.10296 -2.05312 0
M  V30 3098 H 284.296 -1.23009 -1.06031 0
M  V30 3099 H 286.293 -0.735668 -4.10358 0
M  V30 3100 H 284.953 0.0701614 -3.24624 0
M  V30 3101 H 285.964 -3.59557 -3.72746 0
M  V30 3102 H 282.641 -1.03449 -4.04481 0
M  V30 3103 H 284.031 -5.05844 -4.42235 0
M  V30 3104 N 286.751 1.08385 -1.14413 0
M  V30 3105 C 287.998 1.80776 -0.912482 0
M  V30 3106 C 288.326 1.86236 0.560934 0
M  V30 3107 O 287.581 1.33431 1.43159 0
M  V30 3108 C 287.88 3.26273 -1.45879 0
M  V30 3109 C 287.546 3.4093 -2.95089 0
M  V30 3110 C 286.208 3.44638 -3.35824 0
M  V30 3111 C 288.56 3.44591 -3.91033 0
M  V30 3112 C 285.888 3.49597 -4.71167 0
M  V30 3113 C 288.24 3.51086 -5.26233 0
M  V30 3114 C 286.904 3.53067 -5.6648 0
M  V30 3115 H 286.174 0.661507 -0.333901 0
M  V30 3116 H 288.821 1.27613 -1.42784 0
M  V30 3117 H 287.126 3.82146 -0.864376 0
M  V30 3118 H 288.823 3.80839 -1.2555 0
M  V30 3119 H 285.413 3.38736 -2.62594 0
M  V30 3120 H 289.597 3.40957 -3.60641 0
M  V30 3121 H 284.853 3.49424 -5.0171 0
M  V30 3122 H 289.027 3.52864 -6.00383 0
M  V30 3123 H 286.654 3.56662 -6.71339 0
M  V30 3124 N 288.23 0.939286 1.26551 0
M  V30 3125 C 289.507 0.5038 1.89001 0
M  V30 3126 C 289.887 -1.01854 1.84903 0
M  V30 3127 O 289.235 -1.87773 1.30206 0
M  V30 3128 C 289.445 1.063 3.32417 0
M  V30 3129 C 290.793 1.13051 4.09273 0
M  V30 3130 O 291.817 1.01345 3.41479 0
M  V30 3131 O 290.676 1.31233 5.30509 0
M  V30 3132 H 287.77 0.163897 0.810597 0
M  V30 3133 H 290.316 1.03173 1.34735 0
M  V30 3134 H 289.088 2.10665 3.29752 0
M  V30 3135 H 288.711 0.517408 3.94219 0
M  V30 3136 N 289.708 -1.40897 0.706093 0
M  V30 3137 C 290.618 -2.3455 0.0482286 0
M  V30 3138 C 291.634 -1.56796 -0.754396 0
M  V30 3139 O 292.81 -1.89228 -0.689538 0
M  V30 3140 C 289.875 -3.35625 -0.869303 0
M  V30 3141 C 288.936 -4.29261 -0.0576994 0
M  V30 3142 C 288.169 -5.25508 -0.931531 0
M  V30 3143 O 288.392 -5.27472 -2.17092 0
M  V30 3144 O 287.326 -6.00727 -0.375587 0
M  V30 3145 H 291.152 -2.92407 0.820476 0
M  V30 3146 H 288.737 -1.4193 0.4665 0
M  V30 3147 H 290.619 -3.97635 -1.39514 0
M  V30 3148 H 289.294 -2.80196 -1.62086 0
M  V30 3149 H 288.201 -3.70566 0.512988 0
M  V30 3150 H 289.534 -4.87817 0.655426 0
M  V30 3151 N 291.186 -0.45159 -1.50991 0
M  V30 3152 C 292.463 0.170707 -1.94854 0
M  V30 3153 C 292.843 1.58788 -1.39103 0
M  V30 3154 O 292.191 2.20913 -0.583921 0
M  V30 3155 C 292.401 0.133929 -3.48743 0
M  V30 3156 C 293.749 0.33248 -4.23296 0
M  V30 3157 O 294.773 0.211403 -3.55572 0
M  V30 3158 O 293.632 0.57486 -5.43468 0
M  V30 3159 H 290.726 0.122264 -0.817912 0
M  V30 3160 H 293.272 -0.510594 -1.61836 0
M  V30 3161 H 292.044 -0.856283 -3.81816 0
M  V30 3162 H 291.667 0.857529 -3.88242 0
M  V30 3163 N 292.664 1.56529 -0.183458 0
M  V30 3164 C 293.574 2.22144 0.754272 0
M  V30 3165 C 294.59 1.21684 1.24374 0
M  V30 3166 O 295.766 1.54385 1.29333 0
M  V30 3167 C 292.831 2.85884 1.96141 0
M  V30 3168 C 291.892 4.01579 1.51765 0
M  V30 3169 C 291.125 4.6227 2.66725 0
M  V30 3170 O 291.348 4.21865 3.83909 0
M  V30 3171 O 290.282 5.51936 2.40104 0
M  V30 3172 H 294.108 3.02861 0.225527 0
M  V30 3173 H 291.693 1.49331 0.0453032 0
M  V30 3174 H 293.575 3.26253 2.66715 0
M  V30 3175 H 292.25 2.08154 2.47899 0
M  V30 3176 H 291.157 3.65856 0.781049 0
M  V30 3177 H 292.49 4.80938 1.04686 0
M  V30 3178 N 294.142 -0.090211 1.57342 0
M  V30 3179 C 295.09 -1.12792 2.03422 0
M  V30 3180 C 296.084 -1.41182 0.936166 0
M  V30 3181 O 297.29 -1.40805 1.12133 0
M  V30 3182 H 293.665 -0.380986 0.648347 0
M  V30 3183 H 295.636 -0.71299 2.89757 0
M  V30 3184 C 294.385 -2.43855 2.47851 0
M  V30 3185 H 293.708 -2.22855 3.31927 0
M  V30 3186 H 295.148 -3.14955 2.83865 0
M  V30 3187 C 293.607 -3.08503 1.3538 0
M  V30 3188 O 294.137 -3.95805 0.685641 0
M  V30 3189 N 292.343 -2.68831 1.10355 0
M  V30 3190 H 291.89 -1.97929 1.64869 0
M  V30 3191 H 291.848 -3.12412 0.353031 0
M  V30 3192 N 295.62 -1.53406 -0.361157 0
M  V30 3193 C 296.866 -1.70999 -1.1014 0
M  V30 3194 C 297.221 -0.458425 -1.86859 0
M  V30 3195 O 296.514 0.548654 -1.83577 0
M  V30 3196 C 296.708 -2.90211 -2.08596 0
M  V30 3197 C 296.537 -4.26841 -1.41553 0
M  V30 3198 C 295.307 -4.91621 -1.16778 0
M  V30 3199 C 297.505 -5.07212 -0.850915 0
M  V30 3200 N 295.487 -6.12164 -0.461312 0
M  V30 3201 C 296.858 -6.19394 -0.274046 0
M  V30 3202 C 298.913 -4.92218 -0.750036 0
M  V30 3203 C 297.616 -7.18221 0.393868 0
M  V30 3204 C 299.642 -5.91322 -0.095894 0
M  V30 3205 C 299.004 -7.0283 0.470081 0
M  V30 3206 H 295.103 -0.678939 -0.388028 0
M  V30 3207 H 297.687 -1.90811 -0.38722 0
M  V30 3208 H 295.858 -2.71931 -2.77323 0
M  V30 3209 H 297.59 -2.96606 -2.7533 0
M  V30 3210 H 294.345 -4.50849 -1.45024 0
M  V30 3211 H 294.769 -6.76888 -0.123312 0
M  V30 3212 H 299.411 -4.06192 -1.17337 0
M  V30 3213 H 297.129 -8.03835 0.82914 0
M  V30 3214 H 300.715 -5.81797 -0.0187075 0
M  V30 3215 H 299.595 -7.782 0.968241 0
M  V30 3216 N 297.098 0.621204 -1.44841 0
M  V30 3217 C 298.326 1.40752 -1.51646 0
M  V30 3218 C 298.741 1.88246 -0.144549 0
M  V30 3219 O 298.098 1.61422 0.851416 0
M  V30 3220 C 298.149 2.62119 -2.4895 0
M  V30 3221 O 297.87 2.16602 -3.80808 0
M  V30 3222 C 299.371 3.55135 -2.65319 0
M  V30 3223 H 296.591 0.431325 -0.514004 0
M  V30 3224 H 299.135 0.758835 -1.899 0
M  V30 3225 H 297.29 3.23058 -2.13805 0
M  V30 3226 H 297.704 2.95358 -4.33433 0
M  V30 3227 H 299.178 4.36874 -3.37409 0
M  V30 3228 H 299.655 4.04592 -1.70886 0
M  V30 3229 H 300.261 3.00058 -3.01405 0
M  V30 3230 N 298.576 1.31904 0.862503 0
M  V30 3231 C 299.523 1.20182 1.9704 0
M  V30 3232 C 300.493 0.0858247 1.65878 0
M  V30 3233 O 301.678 0.26 1.8902 0
M  V30 3234 C 298.818 0.922797 3.32533 0
M  V30 3235 C 297.931 2.12284 3.76244 0
M  V30 3236 C 297.066 1.77996 5.00491 0
M  V30 3237 C 296.105 2.94366 5.36671 0
M  V30 3238 N 295.242 2.60223 6.52095 0
M  V30 3239 H 300.082 2.14951 2.06398 0
M  V30 3240 H 297.619 1.06917 1.01031 0
M  V30 3241 H 299.577 0.741548 4.10557 0
M  V30 3242 H 298.207 0.0119227 3.22798 0
M  V30 3243 H 297.259 2.41461 2.9394 0
M  V30 3244 H 298.571 2.99357 3.98982 0
M  V30 3245 H 297.725 1.56377 5.862 0
M  V30 3246 H 296.464 0.881252 4.79672 0
M  V30 3247 H 295.469 3.16625 4.49476 0
M  V30 3248 H 296.694 3.84957 5.59451 0
M  V30 3249 H 294.64 1.72884 6.32809 0
M  V30 3250 H 294.557 3.40827 6.74814 0
M  V30 3251 H 295.825 2.42016 7.40978 0
M  V30 3252 N 300.054 -1.07777 1.14986 0
M  V30 3253 C 301.331 -1.7699 0.832695 0
M  V30 3254 C 301.711 -2.001 -0.672561 0
M  V30 3255 O 301.059 -1.61598 -1.6155 0
M  V30 3256 C 301.269 -3.08139 1.63863 0
M  V30 3257 C 302.617 -3.8256 1.84208 0
M  V30 3258 O 303.641 -3.17939 1.60603 0
M  V30 3259 O 302.5 -4.98612 2.23714 0
M  V30 3260 H 299.594 -0.768389 0.305791 0
M  V30 3261 H 302.14 -1.14182 1.25541 0
M  V30 3262 H 300.912 -2.86909 2.6608 0
M  V30 3263 H 300.535 -3.78678 1.21197 0
M  V30 3264 N 301.532 -0.945985 -1.26051 0
M  V30 3265 C 302.78 -0.594941 -1.93145 0
M  V30 3266 C 303.101 0.86953 -1.7454 0
M  V30 3267 O 302.371 1.61838 -1.10387 0
M  V30 3268 H 300.951 -0.217044 -0.714773 0
M  V30 3269 H 303.613 -1.20235 -1.53393 0
M  V30 3270 H 302.709 -0.816835 -3.01221 0
M  V30 3271 N 303.011 1.40521 -0.713556 0
M  V30 3272 C 303.974 2.29098 -0.0684347 0
M  V30 3273 C 304.974 1.45268 0.689472 0
M  V30 3274 O 306.164 1.66205 0.521677 0
M  V30 3275 C 303.296 3.28446 0.913024 0
M  V30 3276 H 304.489 2.87645 -0.84855 0
M  V30 3277 H 302.042 1.48809 -0.47809 0
M  V30 3278 H 302.777 2.74913 1.72027 0
M  V30 3279 H 302.562 3.90327 0.372472 0
M  V30 3280 H 304.052 3.94777 1.36165 0
M  V30 3281 N 304.489 0.459591 1.5075 0
M  V30 3282 C 305.737 -0.0991532 2.01857 0
M  V30 3283 C 306.058 -1.41247 1.34441 0
M  V30 3284 O 305.328 -1.89775 0.486022 0
M  V30 3285 H 303.908 -0.039633 0.745948 0
M  V30 3286 H 306.57 0.607387 1.85194 0
M  V30 3287 H 305.666 -0.258998 3.11023 0
M  V30 3288 N 305.967 -1.56429 0.191757 0
M  V30 3289 C 307.214 -1.97485 -0.447891 0
M  V30 3290 C 307.542 -1.07852 -1.61859 0
M  V30 3291 O 306.797 -0.116903 -1.95351 0
M  V30 3292 C 307.096 -3.44449 -0.953384 0
M  V30 3293 C 306.762 -4.50781 0.103586 0
M  V30 3294 C 305.424 -4.79584 0.394023 0
M  V30 3295 C 307.776 -5.1471 0.819946 0
M  V30 3296 C 305.104 -5.69607 1.40585 0
M  V30 3297 C 307.456 -6.05827 1.8209 0
M  V30 3298 C 306.12 -6.32987 2.11857 0
M  V30 3299 H 305.39 -0.722648 -0.163895 0
M  V30 3300 H 308.037 -1.89322 0.28802 0
M  V30 3301 H 306.342 -3.49666 -1.76751 0
M  V30 3302 H 308.039 -3.73569 -1.45765 0
M  V30 3303 H 304.629 -4.28394 -0.132951 0
M  V30 3304 H 308.813 -4.92552 0.608789 0
M  V30 3305 H 304.069 -5.88926 1.64243 0
M  V30 3306 H 308.243 -6.54424 2.38123 0
M  V30 3307 H 305.87 -7.02544 2.90407 0
M  V30 3308 N 307.445 0.0818655 -1.57387 0
M  V30 3309 C 308.393 1.11712 -2.04018 0
M  V30 3310 C 309.387 1.40683 -0.94364 0
M  V30 3311 O 310.593 1.40209 -1.12878 0
M  V30 3312 H 306.968 0.377542 -0.650358 0
M  V30 3313 H 308.939 0.697614 -2.90131 0
M  V30 3314 C 307.688 2.42537 -2.49141 0
M  V30 3315 H 307.011 2.21092 -3.33104 0
M  V30 3316 H 308.451 3.13446 -2.85531 0
M  V30 3317 C 306.91 3.0778 -1.37014 0
M  V30 3318 O 307.44 3.95436 -0.706621 0
M  V30 3319 N 305.646 2.68242 -1.11779 0
M  V30 3320 H 305.193 1.97052 -1.65917 0
M  V30 3321 H 305.151 3.1222 -0.369594 0
M  V30 3322 N 308.923 1.53595 0.353017 0
M  V30 3323 C 309.853 1.83902 1.43883 0
M  V30 3324 C 310.834 0.693421 1.55324 0
M  V30 3325 O 312.019 0.944452 1.69687 0
M  V30 3326 C 309.149 2.04016 2.8106 0
M  V30 3327 C 308.103 3.19814 2.84434 0
M  V30 3328 C 307.429 3.25244 4.24406 0
M  V30 3329 C 308.729 4.58133 2.50822 0
M  V30 3330 H 310.423 2.74835 1.1877 0
M  V30 3331 H 307.969 1.32242 0.569917 0
M  V30 3332 H 309.922 2.238 3.57059 0
M  V30 3333 H 308.646 1.09804 3.07588 0
M  V30 3334 H 307.305 2.9987 2.10887 0
M  V30 3335 H 306.953 2.28646 4.48029 0
M  V30 3336 H 306.653 4.03054 4.27576 0
M  V30 3337 H 308.177 3.47228 5.0226 0
M  V30 3338 H 309.591 4.77995 3.16534 0
M  V30 3339 H 307.988 5.38276 2.6529 0
M  V30 3340 H 309.058 4.62387 1.46034 0
M  V30 3341 N 310.401 -0.613514 1.45168 0
M  V30 3342 C 311.648 -1.37268 1.48875 0
M  V30 3343 C 311.976 -1.94077 0.128161 0
M  V30 3344 O 311.231 -1.75178 -0.872416 0
M  V30 3345 C 311.53 -2.54347 2.51083 0
M  V30 3346 C 311.196 -2.1572 3.95949 0
M  V30 3347 C 309.858 -2.04899 4.35396 0
M  V30 3348 C 312.21 -1.85485 4.87078 0
M  V30 3349 C 309.538 -1.62057 5.63875 0
M  V30 3350 C 311.89 -1.4413 6.15962 0
M  V30 3351 C 310.554 -1.31863 6.54346 0
M  V30 3352 H 309.824 -0.502299 0.544773 0
M  V30 3353 H 312.471 -0.694021 1.78481 0
M  V30 3354 H 310.776 -3.27524 2.15024 0
M  V30 3355 H 312.473 -3.12577 2.51191 0
M  V30 3356 H 309.063 -2.25066 3.64751 0
M  V30 3357 H 313.247 -1.92745 4.57343 0
M  V30 3358 H 308.503 -1.51177 5.92415 0
M  V30 3359 H 312.677 -1.19778 6.86022 0
M  V30 3360 H 310.304 -0.984392 7.538 0
M  V30 3361 N 311.879 -1.3236 -0.855495 0
M  V30 3362 C 312.809 -1.23833 -1.97958 0
M  V30 3363 C 313.79 -0.122361 -1.69659 0
M  V30 3364 O 314.975 -0.30939 -1.9172 0
M  V30 3365 C 312.105 -0.959772 -3.33775 0
M  V30 3366 C 311.059 -2.03689 -3.76424 0
M  V30 3367 C 310.385 -1.61075 -5.09862 0
M  V30 3368 C 311.685 -3.4518 -3.9198 0
M  V30 3369 H 313.379 -2.1788 -2.0535 0
M  V30 3370 H 310.925 -1.04891 -0.986605 0
M  V30 3371 H 312.878 -0.886678 -4.11966 0
M  V30 3372 H 311.602 0.0163404 -3.26596 0
M  V30 3373 H 310.261 -2.10012 -3.00484 0
M  V30 3374 H 309.909 -0.622107 -4.99138 0
M  V30 3375 H 309.609 -2.33143 -5.39368 0
M  V30 3376 H 311.133 -1.55201 -5.90546 0
M  V30 3377 H 312.547 -3.4145 -4.60526 0
M  V30 3378 H 310.944 -4.1559 -4.32903 0
M  V30 3379 H 312.014 -3.84903 -2.94919 0
M  V30 3380 N 313.357 1.07166 -1.15556 0
M  V30 3381 C 314.603 1.80065 -0.932984 0
M  V30 3382 C 314.936 1.86586 0.53845 0
M  V30 3383 O 314.211 1.35098 1.39924 0
M  V30 3384 C 314.494 3.25022 -1.55025 0
M  V30 3385 C 314.347 3.26634 -3.09242 0
M  V30 3386 C 315.666 4.22341 -1.2376 0
M  V30 3387 H 312.785 0.653697 -0.340366 0
M  V30 3388 H 315.427 1.25389 -1.4275 0
M  V30 3389 H 313.577 3.71712 -1.12972 0
M  V30 3390 H 315.249 2.88173 -3.60214 0
M  V30 3391 H 313.492 2.65539 -3.43033 0
M  V30 3392 H 314.163 4.28854 -3.47546 0
M  V30 3393 H 316.639 3.8405 -1.60139 0
M  V30 3394 H 315.515 5.22053 -1.69564 0
M  V30 3395 H 315.776 4.41828 -0.154938 0
M  V30 3396 N 314.835 0.952656 1.25548 0
M  V30 3397 C 315.798 0.475794 2.24207 0
M  V30 3398 C 316.798 -0.419428 1.55234 0
M  V30 3399 O 317.988 -0.216994 1.72843 0
M  V30 3400 C 315.12 -0.312814 3.39462 0
M  V30 3401 H 316.313 1.34779 2.67908 0
M  V30 3402 H 313.866 0.735739 1.37901 0
M  V30 3403 H 314.601 -1.20257 3.01179 0
M  V30 3404 H 314.386 0.329404 3.90714 0
M  V30 3405 H 315.876 -0.635986 4.12729 0
M  V30 3406 N 316.313 -1.40141 0.720998 0
M  V30 3407 C 317.276 -2.29058 0.0805834 0
M  V30 3408 C 318.276 -1.45632 -0.681758 0
M  V30 3409 O 319.466 -1.6648 -0.512856 0
M  V30 3410 C 316.598 -3.28925 -0.895593 0
M  V30 3411 H 317.791 -2.87191 0.863793 0
M  V30 3412 H 315.344 -1.48553 0.485975 0
M  V30 3413 H 316.079 -2.75822 -1.70566 0
M  V30 3414 H 315.864 -3.90519 -0.351766 0
M  V30 3415 H 317.354 -3.95494 -1.34069 0
M  V30 3416 N 317.792 -0.46758 -1.50504 0
M  V30 3417 C 318.742 0.34698 -2.25344 0
M  V30 3418 C 319.726 0.964469 -1.2879 0
M  V30 3419 O 320.918 0.8776 -1.53711 0
M  V30 3420 C 318.047 1.43042 -3.1208 0
M  V30 3421 C 317.133 0.82084 -4.16081 0
M  V30 3422 N 317.524 -0.0567602 -5.05768 0
M  V30 3423 C 315.822 1.08517 -4.32597 0
M  V30 3424 C 316.523 -0.402343 -5.80307 0
M  V30 3425 N 315.499 0.221607 -5.43148 0
M  V30 3426 H 319.301 -0.329129 -2.92051 0
M  V30 3427 H 316.815 -0.281508 -1.59942 0
M  V30 3428 H 318.812 2.02712 -3.64299 0
M  V30 3429 H 317.472 2.10856 -2.46921 0
M  V30 3430 H 318.483 -0.425349 -5.1615 0
M  V30 3431 H 315.16 1.75855 -3.78657 0
M  V30 3432 H 316.55 -1.11834 -6.62528 0
M  V30 3433 N 319.27 1.56325 -0.20005 0
M  V30 3434 C 320.18 2.22931 0.730668 0
M  V30 3435 C 321.196 1.22997 1.23076 0
M  V30 3436 O 322.372 1.55748 1.27689 0
M  V30 3437 C 319.437 2.87948 1.93098 0
M  V30 3438 C 318.498 4.03166 1.47497 0
M  V30 3439 C 317.731 4.65073 2.61807 0
M  V30 3440 O 317.954 4.25913 3.79413 0
M  V30 3441 O 316.888 5.54452 2.34237 0
M  V30 3442 H 320.714 3.03084 0.193391 0
M  V30 3443 H 318.299 1.49371 0.0294621 0
M  V30 3444 H 320.181 3.29063 2.6324 0
M  V30 3445 H 318.856 2.10771 2.45677 0
M  V30 3446 H 317.763 3.66664 0.742201 0
M  V30 3447 H 319.096 4.82022 0.995796 0
M  V30 3448 N 320.748 -0.0735177 1.57428 0
M  V30 3449 C 321.995 -0.772999 1.87166 0
M  V30 3450 C 322.323 -1.77665 0.791551 0
M  V30 3451 O 321.578 -1.94541 -0.212636 0
M  V30 3452 C 321.877 -1.51799 3.23561 0
M  V30 3453 C 321.543 -0.654484 4.46125 0
M  V30 3454 C 320.205 -0.416511 4.79394 0
M  V30 3455 C 322.557 -0.0555862 5.2117 0
M  V30 3456 C 319.885 0.429869 5.85123 0
M  V30 3457 C 322.237 0.778239 6.27795 0
M  V30 3458 C 320.901 1.0261 6.59566 0
M  V30 3459 H 320.171 -0.282861 0.684888 0
M  V30 3460 H 322.818 -0.0338272 1.9147 0
M  V30 3461 H 321.123 -2.32932 3.1504 0
M  V30 3462 H 322.82 -2.06397 3.43804 0
M  V30 3463 H 319.41 -0.850091 4.20085 0
M  V30 3464 H 323.594 -0.226558 4.95783 0
M  V30 3465 H 318.85 0.630665 6.08139 0
M  V30 3466 H 323.024 1.24906 6.85107 0
M  V30 3467 H 320.651 1.68371 7.4132 0
M  V30 3468 N 322.226 -1.5378 -0.344866 0
M  V30 3469 C 323.474 -1.70625 -1.08311 0
M  V30 3470 C 323.795 -0.471447 -1.89215 0
M  V30 3471 O 323.065 0.514616 -1.8902 0
M  V30 3472 H 321.645 -0.629058 -0.402859 0
M  V30 3473 H 324.307 -1.9103 -0.386459 0
M  V30 3474 H 323.403 -2.57656 -1.76124 0
M  V30 3475 N 323.704 0.605807 -1.45491 0
M  V30 3476 C 324.654 1.71074 -1.50724 0
M  V30 3477 C 325.638 1.5658 -0.37033 0
M  V30 3478 O 326.83 1.65887 -0.617299 0
M  V30 3479 C 323.959 3.0983 -1.47852 0
M  V30 3480 C 323.045 3.29704 -2.66751 0
M  V30 3481 N 323.436 3.19831 -3.91844 0
M  V30 3482 C 321.734 3.60579 -2.62486 0
M  V30 3483 C 322.435 3.41083 -4.71208 0
M  V30 3484 N 321.411 3.65157 -4.02693 0
M  V30 3485 H 325.213 1.61937 -2.45263 0
M  V30 3486 H 322.727 0.80912 -1.40808 0
M  V30 3487 H 324.724 3.89101 -1.49686 0
M  V30 3488 H 323.384 3.20115 -0.543714 0
M  V30 3489 H 324.395 2.98194 -4.23439 0
M  V30 3490 H 321.072 3.7769 -1.77922 0
M  V30 3491 H 322.462 3.38828 -5.80211 0
M  V30 3492 N 325.182 1.32811 0.848464 0
M  V30 3493 C 326.145 1.22194 1.9391 0
M  V30 3494 C 327.145 0.143404 1.60159 0
M  V30 3495 O 328.335 0.394253 1.6968 0
M  V30 3496 C 325.467 0.88067 3.29328 0
M  V30 3497 H 326.66 2.19127 2.04752 0
M  V30 3498 H 324.213 1.16731 1.0394 0
M  V30 3499 H 324.948 -0.0865776 3.24184 0
M  V30 3500 H 324.733 1.66052 3.55203 0
M  V30 3501 H 326.223 0.830871 4.09251 0
M  V30 3502 N 326.66 -1.06551 1.16123 0
M  V30 3503 C 327.59 -2.15935 0.88851 0
M  V30 3504 C 328.571 -1.69306 -0.164135 0
M  V30 3505 O 329.756 -1.94193 -0.0167857 0
M  V30 3506 C 326.886 -3.45149 0.385942 0
M  V30 3507 C 325.84 -4.05271 1.3762 0
M  V30 3508 C 325.166 -5.29664 0.732137 0
M  V30 3509 C 326.466 -4.44355 2.74493 0
M  V30 3510 H 328.16 -2.39006 1.80323 0
M  V30 3511 H 325.706 -1.14866 0.868435 0
M  V30 3512 H 327.659 -4.21004 0.182647 0
M  V30 3513 H 326.383 -3.21689 -0.564274 0
M  V30 3514 H 325.042 -3.3147 1.56599 0
M  V30 3515 H 324.69 -5.02499 -0.224483 0
M  V30 3516 H 324.39 -5.70848 1.39307 0
M  V30 3517 H 325.914 -6.08218 0.538802 0
M  V30 3518 H 327.328 -5.11303 2.59311 0
M  V30 3519 H 325.725 -4.96515 3.37035 0
M  V30 3520 H 326.795 -3.55339 3.29943 0
M  V30 3521 N 328.138 -0.959301 -1.25041 0
M  V30 3522 C 329.386 -0.615393 -1.92503 0
M  V30 3523 C 329.707 0.850969 -1.75452 0
M  V30 3524 O 328.977 1.60658 -1.12098 0
M  V30 3525 H 327.557 -0.224613 -0.712431 0
M  V30 3526 H 330.219 -1.21855 -1.5211 0
M  V30 3527 H 329.315 -0.848738 -3.00338 0
M  V30 3528 N 329.616 1.39756 -0.72842 0
M  V30 3529 C 330.546 2.33289 -0.0991354 0
M  V30 3530 C 331.527 1.53568 0.731489 0
M  V30 3531 O 332.712 1.81987 0.677807 0
M  V30 3532 C 329.842 3.3763 0.813834 0
M  V30 3533 C 328.796 4.2791 0.0878663 0
M  V30 3534 C 328.122 5.22894 1.11741 0
M  V30 3535 C 329.422 5.11314 -1.06563 0
M  V30 3536 H 331.116 2.86163 -0.880408 0
M  V30 3537 H 328.662 1.37591 -0.424819 0
M  V30 3538 H 330.615 4.0201 1.26355 0
M  V30 3539 H 329.339 2.83181 1.62715 0
M  V30 3540 H 327.998 3.65 -0.342159 0
M  V30 3541 H 327.646 4.64744 1.92412 0
M  V30 3542 H 327.346 5.84143 0.636477 0
M  V30 3543 H 328.87 5.90151 1.56697 0
M  V30 3544 H 330.284 5.69076 -0.694671 0
M  V30 3545 H 328.681 5.81671 -1.47577 0
M  V30 3546 H 329.751 4.46534 -1.89038 0
M  V30 3547 N 331.094 0.475555 1.50254 0
M  V30 3548 C 332.319 -0.0777042 2.07254 0
M  V30 3549 C 332.744 -1.3235 1.3366 0
M  V30 3550 O 332.102 -1.77152 0.385597 0
M  V30 3551 C 332.15 -0.340169 3.58992 0
M  V30 3552 O 331.254 -1.41982 3.87188 0
M  V30 3553 H 330.595 0.0149556 0.663832 0
M  V30 3554 H 333.125 0.667878 1.93392 0
M  V30 3555 H 333.135 -0.579332 4.03866 0
M  V30 3556 H 331.81 0.570167 4.11973 0
M  V30 3557 H 330.387 -1.16762 3.54148 0
M  V30 3558 N 332.573 -1.56217 0.208337 0
M  V30 3559 C 333.523 -2.16324 -0.720281 0
M  V30 3560 C 334.507 -1.10775 -1.16695 0
M  V30 3561 O 335.699 -1.36801 -1.12314 0
M  V30 3562 C 332.828 -2.83644 -1.93393 0
M  V30 3563 C 331.914 -3.96401 -1.50755 0
M  V30 3564 N 332.305 -4.99546 -0.792937 0
M  V30 3565 C 330.603 -4.08246 -1.79585 0
M  V30 3566 C 331.304 -5.78828 -0.577364 0
M  V30 3567 N 330.28 -5.31723 -1.1301 0
M  V30 3568 H 334.082 -2.93432 -0.165725 0
M  V30 3569 H 331.596 -1.62397 0.00906463 0
M  V30 3570 H 333.593 -3.25107 -2.60981 0
M  V30 3571 H 332.253 -2.08027 -2.49308 0
M  V30 3572 H 333.264 -5.15967 -0.447004 0
M  V30 3573 H 329.941 -3.4377 -2.36915 0
M  V30 3574 H 331.331 -6.71899 -0.00952956 0
M  V30 3575 N 334.051 0.0651679 -1.57465 0
M  V30 3576 C 335.276 0.779605 -1.9219 0
M  V30 3577 C 335.701 1.69988 -0.805333 0
M  V30 3578 O 335.059 1.79685 0.241435 0
M  V30 3579 C 335.107 1.54364 -3.2589 0
M  V30 3580 O 334.211 2.65474 -3.1559 0
M  V30 3581 H 333.552 0.212249 -0.629163 0
M  V30 3582 H 336.082 0.0314294 -2.04576 0
M  V30 3583 H 336.092 1.92146 -3.59922 0
M  V30 3584 H 334.767 0.868457 -4.06732 0
M  V30 3585 H 333.344 2.30501 -2.93128 0
M  V30 3586 N 335.529 1.53961 0.336706 0
M  V30 3587 C 336.477 1.83136 1.43401 0
M  V30 3588 C 337.471 0.702313 1.54156 0
M  V30 3589 O 338.677 0.885765 1.56698 0
M  V30 3590 H 335.052 0.580309 0.478273 0
M  V30 3591 H 337.023 2.74925 1.16012 0
M  V30 3592 C 335.772 2.06385 2.79822 0
M  V30 3593 H 335.095 2.92718 2.72316 0
M  V30 3594 H 336.535 2.30761 3.55704 0
M  V30 3595 C 334.994 0.851414 3.25964 0
M  V30 3596 O 335.524 0.0541904 4.01663 0
M  V30 3597 N 333.73 0.66672 2.82848 0
M  V30 3598 H 333.277 1.31665 2.21409 0
M  V30 3599 H 333.235 -0.143032 3.14074 0
M  V30 3600 N 337.007 -0.598083 1.45811 0
M  V30 3601 C 338.284 -1.35777 1.40797 0
M  V30 3602 C 338.664 -2.10935 0.083462 0
M  V30 3603 O 338.012 -2.08505 -0.934763 0
M  V30 3604 C 338.222 -2.29666 2.62783 0
M  V30 3605 C 339.57 -2.91977 3.08277 0
M  V30 3606 O 340.594 -2.39984 2.63223 0
M  V30 3607 O 339.453 -3.86376 3.86491 0
M  V30 3608 H 336.547 -0.609291 0.55919 0
M  V30 3609 H 339.093 -0.620379 1.57954 0
M  V30 3610 H 337.865 -1.73454 3.50756 0
M  V30 3611 H 337.488 -3.1077 2.48008 0
M  V30 3612 N 338.485 -1.33259 -0.841409 0
M  V30 3613 C 339.417 -1.19136 -1.95804 0
M  V30 3614 C 340.43 -0.122965 -1.62335 0
M  V30 3615 O 341.619 -0.373154 -1.74556 0
M  V30 3616 C 338.719 -0.804268 -3.29218 0
M  V30 3617 C 337.892 -1.96376 -3.90839 0
M  V30 3618 C 336.951 -1.55806 -5.02604 0
M  V30 3619 O 335.977 -2.27203 -5.21888 0
M  V30 3620 N 337.179 -0.461609 -5.78662 0
M  V30 3621 H 339.944 -2.15326 -2.08458 0
M  V30 3622 H 337.505 -1.25971 -1.017 0
M  V30 3623 H 339.497 -0.51501 -4.0141 0
M  V30 3624 H 338.067 0.0668809 -3.12528 0
M  V30 3625 H 337.287 -2.41879 -3.11269 0
M  V30 3626 H 338.575 -2.73966 -4.28742 0
M  V30 3627 H 337.973 0.132343 -5.65545 0
M  V30 3628 H 336.53 -0.232013 -6.51387 0
M  V30 3629 N 339.963 1.05934 -1.16686 0
M  V30 3630 C 341.191 1.8249 -0.974929 0
M  V30 3631 C 341.606 1.82679 0.476861 0
M  V30 3632 O 340.963 1.2486 1.33103 0
M  V30 3633 C 341.014 3.28943 -1.49929 0
M  V30 3634 O 340.735 3.28886 -2.89423 0
M  V30 3635 C 342.236 4.22215 -1.35089 0
M  V30 3636 H 339.456 0.575295 -0.345365 0
M  V30 3637 H 342 1.33631 -1.548 0
M  V30 3638 H 340.155 3.751 -0.968423 0
M  V30 3639 H 340.569 4.20493 -3.13506 0
M  V30 3640 H 342.043 5.22987 -1.76603 0
M  V30 3641 H 342.52 4.38195 -0.296935 0
M  V30 3642 H 343.126 3.81907 -1.87155 0
M  V30 3643 N 341.441 0.965919 1.2453 0
M  V30 3644 C 342.404 0.499547 2.2369 0
M  V30 3645 C 343.404 -0.40294 1.5567 0
M  V30 3646 O 344.594 -0.19865 1.73064 0
M  V30 3647 C 341.726 -0.276792 3.39774 0
M  V30 3648 H 342.919 1.37613 2.66463 0
M  V30 3649 H 340.472 0.750324 1.37112 0
M  V30 3650 H 341.207 -1.17055 3.02438 0
M  V30 3651 H 340.992 0.370826 3.90343 0
M  V30 3652 H 342.482 -0.592175 4.1338 0
M  V30 3653 N 342.919 -1.39368 0.735821 0
M  V30 3654 C 343.849 -2.33234 0.111506 0
M  V30 3655 C 344.83 -1.53954 -0.723334 0
M  V30 3656 O 346.015 -1.82344 -0.668147 0
M  V30 3657 C 343.145 -3.38057 -0.795917 0
M  V30 3658 C 342.099 -4.2795 -0.065172 0
M  V30 3659 C 341.425 -5.23479 -1.08967 0
M  V30 3660 C 342.725 -5.10741 1.09273 0
M  V30 3661 H 344.419 -2.85692 0.895571 0
M  V30 3662 H 341.965 -1.37364 0.432109 0
M  V30 3663 H 343.918 -4.02675 -1.24221 0
M  V30 3664 H 342.642 -2.8404 -1.61211 0
M  V30 3665 H 341.301 -3.64813 0.361511 0
M  V30 3666 H 340.949 -4.65758 -1.89944 0
M  V30 3667 H 340.649 -5.84472 -0.605489 0
M  V30 3668 H 342.173 -5.90974 -1.53565 0
M  V30 3669 H 343.587 -5.68699 0.724841 0
M  V30 3670 H 341.984 -5.8088 1.50659 0
M  V30 3671 H 343.054 -4.45525 1.91404 0
M  V30 3672 N 344.397 -0.483516 -1.5 0
M  V30 3673 C 345.33 0.350427 -2.25493 0
M  V30 3674 C 346.308 0.985549 -1.29328 0
M  V30 3675 O 347.492 1.01906 -1.58579 0
M  V30 3676 C 344.619 1.49202 -3.04066 0
M  V30 3677 C 343.665 0.973036 -4.15252 0
M  V30 3678 S 344.498 -0.122237 -5.3536 0
M  V30 3679 C 345.654 1.02294 -6.17484 0
M  V30 3680 H 345.887 -0.290381 -2.95878 0
M  V30 3681 H 343.42 -0.268562 -1.52046 0
M  V30 3682 H 345.378 2.14623 -3.49925 0
M  V30 3683 H 344.039 2.10438 -2.33183 0
M  V30 3684 H 343.232 1.82804 -4.69679 0
M  V30 3685 H 342.834 0.396335 -3.71894 0
M  V30 3686 H 345.126 1.93195 -6.49371 0
M  V30 3687 H 346.069 0.517664 -7.06205 0
M  V30 3688 H 346.477 1.28238 -5.49741 0
M  V30 3689 N 345.875 1.56104 -0.216619 0
M  V30 3690 C 347.122 1.98172 0.416416 0
M  V30 3691 C 347.45 1.10413 1.60122 0
M  V30 3692 O 346.705 0.147967 1.9514 0
M  V30 3693 C 347.004 3.45923 0.898464 0
M  V30 3694 C 346.67 4.50559 -0.175288 0
M  V30 3695 C 345.332 4.78897 -0.470271 0
M  V30 3696 C 347.684 5.1334 -0.901728 0
M  V30 3697 C 345.012 5.67299 -1.4963 0
M  V30 3698 C 347.364 6.02853 -1.91705 0
M  V30 3699 C 346.028 6.29537 -2.21901 0
M  V30 3700 H 345.298 0.725164 0.152377 0
M  V30 3701 H 347.945 1.88839 -0.318103 0
M  V30 3702 H 346.25 3.52434 1.71165 0
M  V30 3703 H 347.947 3.75841 1.39803 0
M  V30 3704 H 344.537 4.28551 0.0647806 0
M  V30 3705 H 348.721 4.91521 -0.687072 0
M  V30 3706 H 343.977 5.86239 -1.73592 0
M  V30 3707 H 348.151 6.50552 -2.48505 0
M  V30 3708 H 345.778 6.97835 -3.01548 0
M  V30 3709 N 347.353 -0.0568162 1.57498 0
M  V30 3710 C 348.764 -0.606858 1.76562 0
M  V30 3711 C 349.115 -1.77114 0.844094 0
M  V30 3712 O 348.24 -2.16376 0.0318911 0
M  V30 3713 C 348.835 -1.10766 3.20182 0
M  V30 3714 C 347.394 -1.60344 3.40539 0
M  V30 3715 C 346.541 -0.529311 2.72201 0
M  V30 3716 H 349.492 0.169393 1.57793 0
M  V30 3717 H 349.513 -1.97602 3.25167 0
M  V30 3718 H 349.025 -0.26006 3.87228 0
M  V30 3719 H 347.126 -2.47379 2.78629 0
M  V30 3720 H 347.239 -1.67006 4.4905 0
M  V30 3721 H 345.603 -0.977893 2.35179 0
M  V30 3722 H 346.386 0.308352 3.41912 0
M  V30 3723 N 348.832 -1.54138 -0.328536 0
M  V30 3724 C 349.78 -1.83894 -1.42428 0
M  V30 3725 C 350.774 -0.710478 -1.53781 0
M  V30 3726 O 351.98 -0.894062 -1.56226 0
M  V30 3727 H 348.355 -0.582837 -0.475189 0
M  V30 3728 H 350.326 -2.75537 -1.14552 0
M  V30 3729 C 349.075 -2.07866 -2.78724 0
M  V30 3730 H 348.398 -2.94158 -2.7076 0
M  V30 3731 H 349.838 -2.32644 -3.54476 0
M  V30 3732 C 348.297 -0.868689 -3.25508 0
M  V30 3733 O 348.827 -0.0754908 -4.01629 0
M  V30 3734 N 347.033 -0.681711 -2.82491 0
M  V30 3735 H 346.58 -1.32838 -2.20708 0
M  V30 3736 H 346.538 0.126374 -3.14146 0
M  V30 3737 N 350.31 0.590341 -1.46126 0
M  V30 3738 C 351.54 1.37304 -1.54373 0
M  V30 3739 C 351.948 1.88332 -0.181071 0
M  V30 3740 O 351.291 1.63852 0.830559 0
M  V30 3741 C 351.353 2.6012 -2.48149 0
M  V30 3742 C 351.017 2.30613 -3.94546 0
M  V30 3743 C 352.014 1.89915 -4.83971 0
M  V30 3744 C 349.699 2.42993 -4.39613 0
M  V30 3745 C 351.693 1.61981 -6.16475 0
M  V30 3746 C 349.38 2.14672 -5.72153 0
M  V30 3747 C 350.378 1.7423 -6.60404 0
M  V30 3748 O 350.066 1.46251 -7.90485 0
M  V30 3749 H 349.798 0.426086 -0.524811 0
M  V30 3750 H 352.352 0.72539 -1.92165 0
M  V30 3751 H 350.582 3.27664 -2.05361 0
M  V30 3752 H 352.271 3.22182 -2.46887 0
M  V30 3753 H 353.037 1.79872 -4.50412 0
M  V30 3754 H 348.916 2.73435 -3.71153 0
M  V30 3755 H 352.46 1.30341 -6.85315 0
M  V30 3756 H 348.357 2.24337 -6.05263 0
M  V30 3757 H 349.125 1.6016 -8.02677 0
M  V30 3758 N 351.788 1.33704 0.83433 0
M  V30 3759 C 353.034 1.25603 1.59222 0
M  V30 3760 C 353.367 -0.176659 1.93395 0
M  V30 3761 O 352.642 -1.11915 1.59076 0
M  V30 3762 C 352.925 2.13576 2.89926 0
M  V30 3763 C 352.778 3.65326 2.62406 0
M  V30 3764 C 354.097 2.01238 3.91397 0
M  V30 3765 H 351.216 0.457613 0.577719 0
M  V30 3766 H 353.858 1.63848 0.961972 0
M  V30 3767 H 352.008 1.8109 3.43713 0
M  V30 3768 H 353.68 4.08124 2.15017 0
M  V30 3769 H 351.923 3.8698 1.96033 0
M  V30 3770 H 352.594 4.22232 3.55562 0
M  V30 3771 H 355.07 2.29738 3.46929 0
M  V30 3772 H 353.946 2.65036 4.80673 0
M  V30 3773 H 354.207 0.985951 4.30966 0
M  V30 3774 N 353.266 -1.05314 1.17247 0
M  V30 3775 C 354.491 -1.82509 0.985148 0
M  V30 3776 C 354.916 -1.82343 -0.461788 0
M  V30 3777 O 354.274 -1.23151 -1.33055 0
M  V30 3778 C 354.322 -3.26566 1.52929 0
M  V30 3779 O 353.426 -4.05666 0.742225 0
M  V30 3780 H 352.767 -0.564347 0.349869 0
M  V30 3781 H 355.297 -1.32718 1.55715 0
M  V30 3782 H 355.307 -3.77369 1.55103 0
M  V30 3783 H 353.982 -3.26001 2.58256 0
M  V30 3784 H 352.559 -3.64397 0.791794 0
M  V30 3785 N 354.744 -0.972509 -1.24016 0
M  V30 3786 C 355.674 -0.525548 -2.27509 0
M  V30 3787 C 356.655 0.437262 -1.64384 0
M  V30 3788 O 357.84 0.332343 -1.91335 0
M  V30 3789 C 354.97 0.180448 -3.46831 0
M  V30 3790 C 353.924 -0.698859 -4.22256 0
M  V30 3791 C 353.25 0.138903 -5.3452 0
M  V30 3792 C 354.55 -1.98582 -4.83076 0
M  V30 3793 H 356.244 -1.39058 -2.65148 0
M  V30 3794 H 353.79 -0.67009 -1.27459 0
M  V30 3795 H 355.743 0.504387 -4.18371 0
M  V30 3796 H 354.467 1.07987 -3.08231 0
M  V30 3797 H 353.126 -1.00614 -3.52523 0
M  V30 3798 H 352.774 1.03862 -4.9216 0
M  V30 3799 H 352.474 -0.446259 -5.85903 0
M  V30 3800 H 353.998 0.457404 -6.08884 0
M  V30 3801 H 355.412 -1.72715 -5.46665 0
M  V30 3802 H 353.809 -2.5181 -5.44713 0
M  V30 3803 H 354.879 -2.67769 -4.04262 0
M  V30 3804 N 356.222 1.38976 -0.743202 0
M  V30 3805 C 357.499 1.94351 -0.220705 0
M  V30 3806 C 357.879 1.67935 1.2791 0
M  V30 3807 O 357.227 1.01211 2.04862 0
M  V30 3808 C 357.437 3.44426 -0.563171 0
M  V30 3809 C 358.785 4.2144 -0.517046 0
M  V30 3810 O 359.809 3.52661 -0.500846 0
M  V30 3811 O 358.668 5.44032 -0.518806 0
M  V30 3812 H 355.762 0.825879 -0.043047 0
M  V30 3813 H 358.308 1.48429 -0.822618 0
M  V30 3814 H 357.08 3.5712 -1.59941 0
M  V30 3815 H 356.703 3.97543 0.0672883 0
M  V30 3816 N 357.7 0.491464 1.49741 0
M  V30 3817 C 359.111 0.0413169 1.86654 0
M  V30 3818 C 359.462 -1.36985 1.40462 0
M  V30 3819 O 358.587 -2.01917 0.778354 0
M  V30 3820 C 359.182 0.0682023 3.38731 0
M  V30 3821 C 357.741 -0.32656 3.74981 0
M  V30 3822 C 356.888 0.444888 2.73708 0
M  V30 3823 H 359.839 0.704733 1.42194 0
M  V30 3824 H 359.86 -0.729322 3.73445 0
M  V30 3825 H 359.372 1.09539 3.72321 0
M  V30 3826 H 357.473 -1.35734 3.46997 0
M  V30 3827 H 357.586 -0.013741 4.79098 0
M  V30 3828 H 355.95 -0.104062 2.54487 0
M  V30 3829 H 356.733 1.47197 3.10142 0
M  V30 3830 N 359.178 -1.55987 0.224894 0
M  V30 3831 C 360.594 -1.59066 -0.130426 0
M  V30 3832 C 360.794 -1.24176 -1.5869 0
M  V30 3833 O 359.85 -0.978592 -2.32766 0
M  V30 3834 C 361.163 -3.00042 0.198883 0
M  V30 3835 C 362.711 -3.1268 0.141391 0
M  V30 3836 C 363.186 -4.55839 0.444422 0
M  V30 3837 N 364.677 -4.6152 0.394115 0
M  V30 3838 C 365.412 -5.70231 0.602038 0
M  V30 3839 N 364.908 -6.87291 0.871914 0
M  V30 3840 N 366.701 -5.59555 0.534245 0
M  V30 3841 H 358.852 -1.76941 1.17497 0
M  V30 3842 H 361.115 -0.822604 0.471197 0
M  V30 3843 H 360.821 -3.30234 1.2099 0
M  V30 3844 H 360.695 -3.74075 -0.484535 0
M  V30 3845 H 363.082 -2.82283 -0.860265 0
M  V30 3846 H 363.163 -2.40969 0.858335 0
M  V30 3847 H 362.807 -4.86954 1.44353 0
M  V30 3848 H 362.737 -5.2578 -0.293752 0
M  V30 3849 H 365.228 -3.77405 0.193356 0
M  V30 3850 H 365.541 -7.66058 1.01858 0
M  V30 3851 H 363.886 -6.89028 0.909145 0
M  V30 3852 H 367.077 -4.6698 0.323612 0
M  V30 3853 H 367.25 -6.44211 0.699693 0
M  V30 3854 N 360.656 0.0484629 -1.57525 0
M  V30 3855 C 361.603 1.05504 -2.05275 0
M  V30 3856 C 362.573 1.37084 -0.937927 0
M  V30 3857 O 363.758 1.47754 -1.2072 0
M  V30 3858 C 360.898 2.35676 -2.52093 0
M  V30 3859 C 360.011 2.10423 -3.77288 0
M  V30 3860 C 359.146 3.34327 -4.12794 0
M  V30 3861 C 358.185 3.04542 -5.30962 0
M  V30 3862 N 357.322 4.20841 -5.61994 0
M  V30 3863 H 362.162 0.640885 -2.91027 0
M  V30 3864 H 359.699 0.304854 -1.43906 0
M  V30 3865 H 361.657 3.11709 -2.77297 0
M  V30 3866 H 360.287 2.7485 -1.69285 0
M  V30 3867 H 359.339 1.24976 -3.59284 0
M  V30 3868 H 360.651 1.84438 -4.63448 0
M  V30 3869 H 359.805 4.1874 -4.39024 0
M  V30 3870 H 358.544 3.63408 -3.25247 0
M  V30 3871 H 357.549 2.18528 -5.04505 0
M  V30 3872 H 358.774 2.76758 -6.20146 0
M  V30 3873 H 356.72 4.4991 -4.77406 0
M  V30 3874 H 356.637 3.98212 -6.42622 0
M  V30 3875 H 357.905 5.06184 -5.92789 0
M  V30 3876 N 362.134 1.5431 0.320358 0
M  V30 3877 C 363.364 1.7638 1.07582 0
M  V30 3878 C 363.772 0.513944 1.82086 0
M  V30 3879 O 363.115 -0.525123 1.76035 0
M  V30 3880 C 363.177 2.9055 2.1171 0
M  V30 3881 C 362.841 4.2934 1.56575 0
M  V30 3882 C 363.838 5.10077 1.00586 0
M  V30 3883 C 361.523 4.75893 1.60722 0
M  V30 3884 C 363.517 6.35477 0.494756 0
M  V30 3885 C 361.204 6.0126 1.09224 0
M  V30 3886 C 362.202 6.80886 0.53696 0
M  V30 3887 O 361.89 8.03894 0.0297371 0
M  V30 3888 H 361.622 0.592369 0.325692 0
M  V30 3889 H 364.176 2.02019 0.37116 0
M  V30 3890 H 362.406 2.60489 2.85801 0
M  V30 3891 H 364.095 3.00373 2.73003 0
M  V30 3892 H 364.861 4.75265 0.966869 0
M  V30 3893 H 360.74 4.13957 2.02882 0
M  V30 3894 H 364.284 6.97574 0.0606842 0
M  V30 3895 H 360.181 6.35562 1.12831 0
M  V30 3896 H 360.949 8.18372 0.14486 0
M  V30 3897 N 363.613 -0.582584 1.46437 0
M  V30 3898 C 365.024 -1.1647 1.45916 0
M  V30 3899 C 365.375 -1.95177 0.200077 0
M  V30 3900 O 364.5 -2.04874 -0.696819 0
M  V30 3901 C 365.095 -2.11885 2.64367 0
M  V30 3902 C 363.654 -2.65421 2.66887 0
M  V30 3903 C 362.801 -1.41294 2.38603 0
M  V30 3904 H 365.752 -0.370514 1.54314 0
M  V30 3905 H 365.773 -2.9535 2.39892 0
M  V30 3906 H 365.285 -1.54573 3.5599 0
M  V30 3907 H 363.386 -3.26602 1.79338 0
M  V30 3908 H 363.499 -3.08147 3.66854 0
M  V30 3909 H 361.863 -1.71109 1.88663 0
M  V30 3910 H 362.646 -0.858125 3.32402 0
M  V30 3911 N 365.091 -1.34144 -0.827227 0
M  V30 3912 C 366.021 -1.28005 -1.95287 0
M  V30 3913 C 367.002 -0.158321 -1.69362 0
M  V30 3914 O 368.187 -0.349987 -1.9102 0
M  V30 3915 C 365.317 -1.03036 -3.31664 0
M  V30 3916 C 364.271 -2.11628 -3.72019 0
M  V30 3917 C 363.597 -1.71854 -5.0633 0
M  V30 3918 C 364.897 -3.53417 -3.8457 0
M  V30 3919 H 366.591 -2.22187 -2.00682 0
M  V30 3920 H 364.137 -1.0696 -0.964135 0
M  V30 3921 H 366.09 -0.973863 -4.09993 0
M  V30 3922 H 364.814 -0.0529391 -3.26557 0
M  V30 3923 H 363.473 -2.16339 -2.95961 0
M  V30 3924 H 363.121 -0.727841 -4.97706 0
M  V30 3925 H 362.821 -2.44531 -5.34302 0
M  V30 3926 H 364.345 -1.67692 -5.87122 0
M  V30 3927 H 365.759 -3.51142 -4.5318 0
M  V30 3928 H 364.156 -4.24679 -4.2399 0
M  V30 3929 H 365.226 -3.91072 -2.86689 0
M  V30 3930 N 366.569 1.04691 -1.17803 0
M  V30 3931 C 367.794 1.81984 -0.994813 0
M  V30 3932 C 368.219 1.82586 0.452112 0
M  V30 3933 O 367.577 1.23854 1.324 0
M  V30 3934 C 367.625 3.2575 -1.54659 0
M  V30 3935 O 366.729 4.05267 -0.763728 0
M  V30 3936 H 366.07 0.562483 -0.352857 0
M  V30 3937 H 368.6 1.3189 -1.56417 0
M  V30 3938 H 368.61 3.76541 -1.57102 0
M  V30 3939 H 367.285 3.24627 -2.59981 0
M  V30 3940 H 365.862 3.63972 -0.811108 0
M  V30 3941 N 368.047 0.979072 1.23499 0
M  V30 3942 C 368.979 0.476271 2.24197 0
M  V30 3943 C 369.992 -0.421166 1.57258 0
M  V30 3944 O 371.181 -0.225515 1.7707 0
M  V30 3945 C 368.281 -0.330503 3.37285 0
M  V30 3946 C 367.454 0.559744 4.33804 0
M  V30 3947 C 366.513 -0.192954 5.25846 0
M  V30 3948 O 365.539 0.416978 5.67671 0
M  V30 3949 N 366.741 -1.47932 5.61334 0
M  V30 3950 H 369.506 1.34211 2.67969 0
M  V30 3951 H 367.067 0.852189 1.37657 0
M  V30 3952 H 369.059 -0.842361 3.95836 0
M  V30 3953 H 367.629 -1.09734 2.92707 0
M  V30 3954 H 366.849 1.25245 3.73775 0
M  V30 3955 H 368.137 1.1665 4.95248 0
M  V30 3956 H 367.535 -1.9964 5.29302 0
M  V30 3957 H 366.092 -1.93664 6.22364 0
M  V30 3958 N 369.525 -1.3858 0.750561 0
M  V30 3959 C 370.802 -1.94231 0.231009 0
M  V30 3960 C 371.182 -1.68611 -1.27018 0
M  V30 3961 O 370.53 -1.02296 -2.04323 0
M  V30 3962 C 370.74 -3.44123 0.581428 0
M  V30 3963 C 372.088 -4.2116 0.539389 0
M  V30 3964 O 373.112 -3.52391 0.519541 0
M  V30 3965 O 371.971 -5.43749 0.54765 0
M  V30 3966 H 369.065 -0.825639 0.0474263 0
M  V30 3967 H 371.611 -1.4799 0.830478 0
M  V30 3968 H 370.383 -3.56267 1.61833 0
M  V30 3969 H 370.006 -3.97573 -0.0462047 0
M  V30 3970 N 371.003 -0.499398 -1.49478 0
M  V30 3971 C 372.28 0.108629 -1.95298 0
M  V30 3972 C 372.66 1.54282 -1.44084 0
M  V30 3973 O 372.008 2.18944 -0.653908 0
M  V30 3974 C 372.218 0.0229111 -3.48992 0
M  V30 3975 C 373.566 0.197643 -4.2414 0
M  V30 3976 O 374.59 0.0981735 -3.56065 0
M  V30 3977 O 373.449 0.401669 -5.45022 0
M  V30 3978 H 370.543 0.096181 -0.821388 0
M  V30 3979 H 373.089 -0.561822 -1.6013 0
M  V30 3980 H 371.861 -0.977321 -3.78899 0
M  V30 3981 H 371.484 0.733579 -3.90774 0
M  V30 3982 N 372.481 1.55866 -0.233164 0
M  V30 3983 C 373.73 1.97779 0.39579 0
M  V30 3984 C 374.043 1.12419 1.60066 0
M  V30 3985 O 375.249 1.44283 2.29988 0
M  V30 3986 C 373.705 3.5188 0.755556 0
M  V30 3987 C 373.313 4.45959 -0.427152 0
M  V30 3988 C 375.057 4.02479 1.34946 0
M  V30 3989 C 372.964 5.91383 -0.0443043 0
M  V30 3990 H 371.894 0.738592 0.15165 0
M  V30 3991 H 374.545 1.80486 -0.331212 0
M  V30 3992 H 372.927 3.64816 1.5403 0
M  V30 3993 H 374.101 4.44776 -1.20462 0
M  V30 3994 H 372.416 4.05765 -0.935068 0
M  V30 3995 H 375.013 5.08637 1.649 0
M  V30 3996 H 375.356 3.49014 2.26925 0
M  V30 3997 H 375.889 3.92813 0.62791 0
M  V30 3998 H 372.628 6.48857 -0.930874 0
M  V30 3999 H 372.148 5.95734 0.697238 0
M  V30 4000 H 373.827 6.45893 0.378334 0
M  V30 4001 N 373.959 -0.0401083 1.57549 0
M  V30 4002 C 374.907 -1.06264 2.06908 0
M  V30 4003 C 375.901 -1.38132 0.980608 0
M  V30 4004 O 377.107 -1.37167 1.16556 0
M  V30 4005 H 373.482 -0.360166 0.660139 0
M  V30 4006 H 375.453 -0.620445 2.91878 0
M  V30 4007 C 374.202 -2.35846 2.55483 0
M  V30 4008 H 373.525 -2.12183 3.38849 0
M  V30 4009 H 374.965 -3.05765 2.93741 0
M  V30 4010 C 373.424 -3.0404 1.45126 0
M  V30 4011 O 373.954 -3.93424 0.811216 0
M  V30 4012 N 372.16 -2.65184 1.18852 0
M  V30 4013 H 371.707 -1.92584 1.71083 0
M  V30 4014 H 371.665 -3.1113 0.452244 0
M  V30 4015 N 375.437 -1.54477 -0.31217 0
M  V30 4016 C 376.685 -1.72884 -1.04668 0
M  V30 4017 C 377.006 -0.511477 -1.88173 0
M  V30 4018 O 376.276 0.474407 -1.90069 0
M  V30 4019 H 374.856 -0.637461 -0.389425 0
M  V30 4020 H 377.518 -1.91807 -0.345852 0
M  V30 4021 H 376.614 -2.61334 -1.70619 0
M  V30 4022 N 376.915 0.57481 -1.46744 0
M  V30 4023 C 378.164 1.32898 -1.51727 0
M  V30 4024 C 378.477 1.948 -0.176692 0
M  V30 4025 O 379.683 2.71299 -0.104385 0
M  V30 4026 C 378.139 2.40901 -2.67385 0
M  V30 4027 C 377.747 1.85266 -4.07898 0
M  V30 4028 C 379.491 3.17609 -2.81646 0
M  V30 4029 C 377.398 2.90945 -5.14883 0
M  V30 4030 H 376.328 0.499631 -0.564699 0
M  V30 4031 H 378.979 0.612536 -1.72975 0
M  V30 4032 H 377.361 3.15379 -2.39483 0
M  V30 4033 H 378.535 1.17278 -4.45626 0
M  V30 4034 H 376.85 1.21199 -3.98371 0
M  V30 4035 H 379.447 3.96493 -3.58744 0
M  V30 4036 H 379.79 3.70696 -1.89448 0
M  V30 4037 H 380.323 2.50239 -3.09233 0
M  V30 4038 H 377.062 2.42736 -6.089 0
M  V30 4039 H 376.582 3.57398 -4.81691 0
M  V30 4040 H 378.261 3.54755 -5.41071 0
M  V30 4041 N 378.394 1.34581 0.820102 0
M  V30 4042 C 379.326 1.22236 1.93884 0
M  V30 4043 C 380.339 0.148776 1.62119 0
M  V30 4044 O 381.528 0.400877 1.7394 0
M  V30 4045 C 378.628 0.856542 3.27897 0
M  V30 4046 C 377.801 2.02569 3.87666 0
M  V30 4047 C 376.86 1.63782 5.00062 0
M  V30 4048 O 375.886 2.35477 5.18208 0
M  V30 4049 N 377.088 0.553611 5.77854 0
M  V30 4050 H 379.853 2.18615 2.05006 0
M  V30 4051 H 377.414 1.27573 0.99683 0
M  V30 4052 H 379.406 0.578806 4.0054 0
M  V30 4053 H 377.976 -0.0171518 3.12595 0
M  V30 4054 H 377.196 2.468 3.07382 0
M  V30 4055 H 378.484 2.80752 4.24329 0
M  V30 4056 H 377.882 -0.0423528 5.65684 0
M  V30 4057 H 376.439 0.335614 6.50935 0
M  V30 4058 N 379.872 -1.04064 1.18357 0
M  V30 4059 C 381.097 -1.81454 1.00445 0
M  V30 4060 C 381.522 -1.82823 -0.442423 0
M  V30 4061 O 380.88 -1.24555 -1.31741 0
M  V30 4062 C 380.928 -3.24925 1.56384 0
M  V30 4063 O 380.032 -4.04856 0.785209 0
M  V30 4064 H 379.373 -0.560604 0.355835 0
M  V30 4065 H 381.903 -1.31059 1.57114 0
M  V30 4066 H 381.913 -3.75702 1.59097 0
M  V30 4067 H 380.588 -3.23244 2.61699 0
M  V30 4068 H 379.165 -3.63537 0.830399 0
M  V30 4069 N 381.35 -0.985608 -1.22978 0
M  V30 4070 C 382.599 -0.652881 -1.90841 0
M  V30 4071 C 382.912 0.817842 -1.77681 0
M  V30 4072 O 384.118 1.26185 -2.40395 0
M  V30 4073 C 382.574 -1.11717 -3.42122 0
M  V30 4074 C 382.182 -2.6126 -3.63933 0
M  V30 4075 C 383.926 -0.85843 -4.1573 0
M  V30 4076 C 381.833 -3.0133 -5.08876 0
M  V30 4077 H 380.763 -0.240491 -0.714619 0
M  V30 4078 H 383.414 -1.1942 -1.39324 0
M  V30 4079 H 381.796 -0.504027 -3.92779 0
M  V30 4080 H 382.97 -3.27858 -3.23799 0
M  V30 4081 H 381.285 -2.84937 -3.03644 0
M  V30 4082 H 383.882 -1.13359 -5.22546 0
M  V30 4083 H 384.225 0.205461 -4.15793 0
M  V30 4084 H 384.758 -1.43341 -3.71077 0
M  V30 4085 H 381.497 -4.06864 -5.13947 0
M  V30 4086 H 381.017 -2.3943 -5.49939 0
M  V30 4087 H 382.696 -2.92224 -5.77247 0
M  V30 4088 N 382.828 1.3818 -0.7579 0
M  V30 4089 C 384.058 2.04004 -0.326463 0
M  V30 4090 C 384.466 1.57286 1.05156 0
M  V30 4091 O 383.809 0.743144 1.67997 0
M  V30 4092 C 383.871 3.58444 -0.275402 0
M  V30 4093 C 383.535 4.28237 -1.59569 0
M  V30 4094 C 384.532 4.53312 -2.54566 0
M  V30 4095 C 382.217 4.66341 -1.86631 0
M  V30 4096 C 384.211 5.15531 -3.74842 0
M  V30 4097 C 381.898 5.28283 -3.0718 0
M  V30 4098 C 382.896 5.52814 -4.01106 0
M  V30 4099 O 382.584 6.13465 -5.19534 0
M  V30 4100 H 382.316 0.662026 -0.136739 0
M  V30 4101 H 384.87 1.7777 -1.02893 0
M  V30 4102 H 383.1 3.83667 0.483337 0
M  V30 4103 H 384.789 4.05701 0.127099 0
M  V30 4104 H 385.555 4.24299 -2.34936 0
M  V30 4105 H 381.434 4.46591 -1.14358 0
M  V30 4106 H 384.978 5.34594 -4.48168 0
M  V30 4107 H 380.875 5.56719 -3.26702 0
M  V30 4108 H 381.643 6.31951 -5.20173 0
M  V30 4109 N 384.306 0.507319 1.49211 0
M  V30 4110 C 385.554 -0.0348839 2.0207 0
M  V30 4111 C 385.875 -1.36898 1.38866 0
M  V30 4112 O 385.145 -1.88133 0.546151 0
M  V30 4113 H 383.725 -0.0158812 0.746831 0
M  V30 4114 H 386.387 0.665998 1.83168 0
M  V30 4115 H 385.483 -0.159917 3.1169 0
M  V30 4116 N 385.784 -1.5574 0.241426 0
M  V30 4117 C 387.032 -1.98417 -0.384075 0
M  V30 4118 C 387.353 -1.13078 -1.58866 0
M  V30 4119 O 386.623 -0.212312 -1.94746 0
M  V30 4120 H 385.203 -0.732813 -0.144894 0
M  V30 4121 H 387.865 -1.9193 0.338943 0
M  V30 4122 H 386.961 -3.04219 -0.696939 0
M  V30 4123 N 387.262 0.0317525 -1.57568 0
M  V30 4124 C 388.192 1.03274 -2.0942 0
M  V30 4125 C 389.173 1.3788 -0.996143 0
M  V30 4126 O 390.358 1.46811 -1.27122 0
M  V30 4127 C 387.488 2.33448 -2.57137 0
M  V30 4128 C 386.442 2.13091 -3.71182 0
M  V30 4129 C 385.768 3.49001 -4.05095 0
M  V30 4130 C 387.068 1.51928 -4.99715 0
M  V30 4131 H 388.762 0.60112 -2.93303 0
M  V30 4132 H 386.308 0.287705 -1.41097 0
M  V30 4133 H 388.261 3.03802 -2.92032 0
M  V30 4134 H 386.985 2.78665 -1.70333 0
M  V30 4135 H 385.644 1.45171 -3.36632 0
M  V30 4136 H 385.292 3.91862 -3.15362 0
M  V30 4137 H 384.992 3.36207 -4.81911 0
M  V30 4138 H 386.516 4.20721 -4.42522 0
M  V30 4139 H 387.93 2.12196 -5.32584 0
M  V30 4140 H 386.327 1.49716 -5.81124 0
M  V30 4141 H 387.397 0.484811 -4.8247 0
M  V30 4142 N 388.74 1.54641 0.303973 0
M  V30 4143 C 390.151 1.64811 0.877163 0
M  V30 4144 C 390.502 0.554838 1.88191 0
M  V30 4145 O 389.627 -0.309033 2.14182 0
M  V30 4146 C 390.222 2.9876 1.59775 0
M  V30 4147 C 388.781 3.11061 2.11938 0
M  V30 4148 C 387.928 2.60479 0.951097 0
M  V30 4149 H 390.879 1.58493 0.0810486 0
M  V30 4150 H 390.9 2.90017 2.46314 0
M  V30 4151 H 390.412 3.7831 0.866226 0
M  V30 4152 H 388.513 2.36225 2.88146 0
M  V30 4153 H 388.626 4.17171 2.35595 0
M  V30 4154 H 386.99 2.16859 1.33583 0
M  V30 4155 H 387.773 3.42504 0.233581 0
M  V30 4156 N 390.218 -0.567019 1.47046 0
M  V30 4157 C 391.165 -1.67489 1.58796 0
M  V30 4158 C 392.135 -1.60399 0.43144 0
M  V30 4159 O 393.32 -1.79378 0.650233 0
M  V30 4160 C 390.46 -3.05821 1.59899 0
M  V30 4161 C 389.573 -3.2342 2.86397 0
M  V30 4162 C 388.708 -4.52093 2.789 0
M  V30 4163 C 387.747 -4.6309 4.00267 0
M  V30 4164 N 386.884 -5.83106 3.91064 0
M  V30 4165 H 391.724 -1.56785 2.53422 0
M  V30 4166 H 389.261 -0.763896 1.2571 0
M  V30 4167 H 391.219 -3.8591 1.58522 0
M  V30 4168 H 389.849 -3.15384 0.687929 0
M  V30 4169 H 388.901 -2.3683 2.97684 0
M  V30 4170 H 390.213 -3.27412 3.76301 0
M  V30 4171 H 389.367 -5.4043 2.75718 0
M  V30 4172 H 388.106 -4.50565 1.86662 0
M  V30 4173 H 387.111 -3.73168 4.03765 0
M  V30 4174 H 388.336 -4.66386 4.93621 0
M  V30 4175 H 386.282 -5.82546 3.01623 0
M  V30 4176 H 386.199 -5.88434 4.74638 0
M  V30 4177 H 387.467 -6.73831 3.91882 0
M  V30 4178 N 391.696 -1.35014 -0.812953 0
M  V30 4179 C 392.606 -1.2951 -1.95613 0
M  V30 4180 C 393.622 -0.20107 -1.72834 0
M  V30 4181 O 394.798 -0.42932 -1.96771 0
M  V30 4182 C 391.863 -1.06033 -3.30088 0
M  V30 4183 C 390.924 -2.24688 -3.65805 0
M  V30 4184 C 390.157 -2.02322 -4.93864 0
M  V30 4185 O 390.38 -0.986464 -5.61805 0
M  V30 4186 O 389.314 -2.89525 -5.27692 0
M  V30 4187 H 393.14 -2.25705 -2.03202 0
M  V30 4188 H 390.725 -1.15321 -0.949811 0
M  V30 4189 H 392.607 -0.94763 -4.10607 0
M  V30 4190 H 391.282 -0.128852 -3.23443 0
M  V30 4191 H 390.189 -2.41521 -2.85689 0
M  V30 4192 H 391.522 -3.16261 -3.77147 0
M  V30 4193 N 393.175 1.03435 -1.18907 0
M  V30 4194 C 394.586 1.58195 -0.991523 0
M  V30 4195 C 394.937 1.90801 0.457081 0
M  V30 4196 O 394.062 1.70272 1.33553 0
M  V30 4197 C 394.657 2.87432 -1.79355 0
M  V30 4198 C 393.216 3.38785 -1.64017 0
M  V30 4199 C 392.363 2.12292 -1.78402 0
M  V30 4200 H 395.314 0.860299 -1.33359 0
M  V30 4201 H 395.335 3.58096 -1.28638 0
M  V30 4202 H 394.847 2.63669 -2.84781 0
M  V30 4203 H 392.948 3.67547 -0.611536 0
M  V30 4204 H 393.061 4.12186 -2.44212 0
M  V30 4205 H 391.425 2.23901 -1.2141 0
M  V30 4206 H 392.208 1.90977 -2.85277 0
M  V30 4207 N 394.653 0.992116 1.22453 0
M  V30 4208 C 395.616 0.546883 2.2258 0
M  V30 4209 C 396.616 -0.369829 1.56489 0
M  V30 4210 O 397.806 -0.161896 1.73446 0
M  V30 4211 C 394.938 -0.204659 3.40285 0
M  V30 4212 H 396.131 1.43234 2.63484 0
M  V30 4213 H 393.684 0.779239 1.3549 0
M  V30 4214 H 394.419 -1.10614 3.04853 0
M  V30 4215 H 394.204 0.45354 3.89468 0
M  V30 4216 H 395.694 -0.504358 4.14543 0
M  V30 4217 N 396.131 -1.37776 0.765217 0
M  V30 4218 C 397.078 -2.30342 0.145274 0
M  V30 4219 C 398.048 -1.5077 -0.696971 0
M  V30 4220 O 399.233 -1.79362 -0.650689 0
M  V30 4221 C 396.373 -3.37227 -0.732939 0
M  V30 4222 C 395.486 -4.31819 0.125199 0
M  V30 4223 C 394.621 -5.25777 -0.757107 0
M  V30 4224 C 393.66 -6.12012 0.103963 0
M  V30 4225 N 392.797 -6.98232 -0.735953 0
M  V30 4226 H 397.637 -2.8278 0.940195 0
M  V30 4227 H 395.174 -1.39211 0.475255 0
M  V30 4228 H 397.132 -3.97818 -1.25686 0
M  V30 4229 H 395.762 -2.86171 -1.49353 0
M  V30 4230 H 394.814 -3.7259 0.766865 0
M  V30 4231 H 396.126 -4.92509 0.789683 0
M  V30 4232 H 395.28 -5.91541 -1.34776 0
M  V30 4233 H 394.019 -4.65481 -1.45529 0
M  V30 4234 H 393.024 -5.45233 0.707197 0
M  V30 4235 H 394.249 -6.74379 0.799381 0
M  V30 4236 H 392.195 -6.40472 -1.41887 0
M  V30 4237 H 392.112 -7.55891 -0.128624 0
M  V30 4238 H 393.38 -7.68393 -1.31121 0
M  V30 4239 N 397.609 -0.515225 -1.4894 0
M  V30 4240 C 399.02 -0.0710067 -1.86565 0
M  V30 4241 C 399.371 1.34733 -1.42623 0
M  V30 4242 O 398.496 2.00653 -0.810379 0
M  V30 4243 C 399.091 -0.122083 -3.3858 0
M  V30 4244 C 397.65 0.266863 -3.75453 0
M  V30 4245 C 396.797 -0.488376 -2.72966 0
M  V30 4246 H 399.748 -0.727266 -1.41055 0
M  V30 4247 H 399.769 0.669818 -3.74558 0
M  V30 4248 H 399.281 -1.15448 -3.70531 0
M  V30 4249 H 397.382 1.30196 -3.49113 0
M  V30 4250 H 397.495 -0.0624811 -4.79059 0
M  V30 4251 H 395.859 0.0635622 -2.54621 0
M  V30 4252 H 396.642 -1.52113 -3.07761 0
M  V30 4253 N 399.087 1.5561 -0.249682 0
M  V30 4254 C 400.034 2.21496 0.648694 0
M  V30 4255 C 401.004 1.17977 1.16921 0
M  V30 4256 O 402.189 1.46434 1.22318 0
M  V30 4257 C 399.329 2.92039 1.83868 0
M  V30 4258 C 398.442 4.10219 1.35442 0
M  V30 4259 C 397.577 4.6847 2.50419 0
M  V30 4260 C 396.616 5.78893 1.98869 0
M  V30 4261 N 395.753 6.31315 3.07223 0
M  V30 4262 H 400.593 2.97892 0.0801582 0
M  V30 4263 H 398.13 1.47074 0.0278031 0
M  V30 4264 H 400.088 3.31138 2.53778 0
M  V30 4265 H 398.718 2.18111 2.37965 0
M  V30 4266 H 397.77 3.76413 0.54928 0
M  V30 4267 H 399.082 4.89927 0.936649 0
M  V30 4268 H 398.236 5.10158 3.28366 0
M  V30 4269 H 396.975 3.87984 2.95499 0
M  V30 4270 H 395.98 5.3668 1.19393 0
M  V30 4271 H 397.205 6.61232 1.54755 0
M  V30 4272 H 395.151 5.53733 3.51732 0
M  V30 4273 H 395.068 7.06224 2.69784 0
M  V30 4274 H 396.336 6.77662 3.8522 0
M  V30 4275 N 400.565 -0.0233959 1.57583 0
M  V30 4276 C 401.475 -1.03907 2.10334 0
M  V30 4277 C 402.491 -1.39257 1.04323 0
M  V30 4278 O 403.667 -1.48462 1.36091 0
M  V30 4279 C 400.732 -2.31938 2.57693 0
M  V30 4280 C 399.793 -2.03117 3.78209 0
M  V30 4281 C 399.026 -3.25043 4.233 0
M  V30 4282 O 399.249 -4.35916 3.67876 0
M  V30 4283 O 398.183 -3.10411 5.15683 0
M  V30 4284 H 402.009 -0.620748 2.97288 0
M  V30 4285 H 399.594 -0.240743 1.47448 0
M  V30 4286 H 401.476 -3.07196 2.88458 0
M  V30 4287 H 400.151 -2.73055 1.73847 0
M  V30 4288 H 399.058 -1.25408 3.52454 0
M  V30 4289 H 400.391 -1.66852 4.63056 0
M  V30 4290 N 402.043 -1.548 -0.295768 0
M  V30 4291 C 403.454 -1.65274 -0.868411 0
M  V30 4292 C 403.805 -0.56481 -1.87894 0
M  V30 4293 O 402.93 0.29767 -2.14343 0
M  V30 4294 C 403.525 -2.99603 -1.58188 0
M  V30 4295 C 402.084 -3.12181 -2.10286 0
M  V30 4296 C 401.231 -2.6098 -0.93727 0
M  V30 4297 H 404.182 -1.58534 -0.0726422 0
M  V30 4298 H 404.203 -2.91319 -2.44772 0
M  V30 4299 H 403.715 -3.78764 -0.846151 0
M  V30 4300 H 401.816 -2.3775 -2.8689 0
M  V30 4301 H 401.929 -4.18415 -2.33379 0
M  V30 4302 H 400.293 -2.17564 -1.32431 0
M  V30 4303 H 401.076 -3.42623 -0.215414 0
M  V30 4304 N 403.521 0.559213 -1.47345 0
M  V30 4305 C 404.749 1.34194 -1.57479 0
M  V30 4306 C 405.164 1.87463 -0.224261 0
M  V30 4307 O 404.521 1.64888 0.782185 0
M  V30 4308 C 404.572 2.51324 -2.59843 0
M  V30 4309 O 404.293 2.00256 -3.89653 0
M  V30 4310 C 405.794 3.43563 -2.80142 0
M  V30 4311 H 403.014 0.409136 -0.531835 0
M  V30 4312 H 405.558 0.677609 -1.92947 0
M  V30 4313 H 403.713 3.13699 -2.27314 0
M  V30 4314 H 404.127 2.76708 -4.4557 0
M  V30 4315 H 405.601 4.2217 -3.55635 0
M  V30 4316 H 406.078 3.9698 -1.87892 0
M  V30 4317 H 406.684 2.87005 -3.1386 0
M  V30 4318 N 404.999 1.35443 0.805782 0
M  V30 4319 C 406.248 1.28097 1.55801 0
M  V30 4320 C 406.561 -0.142428 1.95081 0
M  V30 4321 O 407.767 -0.33817 2.69386 0
M  V30 4322 C 406.223 2.24653 2.81174 0
M  V30 4323 C 405.831 3.72342 2.49129 0
M  V30 4324 C 407.575 2.2625 3.59181 0
M  V30 4325 C 405.482 4.60719 3.70799 0
M  V30 4326 H 404.412 0.475937 0.584808 0
M  V30 4327 H 407.063 1.60712 0.885661 0
M  V30 4328 H 405.445 1.85011 3.50124 0
M  V30 4329 H 406.619 4.20624 1.88181 0
M  V30 4330 H 404.934 3.73361 1.84366 0
M  V30 4331 H 407.531 2.89495 4.49552 0
M  V30 4332 H 407.874 1.26647 3.96568 0
M  V30 4333 H 408.407 2.64426 2.97193 0
M  V30 4334 H 405.146 5.61324 3.3852 0
M  V30 4335 H 404.666 4.17163 4.3097 0
M  V30 4336 H 406.345 4.76182 4.38018 0
M  V30 4337 N 406.477 -1.02803 1.19454 0
M  V30 4338 C 407.888 -1.57667 0.999899 0
M  V30 4339 C 408.239 -1.91041 -0.446956 0
M  V30 4340 O 407.364 -1.70978 -1.32648 0
M  V30 4341 C 407.959 -2.86477 1.80877 0
M  V30 4342 C 406.518 -3.37911 1.65811 0
M  V30 4343 C 405.665 -2.11343 1.79526 0
M  V30 4344 H 408.616 -0.853214 1.33813 0
M  V30 4345 H 408.637 -3.57408 1.30536 0
M  V30 4346 H 408.149 -2.62155 2.86175 0
M  V30 4347 H 406.25 -3.67218 0.63102 0
M  V30 4348 H 406.363 -4.10885 2.46395 0
M  V30 4349 H 404.727 -2.23254 1.22596 0
M  V30 4350 H 405.51 -1.89461 2.86285 0
M  V30 4351 N 407.956 -0.998596 -1.21925 0
M  V30 4352 C 408.906 -0.524743 -2.21879 0
M  V30 4353 C 409.89 0.41017 -1.55584 0
M  V30 4354 O 411.082 0.236063 -1.75419 0
M  V30 4355 C 408.211 0.153636 -3.42956 0
M  V30 4356 C 407.297 -0.801918 -4.16449 0
M  V30 4357 N 407.688 -1.95211 -4.66611 0
M  V30 4358 C 405.986 -0.618972 -4.41684 0
M  V30 4359 C 406.687 -2.55234 -5.22715 0
M  V30 4360 N 405.663 -1.83451 -5.1171 0
M  V30 4361 H 409.465 -1.40189 -2.58311 0
M  V30 4362 H 406.979 -0.86159 -1.3766 0
M  V30 4363 H 408.976 0.510534 -4.13762 0
M  V30 4364 H 407.636 1.02684 -3.08036 0
M  V30 4365 H 408.647 -2.33271 -4.62391 0
M  V30 4366 H 405.324 0.207694 -4.16983 0
M  V30 4367 H 406.714 -3.52471 -5.72026 0
M  V30 4368 N 409.434 1.37368 -0.772513 0
M  V30 4369 C 410.397 2.28601 -0.165541 0
M  V30 4370 C 411.397 1.48062 0.627238 0
M  V30 4371 O 412.587 1.68268 0.450715 0
M  V30 4372 C 409.719 3.32023 0.772897 0
M  V30 4373 H 410.912 2.83787 -0.969787 0
M  V30 4374 H 408.465 1.46647 -0.540775 0
M  V30 4375 H 409.2 2.81962 1.60212 0
M  V30 4376 H 408.985 3.91555 0.206585 0
M  V30 4377 H 410.475 4.00197 1.19298 0
M  V30 4378 N 410.912 0.523116 1.48665 0
M  V30 4379 C 412.152 -0.0115588 2.04397 0
M  V30 4380 C 412.516 -1.32225 1.39214 0
M  V30 4381 O 413.717 -1.94253 1.85793 0
M  V30 4382 C 411.988 -0.138119 3.57133 0
M  V30 4383 S 413.547 -0.623849 4.34343 0
M  V30 4384 H 410.365 0.00877706 0.710946 0
M  V30 4385 H 412.967 0.702116 1.82457 0
M  V30 4386 H 411.671 0.820748 4.02109 0
M  V30 4387 H 411.202 -0.876377 3.83514 0
M  V30 4388 H 413.217 -1.8895 4.58816 0
M  V30 4389 N 412.39 -1.55475 0.257931 0
M  V30 4390 C 413.667 -1.91155 -0.414629 0
M  V30 4391 C 414.047 -1.18008 -1.75035 0
M  V30 4392 O 413.395 -0.301193 -2.26506 0
M  V30 4393 C 413.605 -3.44283 -0.571859 0
M  V30 4394 C 414.953 -4.15744 -0.862678 0
M  V30 4395 O 415.977 -3.50083 -0.657314 0
M  V30 4396 O 414.836 -5.31909 -1.2544 0
M  V30 4397 H 411.93 -0.796016 -0.22425 0
M  V30 4398 H 414.476 -1.66976 0.302814 0
M  V30 4399 H 413.248 -3.89558 0.368844 0
M  V30 4400 H 412.871 -3.7436 -1.33943 0
M  V30 4401 N 413.868 0.0150385 -1.57593 0
M  V30 4402 C 415.279 0.559832 -1.78109 0
M  V30 4403 C 415.63 1.74814 -0.890756 0
M  V30 4404 O 414.755 2.16216 -0.0892482 0
M  V30 4405 C 415.35 1.02238 -3.23006 0
M  V30 4406 C 413.909 1.51258 -3.44671 0
M  V30 4407 C 413.056 0.456955 -2.73509 0
M  V30 4408 H 416.007 -0.211169 -1.57289 0
M  V30 4409 H 416.028 1.88912 -3.30292 0
M  V30 4410 H 415.54 0.157302 -3.87781 0
M  V30 4411 H 413.641 2.39905 -2.8509 0
M  V30 4412 H 413.754 1.55042 -4.5332 0
M  V30 4413 H 412.118 0.915196 -2.37689 0
M  V30 4414 H 412.901 -0.398896 -3.40975 0
M  V30 4415 N 415.346 1.54954 0.287554 0
M  V30 4416 C 416.623 1.65569 1.04146 0
M  V30 4417 C 417.003 0.512672 2.0478 0
M  V30 4418 O 416.351 -0.489038 2.23205 0
M  V30 4419 C 416.561 3.04163 1.71131 0
M  V30 4420 C 417.909 3.61429 2.22832 0
M  V30 4421 O 418.933 3.06702 1.81141 0
M  V30 4422 O 417.792 4.57281 2.9926 0
M  V30 4423 H 414.886 0.671881 0.482188 0
M  V30 4424 H 417.432 1.67297 0.28457 0
M  V30 4425 H 416.204 3.78796 0.981303 0
M  V30 4426 H 415.827 3.06271 2.53543 0
M  V30 4427 N 416.824 -0.551391 1.4764 0
M  V30 4428 C 417.754 -1.66757 1.63445 0
M  V30 4429 C 418.735 -1.63077 0.483742 0
M  V30 4430 O 419.92 -1.80607 0.71377 0
M  V30 4431 C 417.05 -3.05387 1.65396 0
M  V30 4432 C 416.004 -3.23918 2.79752 0
M  V30 4433 C 415.33 -4.63393 2.66779 0
M  V30 4434 C 416.63 -3.08735 4.21284 0
M  V30 4435 H 418.324 -1.53786 2.56886 0
M  V30 4436 H 415.87 -0.738415 1.23626 0
M  V30 4437 H 417.823 -3.83325 1.75043 0
M  V30 4438 H 416.547 -3.19332 0.685195 0
M  V30 4439 H 415.206 -2.48391 2.69625 0
M  V30 4440 H 414.854 -4.74144 1.67918 0
M  V30 4441 H 414.554 -4.7674 3.43501 0
M  V30 4442 H 416.078 -5.43458 2.78364 0
M  V30 4443 H 417.492 -3.76484 4.32357 0
M  V30 4444 H 415.889 -3.33588 4.98838 0
M  V30 4445 H 416.959 -2.0541 4.39243 0
M  V30 4446 N 418.302 -1.35869 -0.798587 0
M  V30 4447 C 419.53 -1.32722 -1.58722 0
M  V30 4448 C 419.945 0.0935631 -1.88568 0
M  V30 4449 O 419.302 1.04784 -1.49421 0
M  V30 4450 C 419.353 -2.13974 -2.91371 0
M  V30 4451 O 419.074 -3.50514 -2.62815 0
M  V30 4452 C 420.575 -2.18504 -3.85708 0
M  V30 4453 H 417.795 -0.45562 -0.492596 0
M  V30 4454 H 420.339 -1.78837 -0.991843 0
M  V30 4455 H 418.494 -1.71438 -3.47402 0
M  V30 4456 H 418.908 -3.92806 -3.47568 0
M  V30 4457 H 420.382 -2.79732 -4.75872 0
M  V30 4458 H 420.859 -1.18597 -4.22885 0
M  V30 4459 H 421.465 -2.61236 -3.35612 0
M  V30 4460 N 419.78 1.02168 -1.19998 0
M  V30 4461 C 421.027 1.75685 -1.00702 0
M  V30 4462 C 421.355 1.88947 0.461426 0
M  V30 4463 O 420.61 1.40832 1.35885 0
M  V30 4464 C 420.909 3.18081 -1.62969 0
M  V30 4465 C 420.575 3.24809 -3.12746 0
M  V30 4466 C 419.237 3.26352 -3.53621 0
M  V30 4467 C 421.589 3.23379 -4.08749 0
M  V30 4468 C 418.917 3.2413 -4.89036 0
M  V30 4469 C 421.269 3.22698 -5.44104 0
M  V30 4470 C 419.933 3.22542 -5.84399 0
M  V30 4471 H 419.203 0.642877 -0.368496 0
M  V30 4472 H 421.85 1.19865 -1.49348 0
M  V30 4473 H 420.155 3.77027 -1.06573 0
M  V30 4474 H 421.852 3.73648 -1.45561 0
M  V30 4475 H 418.442 3.2434 -2.80181 0
M  V30 4476 H 422.626 3.21361 -3.78207 0
M  V30 4477 H 417.882 3.22338 -5.19527 0
M  V30 4478 H 422.056 3.20543 -6.18244 0
M  V30 4479 H 419.683 3.20575 -6.89301 0
M  V30 4480 N 421.258 1.00505 1.21394 0
M  V30 4481 C 422.535 0.603277 1.86064 0
M  V30 4482 C 422.915 -0.919095 1.90042 0
M  V30 4483 O 422.263 -1.80607 1.39977 0
M  V30 4484 C 422.473 1.23772 3.26315 0
M  V30 4485 C 423.821 1.34586 4.02705 0
M  V30 4486 O 424.845 1.19304 3.35626 0
M  V30 4487 O 423.704 1.59169 5.22807 0
M  V30 4488 H 420.798 0.206634 0.800769 0
M  V30 4489 H 423.344 1.1017 1.29076 0
M  V30 4490 H 422.116 2.27848 3.18121 0
M  V30 4491 H 421.739 0.725648 3.90922 0
M  V30 4492 N 422.737 -1.36956 0.779787 0
M  V30 4493 C 423.7 -2.2851 0.177662 0
M  V30 4494 C 424.7 -1.48393 -0.619377 0
M  V30 4495 O 425.89 -1.68505 -0.441785 0
M  V30 4496 C 423.022 -3.32428 -0.755279 0
M  V30 4497 H 424.215 -2.83269 0.984823 0
M  V30 4498 H 421.768 -1.46358 0.548544 0
M  V30 4499 H 422.503 -2.82808 -1.58714 0
M  V30 4500 H 422.288 -3.91659 -0.185817 0
M  V30 4501 H 423.778 -4.00824 -1.17174 0
M  V30 4502 N 424.215 -0.530993 -1.48385 0
M  V30 4503 C 425.464 0.00474348 -2.01699 0
M  V30 4504 C 425.777 1.35227 -1.41325 0
M  V30 4505 O 426.983 1.97643 -1.86144 0
M  V30 4506 C 425.439 0.0588473 -3.59852 0
M  V30 4507 C 425.047 -1.28385 -4.2921 0
M  V30 4508 C 426.791 0.543358 -4.21008 0
M  V30 4509 C 424.698 -1.19028 -5.79298 0
M  V30 4510 H 423.628 0.00554317 -0.75398 0
M  V30 4511 H 426.279 -0.674924 -1.70637 0
M  V30 4512 H 424.661 0.803612 -3.8776 0
M  V30 4513 H 425.835 -2.04426 -4.12973 0
M  V30 4514 H 424.15 -1.70418 -3.7993 0
M  V30 4515 H 426.747 0.631351 -5.3096 0
M  V30 4516 H 427.09 1.54937 -3.86394 0
M  V30 4517 H 427.623 -0.145754 -3.97533 0
M  V30 4518 H 424.362 -2.17147 -6.18488 0
M  V30 4519 H 423.882 -0.471246 -5.97946 0
M  V30 4520 H 425.561 -0.881365 -6.40969 0
M  V30 4521 N 425.693 1.55336 -0.266172 0
M  V30 4522 C 426.921 2.03801 0.356756 0
M  V30 4523 C 427.336 1.14485 1.50129 0
M  V30 4524 O 426.693 0.163121 1.8177 0
M  V30 4525 C 426.744 3.51455 0.846281 0
M  V30 4526 O 426.465 4.37371 -0.252663 0
M  V30 4527 C 427.966 4.15767 1.53794 0
M  V30 4528 H 425.186 0.665906 0.0825218 0
M  V30 4529 H 427.73 2.00636 -0.39566 0
M  V30 4530 H 425.885 3.55092 1.54881 0
M  V30 4531 H 426.299 5.24358 0.122173 0
M  V30 4532 H 427.773 5.20714 1.83198 0
M  V30 4533 H 428.25 3.63404 2.46646 0
M  V30 4534 H 428.856 4.16107 0.879488 0
M  V30 4535 N 427.171 -0.0066808 1.57599 0
M  V30 4536 C 428.399 -0.704087 1.94551 0
M  V30 4537 C 428.814 -1.67677 0.867746 0
M  V30 4538 O 428.171 -1.8185 -0.153925 0
M  V30 4539 C 428.222 -1.44177 3.31505 0
M  V30 4540 O 427.943 -0.508097 4.35144 0
M  V30 4541 C 429.444 -2.23429 3.82876 0
M  V30 4542 H 426.664 -0.196523 0.641576 0
M  V30 4543 H 429.208 0.042453 2.04456 0
M  V30 4544 H 427.363 -2.13999 3.22929 0
M  V30 4545 H 427.777 -1.02782 5.14331 0
M  V30 4546 H 429.251 -2.70552 4.8115 0
M  V30 4547 H 429.728 -3.05818 3.15233 0
M  V30 4548 H 430.334 -1.58636 3.94607 0
M  V30 4549 N 428.649 -1.55105 -0.279332 0
M  V30 4550 C 429.896 -1.75412 -1.01177 0
M  V30 4551 C 430.224 -0.551728 -1.86511 0
M  V30 4552 O 429.479 0.465919 -1.90073 0
M  V30 4553 C 429.778 -3.0086 -1.92919 0
M  V30 4554 C 429.444 -4.33689 -1.23387 0
M  V30 4555 C 428.106 -4.69792 -1.04159 0
M  V30 4556 C 430.458 -5.15941 -0.738562 0
M  V30 4557 C 427.786 -5.85707 -0.341166 0
M  V30 4558 C 430.138 -6.32579 -0.0517636 0
M  V30 4559 C 428.802 -6.67326 0.152292 0
M  V30 4560 H 428.072 -0.641879 -0.370233 0
M  V30 4561 H 430.719 -1.89373 -0.284627 0
M  V30 4562 H 429.024 -2.81773 -2.72234 0
M  V30 4563 H 430.721 -3.13768 -2.49701 0
M  V30 4564 H 427.311 -4.05309 -1.39364 0
M  V30 4565 H 431.495 -4.8853 -0.874764 0
M  V30 4566 H 426.751 -6.11157 -0.172287 0
M  V30 4567 H 430.925 -6.9557 0.339828 0
M  V30 4568 H 428.552 -7.56998 0.697014 0
M  V30 4569 N 430.127 0.543554 -1.4793 0
M  V30 4570 C 431.543 0.870806 -1.3375 0
M  V30 4571 C 431.743 1.9864 -0.338261 0
M  V30 4572 O 430.799 2.51305 0.245371 0
M  V30 4573 C 432.112 1.25114 -2.73435 0
M  V30 4574 C 433.66 1.3618 -2.81823 0
M  V30 4575 C 434.135 1.77563 -4.22179 0
M  V30 4576 N 435.626 1.8469 -4.24787 0
M  V30 4577 C 436.361 2.18067 -5.30315 0
M  V30 4578 N 435.857 2.49963 -6.46135 0
M  V30 4579 N 437.65 2.18958 -5.17701 0
M  V30 4580 H 429.801 -0.19275 -2.11524 0
M  V30 4581 H 432.064 -0.0235777 -0.947707 0
M  V30 4582 H 431.77 0.50514 -3.48053 0
M  V30 4583 H 431.644 2.20431 -3.06088 0
M  V30 4584 H 434.031 2.09859 -2.07468 0
M  V30 4585 H 434.112 0.390169 -2.52807 0
M  V30 4586 H 433.756 1.04449 -4.97044 0
M  V30 4587 H 433.686 2.75753 -4.48629 0
M  V30 4588 H 436.177 1.62372 -3.41239 0
M  V30 4589 H 436.49 2.74497 -7.22406 0
M  V30 4590 H 434.835 2.47513 -6.49432 0
M  V30 4591 H 438.026 1.93488 -4.2624 0
M  V30 4592 H 438.199 2.44639 -6.00047 0
M  V30 4593 N 431.605 1.3629 0.791371 0
M  V30 4594 C 433.021 1.16661 1.08914 0
M  V30 4595 C 433.221 -0.0106266 2.01497 0
M  V30 4596 O 432.277 -0.676596 2.43266 0
M  V30 4597 C 433.59 2.47656 1.70549 0
M  V30 4598 C 435.138 2.54002 1.82899 0
M  V30 4599 C 435.613 3.85078 2.47949 0
M  V30 4600 N 437.104 3.86413 2.5542 0
M  V30 4601 C 437.839 4.84572 3.06557 0
M  V30 4602 N 437.335 5.93124 3.58016 0
M  V30 4603 N 439.128 4.71994 3.05251 0
M  V30 4604 H 431.279 2.11668 0.176238 0
M  V30 4605 H 433.542 0.937486 0.140796 0
M  V30 4606 H 433.248 3.34059 1.09989 0
M  V30 4607 H 433.122 2.63319 2.70079 0
M  V30 4608 H 435.509 1.68018 2.42598 0
M  V30 4609 H 435.59 2.42239 0.821808 0
M  V30 4610 H 435.234 4.71467 1.88895 0
M  V30 4611 H 435.164 3.94135 3.49235 0
M  V30 4612 H 437.655 3.07988 2.18979 0
M  V30 4613 H 437.968 6.63999 3.95381 0
M  V30 4614 H 436.313 5.96796 3.56173 0
M  V30 4615 H 439.504 3.86321 2.64336 0
M  V30 4616 H 439.677 5.48653 3.44796 0
M  V30 4617 N 433.083 -1.0153 1.20538 0
M  V30 4618 C 433.993 -2.13557 0.971113 0
M  V30 4619 C 435.009 -1.73845 -0.0734366 0
M  V30 4620 O 436.185 -2.01075 0.114299 0
M  V30 4621 C 433.25 -3.42661 0.527639 0
M  V30 4622 C 432.311 -3.96608 1.64319 0
M  V30 4623 C 431.544 -5.1955 1.22078 0
M  V30 4624 O 431.767 -5.70329 0.0900198 0
M  V30 4625 O 430.701 -5.66681 2.02871 0
M  V30 4626 H 434.527 -2.3619 1.90913 0
M  V30 4627 H 432.112 -1.11946 0.989362 0
M  V30 4628 H 433.994 -4.20404 0.289621 0
M  V30 4629 H 432.669 -3.21441 -0.381779 0
M  V30 4630 H 431.576 -3.20139 1.93551 0
M  V30 4631 H 432.909 -4.22219 2.52966 0
M  V30 4632 N 434.561 -1.01147 -1.20859 0
M  V30 4633 C 435.807 -0.698899 -1.90377 0
M  V30 4634 C 436.14 0.76904 -1.78324 0
M  V30 4635 O 435.415 1.55817 -1.16409 0
M  V30 4636 C 435.698 -1.12878 -3.41951 0
M  V30 4637 C 435.551 -2.65665 -3.62963 0
M  V30 4638 C 436.87 -0.696114 -4.3456 0
M  V30 4639 H 433.989 -0.255372 -0.691342 0
M  V30 4640 H 436.631 -1.25831 -1.42361 0
M  V30 4641 H 434.781 -0.652827 -3.82976 0
M  V30 4642 H 436.453 -3.21074 -3.31224 0
M  V30 4643 H 434.696 -3.06878 -3.06608 0
M  V30 4644 H 435.367 -2.90797 -4.69192 0
M  V30 4645 H 437.843 -1.10521 -4.01154 0
M  V30 4646 H 436.719 -1.025 -5.39245 0
M  V30 4647 H 436.98 0.402465 -4.40264 0
M  V30 4648 N 436.039 1.36541 -0.78704 0
M  V30 4649 C 436.972 2.27831 -0.129765 0
M  V30 4650 C 437.95 1.47105 0.692732 0
M  V30 4651 O 439.134 1.7641 0.664222 0
M  V30 4652 C 436.261 3.28577 0.821883 0
M  V30 4653 C 435.307 4.26422 0.0814771 0
M  V30 4654 S 436.14 5.20919 -1.24112 0
M  V30 4655 C 437.296 6.25212 -0.293409 0
M  V30 4656 H 437.529 2.83229 -0.903811 0
M  V30 4657 H 435.062 1.43046 -0.581144 0
M  V30 4658 H 437.02 3.87123 1.3655 0
M  V30 4659 H 435.681 2.72096 1.56916 0
M  V30 4660 H 434.874 4.97554 0.803485 0
M  V30 4661 H 434.476 3.71944 -0.391589 0
M  V30 4662 H 436.768 6.75435 0.528622 0
M  V30 4663 H 437.711 7.01378 -0.973344 0
M  V30 4664 H 438.119 5.64407 0.102196 0
M  V30 4665 N 437.518 0.538854 1.48102 0
M  V30 4666 C 438.765 0.0080018 2.02498 0
M  V30 4667 C 439.093 -1.33437 1.41509 0
M  V30 4668 O 438.348 -1.87709 0.553507 0
M  V30 4669 C 438.647 -0.153808 3.57069 0
M  V30 4670 C 438.313 1.11533 4.36888 0
M  V30 4671 C 436.975 1.46314 4.58417 0
M  V30 4672 C 439.327 1.95718 4.83057 0
M  V30 4673 C 436.655 2.6516 5.23361 0
M  V30 4674 C 439.007 3.13751 5.49312 0
M  V30 4675 C 437.671 3.48866 5.69077 0
M  V30 4676 H 436.941 0.00292807 0.740994 0
M  V30 4677 H 439.588 0.706668 1.77984 0
M  V30 4678 H 437.893 -0.935309 3.80472 0
M  V30 4679 H 439.59 -0.579607 3.96789 0
M  V30 4680 H 436.18 0.834484 4.20398 0
M  V30 4681 H 440.364 1.70158 4.66219 0
M  V30 4682 H 435.62 2.92558 5.36861 0
M  V30 4683 H 439.794 3.79282 5.84053 0
M  V30 4684 H 437.421 4.41054 6.19173 0
M  V30 4685 N 438.996 -1.55193 0.274407 0
M  V30 4686 C 440.243 -1.99581 -0.342579 0
M  V30 4687 C 440.571 -1.1628 -1.55914 0
M  V30 4688 O 439.826 -0.22029 -1.94456 0
M  V30 4689 C 440.125 -3.49019 -0.769458 0
M  V30 4690 C 439.791 -4.49598 0.342389 0
M  V30 4691 C 438.453 -4.76821 0.647686 0
M  V30 4692 C 440.805 -5.0964 1.09163 0
M  V30 4693 C 438.133 -5.61354 1.70581 0
M  V30 4694 C 440.485 -5.95323 2.13948 0
M  V30 4695 C 439.149 -6.20867 2.45113 0
M  V30 4696 H 438.419 -0.730319 -0.125358 0
M  V30 4697 H 441.066 -1.87529 0.387971 0
M  V30 4698 H 439.371 -3.58544 -1.57967 0
M  V30 4699 H 441.068 -3.8077 -1.25757 0
M  V30 4700 H 437.658 -4.28496 0.094318 0
M  V30 4701 H 441.842 -4.88632 0.869024 0
M  V30 4702 H 437.098 -5.79392 1.9523 0
M  V30 4703 H 441.272 -6.40881 2.72478 0
M  V30 4704 H 438.899 -6.86162 3.27239 0
M  V30 4705 N 440.474 -0.00167713 -1.576 0
M  V30 4706 C 441.421 0.989195 -2.08527 0
M  V30 4707 C 442.391 1.34031 -0.981065 0
M  V30 4708 O 443.576 1.43839 -1.2536 0
M  V30 4709 C 440.716 2.27537 -2.59463 0
M  V30 4710 C 439.829 1.98314 -3.83791 0
M  V30 4711 C 438.964 3.21025 -4.23222 0
M  V30 4712 C 438.003 2.87495 -5.40382 0
M  V30 4713 N 437.14 4.02749 -5.75098 0
M  V30 4714 H 441.98 0.547973 -2.92919 0
M  V30 4715 H 439.517 0.258917 -1.44803 0
M  V30 4716 H 441.475 3.02729 -2.87073 0
M  V30 4717 H 440.105 2.69325 -1.77943 0
M  V30 4718 H 439.157 1.13482 -3.63078 0
M  V30 4719 H 440.469 1.69601 -4.69081 0
M  V30 4720 H 439.623 4.04561 -4.52123 0
M  V30 4721 H 438.362 3.52877 -3.36644 0
M  V30 4722 H 437.367 2.02367 -5.11202 0
M  V30 4723 H 438.592 2.56889 -6.28637 0
M  V30 4724 H 436.538 4.34494 -4.91478 0
M  V30 4725 H 436.455 3.77566 -6.54966 0
M  V30 4726 H 437.723 4.87068 -6.08592 0
M  V30 4727 N 441.952 1.55251 0.271103 0
M  V30 4728 C 443.2 1.75599 1.00047 0
M  V30 4729 C 443.521 0.561188 1.8675 0
M  V30 4730 O 442.791 -0.423846 1.9126 0
M  V30 4731 H 441.371 0.647562 0.372387 0
M  V30 4732 H 444.033 1.92656 0.294876 0
M  V30 4733 H 443.129 2.65766 1.6363 0
M  V30 4734 N 443.43 -0.535701 1.48216 0
M  V30 4735 C 444.846 -0.863701 1.3421 0
M  V30 4736 C 445.046 -1.98458 0.34879 0
M  V30 4737 O 444.102 -2.51432 -0.23204 0
M  V30 4738 C 445.415 -1.23662 2.74095 0
M  V30 4739 C 446.963 -1.34683 2.82541 0
M  V30 4740 C 447.438 -1.75322 4.23115 0
M  V30 4741 N 448.929 -1.82434 4.2576 0
M  V30 4742 C 449.664 -2.15252 5.31464 0
M  V30 4743 N 449.16 -2.46533 6.47452 0
M  V30 4744 N 450.953 -2.16209 5.18855 0
M  V30 4745 H 443.104 0.203965 2.11418 0
M  V30 4746 H 445.367 0.0286033 0.947568 0
M  V30 4747 H 445.073 -0.486674 3.48316 0
M  V30 4748 H 444.947 -2.18805 3.07253 0
M  V30 4749 H 447.334 -2.08756 2.08579 0
M  V30 4750 H 447.415 -0.376756 2.5301 0
M  V30 4751 H 447.059 -1.01812 4.97591 0
M  V30 4752 H 446.989 -2.7337 4.50085 0
M  V30 4753 H 449.48 -1.6056 3.42095 0
M  V30 4754 H 449.793 -2.70662 7.23852 0
M  V30 4755 H 448.138 -2.44065 6.50736 0
M  V30 4756 H 451.329 -1.91224 4.2726 0
M  V30 4757 H 451.502 -2.41453 6.01335 0
M  V30 4758 N 444.908 -1.36708 -0.784132 0
M  V30 4759 C 445.858 -1.2799 -1.88686 0
M  V30 4760 C 446.842 -0.170282 -1.59996 0
M  V30 4761 O 448.034 -0.403571 -1.72338 0
M  V30 4762 C 445.163 -1.07674 -3.25977 0
M  V30 4763 C 444.249 -2.23127 -3.60659 0
M  V30 4764 N 444.64 -3.48467 -3.66612 0
M  V30 4765 C 442.938 -2.15009 -3.90752 0
M  V30 4766 C 443.639 -4.24525 -3.97685 0
M  V30 4767 N 442.615 -3.53524 -4.12943 0
M  V30 4768 H 446.417 -2.22927 -1.91522 0
M  V30 4769 H 443.931 -1.29503 -0.979933 0
M  V30 4770 H 445.928 -0.995151 -4.04849 0
M  V30 4771 H 444.588 -0.13643 -3.24413 0
M  V30 4772 H 445.599 -3.82534 -3.49125 0
M  V30 4773 H 442.276 -1.28963 -3.97083 0
M  V30 4774 H 443.666 -5.32944 -4.0917 0
M  V30 4775 N 446.386 1.0089 -1.21074 0
M  V30 4776 C 447.316 2.1145 -0.990523 0
M  V30 4777 C 448.297 1.69897 0.0831699 0
M  V30 4778 O 449.482 1.94052 -0.0758853 0
M  V30 4779 C 446.612 3.42914 -0.550177 0
M  V30 4780 C 445.566 3.98244 -1.56799 0
M  V30 4781 C 444.892 5.25568 -0.984013 0
M  V30 4782 C 446.192 4.30752 -2.95381 0
M  V30 4783 H 447.886 2.3013 -1.91521 0
M  V30 4784 H 445.432 1.10592 -0.92225 0
M  V30 4785 H 447.385 4.19653 -0.383305 0
M  V30 4786 H 446.109 3.24014 0.41015 0
M  V30 4787 H 444.768 3.23621 -1.72236 0
M  V30 4788 H 444.416 5.02998 -0.0155216 0
M  V30 4789 H 444.116 5.63551 -1.66384 0
M  V30 4790 H 445.64 6.04955 -0.828378 0
M  V30 4791 H 447.054 4.98349 -2.8341 0
M  V30 4792 H 445.451 4.79869 -3.60341 0
M  V30 4793 H 446.521 3.39192 -3.46521 0
M  V30 4794 N 447.864 1.01787 1.20321 0
M  V30 4795 C 449.11 0.718699 1.90279 0
M  V30 4796 C 449.465 -0.743669 1.77447 0
M  V30 4797 O 448.758 -1.53345 1.14874 0
M  V30 4798 C 448.952 1.09076 3.40349 0
M  V30 4799 C 448.781 2.58775 3.67784 0
M  V30 4800 C 447.551 3.25578 3.86428 0
M  V30 4801 C 449.749 3.56966 3.70243 0
M  V30 4802 N 447.731 4.64495 4.01395 0
M  V30 4803 C 449.102 4.8145 3.90649 0
M  V30 4804 C 451.157 3.5092 3.53213 0
M  V30 4805 C 449.86 6.00619 3.95789 0
M  V30 4806 C 451.886 4.69493 3.59625 0
M  V30 4807 C 451.248 5.92786 3.80505 0
M  V30 4808 H 447.347 0.31468 0.715891 0
M  V30 4809 H 449.931 1.30295 1.44677 0
M  V30 4810 H 448.102 0.534839 3.847 0
M  V30 4811 H 449.834 0.744997 3.97784 0
M  V30 4812 H 446.589 2.76003 3.84862 0
M  V30 4813 H 447.013 5.36624 4.12752 0
M  V30 4814 H 451.655 2.56593 3.36035 0
M  V30 4815 H 449.373 6.95326 4.11762 0
M  V30 4816 H 452.959 4.66432 3.47754 0
M  V30 4817 H 451.839 6.83003 3.85327 0
M  V30 4818 N 449.342 -1.36122 0.79427 0
M  V30 4819 C 450.758 -1.5232 0.476525 0
M  V30 4820 C 450.958 -1.74685 -1.00436 0
M  V30 4821 O 450.014 -1.78115 -1.78973 0
M  V30 4822 C 451.327 -2.70607 1.31119 0
M  V30 4823 C 452.875 -2.8448 1.30537 0
M  V30 4824 C 453.35 -4.05778 2.12387 0
M  V30 4825 N 454.841 -4.12933 2.09859 0
M  V30 4826 C 455.576 -5.05876 2.69957 0
M  V30 4827 N 455.072 -6.04232 3.38934 0
M  V30 4828 N 456.865 -4.98528 2.59665 0
M  V30 4829 H 449.016 -1.1986 1.75349 0
M  V30 4830 H 451.279 -0.585418 0.745647 0
M  V30 4831 H 450.985 -2.60619 2.36158 0
M  V30 4832 H 450.859 -3.64888 0.955843 0
M  V30 4833 H 453.246 -2.93927 0.262876 0
M  V30 4834 H 453.327 -1.91093 1.70051 0
M  V30 4835 H 452.971 -3.97092 3.1667 0
M  V30 4836 H 452.901 -4.98323 1.70242 0
M  V30 4837 H 455.392 -3.42515 1.59662 0
M  V30 4838 H 455.705 -6.71724 3.82109 0
M  V30 4839 H 454.05 -6.04443 3.43036 0
M  V30 4840 H 457.241 -4.20641 2.05375 0
M  V30 4841 H 457.414 -5.70773 3.06793 0
M  V30 4842 N 450.82 -0.546701 -1.47814 0
M  V30 4843 C 452.069 -0.0166497 -2.01693 0
M  V30 4844 C 452.382 1.33721 -1.42752 0
M  V30 4845 O 453.588 1.95658 -1.8823 0
M  V30 4846 C 452.044 0.0206769 -3.59894 0
M  V30 4847 C 451.652 -1.3293 -4.27824 0
M  V30 4848 C 453.396 0.498674 -4.21561 0
M  V30 4849 C 451.303 -1.25165 -5.78003 0
M  V30 4850 H 450.233 -0.0024541 -0.753996 0
M  V30 4851 H 452.884 -0.692984 -1.69912 0
M  V30 4852 H 451.266 0.76244 -3.88591 0
M  V30 4853 H 452.44 -2.08795 -4.10781 0
M  V30 4854 H 450.755 -1.74438 -3.78101 0
M  V30 4855 H 453.352 0.575 -5.31599 0
M  V30 4856 H 453.695 1.5083 -3.88016 0
M  V30 4857 H 454.228 -0.18791 -3.97356 0
M  V30 4858 H 450.967 -2.23695 -6.1615 0
M  V30 4859 H 450.487 -0.53464 -5.97412 0
M  V30 4860 H 452.166 -0.949299 -6.39998 0
M  V30 4861 N 452.299 1.55045 -0.282633 0
M  V30 4862 C 453.529 2.03872 0.334635 0
M  V30 4863 C 453.937 1.16018 1.49454 0
M  V30 4864 O 453.28 0.174449 1.8287 0
M  V30 4865 C 453.342 3.48791 0.870905 0
M  V30 4866 C 453.006 4.56715 -0.161338 0
M  V30 4867 C 454.003 5.10513 -0.983466 0
M  V30 4868 C 451.688 5.01417 -0.297745 0
M  V30 4869 C 453.682 6.07538 -1.92811 0
M  V30 4870 C 451.369 5.98265 -1.24586 0
M  V30 4871 C 452.367 6.51208 -2.05954 0
M  V30 4872 O 452.055 7.46162 -2.99162 0
M  V30 4873 H 451.787 0.671324 0.0793742 0
M  V30 4874 H 454.341 2.01169 -0.41473 0
M  V30 4875 H 452.571 3.48758 1.67047 0
M  V30 4876 H 454.26 3.80916 1.40207 0
M  V30 4877 H 455.026 4.76785 -0.888856 0
M  V30 4878 H 450.905 4.59849 0.325604 0
M  V30 4879 H 454.449 6.48787 -2.56363 0
M  V30 4880 H 450.346 6.31412 -1.34126 0
M  V30 4881 H 451.114 7.63903 -2.93929 0
M  V30 4882 N 453.777 0.010035 1.57597 0
M  V30 4883 C 455.007 -0.682422 1.95004 0
M  V30 4884 C 455.415 -1.67278 0.884014 0
M  V30 4885 O 454.758 -1.83129 -0.144672 0
M  V30 4886 C 454.82 -1.46141 3.28456 0
M  V30 4887 C 454.484 -0.631523 4.52615 0
M  V30 4888 C 455.481 0.0850905 5.1983 0
M  V30 4889 C 453.166 -0.574539 4.99003 0
M  V30 4890 C 455.16 0.847566 6.3174 0
M  V30 4891 C 452.847 0.191655 6.10799 0
M  V30 4892 C 453.845 0.901432 6.77025 0
M  V30 4893 O 453.533 1.65511 7.86677 0
M  V30 4894 H 453.265 -0.194361 0.647456 0
M  V30 4895 H 455.819 0.060312 2.05311 0
M  V30 4896 H 454.049 -2.24885 3.14585 0
M  V30 4897 H 455.738 -2.04016 3.50902 0
M  V30 4898 H 456.504 0.0502812 4.84974 0
M  V30 4899 H 452.383 -1.11654 4.47274 0
M  V30 4900 H 455.927 1.4021 6.83364 0
M  V30 4901 H 451.824 0.228249 6.45096 0
M  V30 4902 H 452.592 1.57287 8.03245 0
M  V30 4903 N 455.255 -1.55392 -0.262866 0
M  V30 4904 C 456.532 -1.67204 -1.01499 0
M  V30 4905 C 456.912 -0.545186 -2.03939 0
M  V30 4906 O 456.26 0.453467 -2.23955 0
M  V30 4907 C 456.47 -3.06847 -1.6627 0
M  V30 4908 C 457.818 -3.64928 -2.17054 0
M  V30 4909 O 458.842 -3.09545 -1.76239 0
M  V30 4910 O 457.701 -4.61984 -2.91947 0
M  V30 4911 H 454.795 -0.679467 -0.471438 0
M  V30 4912 H 457.341 -1.67729 -0.257918 0
M  V30 4913 H 456.113 -3.80309 -0.920915 0
M  V30 4914 H 455.736 -3.10266 -2.48638 0
M  V30 4915 N 456.733 0.527833 -1.48498 0
M  V30 4916 C 457.982 1.28003 -1.55878 0
M  V30 4917 C 458.295 1.9414 -0.238577 0
M  V30 4918 O 459.501 2.7083 -0.190643 0
M  V30 4919 C 457.957 2.32272 -2.74914 0
M  V30 4920 C 457.565 1.72196 -4.13585 0
M  V30 4921 C 459.309 3.08488 -2.91608 0
M  V30 4922 C 457.216 2.74417 -5.23879 0
M  V30 4923 H 456.146 0.481413 -0.580308 0
M  V30 4924 H 458.797 0.557195 -1.74836 0
M  V30 4925 H 457.179 3.07601 -2.49395 0
M  V30 4926 H 458.353 1.03041 -4.49132 0
M  V30 4927 H 456.668 1.08464 -4.02025 0
M  V30 4928 H 459.265 3.84879 -3.71177 0
M  V30 4929 H 459.608 3.64481 -2.01145 0
M  V30 4930 H 460.141 2.40274 -3.17038 0
M  V30 4931 H 456.88 2.23242 -6.16314 0
M  V30 4932 H 456.4 3.41893 -4.92818 0
M  V30 4933 H 458.079 3.37362 -5.52083 0
M  V30 4934 N 458.211 1.37122 0.776871 0
M  V30 4935 C 459.439 1.3523 1.5659 0
M  V30 4936 C 459.854 -0.0635518 1.88693 0
M  V30 4937 O 459.211 -1.02394 1.51069 0
M  V30 4938 C 459.262 2.18583 2.8793 0
M  V30 4939 O 458.983 3.5465 2.57206 0
M  V30 4940 C 460.484 2.24612 3.82183 0
M  V30 4941 H 457.704 0.4634 0.485285 0
M  V30 4942 H 460.248 1.80392 0.963266 0
M  V30 4943 H 458.403 1.76943 3.4463 0
M  V30 4944 H 458.817 3.98286 3.41275 0
M  V30 4945 H 460.291 2.87267 4.71361 0
M  V30 4946 H 460.768 1.25309 4.20944 0
M  V30 4947 H 461.374 2.66543 3.31414 0
M  V30 4948 N 459.689 -1.00246 1.21608 0
M  V30 4949 C 460.966 -1.71336 0.943568 0
M  V30 4950 C 461.346 -2.03972 -0.543943 0
M  V30 4951 O 460.694 -1.71545 -1.50946 0
M  V30 4952 C 460.904 -2.97094 1.83128 0
M  V30 4953 C 462.252 -3.70071 2.08165 0
M  V30 4954 O 463.276 -3.07081 1.80498 0
M  V30 4955 O 462.135 -4.83376 2.54971 0
M  V30 4956 H 459.229 -0.747386 0.354039 0
M  V30 4957 H 461.775 -1.05967 1.32549 0
M  V30 4958 H 460.547 -2.69407 2.83788 0
M  V30 4959 H 460.17 -3.70204 1.45034 0
M  V30 4960 N 461.167 -1.02423 -1.1978 0
M  V30 4961 C 462.413 -0.719051 -1.89625 0
M  V30 4962 C 462.746 0.750083 -1.7913 0
M  V30 4963 O 462.021 1.54574 -1.18056 0
M  V30 4964 C 462.304 -1.16499 -3.40735 0
M  V30 4965 C 462.157 -2.695 -3.60125 0
M  V30 4966 C 463.476 -0.742166 -4.33797 0
M  V30 4967 H 460.595 -0.26269 -0.688595 0
M  V30 4968 H 463.237 -1.27333 -1.41018 0
M  V30 4969 H 461.387 -0.69341 -3.82262 0
M  V30 4970 H 463.059 -3.24569 -3.278 0
M  V30 4971 H 461.302 -3.10113 -3.03336 0
M  V30 4972 H 461.973 -2.95757 -4.66081 0
M  V30 4973 H 464.449 -1.1477 -3.99959 0
M  V30 4974 H 463.325 -1.08213 -5.38127 0
M  V30 4975 H 463.586 0.355747 -4.40666 0
M  V30 4976 N 462.645 1.35699 -0.801477 0
M  V30 4977 C 463.555 2.33661 -0.209691 0
M  V30 4978 C 464.571 1.6162 0.644591 0
M  V30 4979 O 465.747 1.93529 0.557545 0
M  V30 4980 C 462.812 3.40816 0.636033 0
M  V30 4981 C 461.873 4.28639 -0.238147 0
M  V30 4982 C 461.106 5.30676 0.567307 0
M  V30 4983 O 461.329 5.41174 1.8024 0
M  V30 4984 O 460.263 6.01887 -0.0391336 0
M  V30 4985 H 464.089 2.8606 -1.01996 0
M  V30 4986 H 461.674 1.38379 -0.563164 0
M  V30 4987 H 463.556 4.06301 1.11791 0
M  V30 4988 H 462.231 2.90696 1.42399 0
M  V30 4989 H 461.138 3.66152 -0.767044 0
M  V30 4990 H 462.471 4.82143 -0.989915 0
M  V30 4991 N 464.123 0.554532 1.47522 0
M  V30 4992 C 465.37 0.029479 2.02479 0
M  V30 4993 C 465.698 -1.31929 1.42916 0
M  V30 4994 O 464.953 -1.87112 0.573385 0
M  V30 4995 C 465.252 -0.115927 3.57212 0
M  V30 4996 C 464.918 1.16161 4.3568 0
M  V30 4997 C 463.58 1.51168 4.56839 0
M  V30 4998 C 465.932 2.0083 4.80954 0
M  V30 4999 C 463.26 2.70696 5.2052 0
M  V30 5000 C 465.612 3.19559 5.45953 0
M  V30 5001 C 464.276 3.54882 5.65345 0
M  V30 5002 H 463.546 0.0107871 0.740921 0
M  V30 5003 H 466.193 0.725506 1.77225 0
M  V30 5004 H 464.498 -0.894902 3.81443 0
M  V30 5005 H 466.195 -0.53749 3.97381 0
M  V30 5006 H 462.785 0.879026 4.19489 0
M  V30 5007 H 466.969 1.75093 4.64388 0
M  V30 5008 H 462.225 2.98236 5.33728 0
M  V30 5009 H 466.399 3.85456 5.79997 0
M  V30 5010 H 464.026 4.47596 6.1446 0
M  V30 5011 N 465.601 -1.54893 0.290851 0
M  V30 5012 C 466.511 -2.26812 -0.59945 0
M  V30 5013 C 467.527 -1.29963 -1.15696 0
M  V30 5014 O 468.703 -1.62928 -1.18391 0
M  V30 5015 C 465.768 -2.98716 -1.75982 0
M  V30 5016 C 464.829 -4.1108 -1.2374 0
M  V30 5017 C 464.062 -4.79546 -2.34246 0
M  V30 5018 O 464.285 -4.47309 -3.53936 0
M  V30 5019 O 463.219 -5.67165 -2.01512 0
M  V30 5020 H 467.045 -3.03696 -0.0163561 0
M  V30 5021 H 464.63 -1.49289 0.0576755 0
M  V30 5022 H 466.512 -3.43851 -2.43607 0
M  V30 5023 H 465.187 -2.24737 -2.3297 0
M  V30 5024 H 464.094 -3.70367 -0.527163 0
M  V30 5025 H 465.427 -4.87007 -0.71307 0
M  V30 5026 N 467.08 -0.0183926 -1.57589 0
M  V30 5027 C 468.01 0.965596 -2.12599 0
M  V30 5028 C 468.991 1.34641 -1.0395 0
M  V30 5029 O 470.176 1.42693 -1.31729 0
M  V30 5030 C 467.306 2.25149 -2.64434 0
M  V30 5031 C 466.26 2.01175 -3.77773 0
M  V30 5032 C 465.586 3.35937 -4.15994 0
M  V30 5033 C 466.886 1.35953 -5.04296 0
M  V30 5034 H 468.58 0.507504 -2.95067 0
M  V30 5035 H 466.126 0.242671 -1.41941 0
M  V30 5036 H 468.079 2.94357 -3.01549 0
M  V30 5037 H 466.803 2.73105 -1.79112 0
M  V30 5038 H 465.462 1.34388 -3.4108 0
M  V30 5039 H 465.11 3.81631 -3.27669 0
M  V30 5040 H 464.81 3.20705 -4.92364 0
M  V30 5041 H 466.334 4.0643 -4.55683 0
M  V30 5042 H 467.748 1.95144 -5.39065 0
M  V30 5043 H 466.145 1.31152 -5.85593 0
M  V30 5044 H 467.215 0.331071 -4.83768 0
M  V30 5045 N 468.558 1.5553 0.254621 0
M  V30 5046 C 469.807 1.76202 0.981612 0
M  V30 5047 C 470.12 0.580883 1.86776 0
M  V30 5048 O 471.326 0.670448 2.63092 0
M  V30 5049 C 469.782 3.11921 1.79537 0
M  V30 5050 C 469.39 4.37659 0.956991 0
M  V30 5051 C 471.134 3.41936 2.51555 0
M  V30 5052 C 469.041 5.64411 1.76619 0
M  V30 5053 H 467.971 0.656841 0.370237 0
M  V30 5054 H 470.622 1.81969 0.236556 0
M  V30 5055 H 469.004 3.00241 2.58208 0
M  V30 5056 H 470.178 4.60307 0.21315 0
M  V30 5057 H 468.493 4.14922 0.350497 0
M  V30 5058 H 471.09 4.33849 3.12536 0
M  V30 5059 H 471.433 2.62905 3.22779 0
M  V30 5060 H 471.966 3.54797 1.799 0
M  V30 5061 H 468.705 6.46241 1.09783 0
M  V30 5062 H 468.225 5.45877 2.48551 0
M  V30 5063 H 469.904 6.03386 2.33527 0
M  V30 5064 N 470.036 -0.519951 1.48776 0
M  V30 5065 C 470.999 -1.60574 1.6355 0
M  V30 5066 C 471.999 -1.52557 0.508234 0
M  V30 5067 O 473.189 -1.56047 0.774262 0
M  V30 5068 C 470.321 -3.00211 1.61512 0
M  V30 5069 H 471.514 -1.4881 2.60376 0
M  V30 5070 H 469.067 -0.742772 1.37523 0
M  V30 5071 H 469.802 -3.17471 0.662009 0
M  V30 5072 H 469.587 -3.07439 2.43359 0
M  V30 5073 H 471.077 -3.79134 1.75064 0
M  V30 5074 N 471.514 -1.37532 -0.769588 0
M  V30 5075 C 472.739 -1.36231 -1.56384 0
M  V30 5076 C 473.164 0.0495849 -1.88035 0
M  V30 5077 O 472.522 1.02723 -1.49391 0
M  V30 5078 C 472.57 -2.20986 -2.84952 0
M  V30 5079 O 471.674 -1.61597 -3.79421 0
M  V30 5080 H 471.015 -0.465387 -0.473615 0
M  V30 5081 H 473.545 -1.81085 -0.952342 0
M  V30 5082 H 473.555 -2.34277 -3.34034 0
M  V30 5083 H 472.23 -3.23612 -2.61243 0
M  V30 5084 H 470.807 -1.57359 -3.38072 0
M  V30 5085 N 472.992 0.995999 -1.22138 0
M  V30 5086 C 474.239 1.7351 -1.04406 0
M  V30 5087 C 474.567 1.89884 0.421244 0
M  V30 5088 O 473.822 1.43683 1.32867 0
M  V30 5089 C 474.121 3.14553 -1.6968 0
M  V30 5090 C 473.787 3.18102 -3.19565 0
M  V30 5091 C 472.449 3.18778 -3.60464 0
M  V30 5092 C 474.801 3.14636 -4.15516 0
M  V30 5093 C 472.129 3.13684 -4.95801 0
M  V30 5094 C 474.481 3.11084 -5.50826 0
M  V30 5095 C 473.145 3.10074 -5.91109 0
M  V30 5096 H 472.415 0.634916 -0.38205 0
M  V30 5097 H 475.062 1.1667 -1.51857 0
M  V30 5098 H 473.367 3.74682 -1.14546 0
M  V30 5099 H 475.064 3.70477 -1.53454 0
M  V30 5100 H 471.654 3.18324 -2.86998 0
M  V30 5101 H 475.838 3.13266 -3.84939 0
M  V30 5102 H 471.094 3.11245 -5.26247 0
M  V30 5103 H 475.268 3.07357 -6.24904 0
M  V30 5104 H 472.895 3.05882 -6.95946 0
M  V30 5105 N 474.47 1.03057 1.19235 0
M  V30 5106 C 475.716 0.738841 1.89506 0
M  V30 5107 C 476.071 -0.724807 1.78225 0
M  V30 5108 O 475.364 -1.52118 1.16494 0
M  V30 5109 C 475.558 1.1268 3.39172 0
M  V30 5110 C 475.387 2.62662 3.65019 0
M  V30 5111 C 474.157 3.29658 3.82954 0
M  V30 5112 C 476.355 3.60873 3.66436 0
M  V30 5113 N 474.337 4.68726 3.96446 0
M  V30 5114 C 475.708 4.85566 3.8552 0
M  V30 5115 C 477.763 3.54647 3.49471 0
M  V30 5116 C 476.466 6.04783 3.89397 0
M  V30 5117 C 478.492 4.73281 3.54625 0
M  V30 5118 C 477.854 5.96789 3.74196 0
M  V30 5119 H 473.953 0.322256 0.712513 0
M  V30 5120 H 476.537 1.31822 1.43287 0
M  V30 5121 H 474.708 0.575612 3.84111 0
M  V30 5122 H 476.44 0.787145 3.96971 0
M  V30 5123 H 473.195 2.8007 3.81913 0
M  V30 5124 H 473.619 5.40971 4.07037 0
M  V30 5125 H 478.261 2.60143 3.33295 0
M  V30 5126 H 475.979 6.99654 4.04364 0
M  V30 5127 H 479.565 4.70094 3.42787 0
M  V30 5128 H 478.445 6.87051 3.78061 0
M  V30 5129 N 475.948 -1.35272 0.808662 0
M  V30 5130 C 477.359 -1.81179 0.450688 0
M  V30 5131 C 477.71 -1.67143 -1.02751 0
M  V30 5132 O 476.835 -1.20325 -1.79864 0
M  V30 5133 C 477.43 -3.28943 0.811275 0
M  V30 5134 C 475.989 -3.72985 0.505871 0
M  V30 5135 C 475.136 -2.57229 1.03578 0
M  V30 5136 H 478.087 -1.2322 1.00012 0
M  V30 5137 H 478.108 -3.80342 0.109588 0
M  V30 5138 H 477.62 -3.39127 1.88718 0
M  V30 5139 H 475.721 -3.68349 -0.561209 0
M  V30 5140 H 475.834 -4.67677 1.03995 0
M  V30 5141 H 474.198 -2.50548 0.458005 0
M  V30 5142 H 474.981 -2.7019 2.11784 0
M  V30 5143 N 477.426 -0.562348 -1.47226 0
M  V30 5144 C 478.651 -0.0432632 -2.07355 0
M  V30 5145 C 479.076 1.24332 -1.41149 0
M  V30 5146 O 478.434 1.74603 -0.488226 0
M  V30 5147 C 478.482 0.130288 -3.60365 0
M  V30 5148 O 477.586 1.19166 -3.94808 0
M  V30 5149 H 476.927 -0.0536334 -0.66183 0
M  V30 5150 H 479.457 -0.779495 -1.89169 0
M  V30 5151 H 479.467 0.342881 -4.06557 0
M  V30 5152 H 478.142 -0.809389 -4.07948 0
M  V30 5153 H 476.719 0.959153 -3.60354 0
M  V30 5154 N 478.904 1.54736 -0.299062 0
M  V30 5155 C 479.834 2.26409 0.571085 0
M  V30 5156 C 480.815 1.2629 1.13951 0
M  V30 5157 O 482 1.55059 1.16921 0
M  V30 5158 C 479.13 3.00338 1.74396 0
M  V30 5159 C 478.084 4.07588 1.30599 0
M  V30 5160 C 477.41 4.69222 2.56387 0
M  V30 5161 C 478.71 5.20455 0.438645 0
M  V30 5162 H 480.404 2.99388 -0.0266991 0
M  V30 5163 H 477.95 1.43993 -0.0142812 0
M  V30 5164 H 479.903 3.49198 2.35878 0
M  V30 5165 H 478.627 2.24934 2.36796 0
M  V30 5166 H 477.286 3.59575 0.71424 0
M  V30 5167 H 476.934 3.9046 3.17097 0
M  V30 5168 H 476.634 5.41653 2.27784 0
M  V30 5169 H 478.158 5.20844 3.18675 0
M  V30 5170 H 479.572 5.65221 0.959085 0
M  V30 5171 H 477.969 5.99594 0.246466 0
M  V30 5172 H 479.039 4.8192 -0.536738 0
M  V30 5173 N 480.382 0.0267497 1.57577 0
M  V30 5174 C 481.793 -0.512413 1.79531 0
M  V30 5175 C 482.144 -1.72391 0.936791 0
M  V30 5176 O 481.269 -2.15903 0.146543 0
M  V30 5177 C 481.864 -0.936378 3.25603 0
M  V30 5178 C 480.423 -1.42067 3.4856 0
M  V30 5179 C 479.57 -0.384278 2.74624 0
M  V30 5180 H 482.521 0.252797 1.56674 0
M  V30 5181 H 482.542 -1.80088 3.35184 0
M  V30 5182 H 482.054 -0.0544332 3.88062 0
M  V30 5183 H 480.155 -2.32262 2.9135 0
M  V30 5184 H 480.268 -1.42968 4.57271 0
M  V30 5185 H 478.632 -0.851855 2.40032 0
M  V30 5186 H 479.415 0.489159 3.39797 0
M  V30 5187 N 481.861 -1.55662 -0.24637 0
M  V30 5188 C 482.824 -1.89558 -1.28842 0
M  V30 5189 C 483.824 -0.772082 -1.41052 0
M  V30 5190 O 485.014 -1.04007 -1.39743 0
M  V30 5191 C 482.146 -2.12449 -2.66605 0
M  V30 5192 H 483.339 -2.82735 -1.00004 0
M  V30 5193 H 480.892 -1.48562 -0.485684 0
M  V30 5194 H 481.627 -1.21742 -3.00582 0
M  V30 5195 H 481.412 -2.94273 -2.59125 0
M  V30 5196 H 482.902 -2.39854 -3.41847 0
M  V30 5197 N 483.339 0.512053 -1.4905 0
M  V30 5198 C 484.616 1.27337 -1.48474 0
M  V30 5199 C 484.996 2.1009 -0.206301 0
M  V30 5200 O 484.344 2.136 0.811609 0
M  V30 5201 C 484.554 2.13954 -2.75726 0
M  V30 5202 C 485.902 2.73507 -3.24776 0
M  V30 5203 O 486.926 2.24229 -2.76767 0
M  V30 5204 O 485.785 3.63186 -4.08361 0
M  V30 5205 H 482.879 0.575652 -0.593762 0
M  V30 5206 H 485.425 0.527232 -1.61302 0
M  V30 5207 H 484.197 1.52709 -3.60272 0
M  V30 5208 H 483.82 2.95782 -2.65705 0
M  V30 5209 N 484.817 1.37938 0.762283 0
M  V30 5210 C 485.747 1.37176 1.88958 0
M  V30 5211 C 486.728 0.238945 1.68413 0
M  V30 5212 O 487.913 0.440726 1.89133 0
M  V30 5213 C 485.043 1.18742 3.2637 0
M  V30 5214 C 483.997 2.29136 3.61498 0
M  V30 5215 C 483.323 1.95816 4.97554 0
M  V30 5216 C 484.623 3.71363 3.6727 0
M  V30 5217 H 486.317 2.31509 1.89853 0
M  V30 5218 H 483.863 1.11438 0.912005 0
M  V30 5219 H 485.816 1.16837 4.04879 0
M  V30 5220 H 484.54 0.208683 3.25933 0
M  V30 5221 H 483.199 2.30213 2.85303 0
M  V30 5222 H 482.847 0.964475 4.93667 0
M  V30 5223 H 482.547 2.69745 5.22026 0
M  V30 5224 H 484.071 1.95513 5.78452 0
M  V30 5225 H 485.485 3.72364 4.35911 0
M  V30 5226 H 483.882 4.44425 4.03245 0
M  V30 5227 H 484.952 4.04305 2.67704 0
M  V30 5228 N 486.295 -0.989507 1.22664 0
M  V30 5229 C 487.227 -2.0824 0.957542 0
M  V30 5230 C 488.24 -1.6267 -0.0651098 0
M  V30 5231 O 489.429 -1.77695 0.169312 0
M  V30 5232 C 486.529 -3.36298 0.419145 0
M  V30 5233 C 485.702 -4.10882 1.49982 0
M  V30 5234 C 484.761 -5.17221 0.967904 0
M  V30 5235 O 483.787 -5.44613 1.65487 0
M  V30 5236 N 484.989 -5.80124 -0.20896 0
M  V30 5237 H 487.754 -2.31904 1.89843 0
M  V30 5238 H 485.315 -1.15552 1.13399 0
M  V30 5239 H 487.307 -4.04671 0.0485451 0
M  V30 5240 H 485.877 -3.09671 -0.426937 0
M  V30 5241 H 485.097 -3.37092 2.04359 0
M  V30 5242 H 486.385 -4.57482 2.22682 0
M  V30 5243 H 485.783 -5.60244 -0.783818 0
M  V30 5244 H 484.34 -6.49715 -0.520913 0
M  V30 5245 N 487.773 -1.03688 -1.18687 0
M  V30 5246 C 488.736 -0.629115 -2.20397 0
M  V30 5247 C 489.736 0.311495 -1.57754 0
M  V30 5248 O 490.926 0.0974107 -1.73927 0
M  V30 5249 C 488.058 0.0782231 -3.4081 0
M  V30 5250 H 489.251 -1.52915 -2.57987 0
M  V30 5251 H 486.804 -0.828988 -1.32505 0
M  V30 5252 H 487.539 0.992233 -3.08748 0
M  V30 5253 H 487.324 -0.597776 -3.87517 0
M  V30 5254 H 488.814 0.350156 -4.16129 0
M  V30 5255 N 489.251 1.34841 -0.815825 0
M  V30 5256 C 490.214 2.27959 -0.238185 0
M  V30 5257 C 491.214 1.49983 0.579816 0
M  V30 5258 O 492.404 1.69617 0.396953 0
M  V30 5259 C 489.536 3.34314 0.666876 0
M  V30 5260 H 490.729 2.80558 -1.05958 0
M  V30 5261 H 488.282 1.44852 -0.587156 0
M  V30 5262 H 489.017 2.86916 1.5116 0
M  V30 5263 H 488.802 3.92014 0.0819106 0
M  V30 5264 H 490.292 4.0379 1.06506 0
M  V30 5265 N 490.729 0.570148 1.46925 0
M  V30 5266 C 491.959 0.0561151 2.06524 0
M  V30 5267 C 492.367 -1.24874 1.42137 0
M  V30 5268 O 491.71 -1.76292 0.516417 0
M  V30 5269 C 491.772 -0.197035 3.5896 0
M  V30 5270 C 491.436 1.02033 4.45464 0
M  V30 5271 C 492.433 1.92921 4.82781 0
M  V30 5272 C 490.118 1.23864 4.86788 0
M  V30 5273 C 492.112 3.03999 5.60235 0
M  V30 5274 C 489.799 2.35249 5.64004 0
M  V30 5275 C 490.797 3.25146 6.0064 0
M  V30 5276 O 490.485 4.34598 6.76299 0
M  V30 5277 H 490.217 0.0487409 0.674241 0
M  V30 5278 H 492.771 0.786915 1.89728 0
M  V30 5279 H 491.001 -0.982299 3.74016 0
M  V30 5280 H 492.69 -0.658032 4.00531 0
M  V30 5281 H 493.456 1.77265 4.51444 0
M  V30 5282 H 489.335 0.54805 4.57731 0
M  V30 5283 H 492.879 3.74192 5.8875 0
M  V30 5284 H 488.776 2.50873 5.94755 0
M  V30 5285 H 489.544 4.32808 6.94708 0
M  V30 5286 N 492.207 -1.54576 0.307264 0
M  V30 5287 C 493.117 -2.27435 -0.57536 0
M  V30 5288 C 494.133 -1.31183 -1.14311 0
M  V30 5289 O 495.309 -1.64175 -1.16656 0
M  V30 5290 C 492.374 -3.00566 -1.72803 0
M  V30 5291 C 491.435 -4.12369 -1.19373 0
M  V30 5292 C 490.668 -4.82003 -2.29147 0
M  V30 5293 O 490.891 -4.51038 -3.49171 0
M  V30 5294 O 489.825 -5.69271 -1.95485 0
M  V30 5295 H 493.651 -3.03696 0.0158558 0
M  V30 5296 H 491.236 -1.49219 0.0735064 0
M  V30 5297 H 493.118 -3.46416 -2.39946 0
M  V30 5298 H 491.793 -2.27195 -2.30574 0
M  V30 5299 H 490.7 -3.70905 -0.487851 0
M  V30 5300 H 492.033 -4.87736 -0.661376 0
M  V30 5301 N 493.685 -0.035106 -1.57561 0
M  V30 5302 C 494.633 0.962707 -2.11742 0
M  V30 5303 C 495.627 1.33296 -1.0454 0
M  V30 5304 O 496.833 1.31449 -1.22968 0
M  V30 5305 H 493.208 0.32826 -0.676572 0
M  V30 5306 H 495.179 0.48048 -2.94506 0
M  V30 5307 C 493.928 2.23388 -2.66445 0
M  V30 5308 H 493.251 1.95774 -3.48587 0
M  V30 5309 H 494.691 2.91402 -3.07995 0
M  V30 5310 C 493.15 2.96769 -1.59467 0
M  V30 5311 O 493.68 3.89105 -0.998 0
M  V30 5312 N 491.886 2.59212 -1.31369 0
M  V30 5313 H 491.433 1.84202 -1.80076 0
M  V30 5314 H 491.391 3.08618 -0.600173 0
M  V30 5315 N 495.163 1.55791 0.238111 0
M  V30 5316 C 496.574 1.68383 0.806472 0
M  V30 5317 C 496.925 0.634157 1.85669 0
M  V30 5318 O 496.05 -0.217913 2.153 0
M  V30 5319 C 496.645 3.05268 1.46959 0
M  V30 5320 C 495.204 3.1977 1.98555 0
M  V30 5321 C 494.351 2.64279 0.839763 0
M  V30 5322 H 497.302 1.58694 0.0137535 0
M  V30 5323 H 497.323 3.00203 2.33792 0
M  V30 5324 H 496.835 3.81643 0.704993 0
M  V30 5325 H 494.936 2.48234 2.77868 0
M  V30 5326 H 495.049 4.26788 2.17689 0
M  V30 5327 H 493.413 2.22329 1.24265 0
M  V30 5328 H 494.196 3.43187 0.0881032 0
M  V30 5329 N 496.642 -0.504142 1.49319 0
M  V30 5330 C 498.058 -0.835039 1.36012 0
M  V30 5331 C 498.258 -1.97674 0.390808 0
M  V30 5332 O 497.314 -2.51867 -0.178655 0
M  V30 5333 C 498.627 -1.17821 2.76656 0
M  V30 5334 C 500.175 -1.2866 2.85334 0
M  V30 5335 C 500.65 -1.66307 4.26739 0
M  V30 5336 N 502.141 -1.73362 4.29534 0
M  V30 5337 C 502.876 -2.0393 5.35911 0
M  V30 5338 N 502.372 -2.32744 6.52535 0
M  V30 5339 N 504.165 -2.05155 5.23324 0
M  V30 5340 H 496.316 0.248764 2.10938 0
M  V30 5341 H 498.579 0.0486962 0.946748 0
M  V30 5342 H 498.285 -0.412682 3.4927 0
M  V30 5343 H 498.159 -2.12239 3.11825 0
M  V30 5344 H 500.546 -2.04285 2.1296 0
M  V30 5345 H 500.627 -0.323004 2.53752 0
M  V30 5346 H 500.271 -0.91234 4.99639 0
M  V30 5347 H 500.201 -2.63761 4.55782 0
M  V30 5348 H 502.692 -1.53268 3.45424 0
M  V30 5349 H 503.005 -2.55248 7.2943 0
M  V30 5350 H 501.35 -2.30207 6.55767 0
M  V30 5351 H 504.541 -1.82119 4.3122 0
M  V30 5352 H 504.714 -2.28644 6.06322 0
M  V30 5353 N 498.12 -1.38341 -0.754957 0
M  V30 5354 C 499.397 -1.24995 -1.50451 0
M  V30 5355 C 499.777 0.149244 -2.10572 0
M  V30 5356 O 499.125 1.15861 -1.96948 0
M  V30 5357 C 499.335 -2.35904 -2.57197 0
M  V30 5358 C 500.683 -2.74262 -3.24138 0
M  V30 5359 O 501.707 -2.35205 -2.67501 0
M  V30 5360 O 500.566 -3.4161 -4.26574 0
M  V30 5361 H 497.66 -0.48872 -0.667144 0
M  V30 5362 H 500.206 -1.50165 -0.790486 0
M  V30 5363 H 498.978 -3.2953 -2.11011 0
M  V30 5364 H 498.601 -2.12291 -3.36182 0
M  V30 5365 N 499.598 0.982988 -1.23187 0
M  V30 5366 C 500.545 2.07491 -1.01075 0
M  V30 5367 C 501.515 1.65949 0.070905 0
M  V30 5368 O 502.7 1.90629 -0.0806822 0
M  V30 5369 C 499.84 3.39751 -0.605261 0
M  V30 5370 C 498.953 3.94578 -1.75876 0
M  V30 5371 C 498.088 5.15039 -1.3003 0
M  V30 5372 C 497.127 5.62027 -2.42472 0
M  V30 5373 N 496.264 6.73719 -1.97602 0
M  V30 5374 H 501.104 2.25739 -1.9454 0
M  V30 5375 H 498.641 1.10659 -0.969179 0
M  V30 5376 H 500.599 4.15719 -0.351279 0
M  V30 5377 H 499.229 3.21473 0.292382 0
M  V30 5378 H 498.281 3.1539 -2.12681 0
M  V30 5379 H 499.593 4.25422 -2.60418 0
M  V30 5380 H 498.747 5.9833 -1.00429 0
M  V30 5381 H 497.486 4.85843 -0.425216 0
M  V30 5382 H 496.491 4.77318 -2.7285 0
M  V30 5383 H 497.716 5.93244 -3.30512 0
M  V30 5384 H 495.662 6.46287 -1.1247 0
M  V30 5385 H 495.579 7.03934 -2.75705 0
M  V30 5386 H 496.847 7.6049 -1.71098 0
M  V30 5387 N 501.076 1.04316 1.18135 0
M  V30 5388 C 502.325 0.74319 1.87509 0
M  V30 5389 C 502.638 -0.732136 1.81381 0
M  V30 5390 O 503.844 -1.14572 2.46141 0
M  V30 5391 C 502.3 1.27913 3.36402 0
M  V30 5392 C 501.908 2.78326 3.51053 0
M  V30 5393 C 503.652 1.0558 4.11161 0
M  V30 5394 C 501.559 3.25266 4.93919 0
M  V30 5395 H 500.489 0.274313 0.702331 0
M  V30 5396 H 503.14 1.25931 1.33467 0
M  V30 5397 H 501.522 0.690853 3.89927 0
M  V30 5398 H 502.696 3.42933 3.07788 0
M  V30 5399 H 501.011 2.991 2.89704 0
M  V30 5400 H 503.608 1.38161 5.16542 0
M  V30 5401 H 503.951 -0.00684729 4.16299 0
M  V30 5402 H 504.484 1.60882 3.63816 0
M  V30 5403 H 501.223 4.30922 4.9395 0
M  V30 5404 H 500.743 2.65396 5.3789 0
M  V30 5405 H 502.422 3.19433 5.62647 0
M  V30 5406 N 502.554 -1.34406 0.822964 0
M  V30 5407 C 503.484 -2.32052 0.259608 0
M  V30 5408 C 504.465 -1.58243 -0.623961 0
M  V30 5409 O 505.65 -1.86224 -0.55083 0
M  V30 5410 C 502.78 -3.42434 -0.579314 0
M  V30 5411 C 501.734 -4.27499 0.20712 0
M  V30 5412 C 501.06 -5.29349 -0.754547 0
M  V30 5413 C 502.36 -5.02758 1.41533 0
M  V30 5414 H 504.054 -2.79418 1.07545 0
M  V30 5415 H 501.6 -1.34338 0.518593 0
M  V30 5416 H 503.553 -4.0976 -0.983612 0
M  V30 5417 H 502.277 -2.93717 -1.4282 0
M  V30 5418 H 500.936 -3.61776 0.592787 0
M  V30 5419 H 500.584 -4.76895 -1.59939 0
M  V30 5420 H 500.284 -5.8714 -0.232561 0
M  V30 5421 H 501.808 -5.99544 -1.1567 0
M  V30 5422 H 503.222 -5.62938 1.08504 0
M  V30 5423 H 501.619 -5.70123 1.87296 0
M  V30 5424 H 502.689 -4.32451 2.1935 0
M  V30 5425 N 504.032 -0.577932 -1.46621 0
M  V30 5426 C 505.278 -0.0617793 -2.02706 0
M  V30 5427 C 505.611 1.29294 -1.44903 0
M  V30 5428 O 504.886 1.8461 -0.61232 0
M  V30 5429 C 505.169 0.00911824 -3.60099 0
M  V30 5430 C 505.022 -1.37416 -4.28295 0
M  V30 5431 C 506.341 0.712159 -4.343 0
M  V30 5432 H 503.46 -0.0239246 -0.736612 0
M  V30 5433 H 506.102 -0.744211 -1.74818 0
M  V30 5434 H 504.252 0.590292 -3.83989 0
M  V30 5435 H 505.924 -2.00013 -4.15683 0
M  V30 5436 H 504.167 -1.94319 -3.87843 0
M  V30 5437 H 504.838 -1.27707 -5.37024 0
M  V30 5438 H 507.314 0.218486 -4.15526 0
M  V30 5439 H 506.19 0.730782 -5.44014 0
M  V30 5440 H 506.451 1.77251 -4.05012 0
M  V30 5441 N 505.51 1.54411 -0.315457 0
M  V30 5442 C 506.757 2.00419 0.289543 0
M  V30 5443 C 507.085 1.20373 1.52776 0
M  V30 5444 O 506.34 0.271769 1.93804 0
M  V30 5445 C 506.639 3.50936 0.676652 0
M  V30 5446 C 506.305 4.48532 -0.461472 0
M  V30 5447 C 504.967 4.74936 -0.773879 0
M  V30 5448 C 507.319 5.06567 -1.22637 0
M  V30 5449 C 504.647 5.56634 -1.85405 0
M  V30 5450 C 506.999 5.89441 -2.29657 0
M  V30 5451 C 505.663 6.1415 -2.61488 0
M  V30 5452 H 504.933 0.733386 0.105951 0
M  V30 5453 H 507.58 1.86434 -0.437554 0
M  V30 5454 H 505.885 3.62606 1.48405 0
M  V30 5455 H 507.582 3.83971 1.15618 0
M  V30 5456 H 504.172 4.28096 -0.207893 0
M  V30 5457 H 508.356 4.86157 -0.998271 0
M  V30 5458 H 503.612 5.74012 -2.10523 0
M  V30 5459 H 507.786 6.33432 -2.89374 0
M  V30 5460 H 505.413 6.77245 -3.45317 0
M  V30 5461 N 506.988 0.0434614 1.5754 0
M  V30 5462 C 507.935 -0.93356 2.11077 0
M  V30 5463 C 508.905 -1.31383 1.01626 0
M  V30 5464 O 510.09 -1.40465 1.29129 0
M  V30 5465 C 507.23 -2.20578 2.65404 0
M  V30 5466 C 506.343 -1.88068 3.88914 0
M  V30 5467 C 505.478 -3.09691 4.31584 0
M  V30 5468 C 504.517 -2.73067 5.47815 0
M  V30 5469 N 503.654 -3.87359 5.85574 0
M  V30 5470 H 508.494 -0.470118 2.94268 0
M  V30 5471 H 506.031 -0.220434 1.45439 0
M  V30 5472 H 507.989 -2.95011 2.94999 0
M  V30 5473 H 506.619 -2.64513 1.85021 0
M  V30 5474 H 505.671 -1.03816 3.6596 0
M  V30 5475 H 506.983 -1.57104 4.73413 0
M  V30 5476 H 506.137 -3.92431 4.62691 0
M  V30 5477 H 504.876 -3.43827 3.45882 0
M  V30 5478 H 503.881 -1.88742 5.16388 0
M  V30 5479 H 505.106 -2.40131 6.35227 0
M  V30 5480 H 503.052 -4.21311 5.02825 0
M  V30 5481 H 502.969 -3.60068 6.64746 0
M  V30 5482 H 504.237 -4.70761 6.21292 0
M  V30 5483 N 508.466 -1.55915 -0.229846 0
M  V30 5484 C 509.743 -1.6932 -0.979295 0
M  V30 5485 C 510.123 -0.588321 -2.02736 0
M  V30 5486 O 509.471 0.40586 -2.24867 0
M  V30 5487 C 509.681 -3.10305 -1.59724 0
M  V30 5488 C 511.029 -3.6945 -2.09264 0
M  V30 5489 O 512.053 -3.13214 -1.69633 0
M  V30 5490 O 510.912 -4.68072 -2.82082 0
M  V30 5491 H 508.006 -0.689314 -0.456919 0
M  V30 5492 H 510.552 -1.68238 -0.222283 0
M  V30 5493 H 509.324 -3.82177 -0.840039 0
M  V30 5494 H 508.947 -3.1547 -2.42001 0
M  V30 5495 N 509.944 0.496216 -1.49584 0
M  V30 5496 C 510.854 1.62352 -1.69349 0
M  V30 5497 C 511.87 1.64184 -0.576147 0
M  V30 5498 O 513.046 1.82517 -0.85144 0
M  V30 5499 C 510.111 2.98698 -1.76013 0
M  V30 5500 C 509.172 3.07454 -2.99617 0
M  V30 5501 C 508.405 4.37296 -3.05953 0
M  V30 5502 O 508.628 5.2637 -2.19752 0
M  V30 5503 O 507.562 4.51124 -3.9846 0
M  V30 5504 H 511.388 1.48606 -2.64859 0
M  V30 5505 H 508.973 0.673022 -1.33382 0
M  V30 5506 H 510.855 3.79725 -1.82721 0
M  V30 5507 H 509.53 3.12696 -0.836828 0
M  V30 5508 H 508.437 2.25597 -2.98424 0
M  V30 5509 H 509.77 2.98385 -3.91443 0
M  V30 5510 N 511.423 1.38739 0.74761 0
M  V30 5511 C 512.371 1.36573 1.88283 0
M  V30 5512 C 513.365 0.250712 1.67534 0
M  V30 5513 O 514.571 0.420073 1.7503 0
M  V30 5514 H 510.946 0.42619 0.619569 0
M  V30 5515 H 512.917 2.32356 1.87226 0
M  V30 5516 C 511.666 1.21361 3.25832 0
M  V30 5517 H 510.989 2.06424 3.42388 0
M  V30 5518 H 512.429 1.23901 4.05493 0
M  V30 5519 C 510.888 -0.0790099 3.36807 0
M  V30 5520 O 511.418 -1.05385 3.8763 0
M  V30 5521 N 509.624 -0.13785 2.90273 0
M  V30 5522 H 509.171 0.656128 2.49104 0
M  V30 5523 H 509.129 -1.00228 2.97996 0
M  V30 5524 N 512.901 -0.976442 1.23707 0
M  V30 5525 C 514.148 -1.71827 1.07153 0
M  V30 5526 C 514.476 -1.9053 -0.390982 0
M  V30 5527 O 513.731 -1.45779 -1.30564 0
M  V30 5528 C 514.03 -3.11814 1.74662 0
M  V30 5529 C 513.696 -3.12978 3.24585 0
M  V30 5530 C 512.358 -3.13003 3.6549 0
M  V30 5531 C 514.71 -3.07986 4.20469 0
M  V30 5532 C 512.038 -3.05757 5.00729 0
M  V30 5533 C 514.39 -3.02282 5.55705 0
M  V30 5534 C 513.054 -3.00631 5.95968 0
M  V30 5535 H 512.324 -0.628758 0.392102 0
M  V30 5536 H 514.971 -1.14239 1.53693 0
M  V30 5537 H 513.276 -3.72812 1.20492 0
M  V30 5538 H 514.973 -3.67989 1.59328 0
M  V30 5539 H 511.563 -3.13718 2.92026 0
M  V30 5540 H 515.747 -3.07103 3.89874 0
M  V30 5541 H 511.003 -3.02834 5.31132 0
M  V30 5542 H 515.177 -2.97376 6.29714 0
M  V30 5543 H 512.804 -2.94771 7.00724 0
M  V30 5544 N 514.379 -1.04941 -1.1758 0
M  V30 5545 C 515.625 -0.768896 -1.88307 0
M  V30 5546 C 515.98 0.696361 -1.79356 0
M  V30 5547 O 515.273 1.50245 -1.18899 0
M  V30 5548 C 515.467 -1.18062 -3.37337 0
M  V30 5549 C 515.296 -2.68436 -3.60794 0
M  V30 5550 C 514.066 -3.35709 -3.77661 0
M  V30 5551 C 516.264 -3.66657 -3.60649 0
M  V30 5552 N 514.246 -4.74974 -3.88939 0
M  V30 5553 C 515.617 -4.91638 -3.77747 0
M  V30 5554 C 517.672 -3.60162 -3.43785 0
M  V30 5555 C 516.375 -6.10902 -3.79726 0
M  V30 5556 C 518.401 -4.78863 -3.47051 0
M  V30 5557 C 517.763 -6.02666 -3.64654 0
M  V30 5558 H 513.862 -0.33355 -0.707296 0
M  V30 5559 H 516.446 -1.34085 -1.41171 0
M  V30 5560 H 514.617 -0.636648 -3.83147 0
M  V30 5561 H 516.349 -0.8502 -3.95669 0
M  V30 5562 H 513.104 -2.8611 -3.77409 0
M  V30 5563 H 513.528 -5.47378 -3.98379 0
M  V30 5564 H 518.17 -2.65412 -3.29114 0
M  V30 5565 H 515.888 -7.05998 -3.93182 0
M  V30 5566 H 519.474 -4.75488 -3.35265 0
M  V30 5567 H 518.354 -6.92979 -3.67083 0
M  V30 5568 N 515.857 1.33968 -0.830081 0
M  V30 5569 C 516.79 2.27303 -0.202182 0
M  V30 5570 C 517.768 1.49235 0.645581 0
M  V30 5571 O 518.952 1.78433 0.607762 0
M  V30 5572 C 516.079 3.31025 0.716932 0
M  V30 5573 C 515.125 4.26466 -0.0542271 0
M  V30 5574 S 515.958 5.16707 -1.40622 0
M  V30 5575 C 517.114 6.23962 -0.492167 0
M  V30 5576 H 517.347 2.8021 -0.99346 0
M  V30 5577 H 514.88 1.41124 -0.626359 0
M  V30 5578 H 516.838 3.91271 1.24165 0
M  V30 5579 H 515.499 2.76951 1.4818 0
M  V30 5580 H 514.692 4.99858 0.644785 0
M  V30 5581 H 514.294 3.7051 -0.509722 0
M  V30 5582 H 516.586 6.76774 0.31347 0
M  V30 5583 H 517.529 6.97927 -1.19599 0
M  V30 5584 H 517.937 5.64447 -0.0774176 0
M  V30 5585 N 517.335 0.585699 1.46312 0
M  V30 5586 C 518.584 0.0701192 2.01578 0
M  V30 5587 C 518.897 -1.29889 1.46247 0
M  V30 5588 O 520.103 -1.90598 1.93351 0
M  V30 5589 C 518.559 0.0747499 3.59822 0
M  V30 5590 C 518.167 1.44226 4.24149 0
M  V30 5591 C 519.911 -0.38673 4.22735 0
M  V30 5592 C 517.818 1.40446 5.74481 0
M  V30 5593 H 516.748 0.0224441 0.753666 0
M  V30 5594 H 519.399 0.737789 1.68015 0
M  V30 5595 H 517.781 -0.659144 3.90476 0
M  V30 5596 H 518.955 2.19612 4.05101 0
M  V30 5597 H 517.27 1.84401 3.73343 0
M  V30 5598 H 519.867 -0.433853 5.32937 0
M  V30 5599 H 520.21 -1.40489 3.91878 0
M  V30 5600 H 520.743 0.293195 3.96718 0
M  V30 5601 H 517.482 2.39952 6.10003 0
M  V30 5602 H 517.002 0.692845 5.95785 0
M  V30 5603 H 518.681 1.11865 6.37256 0
M  V30 5604 N 518.813 -1.54241 0.323641 0
M  V30 5605 C 520.229 -1.59574 -0.0290018 0
M  V30 5606 C 520.429 -1.34017 -1.50472 0
M  V30 5607 O 519.485 -1.12464 -2.26071 0
M  V30 5608 C 520.798 -2.98169 0.389295 0
M  V30 5609 C 522.346 -3.11148 0.339958 0
M  V30 5610 C 522.821 -4.5209 0.733418 0
M  V30 5611 N 524.312 -4.5808 0.686827 0
M  V30 5612 C 525.047 -5.65248 0.963464 0
M  V30 5613 N 524.543 -6.80355 1.30724 0
M  V30 5614 N 526.336 -5.55025 0.88902 0
M  V30 5615 H 518.487 -1.6911 1.28512 0
M  V30 5616 H 520.75 -0.790972 0.522558 0
M  V30 5617 H 520.456 -3.21871 1.41746 0
M  V30 5618 H 520.33 -3.76399 -0.245657 0
M  V30 5619 H 522.717 -2.87182 -0.679002 0
M  V30 5620 H 522.798 -2.35023 1.00985 0
M  V30 5621 H 522.442 -4.76788 1.75029 0
M  V30 5622 H 522.372 -5.26584 0.0412189 0
M  V30 5623 H 524.863 -3.75411 0.43298 0
M  V30 5624 H 525.176 -7.58029 1.5037 0
M  V30 5625 H 523.521 -6.81851 1.3455 0
M  V30 5626 H 526.712 -4.63977 0.619939 0
M  V30 5627 H 526.885 -6.38458 1.10797 0
M  V30 5628 N 520.291 -0.0518155 -1.57515 0
M  V30 5629 C 521.539 0.620595 -1.92336 0
M  V30 5630 C 521.86 1.71345 -0.930907 0
M  V30 5631 O 521.13 1.95885 0.0241341 0
M  V30 5632 H 519.71 0.232226 -0.709986 0
M  V30 5633 H 522.372 -0.104969 -1.94617 0
M  V30 5634 H 521.468 1.05879 -2.93592 0
M  V30 5635 N 521.769 1.56035 0.221574 0
M  V30 5636 C 522.999 1.82864 0.961468 0
M  V30 5637 C 523.407 0.628703 1.78449 0
M  V30 5638 O 522.75 -0.412109 1.79018 0
M  V30 5639 C 522.812 3.03425 1.92804 0
M  V30 5640 C 522.476 4.38429 1.28954 0
M  V30 5641 C 523.473 5.15441 0.679431 0
M  V30 5642 C 521.158 4.85151 1.30131 0
M  V30 5643 C 523.152 6.37337 0.0896148 0
M  V30 5644 C 520.839 6.06989 0.707651 0
M  V30 5645 C 521.837 6.82923 0.102855 0
M  V30 5646 O 521.525 8.02456 -0.48157 0
M  V30 5647 H 521.257 0.611883 0.28736 0
M  V30 5648 H 523.811 2.0397 0.241932 0
M  V30 5649 H 522.041 2.78138 2.68656 0
M  V30 5650 H 523.73 3.17127 2.53348 0
M  V30 5651 H 524.496 4.80452 0.662661 0
M  V30 5652 H 520.375 4.26021 1.76145 0
M  V30 5653 H 523.919 6.96547 -0.383069 0
M  V30 5654 H 519.816 6.41451 0.721834 0
M  V30 5655 H 520.584 8.17636 -0.375887 0
M  V30 5656 N 523.247 -0.488276 1.49845 0
M  V30 5657 C 524.21 -1.57069 1.66919 0
M  V30 5658 C 525.21 -1.51445 0.540479 0
M  V30 5659 O 526.4 -1.5437 0.807188 0
M  V30 5660 C 523.532 -2.96718 1.67844 0
M  V30 5661 H 524.725 -1.43254 2.63474 0
M  V30 5662 H 522.278 -0.713435 1.39068 0
M  V30 5663 H 523.013 -3.15996 0.7292 0
M  V30 5664 H 522.798 -3.02208 2.49826 0
M  V30 5665 H 524.288 -3.75335 1.83066 0
M  V30 5666 N 524.725 -1.39134 -0.740242 0
M  V30 5667 C 525.971 -1.36273 -1.50192 0
M  V30 5668 C 526.304 0.0430136 -1.94152 0
M  V30 5669 O 525.579 1.00691 -1.66408 0
M  V30 5670 C 525.862 -2.33041 -2.74525 0
M  V30 5671 C 525.715 -3.82535 -2.36617 0
M  V30 5672 C 527.034 -2.27723 -3.76604 0
M  V30 5673 H 524.153 -0.496323 -0.544823 0
M  V30 5674 H 526.795 -1.70085 -0.846815 0
M  V30 5675 H 524.945 -2.04337 -3.30422 0
M  V30 5676 H 526.617 -4.21967 -1.86391 0
M  V30 5677 H 524.86 -3.99565 -1.68909 0
M  V30 5678 H 525.531 -4.45723 -3.2563 0
M  V30 5679 H 528.007 -2.53091 -3.30279 0
M  V30 5680 H 526.883 -2.97519 -4.61274 0
M  V30 5681 H 527.144 -1.28049 -4.2315 0
M  V30 5682 N 526.204 0.969867 -1.24223 0
M  V30 5683 C 527.134 2.08191 -1.05729 0
M  V30 5684 C 528.115 1.70075 0.0290765 0
M  V30 5685 O 529.3 1.93712 -0.137583 0
M  V30 5686 C 526.43 3.40991 -0.658995 0
M  V30 5687 C 525.384 3.93054 -1.69389 0
M  V30 5688 C 524.71 5.22171 -1.15072 0
M  V30 5689 C 526.01 4.21137 -3.08935 0
M  V30 5690 H 527.704 2.23921 -1.98746 0
M  V30 5691 H 525.25 1.07602 -0.956967 0
M  V30 5692 H 527.203 4.18221 -0.51662 0
M  V30 5693 H 525.927 3.25155 0.30686 0
M  V30 5694 H 524.586 3.17977 -1.82444 0
M  V30 5695 H 524.234 5.02694 -0.175539 0
M  V30 5696 H 523.934 5.57973 -1.84229 0
M  V30 5697 H 525.458 6.02013 -1.02042 0
M  V30 5698 H 526.872 4.8908 -2.99121 0
M  V30 5699 H 525.269 4.68163 -3.75425 0
M  V30 5700 H 526.339 3.27996 -3.57137 0
M  V30 5701 N 527.682 1.05563 1.17022 0
M  V30 5702 C 529.093 0.793475 1.69 0
M  V30 5703 C 529.444 -0.683882 1.83895 0
M  V30 5704 O 528.569 -1.53116 1.5292 0
M  V30 5705 C 529.164 1.43376 3.06967 0
M  V30 5706 C 527.723 1.21956 3.56095 0
M  V30 5707 C 526.87 1.51494 2.3226 0
M  V30 5708 H 529.821 1.22008 1.01487 0
M  V30 5709 H 529.842 0.845068 3.70997 0
M  V30 5710 H 529.354 2.50899 2.96093 0
M  V30 5711 H 527.455 0.163749 3.7224 0
M  V30 5712 H 527.568 1.92713 4.38633 0
M  V30 5713 H 525.932 0.935175 2.3691 0
M  V30 5714 H 526.715 2.60159 2.23992 0
M  V30 5715 N 529.16 -1.33526 0.837174 0
M  V30 5716 C 530.437 -1.92369 0.354065 0
M  V30 5717 C 530.817 -1.76348 -1.16038 0
M  V30 5718 O 530.165 -1.15083 -1.97403 0
M  V30 5719 C 530.375 -3.39728 0.799101 0
M  V30 5720 C 531.723 -4.16877 0.806139 0
M  V30 5721 O 532.747 -3.48373 0.742597 0
M  V30 5722 O 531.606 -5.39166 0.892345 0
M  V30 5723 H 528.7 -0.820952 0.0998378 0
M  V30 5724 H 531.246 -1.42409 0.922913 0
M  V30 5725 H 530.018 -3.45254 1.84162 0
M  V30 5726 H 529.641 -3.97062 0.206731 0
M  V30 5727 N 530.638 -0.59345 -1.46 0
M  V30 5728 C 531.868 -0.0889642 -2.06408 0
M  V30 5729 C 532.276 1.22597 -1.44106 0
M  V30 5730 O 531.619 1.75448 -0.544398 0
M  V30 5731 C 531.681 0.139902 -3.59228 0
M  V30 5732 C 531.345 -1.09107 -4.43784 0
M  V30 5733 C 532.342 -2.00577 -4.79651 0
M  V30 5734 C 530.027 -1.31593 -4.84756 0
M  V30 5735 C 532.021 -3.12873 -5.55328 0
M  V30 5736 C 529.708 -2.44192 -5.60191 0
M  V30 5737 C 530.706 -3.34661 -5.95392 0
M  V30 5738 O 530.394 -4.45302 -6.69299 0
M  V30 5739 H 530.126 -0.0594613 -0.67338 0
M  V30 5740 H 532.68 -0.817 -1.88452 0
M  V30 5741 H 530.91 0.922672 -3.75531 0
M  V30 5742 H 532.599 0.594228 -4.01527 0
M  V30 5743 H 533.365 -1.84425 -4.48567 0
M  V30 5744 H 529.244 -0.620801 -4.56801 0
M  V30 5745 H 532.788 -3.83511 -5.82722 0
M  V30 5746 H 528.685 -2.60303 -5.90688 0
M  V30 5747 H 529.453 -4.43805 -6.87735 0
M  V30 5748 N 532.116 1.54067 -0.331816 0
M  V30 5749 C 533.527 1.86059 0.15454 0
M  V30 5750 C 533.878 1.25331 1.50952 0
M  V30 5751 O 533.003 0.562441 2.08963 0
M  V30 5752 C 533.598 3.37581 0.287192 0
M  V30 5753 C 532.157 3.69493 0.717773 0
M  V30 5754 C 531.304 2.76863 -0.155569 0
M  V30 5755 H 534.255 1.48797 -0.55182 0
M  V30 5756 H 534.276 3.63744 1.11671 0
M  V30 5757 H 533.788 3.81751 -0.699131 0
M  V30 5758 H 531.889 3.3086 1.71354 0
M  V30 5759 H 532.002 4.76315 0.5158 0
M  V30 5760 H 530.366 2.51995 0.370213 0
M  V30 5761 H 531.149 3.23861 -1.13881 0
M  V30 5762 N 533.594 0.0601682 1.57485 0
M  V30 5763 C 534.541 -0.91112 2.12055 0
M  V30 5764 C 535.511 -1.30298 1.03013 0
M  V30 5765 O 536.696 -1.39087 1.30612 0
M  V30 5766 C 533.836 -2.1775 2.67729 0
M  V30 5767 C 532.949 -1.83933 3.90887 0
M  V30 5768 C 532.084 -3.05096 4.34845 0
M  V30 5769 C 531.123 -2.67241 5.5068 0
M  V30 5770 N 530.26 -3.81127 5.8965 0
M  V30 5771 H 535.1 -0.43888 2.9475 0
M  V30 5772 H 532.637 -0.204995 1.45665 0
M  V30 5773 H 534.595 -2.91866 2.98111 0
M  V30 5774 H 533.225 -2.62535 1.87816 0
M  V30 5775 H 532.277 -0.999287 3.6704 0
M  V30 5776 H 533.589 -1.52074 4.75052 0
M  V30 5777 H 532.743 -3.87502 4.66827 0
M  V30 5778 H 531.482 -3.40139 3.49509 0
M  V30 5779 H 530.487 -1.83254 5.18361 0
M  V30 5780 H 531.712 -2.3338 6.37738 0
M  V30 5781 H 529.658 -4.15954 5.07266 0
M  V30 5782 H 529.575 -3.52997 6.68528 0
M  V30 5783 H 530.843 -4.64145 6.2625 0
M  V30 5784 N 535.072 -1.5615 -0.213296 0
M  V30 5785 C 536.297 -1.83986 -0.957282 0
M  V30 5786 C 536.722 -0.641526 -1.76822 0
M  V30 5787 O 536.08 0.409722 -1.7661 0
M  V30 5788 C 536.128 -3.09889 -1.84393 0
M  V30 5789 O 535.232 -2.89163 -2.94038 0
M  V30 5790 H 534.573 -0.606357 -0.270605 0
M  V30 5791 H 537.103 -2.03369 -0.224111 0
M  V30 5792 H 537.113 -3.40209 -2.25215 0
M  V30 5793 H 535.788 -3.96735 -1.24795 0
M  V30 5794 H 534.365 -2.70097 -2.57103 0
M  V30 5795 N 536.55 0.480323 -1.50102 0
M  V30 5796 C 537.799 1.22979 -1.59872 0
M  V30 5797 C 538.112 1.93282 -0.30022 0
M  V30 5798 O 539.318 2.70086 -0.276709 0
M  V30 5799 C 537.774 2.23408 -2.82164 0
M  V30 5800 C 537.382 1.5895 -4.18854 0
M  V30 5801 C 539.126 2.99055 -3.01275 0
M  V30 5802 C 537.033 2.57611 -5.32344 0
M  V30 5803 H 535.963 0.462707 -0.59533 0
M  V30 5804 H 538.614 0.501291 -1.7652 0
M  V30 5805 H 536.996 2.99511 -2.59055 0
M  V30 5806 H 538.17 0.887 -4.52182 0
M  V30 5807 H 536.485 0.956191 -4.05273 0
M  V30 5808 H 539.082 3.72876 -3.83233 0
M  V30 5809 H 539.425 3.57897 -2.12639 0
M  V30 5810 H 539.958 2.30066 -3.24522 0
M  V30 5811 H 536.697 2.03521 -6.23105 0
M  V30 5812 H 536.217 3.26041 -5.03445 0
M  V30 5813 H 537.896 3.19627 -5.62537 0
M  V30 5814 N 538.028 1.39524 0.732853 0
M  V30 5815 C 538.978 1.34905 1.83806 0
M  V30 5816 C 539.962 0.229546 1.59254 0
M  V30 5817 O 541.154 0.467255 1.70721 0
M  V30 5818 C 538.283 1.19699 3.21756 0
M  V30 5819 C 537.369 2.36359 3.5213 0
M  V30 5820 N 537.76 3.61834 3.53426 0
M  V30 5821 C 536.058 2.29363 3.82503 0
M  V30 5822 C 536.759 4.38992 3.81655 0
M  V30 5823 N 535.735 3.68606 3.99538 0
M  V30 5824 H 539.537 2.29882 1.83116 0
M  V30 5825 H 537.051 1.33051 0.931194 0
M  V30 5826 H 539.048 1.14472 4.00876 0
M  V30 5827 H 537.708 0.256739 3.23683 0
M  V30 5828 H 538.719 3.95228 3.34686 0
M  V30 5829 H 535.396 1.43612 3.92023 0
M  V30 5830 H 536.786 5.47763 3.89108 0
M  V30 5831 N 539.506 -0.963266 1.24736 0
M  V30 5832 C 540.734 -1.74166 1.11686 0
M  V30 5833 C 541.149 -1.8589 -0.330187 0
M  V30 5834 O 540.506 -1.35042 -1.2276 0
M  V30 5835 C 540.557 -3.15989 1.75595 0
M  V30 5836 O 540.278 -3.04847 3.14642 0
M  V30 5837 C 541.779 -4.10145 1.68213 0
M  V30 5838 H 538.999 -0.546031 0.389989 0
M  V30 5839 H 541.543 -1.20907 1.64929 0
M  V30 5840 H 539.698 -3.66219 1.26343 0
M  V30 5841 H 540.112 -3.9425 3.4593 0
M  V30 5842 H 541.586 -5.07299 2.17604 0
M  V30 5843 H 542.063 -4.3445 0.644208 0
M  V30 5844 H 542.669 -3.65827 2.16912 0
M  V30 5845 N 540.985 -1.06182 -1.16461 0
M  V30 5846 C 541.915 -0.692861 -2.22984 0
M  V30 5847 C 542.896 0.314122 -1.67174 0
M  V30 5848 O 544.081 0.189499 -1.93273 0
M  V30 5849 C 541.211 -0.07732 -3.47214 0
M  V30 5850 C 540.165 -1.01015 -4.15909 0
M  V30 5851 C 539.491 -0.257973 -5.34077 0
M  V30 5852 C 540.791 -2.33868 -4.67015 0
M  V30 5853 H 542.485 -1.58343 -2.54102 0
M  V30 5854 H 540.031 -0.76279 -1.22137 0
M  V30 5855 H 541.984 0.19266 -4.20959 0
M  V30 5856 H 540.708 0.848254 -3.15392 0
M  V30 5857 H 539.367 -1.26486 -3.44088 0
M  V30 5858 H 539.015 0.670684 -4.98509 0
M  V30 5859 H 538.715 -0.879638 -5.80979 0
M  V30 5860 H 540.239 0.00448788 -6.106 0
M  V30 5861 H 541.653 -2.1279 -5.32347 0
M  V30 5862 H 540.05 -2.91522 -5.24533 0
M  V30 5863 H 541.12 -2.97019 -3.83286 0
M  V30 5864 N 542.463 1.3308 -0.844243 0
M  V30 5865 C 543.711 1.97215 -0.441676 0
M  V30 5866 C 544.032 1.67185 1.0037 0
M  V30 5867 O 543.302 0.973588 1.69994 0
M  V30 5868 H 541.882 0.72959 -0.160335 0
M  V30 5869 H 544.544 1.62348 -1.07838 0
M  V30 5870 H 543.64 3.06698 -0.57815 0
M  V30 5871 N 543.941 0.601185 1.45683 0
M  V30 5872 C 545.188 0.0938811 2.02282 0
M  V30 5873 C 545.516 -1.27315 1.47041 0
M  V30 5874 O 544.771 -1.85193 0.632623 0
M  V30 5875 C 545.07 -0.00222425 3.574 0
M  V30 5876 C 544.736 1.29963 4.31764 0
M  V30 5877 C 543.398 1.65625 4.51798 0
M  V30 5878 C 545.75 2.1603 4.74321 0
M  V30 5879 C 543.078 2.87119 5.11644 0
M  V30 5880 C 545.43 3.36766 5.3551 0
M  V30 5881 C 544.094 3.72689 5.53768 0
M  V30 5882 H 543.364 0.0343535 0.740203 0
M  V30 5883 H 546.011 0.781522 1.74827 0
M  V30 5884 H 544.316 -0.773096 3.84097 0
M  V30 5885 H 546.013 -0.410794 3.9889 0
M  V30 5886 H 542.603 1.01204 4.1648 0
M  V30 5887 H 546.787 1.89778 4.58582 0
M  V30 5888 H 542.043 3.15065 5.2397 0
M  V30 5889 H 546.217 4.03713 5.67441 0
M  V30 5890 H 543.844 4.66918 5.99909 0
M  V30 5891 N 545.419 -1.53889 0.339982 0
M  V30 5892 C 546.83 -1.86139 -0.144671 0
M  V30 5893 C 547.181 -1.2613 -1.50285 0
M  V30 5894 O 546.306 -0.573515 -2.08662 0
M  V30 5895 C 546.901 -3.37728 -0.269285 0
M  V30 5896 C 545.46 -3.69868 -0.698168 0
M  V30 5897 C 544.607 -2.76777 0.170249 0
M  V30 5898 H 547.558 -1.48503 0.559704 0
M  V30 5899 H 547.579 -3.64331 -1.0974 0
M  V30 5900 H 547.091 -3.81375 0.719366 0
M  V30 5901 H 545.192 -3.31764 -1.69597 0
M  V30 5902 H 545.305 -4.76582 -0.490533 0
M  V30 5903 H 543.669 -2.52188 -0.356844 0
M  V30 5904 H 544.452 -3.23253 1.15597 0
M  V30 5905 N 546.897 -0.0685191 -1.57451 0
M  V30 5906 C 548.145 0.60016 -1.92983 0
M  V30 5907 C 548.466 1.70348 -0.949028 0
M  V30 5908 O 547.736 1.959 0.00335647 0
M  V30 5909 H 546.316 0.224682 -0.712409 0
M  V30 5910 H 548.978 -0.125605 -1.94495 0
M  V30 5911 H 548.074 1.02759 -2.94698 0
M  V30 5912 N 548.375 1.56261 0.205012 0
M  V30 5913 C 549.791 1.49623 0.555433 0
M  V30 5914 C 549.991 0.766719 1.86343 0
M  V30 5915 O 549.047 0.313158 2.50551 0
M  V30 5916 C 550.36 2.94253 0.619347 0
M  V30 5917 C 551.908 3.04868 0.708855 0
M  V30 5918 C 552.383 4.50888 0.803969 0
M  V30 5919 N 553.874 4.54999 0.867758 0
M  V30 5920 C 554.609 5.65284 0.96135 0
M  V30 5921 N 554.105 6.85282 1.01786 0
M  V30 5922 N 555.898 5.53174 0.997771 0
M  V30 5923 H 548.049 2.0211 -0.653094 0
M  V30 5924 H 550.312 0.919333 -0.231366 0
M  V30 5925 H 550.018 3.50643 -0.272458 0
M  V30 5926 H 549.892 3.47063 1.47741 0
M  V30 5927 H 552.279 2.48532 1.5911 0
M  V30 5928 H 552.36 2.55199 -0.175205 0
M  V30 5929 H 552.004 5.07846 -0.0738798 0
M  V30 5930 H 551.934 4.98279 1.70369 0
M  V30 5931 H 554.425 3.68588 0.833735 0
M  V30 5932 H 554.738 7.65081 1.08951 0
M  V30 5933 H 553.083 6.8796 0.986706 0
M  V30 5934 H 556.274 4.5835 0.950392 0
M  V30 5935 H 556.447 6.39151 1.06725 0
M  V30 5936 N 549.853 -0.472356 1.50355 0
M  V30 5937 C 551.099 -1.22634 1.6152 0
M  V30 5938 C 551.432 -1.91645 0.313995 0
M  V30 5939 O 550.707 -1.82059 -0.684446 0
M  V30 5940 C 550.99 -2.27099 2.7946 0
M  V30 5941 C 550.843 -1.62402 4.19459 0
M  V30 5942 C 552.162 -3.28421 2.92964 0
M  V30 5943 H 549.281 -0.444494 0.587873 0
M  V30 5944 H 551.923 -0.520321 1.82737 0
M  V30 5945 H 550.073 -2.87314 2.61501 0
M  V30 5946 H 551.745 -1.05793 4.49005 0
M  V30 5947 H 549.988 -0.927184 4.23776 0
M  V30 5948 H 550.659 -2.38309 4.97909 0
M  V30 5949 H 553.135 -2.78227 3.09401 0
M  V30 5950 H 552.011 -3.98845 3.77113 0
M  V30 5951 H 552.272 -3.92467 2.03525 0
M  V30 5952 N 551.331 -1.39911 -0.725443 0
M  V30 5953 C 552.278 -1.39393 -1.83952 0
M  V30 5954 C 553.248 -0.252249 -1.64173 0
M  V30 5955 O 554.433 -0.44882 -1.85446 0
M  V30 5956 C 551.573 -1.25262 -3.21564 0
M  V30 5957 C 550.686 -2.49054 -3.52982 0
M  V30 5958 C 549.821 -2.27439 -4.80047 0
M  V30 5959 C 548.86 -3.46857 -5.04338 0
M  V30 5960 N 547.997 -3.24499 -6.22611 0
M  V30 5961 H 552.837 -2.34622 -1.83729 0
M  V30 5962 H 550.374 -1.16537 -0.897636 0
M  V30 5963 H 552.332 -1.15077 -4.01015 0
M  V30 5964 H 550.962 -0.33657 -3.21041 0
M  V30 5965 H 550.014 -2.69805 -2.6816 0
M  V30 5966 H 551.326 -3.37973 -3.66846 0
M  V30 5967 H 550.48 -2.14551 -5.67497 0
M  V30 5968 H 549.219 -1.35929 -4.68374 0
M  V30 5969 H 548.224 -3.60232 -4.15346 0
M  V30 5970 H 549.449 -4.3928 -5.17889 0
M  V30 5971 H 547.395 -2.35663 -6.12208 0
M  V30 5972 H 547.312 -4.06978 -6.37106 0
M  V30 5973 H 548.58 -3.15325 -7.12875 0
M  V30 5974 N 552.809 0.956637 -1.25245 0
M  V30 5975 C 553.756 2.053 -1.05454 0
M  V30 5976 C 554.726 1.66062 0.0356889 0
M  V30 5977 O 555.911 1.90415 -0.121099 0
M  V30 5978 C 553.051 3.38391 -0.677191 0
M  V30 5979 C 552.164 3.90758 -1.84206 0
M  V30 5980 C 551.299 5.12165 -1.40926 0
M  V30 5981 C 550.338 5.56757 -2.54338 0
M  V30 5982 N 549.475 6.69376 -2.11848 0
M  V30 5983 H 554.315 2.21562 -1.99284 0
M  V30 5984 H 551.852 1.08578 -0.992434 0
M  V30 5985 H 553.81 4.1488 -0.43938 0
M  V30 5986 H 552.44 3.22021 0.224127 0
M  V30 5987 H 551.492 3.10808 -2.19323 0
M  V30 5988 H 552.804 4.19802 -2.69383 0
M  V30 5989 H 551.958 5.96065 -1.13098 0
M  V30 5990 H 550.697 4.84832 -0.528175 0
M  V30 5991 H 549.702 4.71423 -2.82913 0
M  V30 5992 H 550.927 5.861 -3.43022 0
M  V30 5993 H 548.873 6.43756 -1.26153 0
M  V30 5994 H 548.79 6.97927 -2.90574 0
M  V30 5995 H 550.058 7.5669 -1.87191 0
M  V30 5996 N 554.287 1.06798 1.15896 0
M  V30 5997 C 555.536 0.782796 1.8589 0
M  V30 5998 C 555.849 -0.693498 1.82893 0
M  V30 5999 O 557.055 -1.09325 2.48516 0
M  V30 6000 C 555.511 1.3502 3.33613 0
M  V30 6001 C 555.119 2.8571 3.45071 0
M  V30 6002 C 556.863 1.14278 4.08829 0
M  V30 6003 C 554.77 3.35669 4.86909 0
M  V30 6004 H 553.7 0.289149 0.696354 0
M  V30 6005 H 556.351 1.28734 1.30766 0
M  V30 6006 H 554.733 0.773407 3.88374 0
M  V30 6007 H 555.907 3.49385 3.00445 0
M  V30 6008 H 554.222 3.05178 2.83294 0
M  V30 6009 H 556.819 1.49087 5.13495 0
M  V30 6010 H 557.162 0.0814575 4.1622 0
M  V30 6011 H 557.695 1.68563 3.60321 0
M  V30 6012 H 554.434 4.41302 4.84698 0
M  V30 6013 H 553.954 2.76745 5.32139 0
M  V30 6014 H 555.633 3.31296 5.55745 0
M  V30 6015 N 555.766 -1.3263 0.851289 0
M  V30 6016 C 557.043 -1.91982 0.374448 0
M  V30 6017 C 557.423 -1.77568 -1.14161 0
M  V30 6018 O 556.771 -1.1717 -1.96172 0
M  V30 6019 C 556.981 -3.38862 0.835088 0
M  V30 6020 C 558.329 -4.15999 0.850309 0
M  V30 6021 O 559.353 -3.47566 0.779505 0
M  V30 6022 O 558.212 -5.38189 0.949481 0
M  V30 6023 H 555.306 -0.819846 0.10854 0
M  V30 6024 H 557.852 -1.41422 0.937966 0
M  V30 6025 H 556.624 -3.43281 1.87814 0
M  V30 6026 H 556.247 -3.96821 0.248833 0
M  V30 6027 N 557.244 -0.608902 -1.45362 0
M  V30 6028 C 558.207 0.0992563 -2.28985 0
M  V30 6029 C 559.207 0.793841 -1.39838 0
M  V30 6030 O 560.397 0.641804 -1.61946 0
M  V30 6031 C 557.529 1.15073 -3.20891 0
M  V30 6032 H 558.722 -0.635964 -2.93079 0
M  V30 6033 H 556.275 -0.368007 -1.51906 0
M  V30 6034 H 557.01 1.91667 -2.616 0
M  V30 6035 H 556.795 0.656867 -3.86559 0
M  V30 6036 H 558.285 1.64665 -3.83765 0
M  V30 6037 N 558.722 1.53707 -0.348139 0
M  V30 6038 C 559.685 2.23812 0.494058 0
M  V30 6039 C 560.685 1.23989 1.02388 0
M  V30 6040 O 561.875 1.48395 0.912396 0
M  V30 6041 C 559.007 2.96133 1.68872 0
M  V30 6042 H 560.2 2.99663 -0.119141 0
M  V30 6043 H 557.753 1.55983 -0.0995539 0
M  V30 6044 H 558.488 2.24481 2.34049 0
M  V30 6045 H 558.273 3.69357 1.31596 0
M  V30 6046 H 559.763 3.49475 2.28597 0
M  V30 6047 N 560.2 0.0768682 1.57412 0
M  V30 6048 C 561.446 -0.591961 1.93968 0
M  V30 6049 C 561.779 -1.68954 0.9575 0
M  V30 6050 O 561.054 -1.94496 -0.0124675 0
M  V30 6051 C 561.337 -1.16418 3.40762 0
M  V30 6052 C 561.19 -0.0728933 4.49741 0
M  V30 6053 C 562.509 -2.06814 3.88479 0
M  V30 6054 H 559.628 -0.213716 0.705333 0
M  V30 6055 H 562.27 0.14387 1.89455 0
M  V30 6056 H 560.42 -1.79128 3.4474 0
M  V30 6057 H 562.092 0.560446 4.57883 0
M  V30 6058 H 560.335 0.595859 4.29688 0
M  V30 6059 H 561.006 -0.513755 5.49604 0
M  V30 6060 H 563.482 -1.54033 3.8654 0
M  V30 6061 H 562.358 -2.43785 4.91793 0
M  V30 6062 H 562.619 -2.97844 3.26713 0
M  V30 6063 N 561.678 -1.56367 -0.196722 0
M  V30 6064 C 562.918 -1.82315 -0.92415 0
M  V30 6065 C 563.282 -0.654117 -1.80514 0
M  V30 6066 O 564.483 -0.79345 -2.56823 0
M  V30 6067 C 562.754 -3.13279 -1.72021 0
M  V30 6068 S 564.313 -3.60627 -2.49988 0
M  V30 6069 H 561.131 -0.639862 -0.309997 0
M  V30 6070 H 563.733 -1.94597 -0.187684 0
M  V30 6071 H 562.437 -3.96379 -1.06358 0
M  V30 6072 H 561.968 -3.03871 -2.49852 0
M  V30 6073 H 563.983 -3.25934 -3.74141 0
M  V30 6074 N 563.156 0.464375 -1.50603 0
M  V30 6075 C 564.433 1.22549 -1.5245 0
M  V30 6076 C 564.813 2.09327 -0.273035 0
M  V30 6077 O 564.161 2.16074 0.743242 0
M  V30 6078 C 564.371 2.05074 -2.82393 0
M  V30 6079 C 565.719 2.63036 -3.33313 0
M  V30 6080 O 566.743 2.1531 -2.8376 0
M  V30 6081 O 565.602 3.5001 -4.19709 0
M  V30 6082 H 562.696 0.556471 -0.611775 0
M  V30 6083 H 565.242 0.475648 -1.62898 0
M  V30 6084 H 564.014 1.41169 -3.64948 0
M  V30 6085 H 563.637 2.87179 -2.7498 0
M  V30 6086 N 564.634 1.40294 0.718013 0
M  V30 6087 C 565.581 1.40367 1.8321 0
M  V30 6088 C 566.551 0.260952 1.64037 0
M  V30 6089 O 567.736 0.458648 1.85205 0
M  V30 6090 C 564.876 1.26965 3.20895 0
M  V30 6091 C 563.989 2.50922 3.51656 0
M  V30 6092 C 563.124 2.29981 4.78834 0
M  V30 6093 C 562.163 3.49527 5.02491 0
M  V30 6094 N 561.3 3.27796 6.20882 0
M  V30 6095 H 566.14 2.35593 1.82482 0
M  V30 6096 H 563.677 1.17012 0.891444 0
M  V30 6097 H 565.635 1.17202 4.00399 0
M  V30 6098 H 564.265 0.353591 3.20858 0
M  V30 6099 H 563.317 2.71223 2.66725 0
M  V30 6100 H 564.629 3.39913 3.65048 0
M  V30 6101 H 563.783 2.17558 5.66351 0
M  V30 6102 H 562.522 1.38411 4.67647 0
M  V30 6103 H 561.527 3.6243 4.1343 0
M  V30 6104 H 562.752 4.42021 5.15553 0
M  V30 6105 H 560.698 2.38906 6.1095 0
M  V30 6106 H 560.615 4.10351 6.34939 0
M  V30 6107 H 561.883 3.19101 7.11193 0
M  V30 6108 N 566.112 -0.949982 1.2575 0
M  V30 6109 C 567.34 -1.72972 1.13527 0
M  V30 6110 C 567.755 -1.8623 -0.310453 0
M  V30 6111 O 567.112 -1.36336 -1.2132 0
M  V30 6112 C 567.163 -3.14108 1.78936 0
M  V30 6113 O 566.884 -3.01493 3.17858 0
M  V30 6114 C 568.385 -4.08338 1.72554 0
M  V30 6115 H 565.605 -0.541864 0.395758 0
M  V30 6116 H 568.149 -1.19151 1.66202 0
M  V30 6117 H 566.304 -3.64858 1.30221 0
M  V30 6118 H 566.718 -3.90559 3.50092 0
M  V30 6119 H 568.192 -5.04963 2.22973 0
M  V30 6120 H 568.669 -4.33742 0.690251 0
M  V30 6121 H 569.275 -3.63506 2.2078 0
M  V30 6122 N 567.59 -1.07411 -1.15328 0
M  V30 6123 C 568.818 -0.818782 -1.90009 0
M  V30 6124 C 569.233 0.628072 -1.78047 0
M  V30 6125 O 568.59 1.43085 -1.13282 0
M  V30 6126 C 568.641 -1.21874 -3.40337 0
M  V30 6127 O 568.362 -2.60883 -3.51954 0
M  V30 6128 C 569.863 -0.992796 -4.3204 0
M  V30 6129 H 567.083 -0.296007 -0.60218 0
M  V30 6130 H 569.627 -1.43073 -1.46117 0
M  V30 6131 H 567.782 -0.651103 -3.81889 0
M  V30 6132 H 568.196 -2.77216 -4.45255 0
M  V30 6133 H 569.67 -1.32215 -5.35932 0
M  V30 6134 H 570.147 0.0708331 -4.39143 0
M  V30 6135 H 570.753 -1.54537 -3.9623 0
M  V30 6136 N 569.068 1.32177 -0.85831 0
M  V30 6137 C 570.484 1.49873 -0.548656 0
M  V30 6138 C 570.684 1.79278 0.919874 0
M  V30 6139 O 569.74 1.86451 1.70271 0
M  V30 6140 C 571.053 2.64043 -1.4388 0
M  V30 6141 C 572.601 2.77928 -1.43961 0
M  V30 6142 C 573.076 3.95182 -2.31506 0
M  V30 6143 N 574.567 4.0245 -2.29321 0
M  V30 6144 C 575.302 4.9242 -2.93786 0
M  V30 6145 N 574.798 5.87373 -3.67376 0
M  V30 6146 N 576.591 4.85572 -2.83155 0
M  V30 6147 H 568.742 1.11357 -1.80868 0
M  V30 6148 H 571.005 0.549175 -0.772729 0
M  V30 6149 H 570.711 2.49055 -2.48324 0
M  V30 6150 H 570.585 3.59912 -1.12885 0
M  V30 6151 H 572.972 2.92338 -0.402813 0
M  V30 6152 H 573.053 1.82762 -1.78974 0
M  V30 6153 H 572.697 3.81531 -3.35256 0
M  V30 6154 H 572.627 4.89633 -1.93823 0
M  V30 6155 H 575.118 3.34507 -1.75822 0
M  V30 6156 H 575.431 6.52728 -4.13722 0
M  V30 6157 H 573.776 5.87388 -3.71484 0
M  V30 6158 H 576.967 4.10363 -2.25211 0
M  V30 6159 H 577.14 5.55486 -3.33676 0
M  V30 6160 N 570.547 0.616602 1.45037 0
M  V30 6161 C 571.494 -0.0969439 2.30596 0
M  V30 6162 C 572.464 -0.851151 1.42635 0
M  V30 6163 O 573.649 -0.835092 1.71554 0
M  V30 6164 C 570.789 -1.08234 3.27688 0
M  V30 6165 C 569.902 -0.328072 4.30752 0
M  V30 6166 C 569.037 -1.30399 5.14946 0
M  V30 6167 C 568.076 -0.538049 6.09731 0
M  V30 6168 N 567.213 -1.46371 6.86673 0
M  V30 6169 H 572.053 0.63864 2.91076 0
M  V30 6170 H 569.59 0.326733 1.43425 0
M  V30 6171 H 571.548 -1.66688 3.82454 0
M  V30 6172 H 570.178 -1.78523 2.68941 0
M  V30 6173 H 569.23 0.372136 3.78575 0
M  V30 6174 H 570.542 0.269142 4.98073 0
M  V30 6175 H 569.696 -1.96032 5.74157 0
M  V30 6176 H 568.435 -1.93514 4.47665 0
M  V30 6177 H 567.44 0.131852 5.49642 0
M  V30 6178 H 568.665 0.0881732 6.79043 0
M  V30 6179 H 566.611 -2.08233 6.22073 0
M  V30 6180 H 566.528 -0.920152 7.50379 0
M  V30 6181 H 567.796 -2.10932 7.50418 0
M  V30 6182 N 572.025 -1.5352 0.356285 0
M  V30 6183 C 573.253 -2.05534 -0.237328 0
M  V30 6184 C 573.668 -1.23043 -1.43199 0
M  V30 6185 O 573.025 -0.268821 -1.80509 0
M  V30 6186 C 573.076 -3.55791 -0.639933 0
M  V30 6187 O 572.797 -4.35154 0.507233 0
M  V30 6188 C 574.298 -4.24027 -1.29292 0
M  V30 6189 H 571.518 -0.669585 -0.0435572 0
M  V30 6190 H 574.062 -1.97988 0.511963 0
M  V30 6191 H 572.217 -3.63518 -1.33915 0
M  V30 6192 H 572.631 -5.24178 0.18375 0
M  V30 6193 H 574.105 -5.30509 -1.52527 0
M  V30 6194 H 574.582 -3.77166 -2.25039 0
M  V30 6195 H 575.188 -4.20527 -0.63539 0
M  V30 6196 N 573.503 -0.0852151 -1.57369 0
M  V30 6197 C 574.733 0.588605 -1.98038 0
M  V30 6198 C 575.141 1.62869 -0.962817 0
M  V30 6199 O 574.484 1.83611 0.057134 0
M  V30 6200 C 574.546 1.30303 -3.35054 0
M  V30 6201 C 574.21 0.414855 -4.55113 0
M  V30 6202 C 575.207 -0.333011 -5.18832 0
M  V30 6203 C 572.892 0.335804 -5.01176 0
M  V30 6204 C 574.886 -1.14801 -6.26976 0
M  V30 6205 C 572.573 -0.482857 -6.09189 0
M  V30 6206 C 573.571 -1.22342 -6.71953 0
M  V30 6207 O 573.259 -2.02855 -7.77885 0
M  V30 6208 H 572.991 0.163249 -0.655992 0
M  V30 6209 H 575.545 -0.1582 -2.0479 0
M  V30 6210 H 573.775 2.0962 -3.24956 0
M  V30 6211 H 575.464 1.87041 -3.60237 0
M  V30 6212 H 576.23 -0.281611 -4.84182 0
M  V30 6213 H 572.109 0.901869 -4.52092 0
M  V30 6214 H 575.653 -1.72654 -6.75897 0
M  V30 6215 H 571.55 -0.535773 -6.43273 0
M  V30 6216 H 572.318 -1.95432 -7.94826 0
M  V30 6217 N 574.981 1.5647 0.188427 0
M  V30 6218 C 576.228 1.81013 0.907779 0
M  V30 6219 C 576.556 0.65953 1.82977 0
M  V30 6220 O 575.811 -0.354308 1.92466 0
M  V30 6221 C 576.11 3.11596 1.7505 0
M  V30 6222 C 575.776 4.40145 0.978922 0
M  V30 6223 C 574.438 4.75066 0.765912 0
M  V30 6224 C 576.79 5.19369 0.436498 0
M  V30 6225 C 574.118 5.867 -0.00089868 0
M  V30 6226 C 576.47 6.31805 -0.317136 0
M  V30 6227 C 575.134 6.65303 -0.541103 0
M  V30 6228 H 574.404 0.662373 0.33218 0
M  V30 6229 H 577.051 1.9071 0.173732 0
M  V30 6230 H 575.356 2.97165 2.55343 0
M  V30 6231 H 577.053 3.27793 2.30983 0
M  V30 6232 H 573.643 4.12745 1.15497 0
M  V30 6233 H 577.827 4.92799 0.588449 0
M  V30 6234 H 573.083 6.11122 -0.184329 0
M  V30 6235 H 577.257 6.92406 -0.744788 0
M  V30 6236 H 574.884 7.51646 -1.13718 0
M  V30 6237 N 576.459 -0.456382 1.50847 0
M  V30 6238 C 577.706 -1.20736 1.62571 0
M  V30 6239 C 578.034 -1.9163 0.332904 0
M  V30 6240 O 577.289 -1.8343 -0.682058 0
M  V30 6241 C 577.588 -2.26336 2.76599 0
M  V30 6242 C 577.254 -1.7259 4.16562 0
M  V30 6243 C 575.916 -1.57654 4.54641 0
M  V30 6244 C 578.268 -1.32877 5.03977 0
M  V30 6245 C 575.596 -1.0145 5.77862 0
M  V30 6246 C 577.948 -0.7811 6.27759 0
M  V30 6247 C 576.612 -0.618488 6.64628 0
M  V30 6248 H 575.882 -0.441803 0.594888 0
M  V30 6249 H 578.529 -0.501169 1.84826 0
M  V30 6250 H 576.834 -3.0292 2.48489 0
M  V30 6251 H 578.531 -2.84227 2.82871 0
M  V30 6252 H 575.121 -1.85187 3.86528 0
M  V30 6253 H 579.305 -1.43245 4.75179 0
M  V30 6254 H 574.561 -0.876109 6.0509 0
M  V30 6255 H 578.735 -0.464783 6.94847 0
M  V30 6256 H 576.362 -0.180838 7.59985 0
M  V30 6257 N 577.937 -1.40673 -0.710563 0
M  V30 6258 C 579.183 -1.39428 -1.47267 0
M  V30 6259 C 579.516 0.00182129 -1.942 0
M  V30 6260 O 578.791 0.971387 -1.68506 0
M  V30 6261 C 579.074 -2.38812 -2.6952 0
M  V30 6262 C 578.927 -3.87467 -2.28449 0
M  V30 6263 C 580.246 -2.3566 -3.71689 0
M  V30 6264 H 577.365 -0.507768 -0.534173 0
M  V30 6265 H 580.007 -1.71843 -0.810547 0
M  V30 6266 H 578.157 -2.113 -3.26013 0
M  V30 6267 H 579.829 -4.25825 -1.77399 0
M  V30 6268 H 578.072 -4.03058 -1.60395 0
M  V30 6269 H 578.743 -4.5253 -3.16103 0
M  V30 6270 H 581.219 -2.6004 -3.24836 0
M  V30 6271 H 580.095 -3.07237 -4.54859 0
M  V30 6272 H 580.356 -1.36996 -4.20339 0
M  V30 6273 N 579.415 0.9433 -1.26252 0
M  V30 6274 C 580.663 1.68592 -1.11451 0
M  V30 6275 C 580.984 1.91957 0.343123 0
M  V30 6276 O 580.254 1.51475 1.24226 0
M  V30 6277 H 578.834 0.624789 -0.409448 0
M  V30 6278 H 581.496 1.13351 -1.58548 0
M  V30 6279 H 580.592 2.66054 -1.63162 0
M  V30 6280 N 580.893 1.08022 1.14757 0
M  V30 6281 C 582.142 0.802468 1.8505 0
M  V30 6282 C 582.455 -0.674061 1.83619 0
M  V30 6283 O 583.661 -1.06683 2.49662 0
M  V30 6284 C 582.117 1.38551 3.32162 0
M  V30 6285 C 581.725 2.89354 3.42021 0
M  V30 6286 C 583.469 1.18608 4.07594 0
M  V30 6287 C 581.376 3.40815 4.83321 0
M  V30 6288 H 580.306 0.296518 0.693248 0
M  V30 6289 H 582.957 1.30114 1.29393 0
M  V30 6290 H 581.339 0.814556 3.87532 0
M  V30 6291 H 582.513 3.52552 2.96722 0
M  V30 6292 H 580.828 3.08165 2.80041 0
M  V30 6293 H 583.425 1.54525 5.11885 0
M  V30 6294 H 583.768 0.125599 4.1611 0
M  V30 6295 H 584.301 1.72375 3.58513 0
M  V30 6296 H 581.04 4.46418 4.79991 0
M  V30 6297 H 580.56 2.82374 5.29174 0
M  V30 6298 H 582.239 3.37171 5.522 0
M  V30 6299 N 582.371 -1.3172 0.865308 0
M  V30 6300 C 583.617 -1.97559 0.483944 0
M  V30 6301 C 583.972 -1.67181 -0.95227 0
M  V30 6302 O 583.265 -0.955392 -1.66081 0
M  V30 6303 C 583.459 -3.5102 0.672283 0
M  V30 6304 C 583.288 -3.96312 2.12525 0
M  V30 6305 C 582.058 -4.22877 2.76591 0
M  V30 6306 C 584.256 -4.10596 3.09702 0
M  V30 6307 N 582.238 -4.5449 4.12689 0
M  V30 6308 C 583.609 -4.45867 4.30816 0
M  V30 6309 C 585.664 -3.92961 3.05755 0
M  V30 6310 C 584.367 -4.65344 5.48495 0
M  V30 6311 C 586.393 -4.13628 4.22688 0
M  V30 6312 C 585.755 -4.49227 5.42563 0
M  V30 6313 H 581.854 -0.74862 0.226035 0
M  V30 6314 H 584.438 -1.59336 1.11893 0
M  V30 6315 H 582.609 -3.88342 0.0669224 0
M  V30 6316 H 584.341 -4.03865 0.259765 0
M  V30 6317 H 581.096 -4.15343 2.27567 0
M  V30 6318 H 581.52 -4.74464 4.82921 0
M  V30 6319 H 586.162 -3.64531 2.14188 0
M  V30 6320 H 583.88 -4.92624 6.40584 0
M  V30 6321 H 587.466 -4.01474 4.21082 0
M  V30 6322 H 586.346 -4.64895 6.31539 0
M  V30 6323 N 583.85 -0.624285 -1.44708 0
M  V30 6324 C 585.09 -0.129273 -2.03991 0
M  V30 6325 C 585.454 1.22321 -1.47992 0
M  V30 6326 O 586.654 1.80993 -1.98734 0
M  V30 6327 C 584.926 -0.108231 -3.57236 0
M  V30 6328 S 586.485 0.323158 -4.37608 0
M  V30 6329 H 583.303 -0.0577318 -0.708652 0
M  V30 6330 H 585.904 -0.826139 -1.77187 0
M  V30 6331 H 584.609 -1.0958 -3.955 0
M  V30 6332 H 584.139 0.610101 -3.8864 0
M  V30 6333 H 586.154 1.56894 -4.70743 0
M  V30 6334 N 585.328 1.53329 -0.364422 0
M  V30 6335 C 586.574 2.02222 0.21855 0
M  V30 6336 C 586.929 1.24702 1.46517 0
M  V30 6337 O 586.222 0.331969 1.88702 0
M  V30 6338 C 586.416 3.52911 0.564661 0
M  V30 6339 C 586.245 4.45023 -0.646862 0
M  V30 6340 C 585.015 4.91838 -1.15858 0
M  V30 6341 C 587.213 4.91581 -1.51172 0
M  V30 6342 N 585.195 5.67955 -2.33025 0
M  V30 6343 C 586.566 5.66028 -2.53006 0
M  V30 6344 C 588.621 4.73656 -1.53473 0
M  V30 6345 C 587.324 6.24457 -3.56996 0
M  V30 6346 C 589.35 5.3295 -2.56356 0
M  V30 6347 C 588.712 6.07282 -3.56914 0
M  V30 6348 H 584.811 0.780832 0.0427199 0
M  V30 6349 H 587.395 1.87937 -0.508704 0
M  V30 6350 H 585.566 3.6736 1.26099 0
M  V30 6351 H 587.298 3.88528 1.13262 0
M  V30 6352 H 584.053 4.68043 -0.723393 0
M  V30 6353 H 584.477 6.10675 -2.92241 0
M  V30 6354 H 589.119 4.15714 -0.770842 0
M  V30 6355 H 586.837 6.81496 -4.34268 0
M  V30 6356 H 590.423 5.20976 -2.58989 0
M  V30 6357 H 589.303 6.52345 -4.35218 0
M  V30 6358 N 586.806 0.0935595 1.57322 0
M  V30 6359 C 588.222 -0.263091 1.57417 0
M  V30 6360 C 588.422 -1.68526 1.1046 0
M  V30 6361 O 587.478 -2.40139 0.780357 0
M  V30 6362 C 588.791 -0.0529201 3.00653 0
M  V30 6363 C 590.339 -0.120788 3.12767 0
M  V30 6364 C 590.814 0.0613707 4.57959 0
M  V30 6365 N 592.305 0.00648534 4.632 0
M  V30 6366 C 593.04 0.122699 5.73269 0
M  V30 6367 N 592.536 0.29366 6.92177 0
M  V30 6368 N 594.329 0.0640787 5.62063 0
M  V30 6369 H 586.48 1.02277 1.86154 0
M  V30 6370 H 588.743 0.4007 0.859153 0
M  V30 6371 H 588.449 0.929279 3.39201 0
M  V30 6372 H 588.323 -0.795899 3.68708 0
M  V30 6373 H 590.71 -1.09349 2.74093 0
M  V30 6374 H 590.791 0.653656 2.47307 0
M  V30 6375 H 590.435 1.03093 4.97327 0
M  V30 6376 H 590.365 -0.732748 5.21477 0
M  V30 6377 H 592.856 -0.123173 3.77699 0
M  V30 6378 H 593.169 0.37389 7.71895 0
M  V30 6379 H 591.514 0.329307 6.94219 0
M  V30 6380 H 594.705 -0.0683396 4.6805 0
M  V30 6381 H 594.878 0.158097 6.47807 0
M  V30 6382 N 588.284 -1.56567 -0.180126 0
M  V30 6383 C 589.531 -1.81492 -0.898167 0
M  V30 6384 C 589.859 -0.669225 -1.82624 0
M  V30 6385 O 589.114 0.344096 -1.92651 0
M  V30 6386 C 589.413 -3.1252 -1.73395 0
M  V30 6387 C 589.079 -4.40658 -0.955567 0
M  V30 6388 C 587.741 -4.75465 -0.740707 0
M  V30 6389 C 590.093 -5.19593 -0.408948 0
M  V30 6390 C 587.421 -5.86691 0.0320128 0
M  V30 6391 C 589.773 -6.31627 0.350638 0
M  V30 6392 C 588.437 -6.65007 0.576378 0
M  V30 6393 H 587.707 -0.664125 -0.328662 0
M  V30 6394 H 590.354 -1.908 -0.163616 0
M  V30 6395 H 588.659 -2.98515 -2.53763 0
M  V30 6396 H 590.356 -3.29013 -2.29241 0
M  V30 6397 H 586.946 -4.13352 -1.13306 0
M  V30 6398 H 591.13 -4.93104 -0.562307 0
M  V30 6399 H 586.386 -6.11016 0.216735 0
M  V30 6400 H 590.56 -6.92001 0.781497 0
M  V30 6401 H 588.187 -7.51033 1.17703 0
M  V30 6402 N 589.762 0.448376 -1.51087 0
M  V30 6403 C 591.039 1.20926 -1.53741 0
M  V30 6404 C 591.419 2.09025 -0.295222 0
M  V30 6405 O 590.767 2.16851 0.720283 0
M  V30 6406 C 590.977 2.02067 -2.84552 0
M  V30 6407 C 592.325 2.59486 -3.36084 0
M  V30 6408 O 593.349 2.12289 -2.86028 0
M  V30 6409 O 592.208 3.45539 -4.23397 0
M  V30 6410 H 589.302 0.549951 -0.617643 0
M  V30 6411 H 591.848 0.458344 -1.63393 0
M  V30 6412 H 590.62 1.37291 -3.66425 0
M  V30 6413 H 590.243 2.84246 -2.78011 0
M  V30 6414 N 591.24 1.41047 0.703093 0
M  V30 6415 C 592.15 1.44645 1.84703 0
M  V30 6416 C 593.166 0.337778 1.7069 0
M  V30 6417 O 594.342 0.584327 1.92737 0
M  V30 6418 C 591.407 1.31928 3.20618 0
M  V30 6419 C 590.468 2.53047 3.46794 0
M  V30 6420 C 589.701 2.40927 4.76224 0
M  V30 6421 O 589.924 1.42978 5.5219 0
M  V30 6422 O 588.858 3.30543 5.03016 0
M  V30 6423 H 592.684 2.41139 1.84624 0
M  V30 6424 H 590.269 1.22504 0.855167 0
M  V30 6425 H 592.151 1.27092 4.01778 0
M  V30 6426 H 590.826 0.385469 3.21397 0
M  V30 6427 H 589.733 2.6346 2.65593 0
M  V30 6428 H 591.066 3.45231 3.50822 0
M  V30 6429 N 592.718 -0.936591 1.26751 0
M  V30 6430 C 593.651 -2.03619 1.03027 0
M  V30 6431 C 594.629 -1.62534 -0.0464619 0
M  V30 6432 O 595.813 -1.88251 0.0968873 0
M  V30 6433 C 592.94 -3.3402 0.561072 0
M  V30 6434 C 591.986 -3.9408 1.63105 0
M  V30 6435 S 592.819 -4.27782 3.22122 0
M  V30 6436 C 593.975 -5.61277 2.76982 0
M  V30 6437 H 594.208 -2.23429 1.96129 0
M  V30 6438 H 591.741 -1.07857 1.10482 0
M  V30 6439 H 593.699 -4.09424 0.297031 0
M  V30 6440 H 592.36 -3.12147 -0.349741 0
M  V30 6441 H 591.553 -4.88154 1.25386 0
M  V30 6442 H 591.155 -3.25227 1.84671 0
M  V30 6443 H 593.447 -6.40189 2.21731 0
M  V30 6444 H 594.39 -6.03887 3.69766 0
M  V30 6445 H 594.798 -5.21374 2.16402 0
M  V30 6446 N 594.196 -1.08629 -1.14182 0
M  V30 6447 C 595.424 -0.838889 -1.8913 0
M  V30 6448 C 595.839 0.609153 -1.78703 0
M  V30 6449 O 595.196 1.41876 -1.14794 0
M  V30 6450 C 595.247 -1.25477 -3.39025 0
M  V30 6451 O 594.968 -2.64601 -3.49167 0
M  V30 6452 C 596.469 -1.03856 -4.30963 0
M  V30 6453 H 593.689 -0.302377 -0.599007 0
M  V30 6454 H 596.233 -1.44615 -1.44592 0
M  V30 6455 H 594.388 -0.691571 -3.81177 0
M  V30 6456 H 594.802 -2.81922 -4.42289 0
M  V30 6457 H 596.276 -1.37892 -5.345 0
M  V30 6458 H 596.753 0.0242522 -4.39193 0
M  V30 6459 H 597.359 -1.58731 -3.94569 0
M  V30 6460 N 595.674 1.31259 -0.872281 0
M  V30 6461 C 596.606 2.27396 -0.28697 0
M  V30 6462 C 597.619 1.53181 0.551297 0
M  V30 6463 O 598.808 1.74561 0.372914 0
M  V30 6464 C 595.908 3.33335 0.611617 0
M  V30 6465 C 595.081 4.36966 -0.194729 0
M  V30 6466 C 594.14 5.22387 0.632358 0
M  V30 6467 O 593.166 5.69169 0.0595691 0
M  V30 6468 N 594.368 5.46985 1.94391 0
M  V30 6469 H 597.133 2.78261 -1.11314 0
M  V30 6470 H 594.694 1.44306 -0.733994 0
M  V30 6471 H 596.686 3.87398 1.17068 0
M  V30 6472 H 595.256 2.82496 1.33846 0
M  V30 6473 H 594.476 3.82945 -0.935241 0
M  V30 6474 H 595.764 5.03273 -0.747935 0
M  V30 6475 H 595.162 5.10737 2.43237 0
M  V30 6476 H 593.719 6.03973 2.45071 0
M  V30 6477 N 597.152 0.631951 1.44375 0
M  V30 6478 C 598.38 0.143867 2.06399 0
M  V30 6479 C 598.795 -1.18188 1.47231 0
M  V30 6480 O 598.152 -1.72511 0.595498 0
M  V30 6481 C 598.203 0.0238253 3.61492 0
M  V30 6482 O 597.924 1.29715 4.18456 0
M  V30 6483 C 599.425 -0.492856 4.40552 0
M  V30 6484 H 596.645 0.0800542 0.666207 0
M  V30 6485 H 599.189 0.866586 1.85231 0
M  V30 6486 H 597.344 -0.649338 3.81919 0
M  V30 6487 H 597.758 1.14252 5.11905 0
M  V30 6488 H 599.232 -0.525861 5.49489 0
M  V30 6489 H 599.709 -1.52006 4.12057 0
M  V30 6490 H 600.315 0.147085 4.25046 0
M  V30 6491 N 598.631 -1.53133 0.372548 0
M  V30 6492 C 599.564 -2.22328 -0.514361 0
M  V30 6493 C 600.542 -1.21776 -1.07747 0
M  V30 6494 O 601.726 -1.50704 -1.13228 0
M  V30 6495 C 598.853 -2.92343 -1.71035 0
M  V30 6496 C 597.899 -4.07026 -1.27405 0
M  V30 6497 S 598.732 -5.34821 -0.269526 0
M  V30 6498 C 599.888 -6.08352 -1.47168 0
M  V30 6499 H 600.121 -2.9721 0.0732683 0
M  V30 6500 H 597.654 -1.53603 0.156673 0
M  V30 6501 H 599.612 -3.33296 -2.39634 0
M  V30 6502 H 598.273 -2.17173 -2.26925 0
M  V30 6503 H 597.466 -4.55056 -2.16656 0
M  V30 6504 H 597.068 -3.68001 -0.66719 0
M  V30 6505 H 599.36 -6.33507 -2.40157 0
M  V30 6506 H 600.303 -7.0053 -1.03263 0
M  V30 6507 H 600.711 -5.38893 -1.6809 0
M  V30 6508 N 600.109 -0.101901 -1.5727 0
M  V30 6509 C 601.386 0.602832 -1.86079 0
M  V30 6510 C 601.766 1.85912 -1 0
M  V30 6511 O 601.114 2.28379 -0.0742488 0
M  V30 6512 C 601.324 0.911694 -3.36881 0
M  V30 6513 C 602.672 1.2722 -4.05093 0
M  V30 6514 O 603.696 1.0025 -3.41802 0
M  V30 6515 O 602.555 1.7776 -5.16782 0
M  V30 6516 H 599.649 0.302366 -0.769743 0
M  V30 6517 H 602.195 -0.135113 -1.69161 0
M  V30 6518 H 600.967 0.0207256 -3.91295 0
M  V30 6519 H 600.59 1.70538 -3.59169 0
M  V30 6520 N 601.587 1.56661 0.17182 0
M  V30 6521 C 602.534 1.96371 1.21273 0
M  V30 6522 C 603.504 0.82756 1.44016 0
M  V30 6523 O 604.689 1.08764 1.56764 0
M  V30 6524 C 601.829 2.32838 2.54716 0
M  V30 6525 C 600.942 3.59628 2.39356 0
M  V30 6526 C 600.077 3.85311 3.65662 0
M  V30 6527 C 599.116 5.0545 3.45234 0
M  V30 6528 N 598.253 5.27268 4.63608 0
M  V30 6529 H 603.093 2.85106 0.86709 0
M  V30 6530 H 600.63 1.41073 0.416744 0
M  V30 6531 H 602.588 2.52004 3.3249 0
M  V30 6532 H 601.218 1.47214 2.87277 0
M  V30 6533 H 600.27 3.4838 1.52761 0
M  V30 6534 H 601.582 4.4756 2.20207 0
M  V30 6535 H 600.736 4.04841 4.51872 0
M  V30 6536 H 599.475 2.95753 3.8779 0
M  V30 6537 H 598.48 4.85819 2.5741 0
M  V30 6538 H 599.705 5.96538 3.24529 0
M  V30 6539 H 597.651 4.40662 4.85956 0
M  V30 6540 H 597.568 6.09422 4.4737 0
M  V30 6541 H 598.836 5.51277 5.51103 0
M  V30 6542 N 603.065 -0.440357 1.51323 0
M  V30 6543 C 604.313 -1.18769 1.63518 0
M  V30 6544 C 604.634 -1.91793 0.352201 0
M  V30 6545 O 603.904 -1.85432 -0.631811 0
M  V30 6546 H 602.484 -0.441408 0.602634 0
M  V30 6547 H 605.146 -0.505162 1.8824 0
M  V30 6548 H 604.242 -1.91892 2.46138 0
M  V30 6549 N 604.543 -1.41418 -0.695603 0
M  V30 6550 C 605.79 -1.40774 -1.45564 0
M  V30 6551 C 606.118 -0.0168604 -1.94493 0
M  V30 6552 O 605.373 0.971259 -1.69897 0
M  V30 6553 C 605.672 -2.36112 -2.68302 0
M  V30 6554 C 605.338 -3.82952 -2.38031 0
M  V30 6555 C 604 -4.22954 -2.29486 0
M  V30 6556 C 606.352 -4.75662 -2.13061 0
M  V30 6557 C 603.68 -5.53674 -1.94067 0
M  V30 6558 C 606.032 -6.06702 -1.79151 0
M  V30 6559 C 604.696 -6.45725 -1.69102 0
M  V30 6560 H 603.966 -0.515128 -0.532658 0
M  V30 6561 H 606.613 -1.74216 -0.795047 0
M  V30 6562 H 604.918 -1.95924 -3.39295 0
M  V30 6563 H 606.615 -2.32887 -3.26442 0
M  V30 6564 H 603.205 -3.5127 -2.45576 0
M  V30 6565 H 607.389 -4.45561 -2.18608 0
M  V30 6566 H 602.645 -5.8279 -1.8484 0
M  V30 6567 H 606.819 -6.78041 -1.5885 0
M  V30 6568 H 604.446 -7.46929 -1.41426 0
M  V30 6569 N 606.021 0.929856 -1.27246 0
M  V30 6570 C 607.432 1.49223 -1.12203 0
M  V30 6571 C 607.783 1.93989 0.293731 0
M  V30 6572 O 606.908 1.80978 1.18642 0
M  V30 6573 C 607.503 2.71198 -2.0307 0
M  V30 6574 C 606.062 3.23666 -1.92139 0
M  V30 6575 C 605.209 1.96409 -1.95752 0
M  V30 6576 H 608.16 0.744181 -1.4017 0
M  V30 6577 H 608.181 3.45905 -1.58524 0
M  V30 6578 H 607.693 2.38585 -3.06102 0
M  V30 6579 H 605.794 3.61042 -0.920834 0
M  V30 6580 H 605.907 3.90006 -2.78267 0
M  V30 6581 H 604.271 2.12806 -1.39949 0
M  V30 6582 H 605.054 1.66113 -3.00436 0
M  V30 6583 N 607.499 1.09233 1.13605 0
M  V30 6584 C 608.431 0.687794 2.18637 0
M  V30 6585 C 609.444 -0.26936 1.60556 0
M  V30 6586 O 610.633 -0.0557162 1.78413 0
M  V30 6587 C 607.733 -0.00751901 3.38899 0
M  V30 6588 C 606.906 0.97067 4.26494 0
M  V30 6589 C 605.965 0.309129 5.25291 0
M  V30 6590 O 604.991 0.956149 5.61112 0
M  V30 6591 N 606.193 -0.937555 5.72879 0
M  V30 6592 H 608.958 1.59141 2.53957 0
M  V30 6593 H 606.519 0.979515 1.28907 0
M  V30 6594 H 608.511 -0.461238 4.02063 0
M  V30 6595 H 607.081 -0.813353 3.01833 0
M  V30 6596 H 606.301 1.603 3.60135 0
M  V30 6597 H 607.589 1.63323 4.81875 0
M  V30 6598 H 606.987 -1.48281 5.4592 0
M  V30 6599 H 605.544 -1.33463 6.3799 0
M  V30 6600 N 608.977 -1.30795 0.87923 0
M  V30 6601 C 610.393 -1.48981 0.57243 0
M  V30 6602 C 610.593 -1.80719 -0.891236 0
M  V30 6603 O 609.649 -1.89136 -1.67283 0
M  V30 6604 C 610.962 -2.61721 1.48063 0
M  V30 6605 C 612.51 -2.75603 1.48365 0
M  V30 6606 C 612.985 -3.91449 2.37763 0
M  V30 6607 N 614.476 -3.98751 2.35695 0
M  V30 6608 C 615.211 -4.87684 3.01583 0
M  V30 6609 N 614.707 -5.81454 3.76674 0
M  V30 6610 N 616.5 -4.81005 2.90844 0
M  V30 6611 H 608.651 -1.08465 1.82617 0
M  V30 6612 H 610.914 -0.536813 0.781368 0
M  V30 6613 H 610.62 -2.45073 2.52254 0
M  V30 6614 H 610.494 -3.58071 1.18596 0
M  V30 6615 H 612.881 -2.9166 0.44927 0
M  V30 6616 H 612.962 -1.79891 1.81859 0
M  V30 6617 H 612.606 -3.76149 3.41283 0
M  V30 6618 H 612.536 -4.86487 2.01589 0
M  V30 6619 H 615.027 -3.31668 1.81121 0
M  V30 6620 H 615.34 -6.46063 4.24054 0
M  V30 6621 H 613.685 -5.81403 3.80782 0
M  V30 6622 H 616.876 -4.06728 2.31711 0
M  V30 6623 H 617.049 -5.50107 3.42471 0
M  V30 6624 N 610.455 -0.639598 -1.44038 0
M  V30 6625 C 611.701 -0.147698 -2.02261 0
M  V30 6626 C 612.034 1.23031 -1.50256 0
M  V30 6627 O 611.309 1.81847 -0.690068 0
M  V30 6628 C 611.592 -0.14362 -3.59813 0
M  V30 6629 C 611.445 -1.55458 -4.22082 0
M  V30 6630 C 612.764 0.527317 -4.36929 0
M  V30 6631 H 609.883 -0.0551453 -0.734934 0
M  V30 6632 H 612.525 -0.817688 -1.71505 0
M  V30 6633 H 610.675 0.426898 -3.86147 0
M  V30 6634 H 612.347 -2.17464 -4.06826 0
M  V30 6635 H 610.59 -2.10594 -3.79253 0
M  V30 6636 H 611.261 -1.50369 -5.31124 0
M  V30 6637 H 613.737 0.0420504 -4.16079 0
M  V30 6638 H 612.613 0.499389 -5.46624 0
M  V30 6639 H 612.874 1.59914 -4.12165 0
M  V30 6640 N 611.933 1.52934 -0.380664 0
M  V30 6641 C 613.179 2.01765 0.20458 0
M  V30 6642 C 613.512 1.26696 1.47179 0
M  V30 6643 O 612.787 0.364936 1.91046 0
M  V30 6644 C 613.07 3.56869 0.481269 0
M  V30 6645 C 612.923 4.42617 -0.800629 0
M  V30 6646 C 614.242 4.2121 1.27554 0
M  V30 6647 H 611.361 0.733388 0.0728803 0
M  V30 6648 H 614.003 1.83068 -0.50853 0
M  V30 6649 H 612.153 3.72932 1.08875 0
M  V30 6650 H 613.825 4.38323 -1.43773 0
M  V30 6651 H 612.068 4.09977 -1.4178 0
M  V30 6652 H 612.739 5.49134 -0.561791 0
M  V30 6653 H 615.215 4.09072 0.761514 0
M  V30 6654 H 614.091 5.29732 1.43788 0
M  V30 6655 H 614.352 3.78269 2.28833 0
M  V30 6656 N 613.412 0.11024 1.57214 0
M  V30 6657 C 614.359 -0.843195 2.14846 0
M  V30 6658 C 615.329 -1.26954 1.07107 0
M  V30 6659 O 616.514 -1.34861 1.34971 0
M  V30 6660 C 613.654 -2.09123 2.74521 0
M  V30 6661 C 612.767 -1.71404 3.96541 0
M  V30 6662 C 611.902 -2.91107 4.44331 0
M  V30 6663 C 610.941 -2.49586 5.58903 0
M  V30 6664 N 610.078 -3.62175 6.01477 0
M  V30 6665 H 614.918 -0.344886 2.95998 0
M  V30 6666 H 612.455 -0.15855 1.46243 0
M  V30 6667 H 614.413 -2.82234 3.07246 0
M  V30 6668 H 613.043 -2.56427 1.96074 0
M  V30 6669 H 612.095 -0.88201 3.70033 0
M  V30 6670 H 613.407 -1.36884 4.7965 0
M  V30 6671 H 612.561 -3.72454 4.78919 0
M  V30 6672 H 611.3 -3.28848 3.60153 0
M  V30 6673 H 610.305 -1.6667 5.23929 0
M  V30 6674 H 611.53 -2.12973 6.4484 0
M  V30 6675 H 609.476 -3.99605 5.20242 0
M  V30 6676 H 609.393 -3.3155 6.79419 0
M  V30 6677 H 610.661 -4.43987 6.407 0
M  V30 6678 N 614.89 -1.56749 -0.16351 0
M  V30 6679 C 615.84 -1.93424 -1.20712 0
M  V30 6680 C 616.824 -0.803469 -1.39403 0
M  V30 6681 O 618.016 -1.06675 -1.41243 0
M  V30 6682 C 615.145 -2.30431 -2.54473 0
M  V30 6683 C 614.231 -3.5004 -2.39443 0
M  V30 6684 N 614.622 -4.67058 -1.9414 0
M  V30 6685 C 612.92 -3.548 -2.70246 0
M  V30 6686 C 613.621 -5.49184 -1.9176 0
M  V30 6687 N 612.597 -4.9044 -2.34457 0
M  V30 6688 H 616.399 -2.8138 -0.848681 0
M  V30 6689 H 613.913 -1.58089 -0.371717 0
M  V30 6690 H 615.91 -2.54903 -3.29894 0
M  V30 6691 H 614.57 -1.43818 -2.91112 0
M  V30 6692 H 615.581 -4.91128 -1.64357 0
M  V30 6693 H 612.258 -2.78685 -3.10871 0
M  V30 6694 H 613.648 -6.5297 -1.58366 0
M  V30 6695 N 616.368 0.432326 -1.51554 0
M  V30 6696 C 617.615 1.18134 -1.64471 0
M  V30 6697 C 617.943 1.91076 -0.363349 0
M  V30 6698 O 617.198 1.84492 0.65279 0
M  V30 6699 C 617.497 2.21907 -2.80164 0
M  V30 6700 C 617.163 1.65941 -4.19255 0
M  V30 6701 C 615.825 1.50401 -4.57092 0
M  V30 6702 C 618.177 1.24843 -5.06027 0
M  V30 6703 C 615.505 0.922443 -5.79403 0
M  V30 6704 C 617.857 0.68113 -6.28922 0
M  V30 6705 C 616.521 0.512673 -6.65528 0
M  V30 6706 H 615.791 0.432283 -0.601841 0
M  V30 6707 H 618.438 0.471701 -1.856 0
M  V30 6708 H 616.743 2.98928 -2.53277 0
M  V30 6709 H 618.44 2.79691 -2.87357 0
M  V30 6710 H 615.03 1.79014 -3.89425 0
M  V30 6711 H 619.214 1.35667 -4.77397 0
M  V30 6712 H 614.47 0.779733 -6.06408 0
M  V30 6713 H 618.644 0.35418 -6.95499 0
M  V30 6714 H 616.271 0.0599084 -7.60176 0
M  V30 6715 N 617.846 1.41785 0.688094 0
M  V30 6716 C 619.257 1.3701 1.26828 0
M  V30 6717 C 619.608 0.056835 1.96118 0
M  V30 6718 O 618.733 -0.84475 1.99231 0
M  V30 6719 C 619.328 2.48168 2.30648 0
M  V30 6720 C 617.887 2.46766 2.84224 0
M  V30 6721 C 617.034 2.27633 1.58361 0
M  V30 6722 H 619.985 1.51192 0.482351 0
M  V30 6723 H 620.006 2.17655 3.121 0
M  V30 6724 H 619.518 3.43735 1.80188 0
M  V30 6725 H 617.619 1.54978 3.3884 0
M  V30 6726 H 617.732 3.43342 3.34145 0
M  V30 6727 H 616.096 1.75648 1.84445 0
M  V30 6728 H 616.879 3.25238 1.09887 0
M  V30 6729 N 619.324 -0.923095 1.27737 0
M  V30 6730 C 620.572 -1.66797 1.14119 0
M  V30 6731 C 620.893 -1.92479 -0.312541 0
M  V30 6732 O 620.163 -1.53432 -1.218 0
M  V30 6733 H 618.743 -0.618196 0.419336 0
M  V30 6734 H 621.405 -1.10815 1.60331 0
M  V30 6735 H 620.501 -2.63424 1.67374 0
M  V30 6736 N 620.802 -1.09834 -1.13024 0
M  V30 6737 C 622.051 -0.831806 -1.83749 0
M  V30 6738 C 622.364 0.644763 -1.84668 0
M  V30 6739 O 623.57 1.02697 -2.51327 0
M  V30 6740 C 622.026 -1.43817 -3.29916 0
M  V30 6741 C 621.634 -2.94759 -3.37374 0
M  V30 6742 C 623.378 -1.25077 -4.05655 0
M  V30 6743 C 621.285 -3.48461 -4.77838 0
M  V30 6744 H 620.215 -0.30751 -0.688443 0
M  V30 6745 H 622.866 -1.32156 -1.27307 0
M  V30 6746 H 621.248 -0.876106 -3.86187 0
M  V30 6747 H 622.422 -3.57228 -2.91076 0
M  V30 6748 H 620.737 -3.12581 -2.75103 0
M  V30 6749 H 623.334 -1.62649 -5.09362 0
M  V30 6750 H 623.677 -0.191782 -4.15858 0
M  V30 6751 H 624.21 -1.78057 -3.55725 0
M  V30 6752 H 620.949 -4.53998 -4.72828 0
M  V30 6753 H 620.469 -2.90757 -5.24615 0
M  V30 6754 H 622.148 -3.45914 -5.46766 0
M  V30 6755 N 622.28 1.30327 -0.886154 0
M  V30 6756 C 623.505 2.0079 -0.519425 0
M  V30 6757 C 623.93 1.65979 0.885013 0
M  V30 6758 O 623.288 0.877043 1.58675 0
M  V30 6759 C 623.336 3.53686 -0.702758 0
M  V30 6760 O 622.44 4.11637 0.250828 0
M  V30 6761 H 621.781 0.63171 -0.204544 0
M  V30 6762 H 624.311 1.66145 -1.19402 0
M  V30 6763 H 624.321 4.03531 -0.602207 0
M  V30 6764 H 622.996 3.78361 -1.72673 0
M  V30 6765 H 621.573 3.72755 0.103873 0
M  V30 6766 N 623.758 0.647228 1.43697 0
M  V30 6767 C 625.007 0.155552 2.01099 0
M  V30 6768 C 625.32 -1.23569 1.51624 0
M  V30 6769 O 626.526 -1.82226 2.01261 0
M  V30 6770 C 624.982 0.227296 3.59182 0
M  V30 6771 C 624.59 1.62086 4.17651 0
M  V30 6772 C 626.334 -0.207085 4.23995 0
M  V30 6773 C 624.241 1.64685 5.68008 0
M  V30 6774 H 623.171 0.0543895 0.752036 0
M  V30 6775 H 625.822 0.808386 1.64734 0
M  V30 6776 H 624.204 -0.492937 3.9292 0
M  V30 6777 H 625.378 2.36597 3.95422 0
M  V30 6778 H 623.693 2.0007 3.65186 0
M  V30 6779 H 626.29 -0.207426 5.34298 0
M  V30 6780 H 626.633 -1.23742 3.97484 0
M  V30 6781 H 627.166 0.461193 3.95118 0
M  V30 6782 H 623.905 2.65608 5.99277 0
M  V30 6783 H 623.425 0.944914 5.9231 0
M  V30 6784 H 625.104 1.38792 6.31938 0
M  V30 6785 N 625.236 -1.5273 0.388769 0
M  V30 6786 C 626.652 -1.59553 0.0387049 0
M  V30 6787 C 626.852 -1.40278 -1.44652 0
M  V30 6788 O 625.908 -1.21951 -2.21098 0
M  V30 6789 C 627.221 -2.9625 0.515409 0
M  V30 6790 C 628.769 -3.09426 0.471621 0
M  V30 6791 C 629.244 -4.48572 0.924505 0
M  V30 6792 N 630.735 -4.54754 0.880496 0
M  V30 6793 C 631.47 -5.60653 1.20234 0
M  V30 6794 N 630.966 -6.74198 1.59463 0
M  V30 6795 N 632.759 -5.50755 1.12363 0
M  V30 6796 H 624.91 -1.63508 1.35569 0
M  V30 6797 H 627.173 -0.768097 0.555636 0
M  V30 6798 H 626.879 -3.15569 1.5527 0
M  V30 6799 H 626.753 -3.77102 -0.085792 0
M  V30 6800 H 629.14 -2.89804 -0.556588 0
M  V30 6801 H 629.221 -2.30528 1.10862 0
M  V30 6802 H 628.865 -4.68936 1.95094 0
M  V30 6803 H 628.795 -5.25935 0.264524 0
M  V30 6804 H 631.286 -3.73237 0.591815 0
M  V30 6805 H 631.599 -7.5097 1.82385 0
M  V30 6806 H 629.944 -6.75531 1.63349 0
M  V30 6807 H 633.135 -4.6093 0.816169 0
M  V30 6808 H 633.308 -6.33184 1.37777 0
M  V30 6809 N 626.714 -0.118576 -1.57153 0
M  V30 6810 C 627.96 0.540326 -1.95469 0
M  V30 6811 C 628.293 1.66356 -1.00196 0
M  V30 6812 O 627.568 1.94461 -0.039104 0
M  V30 6813 C 627.851 1.07342 -3.43729 0
M  V30 6814 C 627.704 -0.0463732 -4.49776 0
M  V30 6815 C 629.023 1.96442 -3.93826 0
M  V30 6816 H 626.142 0.19494 -0.710751 0
M  V30 6817 H 628.784 -0.19405 -1.89006 0
M  V30 6818 H 626.934 1.69925 -3.49368 0
M  V30 6819 H 628.606 -0.681648 -4.56236 0
M  V30 6820 H 626.849 -0.709574 -4.27957 0
M  V30 6821 H 627.52 0.367856 -5.50773 0
M  V30 6822 H 629.996 1.43731 -3.90488 0
M  V30 6823 H 628.872 2.3066 -4.98084 0
M  V30 6824 H 629.133 2.89077 -3.34495 0
M  V30 6825 N 628.193 1.56834 0.155195 0
M  V30 6826 C 629.47 1.73799 0.897395 0
M  V30 6827 C 629.85 0.684379 1.99698 0
M  V30 6828 O 629.198 -0.298111 2.26547 0
M  V30 6829 C 629.408 3.17572 1.44737 0
M  V30 6830 C 630.756 3.79014 1.91399 0
M  V30 6831 O 631.78 3.20951 1.54496 0
M  V30 6832 O 630.639 4.80998 2.59429 0
M  V30 6833 H 627.733 0.710329 0.423511 0
M  V30 6834 H 630.279 1.69107 0.141761 0
M  V30 6835 H 629.051 3.85749 0.656741 0
M  V30 6836 H 628.674 3.26657 2.26674 0
M  V30 6837 N 629.671 -0.424282 1.51781 0
M  V30 6838 C 630.634 -1.49848 1.73431 0
M  V30 6839 C 631.634 -1.49016 0.604225 0
M  V30 6840 O 632.824 -1.50808 0.871935 0
M  V30 6841 C 629.956 -2.89332 1.80277 0
M  V30 6842 H 631.149 -1.3195 2.69312 0
M  V30 6843 H 628.702 -0.653809 1.41968 0
M  V30 6844 H 629.437 -3.12618 0.862568 0
M  V30 6845 H 629.222 -2.9134 2.62419 0
M  V30 6846 H 630.712 -3.67233 1.98821 0
M  V30 6847 N 631.149 -1.42148 -0.680565 0
M  V30 6848 C 632.112 -1.4488 -1.77602 0
M  V30 6849 C 633.112 -0.337209 -1.57224 0
M  V30 6850 O 634.302 -0.597778 -1.63622 0
M  V30 6851 C 631.434 -1.27483 -3.16166 0
M  V30 6852 H 632.627 -2.42412 -1.76568 0
M  V30 6853 H 630.18 -1.28511 -0.889645 0
M  V30 6854 H 630.915 -0.30851 -3.22829 0
M  V30 6855 H 630.7 -2.08037 -3.3236 0
M  V30 6856 H 632.19 -1.32265 -3.96101 0
M  V30 6857 N 632.627 0.916307 -1.28225 0
M  V30 6858 C 633.874 1.66518 -1.1523 0
M  V30 6859 C 634.202 1.92178 0.299632 0
M  V30 6860 O 633.457 1.51842 1.2346 0
M  V30 6861 C 633.756 3.03125 -1.8934 0
M  V30 6862 C 633.422 2.97135 -3.39148 0
M  V30 6863 C 632.084 2.95208 -3.80007 0
M  V30 6864 C 634.436 2.87574 -4.34685 0
M  V30 6865 C 631.764 2.81518 -5.14747 0
M  V30 6866 C 634.116 2.75424 -5.69495 0
M  V30 6867 C 632.78 2.71854 -6.09632 0
M  V30 6868 H 632.05 0.609334 -0.421655 0
M  V30 6869 H 634.697 1.06776 -1.58969 0
M  V30 6870 H 633.002 3.66639 -1.38143 0
M  V30 6871 H 634.699 3.59968 -1.76704 0
M  V30 6872 H 631.289 2.99428 -3.06661 0
M  V30 6873 H 635.473 2.88152 -4.04082 0
M  V30 6874 H 630.729 2.77148 -5.44976 0
M  V30 6875 H 634.903 2.66993 -6.43185 0
M  V30 6876 H 632.53 2.61003 -7.1399 0
M  V30 6877 N 634.105 1.10431 1.1244 0
M  V30 6878 C 635.037 0.710945 2.17895 0
M  V30 6879 C 636.05 -0.252315 1.60833 0
M  V30 6880 O 637.239 -0.03679 1.78462 0
M  V30 6881 C 634.339 0.0284262 3.38888 0
M  V30 6882 C 633.512 1.01585 4.2544 0
M  V30 6883 C 632.571 0.364826 5.24934 0
M  V30 6884 O 631.597 1.01561 5.60066 0
M  V30 6885 N 632.799 -0.87674 5.73841 0
M  V30 6886 H 635.564 1.61826 2.52255 0
M  V30 6887 H 633.125 0.993132 1.27861 0
M  V30 6888 H 635.117 -0.418568 4.0253 0
M  V30 6889 H 633.687 -0.781294 3.02679 0
M  V30 6890 H 632.907 1.64111 3.58415 0
M  V30 6891 H 634.195 1.68425 4.80115 0
M  V30 6892 H 633.593 -1.42483 5.47462 0
M  V30 6893 H 632.15 -1.26688 6.39369 0
M  V30 6894 N 635.583 -1.29855 0.893053 0
M  V30 6895 C 636.813 -1.99686 0.530019 0
M  V30 6896 C 637.221 -1.67066 -0.888012 0
M  V30 6897 O 636.564 -0.908366 -1.5967 0
M  V30 6898 C 636.626 -3.53855 0.63457 0
M  V30 6899 C 636.29 -4.10013 2.01837 0
M  V30 6900 C 637.287 -4.25406 2.98874 0
M  V30 6901 C 634.972 -4.45202 2.32595 0
M  V30 6902 C 636.966 -4.7521 4.24799 0
M  V30 6903 C 634.653 -4.94704 3.58763 0
M  V30 6904 C 635.651 -5.09662 4.5468 0
M  V30 6905 O 635.339 -5.58093 5.78608 0
M  V30 6906 H 635.071 -0.644913 0.20264 0
M  V30 6907 H 637.625 -1.66518 1.20253 0
M  V30 6908 H 635.855 -3.86583 -0.0949477 0
M  V30 6909 H 637.544 -4.04922 0.281648 0
M  V30 6910 H 638.31 -3.98515 2.76425 0
M  V30 6911 H 634.189 -4.32822 1.58701 0
M  V30 6912 H 637.733 -4.86801 4.99671 0
M  V30 6913 H 633.63 -5.21032 3.81046 0
M  V30 6914 H 634.398 -5.7642 5.81104 0
M  V30 6915 N 637.061 -0.65484 -1.43351 0
M  V30 6916 C 638.008 0.0357713 -2.30772 0
M  V30 6917 C 638.978 0.813035 -1.44841 0
M  V30 6918 O 640.163 0.789314 -1.73708 0
M  V30 6919 C 637.303 0.995084 -3.30442 0
M  V30 6920 C 636.416 0.21375 -4.31471 0
M  V30 6921 C 635.551 1.16701 -5.18222 0
M  V30 6922 C 634.59 0.376201 -6.10943 0
M  V30 6923 N 633.727 1.28113 -6.90313 0
M  V30 6924 H 638.567 -0.71559 -2.89281 0
M  V30 6925 H 636.104 -0.364645 -1.42509 0
M  V30 6926 H 638.062 1.5649 -3.86739 0
M  V30 6927 H 636.692 1.7133 -2.7358 0
M  V30 6928 H 635.744 -0.472377 -3.77456 0
M  V30 6929 H 637.056 -0.401103 -4.97185 0
M  V30 6930 H 636.21 1.8074 -5.79153 0
M  V30 6931 H 634.949 1.81577 -4.52638 0
M  V30 6932 H 633.954 -0.277534 -5.49099 0
M  V30 6933 H 635.179 -0.268178 -6.7857 0
M  V30 6934 H 633.125 1.91666 -6.27376 0
M  V30 6935 H 633.042 0.720879 -7.52555 0
M  V30 6936 H 634.31 1.90962 -7.55747 0
M  V30 6937 N 638.539 1.52521 -0.396863 0
M  V30 6938 C 639.787 2.01274 0.182536 0
M  V30 6939 C 640.108 1.28485 1.46685 0
M  V30 6940 O 639.378 0.407134 1.91623 0
M  V30 6941 H 637.958 0.743671 0.0704442 0
M  V30 6942 H 640.62 1.87547 -0.530289 0
M  V30 6943 H 639.716 3.09687 0.387385 0
M  V30 6944 N 640.017 0.126909 1.57088 0
M  V30 6945 C 641.264 -0.529168 1.95464 0
M  V30 6946 C 641.592 -1.6618 1.01067 0
M  V30 6947 O 640.847 -1.95667 0.0360254 0
M  V30 6948 C 641.146 -1.095 3.40212 0
M  V30 6949 C 640.812 -0.0829015 4.50824 0
M  V30 6950 C 639.474 0.195377 4.80803 0
M  V30 6951 C 641.826 0.606411 5.1766 0
M  V30 6952 C 639.154 1.16912 5.74933 0
M  V30 6953 C 641.506 1.56884 6.12838 0
M  V30 6954 C 640.17 1.85502 6.41206 0
M  V30 6955 H 639.44 -0.193636 0.715252 0
M  V30 6956 H 642.087 0.209489 1.90351 0
M  V30 6957 H 640.392 -1.91058 3.42059 0
M  V30 6958 H 642.089 -1.61087 3.67222 0
M  V30 6959 H 638.679 -0.309979 4.27478 0
M  V30 6960 H 642.863 0.404597 4.94648 0
M  V30 6961 H 638.119 1.3975 5.95214 0
M  V30 6962 H 642.293 2.10859 6.6371 0
M  V30 6963 H 639.92 2.61109 7.13951 0
M  V30 6964 N 641.495 -1.56914 -0.146875 0
M  V30 6965 C 642.742 -1.83356 -0.859467 0
M  V30 6966 C 643.07 -0.707811 -1.81164 0
M  V30 6967 O 642.325 0.303155 -1.93338 0
M  V30 6968 C 642.624 -3.16128 -1.66727 0
M  V30 6969 C 642.29 -4.42586 -0.861881 0
M  V30 6970 C 640.952 -4.76929 -0.639687 0
M  V30 6971 C 643.304 -5.20344 -0.298643 0
M  V30 6972 C 640.632 -5.86491 0.156451 0
M  V30 6973 C 642.984 -6.30742 0.484536 0
M  V30 6974 C 641.648 -6.63635 0.717306 0
M  V30 6975 H 640.918 -0.670947 -0.314501 0
M  V30 6976 H 643.565 -1.91104 -0.123108 0
M  V30 6977 H 641.87 -3.03831 -2.47374 0
M  V30 6978 H 643.567 -3.33802 -2.2221 0
M  V30 6979 H 640.157 -4.15662 -1.04513 0
M  V30 6980 H 644.341 -4.94186 -0.457585 0
M  V30 6981 H 639.597 -6.10419 0.346292 0
M  V30 6982 H 643.771 -6.90188 0.928105 0
M  V30 6983 H 641.398 -7.48367 1.33607 0
M  V30 6984 N 642.974 0.416227 -1.52004 0
M  V30 6985 C 644.221 1.16383 -1.65714 0
M  V30 6986 C 644.549 1.9068 -0.383594 0
M  V30 6987 O 643.804 1.85174 0.633185 0
M  V30 6988 C 644.103 2.18923 -2.82502 0
M  V30 6989 C 643.769 1.61485 -4.20991 0
M  V30 6990 C 642.431 1.45545 -4.58661 0
M  V30 6991 C 644.783 1.19468 -5.07323 0
M  V30 6992 C 642.111 0.860937 -5.80349 0
M  V30 6993 C 644.463 0.614386 -6.29609 0
M  V30 6994 C 643.127 0.442056 -6.66035 0
M  V30 6995 H 642.397 0.425875 -0.606392 0
M  V30 6996 H 645.044 0.45199 -1.8609 0
M  V30 6997 H 643.349 2.96225 -2.56433 0
M  V30 6998 H 645.046 2.76628 -2.90307 0
M  V30 6999 H 641.636 1.74873 -3.91302 0
M  V30 7000 H 645.82 1.30596 -4.78809 0
M  V30 7001 H 641.076 0.715372 -6.072 0
M  V30 7002 H 645.25 0.280393 -6.95835 0
M  V30 7003 H 642.877 -0.0207218 -7.60197 0
M  V30 7004 N 644.452 1.42507 0.673017 0
M  V30 7005 C 645.699 1.43072 1.43306 0
M  V30 7006 C 646.027 0.0478004 1.94441 0
M  V30 7007 O 645.282 -0.944106 1.71421 0
M  V30 7008 C 645.581 2.40351 2.64511 0
M  V30 7009 C 645.247 3.8669 2.31908 0
M  V30 7010 C 643.909 4.26551 2.22728 0
M  V30 7011 C 646.261 4.78991 2.05467 0
M  V30 7012 C 643.589 5.56691 1.85234 0
M  V30 7013 C 645.941 6.09476 1.69477 0
M  V30 7014 C 644.605 6.48334 1.58808 0
M  V30 7015 H 643.875 0.523536 0.524395 0
M  V30 7016 H 646.522 1.75459 0.76723 0
M  V30 7017 H 644.827 2.01297 3.36135 0
M  V30 7018 H 646.524 2.38051 3.22696 0
M  V30 7019 H 643.114 3.55132 2.39956 0
M  V30 7020 H 647.298 4.48982 2.11492 0
M  V30 7021 H 642.554 5.85657 1.75545 0
M  V30 7022 H 646.728 6.80482 1.48043 0
M  V30 7023 H 644.355 7.49084 1.29525 0
M  V30 7024 N 645.93 -0.909495 1.28709 0
M  V30 7025 C 647.155 -1.69801 1.1909 0
M  V30 7026 C 647.58 -1.86479 -0.246388 0
M  V30 7027 O 646.938 -1.37802 -1.17815 0
M  V30 7028 C 646.986 -3.06543 1.89904 0
M  V30 7029 O 646.09 -3.94268 1.2094 0
M  V30 7030 H 645.431 -0.519783 0.413185 0
M  V30 7031 H 647.961 -1.13689 1.70106 0
M  V30 7032 H 647.971 -3.56748 1.97977 0
M  V30 7033 H 646.646 -2.93722 2.94449 0
M  V30 7034 H 645.223 -3.52702 1.2106 0
M  V30 7035 N 647.408 -1.11026 -1.11852 0
M  V30 7036 C 648.824 -0.843294 -1.35502 0
M  V30 7037 C 649.024 0.534179 -1.9429 0
M  V30 7038 O 648.08 1.28585 -2.17307 0
M  V30 7039 C 649.393 -1.94793 -2.29077 0
M  V30 7040 C 650.941 -1.97709 -2.42652 0
M  V30 7041 C 651.416 -3.07364 -3.39546 0
M  V30 7042 N 652.907 -3.0671 -3.47107 0
M  V30 7043 C 653.642 -3.88197 -4.22008 0
M  V30 7044 N 653.138 -4.79635 -4.99922 0
M  V30 7045 N 654.931 -3.76391 -4.17476 0
M  V30 7046 H 647.082 -1.99805 -0.720538 0
M  V30 7047 H 649.345 -0.868633 -0.379711 0
M  V30 7048 H 649.051 -2.93971 -1.93065 0
M  V30 7049 H 648.925 -1.84039 -3.29256 0
M  V30 7050 H 651.312 -0.991604 -2.77941 0
M  V30 7051 H 651.393 -2.1254 -1.4234 0
M  V30 7052 H 651.037 -4.06136 -3.04985 0
M  V30 7053 H 650.967 -2.89774 -4.39703 0
M  V30 7054 H 653.458 -2.40457 -2.91528 0
M  V30 7055 H 653.771 -5.38357 -5.54429 0
M  V30 7056 H 652.116 -4.8366 -4.99097 0
M  V30 7057 H 655.307 -3.04303 -3.55693 0
M  V30 7058 H 655.48 -4.40131 -4.75593 0
M  V30 7059 N 648.886 1.2938 -0.899927 0
M  V30 7060 C 650.134 1.95164 -0.524924 0
M  V30 7061 C 650.455 1.71292 0.931888 0
M  V30 7062 O 649.725 1.04481 1.65712 0
M  V30 7063 H 648.305 0.722133 -0.191135 0
M  V30 7064 H 650.967 1.57628 -1.14627 0
M  V30 7065 H 650.063 3.0397 -0.707711 0
M  V30 7066 N 650.364 0.662433 1.43002 0
M  V30 7067 C 651.589 0.186003 2.06564 0
M  V30 7068 C 652.014 -1.14314 1.49379 0
M  V30 7069 O 651.372 -1.70824 0.607346 0
M  V30 7070 C 651.42 0.118269 3.60406 0
M  V30 7071 O 650.524 -0.916859 4.02079 0
M  V30 7072 H 649.865 0.0990981 0.656563 0
M  V30 7073 H 652.395 0.907958 1.8335 0
M  V30 7074 H 652.405 -0.0619981 4.07953 0
M  V30 7075 H 651.08 1.08849 4.01403 0
M  V30 7076 H 649.657 -0.708635 3.66105 0
M  V30 7077 N 651.842 -1.52309 0.404946 0
M  V30 7078 C 652.789 -2.26898 -0.422597 0
M  V30 7079 C 653.759 -1.2914 -1.04461 0
M  V30 7080 O 654.944 -1.57996 -1.06967 0
M  V30 7081 C 652.084 -3.09053 -1.53559 0
M  V30 7082 C 651.197 -4.21762 -0.934908 0
M  V30 7083 C 650.332 -4.91283 -2.02025 0
M  V30 7084 C 649.371 -5.95962 -1.39628 0
M  V30 7085 N 648.508 -6.59017 -2.42159 0
M  V30 7086 H 653.348 -2.97188 0.219903 0
M  V30 7087 H 650.885 -1.46607 0.120282 0
M  V30 7088 H 652.843 -3.54987 -2.19181 0
M  V30 7089 H 651.473 -2.40942 -2.14818 0
M  V30 7090 H 650.525 -3.80029 -0.167854 0
M  V30 7091 H 651.837 -4.96864 -0.439073 0
M  V30 7092 H 650.991 -5.40601 -2.75383 0
M  V30 7093 H 649.73 -4.15741 -2.54973 0
M  V30 7094 H 648.735 -5.45968 -0.648023 0
M  V30 7095 H 649.96 -6.73445 -0.874553 0
M  V30 7096 H 647.906 -5.86306 -2.94247 0
M  V30 7097 H 647.823 -7.2978 -1.97376 0
M  V30 7098 H 649.091 -7.12974 -3.15099 0
M  V30 7099 N 653.32 -0.135238 -1.57019 0
M  V30 7100 C 654.252 0.839675 -2.13265 0
M  V30 7101 C 655.265 1.21887 -1.07923 0
M  V30 7102 O 656.454 1.16499 -1.35241 0
M  V30 7103 C 653.554 2.13647 -2.63075 0
M  V30 7104 C 652.727 1.92646 -3.92691 0
M  V30 7105 C 651.786 3.06205 -4.27931 0
M  V30 7106 O 650.812 2.78409 -4.96465 0
M  V30 7107 N 652.014 4.33072 -3.86561 0
M  V30 7108 H 654.779 0.359026 -2.97542 0
M  V30 7109 H 652.34 0.0486979 -1.61827 0
M  V30 7110 H 654.332 2.88641 -2.8367 0
M  V30 7111 H 652.902 2.5301 -1.83588 0
M  V30 7112 H 652.122 1.01754 -3.80841 0
M  V30 7113 H 653.41 1.75939 -4.77413 0
M  V30 7114 H 652.808 4.58526 -3.31316 0
M  V30 7115 H 651.365 5.04885 -4.12231 0
M  V30 7116 N 654.798 1.5699 0.138552 0
M  V30 7117 C 656.045 1.83809 0.849732 0
M  V30 7118 C 656.373 0.717409 1.80786 0
M  V30 7119 O 655.628 -0.292897 1.93496 0
M  V30 7120 C 655.927 3.17007 1.65049 0
M  V30 7121 C 655.593 4.43037 0.838398 0
M  V30 7122 C 654.255 4.77262 0.614385 0
M  V30 7123 C 656.607 5.20495 0.271044 0
M  V30 7124 C 653.935 5.864 -0.187552 0
M  V30 7125 C 656.287 6.30476 -0.517979 0
M  V30 7126 C 654.951 6.63245 -0.75249 0
M  V30 7127 H 654.221 0.672605 0.310939 0
M  V30 7128 H 656.868 1.91166 0.112971 0
M  V30 7129 H 655.173 3.05138 2.4576 0
M  V30 7130 H 656.87 3.34975 2.20437 0
M  V30 7131 H 653.46 4.16211 1.02307 0
M  V30 7132 H 657.644 4.94422 0.431371 0
M  V30 7133 H 652.9 6.10226 -0.378659 0
M  V30 7134 H 657.074 6.89686 -0.964694 0
M  V30 7135 H 654.701 7.47648 -1.37573 0
M  V30 7136 N 656.276 -0.40816 1.52223 0
M  V30 7137 C 657.186 -1.52202 1.78526 0
M  V30 7138 C 658.202 -1.60546 0.670892 0
M  V30 7139 O 659.378 -1.77242 0.956404 0
M  V30 7140 C 656.443 -2.87928 1.93128 0
M  V30 7141 C 655.504 -2.89463 3.17033 0
M  V30 7142 C 654.737 -4.18715 3.30929 0
M  V30 7143 O 654.96 -5.12662 2.50067 0
M  V30 7144 O 653.894 -4.27125 4.24084 0
M  V30 7145 H 657.72 -1.32911 2.73072 0
M  V30 7146 H 655.305 -0.594112 1.37079 0
M  V30 7147 H 657.187 -3.68426 2.04549 0
M  V30 7148 H 655.862 -3.07285 1.01772 0
M  V30 7149 H 654.769 -2.07815 3.11069 0
M  V30 7150 H 656.102 -2.75055 4.08174 0
M  V30 7151 N 657.755 -1.42862 -0.66545 0
M  V30 7152 C 658.985 -1.47032 -1.45138 0
M  V30 7153 C 659.393 -0.0829977 -1.89018 0
M  V30 7154 O 658.736 0.914551 -1.59316 0
M  V30 7155 C 658.798 -2.34302 -2.72659 0
M  V30 7156 C 658.462 -3.82034 -2.50796 0
M  V30 7157 C 659.459 -4.73453 -2.14799 0
M  V30 7158 C 657.144 -4.26397 -2.655 0
M  V30 7159 C 659.138 -6.07228 -1.93785 0
M  V30 7160 C 656.825 -5.6023 -2.44103 0
M  V30 7161 C 657.823 -6.50462 -2.08299 0
M  V30 7162 O 657.511 -7.8182 -1.87116 0
M  V30 7163 H 657.243 -0.501969 -0.452772 0
M  V30 7164 H 659.797 -1.88137 -0.82423 0
M  V30 7165 H 658.027 -1.88063 -3.37889 0
M  V30 7166 H 659.716 -2.29818 -3.34572 0
M  V30 7167 H 660.482 -4.4046 -2.03026 0
M  V30 7168 H 656.361 -3.56448 -2.92345 0
M  V30 7169 H 659.905 -6.7762 -1.65763 0
M  V30 7170 H 655.802 -5.92793 -2.55475 0
M  V30 7171 H 656.57 -7.93274 -2.01639 0
M  V30 7172 N 659.233 0.902656 -1.29189 0
M  V30 7173 C 660.51 1.63296 -1.07674 0
M  V30 7174 C 660.89 2.07649 0.380137 0
M  V30 7175 O 660.238 1.82997 1.36837 0
M  V30 7176 C 660.448 2.81603 -2.06158 0
M  V30 7177 C 661.796 3.52359 -2.36914 0
M  V30 7178 O 662.82 2.91767 -2.04329 0
M  V30 7179 O 661.679 4.61586 -2.92576 0
M  V30 7180 H 658.773 0.716889 -0.41231 0
M  V30 7181 H 661.319 0.950984 -1.4055 0
M  V30 7182 H 660.091 2.46004 -3.04299 0
M  V30 7183 H 659.714 3.57508 -1.73993 0
M  V30 7184 N 660.711 1.11618 1.11262 0
M  V30 7185 C 661.96 0.860934 1.82403 0
M  V30 7186 C 662.273 -0.615303 1.8567 0
M  V30 7187 O 663.479 -0.986861 2.52929 0
M  V30 7188 C 661.935 1.49048 3.27586 0
M  V30 7189 C 661.543 3.00089 3.32642 0
M  V30 7190 C 663.287 1.31515 4.03614 0
M  V30 7191 C 661.194 3.56019 4.72234 0
M  V30 7192 H 660.124 0.318423 0.683464 0
M  V30 7193 H 662.775 1.34165 1.25188 0
M  V30 7194 H 661.157 0.937434 3.84744 0
M  V30 7195 H 662.331 3.61813 2.85356 0
M  V30 7196 H 660.646 3.16919 2.70096 0
M  V30 7197 H 663.243 1.70732 5.0671 0
M  V30 7198 H 663.586 0.257917 4.155 0
M  V30 7199 H 664.119 1.83694 3.52848 0
M  V30 7200 H 660.858 4.61463 4.65545 0
M  V30 7201 H 660.378 2.99066 5.19923 0
M  V30 7202 H 662.057 3.54568 5.41193 0
M  V30 7203 N 662.189 -1.289 0.906776 0
M  V30 7204 C 663.136 -2.2751 0.388313 0
M  V30 7205 C 664.106 -1.57301 -0.533439 0
M  V30 7206 O 665.291 -1.85243 -0.457148 0
M  V30 7207 C 662.431 -3.43091 -0.37181 0
M  V30 7208 C 661.544 -4.28066 0.581647 0
M  V30 7209 C 660.679 -5.30837 -0.19623 0
M  V30 7210 C 659.718 -6.07472 0.751294 0
M  V30 7211 N 658.855 -7.021 0.00737727 0
M  V30 7212 H 663.695 -2.71237 1.23428 0
M  V30 7213 H 661.232 -1.33397 0.619962 0
M  V30 7214 H 663.19 -4.08888 -0.828641 0
M  V30 7215 H 661.82 -3.00374 -1.18218 0
M  V30 7216 H 660.872 -3.62378 1.157 0
M  V30 7217 H 662.184 -4.81382 1.30665 0
M  V30 7218 H 661.338 -6.02485 -0.71394 0
M  V30 7219 H 660.077 -4.78272 -0.954324 0
M  V30 7220 H 659.082 -5.34682 1.28044 0
M  V30 7221 H 660.307 -6.62126 1.50883 0
M  V30 7222 H 658.253 -6.51894 -0.732854 0
M  V30 7223 H 658.17 -7.53004 0.672334 0
M  V30 7224 H 659.438 -7.77956 -0.490365 0
M  V30 7225 N 663.667 -0.670007 -1.42649 0
M  V30 7226 C 664.895 -0.19854 -2.05945 0
M  V30 7227 C 665.31 1.14243 -1.50313 0
M  V30 7228 O 664.667 1.70872 -0.641027 0
M  V30 7229 C 664.718 -0.11966 -3.61302 0
M  V30 7230 O 664.439 -1.40764 -4.1487 0
M  V30 7231 C 665.94 0.375878 -4.41704 0
M  V30 7232 H 663.16 -0.0976894 -0.663851 0
M  V30 7233 H 665.704 -0.915392 -1.82868 0
M  V30 7234 H 663.859 0.547851 -3.83507 0
M  V30 7235 H 664.273 -1.27784 -5.08696 0
M  V30 7236 H 665.747 0.379988 -5.50691 0
M  V30 7237 H 666.224 1.41028 -4.15942 0
M  V30 7238 H 666.83 -0.259727 -4.24506 0
M  V30 7239 N 665.145 1.52092 -0.413018 0
M  V30 7240 C 666.092 2.27119 0.410558 0
M  V30 7241 C 667.062 1.29692 1.03774 0
M  V30 7242 O 668.247 1.58561 1.06128 0
M  V30 7243 C 665.387 3.09863 1.51918 0
M  V30 7244 C 664.5 4.22252 0.912528 0
M  V30 7245 C 663.635 4.92348 1.99417 0
M  V30 7246 C 662.674 5.96694 1.36466 0
M  V30 7247 N 661.811 6.60292 2.38661 0
M  V30 7248 H 666.651 2.97067 -0.235661 0
M  V30 7249 H 664.188 1.46542 -0.128055 0
M  V30 7250 H 666.146 3.56144 2.17295 0
M  V30 7251 H 664.776 2.42078 2.13537 0
M  V30 7252 H 663.828 3.80113 0.147697 0
M  V30 7253 H 665.14 4.9709 0.412717 0
M  V30 7254 H 664.294 5.42054 2.72512 0
M  V30 7255 H 663.033 4.17087 2.52764 0
M  V30 7256 H 662.038 5.46304 0.61906 0
M  V30 7257 H 663.263 6.73899 0.838827 0
M  V30 7258 H 661.209 5.87858 2.91134 0
M  V30 7259 H 661.126 7.30816 1.93503 0
M  V30 7260 H 662.394 7.14635 3.11314 0
M  V30 7261 N 666.623 0.143563 1.56945 0
M  V30 7262 C 667.571 -0.814556 2.17871 0
M  V30 7263 C 668.565 -1.25778 1.13474 0
M  V30 7264 O 669.771 -1.22666 1.31731 0
M  V30 7265 H 666.146 -0.280873 0.697578 0
M  V30 7266 H 668.117 -0.276459 2.97117 0
M  V30 7267 C 666.866 -2.04503 2.81201 0
M  V30 7268 H 666.189 -1.71296 3.61245 0
M  V30 7269 H 667.629 -2.69493 3.27337 0
M  V30 7270 C 666.088 -2.85079 1.79532 0
M  V30 7271 O 666.618 -3.81306 1.26368 0
M  V30 7272 N 664.824 -2.49546 1.48913 0
M  V30 7273 H 664.371 -1.71359 1.92338 0
M  V30 7274 H 664.329 -3.03751 0.811348 0
M  V30 7275 N 668.101 -1.57061 -0.130224 0
M  V30 7276 C 669.35 -1.83446 -0.838488 0
M  V30 7277 C 669.663 -0.727468 -1.81569 0
M  V30 7278 O 670.869 -0.877394 -2.56932 0
M  V30 7279 C 669.325 -3.25201 -1.54182 0
M  V30 7280 C 668.933 -4.4388 -0.606178 0
M  V30 7281 C 670.677 -3.60844 -2.23588 0
M  V30 7282 C 668.584 -5.76661 -1.31209 0
M  V30 7283 H 667.514 -0.684185 -0.316871 0
M  V30 7284 H 670.165 -1.83273 -0.0912059 0
M  V30 7285 H 668.547 -3.1981 -2.33533 0
M  V30 7286 H 669.721 -4.60545 0.153308 0
M  V30 7287 H 668.036 -4.16395 -0.0196705 0
M  V30 7288 H 670.633 -4.57313 -2.77072 0
M  V30 7289 H 670.976 -2.87724 -3.00867 0
M  V30 7290 H 671.509 -3.67971 -1.51137 0
M  V30 7291 H 668.248 -6.52922 -0.580823 0
M  V30 7292 H 667.768 -5.63902 -2.04387 0
M  V30 7293 H 669.447 -6.20035 -1.8484 0
M  V30 7294 N 669.579 0.400081 -1.52437 0
M  V30 7295 C 670.807 1.16768 -1.70801 0
M  V30 7296 C 671.222 1.84036 -0.421462 0
M  V30 7297 O 670.579 1.72242 0.603228 0
M  V30 7298 C 670.63 2.22403 -2.8499 0
M  V30 7299 O 670.351 1.57879 -4.08663 0
M  V30 7300 C 671.852 3.11974 -3.1494 0
M  V30 7301 H 669.072 0.350533 -0.57216 0
M  V30 7302 H 671.616 0.469534 -1.99037 0
M  V30 7303 H 669.771 2.87871 -2.59247 0
M  V30 7304 H 670.185 2.27982 -4.7236 0
M  V30 7305 H 671.659 3.82148 -3.9833 0
M  V30 7306 H 672.136 3.74858 -2.28863 0
M  V30 7307 H 672.742 2.52165 -3.42481 0
M  V30 7308 N 671.057 1.43213 0.657864 0
M  V30 7309 C 672.473 1.26511 0.972992 0
M  V30 7310 C 672.673 0.181477 2.00681 0
M  V30 7311 O 671.729 -0.441649 2.48608 0
M  V30 7312 C 673.042 2.62784 1.46168 0
M  V30 7313 C 674.59 2.70278 1.57857 0
M  V30 7314 C 675.065 4.06958 2.10117 0
M  V30 7315 N 676.556 4.08999 2.17426 0
M  V30 7316 C 677.291 5.11585 2.58975 0
M  V30 7317 N 676.787 6.24548 2.99853 0
M  V30 7318 N 678.58 4.9894 2.58873 0
M  V30 7319 H 670.731 2.12384 -0.0263129 0
M  V30 7320 H 672.994 0.946638 0.0507992 0
M  V30 7321 H 672.7 3.43022 0.776474 0
M  V30 7322 H 672.574 2.87863 2.43751 0
M  V30 7323 H 674.961 1.90376 2.25479 0
M  V30 7324 H 675.042 2.4897 0.587179 0
M  V30 7325 H 674.686 4.87325 1.43098 0
M  V30 7326 H 674.616 4.25628 3.10078 0
M  V30 7327 H 677.107 3.27457 1.88627 0
M  V30 7328 H 677.42 6.98661 3.30292 0
M  V30 7329 H 675.765 6.28027 2.97669 0
M  V30 7330 H 678.956 4.09757 2.26311 0
M  V30 7331 H 679.129 5.79019 2.90932 0
M  V30 7332 N 672.536 -0.895792 1.29666 0
M  V30 7333 C 673.785 -1.64131 1.17234 0
M  V30 7334 C 674.098 -1.93665 -0.274416 0
M  V30 7335 O 675.304 -2.66472 -0.520105 0
M  V30 7336 C 673.76 -2.95764 2.05065 0
M  V30 7337 C 673.368 -2.7381 3.54587 0
M  V30 7338 C 675.112 -3.737 2.01367 0
M  V30 7339 C 673.019 -4.01194 4.34508 0
M  V30 7340 H 671.949 -0.615742 0.435175 0
M  V30 7341 H 674.6 -0.992626 1.54335 0
M  V30 7342 H 672.982 -3.61867 1.60837 0
M  V30 7343 H 674.156 -2.16277 4.06892 0
M  V30 7344 H 672.471 -2.09265 3.59996 0
M  V30 7345 H 675.068 -4.68152 2.58337 0
M  V30 7346 H 675.411 -4.04245 0.994575 0
M  V30 7347 H 675.944 -3.14444 2.43659 0
M  V30 7348 H 672.683 -3.75813 5.37071 0
M  V30 7349 H 672.203 -4.58272 3.86971 0
M  V30 7350 H 673.882 -4.69307 4.45376 0
M  V30 7351 N 674.014 -1.12206 -1.10668 0
M  V30 7352 C 674.947 -0.731468 -2.16159 0
M  V30 7353 C 675.925 0.276216 -1.60237 0
M  V30 7354 O 677.109 0.17074 -1.87725 0
M  V30 7355 C 674.236 -0.0822882 -3.386 0
M  V30 7356 C 673.282 -1.05641 -4.1321 0
M  V30 7357 S 674.115 -2.58281 -4.69096 0
M  V30 7358 C 675.271 -1.94686 -5.94851 0
M  V30 7359 H 675.504 -1.62504 -2.48957 0
M  V30 7360 H 673.037 -0.940906 -1.22419 0
M  V30 7361 H 674.995 0.285896 -4.09503 0
M  V30 7362 H 673.656 0.788358 -3.04046 0
M  V30 7363 H 672.849 -0.549764 -5.00993 0
M  V30 7364 H 672.451 -1.36741 -3.48106 0
M  V30 7365 H 674.743 -1.28815 -6.65141 0
M  V30 7366 H 675.686 -2.80499 -6.50174 0
M  V30 7367 H 676.094 -1.40369 -5.46769 0
M  V30 7368 N 675.492 1.28418 -0.913599 0
M  V30 7369 C 676.908 1.47411 -0.611728 0
M  V30 7370 C 677.108 1.83018 0.843008 0
M  V30 7371 O 676.164 1.93505 1.6221 0
M  V30 7372 C 677.477 2.57703 -1.5495 0
M  V30 7373 C 679.025 2.71572 -1.5562 0
M  V30 7374 C 679.5 3.85008 -2.48058 0
M  V30 7375 N 680.991 3.92361 -2.46184 0
M  V30 7376 C 681.726 4.79516 -3.14407 0
M  V30 7377 N 681.222 5.71262 -3.91958 0
M  V30 7378 N 683.015 4.73125 -3.03495 0
M  V30 7379 H 675.166 1.03585 -1.85429 0
M  V30 7380 H 677.429 0.515907 -0.795326 0
M  V30 7381 H 677.135 2.38298 -2.58663 0
M  V30 7382 H 677.009 3.54801 -1.28048 0
M  V30 7383 H 679.396 2.90366 -0.526441 0
M  V30 7384 H 679.477 1.75006 -1.86565 0
M  V30 7385 H 679.121 3.66969 -3.51136 0
M  V30 7386 H 679.051 4.80971 -2.14416 0
M  V30 7387 H 681.542 3.26749 -1.89851 0
M  V30 7388 H 681.855 6.34593 -4.41034 0
M  V30 7389 H 680.2 5.71103 -3.96063 0
M  V30 7390 H 683.391 4.00442 -2.42413 0
M  V30 7391 H 683.564 5.40834 -3.56935 0
M  V30 7392 N 676.97 0.677563 1.42291 0
M  V30 7393 C 678.198 0.209459 2.05837 0
M  V30 7394 C 678.613 -1.13444 1.50917 0
M  V30 7395 O 677.97 -1.70529 0.65008 0
M  V30 7396 C 678.021 0.138819 3.61233 0
M  V30 7397 O 677.742 1.42962 4.14118 0
M  V30 7398 C 679.243 -0.352449 4.41897 0
M  V30 7399 H 676.463 0.101209 0.663323 0
M  V30 7400 H 679.007 0.925077 1.8238 0
M  V30 7401 H 677.162 -0.527505 3.83792 0
M  V30 7402 H 677.576 1.3048 5.08011 0
M  V30 7403 H 679.05 -0.350778 5.50884 0
M  V30 7404 H 679.527 -1.3882 4.16684 0
M  V30 7405 H 680.133 0.282236 4.24362 0
M  V30 7406 N 678.448 -1.51871 0.421078 0
M  V30 7407 C 679.396 -2.28903 -0.413066 0
M  V30 7408 C 680.39 -1.3408 -1.03532 0
M  V30 7409 O 681.596 -1.5149 -0.972146 0
M  V30 7410 H 677.971 -0.736478 -0.152003 0
M  V30 7411 H 679.942 -2.97285 0.257695 0
M  V30 7412 C 678.691 -3.13156 -1.51091 0
M  V30 7413 H 678.014 -3.85997 -1.04145 0
M  V30 7414 H 679.454 -3.7014 -2.06814 0
M  V30 7415 C 677.913 -2.27482 -2.48503 0
M  V30 7416 O 678.443 -1.92325 -3.52667 0
M  V30 7417 N 676.649 -1.91019 -2.18998 0
M  V30 7418 H 676.196 -2.19808 -1.34322 0
M  V30 7419 H 676.154 -1.3399 -2.84419 0
M  V30 7420 N 679.926 -0.151884 -1.56866 0
M  V30 7421 C 681.154 0.504813 -2.00647 0
M  V30 7422 C 681.569 1.58098 -1.03201 0
M  V30 7423 O 680.926 1.82476 -0.0297814 0
M  V30 7424 C 680.977 1.10099 -3.44326 0
M  V30 7425 O 680.698 0.0678021 -4.38048 0
M  V30 7426 C 682.199 1.83782 -4.03409 0
M  V30 7427 H 679.419 0.130989 -0.65809 0
M  V30 7428 H 681.963 -0.247903 -2.02992 0
M  V30 7429 H 680.118 1.8043 -3.42817 0
M  V30 7430 H 680.532 0.505237 -5.22061 0
M  V30 7431 H 682.006 2.2078 -5.05925 0
M  V30 7432 H 682.483 2.72557 -3.44397 0
M  V30 7433 H 683.089 1.18138 -4.08563 0
M  V30 7434 N 681.404 1.57128 0.121893 0
M  V30 7435 C 682.65 1.85853 0.826451 0
M  V30 7436 C 683.005 0.739262 1.77631 0
M  V30 7437 O 682.298 -0.260959 1.89815 0
M  V30 7438 C 682.492 3.1874 1.61677 0
M  V30 7439 C 682.321 4.43487 0.744944 0
M  V30 7440 C 681.091 5.03707 0.400891 0
M  V30 7441 C 683.289 5.1426 0.0638779 0
M  V30 7442 N 681.271 6.12006 -0.481902 0
M  V30 7443 C 682.642 6.16281 -0.678033 0
M  V30 7444 C 684.697 4.97898 -0.0128424 0
M  V30 7445 C 683.4 7.0371 -1.48946 0
M  V30 7446 C 685.426 5.85812 -0.81108 0
M  V30 7447 C 684.788 6.87333 -1.54119 0
M  V30 7448 H 680.887 0.730367 0.279442 0
M  V30 7449 H 683.471 1.9449 0.0903486 0
M  V30 7450 H 681.642 3.11204 2.32393 0
M  V30 7451 H 683.374 3.35283 2.26644 0
M  V30 7452 H 680.129 4.67744 0.742469 0
M  V30 7453 H 680.553 6.70787 -0.915063 0
M  V30 7454 H 685.195 4.19372 0.537278 0
M  V30 7455 H 682.913 7.81646 -2.05074 0
M  V30 7456 H 686.499 5.75217 -0.872764 0
M  V30 7457 H 685.379 7.54182 -2.14893 0
M  V30 7458 N 682.882 -0.391992 1.52647 0
M  V30 7459 C 684.129 -1.13732 1.67545 0
M  V30 7460 C 684.457 -1.90045 0.413881 0
M  V30 7461 O 683.712 -1.86157 -0.603646 0
M  V30 7462 C 684.011 -2.14401 2.85949 0
M  V30 7463 C 683.677 -1.54767 4.23507 0
M  V30 7464 C 682.339 -1.38229 4.60919 0
M  V30 7465 C 684.691 -1.11382 5.0916 0
M  V30 7466 C 682.019 -0.7685 5.81645 0
M  V30 7467 C 684.371 -0.514143 6.30507 0
M  V30 7468 C 683.035 -0.33604 6.66654 0
M  V30 7469 H 682.305 -0.416174 0.613091 0
M  V30 7470 H 684.952 -0.422327 1.86785 0
M  V30 7471 H 683.257 -2.92108 2.61114 0
M  V30 7472 H 684.954 -2.71974 2.94671 0
M  V30 7473 H 681.544 -1.68626 3.94035 0
M  V30 7474 H 685.728 -1.22962 4.80826 0
M  V30 7475 H 680.984 -0.618681 6.08262 0
M  V30 7476 H 685.158 -0.169657 6.96193 0
M  V30 7477 H 682.785 0.14166 7.60068 0
M  V30 7478 N 684.36 -1.4356 -0.65026 0
M  V30 7479 C 685.292 -1.44918 -1.77571 0
M  V30 7480 C 686.305 -0.344925 -1.59104 0
M  V30 7481 O 687.494 -0.609537 -1.6777 0
M  V30 7482 C 684.594 -1.24914 -3.15039 0
M  V30 7483 C 683.767 -2.48232 -3.60138 0
M  V30 7484 C 682.826 -2.23409 -4.76419 0
M  V30 7485 O 681.852 -2.9678 -4.85706 0
M  V30 7486 N 683.054 -1.25259 -5.66825 0
M  V30 7487 H 685.819 -2.41935 -1.76883 0
M  V30 7488 H 683.38 -1.38754 -0.834202 0
M  V30 7489 H 685.372 -1.06185 -3.90521 0
M  V30 7490 H 683.942 -0.363319 -3.10481 0
M  V30 7491 H 683.162 -2.82366 -2.75069 0
M  V30 7492 H 684.45 -3.30296 -3.87017 0
M  V30 7493 H 683.848 -0.646246 -5.61997 0
M  V30 7494 H 682.405 -1.12513 -6.42016 0
M  V30 7495 N 685.838 0.888903 -1.30139 0
M  V30 7496 C 687.078 1.65456 -1.20015 0
M  V30 7497 C 687.442 1.90467 0.242148 0
M  V30 7498 O 688.643 2.6472 0.466561 0
M  V30 7499 C 686.914 2.96071 -2.00191 0
M  V30 7500 S 688.473 3.87055 -2.06721 0
M  V30 7501 H 685.291 0.567927 -0.427761 0
M  V30 7502 H 687.893 1.05539 -1.64565 0
M  V30 7503 H 686.597 2.7559 -3.04103 0
M  V30 7504 H 686.128 3.61023 -1.56288 0
M  V30 7505 H 688.143 4.81676 -1.19174 0
M  V30 7506 N 687.317 1.12792 1.10072 0
M  V30 7507 C 688.264 0.79921 2.16521 0
M  V30 7508 C 689.234 -0.235726 1.64419 0
M  V30 7509 O 690.419 -0.109457 1.90486 0
M  V30 7510 C 687.559 0.264091 3.44088 0
M  V30 7511 C 686.672 1.35729 4.10124 0
M  V30 7512 C 685.807 0.781212 5.25424 0
M  V30 7513 C 684.846 1.85327 5.8337 0
M  V30 7514 N 683.983 1.29564 6.90042 0
M  V30 7515 H 688.823 1.71105 2.43981 0
M  V30 7516 H 686.36 0.854225 1.19756 0
M  V30 7517 H 688.318 -0.0642423 4.17151 0
M  V30 7518 H 686.948 -0.610901 3.16967 0
M  V30 7519 H 686 1.80234 3.34993 0
M  V30 7520 H 687.312 2.16782 4.4923 0
M  V30 7521 H 686.466 0.403769 6.05355 0
M  V30 7522 H 685.205 -0.0604686 4.87663 0
M  V30 7523 H 684.21 2.23986 5.02106 0
M  V30 7524 H 685.435 2.69824 6.23195 0
M  V30 7525 H 683.381 0.475844 6.54272 0
M  V30 7526 H 683.298 2.04271 7.2788 0
M  V30 7527 H 684.566 0.945545 7.73744 0
M  V30 7528 N 688.795 -1.27931 0.920396 0
M  V30 7529 C 689.705 -2.30824 0.419212 0
M  V30 7530 C 690.721 -1.66767 -0.496461 0
M  V30 7531 O 691.897 -1.97763 -0.38104 0
M  V30 7532 C 688.962 -3.45158 -0.326601 0
M  V30 7533 C 688.023 -4.24754 0.623098 0
M  V30 7534 C 687.256 -5.33629 -0.0872172 0
M  V30 7535 O 687.479 -5.55204 -1.30784 0
M  V30 7536 O 686.413 -5.99091 0.580875 0
M  V30 7537 H 690.239 -2.75716 1.27337 0
M  V30 7538 H 687.824 -1.32747 0.685465 0
M  V30 7539 H 689.706 -4.14716 -0.747559 0
M  V30 7540 H 688.381 -3.02336 -1.15648 0
M  V30 7541 H 687.288 -3.57759 1.09359 0
M  V30 7542 H 688.621 -4.71272 1.41998 0
M  V30 7543 N 690.273 -0.685099 -1.4193 0
M  V30 7544 C 691.684 -0.287699 -1.8447 0
M  V30 7545 C 692.035 1.17215 -1.57338 0
M  V30 7546 O 691.16 1.89856 -1.03845 0
M  V30 7547 C 691.755 -0.515385 -3.34857 0
M  V30 7548 C 690.314 -0.172006 -3.76007 0
M  V30 7549 C 689.461 -0.802808 -2.65425 0
M  V30 7550 H 692.412 -0.88652 -1.3163 0
M  V30 7551 H 692.433 0.229251 -3.79809 0
M  V30 7552 H 691.945 -1.57796 -3.54573 0
M  V30 7553 H 690.046 0.886716 -3.61895 0
M  V30 7554 H 690.159 -0.619717 -4.75075 0
M  V30 7555 H 688.523 -0.233267 -2.5363 0
M  V30 7556 H 689.306 -1.86904 -2.87961 0
M  V30 7557 N 691.751 1.51645 -0.429126 0
M  V30 7558 C 692.698 2.27542 0.386446 0
M  V30 7559 C 693.668 1.30786 1.02393 0
M  V30 7560 O 694.853 1.59678 1.0444 0
M  V30 7561 C 691.993 3.11457 1.48623 0
M  V30 7562 C 691.106 4.23196 0.867691 0
M  V30 7563 C 690.241 4.94435 1.94183 0
M  V30 7564 C 689.28 5.98108 1.30129 0
M  V30 7565 N 688.417 6.62786 2.31644 0
M  V30 7566 H 693.257 2.968 -0.267155 0
M  V30 7567 H 690.794 1.46397 -0.143591 0
M  V30 7568 H 692.752 3.58429 2.13506 0
M  V30 7569 H 691.382 2.44329 2.10957 0
M  V30 7570 H 690.434 3.80248 0.107373 0
M  V30 7571 H 691.746 4.97499 0.35997 0
M  V30 7572 H 690.9 5.44914 2.66747 0
M  V30 7573 H 689.639 4.19744 2.48326 0
M  V30 7574 H 688.644 5.4693 0.561082 0
M  V30 7575 H 689.869 6.74751 0.767303 0
M  V30 7576 H 687.815 5.90913 2.84883 0
M  V30 7577 H 687.732 7.32828 1.85741 0
M  V30 7578 H 689 7.17897 3.03717 0
M  V30 7579 N 693.229 0.160201 1.56784 0
M  V30 7580 C 694.177 -0.791402 2.18723 0
M  V30 7581 C 695.171 -1.24567 1.14801 0
M  V30 7582 O 696.377 -1.21262 1.33025 0
M  V30 7583 H 692.752 -0.273458 0.700517 0
M  V30 7584 H 694.723 -0.244931 2.97393 0
M  V30 7585 C 693.472 -2.01509 2.83354 0
M  V30 7586 H 692.795 -1.67454 3.63041 0
M  V30 7587 H 694.235 -2.66006 3.30177 0
M  V30 7588 C 692.694 -2.83159 1.82545 0
M  V30 7589 O 693.224 -3.79944 1.30405 0
M  V30 7590 N 691.43 -2.47953 1.51552 0
M  V30 7591 H 690.977 -1.69309 1.94144 0
M  V30 7592 H 690.935 -3.02873 0.843519 0
M  V30 7593 N 694.707 -1.5719 -0.113559 0
M  V30 7594 C 695.932 -1.89702 -0.838336 0
M  V30 7595 C 696.357 -0.752679 -1.72384 0
M  V30 7596 O 695.715 0.296575 -1.78858 0
M  V30 7597 C 695.763 -3.20989 -1.64312 0
M  V30 7598 O 694.867 -3.07278 -2.75053 0
M  V30 7599 H 694.208 -0.622339 -0.231496 0
M  V30 7600 H 696.738 -2.04382 -0.0943228 0
M  V30 7601 H 696.748 -3.53843 -2.03123 0
M  V30 7602 H 695.423 -4.03869 -0.993119 0
M  V30 7603 H 694 -2.85901 -2.39406 0
M  V30 7604 N 696.185 0.383891 -1.52853 0
M  V30 7605 C 697.41 1.154 -1.7233 0
M  V30 7606 C 697.835 1.82809 -0.44298 0
M  V30 7607 O 697.193 1.71026 0.601645 0
M  V30 7608 C 697.241 2.17386 -2.87708 0
M  V30 7609 O 696.345 3.24082 -2.55038 0
M  V30 7610 H 695.686 0.335709 -0.572883 0
M  V30 7611 H 698.216 0.44662 -1.99666 0
M  V30 7612 H 698.226 2.61296 -3.1335 0
M  V30 7613 H 696.901 1.6771 -3.80587 0
M  V30 7614 H 695.478 2.85273 -2.40153 0
M  V30 7615 N 697.663 1.43903 0.642637 0
M  V30 7616 C 698.91 1.46079 1.40239 0
M  V30 7617 C 699.238 0.0890335 1.94296 0
M  V30 7618 O 698.493 -0.907533 1.73385 0
M  V30 7619 C 698.792 2.45907 2.59354 0
M  V30 7620 C 698.458 3.91522 2.23654 0
M  V30 7621 C 697.12 4.31179 2.1363 0
M  V30 7622 C 699.472 4.83242 1.95261 0
M  V30 7623 C 696.8 5.60495 1.73384 0
M  V30 7624 C 699.152 6.12933 1.56511 0
M  V30 7625 C 697.816 6.51556 1.4502 0
M  V30 7626 H 697.086 0.534542 0.513172 0
M  V30 7627 H 699.733 1.77047 0.72984 0
M  V30 7628 H 698.038 2.08381 3.3179 0
M  V30 7629 H 699.735 2.44842 3.17574 0
M  V30 7630 H 696.325 3.60142 2.32369 0
M  V30 7631 H 700.509 4.53367 2.0192 0
M  V30 7632 H 695.765 5.89249 1.63082 0
M  V30 7633 H 699.939 6.83469 1.33576 0
M  V30 7634 H 697.566 7.51663 1.13606 0
M  V30 7635 N 699.141 -0.881989 1.30609 0
M  V30 7636 C 700.389 -1.63082 1.19368 0
M  V30 7637 C 700.71 -1.93376 -0.251147 0
M  V30 7638 O 699.98 -1.5723 -1.16857 0
M  V30 7639 H 698.56 -0.604542 0.438791 0
M  V30 7640 H 701.222 -1.05658 1.63776 0
M  V30 7641 H 700.318 -2.57966 1.7567 0
M  V30 7642 N 700.619 -1.13374 -1.09472 0
M  V30 7643 C 701.866 -0.89519 -1.81639 0
M  V30 7644 C 702.194 0.57868 -1.85692 0
M  V30 7645 O 701.449 1.44426 -1.32059 0
M  V30 7646 C 701.748 -1.42759 -3.2765 0
M  V30 7647 C 701.414 -2.91822 -3.43731 0
M  V30 7648 C 700.076 -3.32521 -3.47827 0
M  V30 7649 C 702.428 -3.87727 -3.48307 0
M  V30 7650 C 699.756 -4.6781 -3.54078 0
M  V30 7651 C 702.108 -5.22859 -3.56091 0
M  V30 7652 C 700.772 -5.63086 -3.58456 0
M  V30 7653 H 700.042 -0.327573 -0.664663 0
M  V30 7654 H 702.689 -1.4156 -1.28969 0
M  V30 7655 H 700.994 -0.827871 -3.82954 0
M  V30 7656 H 702.691 -1.2191 -3.8202 0
M  V30 7657 H 699.281 -2.5935 -3.41226 0
M  V30 7658 H 703.465 -3.57371 -3.44383 0
M  V30 7659 H 698.721 -4.98353 -3.54195 0
M  V30 7660 H 702.895 -5.96989 -3.58577 0
M  V30 7661 H 700.522 -6.67905 -3.63052 0
M  V30 7662 N 702.098 1.27442 -0.927168 0
M  V30 7663 C 703.375 1.89473 -0.485742 0
M  V30 7664 C 703.755 1.83922 1.03614 0
M  V30 7665 O 703.103 1.28409 1.89007 0
M  V30 7666 C 703.313 3.33417 -1.03123 0
M  V30 7667 C 704.661 4.10333 -1.0914 0
M  V30 7668 O 705.685 3.4243 -0.98082 0
M  V30 7669 O 704.544 5.31737 -1.26165 0
M  V30 7670 H 701.638 0.812124 -0.156154 0
M  V30 7671 H 704.184 1.35713 -1.01882 0
M  V30 7672 H 702.956 3.31747 -2.07508 0
M  V30 7673 H 702.579 3.94695 -0.479767 0
M  V30 7674 N 703.576 0.692616 1.41565 0
M  V30 7675 C 704.825 0.219452 2.00503 0
M  V30 7676 C 705.138 -1.18683 1.55479 0
M  V30 7677 O 706.344 -1.75731 2.06956 0
M  V30 7678 C 704.8 0.341451 3.58277 0
M  V30 7679 C 704.408 1.75291 4.12283 0
M  V30 7680 C 706.152 -0.0720899 4.24439 0
M  V30 7681 C 704.059 1.82673 5.62481 0
M  V30 7682 H 702.989 0.0782874 0.749925 0
M  V30 7683 H 705.64 0.860386 1.62079 0
M  V30 7684 H 704.022 -0.367683 3.94289 0
M  V30 7685 H 705.196 2.49057 3.87695 0
M  V30 7686 H 703.511 2.11587 3.58636 0
M  V30 7687 H 706.108 -0.0373385 5.34687 0
M  V30 7688 H 706.451 -1.11034 4.0122 0
M  V30 7689 H 706.984 0.586663 3.9345 0
M  V30 7690 H 703.723 2.84539 5.90523 0
M  V30 7691 H 703.243 1.13288 5.89004 0
M  V30 7692 H 704.922 1.58827 6.27203 0
M  V30 7693 N 705.054 -1.51416 0.437162 0
M  V30 7694 C 706.002 -2.29328 -0.388765 0
M  V30 7695 C 706.996 -1.35171 -1.02104 0
M  V30 7696 O 708.202 -1.52513 -0.956024 0
M  V30 7697 H 704.577 -0.738048 -0.144183 0
M  V30 7698 H 706.548 -2.96995 0.289212 0
M  V30 7699 C 705.297 -3.14741 -1.47761 0
M  V30 7700 H 704.62 -3.8708 -1.00045 0
M  V30 7701 H 706.06 -3.72313 -2.02877 0
M  V30 7702 C 704.519 -2.30105 -2.46076 0
M  V30 7703 O 705.049 -1.96055 -3.50607 0
M  V30 7704 N 703.255 -1.93331 -2.1696 0
M  V30 7705 H 702.802 -2.2122 -1.31983 0
M  V30 7706 H 702.76 -1.36999 -2.82982 0
M  V30 7707 N 706.532 -0.168513 -1.56696 0
M  V30 7708 C 707.479 0.762875 -2.17828 0
M  V30 7709 C 708.449 1.22892 -1.11745 0
M  V30 7710 O 709.634 1.29759 -1.39883 0
M  V30 7711 C 706.774 1.9879 -2.82093 0
M  V30 7712 C 705.887 1.56568 -4.02629 0
M  V30 7713 C 705.022 2.74416 -4.54829 0
M  V30 7714 C 704.061 2.28671 -5.67782 0
M  V30 7715 N 703.198 3.39602 -6.14504 0
M  V30 7716 H 708.038 0.23479 -2.97074 0
M  V30 7717 H 705.575 0.104163 -1.46731 0
M  V30 7718 H 707.533 2.70636 -3.17509 0
M  V30 7719 H 706.163 2.48973 -2.05456 0
M  V30 7720 H 705.215 0.744067 -3.73052 0
M  V30 7721 H 706.527 1.18988 -4.844 0
M  V30 7722 H 705.681 3.54423 -4.92412 0
M  V30 7723 H 704.42 3.15254 -3.7211 0
M  V30 7724 H 703.425 1.4711 -5.29753 0
M  V30 7725 H 704.65 1.88894 -6.52301 0
M  V30 7726 H 702.596 3.80021 -5.34715 0
M  V30 7727 H 702.513 3.06105 -6.91257 0
M  V30 7728 H 703.781 4.19902 -6.56737 0
M  V30 7729 N 708.01 1.57248 0.105221 0
M  V30 7730 C 708.92 2.04653 1.14693 0
M  V30 7731 C 709.936 0.969488 1.44489 0
M  V30 7732 O 711.112 1.28196 1.55331 0
M  V30 7733 C 708.177 2.45297 2.45011 0
M  V30 7734 C 707.238 3.67148 2.22489 0
M  V30 7735 C 706.471 4.05844 3.46592 0
M  V30 7736 O 706.694 3.44736 4.54437 0
M  V30 7737 O 705.628 4.98862 3.36779 0
M  V30 7738 H 709.454 2.93663 0.774336 0
M  V30 7739 H 707.039 1.45998 0.31701 0
M  V30 7740 H 708.921 2.72112 3.21766 0
M  V30 7741 H 707.596 1.59429 2.81717 0
M  V30 7742 H 706.503 3.45463 1.43547 0
M  V30 7743 H 707.836 4.53764 1.9068 0
M  V30 7744 N 709.488 -0.375779 1.53054 0
M  V30 7745 C 710.435 -1.45978 1.78771 0
M  V30 7746 C 711.405 -1.53625 0.631552 0
M  V30 7747 O 712.59 -1.69674 0.872667 0
M  V30 7748 C 709.73 -2.8305 1.97425 0
M  V30 7749 C 708.843 -2.84451 3.25134 0
M  V30 7750 C 707.978 -4.13034 3.34031 0
M  V30 7751 C 707.017 -4.08536 4.55812 0
M  V30 7752 N 706.154 -5.2875 4.61918 0
M  V30 7753 H 710.994 -1.23349 2.71273 0
M  V30 7754 H 708.531 -0.598147 1.3439 0
M  V30 7755 H 710.489 -3.62666 2.06225 0
M  V30 7756 H 709.119 -3.04101 1.0827 0
M  V30 7757 H 708.171 -1.97127 3.25338 0
M  V30 7758 H 709.483 -2.76998 4.14818 0
M  V30 7759 H 708.637 -5.0106 3.42087 0
M  V30 7760 H 707.376 -4.23226 2.42345 0
M  V30 7761 H 706.381 -3.18897 4.47867 0
M  V30 7762 H 707.606 -3.99955 5.48828 0
M  V30 7763 H 705.552 -5.39547 3.73129 0
M  V30 7764 H 705.469 -5.23426 5.45492 0
M  V30 7765 H 706.737 -6.18637 4.74245 0
M  V30 7766 N 710.966 -1.44241 -0.634997 0
M  V30 7767 C 711.929 -1.50457 -1.72903 0
M  V30 7768 C 712.929 -0.387058 -1.56072 0
M  V30 7769 O 714.119 -0.649531 -1.61638 0
M  V30 7770 C 711.251 -1.37477 -3.1195 0
M  V30 7771 H 712.444 -2.47907 -1.68767 0
M  V30 7772 H 709.997 -1.31276 -0.84831 0
M  V30 7773 H 710.732 -0.41106 -3.21684 0
M  V30 7774 H 710.517 -2.18506 -3.25573 0
M  V30 7775 H 712.007 -1.44799 -3.91692 0
M  V30 7776 N 712.444 0.87505 -1.31075 0
M  V30 7777 C 713.394 1.96933 -1.14898 0
M  V30 7778 C 714.378 1.60783 -0.0613703 0
M  V30 7779 O 715.57 1.74678 -0.285751 0
M  V30 7780 C 712.699 3.3253 -0.853166 0
M  V30 7781 C 711.785 3.74963 -1.98151 0
M  V30 7782 N 712.176 3.89403 -3.22799 0
M  V30 7783 C 710.474 4.04436 -1.8801 0
M  V30 7784 C 711.175 4.25563 -3.96574 0
M  V30 7785 N 710.151 4.3597 -3.24701 0
M  V30 7786 H 713.953 2.06201 -2.09424 0
M  V30 7787 H 711.467 1.06551 -1.22558 0
M  V30 7788 H 713.464 4.10666 -0.718266 0
M  V30 7789 H 712.124 3.24592 0.0839218 0
M  V30 7790 H 713.135 3.74266 -3.57974 0
M  V30 7791 H 709.812 4.04915 -1.01733 0
M  V30 7792 H 711.202 4.44375 -5.03965 0
M  V30 7793 N 713.922 1.13953 1.08869 0
M  V30 7794 C 715.147 0.928559 1.85452 0
M  V30 7795 C 715.572 -0.517642 1.80837 0
M  V30 7796 O 714.93 -1.36779 1.19001 0
M  V30 7797 C 714.978 1.42814 3.31114 0
M  V30 7798 O 714.082 0.617129 4.07756 0
M  V30 7799 H 713.423 0.33235 0.574839 0
M  V30 7800 H 715.953 1.5156 1.37443 0
M  V30 7801 H 715.963 1.43425 3.8196 0
M  V30 7802 H 714.638 2.48109 3.33788 0
M  V30 7803 H 713.215 0.679365 3.66659 0
M  V30 7804 N 715.4 -1.26948 0.933913 0
M  V30 7805 C 716.648 -1.93704 0.576484 0
M  V30 7806 C 716.969 -1.73702 -0.886145 0
M  V30 7807 O 716.239 -1.08838 -1.62884 0
M  V30 7808 H 714.819 -0.716812 0.210214 0
M  V30 7809 H 717.481 -1.54534 1.18766 0
M  V30 7810 H 716.577 -3.01987 0.788055 0
M  V30 7811 N 716.879 -0.700114 -1.41195 0
M  V30 7812 C 718.127 -0.232546 -2.00758 0
M  V30 7813 C 718.448 1.1734 -1.55745 0
M  V30 7814 O 717.718 1.79262 -0.790058 0
M  V30 7815 H 716.298 -0.0829845 -0.742376 0
M  V30 7816 H 718.96 -0.902289 -1.72756 0
M  V30 7817 H 718.056 -0.253521 -3.11069 0
M  V30 7818 N 718.357 1.51182 -0.445186 0
M  V30 7819 C 719.606 2.01342 0.120189 0
M  V30 7820 C 719.919 1.33353 1.43095 0
M  V30 7821 O 721.125 1.74525 2.07974 0
M  V30 7822 C 719.581 3.58925 0.264732 0
M  V30 7823 C 719.189 4.35855 -1.03606 0
M  V30 7824 C 720.933 4.17208 0.783455 0
M  V30 7825 C 718.84 5.85162 -0.856731 0
M  V30 7826 H 717.77 0.752426 0.0486922 0
M  V30 7827 H 720.421 1.74221 -0.576143 0
M  V30 7828 H 718.803 3.82525 1.02425 0
M  V30 7829 H 719.977 4.23997 -1.80452 0
M  V30 7830 H 718.292 3.89062 -1.48391 0
M  V30 7831 H 720.889 5.26475 0.934239 0
M  V30 7832 H 721.232 3.76892 1.768 0
M  V30 7833 H 721.765 3.97715 0.0820346 0
M  V30 7834 H 718.504 6.29904 -1.81388 0
M  V30 7835 H 718.024 5.99663 -0.128206 0
M  V30 7836 H 719.703 6.44963 -0.513027 0
M  V30 7837 N 719.835 0.176821 1.56605 0
M  V30 7838 C 720.782 -0.751312 2.18229 0
M  V30 7839 C 721.752 -1.22297 1.12395 0
M  V30 7840 O 722.937 -1.29015 1.40569 0
M  V30 7841 C 720.077 -1.97291 2.83143 0
M  V30 7842 C 719.19 -1.54431 4.03454 0
M  V30 7843 C 718.325 -2.72 4.56278 0
M  V30 7844 C 717.364 -2.25657 5.68986 0
M  V30 7845 N 716.501 -3.36338 6.16296 0
M  V30 7846 H 721.341 -0.219033 2.97194 0
M  V30 7847 H 718.878 -0.0963803 1.46784 0
M  V30 7848 H 720.836 -2.68949 3.1894 0
M  V30 7849 H 719.466 -2.4788 2.06773 0
M  V30 7850 H 718.518 -0.724273 3.73441 0
M  V30 7851 H 719.83 -1.16417 4.85024 0
M  V30 7852 H 718.984 -3.51806 4.94285 0
M  V30 7853 H 717.723 -3.13277 3.73777 0
M  V30 7854 H 716.728 -1.44299 5.30526 0
M  V30 7855 H 717.953 -1.85432 6.53293 0
M  V30 7856 H 715.899 -3.7718 5.36723 0
M  V30 7857 H 715.816 -3.02435 6.9287 0
M  V30 7858 H 717.084 -4.16413 6.58954 0
M  V30 7859 N 721.313 -1.57302 -0.09688 0
M  V30 7860 C 722.562 -1.85183 -0.799388 0
M  V30 7861 C 722.875 -0.765818 -1.79985 0
M  V30 7862 O 724.081 -0.931696 -2.55013 0
M  V30 7863 C 722.537 -3.28399 -1.47249 0
M  V30 7864 C 722.145 -4.45066 -0.511888 0
M  V30 7865 C 723.889 -3.65506 -2.15883 0
M  V30 7866 C 721.796 -5.79315 -1.18948 0
M  V30 7867 H 720.726 -0.690752 -0.302287 0
M  V30 7868 H 723.377 -1.83425 -0.0523104 0
M  V30 7869 H 721.759 -3.24692 -2.26697 0
M  V30 7870 H 722.933 -4.60116 0.250962 0
M  V30 7871 H 721.248 -4.16343 0.0686576 0
M  V30 7872 H 723.845 -4.63087 -2.67309 0
M  V30 7873 H 724.188 -2.94041 -2.94696 0
M  V30 7874 H 724.721 -3.71094 -1.43298 0
M  V30 7875 H 721.46 -6.54007 -0.442198 0
M  V30 7876 H 720.98 -5.68111 -1.9238 0
M  V30 7877 H 722.659 -6.23816 -1.71646 0
M  V30 7878 N 722.791 0.367657 -1.53252 0
M  V30 7879 C 723.721 1.45632 -1.8252 0
M  V30 7880 C 724.702 1.55979 -0.678568 0
M  V30 7881 O 725.887 1.70581 -0.928217 0
M  V30 7882 C 723.017 2.82994 -2.01325 0
M  V30 7883 C 721.971 2.87473 -3.17086 0
M  V30 7884 C 721.297 4.2749 -3.21179 0
M  V30 7885 C 722.597 2.55182 -4.55719 0
M  V30 7886 H 724.291 1.21387 -2.73689 0
M  V30 7887 H 721.837 0.58251 -1.31692 0
M  V30 7888 H 723.79 3.59179 -2.20383 0
M  V30 7889 H 722.514 3.08622 -1.06864 0
M  V30 7890 H 721.173 2.13739 -2.97844 0
M  V30 7891 H 720.821 4.5019 -2.24361 0
M  V30 7892 H 720.521 4.31403 -3.98955 0
M  V30 7893 H 722.045 5.0555 -3.42419 0
M  V30 7894 H 723.459 3.21081 -4.74953 0
M  V30 7895 H 721.856 2.70414 -5.3572 0
M  V30 7896 H 722.926 1.5044 -4.60973 0
M  V30 7897 N 724.269 1.44576 0.627338 0
M  V30 7898 C 725.499 1.50829 1.41189 0
M  V30 7899 C 725.907 0.133083 1.88731 0
M  V30 7900 O 725.25 -0.87199 1.61685 0
M  V30 7901 C 725.312 2.41449 2.66351 0
M  V30 7902 C 724.976 3.88549 2.40579 0
M  V30 7903 C 725.973 4.78981 2.0217 0
M  V30 7904 C 723.658 4.33287 2.54102 0
M  V30 7905 C 725.652 6.12153 1.77618 0
M  V30 7906 C 723.339 5.66505 2.29163 0
M  V30 7907 C 724.337 6.55756 1.9098 0
M  V30 7908 O 724.025 7.86506 1.66321 0
M  V30 7909 H 723.757 0.513797 0.439304 0
M  V30 7910 H 726.311 1.90256 0.774059 0
M  V30 7911 H 724.541 1.96955 3.32784 0
M  V30 7912 H 726.23 2.38608 3.28361 0
M  V30 7913 H 726.996 4.45689 1.91277 0
M  V30 7914 H 722.875 3.64074 2.82792 0
M  V30 7915 H 726.419 6.81776 1.47739 0
M  V30 7916 H 722.316 5.99358 2.39668 0
M  V30 7917 H 723.084 7.98341 1.80536 0
M  V30 7918 N 725.747 -0.868086 1.31537 0
M  V30 7919 C 726.697 -1.96321 1.1594 0
M  V30 7920 C 727.681 -1.60748 0.0698962 0
M  V30 7921 O 728.873 -1.74524 0.295011 0
M  V30 7922 C 726.002 -3.32073 0.870789 0
M  V30 7923 C 725.088 -3.73907 2.00136 0
M  V30 7924 N 725.479 -3.87685 3.24859 0
M  V30 7925 C 723.777 -4.03433 1.90152 0
M  V30 7926 C 724.478 -4.23454 3.98825 0
M  V30 7927 N 723.454 -4.34242 3.27009 0
M  V30 7928 H 727.256 -2.05088 2.10514 0
M  V30 7929 H 724.77 -1.059 1.23122 0
M  V30 7930 H 726.767 -4.10279 0.740034 0
M  V30 7931 H 725.427 -3.24631 -0.0667068 0
M  V30 7932 H 726.438 -3.72363 3.59953 0
M  V30 7933 H 723.115 -4.0437 1.03879 0
M  V30 7934 H 724.505 -4.41696 5.06314 0
M  V30 7935 N 727.225 -1.14528 -1.08264 0
M  V30 7936 C 728.172 -0.833556 -2.15222 0
M  V30 7937 C 729.142 0.209539 -1.64773 0
M  V30 7938 O 730.327 0.0791388 -1.90636 0
M  V30 7939 C 727.467 -0.318799 -3.43624 0
M  V30 7940 C 726.58 -1.42237 -4.07913 0
M  V30 7941 C 725.715 -0.864704 -5.24115 0
M  V30 7942 C 724.754 -1.94585 -5.80347 0
M  V30 7943 N 723.891 -1.40525 -6.87893 0
M  V30 7944 H 728.731 -1.74965 -2.41228 0
M  V30 7945 H 726.268 -0.873169 -1.18381 0
M  V30 7946 H 728.226 -0.00213088 -4.172 0
M  V30 7947 H 726.856 0.560397 -3.17898 0
M  V30 7948 H 725.908 -1.8554 -3.32083 0
M  V30 7949 H 727.22 -2.23901 -4.45724 0
M  V30 7950 H 726.374 -0.500025 -6.04636 0
M  V30 7951 H 725.113 -0.0171219 -4.87697 0
M  V30 7952 H 724.118 -2.31946 -4.98479 0
M  V30 7953 H 725.343 -2.79704 -6.18823 0
M  V30 7954 H 723.289 -0.579873 -6.53432 0
M  V30 7955 H 723.206 -2.15825 -7.24538 0
M  V30 7956 H 724.474 -1.06852 -7.72142 0
M  V30 7957 N 728.703 1.26451 -0.940633 0
M  V30 7958 C 729.928 1.98407 -0.60412 0
M  V30 7959 C 730.353 1.69584 0.81382 0
M  V30 7960 O 729.711 0.943553 1.54812 0
M  V30 7961 C 729.759 3.50387 -0.852136 0
M  V30 7962 O 728.863 4.1233 0.076013 0
M  V30 7963 H 728.204 0.622466 -0.231153 0
M  V30 7964 H 730.734 1.60932 -1.26342 0
M  V30 7965 H 730.744 4.00614 -0.772816 0
M  V30 7966 H 729.419 3.70696 -1.88566 0
M  V30 7967 H 727.996 3.7286 -0.0543187 0
M  V30 7968 N 730.181 0.707592 1.40822 0
M  V30 7969 C 731.111 0.0644925 2.33411 0
M  V30 7970 C 732.092 -0.754205 1.52466 0
M  V30 7971 O 733.277 -0.704749 1.80961 0
M  V30 7972 C 730.407 -0.863865 3.36385 0
M  V30 7973 C 729.361 -0.15138 4.27732 0
M  V30 7974 C 728.687 -1.19491 5.21177 0
M  V30 7975 C 729.987 0.989607 5.12839 0
M  V30 7976 H 731.681 0.837829 2.87438 0
M  V30 7977 H 729.227 0.404346 1.38207 0
M  V30 7978 H 731.18 -1.32309 4.0009 0
M  V30 7979 H 729.904 -1.66901 2.80734 0
M  V30 7980 H 728.563 0.287937 3.65467 0
M  V30 7981 H 728.211 -1.9929 4.61836 0
M  V30 7982 H 727.911 -0.723123 5.83134 0
M  V30 7983 H 729.435 -1.6544 5.8776 0
M  V30 7984 H 730.849 0.610114 5.70044 0
M  V30 7985 H 729.246 1.38926 5.83798 0
M  V30 7986 H 730.316 1.82389 4.49291 0
M  V30 7987 N 731.66 -1.50943 0.453197 0
M  V30 7988 C 732.885 -2.07116 -0.108463 0
M  V30 7989 C 733.31 -1.31681 -1.3432 0
M  V30 7990 O 732.668 -0.359256 -1.77705 0
M  V30 7991 C 732.716 -3.58447 -0.393424 0
M  V30 7992 O 731.82 -3.85038 -1.47714 0
M  V30 7993 H 731.161 -0.66398 0.0050993 0
M  V30 7994 H 733.691 -1.94362 0.639095 0
M  V30 7995 H 733.701 -4.02961 -0.639222 0
M  V30 7996 H 732.376 -4.12774 0.508946 0
M  V30 7997 H 730.953 -3.52376 -1.22006 0
M  V30 7998 N 733.138 -0.185124 -1.56509 0
M  V30 7999 C 734.068 0.735098 -2.21627 0
M  V30 8000 C 735.049 1.2288 -1.1762 0
M  V30 8001 O 736.234 1.27945 -1.46095 0
M  V30 8002 C 733.364 1.95889 -2.86783 0
M  V30 8003 C 732.318 1.6005 -3.96948 0
M  V30 8004 C 731.644 2.90009 -4.4922 0
M  V30 8005 C 732.944 0.818008 -5.15855 0
M  V30 8006 H 734.638 0.192274 -2.98782 0
M  V30 8007 H 732.184 0.0910393 -1.43712 0
M  V30 8008 H 734.137 2.60779 -3.31017 0
M  V30 8009 H 732.861 2.52608 -2.07018 0
M  V30 8010 H 731.52 0.975237 -3.5339 0
M  V30 8011 H 731.168 3.44797 -3.6623 0
M  V30 8012 H 730.868 2.66778 -5.23549 0
M  V30 8013 H 732.392 3.55904 -4.9615 0
M  V30 8014 H 733.806 1.36979 -5.56695 0
M  V30 8015 H 732.203 0.684207 -5.96187 0
M  V30 8016 H 733.273 -0.182939 -4.84555 0
M  V30 8017 N 734.616 1.57351 0.0885366 0
M  V30 8018 C 735.863 1.86419 0.790824 0
M  V30 8019 C 736.191 0.774561 1.78412 0
M  V30 8020 O 735.446 -0.23119 1.9433 0
M  V30 8021 C 735.745 3.22098 1.5488 0
M  V30 8022 C 735.411 4.4548 0.697025 0
M  V30 8023 C 734.073 4.78975 0.462237 0
M  V30 8024 C 736.425 5.21094 0.105315 0
M  V30 8025 C 733.753 5.85507 -0.374016 0
M  V30 8026 C 736.105 6.28509 -0.718298 0
M  V30 8027 C 734.769 6.60515 -0.963116 0
M  V30 8028 H 734.039 0.682157 0.289383 0
M  V30 8029 H 736.686 1.91429 0.0520961 0
M  V30 8030 H 734.991 3.12803 2.35927 0
M  V30 8031 H 736.688 3.41819 2.09669 0
M  V30 8032 H 733.278 4.19255 0.890137 0
M  V30 8033 H 737.462 4.95544 0.273856 0
M  V30 8034 H 732.718 6.08713 -0.572606 0
M  V30 8035 H 736.892 6.86268 -1.18362 0
M  V30 8036 H 734.519 7.42893 -1.6129 0
M  V30 8037 N 736.094 -0.359525 1.53444 0
M  V30 8038 C 737.343 -1.09886 1.69139 0
M  V30 8039 C 737.656 -1.90285 0.452863 0
M  V30 8040 O 738.862 -2.67033 0.490459 0
M  V30 8041 C 737.318 -2.0028 2.99025 0
M  V30 8042 C 736.926 -1.25164 4.30161 0
M  V30 8043 C 738.67 -2.74168 3.24086 0
M  V30 8044 C 736.577 -2.14494 5.51132 0
M  V30 8045 H 735.507 -0.413936 0.630217 0
M  V30 8046 H 738.158 -0.359434 1.79945 0
M  V30 8047 H 736.54 -2.77978 2.82036 0
M  V30 8048 H 737.714 -0.524867 4.57801 0
M  V30 8049 H 736.029 -0.631116 4.11589 0
M  V30 8050 H 738.626 -3.41243 4.11652 0
M  V30 8051 H 738.969 -3.39868 2.40407 0
M  V30 8052 H 739.502 -2.0355 3.41778 0
M  V30 8053 H 736.241 -1.53362 6.37307 0
M  V30 8054 H 735.761 -2.85004 5.27762 0
M  V30 8055 H 737.44 -2.73914 5.86157 0
M  V30 8056 N 737.572 -1.44907 -0.619662 0
M  V30 8057 C 738.819 -1.48292 -1.37898 0
M  V30 8058 C 739.147 -0.119933 -1.9413 0
M  V30 8059 O 738.402 0.879834 -1.74807 0
M  V30 8060 C 738.701 -2.50002 -2.55409 0
M  V30 8061 C 738.367 -3.95031 -2.17397 0
M  V30 8062 C 737.029 -4.34524 -2.06743 0
M  V30 8063 C 739.381 -4.86287 -1.87548 0
M  V30 8064 C 736.709 -5.63183 -1.64445 0
M  V30 8065 C 739.061 -6.15346 -1.4674 0
M  V30 8066 C 737.725 -6.53781 -1.34636 0
M  V30 8067 H 736.995 -0.542638 -0.504603 0
M  V30 8068 H 739.642 -1.78186 -0.701581 0
M  V30 8069 H 737.947 -2.13634 -3.28433 0
M  V30 8070 H 739.644 -2.49864 -3.13639 0
M  V30 8071 H 736.234 -3.63793 -2.26611 0
M  V30 8072 H 740.418 -4.56522 -1.94682 0
M  V30 8073 H 735.674 -5.91769 -1.53687 0
M  V30 8074 H 739.848 -6.85508 -1.22685 0
M  V30 8075 H 737.475 -7.53375 -1.01634 0
M  V30 8076 N 739.05 0.861098 -1.31996 0
M  V30 8077 C 740.298 1.61162 -1.21947 0
M  V30 8078 C 740.619 1.93751 0.220351 0
M  V30 8079 O 739.889 1.59069 1.14341 0
M  V30 8080 H 738.469 0.597485 -0.448353 0
M  V30 8081 H 741.131 1.03039 -1.65436 0
M  V30 8082 H 740.227 2.55138 -1.79752 0
M  V30 8083 N 740.528 1.15101 1.07655 0
M  V30 8084 C 741.777 0.918528 1.79572 0
M  V30 8085 C 742.09 -0.555922 1.87534 0
M  V30 8086 O 743.296 -0.905893 2.55941 0
M  V30 8087 C 741.752 1.59394 3.22679 0
M  V30 8088 C 741.36 3.1052 3.22927 0
M  V30 8089 C 743.104 1.44289 3.99225 0
M  V30 8090 C 741.011 3.70862 4.60668 0
M  V30 8091 H 739.941 0.340006 0.672987 0
M  V30 8092 H 742.592 1.38079 1.20857 0
M  V30 8093 H 740.974 1.05936 3.81567 0
M  V30 8094 H 742.148 3.70708 2.737 0
M  V30 8095 H 740.463 3.25351 2.59876 0
M  V30 8096 H 743.06 1.86766 5.01022 0
M  V30 8097 H 743.403 0.389975 4.14469 0
M  V30 8098 H 743.936 1.94826 3.46825 0
M  V30 8099 H 740.675 4.7604 4.50628 0
M  V30 8100 H 740.195 3.15456 5.10145 0
M  V30 8101 H 741.874 3.71607 5.29639 0
M  V30 8102 N 742.006 -1.2595 0.947325 0
M  V30 8103 C 743.252 -1.9375 0.599064 0
M  V30 8104 C 743.585 -1.74088 -0.860632 0
M  V30 8105 O 742.86 -1.08158 -1.61654 0
M  V30 8106 C 743.143 -3.47353 0.949634 0
M  V30 8107 C 742.996 -3.76273 2.46452 0
M  V30 8108 C 744.315 -4.37589 0.469442 0
M  V30 8109 H 741.434 -0.703674 0.219115 0
M  V30 8110 H 744.076 -1.48705 1.18266 0
M  V30 8111 H 742.226 -3.8585 0.453008 0
M  V30 8112 H 743.898 -3.47455 3.03435 0
M  V30 8113 H 742.141 -3.22135 2.90537 0
M  V30 8114 H 742.812 -4.83664 2.66032 0
M  V30 8115 H 745.288 -4.06353 0.89534 0
M  V30 8116 H 744.164 -5.43841 0.7435 0
M  V30 8117 H 744.425 -4.37579 -0.630618 0
M  V30 8118 N 743.484 -0.715051 -1.40445 0
M  V30 8119 C 744.434 -0.038591 -2.27967 0
M  V30 8120 C 745.418 0.733099 -1.43229 0
M  V30 8121 O 746.61 0.605388 -1.66325 0
M  V30 8122 C 743.739 0.882801 -3.31755 0
M  V30 8123 C 742.825 0.106325 -4.23967 0
M  V30 8124 N 743.216 -0.910143 -4.97544 0
M  V30 8125 C 741.514 0.33896 -4.4471 0
M  V30 8126 C 742.215 -1.37665 -5.65175 0
M  V30 8127 N 741.191 -0.698905 -5.39088 0
M  V30 8128 H 744.993 -0.81765 -2.82297 0
M  V30 8129 H 742.507 -0.547591 -1.5289 0
M  V30 8130 H 744.504 1.38273 -3.93302 0
M  V30 8131 H 743.164 1.66124 -2.78985 0
M  V30 8132 H 744.175 -1.29097 -5.01552 0
M  V30 8133 H 740.852 1.09377 -4.02918 0
M  V30 8134 H 742.242 -2.22122 -6.34123 0
M  V30 8135 N 744.962 1.50701 -0.461195 0
M  V30 8136 C 745.892 2.31182 0.328184 0
M  V30 8137 C 746.873 1.37644 0.999408 0
M  V30 8138 O 748.058 1.66565 0.99848 0
M  V30 8139 C 745.188 3.17113 1.41621 0
M  V30 8140 C 744.142 4.19124 0.867148 0
M  V30 8141 C 743.468 4.93728 2.05272 0
M  V30 8142 C 744.768 5.22174 -0.114808 0
M  V30 8143 H 746.462 2.97423 -0.343501 0
M  V30 8144 H 744.008 1.43033 -0.166641 0
M  V30 8145 H 745.961 3.72208 1.97584 0
M  V30 8146 H 744.685 2.48739 2.11652 0
M  V30 8147 H 743.344 3.65116 0.329557 0
M  V30 8148 H 742.992 4.21835 2.73978 0
M  V30 8149 H 742.692 5.62724 1.69161 0
M  V30 8150 H 744.216 5.51654 2.61744 0
M  V30 8151 H 745.63 5.72198 0.355316 0
M  V30 8152 H 744.027 5.98833 -0.389689 0
M  V30 8153 H 745.097 4.7353 -1.04391 0
M  V30 8154 N 746.441 0.193421 1.56409 0
M  V30 8155 C 747.371 -0.723334 2.22014 0
M  V30 8156 C 748.352 -1.22254 1.1827 0
M  V30 8157 O 749.537 -1.27168 1.46771 0
M  V30 8158 C 746.667 -1.94366 2.87818 0
M  V30 8159 C 745.621 -1.57943 3.97791 0
M  V30 8160 C 744.947 -2.87623 4.50752 0
M  V30 8161 C 746.247 -0.790639 5.16281 0
M  V30 8162 H 747.941 -0.176426 2.9888 0
M  V30 8163 H 745.487 -0.0834166 1.43758 0
M  V30 8164 H 747.44 -2.5902 3.32396 0
M  V30 8165 H 746.164 -2.51507 2.08355 0
M  V30 8166 H 744.823 -0.956482 3.53903 0
M  V30 8167 H 744.471 -3.4285 3.68053 0
M  V30 8168 H 744.171 -2.63998 5.24956 0
M  V30 8169 H 745.695 -3.53268 4.9803 0
M  V30 8170 H 747.109 -1.34024 5.57414 0
M  V30 8171 H 745.506 -0.65258 5.96541 0
M  V30 8172 H 746.576 0.208633 4.84451 0
M  V30 8173 N 747.919 -1.57396 -0.0801906 0
M  V30 8174 C 748.866 -2.03107 -1.09618 0
M  V30 8175 C 749.836 -0.910118 -1.38946 0
M  V30 8176 O 751.021 -1.17719 -1.50156 0
M  V30 8177 C 748.161 -2.47293 -2.40708 0
M  V30 8178 C 747.274 -3.72972 -2.17982 0
M  V30 8179 C 746.409 -4.05975 -3.42576 0
M  V30 8180 C 745.448 -5.24719 -3.15177 0
M  V30 8181 N 744.585 -5.53401 -4.32078 0
M  V30 8182 H 749.425 -2.89677 -0.69939 0
M  V30 8183 H 746.962 -1.43263 -0.333785 0
M  V30 8184 H 748.92 -2.7096 -3.17232 0
M  V30 8185 H 747.55 -1.63713 -2.78205 0
M  V30 8186 H 746.602 -3.56693 -1.32189 0
M  V30 8187 H 747.914 -4.59638 -1.93738 0
M  V30 8188 H 747.068 -4.30498 -4.275 0
M  V30 8189 H 745.807 -3.17859 -3.69887 0
M  V30 8190 H 744.812 -5 -2.28648 0
M  V30 8191 H 746.037 -6.14445 -2.89197 0
M  V30 8192 H 743.983 -4.68245 -4.59437 0
M  V30 8193 H 743.9 -6.34469 -4.11078 0
M  V30 8194 H 745.168 -5.8247 -5.18024 0
M  V30 8195 N 749.397 0.351382 -1.53633 0
M  V30 8196 C 750.345 1.45142 -1.8176 0
M  V30 8197 C 751.339 1.54819 -0.687571 0
M  V30 8198 O 752.545 1.57536 -0.870772 0
M  V30 8199 H 748.92 0.483789 -0.575719 0
M  V30 8200 H 750.891 1.1863 -2.73806 0
M  V30 8201 C 749.64 2.81779 -2.03706 0
M  V30 8202 H 748.963 2.75097 -2.90107 0
M  V30 8203 H 750.403 3.5789 -2.27356 0
M  V30 8204 C 748.862 3.26762 -0.820271 0
M  V30 8205 O 749.392 4.01697 -0.0158603 0
M  V30 8206 N 747.598 2.83472 -0.639699 0
M  V30 8207 H 747.145 2.22655 -1.29547 0
M  V30 8208 H 747.103 3.13924 0.172995 0
M  V30 8209 N 750.875 1.45233 0.611969 0
M  V30 8210 C 752.103 1.52539 1.39784 0
M  V30 8211 C 752.518 0.156533 1.8815 0
M  V30 8212 O 751.875 -0.84112 1.61961 0
M  V30 8213 C 751.926 2.50614 2.60528 0
M  V30 8214 O 751.647 3.8218 2.14173 0
M  V30 8215 C 753.148 2.67574 3.53439 0
M  V30 8216 H 750.368 0.51674 0.428043 0
M  V30 8217 H 752.912 1.90379 0.746727 0
M  V30 8218 H 751.067 2.15858 3.2169 0
M  V30 8219 H 751.481 4.35305 2.92592 0
M  V30 8220 H 752.955 3.40184 4.34717 0
M  V30 8221 H 753.432 1.73458 4.03496 0
M  V30 8222 H 754.038 3.0331 2.98133 0
M  V30 8223 N 752.353 -0.854086 1.3245 0
M  V30 8224 C 753.578 -1.64597 1.26185 0
M  V30 8225 C 754.003 -1.87357 -0.167074 0
M  V30 8226 O 753.361 -1.42675 -1.11864 0
M  V30 8227 C 753.409 -2.98213 2.02734 0
M  V30 8228 O 752.513 -3.88784 1.37554 0
M  V30 8229 H 751.854 -0.50179 0.434859 0
M  V30 8230 H 754.384 -1.06372 1.74775 0
M  V30 8231 H 754.394 -3.4803 2.1293 0
M  V30 8232 H 753.069 -2.80969 3.06642 0
M  V30 8233 H 751.646 -3.4725 1.3591 0
M  V30 8234 N 753.831 -1.1567 -1.07043 0
M  V30 8235 C 755.08 -0.928039 -1.79082 0
M  V30 8236 C 755.393 0.545968 -1.87826 0
M  V30 8237 O 756.599 0.892308 -2.56418 0
M  V30 8238 C 755.055 -1.61103 -3.21829 0
M  V30 8239 C 754.663 -3.12228 -3.21275 0
M  V30 8240 C 756.407 -1.46404 -3.98455 0
M  V30 8241 C 754.314 -3.733 -4.58695 0
M  V30 8242 H 753.244 -0.34357 -0.671175 0
M  V30 8243 H 755.895 -1.38718 -1.20123 0
M  V30 8244 H 754.277 -1.07958 -3.81 0
M  V30 8245 H 755.451 -3.72155 -2.71731 0
M  V30 8246 H 753.766 -3.26725 -2.58147 0
M  V30 8247 H 756.363 -1.8942 -5.00024 0
M  V30 8248 H 756.706 -0.41195 -4.14257 0
M  V30 8249 H 757.239 -1.96663 -3.45787 0
M  V30 8250 H 753.978 -4.78423 -4.48098 0
M  V30 8251 H 753.498 -3.18157 -5.08465 0
M  V30 8252 H 755.177 -3.7441 -5.27661 0
M  V30 8253 N 755.309 1.25446 -0.953992 0
M  V30 8254 C 756.539 1.96929 -0.624688 0
M  V30 8255 C 756.947 1.71112 0.807292 0
M  V30 8256 O 756.29 0.983512 1.55154 0
M  V30 8257 C 756.352 3.50425 -0.802676 0
M  V30 8258 C 756.016 3.99916 -2.21169 0
M  V30 8259 C 757.013 4.10662 -3.18831 0
M  V30 8260 C 754.698 4.33598 -2.53571 0
M  V30 8261 C 756.692 4.54401 -4.46988 0
M  V30 8262 C 754.379 4.77024 -3.81958 0
M  V30 8263 C 755.377 4.87388 -4.78478 0
M  V30 8264 O 755.065 5.29851 -6.04577 0
M  V30 8265 H 754.797 0.634511 -0.233179 0
M  V30 8266 H 757.351 1.60591 -1.28061 0
M  V30 8267 H 755.581 3.86596 -0.0896044 0
M  V30 8268 H 757.27 4.03117 -0.47452 0
M  V30 8269 H 758.036 3.84872 -2.95124 0
M  V30 8270 H 753.915 4.24757 -1.79171 0
M  V30 8271 H 757.459 4.62406 -5.22328 0
M  V30 8272 H 753.356 5.02258 -4.05471 0
M  V30 8273 H 754.124 5.48039 -6.07944 0
M  V30 8274 N 756.787 0.722489 1.40064 0
M  V30 8275 C 757.719 0.0349057 2.29173 0
M  V30 8276 C 758.732 -0.716571 1.46182 0
M  V30 8277 O 759.921 -0.562806 1.69395 0
M  V30 8278 C 757.021 -0.974839 3.24577 0
M  V30 8279 C 756.194 -0.287471 4.36454 0
M  V30 8280 C 755.253 -1.20356 5.12251 0
M  V30 8281 O 754.279 -0.685753 5.65054 0
M  V30 8282 N 755.481 -2.53422 5.22262 0
M  V30 8283 H 758.246 0.800058 2.88824 0
M  V30 8284 H 755.807 0.57068 1.51509 0
M  V30 8285 H 757.799 -1.59002 3.72157 0
M  V30 8286 H 756.369 -1.6413 2.66046 0
M  V30 8287 H 755.589 0.508008 3.90913 0
M  V30 8288 H 756.877 0.189382 5.08447 0
M  V30 8289 H 756.275 -2.97981 4.80857 0
M  V30 8290 H 754.832 -3.10067 5.73325 0
M  V30 8291 O 758.304 -1.49494 0.611055 0
M  V30 8292 H 758.995 -1.93303 0.123934 0
M  V30 END ATOM
M  V30 BEGIN BOND
M  V30 END BOND
M  V30 END CTAB
M  END
$$$$
