drugbank_target|P20701 Integrin alpha-L (DB00095; DB00098; DB00227; DB00641; DB01098; DB02177; DB03932; DB04724; DB06972; DB07486; DB08860; DB11611)
 OpenBabel12092119333D

  0  0  0     0  0            999 V3000
M  V30 BEGIN CTAB
M  V30 COUNTS 18002 18204 0 0 0
M  V30 BEGIN ATOM
M  V30 1 H -0.908 1.98254 -0.117106 0
M  V30 2 N 0 1.576 0 0
M  V30 3 C 0.933 2.03868 1.02534 0
M  V30 4 C 1.911 0.928543 1.3348 0
M  V30 5 O 3.095 1.19667 1.45644 0
M  V30 6 C 0.222 2.43627 2.35294 0
M  V30 7 C -0.732 3.65373 2.2001 0
M  V30 8 S 0.101 5.13292 1.52614 0
M  V30 9 C 1.257 5.56322 2.86805 0
M  V30 10 H 1.49 2.90518 0.631377 0
M  V30 11 H -0.977 1.52953 0.210867 0
M  V30 12 H 0.981 2.67203 3.11629 0
M  V30 13 H -0.358 1.57376 2.7183 0
M  V30 14 H -1.165 3.90944 3.18086 0
M  V30 15 H -1.563 3.418 1.51819 0
M  V30 16 H 0.729 5.58782 3.83104 0
M  V30 17 H 1.672 6.56266 2.65933 0
M  V30 18 H 2.08 4.83886 2.90714 0
M  V30 19 N 1.4781 -0.272755 1.55222 0
M  V30 20 C 2.4251 -1.33716 1.88119 0
M  V30 21 C 3.3951 -1.49066 0.73271 0
M  V30 22 O 4.5801 -1.63469 0.984002 0
M  V30 23 C 1.7201 -2.69238 2.15882 0
M  V30 24 C 0.8331 -2.62108 3.43399 0
M  V30 25 C -0.0319 -3.89811 3.60861 0
M  V30 26 C -0.9929 -3.77193 4.8207 0
M  V30 27 N -1.8559 -4.9673 4.96189 0
M  V30 28 H 2.9841 -1.04962 2.78903 0
M  V30 29 H 0.5211 -0.507088 1.38083 0
M  V30 30 H 2.4791 -3.48089 2.29978 0
M  V30 31 H 1.1091 -2.96194 1.28331 0
M  V30 32 H 0.1611 -1.74967 3.37773 0
M  V30 33 H 1.4731 -2.48685 4.32386 0
M  V30 34 H 0.6271 -4.77103 3.74777 0
M  V30 35 H -0.6339 -4.06102 2.7006 0
M  V30 36 H -1.6289 -2.88284 4.68159 0
M  V30 37 H -0.4039 -3.62421 5.74307 0
M  V30 38 H -2.4579 -5.13431 4.08319 0
M  V30 39 H -2.5409 -4.85839 5.79221 0
M  V30 40 H -1.2729 -5.85594 5.1449 0
M  V30 41 N 2.9562 -1.48159 -0.537278 0
M  V30 42 C 4.2332 -1.46291 -1.29839 0
M  V30 43 C 4.6132 -0.170613 -2.10409 0
M  V30 44 O 3.9612 0.847746 -2.12192 0
M  V30 45 C 4.1712 -2.72055 -2.18603 0
M  V30 46 C 5.5192 -3.20087 -2.7898 0
M  V30 47 O 6.5432 -2.72921 -2.28894 0
M  V30 48 O 5.4022 -4.02138 -3.70064 0
M  V30 49 H 2.4962 -0.583906 -0.585647 0
M  V30 50 H 5.0422 -1.60384 -0.554534 0
M  V30 51 H 3.8142 -3.57628 -1.58801 0
M  V30 52 H 3.4372 -2.60646 -3.00249 0
M  V30 53 N 4.4343 0.785586 -1.36625 0
M  V30 54 C 5.6593 1.57963 -1.34397 0
M  V30 55 C 6.0843 1.87964 0.071526 0
M  V30 56 O 5.4423 1.48182 1.0446 0
M  V30 57 C 5.4903 2.87511 -2.17646 0
M  V30 58 O 4.5943 3.81281 -1.57158 0
M  V30 59 H 3.9353 0.479014 -0.459828 0
M  V30 60 H 6.4653 0.973411 -1.79961 0
M  V30 61 H 6.4753 3.36745 -2.30362 0
M  V30 62 H 5.1503 2.65002 -3.20541 0
M  V30 63 H 3.7273 3.39885 -1.53403 0
M  V30 64 N 5.9124 1.20967 1.01018 0
M  V30 65 C 7.1524 1.03511 1.76252 0
M  V30 66 C 7.5164 -0.42458 1.87247 0
M  V30 67 O 8.7174 -0.719508 2.58991 0
M  V30 68 C 6.9884 1.70726 3.13986 0
M  V30 69 S 8.5474 1.68458 4.05176 0
M  V30 70 H 5.3654 0.371037 0.606508 0
M  V30 71 H 7.9674 1.53628 1.20908 0
M  V30 72 H 6.6714 2.76128 3.03614 0
M  V30 73 H 6.2024 1.20767 3.74405 0
M  V30 74 H 8.2174 0.721987 4.90919 0
M  V30 75 N 7.3905 -1.2043 1.01659 0
M  V30 76 C 8.6395 -1.89118 0.701237 0
M  V30 77 C 8.9525 -1.79705 -0.772358 0
M  V30 78 O 10.1585 -2.43528 -1.20026 0
M  V30 79 C 8.6145 -3.39168 1.20388 0
M  V30 80 C 8.2225 -3.57166 2.70438 0
M  V30 81 C 9.9665 -4.1341 0.963953 0
M  V30 82 C 7.8735 -5.01042 3.14183 0
M  V30 83 H 6.8035 -0.708267 0.2586 0
M  V30 84 H 9.4545 -1.36239 1.22927 0
M  V30 85 H 7.8365 -3.91369 0.603824 0
M  V30 86 H 9.0105 -3.15351 3.35992 0
M  V30 87 H 7.3255 -2.96294 2.92572 0
M  V30 88 H 9.9225 -5.19491 1.26621 0
M  V30 89 H 10.2655 -4.16181 -0.099578 0
M  V30 90 H 10.7985 -3.67309 1.52738 0
M  V30 91 H 7.5375 -5.03426 4.19812 0
M  V30 92 H 7.0575 -5.43668 2.53348 0
M  V30 93 H 8.7365 -5.69623 3.0682 0
M  V30 94 N 8.8686 -0.792821 -1.36206 0
M  V30 95 C 10.0966 -0.378825 -2.03402 0
M  V30 96 C 10.5116 1.00586 -1.59774 0
M  V30 97 O 9.8686 1.64574 -0.788764 0
M  V30 98 C 9.9196 -0.43683 -3.58851 0
M  V30 99 O 9.6406 -1.76691 -4.00889 0
M  V30 100 C 11.1416 -0.0138943 -4.43298 0
M  V30 101 H 8.3616 -0.155673 -0.652692 0
M  V30 102 H 10.9056 -1.07261 -1.74113 0
M  V30 103 H 9.0606 0.208575 -3.86838 0
M  V30 104 H 9.4746 -1.72011 -4.95492 0
M  V30 105 H 10.9486 -0.105615 -5.51899 0
M  V30 106 H 11.4256 1.03915 -4.2673 0
M  V30 107 H 12.0316 -0.63192 -4.20579 0
M  V30 108 N 10.3467 1.47872 -0.545128 0
M  V30 109 C 11.5927 2.02793 -0.0166104 0
M  V30 110 C 11.9257 1.41987 1.32489 0
M  V30 111 O 11.2007 0.571045 1.85928 0
M  V30 112 C 11.4837 3.59989 0.0893294 0
M  V30 113 C 11.3367 4.3125 -1.27841 0
M  V30 114 C 12.6557 4.32606 0.808724 0
M  V30 115 H 9.7747 0.736962 -0.00751035 0
M  V30 116 H 12.4167 1.76433 -0.705085 0
M  V30 117 H 10.5667 3.82579 0.675681 0
M  V30 118 H 12.2387 4.20035 -1.90704 0
M  V30 119 H 10.4817 3.92076 -1.85632 0
M  V30 120 H 11.1527 5.39736 -1.15713 0
M  V30 121 H 13.6287 4.14936 0.310992 0
M  V30 122 H 12.5047 5.42251 0.851782 0
M  V30 123 H 12.7657 4.00963 1.86229 0
M  V30 124 N 11.8248 0.280983 1.55075 0
M  V30 125 C 12.7578 -0.645439 2.18882 0
M  V30 126 C 13.7358 -1.14786 1.15165 0
M  V30 127 O 14.9198 -1.21975 1.43716 0
M  V30 128 C 12.0468 -1.88088 2.81674 0
M  V30 129 C 11.0928 -1.51343 3.98745 0
M  V30 130 S 11.9258 -0.586548 5.32278 0
M  V30 131 C 13.0818 -1.83024 5.98543 0
M  V30 132 H 13.3148 -0.1033 2.9712 0
M  V30 133 H 10.8478 0.0652099 1.54262 0
M  V30 134 H 12.8058 -2.58997 3.18482 0
M  V30 135 H 11.4668 -2.39417 2.03318 0
M  V30 136 H 10.6598 -2.43289 4.41392 0
M  V30 137 H 10.2618 -0.884477 3.63391 0
M  V30 138 H 12.5538 -2.77342 6.18133 0
M  V30 139 H 13.4968 -1.44668 6.93164 0
M  V30 140 H 13.9048 -1.99785 5.27964 0
M  V30 141 N 13.3029 -1.57598 0.00835791 0
M  V30 142 C 14.2659 -2.07884 -0.965242 0
M  V30 143 C 15.2659 -0.989825 -1.26725 0
M  V30 144 O 16.4559 -1.25218 -1.21104 0
M  V30 145 C 13.5879 -2.52731 -2.28779 0
M  V30 146 H 14.7809 -2.95178 -0.530112 0
M  V30 147 H 12.3339 -1.54458 -0.239283 0
M  V30 148 H 13.0689 -1.68705 -2.76964 0
M  V30 149 H 12.8539 -3.32272 -2.08177 0
M  V30 150 H 14.3439 -2.91933 -2.98605 0
M  V30 151 N 14.781 0.264519 -1.55364 0
M  V30 152 C 15.714 1.35297 -1.83766 0
M  V30 153 C 16.692 1.47171 -0.691336 0
M  V30 154 O 17.876 1.63663 -0.935238 0
M  V30 155 C 15.003 2.72847 -2.00679 0
M  V30 156 C 14.049 2.78214 -3.23263 0
M  V30 157 S 14.882 2.36601 -4.80396 0
M  V30 158 C 16.038 3.7611 -5.00292 0
M  V30 159 H 16.271 1.11003 -2.758 0
M  V30 160 H 13.804 0.464596 -1.47244 0
M  V30 161 H 15.762 3.52057 -2.11108 0
M  V30 162 H 14.423 2.94388 -1.09518 0
M  V30 163 H 13.616 3.7919 -3.3201 0
M  V30 164 H 13.218 2.07034 -3.11469 0
M  V30 165 H 15.51 4.71457 -4.86554 0
M  V30 166 H 16.453 3.7231 -6.02321 0
M  V30 167 H 16.861 3.67806 -4.28228 0
M  V30 168 N 16.2591 1.48442 0.529413 0
M  V30 169 C 17.2221 1.62524 1.61612 0
M  V30 170 C 18.2221 0.498509 1.52877 0
M  V30 171 O 19.4121 0.76431 1.56537 0
M  V30 172 C 16.5441 1.59597 3.01233 0
M  V30 173 H 17.7371 2.59423 1.50465 0
M  V30 174 H 15.2901 1.37047 0.751514 0
M  V30 175 H 16.0251 0.641781 3.17886 0
M  V30 176 H 15.8101 2.41397 3.08982 0
M  V30 177 H 17.3001 1.72646 3.80241 0
M  V30 178 N 17.7372 -0.778329 1.37039 0
M  V30 179 C 18.6672 -1.90546 1.34962 0
M  V30 180 C 19.6482 -1.68681 0.219274 0
M  V30 181 O 20.8332 -1.89634 0.418624 0
M  V30 182 C 17.9632 -3.27734 1.14925 0
M  V30 183 C 16.9172 -3.64147 2.24902 0
M  V30 184 C 16.2432 -4.99806 1.89996 0
M  V30 185 C 17.5432 -3.71579 3.67051 0
M  V30 186 H 19.2372 -1.92541 2.29277 0
M  V30 187 H 16.7832 -0.924948 1.10366 0
M  V30 188 H 18.7362 -4.06215 1.12104 0
M  V30 189 H 17.4602 -3.26154 0.170631 0
M  V30 190 H 16.1192 -2.8797 2.26868 0
M  V30 191 H 15.7672 -4.94759 0.906796 0
M  V30 192 H 15.4672 -5.25139 2.63634 0
M  V30 193 H 16.9912 -5.80694 1.88749 0
M  V30 194 H 18.4052 -4.40227 3.67251 0
M  V30 195 H 16.8022 -4.08405 4.39688 0
M  V30 196 H 17.8722 -2.72404 4.01154 0
M  V30 197 N 19.2153 -1.21501 -1.00376 0
M  V30 198 C 20.1453 -0.999478 -2.11028 0
M  V30 199 C 21.1263 0.0759671 -1.6993 0
M  V30 200 O 22.3113 -0.0841106 -1.94018 0
M  V30 201 C 19.4413 -0.564709 -3.42678 0
M  V30 202 C 18.3953 -1.58486 -3.97576 0
M  V30 203 C 17.7213 -1.00628 -5.25146 0
M  V30 204 C 19.0213 -2.97204 -4.29496 0
M  V30 205 H 20.7153 -1.92495 -2.29317 0
M  V30 206 H 18.2613 -0.92693 -1.102 0
M  V30 207 H 20.2143 -0.401091 -4.19487 0
M  V30 208 H 18.9383 0.396411 -3.24185 0
M  V30 209 H 17.5973 -1.73606 -3.22888 0
M  V30 210 H 17.2453 -0.0368439 -5.02987 0
M  V30 211 H 16.9453 -1.68771 -5.62841 0
M  V30 212 H 18.4693 -0.854015 -6.04598 0
M  V30 213 H 19.8833 -2.8552 -4.97143 0
M  V30 214 H 18.2803 -3.62372 -4.78338 0
M  V30 215 H 19.3503 -3.47956 -3.3772 0
M  V30 216 N 20.6934 1.19889 -1.02296 0
M  V30 217 C 21.9184 1.9393 -0.735237 0
M  V30 218 C 22.3434 1.74639 0.698782 0
M  V30 219 O 21.7014 1.04481 1.48167 0
M  V30 220 C 21.7494 3.43916 -1.08417 0
M  V30 221 O 20.8534 4.11917 -0.199446 0
M  V30 222 H 20.1944 0.605645 -0.272196 0
M  V30 223 H 22.7244 1.52137 -1.36804 0
M  V30 224 H 22.7344 3.9456 -1.03856 0
M  V30 225 H 21.4094 3.5728 -2.12894 0
M  V30 226 H 19.9864 3.71666 -0.303136 0
M  V30 227 N 22.1715 0.800033 1.35784 0
M  V30 228 C 23.4195 0.376597 1.9856 0
M  V30 229 C 23.7405 -1.05812 1.63795 0
M  V30 230 O 23.0105 -1.73103 0.917171 0
M  V30 231 H 21.5905 0.136261 0.734467 0
M  V30 232 H 24.2525 1.02442 1.65806 0
M  V30 233 H 23.3485 0.477002 3.08433 0
M  V30 234 N 23.6496 -1.47581 0.552962 0
M  V30 235 C 24.8966 -2.02482 0.0273243 0
M  V30 236 C 25.2246 -1.42776 -1.32081 0
M  V30 237 O 24.4796 -0.571393 -1.87173 0
M  V30 238 C 24.7786 -3.57199 -0.119728 0
M  V30 239 C 24.4446 -4.35804 1.15697 0
M  V30 240 C 23.1066 -4.57 1.50681 0
M  V30 241 C 25.4586 -4.81167 2.00319 0
M  V30 242 C 22.7866 -5.20807 2.70142 0
M  V30 243 C 25.1386 -5.46293 3.18978 0
M  V30 244 C 23.8026 -5.65722 3.54281 0
M  V30 245 H 23.0726 -0.740933 0.00999866 0
M  V30 246 H 25.7196 -1.77302 0.72362 0
M  V30 247 H 24.0246 -3.81348 -0.89896 0
M  V30 248 H 25.7216 -3.97324 -0.541718 0
M  V30 249 H 22.3116 -4.19582 0.874561 0
M  V30 250 H 26.4956 -4.64574 1.74599 0
M  V30 251 H 21.7516 -5.34045 2.97668 0
M  V30 252 H 25.9256 -5.80407 3.84838 0
M  V30 253 H 23.5526 -6.14936 4.46942 0
M  V30 254 N 25.1277 -0.289203 -1.54924 0
M  V30 255 C 26.3747 0.323519 -1.99899 0
M  V30 256 C 26.7027 1.54797 -1.17762 0
M  V30 257 O 25.9577 1.94237 -0.238835 0
M  V30 258 C 26.2567 0.736119 -3.49737 0
M  V30 259 C 25.9227 -0.385276 -4.49251 0
M  V30 260 C 24.5847 -0.693156 -4.76181 0
M  V30 261 C 26.9367 -1.14021 -5.08575 0
M  V30 262 C 24.2647 -1.7593 -5.59701 0
M  V30 263 C 26.6167 -2.19619 -5.93254 0
M  V30 264 C 25.2807 -2.51026 -6.185 0
M  V30 265 H 24.5507 0.118384 -0.731482 0
M  V30 266 H 27.1977 -0.405847 -1.8715 0
M  V30 267 H 25.5027 1.54539 -3.60035 0
M  V30 268 H 27.1997 1.22118 -3.81953 0
M  V30 269 H 23.7897 -0.135202 -4.28387 0
M  V30 270 H 27.9737 -0.915611 -4.87781 0
M  V30 271 H 23.2297 -2.0075 -5.77503 0
M  V30 272 H 27.4037 -2.78581 -6.38252 0
M  V30 273 H 25.0307 -3.33772 -6.83008 0
M  V30 274 N 26.6058 1.57591 -0.0167156 0
M  V30 275 C 27.8528 1.91283 0.664597 0
M  V30 276 C 28.1808 0.891949 1.72842 0
M  V30 277 O 27.4358 -0.100931 1.9544 0
M  V30 278 C 27.7348 3.3172 1.33029 0
M  V30 279 C 27.4008 4.4914 0.398047 0
M  V30 280 C 26.0628 4.80992 0.141421 0
M  V30 281 C 28.4148 5.20634 -0.242825 0
M  V30 282 C 25.7428 5.81703 -0.764092 0
M  V30 283 C 28.0948 6.22311 -1.13632 0
M  V30 284 C 26.7588 6.52611 -1.40196 0
M  V30 285 H 26.0288 0.699956 0.243193 0
M  V30 286 H 28.6758 1.9135 -0.0758267 0
M  V30 287 H 26.9808 3.27856 2.14517 0
M  V30 288 H 28.6778 3.55055 1.86379 0
M  V30 289 H 25.2678 4.24262 0.608238 0
M  V30 290 H 29.4518 4.96267 -0.0576019 0
M  V30 291 H 24.7078 6.03532 -0.977732 0
M  V30 292 H 28.8818 6.76834 -1.63917 0
M  V30 293 H 26.5088 7.30467 -2.10529 0
M  V30 294 N 28.0839 -0.256276 1.55502 0
M  V30 295 C 29.3309 -0.985619 1.76895 0
M  V30 296 C 29.6589 -1.85671 0.579355 0
M  V30 297 O 28.9139 -1.90744 -0.437651 0
M  V30 298 C 29.2129 -1.88432 3.03691 0
M  V30 299 C 28.8789 -1.16936 4.35473 0
M  V30 300 C 27.5409 -0.97173 4.71286 0
M  V30 301 C 29.8929 -0.661889 5.1698 0
M  V30 302 C 27.2209 -0.254179 5.86149 0
M  V30 303 C 29.5729 0.042149 6.32586 0
M  V30 304 C 28.2369 0.25134 6.67027 0
M  V30 305 H 27.5069 -0.360663 0.647304 0
M  V30 306 H 30.1539 -0.256483 1.89775 0
M  V30 307 H 28.4589 -2.68021 2.85783 0
M  V30 308 H 30.1559 -2.45015 3.1744 0
M  V30 309 H 26.7459 -1.33332 4.07333 0
M  V30 310 H 30.9299 -0.802145 4.89775 0
M  V30 311 H 26.1859 -0.0815408 6.11346 0
M  V30 312 H 30.3599 0.443049 6.94989 0
M  V30 313 H 27.9869 0.809314 7.5588 0
M  V30 314 N 29.562 -1.4872 -0.521534 0
M  V30 315 C 30.525 -1.63379 -1.60748 0
M  V30 316 C 31.525 -0.50661 -1.52611 0
M  V30 317 O 32.715 -0.772601 -1.5613 0
M  V30 318 C 29.847 -1.61192 -3.00383 0
M  V30 319 H 31.04 -2.60217 -1.49087 0
M  V30 320 H 28.593 -1.37444 -0.744235 0
M  V30 321 H 29.328 -0.65863 -3.17541 0
M  V30 322 H 29.113 -2.43032 -3.07698 0
M  V30 323 H 30.603 -1.7466 -3.7932 0
M  V30 324 N 31.0401 0.771051 -1.3745 0
M  V30 325 C 32.4511 1.34737 -1.29239 0
M  V30 326 C 32.8021 1.96109 0.0596908 0
M  V30 327 O 31.9271 1.93865 0.961534 0
M  V30 328 C 32.5221 2.44973 -2.34037 0
M  V30 329 C 31.0811 2.98372 -2.29458 0
M  V30 330 C 30.2281 1.71595 -2.17831 0
M  V30 331 H 33.1791 0.571256 -1.48062 0
M  V30 332 H 33.2001 3.24471 -1.98744 0
M  V30 333 H 32.7121 2.00276 -3.32432 0
M  V30 334 H 30.8131 3.47443 -1.34589 0
M  V30 335 H 30.9261 3.53939 -3.229 0
M  V30 336 H 29.2901 1.94547 -1.64388 0
M  V30 337 H 30.0731 1.29001 -3.18141 0
M  V30 338 N 32.5182 1.22032 0.997298 0
M  V30 339 C 33.4812 0.987909 2.06816 0
M  V30 340 C 34.4812 -0.0440084 1.6074 0
M  V30 341 O 35.6712 0.194053 1.73116 0
M  V30 342 C 32.8032 0.49132 3.37341 0
M  V30 343 H 33.9962 1.93803 2.28868 0
M  V30 344 H 31.5492 1.03838 1.16822 0
M  V30 345 H 32.2842 -0.463364 3.20973 0
M  V30 346 H 32.0692 1.23575 3.72118 0
M  V30 347 H 33.5592 0.348824 4.16141 0
M  V30 348 N 33.9963 -1.19345 1.0293 0
M  V30 349 C 35.2213 -1.93538 0.745511 0
M  V30 350 C 35.6463 -1.75007 -0.689511 0
M  V30 351 O 35.0043 -1.05265 -1.47611 0
M  V30 352 C 35.0523 -3.43336 1.10239 0
M  V30 353 O 34.1563 -4.11806 0.221289 0
M  V30 354 H 33.4973 -0.604193 0.275404 0
M  V30 355 H 36.0273 -1.5141 1.37609 0
M  V30 356 H 36.0373 -3.94004 1.05947 0
M  V30 357 H 34.7123 -3.56146 2.14786 0
M  V30 358 H 33.2893 -3.715 0.322842 0
M  V30 359 N 35.4744 -0.807222 -1.35358 0
M  V30 360 C 36.6994 -0.399309 -2.0352 0
M  V30 361 C 37.1244 0.981986 -1.60433 0
M  V30 362 O 36.4824 1.63601 -0.781299 0
M  V30 363 C 36.5304 -0.491552 -3.57234 0
M  V30 364 O 35.6344 0.494754 -4.09421 0
M  V30 365 H 34.9754 -0.166682 -0.642739 0
M  V30 366 H 37.5054 -1.09328 -1.72941 0
M  V30 367 H 37.5154 -0.361588 -4.06395 0
M  V30 368 H 36.1904 -1.49907 -3.87944 0
M  V30 369 H 34.7674 0.324977 -3.71481 0
M  V30 370 N 36.9525 1.47285 -0.560781 0
M  V30 371 C 38.1825 2.06555 -0.0429638 0
M  V30 372 C 38.5905 1.41339 1.25777 0
M  V30 373 O 37.9335 0.505182 1.76617 0
M  V30 374 C 37.9955 3.58827 0.219887 0
M  V30 375 C 37.6595 4.46105 -0.991944 0
M  V30 376 C 38.6565 4.84 -1.89843 0
M  V30 377 C 36.3415 4.87567 -1.20762 0
M  V30 378 C 38.3355 5.6216 -3.00425 0
M  V30 379 C 36.0225 5.65491 -2.31653 0
M  V30 380 C 37.0205 6.02699 -3.21315 0
M  V30 381 O 36.7085 6.79052 -4.30283 0
M  V30 382 H 36.4405 0.674537 -0.0444468 0
M  V30 383 H 38.9945 1.90225 -0.774818 0
M  V30 384 H 37.2245 3.73383 1.00609 0
M  V30 385 H 38.9135 4.00103 0.683522 0
M  V30 386 H 39.6795 4.52564 -1.74387 0
M  V30 387 H 35.5585 4.5807 -0.518893 0
M  V30 388 H 39.1025 5.9112 -3.70436 0
M  V30 389 H 34.9995 5.9634 -2.47081 0
M  V30 390 H 35.7675 6.9745 -4.28376 0
M  V30 391 N 38.4306 0.297415 1.54768 0
M  V30 392 C 39.3786 -0.596051 2.24833 0
M  V30 393 C 40.3726 -1.13992 1.25308 0
M  V30 394 O 41.5786 -1.09098 1.4317 0
M  V30 395 H 37.9536 -0.210814 0.721846 0
M  V30 396 H 39.9246 0.0174667 2.98395 0
M  V30 397 C 38.6736 -1.75818 2.99972 0
M  V30 398 H 37.9966 -1.3489 3.76357 0
M  V30 399 H 39.4366 -2.35949 3.52284 0
M  V30 400 C 37.8956 -2.66014 2.06732 0
M  V30 401 O 38.4256 -3.67009 1.63302 0
M  V30 402 N 36.6316 -2.33669 1.72763 0
M  V30 403 H 36.1786 -1.51586 2.08277 0
M  V30 404 H 36.1366 -2.94285 1.10652 0
M  V30 405 N 39.9087 -1.5758 0.0250728 0
M  V30 406 C 40.8387 -2.13007 -0.956575 0
M  V30 407 C 41.8197 -1.0452 -1.342 0
M  V30 408 O 43.0047 -1.32332 -1.42133 0
M  V30 409 C 40.1347 -2.65386 -2.24026 0
M  V30 410 C 39.0887 -3.78623 -1.99571 0
M  V30 411 C 38.4147 -4.17414 -3.3417 0
M  V30 412 C 39.7147 -5.04867 -1.33814 0
M  V30 413 H 41.4087 -2.9528 -0.494991 0
M  V30 414 H 38.9547 -1.42042 -0.236651 0
M  V30 415 H 40.9077 -3.02794 -2.93076 0
M  V30 416 H 39.6317 -1.80268 -2.72343 0
M  V30 417 H 38.2907 -3.41646 -1.32941 0
M  V30 418 H 37.9387 -3.29284 -3.80238 0
M  V30 419 H 37.6387 -4.93719 -3.18615 0
M  V30 420 H 39.1627 -4.57402 -4.04495 0
M  V30 421 H 40.5767 -5.39888 -1.92857 0
M  V30 422 H 38.9737 -5.86144 -1.28669 0
M  V30 423 H 40.0437 -4.83904 -0.310561 0
M  V30 424 N 41.3868 0.248026 -1.55636 0
M  V30 425 C 42.6638 0.998988 -1.68165 0
M  V30 426 C 43.0438 2.03409 -0.564621 0
M  V30 427 O 42.3918 2.24378 0.432076 0
M  V30 428 C 42.6018 1.63334 -3.0842 0
M  V30 429 C 43.9498 2.13562 -3.66983 0
M  V30 430 O 44.9738 1.73277 -3.11213 0
M  V30 431 O 43.8328 2.87526 -4.64749 0
M  V30 432 H 40.9268 0.464933 -0.683935 0
M  V30 433 H 43.4728 0.241902 -1.67967 0
M  V30 434 H 42.2448 0.884583 -3.8117 0
M  V30 435 H 41.8678 2.45666 -3.12624 0
M  V30 436 N 42.8649 1.48995 0.513639 0
M  V30 437 C 44.1109 1.58076 1.27042 0
M  V30 438 C 44.4439 0.261026 1.92438 0
M  V30 439 O 43.7189 -0.734393 1.80103 0
M  V30 440 C 44.0019 2.73091 2.34719 0
M  V30 441 C 43.8549 4.14821 1.73907 0
M  V30 442 C 45.1739 2.83796 3.36375 0
M  V30 443 H 42.2929 0.575391 0.460536 0
M  V30 444 H 44.9349 1.81232 0.570516 0
M  V30 445 H 43.0849 2.53479 2.94416 0
M  V30 446 H 44.7569 4.45917 1.18135 0
M  V30 447 H 42.9999 4.21058 1.0437 0
M  V30 448 H 43.6709 4.91147 2.51949 0
M  V30 449 H 46.1469 3.01611 2.86653 0
M  V30 450 H 45.0229 3.65971 4.09093 0
M  V30 451 H 45.2839 1.92624 3.9793 0
M  V30 452 N 44.343 -0.763751 1.37857 0
M  V30 453 C 45.759 -1.06542 1.18832 0
M  V30 454 C 45.959 -2.01478 0.0299722 0
M  V30 455 O 45.015 -2.4458 -0.627447 0
M  V30 456 C 46.328 -1.65525 2.51042 0
M  V30 457 C 47.876 -1.77745 2.57635 0
M  V30 458 C 48.351 -2.4014 3.89996 0
M  V30 459 N 49.842 -2.47582 3.91481 0
M  V30 460 C 50.577 -2.96732 4.9065 0
M  V30 461 N 50.073 -3.45993 6.00217 0
M  V30 462 N 51.866 -2.95679 4.78048 0
M  V30 463 H 44.017 -0.133556 2.1198 0
M  V30 464 H 46.28 -0.121879 0.940133 0
M  V30 465 H 45.986 -1.03236 3.36207 0
M  V30 466 H 45.86 -2.64719 2.68707 0
M  V30 467 H 48.247 -2.39164 1.72872 0
M  V30 468 H 48.328 -0.772836 2.43846 0
M  V30 469 H 47.972 -1.79358 4.75177 0
M  V30 470 H 47.902 -3.41223 4.01092 0
M  V30 471 H 50.393 -2.1273 3.12337 0
M  V30 472 H 50.706 -3.81922 6.7183 0
M  V30 473 H 49.051 -3.44077 6.03851 0
M  V30 474 H 52.242 -2.56499 3.91568 0
M  V30 475 H 52.415 -3.33672 5.55488 0
M  V30 476 N 45.8211 -1.22559 -0.990812 0
M  V30 477 C 47.0691 -1.04933 -1.72724 0
M  V30 478 C 47.3901 0.416158 -1.90508 0
M  V30 479 O 46.6601 1.29918 -1.46622 0
M  V30 480 H 45.2401 -0.385296 -0.639965 0
M  V30 481 H 47.9021 -1.54105 -1.19322 0
M  V30 482 H 46.9981 -1.52886 -2.72089 0
M  V30 483 N 47.2992 1.18797 -1.03562 0
M  V30 484 C 48.2622 2.20464 -0.626769 0
M  V30 485 C 49.2622 1.57721 0.313173 0
M  V30 486 O 50.4522 1.73917 0.0992615 0
M  V30 487 C 47.5842 3.40802 0.0818498 0
M  V30 488 H 48.7772 2.58149 -1.5264 0
M  V30 489 H 46.3302 1.32593 -0.827578 0
M  V30 490 H 47.0652 3.08642 0.995518 0
M  V30 491 H 46.8502 3.8758 -0.593652 0
M  V30 492 H 48.3402 4.16092 0.354584 0
M  V30 493 N 48.7773 0.814389 1.34928 0
M  V30 494 C 50.1933 0.499084 1.51596 0
M  V30 495 C 50.3933 -0.978319 1.76157 0
M  V30 496 O 49.4493 -1.76309 1.80752 0
M  V30 497 C 50.7623 1.35121 2.68631 0
M  V30 498 C 52.3103 1.34746 2.82511 0
M  V30 499 C 52.7853 2.18388 4.0258 0
M  V30 500 N 54.2763 2.15966 4.09772 0
M  V30 501 C 55.0113 2.77437 5.01813 0
M  V30 502 N 54.5073 3.47866 5.99134 0
M  V30 503 N 56.3003 2.67037 4.94619 0
M  V30 504 H 48.4513 1.7711 1.17243 0
M  V30 505 H 50.7143 0.754256 0.574284 0
M  V30 506 H 50.4203 2.40001 2.57085 0
M  V30 507 H 50.2943 1.00991 3.63429 0
M  V30 508 H 52.6813 0.30648 2.93504 0
M  V30 509 H 52.7623 1.72869 1.88547 0
M  V30 510 H 52.4063 3.2253 3.92347 0
M  V30 511 H 52.3363 1.77621 4.9574 0
M  V30 512 H 54.8273 1.64729 3.40107 0
M  V30 513 H 55.1403 3.92038 6.65977 0
M  V30 514 H 53.4853 3.51972 5.99284 0
M  V30 515 H 56.6763 2.11597 4.17546 0
M  V30 516 H 56.8493 3.15232 5.66156 0
M  V30 517 N 50.2554 -1.46986 0.568584 0
M  V30 518 C 51.4804 -2.07335 0.0520528 0
M  V30 519 C 51.9054 -1.41675 -1.23733 0
M  V30 520 O 51.2634 -0.495623 -1.74394 0
M  V30 521 C 51.3114 -3.60417 -0.11501 0
M  V30 522 O 50.4154 -3.95309 -1.17492 0
M  V30 523 H 49.7564 -0.661597 0.0564385 0
M  V30 524 H 52.2864 -1.88837 0.787507 0
M  V30 525 H 52.2964 -4.06698 -0.325644 0
M  V30 526 H 50.9714 -4.07601 0.826675 0
M  V30 527 H 49.5484 -3.60757 -0.943869 0
M  V30 528 N 51.7335 -0.305618 -1.54608 0
M  V30 529 C 52.9805 0.302298 -2.00231 0
M  V30 530 C 53.3085 1.5354 -1.19398 0
M  V30 531 O 52.5635 1.93973 -0.259423 0
M  V30 532 C 52.8625 0.698983 -3.50498 0
M  V30 533 C 52.5285 -0.432903 -4.48817 0
M  V30 534 C 51.1905 -0.743622 -4.75419 0
M  V30 535 C 53.5425 -1.19409 -5.07337 0
M  V30 536 C 50.8705 -1.81857 -5.57804 0
M  V30 537 C 53.2225 -2.25899 -5.90891 0
M  V30 538 C 51.8865 -2.57572 -6.15803 0
M  V30 539 H 51.1565 0.110619 -0.732697 0
M  V30 540 H 53.8035 -0.425674 -1.86709 0
M  V30 541 H 52.1085 1.50711 -3.61654 0
M  V30 542 H 53.8055 1.1806 -3.83227 0
M  V30 543 H 50.3955 -0.18063 -4.28219 0
M  V30 544 H 54.5795 -0.967295 -4.86782 0
M  V30 545 H 49.8355 -2.06864 -5.75341 0
M  V30 546 H 54.0095 -2.85335 -6.35261 0
M  V30 547 H 51.6365 -3.40998 -6.7943 0
M  V30 548 N 53.2116 1.57565 -0.0334293 0
M  V30 549 C 54.4366 1.96689 0.657895 0
M  V30 550 C 54.8616 0.910057 1.64619 0
M  V30 551 O 54.2196 -0.128598 1.80843 0
M  V30 552 C 54.2676 3.34905 1.33683 0
M  V30 553 O 53.3716 3.31574 2.45219 0
M  V30 554 H 52.7126 0.641205 0.172489 0
M  V30 555 H 55.2426 2.04372 -0.0965621 0
M  V30 556 H 55.2526 3.71234 1.69262 0
M  V30 557 H 53.9276 4.11366 0.612411 0
M  V30 558 H 52.5046 3.06968 2.11719 0
M  V30 559 N 54.6897 -0.239769 1.55765 0
M  V30 560 C 56.1007 -0.808263 1.68297 0
M  V30 561 C 56.4517 -1.85736 0.632181 0
M  V30 562 O 55.5767 -2.15277 -0.220204 0
M  V30 563 C 56.1717 -1.47284 3.05111 0
M  V30 564 C 54.7307 -1.98895 3.19559 0
M  V30 565 C 53.8777 -0.842575 2.64189 0
M  V30 566 H 56.8287 -0.0154422 1.58692 0
M  V30 567 H 56.8497 -2.34111 2.99954 0
M  V30 568 H 56.3617 -0.709053 3.81568 0
M  V30 569 H 54.4627 -2.78132 2.47938 0
M  V30 570 H 54.5757 -2.18143 4.26556 0
M  V30 571 H 52.9397 -1.24501 2.22197 0
M  V30 572 H 53.7227 -0.0917552 3.43177 0
M  V30 573 N 56.1678 -1.49265 -0.50573 0
M  V30 574 C 57.5788 -1.51769 -1.08734 0
M  V30 575 C 57.9298 -0.301192 -1.93874 0
M  V30 576 O 57.0548 0.589456 -2.08217 0
M  V30 577 C 57.6498 -2.75017 -1.97867 0
M  V30 578 C 56.2088 -2.80314 -2.51199 0
M  V30 579 C 55.3558 -2.4562 -1.28709 0
M  V30 580 H 58.3068 -1.56031 -0.289855 0
M  V30 581 H 58.3278 -2.5491 -2.82491 0
M  V30 582 H 57.8398 -3.63539 -1.35873 0
M  V30 583 H 55.9408 -1.96061 -3.16845 0
M  V30 584 H 56.0538 -3.82366 -2.88675 0
M  V30 585 H 54.4178 -1.97297 -1.61078 0
M  V30 586 H 55.2008 -3.36411 -0.6843 0
M  V30 587 N 57.6459 0.756429 -1.3826 0
M  V30 588 C 59.0619 1.0591 -1.19395 0
M  V30 589 C 59.2619 2.01459 -0.0406567 0
M  V30 590 O 58.3179 2.44909 0.614467 0
M  V30 591 C 59.6309 1.64191 -2.51916 0
M  V30 592 C 61.1789 1.76376 -2.58574 0
M  V30 593 C 61.6539 2.38069 -3.91264 0
M  V30 594 N 63.1449 2.45503 -3.92788 0
M  V30 595 C 63.8799 2.94126 -4.92217 0
M  V30 596 N 63.3759 3.42805 -6.02043 0
M  V30 597 N 65.1689 2.9314 -4.7961 0
M  V30 598 H 57.3199 0.122313 -2.12048 0
M  V30 599 H 59.5829 0.116892 -0.940766 0
M  V30 600 H 59.2889 1.01451 -3.3675 0
M  V30 601 H 59.1629 2.6329 -2.70108 0
M  V30 602 H 61.5499 2.38244 -1.74137 0
M  V30 603 H 61.6309 0.759894 -2.44252 0
M  V30 604 H 61.2749 1.76835 -4.76121 0
M  V30 605 H 61.2049 3.39091 -4.02895 0
M  V30 606 H 63.6959 2.1107 -3.13461 0
M  V30 607 H 64.0089 3.78354 -6.73846 0
M  V30 608 H 62.3539 3.4087 -6.05667 0
M  V30 609 H 65.5449 2.54419 -3.92923 0
M  V30 610 H 65.7179 3.30721 -5.5725 0
M  V30 611 N 59.124 1.23083 0.984299 0
M  V30 612 C 60.087 1.00979 2.05757 0
M  V30 613 C 61.087 -0.0269573 1.60777 0
M  V30 614 O 62.277 0.212403 1.729 0
M  V30 615 C 59.409 0.527072 3.36801 0
M  V30 616 H 60.602 1.9622 2.26799 0
M  V30 617 H 58.155 1.05072 1.15714 0
M  V30 618 H 58.89 -0.429294 3.21446 0
M  V30 619 H 58.675 1.27515 3.70786 0
M  V30 620 H 60.165 0.392942 4.15747 0
M  V30 621 N 60.6021 -1.18246 1.0419 0
M  V30 622 C 61.8501 -1.87886 0.744543 0
M  V30 623 C 62.1711 -1.8082 -0.730006 0
M  V30 624 O 61.4411 -1.22736 -1.52685 0
M  V30 625 H 60.0211 -0.695556 0.272417 0
M  V30 626 H 62.6831 -1.43494 1.31892 0
M  V30 627 H 61.7791 -2.9389 1.05049 0
M  V30 628 N 62.0802 -0.821533 -1.34494 0
M  V30 629 C 63.4962 -0.507117 -1.51329 0
M  V30 630 C 63.6962 0.968964 -1.76673 0
M  V30 631 O 62.7522 1.75348 -1.81685 0
M  V30 632 C 64.0652 -1.36544 -2.67911 0
M  V30 633 C 65.6132 -1.36242 -2.81793 0
M  V30 634 C 66.0882 -2.2052 -4.01416 0
M  V30 635 N 67.5792 -2.18136 -4.08621 0
M  V30 636 C 68.3142 -2.80095 -5.00334 0
M  V30 637 N 67.8102 -3.51039 -5.9728 0
M  V30 638 N 69.6032 -2.69656 -4.93196 0
M  V30 639 H 61.7542 -1.77729 -1.16302 0
M  V30 640 H 64.0172 -0.757291 -0.570276 0
M  V30 641 H 63.7232 -2.41361 -2.55808 0
M  V30 642 H 63.5972 -1.02917 -3.62888 0
M  V30 643 H 65.9842 -0.322041 -2.93338 0
M  V30 644 H 66.0652 -1.73866 -1.87628 0
M  V30 645 H 65.7092 -3.24607 -3.90631 0
M  V30 646 H 65.6392 -1.80247 -4.94791 0
M  V30 647 H 68.1302 -1.6653 -3.39229 0
M  V30 648 H 68.4432 -3.95565 -6.63889 0
M  V30 649 H 66.7882 -3.55145 -5.97409 0
M  V30 650 H 69.9792 -2.13808 -4.16418 0
M  V30 651 H 70.1522 -3.1823 -5.64476 0
M  V30 652 N 63.5583 1.46682 -0.576371 0
M  V30 653 C 64.5083 2.27278 0.181288 0
M  V30 654 C 65.4923 1.35497 0.867721 0
M  V30 655 O 66.6843 1.59717 0.762863 0
M  V30 656 C 63.8133 3.21703 1.19841 0
M  V30 657 C 62.8993 4.20969 0.51442 0
M  V30 658 N 63.2903 5.03999 -0.426407 0
M  V30 659 C 61.5883 4.39373 0.765963 0
M  V30 660 C 62.2893 5.75812 -0.825565 0
M  V30 661 N 61.2653 5.43315 -0.176116 0
M  V30 662 H 65.0673 2.88863 -0.541785 0
M  V30 663 H 62.5813 1.57455 -0.397697 0
M  V30 664 H 64.5783 3.78145 1.75533 0
M  V30 665 H 63.2383 2.61677 1.92238 0
M  V30 666 H 64.2493 5.11659 -0.8016 0
M  V30 667 H 60.9263 3.90502 1.47698 0
M  V30 668 H 62.3163 6.52577 -1.59976 0
M  V30 669 N 65.0364 0.313813 1.54444 0
M  V30 670 C 66.2834 -0.291675 2.00388 0
M  V30 671 C 66.6114 -1.52904 1.2021 0
M  V30 672 O 65.8664 -1.93833 0.269707 0
M  V30 673 C 66.1654 -0.680386 3.50864 0
M  V30 674 C 65.8314 0.456699 4.48581 0
M  V30 675 C 64.4934 0.768824 4.75018 0
M  V30 676 C 66.8454 1.22098 5.06697 0
M  V30 677 C 64.1734 1.84812 5.56831 0
M  V30 678 C 66.5254 2.29029 5.89685 0
M  V30 679 C 65.1894 2.60834 6.14428 0
M  V30 680 H 64.4594 -0.106732 0.733273 0
M  V30 681 H 67.1064 0.43557 1.86481 0
M  V30 682 H 65.4114 -1.48791 3.62448 0
M  V30 683 H 67.1084 -1.16026 3.83847 0
M  V30 684 H 63.6984 0.203337 4.28117 0
M  V30 685 H 67.8824 0.993096 4.86263 0
M  V30 686 H 63.1384 2.09912 5.74236 0
M  V30 687 H 67.3124 2.887 6.33739 0
M  V30 688 H 64.9394 3.44596 6.77612 0
M  V30 689 N 66.5145 -1.57545 0.0417849 0
M  V30 690 C 67.7625 -1.91937 -0.632829 0
M  V30 691 C 68.0835 -0.919978 -1.71934 0
M  V30 692 O 67.3535 0.0366064 -1.95866 0
M  V30 693 H 65.9335 -0.708493 -0.236742 0
M  V30 694 H 68.5955 -1.9468 0.0925745 0
M  V30 695 H 67.6915 -2.92912 -1.07746 0
M  V30 696 N 67.9926 0.231505 -1.5589 0
M  V30 697 C 69.2226 0.973092 -1.82248 0
M  V30 698 C 69.6306 1.78845 -0.617328 0
M  V30 699 O 68.9736 1.78752 0.423499 0
M  V30 700 C 69.0356 1.94732 -3.02192 0
M  V30 701 C 68.6996 1.31743 -4.37599 0
M  V30 702 C 69.6966 0.712238 -5.14998 0
M  V30 703 C 67.3816 1.33218 -4.84312 0
M  V30 704 C 69.3756 0.130195 -6.37267 0
M  V30 705 C 67.0626 0.746286 -6.06526 0
M  V30 706 C 68.0606 0.146337 -6.82843 0
M  V30 707 O 67.7486 -0.430465 -8.02747 0
M  V30 708 H 67.4806 0.29125 -0.61004 0
M  V30 709 H 70.0346 0.254915 -2.03812 0
M  V30 710 H 68.2646 2.70422 -2.76422 0
M  V30 711 H 69.9536 2.55362 -3.15508 0
M  V30 712 H 70.7196 0.69324 -4.8002 0
M  V30 713 H 66.5986 1.78854 -4.24891 0
M  V30 714 H 70.1426 -0.33871 -6.96777 0
M  V30 715 H 66.0396 0.762663 -6.40979 0
M  V30 716 H 66.8076 -0.323818 -8.17859 0
M  V30 717 N 69.4707 1.49531 0.497807 0
M  V30 718 C 70.8867 1.36365 0.829266 0
M  V30 719 C 71.0867 0.399184 1.97506 0
M  V30 720 O 70.1427 -0.167977 2.51941 0
M  V30 721 C 71.4557 2.77153 1.16647 0
M  V30 722 C 73.0037 2.85877 1.27449 0
M  V30 723 C 73.4787 4.2744 1.64497 0
M  V30 724 N 74.9697 4.30265 1.7154 0
M  V30 725 C 75.7047 5.3677 2.01656 0
M  V30 726 N 75.2007 6.53516 2.29976 0
M  V30 727 N 76.9937 5.24189 2.02934 0
M  V30 728 H 69.1447 2.10831 -0.257703 0
M  V30 729 H 71.4077 0.946534 -0.0527091 0
M  V30 730 H 71.1137 3.49442 0.397872 0
M  V30 731 H 70.9877 3.12722 2.10915 0
M  V30 732 H 73.3747 2.13824 2.0338 0
M  V30 733 H 73.4557 2.53887 0.312244 0
M  V30 734 H 73.0997 5.00021 0.891151 0
M  V30 735 H 73.0297 4.56896 2.61827 0
M  V30 736 H 75.5207 3.4607 1.51802 0
M  V30 737 H 75.8337 7.30506 2.52153 0
M  V30 738 H 74.1787 6.56737 2.27425 0
M  V30 739 H 77.3697 4.31988 1.80289 0
M  V30 740 H 77.5427 6.07286 2.26071 0
M  V30 741 N 70.9488 -0.749086 1.3866 0
M  V30 742 C 72.1948 -1.51056 1.35314 0
M  V30 743 C 72.5278 -1.94121 -0.0553751 0
M  V30 744 O 71.8028 -1.65763 -1.01749 0
M  V30 745 C 72.0858 -2.76003 2.31288 0
M  V30 746 C 71.9388 -2.39047 3.8102 0
M  V30 747 C 73.2578 -3.78046 2.2532 0
M  V30 748 H 70.3768 -0.547972 0.492844 0
M  V30 749 H 73.0188 -0.857628 1.69543 0
M  V30 750 H 71.1688 -3.31716 2.02229 0
M  V30 751 H 72.8408 -1.89074 4.20771 0
M  V30 752 H 71.0838 -1.71449 3.98482 0
M  V30 753 H 71.7548 -3.28462 4.4364 0
M  V30 754 H 74.2308 -3.31884 2.50983 0
M  V30 755 H 73.1068 -4.63159 2.94576 0
M  V30 756 H 73.3678 -4.23957 1.25352 0
M  V30 757 N 72.4269 -1.23603 -0.977757 0
M  V30 758 C 73.3569 -1.04401 -2.0886 0
M  V30 759 C 74.3379 0.0399052 -1.70053 0
M  V30 760 O 75.5229 -0.125246 -1.93796 0
M  V30 761 C 72.6529 -0.637269 -3.41403 0
M  V30 762 C 71.6069 -1.66883 -3.94124 0
M  V30 763 C 70.9329 -1.11745 -5.22893 0
M  V30 764 C 72.2329 -3.06247 -4.23096 0
M  V30 765 H 73.9269 -1.97316 -2.25182 0
M  V30 766 H 71.4729 -0.950096 -1.08209 0
M  V30 767 H 73.4259 -0.48998 -4.18542 0
M  V30 768 H 72.1499 0.327557 -3.24953 0
M  V30 769 H 70.8089 -1.80416 -3.19133 0
M  V30 770 H 70.4569 -0.143527 -5.02795 0
M  V30 771 H 70.1569 -1.80672 -5.59134 0
M  V30 772 H 71.6809 -0.982067 -6.02651 0
M  V30 773 H 73.0949 -2.96001 -4.90975 0
M  V30 774 H 71.4919 -3.72436 -4.70544 0
M  V30 775 H 72.5619 -3.55041 -3.30263 0
M  V30 776 N 73.905 1.17692 -1.04816 0
M  V30 777 C 74.837 2.21103 -0.603822 0
M  V30 778 C 75.85 1.59411 0.33046 0
M  V30 779 O 77.039 1.7807 0.12379 0
M  V30 780 C 74.139 3.38623 0.136898 0
M  V30 781 C 73.312 4.29888 -0.807137 0
M  V30 782 C 72.371 5.26088 -0.10836 0
M  V30 783 O 71.397 5.64353 -0.741232 0
M  V30 784 N 72.599 5.68882 1.15558 0
M  V30 785 H 75.364 2.59848 -1.49329 0
M  V30 786 H 72.925 1.32553 -0.929587 0
M  V30 787 H 74.917 4.00009 0.614401 0
M  V30 788 H 73.487 2.98508 0.927993 0
M  V30 789 H 72.707 3.65993 -1.46434 0
M  V30 790 H 73.995 4.87759 -1.44807 0
M  V30 791 H 73.393 5.39861 1.69015 0
M  V30 792 H 71.95 6.32429 1.57722 0
M  V30 793 N 75.3831 0.828654 1.34056 0
M  V30 794 C 76.6291 0.42008 1.98402 0
M  V30 795 C 76.9621 -1.01564 1.65525 0
M  V30 796 O 76.2371 -1.70834 0.929831 0
M  V30 797 C 76.5201 0.62927 3.54559 0
M  V30 798 C 76.3731 2.11152 3.97159 0
M  V30 799 C 77.6921 0.0688756 4.40046 0
M  V30 800 H 74.8111 0.154104 0.720709 0
M  V30 801 H 77.4531 1.04228 1.5886 0
M  V30 802 H 75.6031 0.0996418 3.88372 0
M  V30 803 H 77.2751 2.70522 3.73651 0
M  V30 804 H 75.5181 2.59985 3.47261 0
M  V30 805 H 76.1891 2.20868 5.05887 0
M  V30 806 H 78.6651 0.521458 4.1282 0
M  V30 807 H 77.5411 0.245006 5.48353 0
M  V30 808 H 77.8021 -1.0266 4.30015 0
M  V30 809 N 76.8612 -1.46375 0.584142 0
M  V30 810 C 78.1092 -2.01978 0.0701287 0
M  V30 811 C 78.4302 -1.4579 -1.295 0
M  V30 812 O 77.7002 -0.64314 -1.85042 0
M  V30 813 H 76.2802 -0.746648 0.0229345 0
M  V30 814 H 78.9422 -1.79461 0.760245 0
M  V30 815 H 78.0382 -3.121 0.0022064 0
M  V30 816 N 78.3393 -0.321999 -1.54275 0
M  V30 817 C 79.2873 0.560206 -2.25753 0
M  V30 818 C 80.2813 1.11984 -1.27106 0
M  V30 819 O 81.4873 1.06806 -1.44888 0
M  V30 820 H 77.8623 0.199304 -0.725108 0
M  V30 821 H 79.8333 -0.0649365 -2.98329 0
M  V30 822 C 78.5823 1.71023 -3.02731 0
M  V30 823 H 77.9053 1.28885 -3.78456 0
M  V30 824 H 79.3453 2.30314 -3.55993 0
M  V30 825 C 77.8043 2.62692 -2.10938 0
M  V30 826 O 78.3343 3.64364 -1.6912 0
M  V30 827 N 76.5403 2.30891 -1.76459 0
M  V30 828 H 76.0873 1.48253 -2.10663 0
M  V30 829 H 76.0453 2.92487 -1.1532 0
M  V30 830 N 79.8174 1.5752 -0.0501392 0
M  V30 831 C 81.0654 1.9227 0.622642 0
M  V30 832 C 81.3864 0.929083 1.71444 0
M  V30 833 O 80.6564 -0.0262186 1.95882 0
M  V30 834 H 79.2364 0.709739 0.232981 0
M  V30 835 H 81.8984 1.94628 -0.102898 0
M  V30 836 H 80.9944 2.93479 1.06191 0
M  V30 837 N 81.2955 -0.223234 1.56011 0
M  V30 838 C 82.5415 -0.949279 1.79211 0
M  V30 839 C 82.8745 -1.84054 0.619494 0
M  V30 840 O 82.1495 -1.90726 -0.381317 0
M  V30 841 C 82.4325 -1.78965 3.12479 0
M  V30 842 C 82.2855 -0.924997 4.40186 0
M  V30 843 C 83.6045 -2.76774 3.42175 0
M  V30 844 H 80.7235 -0.343676 0.651963 0
M  V30 845 H 83.3655 -0.218253 1.88742 0
M  V30 846 H 81.5155 -2.41291 3.04485 0
M  V30 847 H 83.1875 -0.318615 4.60198 0
M  V30 848 H 81.4305 -0.230344 4.33188 0
M  V30 849 H 82.1015 -1.54735 5.29869 0
M  V30 850 H 84.5775 -2.24584 3.50287 0
M  V30 851 H 83.4535 -3.32678 4.36597 0
M  V30 852 H 83.7145 -3.54429 2.64258 0
M  V30 853 N 82.7736 -1.49793 -0.48987 0
M  V30 854 C 84.0226 -1.59085 -1.23995 0
M  V30 855 C 84.3356 -0.287907 -1.9347 0
M  V30 856 O 85.5416 -0.259506 -2.70257 0
M  V30 857 C 83.9976 -2.80736 -2.252 0
M  V30 858 C 83.6056 -4.17833 -1.61614 0
M  V30 859 C 85.3496 -2.99364 -3.00967 0
M  V30 860 C 83.2566 -5.30693 -2.60996 0
M  V30 861 H 82.1866 -0.592372 -0.466488 0
M  V30 862 H 84.8376 -1.76197 -0.51252 0
M  V30 863 H 83.2196 -2.57142 -3.01154 0
M  V30 864 H 84.3936 -4.51608 -0.915774 0
M  V30 865 H 82.7086 -4.04656 -0.981977 0
M  V30 866 H 85.3056 -3.80851 -3.75308 0
M  V30 867 H 85.6486 -2.10356 -3.59244 0
M  V30 868 H 86.1816 -3.2305 -2.32128 0
M  V30 869 H 82.9206 -6.21796 -2.07485 0
M  V30 870 H 82.4406 -5.01359 -3.2924 0
M  V30 871 H 84.1196 -5.6049 -3.23202 0
M  V30 872 N 84.2517 0.741722 -1.39055 0
M  V30 873 C 85.4977 1.50336 -1.36113 0
M  V30 874 C 85.8307 1.94148 0.0450796 0
M  V30 875 O 85.1057 1.66301 1.00868 0
M  V30 876 C 85.3887 2.74773 -2.32749 0
M  V30 877 C 85.2417 2.37023 -3.82283 0
M  V30 878 C 86.5607 3.76846 -2.27322 0
M  V30 879 H 83.6797 0.545351 -0.495743 0
M  V30 880 H 86.3217 0.848624 -1.69995 0
M  V30 881 H 84.4717 3.30639 -2.03986 0
M  V30 882 H 86.1437 1.8684 -4.21768 0
M  V30 883 H 84.3867 1.69334 -3.99385 0
M  V30 884 H 85.0577 3.26104 -4.45376 0
M  V30 885 H 87.5337 3.30548 -2.5274 0
M  V30 886 H 86.4097 4.6159 -2.97028 0
M  V30 887 H 86.6707 4.23286 -1.27599 0
M  V30 888 N 85.7298 1.2412 0.971189 0
M  V30 889 C 86.9778 1.07668 1.71032 0
M  V30 890 C 87.2988 -0.385797 1.91146 0
M  V30 891 O 86.5688 -1.27569 1.4867 0
M  V30 892 H 85.1488 0.395429 0.633755 0
M  V30 893 H 87.8108 1.55984 1.16855 0
M  V30 894 H 86.9068 1.57195 2.69622 0
M  V30 895 N 87.2079 -1.17134 1.05439 0
M  V30 896 C 88.1709 -2.19439 0.661764 0
M  V30 897 C 89.1709 -1.58199 -0.288042 0
M  V30 898 O 90.3609 -1.74053 -0.0715803 0
M  V30 899 C 87.4929 -3.40889 -0.0276209 0
M  V30 900 H 88.6859 -2.55688 1.56728 0
M  V30 901 H 86.2389 -1.31259 0.848567 0
M  V30 902 H 86.9739 -3.10187 -0.94629 0
M  V30 903 H 86.7589 -3.86586 0.655238 0
M  V30 904 H 88.2489 -4.16603 -0.288342 0
M  V30 905 N 88.686 -0.835752 -1.33615 0
M  V30 906 C 90.097 -0.487099 -1.80234 0
M  V30 907 C 90.448 0.993627 -1.69179 0
M  V30 908 O 89.573 1.77403 -1.23924 0
M  V30 909 C 90.168 -0.877385 -3.27242 0
M  V30 910 C 88.727 -0.580915 -3.7189 0
M  V30 911 C 87.874 -1.0874 -2.5509 0
M  V30 912 H 90.825 -1.02474 -1.2118 0
M  V30 913 H 90.846 -0.186195 -3.80044 0
M  V30 914 H 90.358 -1.95512 -3.35256 0
M  V30 915 H 88.459 0.486881 -3.69405 0
M  V30 916 H 88.572 -1.13396 -4.65487 0
M  V30 917 H 86.936 -0.508392 -2.49575 0
M  V30 918 H 87.719 -2.17184 -2.65868 0
M  V30 919 N 90.1641 1.46063 -0.591896 0
M  V30 920 C 91.4121 2.01938 -0.0808391 0
M  V30 921 C 91.7331 1.46475 1.28725 0
M  V30 922 O 91.0031 0.652944 1.84698 0
M  V30 923 H 89.5831 0.746516 -0.0268938 0
M  V30 924 H 92.2451 1.79055 -0.769752 0
M  V30 925 H 91.3411 3.12094 -0.0187578 0
M  V30 926 N 91.6422 0.330177 1.54103 0
M  V30 927 C 92.5522 -0.541534 2.28264 0
M  V30 928 C 93.5682 -1.12351 1.32866 0
M  V30 929 O 94.7442 -1.14206 1.65888 0
M  V30 930 C 91.8092 -1.68322 3.03098 0
M  V30 931 C 90.8702 -1.13238 4.14096 0
M  V30 932 C 90.1032 -2.21966 4.85352 0
M  V30 933 O 90.3262 -3.42437 4.56172 0
M  V30 934 O 89.2602 -1.87013 5.7211 0
M  V30 935 H 93.0862 0.060938 3.03639 0
M  V30 936 H 90.6712 0.09565 1.49093 0
M  V30 937 H 92.5532 -2.34777 3.49939 0
M  V30 938 H 91.2282 -2.27176 2.30593 0
M  V30 939 H 90.1352 -0.432736 3.71589 0
M  V30 940 H 91.4682 -0.588898 4.88664 0
M  V30 941 N 93.1203 -1.57491 0.0584922 0
M  V30 942 C 94.3683 -1.92597 -0.612436 0
M  V30 943 C 94.6893 -0.938162 -1.70949 0
M  V30 944 O 93.9593 0.0158301 -1.95894 0
M  V30 945 H 92.5393 -0.710964 -0.229214 0
M  V30 946 H 95.2013 -1.94571 0.113218 0
M  V30 947 H 94.2973 -2.94038 -1.04633 0
M  V30 948 N 94.5984 0.214957 -1.56127 0
M  V30 949 C 95.5464 1.28601 -1.93816 0
M  V30 950 C 96.5404 1.48175 -0.821016 0
M  V30 951 O 97.7464 1.49271 -1.0059 0
M  V30 952 H 94.1214 0.431302 -0.616022 0
M  V30 953 H 96.0924 0.940991 -2.83175 0
M  V30 954 C 94.8414 2.62779 -2.27689 0
M  V30 955 H 94.1644 2.48527 -3.13168 0
M  V30 956 H 95.6044 3.36517 -2.57939 0
M  V30 957 C 94.0634 3.18285 -1.10436 0
M  V30 958 O 94.5934 4.00002 -0.368945 0
M  V30 959 N 92.7994 2.7675 -0.886433 0
M  V30 960 H 92.3464 2.10404 -1.48619 0
M  V30 961 H 92.3044 3.14229 -0.103656 0
M  V30 962 N 96.0765 1.50051 0.48192 0
M  V30 963 C 97.3015 1.64508 1.26301 0
M  V30 964 C 97.7265 0.323851 1.85291 0
M  V30 965 O 97.0845 -0.710969 1.66778 0
M  V30 966 C 97.1325 2.7305 2.35533 0
M  V30 967 O 96.2365 2.3355 3.39895 0
M  V30 968 H 95.5775 0.549978 0.372048 0
M  V30 969 H 98.1075 1.9636 0.574786 0
M  V30 970 H 98.1175 2.95799 2.8101 0
M  V30 971 H 96.7925 3.68946 1.91967 0
M  V30 972 H 95.3695 2.21205 3.00204 0
M  V30 973 N 97.5546 -0.734337 1.39446 0
M  V30 974 C 98.7826 -1.52358 1.39981 0
M  V30 975 C 99.1976 -1.88799 -0.0054975 0
M  V30 976 O 98.5546 -1.54146 -0.976998 0
M  V30 977 C 98.6056 -2.81072 2.27333 0
M  V30 978 O 98.3266 -2.46178 3.62392 0
M  V30 979 C 99.8276 -3.75096 2.36259 0
M  V30 980 H 97.0476 -0.470806 0.478103 0
M  V30 981 H 99.5916 -0.907339 1.83269 0
M  V30 982 H 97.7466 -3.39026 1.87457 0
M  V30 983 H 98.1606 -3.28866 4.08592 0
M  V30 984 H 99.6346 -4.62305 3.01626 0
M  V30 985 H 100.112 -4.16892 1.38194 0
M  V30 986 H 100.718 -3.23061 2.76608 0
M  V30 987 N 99.0327 -1.24633 -0.964593 0
M  V30 988 C 100.281 -1.08573 -1.70459 0
M  V30 989 C 100.602 0.375655 -1.91347 0
M  V30 990 O 99.8717 1.26779 -1.49345 0
M  V30 991 H 98.4517 -0.398784 -0.631649 0
M  V30 992 H 101.114 -1.56601 -1.16026 0
M  V30 993 H 100.21 -1.58623 -2.68785 0
M  V30 994 N 100.511 1.16574 -1.06058 0
M  V30 995 C 101.736 1.91493 -0.796562 0
M  V30 996 C 102.161 1.76773 0.642868 0
M  V30 997 O 101.519 1.09142 1.44768 0
M  V30 998 C 101.567 3.40293 -1.19303 0
M  V30 999 O 100.671 4.11074 -0.330394 0
M  V30 1000 H 100.012 0.596678 -0.291326 0
M  V30 1001 H 102.542 1.47708 -1.41575 0
M  V30 1002 H 102.552 3.91057 -1.16356 0
M  V30 1003 H 101.227 3.50326 -2.24153 0
M  V30 1004 H 99.8038 3.70513 -0.421225 0
M  V30 1005 N 101.989 0.842826 1.3317 0
M  V30 1006 C 102.919 0.294028 2.31641 0
M  V30 1007 C 103.9 -0.600401 1.59151 0
M  V30 1008 O 105.085 -0.523124 1.87022 0
M  V30 1009 C 102.215 -0.528416 3.43257 0
M  V30 1010 C 101.169 0.27056 4.27144 0
M  V30 1011 C 100.495 -0.675881 5.30411 0
M  V30 1012 C 101.795 1.48981 5.00602 0
M  V30 1013 H 103.489 1.11681 2.77791 0
M  V30 1014 H 101.035 0.538478 1.33553 0
M  V30 1015 H 102.988 -0.922674 4.11175 0
M  V30 1016 H 101.712 -1.38445 2.95805 0
M  V30 1017 H 100.371 0.646427 3.60856 0
M  V30 1018 H 100.019 -1.52842 4.79216 0
M  V30 1019 H 99.7189 -0.145374 5.8742 0
M  V30 1020 H 101.243 -1.06757 6.01195 0
M  V30 1021 H 102.657 1.16849 5.61266 0
M  V30 1022 H 101.054 1.95739 5.6728 0
M  V30 1023 H 102.124 2.25746 4.29147 0
M  V30 1024 N 103.467 -1.45747 0.599634 0
M  V30 1025 C 104.697 -2.06369 0.0977132 0
M  V30 1026 C 105.105 -1.44624 -1.21985 0
M  V30 1027 O 104.448 -0.551831 -1.75216 0
M  V30 1028 C 104.51 -3.59284 -0.124673 0
M  V30 1029 C 104.174 -4.43318 1.10987 0
M  V30 1030 C 105.171 -4.78796 2.02609 0
M  V30 1031 C 102.856 -4.84194 1.33647 0
M  V30 1032 C 104.85 -5.53997 3.15224 0
M  V30 1033 C 102.537 -5.5915 2.46565 0
M  V30 1034 C 103.535 -5.93968 3.37182 0
M  V30 1035 O 103.223 -6.67405 4.48136 0
M  V30 1036 H 102.955 -0.673122 0.0623153 0
M  V30 1037 H 105.509 -1.88104 0.824981 0
M  V30 1038 H 103.739 -3.75919 -0.906745 0
M  V30 1039 H 105.428 -4.01775 -0.577201 0
M  V30 1040 H 106.194 -4.47781 1.86325 0
M  V30 1041 H 102.073 -4.56534 0.64016 0
M  V30 1042 H 105.617 -5.81091 3.85978 0
M  V30 1043 H 101.514 -5.89579 2.62805 0
M  V30 1044 H 102.282 -6.85847 4.46717 0
M  V30 1045 N 104.945 -0.338344 -1.53925 0
M  V30 1046 C 105.877 0.555117 -2.22376 0
M  V30 1047 C 106.89 1.06812 -1.22862 0
M  V30 1048 O 108.079 0.979163 -1.49247 0
M  V30 1049 C 105.179 1.77609 -2.88631 0
M  V30 1050 C 104.352 1.39927 -4.14414 0
M  V30 1051 C 103.411 2.47936 -4.64127 0
M  V30 1052 O 102.437 2.11461 -5.28463 0
M  V30 1053 N 103.639 3.79107 -4.39612 0
M  V30 1054 H 106.404 -0.0310778 -2.99684 0
M  V30 1055 H 103.965 -0.162226 -1.61085 0
M  V30 1056 H 105.957 2.49287 -3.18807 0
M  V30 1057 H 104.527 2.26978 -2.14941 0
M  V30 1058 H 103.747 0.513481 -3.90841 0
M  V30 1059 H 105.035 1.12341 -4.96243 0
M  V30 1060 H 104.433 4.11531 -3.88148 0
M  V30 1061 H 102.99 4.4697 -4.74406 0
M  V30 1062 N 106.423 1.57458 -0.0668435 0
M  V30 1063 C 107.663 1.95175 0.607116 0
M  V30 1064 C 108.027 0.946039 1.67075 0
M  V30 1065 O 109.228 1.2107 2.39991 0
M  V30 1066 C 107.499 3.37582 1.17358 0
M  V30 1067 S 109.058 3.97271 1.86336 0
M  V30 1068 H 105.876 0.682604 0.19893 0
M  V30 1069 H 108.478 1.95002 -0.139519 0
M  V30 1070 H 107.182 4.08566 0.387553 0
M  V30 1071 H 106.713 3.41288 1.95669 0
M  V30 1072 H 108.728 3.83772 3.14537 0
M  V30 1073 N 107.901 -0.206675 1.56239 0
M  V30 1074 C 108.833 -1.27997 1.9013 0
M  V30 1075 C 109.846 -1.42299 0.790883 0
M  V30 1076 O 111.035 -1.42931 1.06925 0
M  V30 1077 C 108.135 -2.65368 2.10792 0
M  V30 1078 C 107.308 -2.72824 3.41886 0
M  V30 1079 C 106.367 -3.9131 3.51799 0
M  V30 1080 O 105.393 -3.78953 4.24716 0
M  V30 1081 N 106.595 -5.06265 2.84035 0
M  V30 1082 H 109.36 -0.992444 2.82791 0
M  V30 1083 H 106.921 -0.396652 1.56966 0
M  V30 1084 H 108.913 -3.43039 2.14724 0
M  V30 1085 H 107.483 -2.86657 1.24685 0
M  V30 1086 H 106.703 -1.81515 3.49923 0
M  V30 1087 H 107.991 -2.74786 4.28217 0
M  V30 1088 H 107.389 -5.19203 2.246 0
M  V30 1089 H 105.946 -5.81925 2.93609 0
M  V30 1090 N 109.379 -1.50304 -0.473955 0
M  V30 1091 C 110.604 -1.65175 -1.25427 0
M  V30 1092 C 111.029 -0.333673 -1.85117 0
M  V30 1093 O 110.387 0.702114 -1.67153 0
M  V30 1094 C 110.435 -2.74295 -2.34082 0
M  V30 1095 O 109.539 -2.35349 -3.38651 0
M  V30 1096 H 108.88 -0.551944 -0.369126 0
M  V30 1097 H 111.41 -1.96662 -0.564364 0
M  V30 1098 H 111.42 -2.97285 -2.79438 0
M  V30 1099 H 110.095 -3.69959 -1.90008 0
M  V30 1100 H 108.672 -2.22794 -2.99027 0
M  V30 1101 N 110.857 0.726932 -1.39834 0
M  V30 1102 C 112.105 1.4837 -1.37225 0
M  V30 1103 C 112.426 1.94979 0.0284857 0
M  V30 1104 O 111.696 1.69555 0.981213 0
M  V30 1105 H 110.276 0.55043 -0.505011 0
M  V30 1106 H 112.938 0.862468 -1.74778 0
M  V30 1107 H 112.034 2.36198 -2.04003 0
M  V30 1108 N 112.336 1.25143 0.95797 0
M  V30 1109 C 113.564 1.12424 1.73691 0
M  V30 1110 C 113.979 -0.322304 1.86029 0
M  V30 1111 O 113.336 -1.22186 1.35561 0
M  V30 1112 C 113.387 1.76933 3.15241 0
M  V30 1113 O 113.108 3.15932 3.03511 0
M  V30 1114 C 114.609 1.6995 4.09429 0
M  V30 1115 H 111.829 0.3923 0.544373 0
M  V30 1116 H 114.373 1.6544 1.20207 0
M  V30 1117 H 112.528 1.27895 3.6568 0
M  V30 1118 H 112.942 3.47598 3.9278 0
M  V30 1119 H 114.416 2.19753 5.06372 0
M  V30 1120 H 114.893 0.662619 4.34173 0
M  V30 1121 H 115.499 2.18461 3.64904 0
M  V30 1122 N 113.814 -1.1601 1.06675 0
M  V30 1123 C 115.062 -1.86264 0.784229 0
M  V30 1124 C 115.383 -1.82328 -0.691488 0
M  V30 1125 O 114.653 -1.25947 -1.50047 0
M  V30 1126 H 113.233 -0.689621 0.28711 0
M  V30 1127 H 115.895 -1.40664 1.34906 0
M  V30 1128 H 114.991 -2.91595 1.11259 0
M  V30 1129 N 115.292 -0.849877 -1.32721 0
M  V30 1130 C 116.242 -0.262892 -2.26479 0
M  V30 1131 C 117.226 0.588493 -1.49752 0
M  V30 1132 O 118.418 0.438659 -1.71478 0
M  V30 1133 C 115.547 0.551818 -3.38836 0
M  V30 1134 C 114.633 -0.311689 -4.22953 0
M  V30 1135 N 115.024 -1.39567 -4.86163 0
M  V30 1136 C 113.322 -0.100611 -4.45887 0
M  V30 1137 C 114.023 -1.92651 -5.48872 0
M  V30 1138 N 112.999 -1.22637 -5.29586 0
M  V30 1139 H 116.801 -1.09166 -2.72873 0
M  V30 1140 H 114.315 -0.695486 -1.46754 0
M  V30 1141 H 116.312 0.988713 -4.05006 0
M  V30 1142 H 114.972 1.37844 -2.93988 0
M  V30 1143 H 115.983 -1.77859 -4.86402 0
M  V30 1144 H 112.66 0.691681 -4.11731 0
M  V30 1145 H 114.05 -2.83487 -6.09167 0
M  V30 1146 N 116.77 1.45427 -0.607355 0
M  V30 1147 C 118.01 2.04128 -0.105458 0
M  V30 1148 C 118.374 1.46555 1.24039 0
M  V30 1149 O 119.575 1.96608 1.833 0
M  V30 1150 C 117.846 3.57338 -0.0665324 0
M  V30 1151 S 119.405 4.37201 0.374207 0
M  V30 1152 H 116.223 0.709278 -0.0494575 0
M  V30 1153 H 118.825 1.78139 -0.805404 0
M  V30 1154 H 117.529 3.96752 -1.04957 0
M  V30 1155 H 117.06 3.87902 0.655415 0
M  V30 1156 H 119.075 4.6888 1.62377 0
M  V30 1157 N 118.248 0.346503 1.53744 0
M  V30 1158 C 119.178 -0.501193 2.28058 0
M  V30 1159 C 120.159 -1.10014 1.29734 0
M  V30 1160 O 121.344 -1.12097 1.58581 0
M  V30 1161 C 118.474 -1.65078 3.05559 0
M  V30 1162 C 117.428 -1.18003 4.11411 0
M  V30 1163 C 116.754 -2.41837 4.76884 0
M  V30 1164 C 118.054 -0.278394 5.21558 0
M  V30 1165 H 119.748 0.11875 2.99164 0
M  V30 1166 H 117.294 0.0585531 1.43881 0
M  V30 1167 H 119.247 -2.25028 3.56287 0
M  V30 1168 H 117.971 -2.29767 2.32109 0
M  V30 1169 H 116.63 -0.603331 3.61601 0
M  V30 1170 H 116.278 -3.0494 4.00026 0
M  V30 1171 H 115.978 -2.1102 5.48402 0
M  V30 1172 H 117.502 -3.02508 5.30397 0
M  V30 1173 H 118.916 -0.784823 5.67903 0
M  V30 1174 H 117.313 -0.0619707 6.00068 0
M  V30 1175 H 118.383 0.684677 4.80042 0
M  V30 1176 N 119.726 -1.57421 0.075193 0
M  V30 1177 C 121.137 -1.81021 -0.456964 0
M  V30 1178 C 121.488 -0.98936 -1.69429 0
M  V30 1179 O 120.613 -0.212865 -2.15351 0
M  V30 1180 C 121.208 -3.28329 -0.83581 0
M  V30 1181 C 119.767 -3.52764 -1.31281 0
M  V30 1182 C 118.914 -2.75676 -0.299648 0
M  V30 1183 H 121.865 -1.55822 0.300856 0
M  V30 1184 H 121.886 -3.40564 -1.69696 0
M  V30 1185 H 121.398 -3.88046 0.0649238 0
M  V30 1186 H 119.499 -2.98355 -2.23193 0
M  V30 1187 H 119.612 -4.61451 -1.28839 0
M  V30 1188 H 117.976 -2.42538 -0.777641 0
M  V30 1189 H 118.759 -3.38132 0.593417 0
M  V30 1190 N 121.204 0.198386 -1.56346 0
M  V30 1191 C 122.45 0.920648 -1.80698 0
M  V30 1192 C 122.783 1.83045 -0.648697 0
M  V30 1193 O 122.058 1.91308 0.350925 0
M  V30 1194 C 122.341 1.73971 -3.15287 0
M  V30 1195 C 122.194 0.85485 -4.41602 0
M  V30 1196 C 123.513 2.71296 -3.46535 0
M  V30 1197 H 120.632 0.333261 -0.657348 0
M  V30 1198 H 123.274 0.188198 -1.89066 0
M  V30 1199 H 121.424 2.36416 -3.08285 0
M  V30 1200 H 123.096 0.245362 -4.60647 0
M  V30 1201 H 121.339 0.161398 -4.335 0
M  V30 1202 H 122.01 1.46286 -5.32264 0
M  V30 1203 H 124.486 2.18983 -3.53816 0
M  V30 1204 H 123.362 3.2569 -4.41834 0
M  V30 1205 H 123.623 3.5018 -2.69864 0
M  V30 1206 N 122.682 1.50554 0.465978 0
M  V30 1207 C 123.91 1.65563 1.24083 0
M  V30 1208 C 124.325 0.341051 1.85694 0
M  V30 1209 O 123.682 -0.677543 1.69457 0
M  V30 1210 C 123.733 2.75051 2.34583 0
M  V30 1211 O 123.454 4.01413 1.75497 0
M  V30 1212 C 124.955 3.01078 3.25372 0
M  V30 1213 H 122.175 0.55638 0.375077 0
M  V30 1214 H 124.719 1.96807 0.555624 0
M  V30 1215 H 122.874 2.46486 2.9887 0
M  V30 1216 H 123.288 4.62002 2.48303 0
M  V30 1217 H 124.762 3.81339 3.99105 0
M  V30 1218 H 125.239 2.12349 3.84453 0
M  V30 1219 H 125.845 3.31194 2.66816 0
M  V30 1220 N 124.16 -0.719506 1.40217 0
M  V30 1221 C 125.09 -1.8465 1.42922 0
M  V30 1222 C 126.071 -1.67599 0.29062 0
M  V30 1223 O 127.256 -1.87688 0.498677 0
M  V30 1224 C 124.386 -3.22565 1.28722 0
M  V30 1225 C 123.34 -3.54281 2.40144 0
M  V30 1226 C 122.666 -4.91298 2.11023 0
M  V30 1227 C 123.966 -3.55676 3.82481 0
M  V30 1228 H 125.66 -1.82644 2.37237 0
M  V30 1229 H 123.206 -0.877305 1.1419 0
M  V30 1230 H 125.159 -4.01095 1.29232 0
M  V30 1231 H 123.883 -3.25137 0.308811 0
M  V30 1232 H 122.542 -2.78088 2.38877 0
M  V30 1233 H 122.19 -4.90468 1.11582 0
M  V30 1234 H 121.89 -5.13485 2.8567 0
M  V30 1235 H 123.414 -5.72166 2.13209 0
M  V30 1236 H 124.828 -4.24254 3.85592 0
M  V30 1237 H 123.225 -3.89388 4.56614 0
M  V30 1238 H 124.295 -2.55144 4.12346 0
M  V30 1239 N 125.638 -1.25649 -0.95132 0
M  V30 1240 C 127.054 -1.02542 -1.223 0
M  V30 1241 C 127.254 0.255715 -1.99871 0
M  V30 1242 O 126.31 0.967558 -2.33226 0
M  V30 1243 C 127.623 -2.25065 -1.99415 0
M  V30 1244 C 129.171 -2.29861 -2.12446 0
M  V30 1245 C 129.646 -3.52048 -2.92961 0
M  V30 1246 N 131.137 -3.52465 -3.00538 0
M  V30 1247 C 131.872 -4.43672 -3.63239 0
M  V30 1248 N 131.368 -5.45157 -4.27523 0
M  V30 1249 N 133.161 -4.31346 -3.60412 0
M  V30 1250 H 125.312 -2.07951 -0.432471 0
M  V30 1251 H 127.575 -0.91339 -0.253816 0
M  V30 1252 H 127.281 -3.18194 -1.49817 0
M  V30 1253 H 127.155 -2.28502 -3.00111 0
M  V30 1254 H 129.542 -1.37252 -2.61239 0
M  V30 1255 H 129.623 -2.3044 -1.11044 0
M  V30 1256 H 129.267 -4.44981 -2.44856 0
M  V30 1257 H 129.197 -3.48715 -3.94596 0
M  V30 1258 H 131.688 -2.79056 -2.54826 0
M  V30 1259 H 132.001 -6.10958 -4.73234 0
M  V30 1260 H 130.346 -5.49025 -4.26141 0
M  V30 1261 H 133.537 -3.51288 -3.09377 0
M  V30 1262 H 133.71 -5.02624 -4.0899 0
M  V30 1263 N 127.117 1.15442 -1.07289 0
M  V30 1264 C 128.365 1.85845 -0.794096 0
M  V30 1265 C 128.686 1.82692 0.681809 0
M  V30 1266 O 127.956 1.26741 1.49377 0
M  V30 1267 H 126.536 0.688089 -0.290763 0
M  V30 1268 H 129.198 1.39947 -1.3565 0
M  V30 1269 H 128.294 2.91001 -1.12804 0
M  V30 1270 N 128.595 0.856903 1.32268 0
M  V30 1271 C 129.82 0.474569 2.01897 0
M  V30 1272 C 130.245 -0.921766 1.63967 0
M  V30 1273 O 129.603 -1.60589 0.84148 0
M  V30 1274 C 129.651 0.623799 3.55164 0
M  V30 1275 O 128.755 -0.342459 4.10976 0
M  V30 1276 H 128.096 0.190422 0.63611 0
M  V30 1277 H 130.626 1.15672 1.68764 0
M  V30 1278 H 130.636 0.512169 4.04773 0
M  V30 1279 H 129.311 1.64202 3.82113 0
M  V30 1280 H 127.888 -0.18688 3.72431 0
M  V30 1281 N 130.073 -1.45103 0.615059 0
M  V30 1282 C 131.021 -2.32331 -0.111791 0
M  V30 1283 C 132.015 -1.46409 -0.852102 0
M  V30 1284 O 133.221 -1.62849 -0.766821 0
M  V30 1285 H 129.596 -0.749993 -0.0549072 0
M  V30 1286 H 131.567 -2.91407 0.642225 0
M  V30 1287 C 130.316 -3.3015 -1.09071 0
M  V30 1288 H 129.639 -3.96265 -0.530485 0
M  V30 1289 H 131.079 -3.93898 -1.56908 0
M  V30 1290 C 129.538 -2.57875 -2.168 0
M  V30 1291 O 130.068 -2.36567 -3.24652 0
M  V30 1292 N 128.274 -2.17884 -1.92289 0
M  V30 1293 H 127.821 -2.35413 -1.04587 0
M  V30 1294 H 127.779 -1.6985 -2.64572 0
M  V30 1295 N 131.551 -0.354651 -1.53558 0
M  V30 1296 C 132.781 0.239167 -2.05211 0
M  V30 1297 C 133.189 1.43879 -1.22863 0
M  V30 1298 O 132.532 1.81857 -0.259565 0
M  V30 1299 C 132.594 0.707251 -3.52474 0
M  V30 1300 C 132.258 -0.374212 -4.55465 0
M  V30 1301 C 133.255 -1.22054 -5.0537 0
M  V30 1302 C 130.94 -0.531323 -4.99482 0
M  V30 1303 C 132.934 -2.20942 -5.97882 0
M  V30 1304 C 130.621 -1.52358 -5.91802 0
M  V30 1305 C 131.619 -2.36108 -6.40892 0
M  V30 1306 O 131.307 -3.33643 -7.31394 0
M  V30 1307 H 131.039 0.0479716 -0.674296 0
M  V30 1308 H 133.593 -0.508121 -1.99016 0
M  V30 1309 H 131.823 1.50596 -3.56171 0
M  V30 1310 H 133.512 1.22285 -3.87042 0
M  V30 1311 H 134.278 -1.1103 -4.7212 0
M  V30 1312 H 130.157 0.110738 -4.60867 0
M  V30 1313 H 133.701 -2.86348 -6.36121 0
M  V30 1314 H 129.598 -1.63434 -6.24467 0
M  V30 1315 H 130.366 -3.29244 -7.4936 0
M  V30 1316 N 133.029 1.57378 -0.0835403 0
M  V30 1317 C 134.257 1.98263 0.59157 0
M  V30 1318 C 134.672 0.962302 1.62435 0
M  V30 1319 O 134.029 -0.049581 1.82433 0
M  V30 1320 C 134.08 3.39214 1.24965 0
M  V30 1321 O 133.801 4.37339 0.258186 0
M  V30 1322 C 135.302 3.95038 2.01147 0
M  V30 1323 H 132.522 0.651773 0.159477 0
M  V30 1324 H 135.066 2.03878 -0.159415 0
M  V30 1325 H 133.221 3.34649 1.95164 0
M  V30 1326 H 133.635 5.19371 0.731734 0
M  V30 1327 H 135.109 4.95848 2.42567 0
M  V30 1328 H 135.586 3.32222 2.87272 0
M  V30 1329 H 136.192 4.0304 1.35789 0
M  V30 1330 N 134.507 -0.190092 1.56449 0
M  V30 1331 C 135.732 -0.929864 1.85387 0
M  V30 1332 C 136.157 -1.7585 0.667704 0
M  V30 1333 O 135.515 -1.77198 -0.383459 0
M  V30 1334 C 135.563 -1.79773 3.12593 0
M  V30 1335 O 134.667 -2.89713 2.93496 0
M  V30 1336 H 134.008 -0.261574 0.610307 0
M  V30 1337 H 136.538 -0.193896 2.03679 0
M  V30 1338 H 136.548 -2.20139 3.43515 0
M  V30 1339 H 135.223 -1.18892 3.98544 0
M  V30 1340 H 133.8 -2.53065 2.73884 0
M  V30 1341 N 135.985 -1.50799 -0.457987 0
M  V30 1342 C 136.932 -1.70617 -1.5543 0
M  V30 1343 C 137.902 -0.547562 -1.56815 0
M  V30 1344 O 139.087 -0.779647 -1.74144 0
M  V30 1345 C 136.227 -1.81831 -2.93311 0
M  V30 1346 C 135.34 -3.09278 -3.01615 0
M  V30 1347 C 134.475 -3.11209 -4.30491 0
M  V30 1348 C 133.514 -4.33055 -4.32585 0
M  V30 1349 N 132.651 -4.32652 -5.52952 0
M  V30 1350 H 137.491 -2.64207 -1.37836 0
M  V30 1351 H 135.028 -1.30959 -0.669937 0
M  V30 1352 H 136.986 -1.86314 -3.73287 0
M  V30 1353 H 135.616 -0.916685 -3.0951 0
M  V30 1354 H 134.668 -3.14203 -2.1443 0
M  V30 1355 H 135.98 -3.99233 -2.99022 0
M  V30 1356 H 135.134 -3.14494 -5.18824 0
M  V30 1357 H 133.873 -2.19106 -4.35711 0
M  V30 1358 H 132.878 -4.29969 -3.42647 0
M  V30 1359 H 134.103 -5.264 -4.29046 0
M  V30 1360 H 132.049 -3.43409 -5.58933 0
M  V30 1361 H 131.966 -5.16392 -5.52155 0
M  V30 1362 H 133.234 -4.40101 -6.43375 0
M  V30 1363 N 137.463 0.71206 -1.40597 0
M  V30 1364 C 138.693 1.49894 -1.42181 0
M  V30 1365 C 139.101 1.89189 -0.0208078 0
M  V30 1366 O 138.444 1.56223 0.966436 0
M  V30 1367 C 138.506 2.80215 -2.25211 0
M  V30 1368 C 138.17 2.63221 -3.73582 0
M  V30 1369 C 139.167 2.30249 -4.66135 0
M  V30 1370 C 136.852 2.79376 -4.17438 0
M  V30 1371 C 138.846 2.13645 -6.00529 0
M  V30 1372 C 136.533 2.6239 -5.51901 0
M  V30 1373 C 137.531 2.29573 -6.43262 0
M  V30 1374 O 137.219 2.12719 -7.75246 0
M  V30 1375 H 136.951 0.469031 -0.486812 0
M  V30 1376 H 139.505 0.88564 -1.85326 0
M  V30 1377 H 137.735 3.4389 -1.76852 0
M  V30 1378 H 139.424 3.41947 -2.18694 0
M  V30 1379 H 140.19 2.17398 -4.33547 0
M  V30 1380 H 136.069 3.03906 -3.46644 0
M  V30 1381 H 139.613 1.87953 -6.71803 0
M  V30 1382 H 135.51 2.74826 -5.84073 0
M  V30 1383 H 136.278 2.27611 -7.86216 0
M  V30 1384 N 138.941 1.26152 0.944643 0
M  V30 1385 C 139.871 1.09902 2.06019 0
M  V30 1386 C 140.852 0.00519538 1.70099 0
M  V30 1387 O 142.037 0.176583 1.93396 0
M  V30 1388 C 139.167 0.727562 3.39594 0
M  V30 1389 C 138.121 1.77274 3.89561 0
M  V30 1390 C 137.447 1.25569 5.19747 0
M  V30 1391 C 138.747 3.17357 4.14827 0
M  V30 1392 H 140.441 2.03217 2.19871 0
M  V30 1393 H 137.987 0.978452 1.05652 0
M  V30 1394 H 139.94 0.600777 4.17095 0
M  V30 1395 H 138.664 -0.241287 3.25707 0
M  V30 1396 H 137.323 1.88814 3.14237 0
M  V30 1397 H 136.971 0.276783 5.02238 0
M  V30 1398 H 136.671 1.95433 5.54148 0
M  V30 1399 H 138.195 1.1415 5.99835 0
M  V30 1400 H 139.609 3.08914 4.82954 0
M  V30 1401 H 138.006 3.84781 4.60504 0
M  V30 1402 H 139.076 3.63673 3.20734 0
M  V30 1403 N 140.419 -1.14872 1.07899 0
M  V30 1404 C 141.667 -1.85422 0.803941 0
M  V30 1405 C 141.988 -1.83051 -0.67211 0
M  V30 1406 O 141.258 -1.27532 -1.48703 0
M  V30 1407 H 139.838 -0.686537 0.294408 0
M  V30 1408 H 142.5 -1.39226 1.3639 0
M  V30 1409 H 141.596 -2.90399 1.14346 0
M  V30 1410 N 141.898 -0.863906 -1.31812 0
M  V30 1411 C 142.831 -0.259963 -2.26714 0
M  V30 1412 C 143.809 0.607392 -1.50829 0
M  V30 1413 O 144.993 0.562155 -1.79922 0
M  V30 1414 C 142.12 0.632456 -3.32743 0
M  V30 1415 C 141.166 -0.162743 -4.26189 0
M  V30 1416 S 141.999 -1.53726 -5.12961 0
M  V30 1417 C 143.155 -0.650803 -6.22507 0
M  V30 1418 H 143.388 -1.06445 -2.77591 0
M  V30 1419 H 140.921 -0.662071 -1.39485 0
M  V30 1420 H 142.879 1.14167 -3.94305 0
M  V30 1421 H 141.54 1.41083 -2.80632 0
M  V30 1422 H 140.733 0.517366 -5.01338 0
M  V30 1423 H 140.335 -0.60385 -3.69093 0
M  V30 1424 H 142.627 0.141134 -6.77353 0
M  V30 1425 H 143.57 -1.37322 -6.94657 0
M  V30 1426 H 143.978 -0.221041 -5.64067 0
M  V30 1427 N 143.376 1.44774 -0.622745 0
M  V30 1428 C 144.604 2.06487 -0.130722 0
M  V30 1429 C 145.019 1.46476 1.19123 0
M  V30 1430 O 144.376 0.584502 1.72887 0
M  V30 1431 C 144.427 3.615 -0.000807207 0
M  V30 1432 O 144.148 4.19274 -1.27048 0
M  V30 1433 C 145.649 4.40229 0.520898 0
M  V30 1434 H 142.869 0.666704 -0.0758106 0
M  V30 1435 H 145.413 1.85779 -0.854774 0
M  V30 1436 H 143.568 3.81498 0.673643 0
M  V30 1437 H 143.982 5.12622 -1.1099 0
M  V30 1438 H 145.456 5.49144 0.560838 0
M  V30 1439 H 145.933 4.1108 1.54627 0
M  V30 1440 H 146.539 4.25131 -0.120018 0
M  V30 1441 N 144.854 0.36279 1.53368 0
M  V30 1442 C 145.784 -0.476976 2.28576 0
M  V30 1443 C 146.765 -1.08631 1.30894 0
M  V30 1444 O 147.95 -1.10409 1.59761 0
M  V30 1445 C 145.08 -1.61828 3.07293 0
M  V30 1446 C 144.034 -1.13633 4.1264 0
M  V30 1447 C 143.36 -2.36766 4.79423 0
M  V30 1448 C 144.66 -0.223061 5.21823 0
M  V30 1449 H 146.354 0.150474 2.99022 0
M  V30 1450 H 143.9 0.0738103 1.43811 0
M  V30 1451 H 145.853 -2.21237 3.58653 0
M  V30 1452 H 144.577 -2.27292 2.34533 0
M  V30 1453 H 143.236 -0.564945 3.62221 0
M  V30 1454 H 142.884 -3.0068 4.03238 0
M  V30 1455 H 142.584 -2.05192 5.50609 0
M  V30 1456 H 144.108 -2.96865 5.33576 0
M  V30 1457 H 145.522 -0.724545 5.68703 0
M  V30 1458 H 143.919 0.001678 6.001 0
M  V30 1459 H 144.989 0.735553 4.79289 0
M  V30 1460 N 146.332 -1.57332 0.0918853 0
M  V30 1461 C 147.295 -2.12708 -0.85369 0
M  V30 1462 C 148.295 -1.05561 -1.213 0
M  V30 1463 O 149.485 -1.31461 -1.14296 0
M  V30 1464 C 146.617 -2.64503 -2.15061 0
M  V30 1465 H 147.81 -2.97573 -0.3729 0
M  V30 1466 H 145.363 -1.55509 -0.157072 0
M  V30 1467 H 146.098 -1.83149 -2.67632 0
M  V30 1468 H 145.883 -3.4284 -1.90272 0
M  V30 1469 H 147.373 -3.07351 -2.82711 0
M  V30 1470 N 147.81 0.181792 -1.56548 0
M  V30 1471 C 149.038 0.915947 -1.85521 0
M  V30 1472 C 149.453 1.76282 -0.676016 0
M  V30 1473 O 148.81 1.79012 0.355077 0
M  V30 1474 C 148.861 1.80126 -3.13427 0
M  V30 1475 O 148.582 0.988562 -4.26801 0
M  V30 1476 C 150.083 2.64597 -3.55673 0
M  V30 1477 H 147.303 0.26661 -0.61576 0
M  V30 1478 H 149.847 0.185039 -2.03661 0
M  V30 1479 H 148.002 2.48563 -2.97145 0
M  V30 1480 H 148.416 1.59308 -4.99721 0
M  V30 1481 H 149.89 3.2235 -4.48101 0
M  V30 1482 H 150.367 3.38958 -2.79292 0
M  V30 1483 H 150.973 2.0151 -3.74532 0
M  V30 1484 N 149.288 1.51039 0.449983 0
M  V30 1485 C 150.565 1.53612 1.21089 0
M  V30 1486 C 150.945 0.292997 2.09057 0
M  V30 1487 O 150.293 -0.72259 2.16774 0
M  V30 1488 C 150.503 2.84337 2.0237 0
M  V30 1489 C 151.851 3.35807 2.59843 0
M  V30 1490 O 152.875 2.85802 2.12593 0
M  V30 1491 O 151.734 4.23029 3.45989 0
M  V30 1492 H 148.828 0.617057 0.550608 0
M  V30 1493 H 151.374 1.63344 0.460082 0
M  V30 1494 H 150.146 3.66278 1.37681 0
M  V30 1495 H 149.769 2.77708 2.84542 0
M  V30 1496 N 150.766 -0.704594 1.40972 0
M  V30 1497 C 152.177 -1.28418 1.3552 0
M  V30 1498 C 152.528 -1.96171 0.0339434 0
M  V30 1499 O 151.653 -1.98231 -0.867944 0
M  V30 1500 C 152.248 -2.33528 2.45459 0
M  V30 1501 C 150.807 -2.87085 2.43433 0
M  V30 1502 C 149.954 -1.61007 2.2577 0
M  V30 1503 H 152.905 -0.499963 1.50619 0
M  V30 1504 H 152.926 -3.14619 2.13998 0
M  V30 1505 H 152.438 -1.84187 3.41609 0
M  V30 1506 H 150.539 -3.40626 1.51013 0
M  V30 1507 H 150.652 -3.3813 3.39419 0
M  V30 1508 H 149.016 -1.86482 1.73483 0
M  V30 1509 H 149.799 -1.13675 3.23933 0
M  V30 1510 N 152.244 -1.26651 -0.937939 0
M  V30 1511 C 153.472 -1.15173 -1.7188 0
M  V30 1512 C 153.887 0.292668 -1.86518 0
M  V30 1513 O 153.244 1.20014 -1.37488 0
M  V30 1514 C 153.295 -1.81925 -3.12387 0
M  V30 1515 O 153.016 -3.2072 -2.98446 0
M  V30 1516 C 154.517 -1.76442 -4.06673 0
M  V30 1517 H 151.737 -0.400911 -0.538063 0
M  V30 1518 H 154.281 -1.67332 -1.1756 0
M  V30 1519 H 152.436 -1.33696 -3.63599 0
M  V30 1520 H 152.85 -3.53802 -3.872 0
M  V30 1521 H 154.324 -2.27781 -5.02812 0
M  V30 1522 H 154.801 -0.731608 -4.33064 0
M  V30 1523 H 155.407 -2.24238 -3.61382 0
M  V30 1524 N 153.722 1.14298 -1.08507 0
M  V30 1525 C 154.999 1.81544 -0.728088 0
M  V30 1526 C 155.379 1.95838 0.78808 0
M  V30 1527 O 154.727 1.51904 1.70697 0
M  V30 1528 C 154.937 3.17169 -1.45619 0
M  V30 1529 C 156.285 3.9265 -1.61591 0
M  V30 1530 O 157.309 3.26762 -1.41793 0
M  V30 1531 O 156.168 5.10807 -1.94263 0
M  V30 1532 H 153.262 0.78491 -0.260471 0
M  V30 1533 H 155.808 1.21307 -1.18671 0
M  V30 1534 H 154.58 3.01934 -2.489 0
M  V30 1535 H 154.203 3.851 -0.989124 0
M  V30 1536 N 155.201 0.870884 1.31352 0
M  V30 1537 C 156.449 0.48132 1.96285 0
M  V30 1538 C 156.77 -0.969813 1.69173 0
M  V30 1539 O 156.04 -1.67998 1.00764 0
M  V30 1540 H 154.62 0.175002 0.726212 0
M  V30 1541 H 157.282 1.11087 1.60143 0
M  V30 1542 H 156.378 0.639825 3.05471 0
M  V30 1543 N 156.679 -1.44442 0.630414 0
M  V30 1544 C 157.904 -2.06927 0.139944 0
M  V30 1545 C 158.329 -1.46795 -1.17613 0
M  V30 1546 O 157.687 -0.569144 -1.72135 0
M  V30 1547 C 157.735 -3.6058 0.0379581 0
M  V30 1548 O 156.839 -3.99937 -1.0062 0
M  V30 1549 H 156.18 -0.658608 0.0844483 0
M  V30 1550 H 158.71 -1.85327 0.866891 0
M  V30 1551 H 158.72 -4.07714 -0.152856 0
M  V30 1552 H 157.395 -4.03728 0.998809 0
M  V30 1553 H 155.972 -3.64436 -0.79001 0
M  V30 1554 N 158.157 -0.370918 -1.53173 0
M  V30 1555 C 159.406 0.218249 -2.00516 0
M  V30 1556 C 159.719 1.49429 -1.26215 0
M  V30 1557 O 160.925 2.16239 -1.64174 0
M  V30 1558 C 159.381 0.43948 -3.57207 0
M  V30 1559 C 158.989 -0.822244 -4.4039 0
M  V30 1560 C 160.733 0.986012 -4.1289 0
M  V30 1561 C 158.64 -0.570304 -5.88644 0
M  V30 1562 H 157.57 0.0853333 -0.749156 0
M  V30 1563 H 160.221 -0.490483 -1.76823 0
M  V30 1564 H 158.603 1.20961 -3.77074 0
M  V30 1565 H 159.777 -1.59557 -4.32294 0
M  V30 1566 H 158.092 -1.29238 -3.95836 0
M  V30 1567 H 160.689 1.18991 -5.21292 0
M  V30 1568 H 161.032 1.94972 -3.6782 0
M  V30 1569 H 161.565 0.27592 -3.96842 0
M  V30 1570 H 158.304 -1.50449 -6.38001 0
M  V30 1571 H 157.824 0.164427 -5.99575 0
M  V30 1572 H 159.503 -0.19784 -6.46697 0
M  V30 1573 N 159.635 1.57281 -0.100228 0
M  V30 1574 C 160.565 2.17328 0.853857 0
M  V30 1575 C 161.546 1.10804 1.2906 0
M  V30 1576 O 162.731 1.38963 1.35657 0
M  V30 1577 C 159.861 2.75772 2.11109 0
M  V30 1578 C 158.815 3.87713 1.81279 0
M  V30 1579 C 158.141 4.32882 3.13874 0
M  V30 1580 C 159.441 5.10677 1.09574 0
M  V30 1581 H 161.135 2.97305 0.353545 0
M  V30 1582 H 158.681 1.43009 0.168612 0
M  V30 1583 H 160.634 3.16433 2.78296 0
M  V30 1584 H 159.358 1.93057 2.63432 0
M  V30 1585 H 158.017 3.476 1.16489 0
M  V30 1586 H 157.665 3.47051 3.64095 0
M  V30 1587 H 157.365 5.08358 2.94696 0
M  V30 1588 H 158.889 4.7618 3.82211 0
M  V30 1589 H 160.303 5.48474 1.66879 0
M  V30 1590 H 158.7 5.91615 1.00557 0
M  V30 1591 H 159.77 4.84835 0.0793299 0
M  V30 1592 N 161.113 -0.173488 1.56642 0
M  V30 1593 C 162.076 -1.19859 1.95362 0
M  V30 1594 C 163.076 -1.37296 0.83704 0
M  V30 1595 O 164.266 -1.34739 1.10413 0
M  V30 1596 C 161.398 -2.56405 2.24654 0
M  V30 1597 H 162.591 -0.867062 2.87092 0
M  V30 1598 H 160.144 -0.415853 1.50666 0
M  V30 1599 H 160.879 -2.94576 1.35631 0
M  V30 1600 H 160.664 -2.45115 3.06041 0
M  V30 1601 H 162.154 -3.30287 2.5554 0
M  V30 1602 N 162.591 -1.51276 -0.441967 0
M  V30 1603 C 163.831 -1.65372 -1.20132 0
M  V30 1604 C 164.195 -0.359871 -1.88597 0
M  V30 1605 O 165.396 -0.376551 -2.66149 0
M  V30 1606 C 163.667 -2.8207 -2.1948 0
M  V30 1607 S 165.226 -3.16467 -3.03964 0
M  V30 1608 H 162.044 -0.582669 -0.407453 0
M  V30 1609 H 164.646 -1.89166 -0.493609 0
M  V30 1610 H 163.35 -3.74523 -1.67812 0
M  V30 1611 H 162.881 -2.6045 -2.94838 0
M  V30 1612 H 164.896 -2.62543 -4.21053 0
M  V30 1613 N 164.069 0.697108 -1.41344 0
M  V30 1614 C 165.346 1.45154 -1.31109 0
M  V30 1615 C 165.726 2.11009 0.0620449 0
M  V30 1616 O 165.074 2.01571 1.07618 0
M  V30 1617 C 165.284 2.47223 -2.46337 0
M  V30 1618 C 166.632 3.1252 -2.87431 0
M  V30 1619 O 167.656 2.57547 -2.46065 0
M  V30 1620 O 166.515 4.12083 -3.58957 0
M  V30 1621 H 163.609 0.646365 -0.515889 0
M  V30 1622 H 166.155 0.727716 -1.53305 0
M  V30 1623 H 164.927 1.97204 -3.37974 0
M  V30 1624 H 164.55 3.27116 -2.2601 0
M  V30 1625 N 165.547 1.27147 0.931209 0
M  V30 1626 C 166.958 1.12044 1.49342 0
M  V30 1627 C 167.309 -0.295795 1.93957 0
M  V30 1628 O 166.434 -1.18835 1.80852 0
M  V30 1629 C 167.029 2.02781 2.71414 0
M  V30 1630 C 165.588 1.91794 3.2387 0
M  V30 1631 C 164.735 1.95543 1.96617 0
M  V30 1632 H 167.686 1.40091 0.745672 0
M  V30 1633 H 167.707 1.58156 3.46074 0
M  V30 1634 H 167.219 3.05848 2.38911 0
M  V30 1635 H 165.32 0.916992 3.6114 0
M  V30 1636 H 165.433 2.77852 3.90302 0
M  V30 1637 H 163.797 1.39722 2.12955 0
M  V30 1638 H 164.58 3.00259 1.66432 0
M  V30 1639 N 167.025 -1.13721 1.09112 0
M  V30 1640 C 168.273 -1.84559 0.823562 0
M  V30 1641 C 168.594 -1.83754 -0.652658 0
M  V30 1642 O 167.864 -1.29102 -1.47342 0
M  V30 1643 H 166.444 -0.683376 0.301673 0
M  V30 1644 H 169.106 -1.37771 1.37859 0
M  V30 1645 H 168.202 -2.8917 1.17419 0
M  V30 1646 N 168.503 -0.877838 -1.30888 0
M  V30 1647 C 169.433 -0.35534 -2.3078 0
M  V30 1648 C 170.414 0.557994 -1.60687 0
M  V30 1649 O 171.599 0.473355 -1.88343 0
M  V30 1650 C 168.729 0.437221 -3.44537 0
M  V30 1651 C 167.683 -0.383715 -4.26276 0
M  V30 1652 C 167.009 0.535014 -5.32017 0
M  V30 1653 C 168.309 -1.62201 -4.96476 0
M  V30 1654 H 170.003 -1.19007 -2.74732 0
M  V30 1655 H 167.549 -0.573698 -1.32078 0
M  V30 1656 H 169.502 0.813334 -4.13477 0
M  V30 1657 H 168.226 1.30553 -2.99372 0
M  V30 1658 H 166.885 -0.741874 -3.59015 0
M  V30 1659 H 166.533 1.40083 -4.831 0
M  V30 1660 H 166.233 -0.0104211 -5.87599 0
M  V30 1661 H 167.757 0.907799 -6.03814 0
M  V30 1662 H 169.171 -1.31689 -5.5797 0
M  V30 1663 H 167.568 -2.10711 -5.61891 0
M  V30 1664 H 168.638 -2.37044 -4.23011 0
M  V30 1665 N 169.982 1.44106 -0.638065 0
M  V30 1666 C 171.207 2.0685 -0.150916 0
M  V30 1667 C 171.632 1.47417 1.16833 0
M  V30 1668 O 170.99 0.578264 1.71831 0
M  V30 1669 C 171.038 3.60555 -0.05708 0
M  V30 1670 O 170.142 4.00465 0.984972 0
M  V30 1671 H 169.483 0.658151 -0.0879399 0
M  V30 1672 H 172.013 1.84865 -0.876707 0
M  V30 1673 H 172.023 4.07789 0.131232 0
M  V30 1674 H 170.698 4.03193 -1.02021 0
M  V30 1675 H 169.275 3.64849 0.770672 0
M  V30 1676 N 171.46 0.379036 1.52974 0
M  V30 1677 C 172.876 0.0285448 1.59574 0
M  V30 1678 C 173.076 -1.45542 1.39355 0
M  V30 1679 O 172.132 -2.2187 1.20541 0
M  V30 1680 C 173.445 0.496535 2.96572 0
M  V30 1681 C 174.993 0.451909 3.0972 0
M  V30 1682 C 175.468 0.895924 4.49152 0
M  V30 1683 N 176.959 0.851522 4.55306 0
M  V30 1684 C 177.694 1.16661 5.61407 0
M  V30 1685 N 177.19 1.55166 6.752 0
M  V30 1686 N 178.983 1.08853 5.51459 0
M  V30 1687 H 171.134 1.34525 1.64367 0
M  V30 1688 H 173.397 0.550733 0.771619 0
M  V30 1689 H 173.103 1.53258 3.16552 0
M  V30 1690 H 172.977 -0.109802 3.7704 0
M  V30 1691 H 175.364 -0.575029 2.89443 0
M  V30 1692 H 175.445 1.09392 2.3123 0
M  V30 1693 H 175.089 1.92104 4.70168 0
M  V30 1694 H 175.019 0.23103 5.26093 0
M  V30 1695 H 177.51 0.568038 3.73606 0
M  V30 1696 H 177.823 1.776 7.52116 0
M  V30 1697 H 176.168 1.59044 6.76557 0
M  V30 1698 H 179.359 0.786803 4.6144 0
M  V30 1699 H 179.532 1.33742 6.34048 0
M  V30 1700 N 172.938 -1.57226 0.108567 0
M  V30 1701 C 174.166 -1.99179 -0.559954 0
M  V30 1702 C 174.581 -0.988022 -1.60884 0
M  V30 1703 O 173.938 0.0205512 -1.82488 0
M  V30 1704 C 173.989 -3.41159 -1.19552 0
M  V30 1705 O 173.71 -4.37694 -0.188577 0
M  V30 1706 C 175.211 -3.98188 -1.94837 0
M  V30 1707 H 172.431 -0.654228 -0.149088 0
M  V30 1708 H 174.975 -2.03598 0.19183 0
M  V30 1709 H 173.13 -3.37711 -1.89815 0
M  V30 1710 H 173.544 -5.20469 -0.649014 0
M  V30 1711 H 175.018 -4.99644 -2.34648 0
M  V30 1712 H 175.495 -3.3675 -2.81951 0
M  V30 1713 H 176.101 -4.0515 -1.2936 0
M  V30 1714 N 174.416 0.165178 -1.56732 0
M  V30 1715 C 175.656 0.887231 -1.8414 0
M  V30 1716 C 176.02 1.79159 -0.690353 0
M  V30 1717 O 177.221 2.55172 -0.845032 0
M  V30 1718 C 175.492 1.65674 -3.16681 0
M  V30 1719 S 177.051 2.42671 -3.6559 0
M  V30 1720 H 173.869 0.297042 -0.645978 0
M  V30 1721 H 176.471 0.148439 -1.94936 0
M  V30 1722 H 175.175 0.983507 -3.98441 0
M  V30 1723 H 174.706 2.43679 -3.08843 0
M  V30 1724 H 176.721 3.67499 -3.33406 0
M  V30 1725 N 175.894 1.51508 0.433938 0
M  V30 1726 C 177.171 1.54888 1.19453 0
M  V30 1727 C 177.551 0.315154 2.08734 0
M  V30 1728 O 176.899 -0.699558 2.17528 0
M  V30 1729 C 177.109 2.86467 1.99342 0
M  V30 1730 C 178.457 3.38545 2.56267 0
M  V30 1731 O 179.481 2.88041 2.0955 0
M  V30 1732 O 178.34 4.26675 3.41483 0
M  V30 1733 H 175.434 0.622863 0.544032 0
M  V30 1734 H 177.98 1.63823 0.442732 0
M  V30 1735 H 176.752 3.67718 1.33788 0
M  V30 1736 H 176.375 2.8071 2.8158 0
M  V30 1737 N 177.372 -0.689602 1.41712 0
M  V30 1738 C 178.304 -1.815 1.39966 0
M  V30 1739 C 179.317 -1.59995 0.300917 0
M  V30 1740 O 180.506 -1.69387 0.563039 0
M  V30 1741 C 177.606 -3.18364 1.16179 0
M  V30 1742 C 176.779 -3.66847 2.38206 0
M  V30 1743 C 175.838 -4.82398 2.10186 0
M  V30 1744 O 174.864 -4.93706 2.83272 0
M  V30 1745 N 176.066 -5.70064 1.0958 0
M  V30 1746 H 178.831 -1.83488 2.36965 0
M  V30 1747 H 176.392 -0.872149 1.36401 0
M  V30 1748 H 178.384 -3.93301 0.953756 0
M  V30 1749 H 176.954 -3.11365 0.27756 0
M  V30 1750 H 176.174 -2.82751 2.74673 0
M  V30 1751 H 177.462 -3.95978 3.19498 0
M  V30 1752 H 176.86 -5.63565 0.491019 0
M  V30 1753 H 175.417 -6.44874 0.947656 0
M  V30 1754 N 178.85 -1.27639 -0.924453 0
M  V30 1755 C 179.798 -1.10485 -2.04685 0
M  V30 1756 C 180.792 -0.0270421 -1.69378 0
M  V30 1757 O 181.998 -0.185008 -1.79047 0
M  V30 1758 H 178.373 -0.340546 -0.670472 0
M  V30 1759 H 180.344 -2.05566 -2.16298 0
M  V30 1760 C 179.093 -0.772229 -3.39016 0
M  V30 1761 H 178.416 -1.59351 -3.66671 0
M  V30 1762 H 179.856 -0.692097 -4.18313 0
M  V30 1763 C 178.315 0.523554 -3.32807 0
M  V30 1764 O 178.845 1.55702 -3.70297 0
M  V30 1765 N 177.051 0.520363 -2.85903 0
M  V30 1766 H 176.598 -0.32107 -2.55591 0
M  V30 1767 H 176.556 1.38742 -2.82131 0
M  V30 1768 N 180.328 1.1314 -1.09713 0
M  V30 1769 C 181.556 1.88321 -0.856898 0
M  V30 1770 C 181.971 1.79276 0.592073 0
M  V30 1771 O 181.328 1.16142 1.40774 0
M  V30 1772 C 181.379 3.37812 -1.28706 0
M  V30 1773 O 181.1 3.46627 -2.67921 0
M  V30 1774 C 182.601 4.29952 -1.07964 0
M  V30 1775 H 179.821 0.596094 -0.308079 0
M  V30 1776 H 182.365 1.43205 -1.45988 0
M  V30 1777 H 180.52 3.805 -0.727912 0
M  V30 1778 H 180.934 4.39579 -2.8613 0
M  V30 1779 H 182.408 5.33159 -1.42986 0
M  V30 1780 H 182.885 4.39196 -0.0176577 0
M  V30 1781 H 183.491 3.93036 -1.62489 0
M  V30 1782 N 181.806 0.884767 1.30421 0
M  V30 1783 C 183.036 0.517293 2.00019 0
M  V30 1784 C 183.444 -0.898632 1.66497 0
M  V30 1785 O 182.787 -1.60245 0.898181 0
M  V30 1786 C 182.849 0.612025 3.54252 0
M  V30 1787 C 182.513 1.99222 4.1129 0
M  V30 1788 C 183.51 2.9616 4.273 0
M  V30 1789 C 181.195 2.29755 4.46674 0
M  V30 1790 C 183.189 4.21764 4.77906 0
M  V30 1791 C 180.876 3.55606 4.96979 0
M  V30 1792 C 181.874 4.51425 5.12547 0
M  V30 1793 O 181.562 5.75043 5.61766 0
M  V30 1794 H 181.294 0.198529 0.64619 0
M  V30 1795 H 183.848 1.1919 1.67281 0
M  V30 1796 H 182.078 -0.119561 3.86515 0
M  V30 1797 H 183.767 0.255859 4.05093 0
M  V30 1798 H 184.533 2.73882 4.00267 0
M  V30 1799 H 180.412 1.55942 4.33824 0
M  V30 1800 H 183.956 4.96561 4.89972 0
M  V30 1801 H 179.853 3.7772 5.23448 0
M  V30 1802 H 180.621 5.77422 5.80109 0
M  V30 1803 N 183.284 -1.43765 0.645699 0
M  V30 1804 C 184.214 -2.33471 -0.0370477 0
M  V30 1805 C 185.195 -1.49042 -0.819779 0
M  V30 1806 O 186.38 -1.77726 -0.782758 0
M  V30 1807 C 183.51 -3.32311 -1.0093 0
M  V30 1808 C 182.464 -4.2667 -0.337201 0
M  V30 1809 C 181.79 -5.1549 -1.42037 0
M  V30 1810 C 183.09 -5.16657 0.765706 0
M  V30 1811 H 184.784 -2.90809 0.712069 0
M  V30 1812 H 182.33 -1.39834 0.343876 0
M  V30 1813 H 184.283 -3.9396 -1.49578 0
M  V30 1814 H 183.007 -2.73213 -1.78948 0
M  V30 1815 H 181.666 -3.66374 0.128771 0
M  V30 1816 H 181.314 -4.52735 -2.1918 0
M  V30 1817 H 181.014 -5.79438 -0.975966 0
M  V30 1818 H 182.538 -5.80012 -1.90838 0
M  V30 1819 H 183.952 -5.72158 0.361702 0
M  V30 1820 H 182.349 -5.89286 1.13413 0
M  V30 1821 H 183.419 -4.56796 1.62683 0
M  V30 1822 N 184.763 -0.387143 -1.52771 0
M  V30 1823 C 185.988 0.198407 -2.06449 0
M  V30 1824 C 186.413 1.39918 -1.25716 0
M  V30 1825 O 185.771 1.79099 -0.281657 0
M  V30 1826 C 185.819 0.548893 -3.56398 0
M  V30 1827 O 184.923 1.64315 -3.78252 0
M  V30 1828 H 184.264 0.0237731 -0.663574 0
M  V30 1829 H 186.794 -0.553989 -1.96957 0
M  V30 1830 H 186.804 0.813812 -3.99801 0
M  V30 1831 H 185.479 -0.329005 -4.14597 0
M  V30 1832 H 184.056 1.37211 -3.46738 0
M  V30 1833 N 186.241 1.57166 -0.116904 0
M  V30 1834 C 187.489 1.94737 0.540533 0
M  V30 1835 C 187.81 1.00096 1.67349 0
M  V30 1836 O 187.08 0.0568854 1.95817 0
M  V30 1837 H 185.66 0.718981 0.202669 0
M  V30 1838 H 188.322 1.94017 -0.185353 0
M  V30 1839 H 187.418 2.97719 0.936483 0
M  V30 1840 N 187.719 -0.156864 1.56817 0
M  V30 1841 C 188.649 -1.19589 2.00551 0
M  V30 1842 C 189.63 -1.4536 0.883426 0
M  V30 1843 O 190.815 -1.56449 1.15054 0
M  V30 1844 C 187.945 -2.53143 2.37773 0
M  V30 1845 C 186.899 -2.41913 3.53075 0
M  V30 1846 C 186.225 -3.80088 3.76081 0
M  V30 1847 C 187.525 -1.91157 4.86062 0
M  V30 1848 H 189.219 -0.832293 2.87599 0
M  V30 1849 H 186.765 -0.398918 1.38364 0
M  V30 1850 H 188.718 -3.26047 2.66967 0
M  V30 1851 H 187.442 -2.91319 1.4765 0
M  V30 1852 H 186.101 -1.71462 3.24031 0
M  V30 1853 H 185.749 -4.15683 2.83225 0
M  V30 1854 H 185.449 -3.73439 4.53671 0
M  V30 1855 H 186.973 -4.54556 4.0769 0
M  V30 1856 H 188.387 -2.53846 5.14038 0
M  V30 1857 H 186.784 -1.95422 5.67389 0
M  V30 1858 H 187.854 -0.866673 4.77092 0
M  V30 1859 N 189.197 -1.51736 -0.425897 0
M  V30 1860 C 190.437 -1.66636 -1.18371 0
M  V30 1861 C 190.801 -0.379854 -1.88205 0
M  V30 1862 O 192.002 -0.404758 -2.65735 0
M  V30 1863 C 190.273 -2.84382 -2.16476 0
M  V30 1864 S 191.832 -3.19673 -3.0059 0
M  V30 1865 H 188.65 -0.586957 -0.40125 0
M  V30 1866 H 191.252 -1.89679 -0.473518 0
M  V30 1867 H 189.956 -3.76281 -1.63831 0
M  V30 1868 H 189.487 -2.63562 -2.92059 0
M  V30 1869 H 191.502 -2.66994 -4.18245 0
M  V30 1870 N 190.675 0.682077 -1.42076 0
M  V30 1871 C 191.905 1.46844 -1.45329 0
M  V30 1872 C 192.313 1.89102 -0.0609328 0
M  V30 1873 O 191.656 1.58238 0.933082 0
M  V30 1874 C 191.718 2.75375 -2.31104 0
M  V30 1875 C 191.382 2.55238 -3.79081 0
M  V30 1876 C 192.379 2.20309 -4.70914 0
M  V30 1877 C 190.064 2.70459 -4.2327 0
M  V30 1878 C 192.058 2.00859 -6.04925 0
M  V30 1879 C 189.745 2.50624 -5.57343 0
M  V30 1880 C 190.743 2.15876 -6.47986 0
M  V30 1881 O 190.431 1.96227 -7.79583 0
M  V30 1882 H 190.163 0.4586 -0.496651 0
M  V30 1883 H 192.717 0.846131 -1.87162 0
M  V30 1884 H 190.947 3.40061 -1.84107 0
M  V30 1885 H 192.636 3.37231 -2.25898 0
M  V30 1886 H 193.402 2.08153 -4.38061 0
M  V30 1887 H 189.281 2.96485 -3.53012 0
M  V30 1888 H 192.825 1.7366 -6.75639 0
M  V30 1889 H 188.722 2.62375 -5.89771 0
M  V30 1890 H 189.49 2.10883 -7.90867 0
M  V30 1891 N 192.153 1.28127 0.917671 0
M  V30 1892 C 193.083 1.14248 2.03641 0
M  V30 1893 C 194.064 0.0412748 1.7005 0
M  V30 1894 O 195.249 0.217566 1.92977 0
M  V30 1895 C 192.379 0.799431 3.37974 0
M  V30 1896 C 191.333 1.85497 3.85713 0
M  V30 1897 C 190.659 1.36565 5.16966 0
M  V30 1898 C 191.959 3.26085 4.08002 0
M  V30 1899 H 193.653 2.07835 2.15511 0
M  V30 1900 H 191.199 1.00064 1.03553 0
M  V30 1901 H 193.152 0.689114 4.15727 0
M  V30 1902 H 191.876 -0.172145 3.26146 0
M  V30 1903 H 190.535 1.95437 3.10161 0
M  V30 1904 H 190.183 0.383253 5.01538 0
M  V30 1905 H 189.883 2.07143 5.49878 0
M  V30 1906 H 191.407 1.26848 5.97279 0
M  V30 1907 H 192.821 3.19089 4.76293 0
M  V30 1908 H 191.218 3.94462 4.52238 0
M  V30 1909 H 192.288 3.70394 3.12948 0
M  V30 1910 N 193.631 -1.12557 1.10312 0
M  V30 1911 C 194.878 -1.84038 0.844759 0
M  V30 1912 C 195.206 -1.84026 -0.629668 0
M  V30 1913 O 194.461 -1.28026 -1.48013 0
M  V30 1914 C 194.76 -3.31462 1.33669 0
M  V30 1915 C 194.426 -3.51647 2.82232 0
M  V30 1916 C 193.088 -3.56864 3.22802 0
M  V30 1917 C 195.44 -3.58867 3.77974 0
M  V30 1918 C 192.768 -3.66844 4.57867 0
M  V30 1919 C 195.12 -3.70375 5.1284 0
M  V30 1920 C 193.784 -3.73848 5.52986 0
M  V30 1921 H 193.054 -0.673444 0.309119 0
M  V30 1922 H 195.701 -1.32824 1.37949 0
M  V30 1923 H 194.006 -3.85091 0.721949 0
M  V30 1924 H 195.703 -3.85236 1.11329 0
M  V30 1925 H 192.293 -3.48249 2.49842 0
M  V30 1926 H 196.477 -3.54107 3.47738 0
M  V30 1927 H 191.733 -3.67804 4.88396 0
M  V30 1928 H 195.907 -3.74904 5.86873 0
M  V30 1929 H 193.534 -3.81333 6.57639 0
M  V30 1930 N 195.109 -0.891671 -1.2995 0
M  V30 1931 C 196.525 -0.58662 -1.48428 0
M  V30 1932 C 196.725 0.873951 -1.81561 0
M  V30 1933 O 195.781 1.65471 -1.90724 0
M  V30 1934 C 197.094 -1.50553 -2.60296 0
M  V30 1935 C 198.642 -1.50988 -2.74175 0
M  V30 1936 C 199.117 -2.41488 -3.89163 0
M  V30 1937 N 200.608 -2.39489 -3.96483 0
M  V30 1938 C 201.343 -3.06223 -4.84784 0
M  V30 1939 N 200.839 -3.82206 -5.77833 0
M  V30 1940 N 202.632 -2.95421 -4.78208 0
M  V30 1941 H 194.783 -1.83644 -1.06718 0
M  V30 1942 H 197.046 -0.786455 -0.529332 0
M  V30 1943 H 196.752 -2.54581 -2.42654 0
M  V30 1944 H 196.626 -1.22008 -3.56923 0
M  V30 1945 H 199.013 -0.47708 -2.91218 0
M  V30 1946 H 199.094 -1.83567 -1.78148 0
M  V30 1947 H 198.738 -3.44857 -3.72876 0
M  V30 1948 H 198.668 -2.06222 -4.84541 0
M  V30 1949 H 201.159 -1.84278 -3.29924 0
M  V30 1950 H 201.472 -4.302 -6.41988 0
M  V30 1951 H 199.817 -3.86313 -5.77743 0
M  V30 1952 H 203.008 -2.35581 -4.04499 0
M  V30 1953 H 203.181 -3.47704 -5.46814 0
M  V30 1954 N 196.587 1.43421 -0.653314 0
M  V30 1955 C 197.519 2.29071 0.0769134 0
M  V30 1956 C 198.532 1.42513 0.787017 0
M  V30 1957 O 199.721 1.66449 0.644757 0
M  V30 1958 C 196.821 3.19436 1.13199 0
M  V30 1959 C 195.994 4.34533 0.500006 0
M  V30 1960 C 195.053 5.05771 1.45198 0
M  V30 1961 O 194.079 5.61037 0.960538 0
M  V30 1962 N 195.281 5.0928 2.78594 0
M  V30 1963 H 198.046 2.92382 -0.658235 0
M  V30 1964 H 195.607 1.54112 -0.496104 0
M  V30 1965 H 197.599 3.63958 1.76964 0
M  V30 1966 H 196.169 2.57724 1.7691 0
M  V30 1967 H 195.389 3.92925 -0.316738 0
M  V30 1968 H 196.677 5.08766 0.0588345 0
M  V30 1969 H 196.075 4.65751 3.2108 0
M  V30 1970 H 194.632 5.57519 3.37662 0
M  V30 1971 N 198.065 0.39524 1.52563 0
M  V30 1972 C 199.013 -0.451859 2.28169 0
M  V30 1973 C 200.007 -1.05792 1.32304 0
M  V30 1974 O 201.213 -0.997718 1.49818 0
M  V30 1975 H 197.588 -0.164481 0.733792 0
M  V30 1976 H 199.559 0.207199 2.9768 0
M  V30 1977 C 198.308 -1.56385 3.10546 0
M  V30 1978 H 197.631 -1.10682 3.84174 0
M  V30 1979 H 199.071 -2.13067 3.66577 0
M  V30 1980 C 197.53 -2.52328 2.23231 0
M  V30 1981 O 198.06 -3.5588 1.86312 0
M  V30 1982 N 196.266 -2.22209 1.87274 0
M  V30 1983 H 195.813 -1.38033 2.17496 0
M  V30 1984 H 195.771 -2.86652 1.29143 0
M  V30 1985 N 199.544 -1.57102 0.125237 0
M  V30 1986 C 200.474 -2.18659 -0.819174 0
M  V30 1987 C 201.455 -1.12843 -1.27281 0
M  V30 1988 O 202.64 -1.41104 -1.33429 0
M  V30 1989 C 199.77 -2.79096 -2.06695 0
M  V30 1990 C 198.724 -3.90548 -1.75088 0
M  V30 1991 C 198.05 -4.37821 -3.06948 0
M  V30 1992 C 199.35 -5.12356 -1.01435 0
M  V30 1993 H 201.044 -2.9783 -0.306202 0
M  V30 1994 H 198.59 -1.4326 -0.145839 0
M  V30 1995 H 200.543 -3.2082 -2.73226 0
M  V30 1996 H 199.267 -1.97223 -2.60328 0
M  V30 1997 H 197.926 -3.49409 -1.10944 0
M  V30 1998 H 197.574 -3.52799 -3.58527 0
M  V30 1999 H 197.274 -5.12982 -2.86571 0
M  V30 2000 H 198.798 -4.822 -3.74587 0
M  V30 2001 H 200.212 -5.5106 -1.58132 0
M  V30 2002 H 198.609 -5.9314 -0.911319 0
M  V30 2003 H 199.679 -4.849 -0.00218681 0
M  V30 2004 N 201.022 0.148545 -1.56898 0
M  V30 2005 C 201.954 1.20852 -1.9475 0
M  V30 2006 C 202.967 1.39265 -0.843152 0
M  V30 2007 O 204.156 1.38864 -1.12156 0
M  V30 2008 C 201.256 2.57362 -2.20495 0
M  V30 2009 C 200.429 2.59947 -3.51776 0
M  V30 2010 C 199.488 3.77984 -3.6608 0
M  V30 2011 O 198.514 3.62929 -4.38487 0
M  V30 2012 N 199.716 4.95375 -3.02629 0
M  V30 2013 H 202.481 0.886804 -2.86279 0
M  V30 2014 H 200.042 0.338121 -1.5833 0
M  V30 2015 H 202.034 3.34833 -2.27307 0
M  V30 2016 H 200.604 2.81832 -1.35238 0
M  V30 2017 H 199.824 1.68403 -3.56419 0
M  V30 2018 H 201.112 2.58704 -4.38121 0
M  V30 2019 H 200.51 5.10509 -2.43715 0
M  V30 2020 H 199.067 5.70627 -3.15004 0
M  V30 2021 N 202.5 1.5196 0.417844 0
M  V30 2022 C 203.748 1.65263 1.16329 0
M  V30 2023 C 204.069 0.380634 1.91249 0
M  V30 2024 O 203.339 -0.604214 1.86349 0
M  V30 2025 H 201.919 0.60912 0.432414 0
M  V30 2026 H 204.581 1.88969 0.477162 0
M  V30 2027 H 203.677 2.4896 1.88217 0
M  V30 2028 N 203.978 -0.674533 1.42435 0
M  V30 2029 C 205.389 -1.25514 1.38214 0
M  V30 2030 C 205.74 -1.96055 0.0755464 0
M  V30 2031 O 204.865 -2.00028 -0.8257 0
M  V30 2032 C 205.46 -2.28269 2.50357 0
M  V30 2033 C 204.019 -2.81856 2.49467 0
M  V30 2034 C 203.166 -1.56182 2.29134 0
M  V30 2035 H 206.117 -0.467902 1.51646 0
M  V30 2036 H 206.138 -3.10009 2.20624 0
M  V30 2037 H 205.65 -1.769 3.45439 0
M  V30 2038 H 203.751 -3.37346 1.58204 0
M  V30 2039 H 203.864 -3.30854 3.46515 0
M  V30 2040 H 202.228 -1.82761 1.774 0
M  V30 2041 H 203.011 -1.06778 3.26272 0
M  V30 2042 N 205.456 -1.28612 -0.910864 0
M  V30 2043 C 206.389 -1.07109 -2.01502 0
M  V30 2044 C 207.367 0.013706 -1.62594 0
M  V30 2045 O 208.551 -0.134796 -1.88017 0
M  V30 2046 C 205.678 -0.628255 -3.32822 0
M  V30 2047 C 204.724 -1.71012 -3.90714 0
M  V30 2048 S 205.557 -3.30676 -4.21205 0
M  V30 2049 C 206.713 -2.88234 -5.55583 0
M  V30 2050 H 206.946 -2.00591 -2.19432 0
M  V30 2051 H 204.479 -1.12633 -1.05609 0
M  V30 2052 H 206.437 -0.37946 -4.08742 0
M  V30 2053 H 205.098 0.28678 -3.12788 0
M  V30 2054 H 204.291 -1.35195 -4.85529 0
M  V30 2055 H 203.893 -1.91186 -3.21441 0
M  V30 2056 H 206.185 -2.34584 -6.35591 0
M  V30 2057 H 207.128 -3.81857 -5.96314 0
M  V30 2058 H 207.536 -2.26862 -5.16908 0
M  V30 2059 N 206.934 1.1197 -1.10907 0
M  V30 2060 C 207.864 2.19928 -0.784473 0
M  V30 2061 C 208.845 1.6833 0.244726 0
M  V30 2062 O 210.03 1.93892 0.109418 0
M  V30 2063 C 207.16 3.46597 -0.220827 0
M  V30 2064 C 206.114 4.11376 -1.18127 0
M  V30 2065 C 205.44 5.32554 -0.478594 0
M  V30 2066 C 206.74 4.56945 -2.52979 0
M  V30 2067 H 208.434 2.47337 -1.68715 0
M  V30 2068 H 205.98 1.18879 -0.812642 0
M  V30 2069 H 207.933 4.21396 0.0184278 0
M  V30 2070 H 206.657 3.1863 0.717113 0
M  V30 2071 H 205.316 3.38564 -1.40606 0
M  V30 2072 H 204.964 5.00856 0.463976 0
M  V30 2073 H 204.664 5.76844 -1.11912 0
M  V30 2074 H 206.188 6.10096 -0.248 0
M  V30 2075 H 207.602 5.23093 -2.3462 0
M  V30 2076 H 205.999 5.1203 -3.12962 0
M  V30 2077 H 207.069 3.70676 -3.12614 0
M  V30 2078 N 208.412 0.89855 1.29475 0
M  V30 2079 C 209.344 0.332726 2.26772 0
M  V30 2080 C 210.357 -0.520323 1.54261 0
M  V30 2081 O 211.546 -0.337668 1.75277 0
M  V30 2082 C 208.646 -0.544334 3.345 0
M  V30 2083 C 207.819 0.282728 4.36485 0
M  V30 2084 C 206.878 -0.526982 5.23555 0
M  V30 2085 O 205.904 0.0551165 5.69173 0
M  V30 2086 N 207.106 -1.83331 5.5079 0
M  V30 2087 H 209.871 1.16897 2.75962 0
M  V30 2088 H 207.432 0.762919 1.42798 0
M  V30 2089 H 209.424 -1.09239 3.89678 0
M  V30 2090 H 207.994 -1.28127 2.85136 0
M  V30 2091 H 207.214 1.01221 3.80983 0
M  V30 2092 H 208.502 0.84918 5.01664 0
M  V30 2093 H 207.9 -2.32898 5.15534 0
M  V30 2094 H 206.457 -2.32852 6.08788 0
M  V30 2095 N 209.89 -1.43072 0.660911 0
M  V30 2096 C 211.138 -2.01323 0.177094 0
M  V30 2097 C 211.459 -1.5245 -1.2159 0
M  V30 2098 O 210.729 -0.740322 -1.81373 0
M  V30 2099 H 209.309 -0.744382 0.0624804 0
M  V30 2100 H 211.971 -1.75179 0.854305 0
M  V30 2101 H 211.067 -3.11649 0.167641 0
M  V30 2102 N 211.368 -0.403325 -1.52352 0
M  V30 2103 C 212.784 -0.0539281 -1.59509 0
M  V30 2104 C 212.984 1.43307 -1.41652 0
M  V30 2105 O 212.04 2.19924 -1.24056 0
M  V30 2106 C 213.353 -0.543654 -2.95745 0
M  V30 2107 C 214.901 -0.501125 -3.08962 0
M  V30 2108 C 215.376 -0.967267 -4.47669 0
M  V30 2109 N 216.867 -0.923849 -4.53893 0
M  V30 2110 C 217.602 -1.25578 -5.5948 0
M  V30 2111 N 217.098 -1.65889 -6.72646 0
M  V30 2112 N 218.891 -1.17613 -5.49658 0
M  V30 2113 H 211.042 -1.37123 -1.62206 0
M  V30 2114 H 213.305 -0.56294 -0.76276 0
M  V30 2115 H 213.011 -1.58275 -3.14073 0
M  V30 2116 H 212.885 0.0498042 -3.77167 0
M  V30 2117 H 215.272 0.528909 -2.90321 0
M  V30 2118 H 215.353 -1.13056 -2.2946 0
M  V30 2119 H 214.997 -1.9956 -4.67053 0
M  V30 2120 H 214.927 -0.314698 -5.25659 0
M  V30 2121 H 217.418 -0.627403 -3.72655 0
M  V30 2122 H 217.731 -1.89543 -7.49195 0
M  V30 2123 H 216.076 -1.69787 -6.73942 0
M  V30 2124 H 219.267 -0.860115 -4.6013 0
M  V30 2125 H 219.44 -1.43812 -6.3184 0
M  V30 2126 N 212.846 1.57033 -0.133567 0
M  V30 2127 C 214.257 1.82593 0.389464 0
M  V30 2128 C 214.608 1.05156 1.6564 0
M  V30 2129 O 213.733 0.292644 2.14412 0
M  V30 2130 C 214.328 3.31204 0.713377 0
M  V30 2131 C 212.887 3.57393 1.18098 0
M  V30 2132 C 212.034 2.76598 0.197126 0
M  V30 2133 H 214.985 1.54598 -0.358481 0
M  V30 2134 H 215.006 3.46627 1.56939 0
M  V30 2135 H 214.518 3.87537 -0.2089 0
M  V30 2136 H 212.619 3.06433 2.11966 0
M  V30 2137 H 212.732 4.65915 1.11624 0
M  V30 2138 H 211.096 2.45257 0.687088 0
M  V30 2139 H 211.879 3.35697 -0.718504 0
M  V30 2140 N 214.325 -0.140222 1.56975 0
M  V30 2141 C 215.573 -0.850005 1.83356 0
M  V30 2142 C 215.894 -1.81399 0.71551 0
M  V30 2143 O 215.164 -1.94136 -0.262294 0
M  V30 2144 H 213.744 -0.316886 0.676456 0
M  V30 2145 H 216.406 -0.132608 1.94448 0
M  V30 2146 H 215.502 -1.40814 2.78528 0
M  V30 2147 N 215.803 -1.52179 -0.40978 0
M  V30 2148 C 217.05 -1.66206 -1.15679 0
M  V30 2149 C 217.378 -0.391674 -1.90516 0
M  V30 2150 O 216.633 0.62533 -1.8544 0
M  V30 2151 C 216.932 -2.83428 -2.17723 0
M  V30 2152 C 216.598 -4.21672 -1.59699 0
M  V30 2153 C 215.26 -4.59274 -1.43599 0
M  V30 2154 C 217.612 -5.07825 -1.17317 0
M  V30 2155 C 214.94 -5.80709 -0.836328 0
M  V30 2156 C 217.292 -6.29864 -0.587691 0
M  V30 2157 C 215.956 -6.66216 -0.413818 0
M  V30 2158 H 215.226 -0.608192 -0.423301 0
M  V30 2159 H 217.873 -1.86279 -0.444097 0
M  V30 2160 H 216.178 -2.57687 -2.95135 0
M  V30 2161 H 217.875 -2.91477 -2.75394 0
M  V30 2162 H 214.465 -3.9204 -1.73213 0
M  V30 2163 H 218.649 -4.79359 -1.28565 0
M  V30 2164 H 213.905 -6.07498 -0.689626 0
M  V30 2165 H 218.079 -6.95948 -0.250894 0
M  V30 2166 H 215.706 -7.60182 0.0529471 0
M  V30 2167 N 217.281 0.66697 -1.42791 0
M  V30 2168 C 218.213 1.7925 -1.42836 0
M  V30 2169 C 219.226 1.59496 -0.326333 0
M  V30 2170 O 220.415 1.6847 -0.589916 0
M  V30 2171 C 217.515 3.16476 -1.21229 0
M  V30 2172 C 216.688 3.63011 -2.44013 0
M  V30 2173 C 215.747 4.78993 -2.17834 0
M  V30 2174 O 214.773 4.89137 -2.91091 0
M  V30 2175 N 215.975 5.68248 -1.18635 0
M  V30 2176 H 218.74 1.79695 -2.39854 0
M  V30 2177 H 216.301 0.850338 -1.37771 0
M  V30 2178 H 218.293 3.91734 -1.01621 0
M  V30 2179 H 216.863 3.10884 -0.32706 0
M  V30 2180 H 216.083 2.78346 -2.79137 0
M  V30 2181 H 217.371 3.90845 -3.25757 0
M  V30 2182 H 216.769 5.62712 -0.580615 0
M  V30 2183 H 215.326 6.43285 -1.05013 0
M  V30 2184 N 218.759 1.29093 0.90403 0
M  V30 2185 C 219.669 1.15727 2.0407 0
M  V30 2186 C 220.685 0.0815308 1.73809 0
M  V30 2187 O 221.861 0.292749 1.99261 0
M  V30 2188 C 218.926 0.830424 3.36608 0
M  V30 2189 C 217.987 1.98955 3.80415 0
M  V30 2190 C 217.22 1.6782 5.06628 0
M  V30 2191 O 217.443 0.597105 5.67266 0
M  V30 2192 O 216.377 2.52486 5.46383 0
M  V30 2193 H 220.203 2.11171 2.18267 0
M  V30 2194 H 217.788 1.08504 1.027 0
M  V30 2195 H 219.67 0.662521 4.16159 0
M  V30 2196 H 218.345 -0.0942678 3.23563 0
M  V30 2197 H 217.252 2.21267 3.01648 0
M  V30 2198 H 218.585 2.89529 3.98037 0
M  V30 2199 N 220.237 -1.11381 1.11499 0
M  V30 2200 C 221.477 -1.84763 0.874188 0
M  V30 2201 C 221.841 -1.82726 -0.589496 0
M  V30 2202 O 223.042 -2.51562 -0.947089 0
M  V30 2203 C 221.313 -3.27931 1.42112 0
M  V30 2204 S 222.872 -4.18557 1.31739 0
M  V30 2205 H 219.69 -0.637115 0.315603 0
M  V30 2206 H 222.292 -1.34097 1.42261 0
M  V30 2207 H 220.996 -3.26978 2.48019 0
M  V30 2208 H 220.527 -3.83665 0.869761 0
M  V30 2209 H 222.542 -4.95396 0.282335 0
M  V30 2210 N 221.715 -0.905404 -1.28997 0
M  V30 2211 C 222.964 -0.530191 -1.94607 0
M  V30 2212 C 223.277 0.929185 -1.72121 0
M  V30 2213 O 224.483 1.41218 -2.31883 0
M  V30 2214 C 222.939 -0.897333 -3.48534 0
M  V30 2215 C 222.547 -2.37587 -3.79811 0
M  V30 2216 C 224.291 -0.592304 -4.20347 0
M  V30 2217 C 222.198 -2.68357 -5.27009 0
M  V30 2218 H 221.128 -0.194558 -0.728466 0
M  V30 2219 H 223.779 -1.10318 -1.46636 0
M  V30 2220 H 222.161 -0.253214 -3.9519 0
M  V30 2221 H 223.335 -3.06602 -3.43994 0
M  V30 2222 H 221.65 -2.6505 -3.2115 0
M  V30 2223 H 224.247 -0.798975 -5.28697 0
M  V30 2224 H 224.59 0.469474 -4.13644 0
M  V30 2225 H 225.123 -1.19452 -3.79442 0
M  V30 2226 H 221.862 -3.73355 -5.38782 0
M  V30 2227 H 221.382 -2.03971 -5.64053 0
M  V30 2228 H 223.061 -2.54922 -5.94663 0
M  V30 2229 N 223.193 1.4272 -0.668489 0
M  V30 2230 C 224.14 2.30796 0.0137489 0
M  V30 2231 C 225.11 1.4561 0.799177 0
M  V30 2232 O 226.295 1.74453 0.772702 0
M  V30 2233 C 223.435 3.31377 0.963507 0
M  V30 2234 C 222.548 4.31655 0.172569 0
M  V30 2235 C 221.683 5.19312 1.1175 0
M  V30 2236 C 220.722 6.11274 0.317886 0
M  V30 2237 N 219.859 6.91504 1.2152 0
M  V30 2238 H 224.699 2.88585 -0.743161 0
M  V30 2239 H 222.236 1.42154 -0.378226 0
M  V30 2240 H 224.194 3.88214 1.52792 0
M  V30 2241 H 222.824 2.75202 1.68712 0
M  V30 2242 H 221.876 3.76988 -0.508374 0
M  V30 2243 H 223.188 4.96779 -0.448527 0
M  V30 2244 H 222.342 5.80851 1.75206 0
M  V30 2245 H 221.081 4.5435 1.77249 0
M  V30 2246 H 220.086 5.48809 -0.329918 0
M  V30 2247 H 221.311 6.78283 -0.332917 0
M  V30 2248 H 219.257 6.29176 1.85671 0
M  V30 2249 H 219.174 7.53209 0.649036 0
M  V30 2250 H 220.442 7.57535 1.83742 0
M  V30 2251 N 224.671 0.411399 1.52136 0
M  V30 2252 C 225.919 -0.163322 2.01439 0
M  V30 2253 C 226.24 -1.45453 1.29879 0
M  V30 2254 O 225.51 -1.91225 0.4254 0
M  V30 2255 H 224.09 -0.0633447 0.744309 0
M  V30 2256 H 226.752 0.548161 1.87033 0
M  V30 2257 H 225.848 -0.357817 3.10042 0
M  V30 2258 N 226.149 -1.5696 0.141893 0
M  V30 2259 C 227.097 -2.17784 -0.816874 0
M  V30 2260 C 228.091 -1.1334 -1.25899 0
M  V30 2261 O 229.297 -1.316 -1.22806 0
M  V30 2262 H 225.672 -0.697278 -0.281615 0
M  V30 2263 H 227.643 -2.97087 -0.279621 0
M  V30 2264 C 226.392 -2.80983 -2.04802 0
M  V30 2265 H 225.715 -3.61062 -1.7168 0
M  V30 2266 H 227.155 -3.2705 -2.69841 0
M  V30 2267 C 225.614 -1.79228 -2.8527 0
M  V30 2268 O 226.144 -1.25962 -3.8144 0
M  V30 2269 N 224.35 -1.48647 -2.49704 0
M  V30 2270 H 223.897 -1.92155 -1.71564 0
M  V30 2271 H 223.855 -0.808115 -3.03837 0
M  V30 2272 N 227.627 0.131896 -1.57047 0
M  V30 2273 C 228.873 0.843179 -1.84441 0
M  V30 2274 C 229.206 1.80129 -0.725749 0
M  V30 2275 O 228.481 1.92624 0.269469 0
M  V30 2276 C 228.764 1.60442 -3.22382 0
M  V30 2277 C 228.617 0.666782 -4.4483 0
M  V30 2278 C 229.936 2.56354 -3.5773 0
M  V30 2279 H 227.055 0.305081 -0.670891 0
M  V30 2280 H 229.697 0.107839 -1.89694 0
M  V30 2281 H 227.847 2.23128 -3.18035 0
M  V30 2282 H 229.519 0.0497646 -4.61273 0
M  V30 2283 H 227.762 -0.022609 -4.33794 0
M  V30 2284 H 228.433 1.23579 -5.37989 0
M  V30 2285 H 230.909 2.0378 -3.62785 0
M  V30 2286 H 229.785 3.06657 -4.5525 0
M  V30 2287 H 230.046 3.38419 -2.84473 0
M  V30 2288 N 229.106 1.52395 0.401703 0
M  V30 2289 C 230.383 1.57387 1.16141 0
M  V30 2290 C 230.763 0.359359 2.08019 0
M  V30 2291 O 230.111 -0.65326 2.18963 0
M  V30 2292 C 230.321 2.90631 1.93221 0
M  V30 2293 C 231.669 3.43904 2.49028 0
M  V30 2294 O 232.693 2.92421 2.03393 0
M  V30 2295 O 231.552 4.33823 3.32356 0
M  V30 2296 H 228.646 0.634262 0.530698 0
M  V30 2297 H 231.192 1.64725 0.407883 0
M  V30 2298 H 229.964 3.70473 1.25958 0
M  V30 2299 H 229.587 2.8662 2.75563 0
M  V30 2300 N 230.584 -0.659388 1.43143 0
M  V30 2301 C 231.514 -1.78422 1.50625 0
M  V30 2302 C 232.495 -1.66216 0.361443 0
M  V30 2303 O 233.68 -1.85404 0.577834 0
M  V30 2304 C 230.81 -3.16815 1.42287 0
M  V30 2305 C 229.764 -3.43777 2.54954 0
M  V30 2306 C 229.09 -4.81905 2.31671 0
M  V30 2307 C 230.39 -3.39134 3.97222 0
M  V30 2308 H 232.084 -1.72417 2.44771 0
M  V30 2309 H 229.63 -0.828084 1.17808 0
M  V30 2310 H 231.583 -3.95253 1.46127 0
M  V30 2311 H 230.307 -3.23534 0.446435 0
M  V30 2312 H 228.966 -2.67707 2.50457 0
M  V30 2313 H 228.614 -4.85294 1.32284 0
M  V30 2314 H 228.314 -5.00906 3.07192 0
M  V30 2315 H 229.838 -5.62609 2.37284 0
M  V30 2316 H 231.252 -4.07518 4.03239 0
M  V30 2317 H 229.649 -3.69671 4.72719 0
M  V30 2318 H 230.719 -2.37426 4.22797 0
M  V30 2319 N 232.062 -1.29571 -0.897171 0
M  V30 2320 C 233.308 -1.17863 -1.65034 0
M  V30 2321 C 233.641 0.268729 -1.92332 0
M  V30 2322 O 232.916 1.19378 -1.53555 0
M  V30 2323 C 233.199 -1.995 -2.99786 0
M  V30 2324 C 233.052 -3.5239 -2.79538 0
M  V30 2325 C 234.371 -1.82335 -4.00552 0
M  V30 2326 H 231.49 -0.429528 -0.598895 0
M  V30 2327 H 234.132 -1.59072 -1.03905 0
M  V30 2328 H 232.282 -1.64485 -3.51962 0
M  V30 2329 H 233.954 -3.97401 -2.34244 0
M  V30 2330 H 232.197 -3.77187 -2.14273 0
M  V30 2331 H 232.868 -4.04787 -3.75302 0
M  V30 2332 H 235.344 -2.12924 -3.57495 0
M  V30 2333 H 234.22 -2.41801 -4.92771 0
M  V30 2334 H 234.481 -0.779209 -4.35179 0
M  V30 2335 N 233.54 1.10788 -1.12088 0
M  V30 2336 C 234.787 1.82671 -0.873931 0
M  V30 2337 C 235.115 1.85004 0.600311 0
M  V30 2338 O 234.37 1.30365 1.45957 0
M  V30 2339 C 234.669 3.29294 -1.38926 0
M  V30 2340 C 234.335 3.47113 -2.87791 0
M  V30 2341 C 232.997 3.51684 -3.28439 0
M  V30 2342 C 235.349 3.52808 -3.83635 0
M  V30 2343 C 232.677 3.59513 -4.63646 0
M  V30 2344 C 235.029 3.62169 -5.18668 0
M  V30 2345 C 233.693 3.65003 -5.58864 0
M  V30 2346 H 232.963 0.668441 -0.319794 0
M  V30 2347 H 235.61 1.30613 -1.40045 0
M  V30 2348 H 233.915 3.83894 -0.783122 0
M  V30 2349 H 235.612 3.83416 -1.17443 0
M  V30 2350 H 232.202 3.4423 -2.5535 0
M  V30 2351 H 236.386 3.4853 -3.53328 0
M  V30 2352 H 231.642 3.59987 -4.94185 0
M  V30 2353 H 235.816 3.6552 -5.92763 0
M  V30 2354 H 233.443 3.70822 -6.63623 0
M  V30 2355 N 235.018 0.912232 1.28515 0
M  V30 2356 C 235.948 0.416403 2.29757 0
M  V30 2357 C 236.929 -0.515194 1.6211 0
M  V30 2358 O 238.114 -0.423253 1.89532 0
M  V30 2359 C 235.244 -0.34572 3.45575 0
M  V30 2360 C 234.198 0.496599 4.25109 0
M  V30 2361 C 233.524 -0.393771 5.33248 0
M  V30 2362 C 234.824 1.75307 4.92001 0
M  V30 2363 H 236.518 1.26249 2.7148 0
M  V30 2364 H 234.064 0.608515 1.30511 0
M  V30 2365 H 236.017 -0.703422 4.15488 0
M  V30 2366 H 234.741 -1.2257 3.02728 0
M  V30 2367 H 233.4 0.8368 3.56922 0
M  V30 2368 H 233.048 -1.27225 4.86644 0
M  V30 2369 H 232.748 0.166209 5.87365 0
M  V30 2370 H 234.272 -0.747389 6.06009 0
M  V30 2371 H 235.686 1.46437 5.54283 0
M  V30 2372 H 234.083 2.25534 5.56106 0
M  V30 2373 H 235.153 2.48176 4.16577 0
M  V30 2374 N 236.496 -1.42363 0.676048 0
M  V30 2375 C 237.743 -2.01522 0.19883 0
M  V30 2376 C 238.071 -1.53456 -1.19505 0
M  V30 2377 O 237.326 -0.727967 -1.81657 0
M  V30 2378 C 237.625 -3.56929 0.183431 0
M  V30 2379 C 237.291 -4.24431 1.52215 0
M  V30 2380 C 235.953 -4.42585 1.8887 0
M  V30 2381 C 238.305 -4.62459 2.40377 0
M  V30 2382 C 235.633 -4.96039 3.13309 0
M  V30 2383 C 237.985 -5.17294 3.64129 0
M  V30 2384 C 236.649 -5.33661 4.00951 0
M  V30 2385 H 235.919 -0.737419 0.0727571 0
M  V30 2386 H 238.566 -1.70531 0.871281 0
M  V30 2387 H 236.871 -3.87594 -0.572532 0
M  V30 2388 H 238.568 -4.00486 -0.203035 0
M  V30 2389 H 235.158 -4.10661 1.22701 0
M  V30 2390 H 239.342 -4.48105 2.13343 0
M  V30 2391 H 234.598 -5.06896 3.41857 0
M  V30 2392 H 238.772 -5.45704 4.32644 0
M  V30 2393 H 236.399 -5.74845 4.9745 0
M  V30 2394 N 237.974 -0.419461 -1.51915 0
M  V30 2395 C 239.251 0.211999 -1.94448 0
M  V30 2396 C 239.631 1.61703 -1.35703 0
M  V30 2397 O 238.979 2.22102 -0.536931 0
M  V30 2398 C 239.189 0.207872 -3.4838 0
M  V30 2399 C 240.537 0.422192 -4.22496 0
M  V30 2400 O 241.561 0.286778 -3.55044 0
M  V30 2401 O 240.42 0.690009 -5.42126 0
M  V30 2402 H 237.514 0.139586 -0.815135 0
M  V30 2403 H 240.06 -0.476151 -1.62883 0
M  V30 2404 H 238.832 -0.775102 -3.83546 0
M  V30 2405 H 238.455 0.939688 -3.86336 0
M  V30 2406 N 239.452 1.56882 -0.150215 0
M  V30 2407 C 240.7 1.9584 0.499105 0
M  V30 2408 C 241.021 1.03623 1.65188 0
M  V30 2409 O 240.291 0.0984084 1.95653 0
M  V30 2410 H 238.871 0.723119 0.187373 0
M  V30 2411 H 241.533 1.9358 -0.226466 0
M  V30 2412 H 240.629 2.99638 0.873122 0
M  V30 2413 N 240.93 -0.123565 1.57115 0
M  V30 2414 C 242.155 -0.850398 1.89164 0
M  V30 2415 C 242.58 -1.7286 0.741688 0
M  V30 2416 O 241.938 -1.78665 -0.307958 0
M  V30 2417 C 241.986 -1.66353 3.19936 0
M  V30 2418 O 241.09 -2.77004 3.0552 0
M  V30 2419 H 240.431 -0.235454 0.620852 0
M  V30 2420 H 242.961 -0.107335 2.04318 0
M  V30 2421 H 242.971 -2.05372 3.52543 0
M  V30 2422 H 241.646 -1.01881 4.03228 0
M  V30 2423 H 240.223 -2.41221 2.84371 0
M  V30 2424 N 242.408 -1.52605 -0.393616 0
M  V30 2425 C 243.341 -1.71798 -1.50202 0
M  V30 2426 C 244.319 -0.565743 -1.52441 0
M  V30 2427 O 245.503 -0.794987 -1.70916 0
M  V30 2428 C 242.63 -1.7714 -2.88685 0
M  V30 2429 C 241.676 -2.98845 -3.04292 0
M  V30 2430 S 242.509 -4.58909 -2.75976 0
M  V30 2431 C 243.665 -4.6706 -4.1666 0
M  V30 2432 H 243.898 -2.65542 -1.33696 0
M  V30 2433 H 241.431 -1.42839 -0.586195 0
M  V30 2434 H 243.389 -1.80903 -3.68489 0
M  V30 2435 H 242.05 -0.844969 -3.02521 0
M  V30 2436 H 241.243 -2.99111 -4.05646 0
M  V30 2437 H 240.845 -2.9305 -2.32374 0
M  V30 2438 H 243.137 -4.45391 -5.10523 0
M  V30 2439 H 244.08 -5.6905 -4.21412 0
M  V30 2440 H 244.488 -3.95944 -4.02354 0
M  V30 2441 N 243.887 0.651787 -1.4349 0
M  V30 2442 C 245.112 1.44434 -1.48841 0
M  V30 2443 C 245.537 1.8779 -0.107955 0
M  V30 2444 O 244.895 1.57464 0.898602 0
M  V30 2445 C 244.943 2.65458 -2.44059 0
M  V30 2446 O 244.047 3.64566 -1.92784 0
M  V30 2447 H 243.388 0.433005 -0.503391 0
M  V30 2448 H 245.918 0.797451 -1.88419 0
M  V30 2449 H 245.928 3.13255 -2.6141 0
M  V30 2450 H 244.603 2.33244 -3.4434 0
M  V30 2451 H 243.18 3.23716 -1.851 0
M  V30 2452 N 245.365 1.30045 0.890287 0
M  V30 2453 C 246.295 1.18541 2.01172 0
M  V30 2454 C 247.276 0.0773356 1.69924 0
M  V30 2455 O 248.461 0.25845 1.92473 0
M  V30 2456 C 245.591 0.870941 3.36202 0
M  V30 2457 C 244.545 1.93637 3.81692 0
M  V30 2458 C 243.871 1.475 5.13953 0
M  V30 2459 C 245.171 3.34666 4.00994 0
M  V30 2460 H 246.865 2.12359 2.11054 0
M  V30 2461 H 244.411 1.02238 1.01407 0
M  V30 2462 H 246.364 0.777141 4.14172 0
M  V30 2463 H 245.088 -0.102926 3.26438 0
M  V30 2464 H 243.747 2.01972 3.05946 0
M  V30 2465 H 243.395 0.489551 5.00612 0
M  V30 2466 H 243.095 2.1876 5.4536 0
M  V30 2467 H 244.619 1.39489 5.94454 0
M  V30 2468 H 246.033 3.2912 4.69417 0
M  V30 2469 H 244.43 4.03966 4.43769 0
M  V30 2470 H 245.5 3.76949 3.05021 0
M  V30 2471 N 246.843 -1.10192 1.12674 0
M  V30 2472 C 247.775 -2.16418 0.754701 0
M  V30 2473 C 248.788 -1.61309 -0.21986 0
M  V30 2474 O 249.977 -1.785 -0.000826841 0
M  V30 2475 C 247.077 -3.38762 0.096698 0
M  V30 2476 C 246.25 -4.23307 1.10136 0
M  V30 2477 C 245.309 -5.24092 0.470513 0
M  V30 2478 O 244.335 -5.57906 1.12824 0
M  V30 2479 N 245.537 -5.75491 -0.760948 0
M  V30 2480 H 248.302 -2.48943 1.66875 0
M  V30 2481 H 245.863 -1.25834 1.01869 0
M  V30 2482 H 247.855 -4.03291 -0.337384 0
M  V30 2483 H 246.425 -3.04192 -0.720153 0
M  V30 2484 H 245.645 -3.55036 1.71299 0
M  V30 2485 H 246.933 -4.76624 1.78064 0
M  V30 2486 H 246.331 -5.50222 -1.31424 0
M  V30 2487 H 244.888 -6.41792 -1.13781 0
M  V30 2488 N 248.321 -0.919034 -1.28029 0
M  V30 2489 C 249.732 -0.600735 -1.76771 0
M  V30 2490 C 250.083 0.884024 -1.75156 0
M  V30 2491 O 249.208 1.69163 -1.34956 0
M  V30 2492 C 249.803 -1.08372 -3.21 0
M  V30 2493 C 248.362 -0.816248 -3.67443 0
M  V30 2494 C 247.509 -1.24742 -2.47658 0
M  V30 2495 H 250.46 -1.09974 -1.14418 0
M  V30 2496 H 250.481 -0.427512 -3.78091 0
M  V30 2497 H 249.993 -2.16437 -3.22144 0
M  V30 2498 H 248.094 0.250968 -3.71754 0
M  V30 2499 H 248.207 -1.4277 -4.57333 0
M  V30 2500 H 246.571 -0.666083 -2.45836 0
M  V30 2501 H 247.354 -2.33653 -2.51518 0
M  V30 2502 N 249.799 1.42003 -0.683588 0
M  V30 2503 C 251.076 1.95112 -0.138075 0
M  V30 2504 C 251.456 1.62359 1.34918 0
M  V30 2505 O 250.804 0.924311 2.08971 0
M  V30 2506 C 251.014 3.46505 -0.416581 0
M  V30 2507 C 252.362 4.23254 -0.337834 0
M  V30 2508 O 253.386 3.54468 -0.35082 0
M  V30 2509 O 252.245 5.45743 -0.287596 0
M  V30 2510 H 249.339 0.826961 -0.00797996 0
M  V30 2511 H 251.885 1.51784 -0.758924 0
M  V30 2512 H 250.657 3.63582 -1.4465 0
M  V30 2513 H 250.28 3.969 0.235839 0
M  V30 2514 N 251.277 0.427512 1.51691 0
M  V30 2515 C 252.187 -0.39527 2.31246 0
M  V30 2516 C 253.203 -1.03674 1.39742 0
M  V30 2517 O 254.379 -1.03425 1.72816 0
M  V30 2518 C 251.444 -1.48706 3.13189 0
M  V30 2519 C 250.505 -0.866743 4.20459 0
M  V30 2520 C 249.738 -1.90651 4.98486 0
M  V30 2521 O 249.961 -3.12733 4.77026 0
M  V30 2522 O 248.895 -1.5025 5.82845 0
M  V30 2523 H 252.721 0.253918 3.02637 0
M  V30 2524 H 250.306 0.190274 1.48183 0
M  V30 2525 H 252.188 -2.12047 3.64162 0
M  V30 2526 H 250.863 -2.12051 2.44573 0
M  V30 2527 H 249.77 -0.195544 3.73589 0
M  V30 2528 H 251.103 -0.276934 4.9142 0
M  V30 2529 N 252.755 -1.56801 0.158532 0
M  V30 2530 C 254.002 -1.9649 -0.489679 0
M  V30 2531 C 254.33 -1.04394 -1.6411 0
M  V30 2532 O 253.585 -0.0754401 -1.95555 0
M  V30 2533 C 253.884 -3.4235 -1.02623 0
M  V30 2534 C 253.55 -4.50899 0.00794526 0
M  V30 2535 C 252.212 -4.80312 0.292207 0
M  V30 2536 C 254.564 -5.16333 0.710584 0
M  V30 2537 C 251.892 -5.72461 1.28472 0
M  V30 2538 C 254.244 -6.09553 1.69199 0
M  V30 2539 C 252.908 -6.37339 1.98383 0
M  V30 2540 H 252.178 -0.719009 -0.179186 0
M  V30 2541 H 254.825 -1.8989 0.247798 0
M  V30 2542 H 253.13 -3.45838 -1.84128 0
M  V30 2543 H 254.827 -3.70393 -1.53656 0
M  V30 2544 H 251.417 -4.28015 -0.22379 0
M  V30 2545 H 255.601 -4.93732 0.504174 0
M  V30 2546 H 250.857 -5.92278 1.51714 0
M  V30 2547 H 255.031 -6.59327 2.24189 0
M  V30 2548 H 252.658 -7.08546 2.7544 0
M  V30 2549 N 254.233 0.115231 -1.57178 0
M  V30 2550 C 255.165 1.16694 -1.97269 0
M  V30 2551 C 256.178 1.37445 -0.872502 0
M  V30 2552 O 257.367 1.36454 -1.15077 0
M  V30 2553 C 254.467 2.52627 -2.25905 0
M  V30 2554 C 253.64 2.52427 -3.57211 0
M  V30 2555 C 252.699 3.70134 -3.74016 0
M  V30 2556 O 251.725 3.53546 -4.46087 0
M  V30 2557 N 252.927 4.88844 -3.13068 0
M  V30 2558 H 255.692 0.82588 -2.88096 0
M  V30 2559 H 253.253 0.304461 -1.59011 0
M  V30 2560 H 255.245 3.29937 -2.34359 0
M  V30 2561 H 253.815 2.789 -1.41186 0
M  V30 2562 H 253.035 1.60805 -3.5991 0
M  V30 2563 H 254.323 2.49353 -4.43509 0
M  V30 2564 H 253.721 5.05225 -2.54489 0
M  V30 2565 H 252.278 5.63817 -3.27037 0
M  V30 2566 N 255.711 1.52812 0.385517 0
M  V30 2567 C 256.658 1.77838 1.47113 0
M  V30 2568 C 257.628 0.621757 1.54024 0
M  V30 2569 O 258.813 0.861846 1.70226 0
M  V30 2570 C 255.953 1.95618 2.84302 0
M  V30 2571 C 255.066 3.23316 2.86515 0
M  V30 2572 C 254.201 3.31394 4.15152 0
M  V30 2573 C 253.24 4.53201 4.1143 0
M  V30 2574 N 252.377 4.58542 5.3168 0
M  V30 2575 H 257.217 2.70482 1.25073 0
M  V30 2576 H 254.754 1.34006 0.606692 0
M  V30 2577 H 256.712 2.03912 3.63972 0
M  V30 2578 H 255.342 1.06331 3.04784 0
M  V30 2579 H 254.394 3.24076 1.99195 0
M  V30 2580 H 255.706 4.13045 2.79634 0
M  V30 2581 H 254.86 3.3889 5.03228 0
M  V30 2582 H 253.599 2.39645 4.24761 0
M  V30 2583 H 252.604 4.45827 3.21742 0
M  V30 2584 H 253.829 5.46271 4.03442 0
M  V30 2585 H 251.775 3.69686 5.41912 0
M  V30 2586 H 251.692 5.42148 5.26889 0
M  V30 2587 H 252.96 4.70296 6.21644 0
M  V30 2588 N 257.189 -0.644168 1.43834 0
M  V30 2589 C 258.438 -1.39985 1.45214 0
M  V30 2590 C 258.751 -1.95421 0.0835494 0
M  V30 2591 O 259.957 -2.71488 -0.0251748 0
M  V30 2592 C 258.413 -2.53384 2.55587 0
M  V30 2593 C 258.021 -2.04517 3.98594 0
M  V30 2594 C 259.765 -3.30685 2.66172 0
M  V30 2595 C 257.672 -3.1518 5.00416 0
M  V30 2596 H 256.602 -0.526005 0.540218 0
M  V30 2597 H 259.253 -0.694367 1.69855 0
M  V30 2598 H 257.635 -3.26446 2.24163 0
M  V30 2599 H 258.809 -1.38405 4.39523 0
M  V30 2600 H 257.124 -1.40068 3.92135 0
M  V30 2601 H 259.721 -4.13158 3.39418 0
M  V30 2602 H 260.064 -3.79312 1.71546 0
M  V30 2603 H 260.597 -2.64708 2.96942 0
M  V30 2604 H 257.336 -2.71511 5.96625 0
M  V30 2605 H 256.856 -3.79974 4.64091 0
M  V30 2606 H 258.535 -3.80166 5.23529 0
M  V30 2607 N 258.668 -1.30515 -0.883378 0
M  V30 2608 C 259.598 -1.19607 -2.00541 0
M  V30 2609 C 260.579 -0.086346 -1.69881 0
M  V30 2610 O 261.764 -0.268654 -1.92333 0
M  V30 2611 C 258.894 -0.888758 -3.35736 0
M  V30 2612 C 257.848 -1.95659 -3.8066 0
M  V30 2613 C 257.174 -1.50224 -5.13164 0
M  V30 2614 C 258.474 -3.36788 -3.99213 0
M  V30 2615 H 260.168 -2.13476 -2.09925 0
M  V30 2616 H 257.714 -1.02775 -1.00863 0
M  V30 2617 H 259.667 -0.799094 -4.13754 0
M  V30 2618 H 258.391 0.0856125 -3.26488 0
M  V30 2619 H 257.05 -2.03591 -3.04871 0
M  V30 2620 H 256.698 -0.516092 -5.00345 0
M  V30 2621 H 256.398 -2.2165 -5.44192 0
M  V30 2622 H 257.922 -1.42639 -5.93706 0
M  V30 2623 H 259.336 -3.31605 -4.67665 0
M  V30 2624 H 257.733 -4.06314 -4.41621 0
M  V30 2625 H 258.803 -3.78561 -3.03017 0
M  V30 2626 N 260.146 1.09593 -1.13257 0
M  V30 2627 C 261.423 1.78293 -0.804432 0
M  V30 2628 C 261.803 1.99004 0.70431 0
M  V30 2629 O 261.151 1.59007 1.641 0
M  V30 2630 C 261.361 3.10707 -1.5894 0
M  V30 2631 C 262.709 3.85443 -1.78099 0
M  V30 2632 O 263.733 3.20454 -1.55525 0
M  V30 2633 O 262.592 5.02108 -2.15753 0
M  V30 2634 H 259.686 0.773156 -0.293528 0
M  V30 2635 H 262.232 1.16164 -1.23709 0
M  V30 2636 H 261.004 2.91106 -2.61482 0
M  V30 2637 H 260.627 3.80558 -1.15157 0
M  V30 2638 N 261.624 0.925811 1.2754 0
M  V30 2639 C 262.871 0.565255 1.94451 0
M  V30 2640 C 263.199 -0.89316 1.7278 0
M  V30 2641 O 262.454 -1.65213 1.04895 0
M  V30 2642 C 262.753 0.835296 3.47502 0
M  V30 2643 C 262.419 2.27515 3.89291 0
M  V30 2644 C 261.081 2.66879 4.00411 0
M  V30 2645 C 263.433 3.21158 4.10496 0
M  V30 2646 C 260.761 3.99014 4.30122 0
M  V30 2647 C 263.113 4.52871 4.4169 0
M  V30 2648 C 261.777 4.92072 4.51023 0
M  V30 2649 H 261.047 0.206841 0.711546 0
M  V30 2650 H 263.694 1.16942 1.51647 0
M  V30 2651 H 261.999 0.148442 3.91519 0
M  V30 2652 H 263.696 0.535322 3.97411 0
M  V30 2653 H 260.286 1.95976 3.81171 0
M  V30 2654 H 264.47 2.9195 4.01346 0
M  V30 2655 H 259.726 4.2907 4.35556 0
M  V30 2656 H 263.9 5.25436 4.57045 0
M  V30 2657 H 261.527 5.9449 4.738 0
M  V30 2658 N 263.102 -1.41638 0.69111 0
M  V30 2659 C 264.035 -2.28183 -0.0274913 0
M  V30 2660 C 265.013 -1.41984 -0.792424 0
M  V30 2661 O 266.197 -1.71415 -0.784169 0
M  V30 2662 C 263.324 -3.22135 -1.04628 0
M  V30 2663 C 262.37 -4.24848 -0.375037 0
M  V30 2664 S 263.203 -5.28231 0.879321 0
M  V30 2665 C 264.359 -6.25748 -0.137983 0
M  V30 2666 H 264.592 -2.88782 0.706553 0
M  V30 2667 H 262.125 -1.46709 0.481222 0
M  V30 2668 H 264.083 -3.76797 -1.62894 0
M  V30 2669 H 262.744 -2.6064 -1.75287 0
M  V30 2670 H 261.937 -4.90837 -1.14433 0
M  V30 2671 H 261.539 -3.73758 0.134434 0
M  V30 2672 H 263.831 -6.70188 -0.992659 0
M  V30 2673 H 264.774 -7.06417 0.487867 0
M  V30 2674 H 265.182 -5.62363 -0.490762 0
M  V30 2675 N 264.58 -0.43555 -1.51462 0
M  V30 2676 C 265.527 0.376797 -2.27703 0
M  V30 2677 C 266.497 1.01838 -1.31219 0
M  V30 2678 O 267.682 1.03762 -1.60119 0
M  V30 2679 C 264.822 1.47301 -3.12084 0
M  V30 2680 C 263.935 0.849744 -4.2356 0
M  V30 2681 C 263.07 1.92086 -4.95254 0
M  V30 2682 C 262.109 1.27593 -5.98654 0
M  V30 2683 N 261.246 2.28833 -6.63762 0
M  V30 2684 H 266.086 -0.279734 -2.96684 0
M  V30 2685 H 263.623 -0.149795 -1.46335 0
M  V30 2686 H 265.581 2.11984 -3.59331 0
M  V30 2687 H 264.211 2.0992 -2.45221 0
M  V30 2688 H 263.263 0.0912529 -3.80291 0
M  V30 2689 H 264.575 0.338878 -4.97648 0
M  V30 2690 H 263.729 2.64435 -5.46039 0
M  V30 2691 H 262.468 2.46545 -4.20793 0
M  V30 2692 H 261.473 0.537893 -5.47162 0
M  V30 2693 H 262.698 0.738693 -6.7507 0
M  V30 2694 H 260.644 2.82375 -5.92115 0
M  V30 2695 H 260.561 1.82632 -7.33608 0
M  V30 2696 H 261.829 3.00671 -7.19178 0
M  V30 2697 N 266.058 1.56714 -0.166846 0
M  V30 2698 C 267.335 1.88412 0.525373 0
M  V30 2699 C 267.715 1.07602 1.81618 0
M  V30 2700 O 267.063 0.168621 2.27877 0
M  V30 2701 C 267.273 3.40363 0.771613 0
M  V30 2702 C 268.621 4.10007 1.1036 0
M  V30 2703 O 269.645 3.45655 0.860304 0
M  V30 2704 O 268.504 5.2369 1.56239 0
M  V30 2705 H 265.598 0.781587 0.270278 0
M  V30 2706 H 268.144 1.68458 -0.204946 0
M  V30 2707 H 266.916 3.91046 -0.141093 0
M  V30 2708 H 266.539 3.65914 1.55541 0
M  V30 2709 N 267.536 -0.106894 1.57237 0
M  V30 2710 C 268.782 -0.81373 1.85759 0
M  V30 2711 C 269.115 -1.78952 0.754315 0
M  V30 2712 O 268.39 -1.93029 -0.23879 0
M  V30 2713 C 268.673 -1.55293 3.24894 0
M  V30 2714 C 268.526 -0.595929 4.45835 0
M  V30 2715 C 269.845 -2.5063 3.61763 0
M  V30 2716 H 266.964 -0.294369 0.67566 0
M  V30 2717 H 269.606 -0.0776472 1.89841 0
M  V30 2718 H 267.756 -2.1804 3.21544 0
M  V30 2719 H 269.428 0.0236262 4.61294 0
M  V30 2720 H 267.671 0.0916191 4.33703 0
M  V30 2721 H 268.342 -1.15004 5.39887 0
M  V30 2722 H 270.818 -1.97982 3.65981 0
M  V30 2723 H 269.694 -2.99376 4.60071 0
M  V30 2724 H 269.955 -3.3385 2.89821 0
M  V30 2725 N 269.014 -1.53014 -0.377408 0
M  V30 2726 C 269.947 -1.73382 -1.48371 0
M  V30 2727 C 270.925 -0.581879 -1.51832 0
M  V30 2728 O 272.109 -0.81307 -1.70063 0
M  V30 2729 C 269.236 -1.80192 -2.8679 0
M  V30 2730 C 268.282 -3.02056 -3.01105 0
M  V30 2731 S 269.115 -4.61811 -2.71093 0
M  V30 2732 C 270.271 -4.71453 -4.11683 0
M  V30 2733 H 270.504 -2.66946 -1.30872 0
M  V30 2734 H 268.037 -1.43453 -0.571012 0
M  V30 2735 H 269.995 -1.84802 -3.6655 0
M  V30 2736 H 268.656 -0.877008 -3.01608 0
M  V30 2737 H 267.849 -3.03396 -4.02451 0
M  V30 2738 H 267.451 -2.95498 -2.29253 0
M  V30 2739 H 269.743 -4.50781 -5.0577 0
M  V30 2740 H 270.686 -5.73487 -4.15353 0
M  V30 2741 H 271.094 -4.00189 -3.98132 0
M  V30 2742 N 270.492 0.636531 -1.44174 0
M  V30 2743 C 271.439 1.74875 -1.50624 0
M  V30 2744 C 272.409 1.62275 -0.35442 0
M  V30 2745 O 273.594 1.82276 -0.563908 0
M  V30 2746 C 270.734 3.13102 -1.45125 0
M  V30 2747 C 269.847 3.36717 -2.7064 0
M  V30 2748 C 268.982 4.64885 -2.57013 0
M  V30 2749 C 268.021 4.8166 -3.77717 0
M  V30 2750 N 267.158 6.01101 -3.62798 0
M  V30 2751 H 271.998 1.68697 -2.45653 0
M  V30 2752 H 269.535 0.823004 -1.21922 0
M  V30 2753 H 271.493 3.93034 -1.39929 0
M  V30 2754 H 270.123 3.18308 -0.536671 0
M  V30 2755 H 269.175 2.50763 -2.86046 0
M  V30 2756 H 270.487 3.44993 -3.60252 0
M  V30 2757 H 269.641 5.52969 -2.49619 0
M  V30 2758 H 268.38 4.58957 -1.64953 0
M  V30 2759 H 267.385 3.92007 -3.85501 0
M  V30 2760 H 268.61 4.89406 -4.70807 0
M  V30 2761 H 266.556 5.96273 -2.73486 0
M  V30 2762 H 266.473 6.10409 -4.46023 0
M  V30 2763 H 267.741 6.91761 -3.59286 0
M  V30 2764 N 271.97 1.30982 0.876444 0
M  V30 2765 C 272.917 1.18085 1.98304 0
M  V30 2766 C 273.887 0.0682263 1.6596 0
M  V30 2767 O 275.072 0.239937 1.89285 0
M  V30 2768 C 272.212 0.887475 3.33493 0
M  V30 2769 C 271.325 2.08281 3.78475 0
M  V30 2770 C 270.46 1.72678 5.0235 0
M  V30 2771 C 269.499 2.88657 5.39762 0
M  V30 2772 N 268.636 2.53292 6.54819 0
M  V30 2773 H 273.476 2.1275 2.08666 0
M  V30 2774 H 271.013 1.05839 1.02159 0
M  V30 2775 H 272.971 0.697961 4.1132 0
M  V30 2776 H 271.601 -0.022315 3.22792 0
M  V30 2777 H 270.653 2.3833 2.96484 0
M  V30 2778 H 271.965 2.95108 4.02135 0
M  V30 2779 H 271.119 1.50151 5.87826 0
M  V30 2780 H 269.858 0.830327 4.8058 0
M  V30 2781 H 268.863 3.1184 4.52809 0
M  V30 2782 H 270.088 3.79002 5.63502 0
M  V30 2783 H 268.034 1.66163 6.34607 0
M  V30 2784 H 267.951 3.3365 6.7839 0
M  V30 2785 H 269.219 2.34143 7.43503 0
M  V30 2786 N 273.449 -1.08991 1.13837 0
M  V30 2787 C 274.379 -2.17771 0.842507 0
M  V30 2788 C 275.36 -1.6892 -0.20001 0
M  V30 2789 O 276.545 -1.94113 -0.0579731 0
M  V30 2790 C 273.675 -3.4589 0.312644 0
M  V30 2791 C 272.629 -4.08099 1.28992 0
M  V30 2792 C 271.955 -5.31098 0.619623 0
M  V30 2793 C 273.255 -4.50077 2.65005 0
M  V30 2794 H 274.949 -2.42777 1.75213 0
M  V30 2795 H 272.495 -1.16682 0.843875 0
M  V30 2796 H 274.448 -4.21297 0.0933043 0
M  V30 2797 H 273.172 -3.20419 -0.632382 0
M  V30 2798 H 271.831 -3.34717 1.49533 0
M  V30 2799 H 271.479 -5.0191 -0.33102 0
M  V30 2800 H 271.179 -5.73674 1.27167 0
M  V30 2801 H 272.703 -6.09224 0.409669 0
M  V30 2802 H 274.117 -5.16688 2.48407 0
M  V30 2803 H 272.514 -5.03553 3.26427 0
M  V30 2804 H 273.584 -3.62257 3.22332 0
M  V30 2805 N 274.927 -0.932562 -1.27047 0
M  V30 2806 C 276.152 -0.591474 -1.98787 0
M  V30 2807 C 276.577 0.824601 -1.69062 0
M  V30 2808 O 275.935 1.5541 -0.933677 0
M  V30 2809 C 275.983 -0.829808 -3.50922 0
M  V30 2810 O 275.087 0.102266 -4.12273 0
M  V30 2811 H 274.428 -0.227185 -0.623926 0
M  V30 2812 H 276.958 -1.25314 -1.61733 0
M  V30 2813 H 276.968 -0.747292 -4.01098 0
M  V30 2814 H 275.643 -1.86201 -3.7189 0
M  V30 2815 H 274.22 -0.0305761 -3.72887 0
M  V30 2816 N 276.405 1.4127 -0.698611 0
M  V30 2817 C 277.353 2.32588 -0.023855 0
M  V30 2818 C 278.347 1.51128 0.765292 0
M  V30 2819 O 279.553 1.67043 0.670571 0
M  V30 2820 H 275.928 0.751918 0.0110871 0
M  V30 2821 H 277.899 2.87167 -0.811031 0
M  V30 2822 C 276.648 3.35947 0.896369 0
M  V30 2823 H 275.971 3.98684 0.298548 0
M  V30 2824 H 277.411 4.02376 1.33676 0
M  V30 2825 C 275.87 2.70076 2.01396 0
M  V30 2826 O 276.4 2.55093 3.10307 0
M  V30 2827 N 274.606 2.28724 1.79259 0
M  V30 2828 H 274.153 2.4111 0.906841 0
M  V30 2829 H 274.111 1.84986 2.54219 0
M  V30 2830 N 277.883 0.443576 1.51229 0
M  V30 2831 C 279.111 -0.11929 2.06556 0
M  V30 2832 C 279.526 -1.35921 1.31038 0
M  V30 2833 O 278.883 -1.78675 0.371704 0
M  V30 2834 C 278.934 -0.435228 3.5887 0
M  V30 2835 O 278.655 0.755486 4.31537 0
M  V30 2836 C 280.156 -1.04808 4.30732 0
M  V30 2837 H 277.376 -0.0051584 0.67098 0
M  V30 2838 H 279.92 0.624453 1.94733 0
M  V30 2839 H 278.075 -1.12887 3.70588 0
M  V30 2840 H 278.489 0.483491 5.22267 0
M  V30 2841 H 279.963 -1.2191 5.3837 0
M  V30 2842 H 280.44 -2.03081 3.89429 0
M  V30 2843 H 281.046 -0.393637 4.23474 0
M  V30 2844 N 279.361 -1.56624 0.175154 0
M  V30 2845 C 280.586 -2.01813 -0.478137 0
M  V30 2846 C 281.011 -1.05457 -1.55757 0
M  V30 2847 O 280.369 -0.0347439 -1.81267 0
M  V30 2848 C 280.417 -3.45581 -1.02987 0
M  V30 2849 O 279.521 -3.52305 -2.14371 0
M  V30 2850 H 278.862 -0.65413 -0.114059 0
M  V30 2851 H 281.392 -2.02673 0.280173 0
M  V30 2852 H 281.402 -3.84965 -1.35151 0
M  V30 2853 H 280.077 -4.1521 -0.239556 0
M  V30 2854 H 278.654 -3.24783 -1.83222 0
M  V30 2855 N 280.839 0.0985539 -1.57292 0
M  V30 2856 C 282.069 0.815135 -1.8984 0
M  V30 2857 C 282.477 1.7297 -0.766679 0
M  V30 2858 O 281.82 1.81698 0.270483 0
M  V30 2859 C 281.882 1.6842 -3.17608 0
M  V30 2860 C 281.546 0.94182 -4.4719 0
M  V30 2861 C 282.543 0.273212 -5.19182 0
M  V30 2862 C 280.228 0.916927 -4.9386 0
M  V30 2863 C 282.222 -0.410361 -6.36078 0
M  V30 2864 C 279.909 0.229567 -6.10669 0
M  V30 2865 C 280.907 -0.432902 -6.81627 0
M  V30 2866 O 280.595 -1.10925 -7.9621 0
M  V30 2867 H 280.327 0.238501 -0.632529 0
M  V30 2868 H 282.881 0.0812659 -2.05239 0
M  V30 2869 H 281.111 2.46022 -2.98345 0
M  V30 2870 H 282.8 2.27704 -3.36015 0
M  V30 2871 H 283.566 0.283927 -4.84168 0
M  V30 2872 H 279.445 1.42201 -4.3852 0
M  V30 2873 H 282.989 -0.928013 -6.914 0
M  V30 2874 H 278.886 0.216686 -6.45136 0
M  V30 2875 H 279.654 -1.01579 -8.12172 0
M  V30 2876 N 282.317 1.53212 0.369288 0
M  V30 2877 C 283.249 1.75668 1.47219 0
M  V30 2878 C 284.262 0.637387 1.49804 0
M  V30 2879 O 285.451 0.913561 1.5335 0
M  V30 2880 C 282.551 1.81818 2.85999 0
M  V30 2881 C 281.724 3.11409 3.07153 0
M  V30 2882 C 280.783 3.08849 4.26026 0
M  V30 2883 O 279.809 3.82659 4.2138 0
M  V30 2884 N 281.011 2.29409 5.33246 0
M  V30 2885 H 283.776 2.70832 1.28337 0
M  V30 2886 H 281.337 1.51944 0.55898 0
M  V30 2887 H 283.329 1.77588 3.63655 0
M  V30 2888 H 281.899 0.939544 2.98146 0
M  V30 2889 H 281.119 3.28971 2.1719 0
M  V30 2890 H 282.407 3.97059 3.18154 0
M  V30 2891 H 281.805 1.68946 5.39883 0
M  V30 2892 H 280.362 2.31001 6.09493 0
M  V30 2893 N 283.795 -0.628877 1.44509 0
M  V30 2894 C 285.042 -1.38839 1.47411 0
M  V30 2895 C 285.37 -1.94202 0.10757 0
M  V30 2896 O 284.625 -1.74243 -0.890947 0
M  V30 2897 C 284.924 -2.56995 2.48371 0
M  V30 2898 C 284.59 -2.19908 3.93639 0
M  V30 2899 C 283.252 -2.09506 4.33198 0
M  V30 2900 C 285.604 -1.9064 4.85083 0
M  V30 2901 C 282.932 -1.68028 5.62124 0
M  V30 2902 C 285.284 -1.50655 6.14399 0
M  V30 2903 C 283.948 -1.38796 6.5291 0
M  V30 2904 H 283.218 -0.508048 0.539414 0
M  V30 2905 H 285.865 -0.712913 1.77735 0
M  V30 2906 H 284.17 -3.29786 2.11538 0
M  V30 2907 H 285.867 -3.15223 2.47861 0
M  V30 2908 H 282.457 -2.28922 3.62343 0
M  V30 2909 H 286.641 -1.97585 4.55273 0
M  V30 2910 H 281.897 -1.57452 5.90778 0
M  V30 2911 H 286.071 -1.27048 6.84713 0
M  V30 2912 H 283.698 -1.06429 7.52713 0
M  V30 2913 N 285.273 -1.31445 -0.869486 0
M  V30 2914 C 286.236 -1.19094 -1.9583 0
M  V30 2915 C 287.236 -0.117906 -1.60367 0
M  V30 2916 O 288.426 -0.367208 -1.70286 0
M  V30 2917 C 285.558 -0.828165 -3.30688 0
M  V30 2918 H 286.751 -2.15842 -2.08212 0
M  V30 2919 H 284.304 -1.15063 -1.05784 0
M  V30 2920 H 285.039 0.138142 -3.24006 0
M  V30 2921 H 284.824 -1.6038 -3.578 0
M  V30 2922 H 286.314 -0.765658 -4.10521 0
M  V30 2923 N 286.751 1.08385 -1.14413 0
M  V30 2924 C 287.714 2.13486 -0.834048 0
M  V30 2925 C 288.714 1.59988 0.161418 0
M  V30 2926 O 289.904 1.74071 -0.0669575 0
M  V30 2927 C 287.036 3.4003 -0.243354 0
M  V30 2928 H 288.229 2.42425 -1.7655 0
M  V30 2929 H 285.782 1.24101 -0.950189 0
M  V30 2930 H 286.517 3.16726 0.696807 0
M  V30 2931 H 286.302 3.80157 -0.960367 0
M  V30 2932 H 287.792 4.17577 -0.0436242 0
M  V30 2933 N 288.23 0.939286 1.26551 0
M  V30 2934 C 289.476 0.586715 1.94128 0
M  V30 2935 C 289.809 -0.8717 1.73537 0
M  V30 2936 O 289.084 -1.62339 1.07127 0
M  V30 2937 C 289.367 0.927497 3.4795 0
M  V30 2938 C 289.22 2.44052 3.77834 0
M  V30 2939 C 290.539 0.441569 4.37879 0
M  V30 2940 H 287.658 0.21463 0.705055 0
M  V30 2941 H 290.3 1.17316 1.49455 0
M  V30 2942 H 288.45 0.428431 3.8613 0
M  V30 2943 H 290.122 3.01216 3.4938 0
M  V30 2944 H 288.365 2.8848 3.23978 0
M  V30 2945 H 289.036 2.62947 4.85348 0
M  V30 2946 H 291.512 0.869448 4.06915 0
M  V30 2947 H 290.388 0.708856 5.44304 0
M  V30 2948 H 290.649 -0.658467 4.37169 0
M  V30 2949 N 289.708 -1.40897 0.706093 0
M  V30 2950 C 290.64 -2.29199 0.00815776 0
M  V30 2951 C 291.653 -1.45336 -0.733582 0
M  V30 2952 O 292.842 -1.68727 -0.582537 0
M  V30 2953 C 289.942 -3.23417 -1.01265 0
M  V30 2954 C 289.115 -4.36089 -0.338387 0
M  V30 2955 C 288.174 -5.10811 -1.26326 0
M  V30 2956 O 287.2 -5.64215 -0.751651 0
M  V30 2957 N 288.402 -5.19269 -2.595 0
M  V30 2958 H 291.167 -2.89738 0.766297 0
M  V30 2959 H 288.728 -1.52164 0.55296 0
M  V30 2960 H 290.72 -3.70276 -1.63334 0
M  V30 2961 H 289.29 -2.64112 -1.67223 0
M  V30 2962 H 288.51 -3.91479 0.462352 0
M  V30 2963 H 289.798 -5.08634 0.130031 0
M  V30 2964 H 289.196 -4.77347 -3.03573 0
M  V30 2965 H 287.753 -5.69667 -3.16737 0
M  V30 2966 N 291.186 -0.45159 -1.50991 0
M  V30 2967 C 292.433 0.110074 -2.02201 0
M  V30 2968 C 292.761 1.4146 -1.33489 0
M  V30 2969 O 292.016 1.90617 -0.443125 0
M  V30 2970 C 292.315 0.361728 -3.55565 0
M  V30 2971 C 291.981 -0.858717 -4.42648 0
M  V30 2972 C 290.643 -1.19338 -4.66167 0
M  V30 2973 C 292.995 -1.67221 -4.93646 0
M  V30 2974 C 290.323 -2.34195 -5.37931 0
M  V30 2975 C 292.675 -2.8119 -5.6667 0
M  V30 2976 C 291.339 -3.15094 -5.88449 0
M  V30 2977 H 290.609 0.040279 -0.739904 0
M  V30 2978 H 293.256 -0.601696 -1.81802 0
M  V30 2979 H 291.561 1.15554 -3.74372 0
M  V30 2980 H 293.258 0.80996 -3.92735 0
M  V30 2981 H 289.848 -0.58796 -4.24548 0
M  V30 2982 H 294.032 -1.42686 -4.75347 0
M  V30 2983 H 289.288 -2.6076 -5.53005 0
M  V30 2984 H 293.462 -3.44585 -6.05173 0
M  V30 2985 H 291.089 -4.04204 -6.43835 0
M  V30 2986 N 292.664 1.56529 -0.183458 0
M  V30 2987 C 293.889 2.02064 0.467428 0
M  V30 2988 C 294.314 1.06282 1.55196 0
M  V30 2989 O 293.672 0.0443565 1.81246 0
M  V30 2990 C 293.72 3.46122 1.01153 0
M  V30 2991 O 292.824 3.53437 2.12499 0
M  V30 2992 H 292.165 0.654726 0.110588 0
M  V30 2993 H 294.695 2.02521 -0.290917 0
M  V30 2994 H 294.705 3.85676 1.33108 0
M  V30 2995 H 293.38 4.15331 0.217533 0
M  V30 2996 H 291.957 3.2575 1.81497 0
M  V30 2997 N 294.142 -0.090211 1.57342 0
M  V30 2998 C 295.37 -0.806224 1.90546 0
M  V30 2999 C 295.785 -1.72041 0.777644 0
M  V30 3000 O 295.142 -1.80778 -0.250103 0
M  V30 3001 C 295.193 -1.61546 3.23396 0
M  V30 3002 O 294.914 -0.738043 4.31839 0
M  V30 3003 C 296.415 -2.4341 3.70495 0
M  V30 3004 H 293.635 -0.230256 0.630257 0
M  V30 3005 H 296.179 -0.0659843 2.04394 0
M  V30 3006 H 294.334 -2.30816 3.11131 0
M  V30 3007 H 294.748 -1.29901 5.08159 0
M  V30 3008 H 296.222 -2.95676 4.66133 0
M  V30 3009 H 296.699 -3.22098 2.98579 0
M  V30 3010 H 297.305 -1.79331 3.85643 0
M  V30 3011 N 295.62 -1.53406 -0.361157 0
M  V30 3012 C 296.845 -1.74024 -1.12829 0
M  V30 3013 C 297.27 -0.470069 -1.82132 0
M  V30 3014 O 296.628 0.57619 -1.719 0
M  V30 3015 C 296.676 -2.90903 -2.13091 0
M  V30 3016 O 295.78 -2.59821 -3.20261 0
M  V30 3017 H 295.121 -0.577804 -0.327168 0
M  V30 3018 H 297.651 -2.00307 -0.41693 0
M  V30 3019 H 297.661 -3.17194 -2.56616 0
M  V30 3020 H 296.336 -3.83034 -1.62042 0
M  V30 3021 H 294.913 -2.44362 -2.81677 0
M  V30 3022 N 297.098 0.621204 -1.44841 0
M  V30 3023 C 298.328 1.40548 -1.51426 0
M  V30 3024 C 298.736 1.88673 -0.141083 0
M  V30 3025 O 298.079 1.62053 0.865128 0
M  V30 3026 C 298.141 2.65325 -2.42576 0
M  V30 3027 C 297.805 2.3893 -3.89566 0
M  V30 3028 C 298.802 2.00138 -4.79834 0
M  V30 3029 C 296.487 2.52263 -4.3436 0
M  V30 3030 C 298.481 1.75021 -6.129 0
M  V30 3031 C 296.168 2.2676 -5.67471 0
M  V30 3032 C 297.166 1.88199 -6.56559 0
M  V30 3033 O 296.854 1.62986 -7.87204 0
M  V30 3034 H 296.586 0.437122 -0.515655 0
M  V30 3035 H 299.14 0.765987 -1.90583 0
M  V30 3036 H 297.37 3.31947 -1.98364 0
M  V30 3037 H 299.059 3.27347 -2.39998 0
M  V30 3038 H 299.825 1.89386 -4.46495 0
M  V30 3039 H 295.704 2.81246 -3.65269 0
M  V30 3040 H 299.248 1.44848 -6.82396 0
M  V30 3041 H 295.145 2.37125 -6.00368 0
M  V30 3042 H 295.913 1.7715 -7.991 0
M  V30 3043 N 298.576 1.31904 0.862503 0
M  V30 3044 C 299.523 1.20182 1.9704 0
M  V30 3045 C 300.493 0.0858247 1.65878 0
M  V30 3046 O 301.678 0.26 1.8902 0
M  V30 3047 C 298.818 0.922797 3.32533 0
M  V30 3048 C 297.931 2.12284 3.76244 0
M  V30 3049 C 297.066 1.77996 5.00491 0
M  V30 3050 C 296.105 2.94366 5.36671 0
M  V30 3051 N 295.242 2.60223 6.52095 0
M  V30 3052 H 300.082 2.14951 2.06398 0
M  V30 3053 H 297.619 1.06917 1.01031 0
M  V30 3054 H 299.577 0.741548 4.10557 0
M  V30 3055 H 298.207 0.0119227 3.22798 0
M  V30 3056 H 297.259 2.41461 2.9394 0
M  V30 3057 H 298.571 2.99357 3.98982 0
M  V30 3058 H 297.725 1.56377 5.862 0
M  V30 3059 H 296.464 0.881252 4.79672 0
M  V30 3060 H 295.469 3.16625 4.49476 0
M  V30 3061 H 296.694 3.84957 5.59451 0
M  V30 3062 H 294.64 1.72884 6.32809 0
M  V30 3063 H 294.557 3.40827 6.74814 0
M  V30 3064 H 295.825 2.42016 7.40978 0
M  V30 3065 N 300.054 -1.07777 1.14986 0
M  V30 3066 C 301.282 -1.84018 0.945773 0
M  V30 3067 C 301.697 -1.81897 -0.505863 0
M  V30 3068 O 301.054 -1.22726 -1.35072 0
M  V30 3069 C 301.105 -3.31287 1.44677 0
M  V30 3070 O 300.826 -3.33449 2.84154 0
M  V30 3071 C 302.327 -4.24311 1.28355 0
M  V30 3072 H 299.547 -0.580716 0.336169 0
M  V30 3073 H 302.091 -1.36077 1.52654 0
M  V30 3074 H 300.246 -3.76594 0.908625 0
M  V30 3075 H 300.66 -4.25427 3.06777 0
M  V30 3076 H 302.134 -5.2573 1.68261 0
M  V30 3077 H 302.611 -4.38612 0.227184 0
M  V30 3078 H 303.217 -3.84836 1.81056 0
M  V30 3079 N 301.532 -0.945985 -1.26051 0
M  V30 3080 C 302.442 -0.465633 -2.29933 0
M  V30 3081 C 303.458 0.462761 -1.67733 0
M  V30 3082 O 304.634 0.341118 -1.9849 0
M  V30 3083 C 301.699 0.256994 -3.45746 0
M  V30 3084 C 300.76 -0.708549 -4.23412 0
M  V30 3085 C 299.993 -0.0203135 -5.33696 0
M  V30 3086 O 300.216 1.19571 -5.57726 0
M  V30 3087 O 299.15 -0.701459 -5.97799 0
M  V30 3088 H 302.976 -1.32866 -2.73094 0
M  V30 3089 H 300.561 -0.712071 -1.31339 0
M  V30 3090 H 302.443 0.663852 -4.16138 0
M  V30 3091 H 301.118 1.09533 -3.04605 0
M  V30 3092 H 300.025 -1.16545 -3.55483 0
M  V30 3093 H 301.358 -1.51465 -4.68315 0
M  V30 3094 N 303.011 1.40521 -0.713556 0
M  V30 3095 C 304.258 2.00923 -0.25219 0
M  V30 3096 C 304.586 1.56571 1.15395 0
M  V30 3097 O 303.841 0.775874 1.79663 0
M  V30 3098 C 304.14 3.56317 -0.278 0
M  V30 3099 C 303.806 4.20246 -1.63415 0
M  V30 3100 C 302.468 4.37422 -2.00538 0
M  V30 3101 C 304.82 4.55923 -2.52554 0
M  V30 3102 C 302.148 4.87558 -3.2635 0
M  V30 3103 C 304.5 5.07458 -3.77716 0
M  V30 3104 C 303.164 5.22843 -4.14959 0
M  V30 3105 H 302.434 0.735231 -0.0922829 0
M  V30 3106 H 305.081 1.68161 -0.916188 0
M  V30 3107 H 303.386 3.88976 0.469567 0
M  V30 3108 H 305.083 4.00883 0.0967819 0
M  V30 3109 H 301.673 4.07263 -1.33546 0
M  V30 3110 H 305.857 4.42291 -2.25149 0
M  V30 3111 H 301.113 4.97654 -3.55176 0
M  V30 3112 H 305.287 5.34041 -4.4696 0
M  V30 3113 H 302.914 5.61454 -5.12516 0
M  V30 3114 N 304.489 0.459591 1.5075 0
M  V30 3115 C 305.766 -0.160371 1.94941 0
M  V30 3116 C 306.146 -1.58048 1.39943 0
M  V30 3117 O 305.494 -2.206 0.595629 0
M  V30 3118 C 305.704 -0.115432 3.48809 0
M  V30 3119 C 307.052 -0.310026 4.23467 0
M  V30 3120 O 308.076 -0.192543 3.55679 0
M  V30 3121 O 306.935 -0.546031 5.43765 0
M  V30 3122 H 304.029 -0.117925 0.818549 0
M  V30 3123 H 306.575 0.519169 1.61563 0
M  V30 3124 H 305.347 0.87652 3.81357 0
M  V30 3125 H 304.97 -0.836928 3.88692 0
M  V30 3126 N 305.967 -1.56429 0.191757 0
M  V30 3127 C 307.214 -1.97485 -0.447891 0
M  V30 3128 C 307.542 -1.07852 -1.61859 0
M  V30 3129 O 306.797 -0.116903 -1.95351 0
M  V30 3130 C 307.096 -3.44449 -0.953384 0
M  V30 3131 C 306.762 -4.50781 0.103586 0
M  V30 3132 C 305.424 -4.79584 0.394023 0
M  V30 3133 C 307.776 -5.1471 0.819946 0
M  V30 3134 C 305.104 -5.69607 1.40585 0
M  V30 3135 C 307.456 -6.05827 1.8209 0
M  V30 3136 C 306.12 -6.32987 2.11857 0
M  V30 3137 H 305.39 -0.722648 -0.163895 0
M  V30 3138 H 308.037 -1.89322 0.28802 0
M  V30 3139 H 306.342 -3.49666 -1.76751 0
M  V30 3140 H 308.039 -3.73569 -1.45765 0
M  V30 3141 H 304.629 -4.28394 -0.132951 0
M  V30 3142 H 308.813 -4.92552 0.608789 0
M  V30 3143 H 304.069 -5.88926 1.64243 0
M  V30 3144 H 308.243 -6.54424 2.38123 0
M  V30 3145 H 305.87 -7.02544 2.90407 0
M  V30 3146 N 307.445 0.0818655 -1.57387 0
M  V30 3147 C 308.67 0.799946 -1.91352 0
M  V30 3148 C 309.095 1.70833 -0.787258 0
M  V30 3149 O 308.453 1.79419 0.26048 0
M  V30 3150 C 308.501 1.57812 -3.24234 0
M  V30 3151 O 307.605 2.68806 -3.12757 0
M  V30 3152 H 306.946 0.21891 -0.626877 0
M  V30 3153 H 309.476 0.0531256 -2.04531 0
M  V30 3154 H 309.486 1.95952 -3.57864 0
M  V30 3155 H 308.161 0.911548 -4.05788 0
M  V30 3156 H 306.738 2.33597 -2.90666 0
M  V30 3157 N 308.923 1.53595 0.353017 0
M  V30 3158 C 310.2 1.61002 1.11075 0
M  V30 3159 C 310.58 0.425356 2.0677 0
M  V30 3160 O 309.928 -0.583267 2.2093 0
M  V30 3161 C 310.138 2.96631 1.83877 0
M  V30 3162 C 311.486 3.51653 2.37961 0
M  V30 3163 O 312.51 2.98743 1.93987 0
M  V30 3164 O 311.369 4.44177 3.18386 0
M  V30 3165 H 308.463 0.650825 0.510251 0
M  V30 3166 H 311.009 1.6594 0.35527 0
M  V30 3167 H 309.781 3.74293 1.14108 0
M  V30 3168 H 309.404 2.95242 2.66304 0
M  V30 3169 N 310.401 -0.613514 1.45168 0
M  V30 3170 C 311.631 -1.39743 1.52169 0
M  V30 3171 C 312.039 -1.88596 0.151086 0
M  V30 3172 O 311.382 -1.6251 -0.856521 0
M  V30 3173 C 311.444 -2.64035 2.43979 0
M  V30 3174 C 311.108 -2.36861 3.90827 0
M  V30 3175 C 312.105 -1.97591 4.80889 0
M  V30 3176 C 309.79 -2.49956 4.35692 0
M  V30 3177 C 311.784 -1.71768 6.1382 0
M  V30 3178 C 309.471 -2.23747 5.68665 0
M  V30 3179 C 310.469 -1.84714 6.57548 0
M  V30 3180 O 310.157 -1.58809 7.88058 0
M  V30 3181 H 309.889 -0.434382 0.517966 0
M  V30 3182 H 312.443 -0.75587 1.90986 0
M  V30 3183 H 310.673 -3.3089 2.00122 0
M  V30 3184 H 312.362 -3.26069 2.41731 0
M  V30 3185 H 313.128 -1.87015 4.47493 0
M  V30 3186 H 309.007 -2.79305 3.66756 0
M  V30 3187 H 312.551 -1.41227 6.83155 0
M  V30 3188 H 308.448 -2.33938 6.01617 0
M  V30 3189 H 309.216 -1.7291 8.00028 0
M  V30 3190 N 311.879 -1.3236 -0.855495 0
M  V30 3191 C 313.125 -1.23054 -1.612 0
M  V30 3192 C 313.458 0.207404 -1.93089 0
M  V30 3193 O 312.733 1.14432 -1.57275 0
M  V30 3194 C 313.016 -2.08937 -2.93287 0
M  V30 3195 C 312.869 -3.61105 -2.68185 0
M  V30 3196 C 314.188 -1.94986 -3.94549 0
M  V30 3197 H 311.307 -0.448364 -0.584926 0
M  V30 3198 H 313.949 -1.62297 -0.987917 0
M  V30 3199 H 312.099 -1.75599 -3.46551 0
M  V30 3200 H 313.771 -4.04652 -2.21483 0
M  V30 3201 H 312.014 -3.83813 -2.02164 0
M  V30 3202 H 312.685 -4.16522 -3.62234 0
M  V30 3203 H 315.161 -2.24189 -3.5054 0
M  V30 3204 H 314.037 -2.57356 -4.84829 0
M  V30 3205 H 314.298 -0.917263 -4.3248 0
M  V30 3206 N 313.357 1.07166 -1.15556 0
M  V30 3207 C 314.304 2.14417 -0.854055 0
M  V30 3208 C 315.274 1.64965 0.193806 0
M  V30 3209 O 316.459 1.90703 0.0609443 0
M  V30 3210 C 313.599 3.43304 -0.351574 0
M  V30 3211 C 312.712 4.06537 -1.46123 0
M  V30 3212 C 311.847 5.23266 -0.914677 0
M  V30 3213 C 310.886 5.78464 -2.00114 0
M  V30 3214 N 310.023 6.86521 -1.47083 0
M  V30 3215 H 314.863 2.39548 -1.77259 0
M  V30 3216 H 312.4 1.17543 -0.884425 0
M  V30 3217 H 314.358 4.17179 -0.0419409 0
M  V30 3218 H 312.988 3.18419 0.530037 0
M  V30 3219 H 312.04 3.30297 -1.88701 0
M  V30 3220 H 313.352 4.43567 -2.28144 0
M  V30 3221 H 312.506 6.04131 -0.557698 0
M  V30 3222 H 311.245 4.87658 -0.0636583 0
M  V30 3223 H 310.25 4.96243 -2.36692 0
M  V30 3224 H 311.475 6.16126 -2.85597 0
M  V30 3225 H 309.421 6.52849 -0.642198 0
M  V30 3226 H 309.338 7.22446 -2.22729 0
M  V30 3227 H 310.606 7.71087 -1.14215 0
M  V30 3228 N 314.835 0.952656 1.25548 0
M  V30 3229 C 316.251 0.656769 1.4546 0
M  V30 3230 C 316.451 -0.78633 1.85524 0
M  V30 3231 O 315.507 -1.56183 1.98402 0
M  V30 3232 C 316.82 1.62801 2.52817 0
M  V30 3233 C 318.368 1.63897 2.66659 0
M  V30 3234 C 318.843 2.5978 3.77198 0
M  V30 3235 N 320.334 2.58133 3.84606 0
M  V30 3236 C 321.069 3.29003 4.69621 0
M  V30 3237 N 320.565 4.09339 5.58939 0
M  V30 3238 N 322.358 3.179 4.63569 0
M  V30 3239 H 314.509 1.88526 0.978344 0
M  V30 3240 H 316.772 0.810815 0.491206 0
M  V30 3241 H 316.478 2.65869 2.30232 0
M  V30 3242 H 316.352 1.38898 3.50695 0
M  V30 3243 H 318.739 0.615481 2.8861 0
M  V30 3244 H 318.82 1.91858 1.69187 0
M  V30 3245 H 318.464 3.62254 3.55997 0
M  V30 3246 H 318.394 2.29105 4.7415 0
M  V30 3247 H 320.885 1.99809 3.20757 0
M  V30 3248 H 321.198 4.6034 6.20731 0
M  V30 3249 H 319.543 4.13438 5.58654 0
M  V30 3250 H 322.734 2.54612 3.92798 0
M  V30 3251 H 322.907 3.73398 5.29602 0
M  V30 3252 N 316.313 -1.40141 0.720998 0
M  V30 3253 C 317.26 -2.30688 0.071919 0
M  V30 3254 C 318.23 -1.48476 -0.744584 0
M  V30 3255 O 319.415 -1.77201 -0.707423 0
M  V30 3256 C 316.555 -3.34724 -0.839855 0
M  V30 3257 C 315.668 -4.31998 -0.0122438 0
M  V30 3258 C 314.803 -5.23102 -0.923995 0
M  V30 3259 C 313.842 -6.12033 -0.0907969 0
M  V30 3260 N 312.979 -6.95537 -0.957718 0
M  V30 3261 H 317.819 -2.85628 0.849755 0
M  V30 3262 H 315.356 -1.40653 0.430726 0
M  V30 3263 H 317.314 -3.93618 -1.38279 0
M  V30 3264 H 315.944 -2.81274 -1.58381 0
M  V30 3265 H 314.996 -3.74841 0.64794 0
M  V30 3266 H 316.308 -4.94772 0.632595 0
M  V30 3267 H 315.462 -5.86953 -1.53527 0
M  V30 3268 H 314.201 -4.60615 -1.60264 0
M  V30 3269 H 313.206 -5.47207 0.533377 0
M  V30 3270 H 314.431 -6.76581 0.584428 0
M  V30 3271 H 312.377 -6.35633 -1.62192 0
M  V30 3272 H 312.294 -7.55099 -0.36904 0
M  V30 3273 H 313.562 -7.63832 -1.555 0
M  V30 3274 N 317.792 -0.46758 -1.50504 0
M  V30 3275 C 319.069 0.15003 -1.95024 0
M  V30 3276 C 319.449 1.57304 -1.40779 0
M  V30 3277 O 318.797 2.20281 -0.607319 0
M  V30 3278 C 319.007 0.0969324 -3.48865 0
M  V30 3279 C 320.355 0.287565 -4.23625 0
M  V30 3280 O 321.379 0.173678 -3.55776 0
M  V30 3281 O 320.238 0.517186 -5.44047 0
M  V30 3282 H 317.332 0.113582 -0.819163 0
M  V30 3283 H 319.878 -0.52773 -1.61286 0
M  V30 3284 H 318.65 -0.896732 -3.80886 0
M  V30 3285 H 318.273 0.816303 -3.8913 0
M  V30 3286 N 319.27 1.56325 -0.20005 0
M  V30 3287 C 320.681 1.8408 0.31167 0
M  V30 3288 C 321.032 1.12087 1.61031 0
M  V30 3289 O 320.157 0.38332 2.12978 0
M  V30 3290 C 320.752 3.33932 0.57226 0
M  V30 3291 C 319.311 3.6208 1.02834 0
M  V30 3292 C 318.458 2.77186 0.079634 0
M  V30 3293 H 321.409 1.52939 -0.423729 0
M  V30 3294 H 321.43 3.52971 1.42096 0
M  V30 3295 H 320.942 3.86303 -0.37308 0
M  V30 3296 H 319.043 3.15147 1.98778 0
M  V30 3297 H 319.156 4.7023 0.917624 0
M  V30 3298 H 317.52 2.47951 0.582448 0
M  V30 3299 H 318.303 3.32347 -0.860238 0
M  V30 3300 N 320.748 -0.0735177 1.57428 0
M  V30 3301 C 322.025 -0.805903 1.78226 0
M  V30 3302 C 322.405 -1.95874 0.787189 0
M  V30 3303 O 321.753 -2.2779 -0.180029 0
M  V30 3304 C 321.963 -1.28045 3.24662 0
M  V30 3305 C 323.311 -1.71453 3.88444 0
M  V30 3306 O 324.335 -1.37616 3.28543 0
M  V30 3307 O 323.194 -2.34093 4.93825 0
M  V30 3308 H 320.288 -0.386041 0.73137 0
M  V30 3309 H 322.834 -0.0537269 1.69615 0
M  V30 3310 H 321.606 -0.455476 3.8864 0
M  V30 3311 H 321.229 -2.094 3.37991 0
M  V30 3312 N 322.226 -1.5378 -0.344866 0
M  V30 3313 C 323.189 -1.80981 -1.40637 0
M  V30 3314 C 324.189 -0.680816 -1.45676 0
M  V30 3315 O 325.379 -0.949095 -1.46075 0
M  V30 3316 C 322.511 -1.95063 -2.79577 0
M  V30 3317 H 323.704 -2.75803 -1.17783 0
M  V30 3318 H 321.257 -1.45173 -0.579181 0
M  V30 3319 H 321.992 -1.02379 -3.07716 0
M  V30 3320 H 321.777 -2.77198 -2.77315 0
M  V30 3321 H 323.267 -2.17629 -3.56409 0
M  V30 3322 N 323.704 0.605807 -1.45491 0
M  V30 3323 C 324.634 1.72709 -1.57143 0
M  V30 3324 C 325.615 1.6476 -0.422884 0
M  V30 3325 O 326.8 1.83132 -0.646247 0
M  V30 3326 C 323.93 3.11316 -1.53948 0
M  V30 3327 C 322.884 3.34077 -2.67537 0
M  V30 3328 C 322.21 4.72975 -2.49397 0
M  V30 3329 C 323.51 3.24158 -4.09535 0
M  V30 3330 H 325.204 1.63214 -2.51001 0
M  V30 3331 H 322.75 0.78379 -1.208 0
M  V30 3332 H 324.703 3.89557 -1.60696 0
M  V30 3333 H 323.427 3.21655 -0.566205 0
M  V30 3334 H 322.086 2.58227 -2.6022 0
M  V30 3335 H 321.734 4.8005 -1.50205 0
M  V30 3336 H 321.434 4.8916 -3.25571 0
M  V30 3337 H 322.958 5.53414 -2.58002 0
M  V30 3338 H 324.372 3.92271 -4.18086 0
M  V30 3339 H 322.769 3.51872 -4.86113 0
M  V30 3340 H 323.839 2.2157 -4.31317 0
M  V30 3341 N 325.182 1.32811 0.848464 0
M  V30 3342 C 326.112 1.24882 1.97299 0
M  V30 3343 C 327.093 0.131357 1.69592 0
M  V30 3344 O 328.278 0.319553 1.91553 0
M  V30 3345 C 325.408 0.97746 3.33261 0
M  V30 3346 C 324.362 2.05682 3.75338 0
M  V30 3347 C 323.688 1.63777 5.09 0
M  V30 3348 C 324.988 3.47254 3.90144 0
M  V30 3349 H 326.682 2.18966 2.04191 0
M  V30 3350 H 324.228 1.05413 0.981029 0
M  V30 3351 H 326.181 0.908513 4.1149 0
M  V30 3352 H 324.905 0.000980011 3.266 0
M  V30 3353 H 323.564 2.11603 2.99366 0
M  V30 3354 H 323.212 0.648569 4.98801 0
M  V30 3355 H 322.912 2.36 5.38124 0
M  V30 3356 H 324.436 1.5833 5.89715 0
M  V30 3357 H 325.85 3.43888 4.58709 0
M  V30 3358 H 324.247 4.1788 4.30693 0
M  V30 3359 H 325.317 3.86462 2.92874 0
M  V30 3360 N 326.66 -1.06551 1.16123 0
M  V30 3361 C 327.607 -2.13961 0.865414 0
M  V30 3362 C 328.577 -1.65066 -0.185055 0
M  V30 3363 O 329.762 -1.90732 -0.05083 0
M  V30 3364 C 326.902 -3.43113 0.369776 0
M  V30 3365 C 326.015 -4.05756 1.48276 0
M  V30 3366 C 325.15 -5.22773 0.942414 0
M  V30 3367 C 324.189 -5.77395 2.03179 0
M  V30 3368 N 323.326 -6.85731 1.50721 0
M  V30 3369 H 328.166 -2.38605 1.78527 0
M  V30 3370 H 325.703 -1.17072 0.890646 0
M  V30 3371 H 327.661 -4.17151 0.0640643 0
M  V30 3372 H 326.291 -3.18695 -0.513143 0
M  V30 3373 H 325.343 -3.29292 1.9045 0
M  V30 3374 H 326.655 -4.42351 2.30493 0
M  V30 3375 H 325.809 -6.03827 0.589729 0
M  V30 3376 H 324.548 -4.87618 0.0895191 0
M  V30 3377 H 323.553 -4.94981 2.3932 0
M  V30 3378 H 324.778 -6.14603 2.8886 0
M  V30 3379 H 322.724 -6.52499 0.676811 0
M  V30 3380 H 322.641 -7.21254 2.26557 0
M  V30 3381 H 323.909 -7.7047 1.18303 0
M  V30 3382 N 328.138 -0.959301 -1.25041 0
M  V30 3383 C 329.088 -0.453888 -2.23436 0
M  V30 3384 C 330.072 0.459461 -1.542 0
M  V30 3385 O 331.264 0.291752 -1.74579 0
M  V30 3386 C 328.393 0.262667 -3.42294 0
M  V30 3387 C 327.479 -0.669022 -4.1879 0
M  V30 3388 N 327.87 -1.80267 -4.72586 0
M  V30 3389 C 326.168 -0.47814 -4.4343 0
M  V30 3390 C 326.869 -2.38475 -5.3057 0
M  V30 3391 N 325.845 -1.67078 -5.17287 0
M  V30 3392 H 329.647 -1.319 -2.6264 0
M  V30 3393 H 327.161 -0.817358 -1.40332 0
M  V30 3394 H 329.158 0.641911 -4.11929 0
M  V30 3395 H 327.818 1.12432 -3.04613 0
M  V30 3396 H 328.829 -2.18442 -4.69578 0
M  V30 3397 H 325.506 0.340249 -4.16111 0
M  V30 3398 H 326.896 -3.34094 -5.8295 0
M  V30 3399 N 329.616 1.39756 -0.72842 0
M  V30 3400 C 330.862 2.00942 -0.273892 0
M  V30 3401 C 331.195 1.57656 1.13394 0
M  V30 3402 O 330.47 0.802434 1.77176 0
M  V30 3403 C 330.753 3.58211 -0.368346 0
M  V30 3404 C 330.606 4.11534 -1.81548 0
M  V30 3405 C 331.925 4.39372 0.253054 0
M  V30 3406 H 329.044 0.730047 -0.100996 0
M  V30 3407 H 331.686 1.66056 -0.923337 0
M  V30 3408 H 329.836 3.88061 0.184588 0
M  V30 3409 H 331.508 3.92431 -2.42478 0
M  V30 3410 H 329.751 3.65341 -2.33898 0
M  V30 3411 H 330.422 5.20682 -1.83288 0
M  V30 3412 H 332.898 4.15527 -0.218224 0
M  V30 3413 H 331.774 5.48677 0.156585 0
M  V30 3414 H 332.035 4.21358 1.33826 0
M  V30 3415 N 331.094 0.475555 1.50254 0
M  V30 3416 C 332.041 -0.316293 2.28622 0
M  V30 3417 C 333.011 -0.983227 1.33873 0
M  V30 3418 O 334.196 -0.994805 1.62814 0
M  V30 3419 C 331.336 -1.38975 3.1588 0
M  V30 3420 C 330.449 -0.737146 4.25664 0
M  V30 3421 C 329.584 -1.78887 5.00173 0
M  V30 3422 C 328.623 -1.11676 6.01826 0
M  V30 3423 N 327.76 -2.11154 6.69596 0
M  V30 3424 H 332.6 0.358297 2.95838 0
M  V30 3425 H 330.137 0.188541 1.45887 0
M  V30 3426 H 332.095 -2.02383 3.64825 0
M  V30 3427 H 330.725 -2.03344 2.50701 0
M  V30 3428 H 329.777 0.0096065 3.80399 0
M  V30 3429 H 331.089 -0.206816 4.98371 0
M  V30 3430 H 330.243 -2.49865 5.52859 0
M  V30 3431 H 328.982 -2.35302 4.27182 0
M  V30 3432 H 327.987 -0.392633 5.48396 0
M  V30 3433 H 329.212 -0.55945 6.76792 0
M  V30 3434 H 327.158 -2.66577 5.99394 0
M  V30 3435 H 327.075 -1.63118 7.38193 0
M  V30 3436 H 328.343 -2.81497 7.26897 0
M  V30 3437 N 332.573 -1.56217 0.208337 0
M  V30 3438 C 333.523 -2.16324 -0.720281 0
M  V30 3439 C 334.507 -1.10775 -1.16695 0
M  V30 3440 O 335.699 -1.36801 -1.12314 0
M  V30 3441 C 332.828 -2.83644 -1.93393 0
M  V30 3442 C 331.914 -3.96401 -1.50755 0
M  V30 3443 N 332.305 -4.99546 -0.792937 0
M  V30 3444 C 330.603 -4.08246 -1.79585 0
M  V30 3445 C 331.304 -5.78828 -0.577364 0
M  V30 3446 N 330.28 -5.31723 -1.1301 0
M  V30 3447 H 334.082 -2.93432 -0.165725 0
M  V30 3448 H 331.596 -1.62397 0.00906463 0
M  V30 3449 H 333.593 -3.25107 -2.60981 0
M  V30 3450 H 332.253 -2.08027 -2.49308 0
M  V30 3451 H 333.264 -5.15967 -0.447004 0
M  V30 3452 H 329.941 -3.4377 -2.36915 0
M  V30 3453 H 331.331 -6.71899 -0.00952956 0
M  V30 3454 N 334.051 0.0651679 -1.57465 0
M  V30 3455 C 334.984 1.10876 -1.99453 0
M  V30 3456 C 335.962 1.37205 -0.872555 0
M  V30 3457 O 337.146 1.50468 -1.13542 0
M  V30 3458 C 334.273 2.45167 -2.3369 0
M  V30 3459 C 333.319 2.3493 -3.55964 0
M  V30 3460 S 334.152 1.73708 -5.06543 0
M  V30 3461 C 335.308 3.09563 -5.43987 0
M  V30 3462 H 335.541 0.750967 -2.87659 0
M  V30 3463 H 333.074 0.273933 -1.51951 0
M  V30 3464 H 335.032 3.22412 -2.54088 0
M  V30 3465 H 333.693 2.78105 -1.46001 0
M  V30 3466 H 332.886 3.3398 -3.77457 0
M  V30 3467 H 332.488 1.65823 -3.3523 0
M  V30 3468 H 334.78 4.05882 -5.42463 0
M  V30 3469 H 335.723 2.92843 -6.44708 0
M  V30 3470 H 336.131 3.10474 -4.71451 0
M  V30 3471 N 335.529 1.53961 0.336706 0
M  V30 3472 C 336.459 1.85417 1.41925 0
M  V30 3473 C 337.44 0.709856 1.5458 0
M  V30 3474 O 338.625 0.962396 1.68676 0
M  V30 3475 C 335.755 2.06985 2.78881 0
M  V30 3476 C 334.709 3.22813 2.81026 0
M  V30 3477 C 334.035 3.29727 4.20932 0
M  V30 3478 C 335.335 4.60767 2.45949 0
M  V30 3479 H 337.029 2.76079 1.15848 0
M  V30 3480 H 334.575 1.32839 0.555859 0
M  V30 3481 H 336.528 2.27575 3.54665 0
M  V30 3482 H 335.252 1.13061 3.06406 0
M  V30 3483 H 333.911 3.0209 2.07695 0
M  V30 3484 H 333.559 2.33385 4.45579 0
M  V30 3485 H 333.259 4.07566 4.23277 0
M  V30 3486 H 334.783 3.52536 4.98549 0
M  V30 3487 H 336.197 4.81325 3.11446 0
M  V30 3488 H 334.594 5.4106 2.59566 0
M  V30 3489 H 335.664 4.6391 1.41122 0
M  V30 3490 N 337.007 -0.598083 1.45811 0
M  V30 3491 C 337.937 -1.71873 1.58057 0
M  V30 3492 C 338.918 -1.64533 0.431615 0
M  V30 3493 O 340.103 -1.82787 0.65595 0
M  V30 3494 C 337.233 -3.10495 1.55597 0
M  V30 3495 C 336.187 -3.32654 2.69305 0
M  V30 3496 C 335.513 -4.71646 2.51902 0
M  V30 3497 C 336.813 -3.21981 4.11248 0
M  V30 3498 H 338.507 -1.61881 2.51863 0
M  V30 3499 H 336.053 -0.777372 1.21214 0
M  V30 3500 H 338.006 -3.88699 1.6276 0
M  V30 3501 H 336.73 -3.2135 0.583255 0
M  V30 3502 H 335.389 -2.56843 2.61586 0
M  V30 3503 H 335.037 -4.79246 1.52748 0
M  V30 3504 H 334.737 -4.87426 3.2816 0
M  V30 3505 H 336.261 -5.52038 2.60933 0
M  V30 3506 H 337.675 -3.90049 4.20161 0
M  V30 3507 H 336.072 -3.49289 4.87972 0
M  V30 3508 H 337.142 -2.1928 4.32486 0
M  V30 3509 N 338.485 -1.33259 -0.841409 0
M  V30 3510 C 339.415 -1.25926 -1.96634 0
M  V30 3511 C 340.396 -0.140349 -1.6952 0
M  V30 3512 O 341.581 -0.329707 -1.91381 0
M  V30 3513 C 338.711 -0.99512 -3.32738 0
M  V30 3514 C 337.665 -2.0767 -3.74242 0
M  V30 3515 C 336.991 -1.66474 -5.08125 0
M  V30 3516 C 338.291 -3.49318 -3.88297 0
M  V30 3517 H 339.985 -2.20046 -2.03027 0
M  V30 3518 H 337.531 -1.05931 -0.975425 0
M  V30 3519 H 339.484 -0.930323 -4.11002 0
M  V30 3520 H 338.208 -0.0183004 -3.26595 0
M  V30 3521 H 336.867 -2.13187 -2.98239 0
M  V30 3522 H 336.515 -0.675012 -4.9845 0
M  V30 3523 H 336.215 -2.3885 -5.36865 0
M  V30 3524 H 337.739 -1.61455 -5.88867 0
M  V30 3525 H 339.153 -3.46316 -4.56879 0
M  V30 3526 H 337.55 -4.20158 -4.28471 0
M  V30 3527 H 338.62 -3.8801 -2.9082 0
M  V30 3528 N 339.963 1.05934 -1.16686 0
M  V30 3529 C 341.191 1.8249 -0.974929 0
M  V30 3530 C 341.606 1.82679 0.476861 0
M  V30 3531 O 340.963 1.2486 1.33103 0
M  V30 3532 C 341.014 3.28943 -1.49929 0
M  V30 3533 O 340.735 3.28886 -2.89423 0
M  V30 3534 C 342.236 4.22215 -1.35089 0
M  V30 3535 H 339.456 0.575295 -0.345365 0
M  V30 3536 H 342 1.33631 -1.548 0
M  V30 3537 H 340.155 3.751 -0.968423 0
M  V30 3538 H 340.569 4.20493 -3.13506 0
M  V30 3539 H 342.043 5.22987 -1.76603 0
M  V30 3540 H 342.52 4.38195 -0.296935 0
M  V30 3541 H 343.126 3.81907 -1.87155 0
M  V30 3542 N 341.441 0.965919 1.2453 0
M  V30 3543 C 342.389 0.486506 2.27455 0
M  V30 3544 C 343.383 -0.449041 1.6334 0
M  V30 3545 O 344.589 -0.324527 1.7705 0
M  V30 3546 H 340.964 0.138857 0.739069 0
M  V30 3547 H 342.935 1.3666 2.65267 0
M  V30 3548 C 341.684 -0.209481 3.47068 0
M  V30 3549 H 341.007 0.50129 3.96645 0
M  V30 3550 H 342.447 -0.508775 4.20936 0
M  V30 3551 C 340.906 -1.43586 3.0477 0
M  V30 3552 O 341.436 -2.53299 3.11773 0
M  V30 3553 N 339.642 -1.30126 2.59838 0
M  V30 3554 H 339.189 -0.408583 2.54339 0
M  V30 3555 H 339.147 -2.12294 2.31902 0
M  V30 3556 N 342.919 -1.39368 0.735821 0
M  V30 3557 C 344.147 -2.04795 0.294393 0
M  V30 3558 C 344.562 -1.55478 -1.07107 0
M  V30 3559 O 343.919 -0.720038 -1.67695 0
M  V30 3560 C 343.97 -3.6035 0.288071 0
M  V30 3561 O 343.691 -4.07852 1.59963 0
M  V30 3562 C 345.192 -4.42976 -0.169422 0
M  V30 3563 H 342.412 -0.658571 0.128551 0
M  V30 3564 H 344.956 -1.78399 0.999701 0
M  V30 3565 H 343.111 -3.85645 -0.368355 0
M  V30 3566 H 343.525 -5.02181 1.51375 0
M  V30 3567 H 344.999 -5.51864 -0.122687 0
M  V30 3568 H 345.476 -4.22068 -1.21472 0
M  V30 3569 H 346.082 -4.22832 0.457469 0
M  V30 3570 N 344.397 -0.483516 -1.5 0
M  V30 3571 C 345.644 0.0671597 -2.02389 0
M  V30 3572 C 345.972 1.38597 -1.36459 0
M  V30 3573 O 345.227 1.89634 -0.483458 0
M  V30 3574 C 345.526 0.286226 -3.56252 0
M  V30 3575 C 345.192 -0.952416 -4.40726 0
M  V30 3576 C 343.854 -1.29199 -4.63531 0
M  V30 3577 C 346.206 -1.77655 -4.89988 0
M  V30 3578 C 343.534 -2.45553 -5.32842 0
M  V30 3579 C 345.886 -2.93147 -5.60578 0
M  V30 3580 C 344.55 -3.27505 -5.81633 0
M  V30 3581 H 343.82 0.0245755 -0.740592 0
M  V30 3582 H 346.467 -0.640124 -1.80485 0
M  V30 3583 H 344.772 1.07587 -3.76739 0
M  V30 3584 H 346.469 0.726473 -3.94365 0
M  V30 3585 H 343.059 -0.677881 -4.23205 0
M  V30 3586 H 347.243 -1.52737 -4.72213 0
M  V30 3587 H 342.499 -2.72431 -5.47349 0
M  V30 3588 H 346.673 -3.57344 -5.97727 0
M  V30 3589 H 344.3 -4.1777 -6.35116 0
M  V30 3590 N 345.875 1.56104 -0.216619 0
M  V30 3591 C 347.123 1.97781 0.415593 0
M  V30 3592 C 347.444 1.10536 1.60645 0
M  V30 3593 O 346.714 0.181303 1.95059 0
M  V30 3594 H 345.294 0.730415 0.156534 0
M  V30 3595 H 347.956 1.92445 -0.308366 0
M  V30 3596 H 347.052 3.03072 0.74525 0
M  V30 3597 N 347.353 -0.0568162 1.57498 0
M  V30 3598 C 348.316 -1.05038 2.03715 0
M  V30 3599 C 349.316 -1.30709 0.936577 0
M  V30 3600 O 350.506 -1.26178 1.20103 0
M  V30 3601 C 347.638 -2.39034 2.43055 0
M  V30 3602 H 348.831 -0.651715 2.92733 0
M  V30 3603 H 346.384 -0.302947 1.53336 0
M  V30 3604 H 347.119 -2.83703 1.57108 0
M  V30 3605 H 346.904 -2.21739 3.2338 0
M  V30 3606 H 348.394 -3.10421 2.79336 0
M  V30 3607 N 348.832 -1.54138 -0.328536 0
M  V30 3608 C 350.081 -1.71318 -1.06456 0
M  V30 3609 C 350.394 -0.491109 -1.89334 0
M  V30 3610 O 351.6 -0.54416 -2.65991 0
M  V30 3611 C 350.056 -3.03 -1.94214 0
M  V30 3612 C 349.664 -4.32595 -1.16471 0
M  V30 3613 C 351.408 -3.29544 -2.67583 0
M  V30 3614 C 349.315 -5.55341 -2.03347 0
M  V30 3615 H 348.245 -0.638429 -0.401155 0
M  V30 3616 H 350.896 -1.80633 -0.323106 0
M  V30 3617 H 349.278 -2.87579 -2.72239 0
M  V30 3618 H 350.452 -4.58766 -0.432525 0
M  V30 3619 H 348.767 -4.12777 -0.548063 0
M  V30 3620 H 351.364 -4.18444 -3.3288 0
M  V30 3621 H 351.707 -2.47206 -3.34955 0
M  V30 3622 H 352.24 -3.45809 -1.96623 0
M  V30 3623 H 348.979 -6.40268 -1.40491 0
M  V30 3624 H 348.499 -5.33397 -2.74313 0
M  V30 3625 H 350.178 -5.91557 -2.62049 0
M  V30 3626 N 350.31 0.590341 -1.46126 0
M  V30 3627 C 351.258 1.72105 -1.5647 0
M  V30 3628 C 352.252 1.63756 -0.433612 0
M  V30 3629 O 353.458 1.69342 -0.610194 0
M  V30 3630 H 349.833 0.568889 -0.491802 0
M  V30 3631 H 351.804 1.6051 -2.51553 0
M  V30 3632 C 350.553 3.10493 -1.56491 0
M  V30 3633 H 349.876 3.17583 -2.4286 0
M  V30 3634 H 351.316 3.8939 -1.67785 0
M  V30 3635 C 349.775 3.3563 -0.292231 0
M  V30 3636 O 350.305 3.96875 0.620739 0
M  V30 3637 N 348.511 2.90026 -0.182523 0
M  V30 3638 H 348.058 2.40367 -0.926356 0
M  V30 3639 H 348.016 3.07218 0.668152 0
M  V30 3640 N 351.788 1.33704 0.83433 0
M  V30 3641 C 353.018 1.28281 1.6195 0
M  V30 3642 C 353.426 -0.147603 1.88623 0
M  V30 3643 O 352.769 -1.1016 1.47005 0
M  V30 3644 C 352.831 1.99386 2.99141 0
M  V30 3645 C 352.495 3.48681 2.95416 0
M  V30 3646 C 353.492 4.438 2.70809 0
M  V30 3647 C 351.177 3.90925 3.15409 0
M  V30 3648 C 353.171 5.79138 2.66229 0
M  V30 3649 C 350.858 5.26366 3.10454 0
M  V30 3650 C 351.856 6.20284 2.85895 0
M  V30 3651 O 351.544 7.53245 2.80852 0
M  V30 3652 H 351.276 0.44315 0.510484 0
M  V30 3653 H 353.83 1.76711 1.04702 0
M  V30 3654 H 352.06 1.45554 3.58261 0
M  V30 3655 H 353.749 1.87403 3.60049 0
M  V30 3656 H 354.515 4.12485 2.5511 0
M  V30 3657 H 350.394 3.18229 3.33543 0
M  V30 3658 H 353.938 6.52416 2.4698 0
M  V30 3659 H 349.835 5.57304 3.25703 0
M  V30 3660 H 350.603 7.62846 2.96661 0
M  V30 3661 N 353.266 -1.05314 1.17247 0
M  V30 3662 C 354.512 -1.78557 0.961513 0
M  V30 3663 C 354.845 -1.87419 -0.508697 0
M  V30 3664 O 354.12 -1.37307 -1.37757 0
M  V30 3665 C 354.403 -3.22514 1.60176 0
M  V30 3666 C 354.256 -3.21673 3.14399 0
M  V30 3667 C 355.575 -4.20318 1.30463 0
M  V30 3668 H 352.694 -0.6482 0.350723 0
M  V30 3669 H 355.336 -1.23102 1.44727 0
M  V30 3670 H 353.486 -3.69867 1.18871 0
M  V30 3671 H 355.158 -2.82405 3.64753 0
M  V30 3672 H 353.401 -2.60048 3.47214 0
M  V30 3673 H 354.072 -4.23271 3.54324 0
M  V30 3674 H 356.548 -3.81454 1.66229 0
M  V30 3675 H 355.424 -5.19289 1.77848 0
M  V30 3676 H 355.685 -4.41526 0.22521 0
M  V30 3677 N 354.744 -0.972509 -1.24016 0
M  V30 3678 C 355.707 -0.511403 -2.23422 0
M  V30 3679 C 356.707 0.394679 -1.55881 0
M  V30 3680 O 357.897 0.189469 -1.73167 0
M  V30 3681 C 355.029 0.258769 -3.39916 0
M  V30 3682 H 356.222 -1.39024 -2.6573 0
M  V30 3683 H 353.775 -0.757585 -1.36713 0
M  V30 3684 H 354.51 1.1545 -3.03054 0
M  V30 3685 H 354.295 -0.391522 -3.9014 0
M  V30 3686 H 355.785 0.570244 -4.13688 0
M  V30 3687 N 356.222 1.38976 -0.743202 0
M  V30 3688 C 357.45 2.04636 -0.30525 0
M  V30 3689 C 357.865 1.56044 1.06281 0
M  V30 3690 O 357.222 0.728921 1.67311 0
M  V30 3691 C 357.273 3.60193 -0.307177 0
M  V30 3692 O 356.994 4.06998 -1.62124 0
M  V30 3693 C 358.495 4.4306 0.145928 0
M  V30 3694 H 355.715 0.65788 -0.132041 0
M  V30 3695 H 358.259 1.77866 -1.00915 0
M  V30 3696 H 356.414 3.85835 0.347898 0
M  V30 3697 H 356.828 5.01371 -1.54036 0
M  V30 3698 H 358.302 5.51921 0.0934183 0
M  V30 3699 H 358.779 4.22706 1.19231 0
M  V30 3700 H 359.385 4.22584 -0.479886 0
M  V30 3701 N 357.7 0.491464 1.49741 0
M  V30 3702 C 358.61 -0.296835 2.32715 0
M  V30 3703 C 359.626 -0.976536 1.44013 0
M  V30 3704 O 360.802 -0.960023 1.77047 0
M  V30 3705 C 357.867 -1.35288 3.19215 0
M  V30 3706 C 356.928 -0.687632 4.23757 0
M  V30 3707 C 356.161 -1.69336 5.06123 0
M  V30 3708 O 356.384 -2.92219 4.89861 0
M  V30 3709 O 355.318 -1.25394 5.88693 0
M  V30 3710 H 359.144 0.382048 3.01287 0
M  V30 3711 H 356.729 0.252953 1.47243 0
M  V30 3712 H 358.611 -1.96411 3.72828 0
M  V30 3713 H 357.286 -2.01487 2.53347 0
M  V30 3714 H 356.193 -0.0369159 3.74082 0
M  V30 3715 H 357.526 -0.0682566 4.92153 0
M  V30 3716 N 359.178 -1.55987 0.224894 0
M  V30 3717 C 360.424 -1.98684 -0.406502 0
M  V30 3718 C 360.757 -1.11248 -1.59177 0
M  V30 3719 O 360.032 -0.170909 -1.93748 0
M  V30 3720 C 360.315 -3.50218 -0.837808 0
M  V30 3721 C 360.168 -4.48426 0.351332 0
M  V30 3722 C 361.487 -4.06243 -1.69278 0
M  V30 3723 H 358.606 -0.722337 -0.146283 0
M  V30 3724 H 361.248 -1.87255 0.321799 0
M  V30 3725 H 359.398 -3.60089 -1.45837 0
M  V30 3726 H 361.07 -4.50562 0.989526 0
M  V30 3727 H 359.313 -4.22159 0.998207 0
M  V30 3728 H 359.984 -5.52 0.00655905 0
M  V30 3729 H 362.46 -3.99337 -1.16914 0
M  V30 3730 H 361.336 -5.12581 -1.96346 0
M  V30 3731 H 361.597 -3.53332 -2.65723 0
M  V30 3732 N 360.656 0.0484629 -1.57525 0
M  V30 3733 C 361.903 0.743125 -1.88372 0
M  V30 3734 C 362.231 1.76383 -0.819715 0
M  V30 3735 O 361.486 1.94855 0.181659 0
M  V30 3736 C 361.785 1.46632 -3.25935 0
M  V30 3737 C 361.451 0.583427 -4.4711 0
M  V30 3738 C 360.113 0.340191 -4.79996 0
M  V30 3739 C 362.465 -0.0273345 -5.21193 0
M  V30 3740 C 359.793 -0.522903 -5.84365 0
M  V30 3741 C 362.145 -0.878017 -6.26477 0
M  V30 3742 C 360.809 -1.1309 -6.5785 0
M  V30 3743 H 360.079 0.271929 -0.689301 0
M  V30 3744 H 362.726 0.00336166 -1.915 0
M  V30 3745 H 361.031 2.2789 -3.18706 0
M  V30 3746 H 362.728 2.00902 -3.47044 0
M  V30 3747 H 359.318 0.783151 -4.21384 0
M  V30 3748 H 363.502 0.147654 -4.9608 0
M  V30 3749 H 358.758 -0.727335 -6.07058 0
M  V30 3750 H 362.932 -1.35789 -6.83033 0
M  V30 3751 H 360.559 -1.80144 -7.38547 0
M  V30 3752 N 362.134 1.5431 0.320358 0
M  V30 3753 C 363.55 1.45091 0.664889 0
M  V30 3754 C 363.75 0.626382 1.91517 0
M  V30 3755 O 362.806 0.126443 2.52183 0
M  V30 3756 C 364.119 2.88848 0.83591 0
M  V30 3757 C 365.667 2.9877 0.933046 0
M  V30 3758 C 366.142 4.43683 1.13621 0
M  V30 3759 N 367.633 4.47309 1.20287 0
M  V30 3760 C 368.368 5.56595 1.37801 0
M  V30 3761 N 367.864 6.75844 1.52338 0
M  V30 3762 N 369.657 5.44248 1.40535 0
M  V30 3763 H 361.808 2.06398 -0.501374 0
M  V30 3764 H 364.071 0.933963 -0.162534 0
M  V30 3765 H 363.777 3.51698 -0.0116092 0
M  V30 3766 H 363.651 3.35148 1.73078 0
M  V30 3767 H 366.038 2.36045 1.77107 0
M  V30 3768 H 366.119 2.55796 0.0145782 0
M  V30 3769 H 365.763 5.06995 0.303032 0
M  V30 3770 H 365.693 4.84269 2.0686 0
M  V30 3771 H 368.184 3.61388 1.10485 0
M  V30 3772 H 368.497 7.54892 1.65403 0
M  V30 3773 H 366.842 6.78746 1.4943 0
M  V30 3774 H 370.033 4.50038 1.28777 0
M  V30 3775 H 370.206 6.29473 1.53842 0
M  V30 3776 N 363.613 -0.582584 1.46437 0
M  V30 3777 C 364.523 -1.71949 1.59595 0
M  V30 3778 C 365.539 -1.67264 0.479443 0
M  V30 3779 O 366.715 -1.87171 0.743579 0
M  V30 3780 C 363.78 -3.08452 1.58298 0
M  V30 3781 C 362.841 -3.244 2.81182 0
M  V30 3782 C 362.074 -4.54391 2.79937 0
M  V30 3783 O 362.297 -5.38287 1.8869 0
M  V30 3784 O 361.231 -4.73588 3.71481 0
M  V30 3785 H 365.057 -1.63795 2.55744 0
M  V30 3786 H 362.642 -0.749643 1.29231 0
M  V30 3787 H 364.524 -3.89732 1.60271 0
M  V30 3788 H 363.199 -3.17043 0.653094 0
M  V30 3789 H 362.106 -2.42613 2.84763 0
M  V30 3790 H 363.439 -3.20699 3.7338 0
M  V30 3791 N 365.091 -1.34144 -0.827227 0
M  V30 3792 C 366.001 -1.27428 -1.96975 0
M  V30 3793 C 367.017 -0.182728 -1.73038 0
M  V30 3794 O 368.193 -0.408426 -1.97215 0
M  V30 3795 C 365.258 -1.02526 -3.31194 0
M  V30 3796 C 364.319 -2.20796 -3.68168 0
M  V30 3797 C 363.552 -1.97073 -4.95982 0
M  V30 3798 O 363.775 -0.926822 -5.6282 0
M  V30 3799 O 362.709 -2.83912 -5.30733 0
M  V30 3800 H 366.535 -2.23537 -2.05584 0
M  V30 3801 H 364.12 -1.14307 -0.961989 0
M  V30 3802 H 366.002 -0.904026 -4.11589 0
M  V30 3803 H 364.677 -0.0945389 -3.23562 0
M  V30 3804 H 363.584 -2.38477 -2.88235 0
M  V30 3805 H 364.917 -3.12243 -3.8048 0
M  V30 3806 N 366.569 1.04691 -1.17803 0
M  V30 3807 C 367.499 2.14494 -0.92275 0
M  V30 3808 C 368.48 1.69546 0.137179 0
M  V30 3809 O 369.665 1.94195 -0.0141108 0
M  V30 3810 C 366.795 3.44491 -0.440803 0
M  V30 3811 C 365.749 4.03031 -1.4405 0
M  V30 3812 C 365.075 5.28432 -0.81631 0
M  V30 3813 C 366.375 4.39932 -2.81527 0
M  V30 3814 H 368.069 2.36107 -1.84103 0
M  V30 3815 H 365.615 1.1347 -0.886599 0
M  V30 3816 H 367.568 4.2066 -0.249602 0
M  V30 3817 H 366.292 3.22546 0.513025 0
M  V30 3818 H 364.951 3.28937 -1.61853 0
M  V30 3819 H 364.599 5.02792 0.144511 0
M  V30 3820 H 364.299 5.68559 -1.48371 0
M  V30 3821 H 365.823 6.07284 -0.635496 0
M  V30 3822 H 367.237 5.07113 -2.67412 0
M  V30 3823 H 365.634 4.9109 -3.44892 0
M  V30 3824 H 366.704 3.50045 -3.35554 0
M  V30 3825 N 368.047 0.979072 1.23499 0
M  V30 3826 C 369.295 0.645941 1.91499 0
M  V30 3827 C 369.616 -0.822948 1.76784 0
M  V30 3828 O 368.886 -1.58854 1.14639 0
M  V30 3829 H 367.466 0.235919 0.708767 0
M  V30 3830 H 370.128 1.2426 1.50152 0
M  V30 3831 H 369.224 0.896411 2.9895 0
M  V30 3832 N 369.525 -1.3858 0.750561 0
M  V30 3833 C 370.488 -2.28836 0.129152 0
M  V30 3834 C 371.488 -1.47045 -0.650714 0
M  V30 3835 O 372.678 -1.6753 -0.477428 0
M  V30 3836 C 369.81 -3.30751 -0.825622 0
M  V30 3837 H 371.003 -2.85294 0.924516 0
M  V30 3838 H 368.556 -1.47489 0.517376 0
M  V30 3839 H 369.291 -2.79378 -1.64677 0
M  V30 3840 H 369.076 -3.91177 -0.268852 0
M  V30 3841 H 370.566 -3.98249 -1.2565 0
M  V30 3842 N 371.003 -0.499398 -1.49478 0
M  V30 3843 C 372.419 -0.155261 -1.58843 0
M  V30 3844 C 372.619 1.34008 -1.50479 0
M  V30 3845 O 371.675 2.11589 -1.37791 0
M  V30 3846 C 372.988 -0.730636 -2.91689 0
M  V30 3847 C 374.536 -0.696599 -3.0515 0
M  V30 3848 C 375.011 -1.25001 -4.40612 0
M  V30 3849 N 376.502 -1.21064 -4.47099 0
M  V30 3850 C 377.237 -1.60905 -5.50361 0
M  V30 3851 N 376.733 -2.08331 -6.60735 0
M  V30 3852 N 378.526 -1.52331 -5.41065 0
M  V30 3853 H 370.677 -1.47162 -1.53158 0
M  V30 3854 H 372.94 -0.610309 -0.725415 0
M  V30 3855 H 372.646 -1.77928 -3.03372 0
M  V30 3856 H 372.52 -0.190161 -3.7672 0
M  V30 3857 H 374.907 0.343204 -2.93097 0
M  V30 3858 H 374.988 -1.2742 -2.21806 0
M  V30 3859 H 374.632 -2.28859 -4.53416 0
M  V30 3860 H 374.562 -0.64836 -5.22593 0
M  V30 3861 H 377.053 -0.863128 -3.67911 0
M  V30 3862 H 377.366 -2.36805 -7.35624 0
M  V30 3863 H 375.711 -2.12304 -6.6178 0
M  V30 3864 H 378.902 -1.151 -4.53729 0
M  V30 3865 H 379.075 -1.83704 -6.21415 0
M  V30 3866 N 372.481 1.55866 -0.233164 0
M  V30 3867 C 373.892 1.847 0.272554 0
M  V30 3868 C 374.243 1.15477 1.58617 0
M  V30 3869 O 373.368 0.42841 2.12117 0
M  V30 3870 C 373.963 3.35071 0.501299 0
M  V30 3871 C 372.522 3.6418 0.951304 0
M  V30 3872 C 371.669 2.77292 0.0208209 0
M  V30 3873 H 374.62 1.52005 -0.456074 0
M  V30 3874 H 374.641 3.55906 1.34577 0
M  V30 3875 H 374.153 3.85424 -0.454936 0
M  V30 3876 H 372.254 3.19293 1.92049 0
M  V30 3877 H 372.367 4.72071 0.817675 0
M  V30 3878 H 370.731 2.49131 0.529723 0
M  V30 3879 H 371.514 3.30448 -0.93054 0
M  V30 3880 N 373.959 -0.0401083 1.57549 0
M  V30 3881 C 375.236 -0.767917 1.79896 0
M  V30 3882 C 375.616 -1.9416 0.82856 0
M  V30 3883 O 374.964 -2.2812 -0.131671 0
M  V30 3884 C 375.174 -1.2113 3.27305 0
M  V30 3885 C 376.522 -1.63175 3.91994 0
M  V30 3886 O 377.546 -1.30616 3.31388 0
M  V30 3887 O 376.405 -2.23565 4.98679 0
M  V30 3888 H 373.499 -0.370441 0.739393 0
M  V30 3889 H 376.045 -0.017737 1.69691 0
M  V30 3890 H 374.817 -0.372937 3.89519 0
M  V30 3891 H 374.44 -2.02183 3.42356 0
M  V30 3892 N 375.437 -1.54477 -0.31217 0
M  V30 3893 C 376.4 -1.83923 -1.36766 0
M  V30 3894 C 377.4 -0.711563 -1.44199 0
M  V30 3895 O 378.59 -0.979866 -1.44029 0
M  V30 3896 C 375.722 -2.0095 -2.75376 0
M  V30 3897 H 376.915 -2.78239 -1.11906 0
M  V30 3898 H 374.468 -1.46369 -0.548257 0
M  V30 3899 H 375.203 -1.08883 -3.05475 0
M  V30 3900 H 374.988 -2.83018 -2.71373 0
M  V30 3901 H 376.478 -2.2514 -3.51713 0
M  V30 3902 N 376.915 0.57481 -1.46744 0
M  V30 3903 C 378.143 1.35856 -1.56047 0
M  V30 3904 C 378.558 1.87691 -0.204365 0
M  V30 3905 O 377.915 1.64049 0.79963 0
M  V30 3906 C 377.966 2.54066 -2.57163 0
M  V30 3907 O 377.687 2.04377 -3.87507 0
M  V30 3908 C 379.188 3.46514 -2.76483 0
M  V30 3909 H 376.408 0.414754 -0.527466 0
M  V30 3910 H 378.952 0.698035 -1.92218 0
M  V30 3911 H 377.107 3.16092 -2.23974 0
M  V30 3912 H 377.521 2.81419 -4.4261 0
M  V30 3913 H 378.995 4.25919 -3.51137 0
M  V30 3914 H 379.472 3.98951 -1.83671 0
M  V30 3915 H 380.078 2.90318 -3.10799 0
M  V30 3916 N 378.394 1.34581 0.820102 0
M  V30 3917 C 379.341 1.2639 1.93117 0
M  V30 3918 C 380.311 0.138554 1.65521 0
M  V30 3919 O 381.496 0.320004 1.88097 0
M  V30 3920 C 378.636 1.02812 3.29429 0
M  V30 3921 C 377.749 2.24146 3.693 0
M  V30 3922 C 376.884 1.93829 4.94574 0
M  V30 3923 C 375.923 3.1129 5.27034 0
M  V30 3924 N 375.06 2.80838 6.43486 0
M  V30 3925 H 379.9 2.21408 1.99455 0
M  V30 3926 H 377.437 1.10077 0.975784 0
M  V30 3927 H 379.395 0.871788 4.0799 0
M  V30 3928 H 378.025 0.114612 3.22596 0
M  V30 3929 H 377.077 2.50691 2.86109 0
M  V30 3930 H 378.389 3.11899 3.89257 0
M  V30 3931 H 377.543 1.74948 5.80929 0
M  V30 3932 H 376.282 1.03341 4.76626 0
M  V30 3933 H 375.287 3.30764 4.39175 0
M  V30 3934 H 376.512 4.02561 5.4692 0
M  V30 3935 H 374.458 1.92929 6.26988 0
M  V30 3936 H 374.375 3.62123 6.63629 0
M  V30 3937 H 375.643 2.65467 7.32903 0
M  V30 3938 N 379.872 -1.04064 1.18357 0
M  V30 3939 C 381.118 -1.77528 0.980397 0
M  V30 3940 C 381.451 -1.87948 -0.48879 0
M  V30 3941 O 380.726 -1.3876 -1.36293 0
M  V30 3942 C 381.009 -3.20797 1.63588 0
M  V30 3943 C 380.862 -3.1832 3.17793 0
M  V30 3944 C 382.181 -4.18911 1.34914 0
M  V30 3945 H 379.3 -0.644443 0.357578 0
M  V30 3946 H 381.942 -1.2156 1.46024 0
M  V30 3947 H 380.092 -3.68586 1.22788 0
M  V30 3948 H 381.764 -2.78521 3.67728 0
M  V30 3949 H 380.007 -2.56351 3.49952 0
M  V30 3950 H 380.678 -4.19489 3.58794 0
M  V30 3951 H 383.154 -3.7967 1.70265 0
M  V30 3952 H 382.03 -5.17374 1.83346 0
M  V30 3953 H 382.291 -4.41262 0.272027 0
M  V30 3954 N 381.35 -0.985608 -1.22978 0
M  V30 3955 C 382.28 -0.549649 -2.26939 0
M  V30 3956 C 383.261 0.419803 -1.64838 0
M  V30 3957 O 384.446 0.31203 -1.91677 0
M  V30 3958 C 381.576 0.143652 -3.47003 0
M  V30 3959 C 380.53 -0.743606 -4.21491 0
M  V30 3960 C 379.856 0.0822027 -5.34637 0
M  V30 3961 C 381.156 -2.03694 -4.80943 0
M  V30 3962 H 382.85 -1.41862 -2.63658 0
M  V30 3963 H 380.396 -0.683571 -1.26741 0
M  V30 3964 H 382.349 0.459985 -4.18882 0
M  V30 3965 H 381.073 1.04711 -3.09359 0
M  V30 3966 H 379.732 -1.04347 -3.51436 0
M  V30 3967 H 379.38 0.986359 -4.93234 0
M  V30 3968 H 379.08 -0.508377 -5.85397 0
M  V30 3969 H 380.604 0.392797 -6.09335 0
M  V30 3970 H 382.018 -1.78504 -5.44802 0
M  V30 3971 H 380.415 -2.57573 -5.42011 0
M  V30 3972 H 381.485 -2.72042 -4.01399 0
M  V30 3973 N 382.828 1.3818 -0.7579 0
M  V30 3974 C 384.077 1.99261 -0.312744 0
M  V30 3975 C 384.39 1.60846 1.11301 0
M  V30 3976 O 385.596 2.14929 1.65885 0
M  V30 3977 C 384.052 3.56294 -0.50821 0
M  V30 3978 C 383.66 4.03657 -1.94333 0
M  V30 3979 C 385.404 4.24313 -0.125982 0
M  V30 3980 C 383.311 5.53347 -2.08712 0
M  V30 3981 H 382.241 0.745456 -0.113185 0
M  V30 3982 H 384.892 1.57889 -0.935056 0
M  V30 3983 H 383.274 3.95575 0.183353 0
M  V30 3984 H 384.448 3.75655 -2.66871 0
M  V30 3985 H 382.763 3.48376 -2.28086 0
M  V30 3986 H 385.36 5.34279 -0.212125 0
M  V30 3987 H 385.703 4.05962 0.921964 0
M  V30 3988 H 386.236 3.90285 -0.769563 0
M  V30 3989 H 382.975 5.76607 -3.11777 0
M  V30 3990 H 382.495 5.83078 -1.4064 0
M  V30 3991 H 384.174 6.19111 -1.87912 0
M  V30 3992 N 384.306 0.507319 1.49211 0
M  V30 3993 C 385.555 -0.0368315 2.01666 0
M  V30 3994 C 385.868 -1.37459 1.39156 0
M  V30 3995 O 387.074 -2.00579 1.82976 0
M  V30 3996 C 385.53 -0.116089 3.59713 0
M  V30 3997 C 385.138 1.2154 4.31198 0
M  V30 3998 C 386.882 -0.610268 4.2009 0
M  V30 3999 C 384.789 1.09796 5.81119 0
M  V30 4000 H 383.719 -0.0175376 0.753796 0
M  V30 4001 H 386.37 0.647691 1.71689 0
M  V30 4002 H 384.752 -0.8652 3.86433 0
M  V30 4003 H 385.926 1.9783 4.16173 0
M  V30 4004 H 384.241 1.64352 3.82593 0
M  V30 4005 H 386.838 -0.715742 5.29888 0
M  V30 4006 H 387.181 -1.61064 3.8388 0
M  V30 4007 H 387.714 0.0824916 3.97714 0
M  V30 4008 H 384.453 2.0728 6.21864 0
M  V30 4009 H 383.973 0.376058 5.9862 0
M  V30 4010 H 385.652 0.779281 6.4229 0
M  V30 4011 N 385.784 -1.5574 0.241426 0
M  V30 4012 C 387.033 -1.97986 -0.385295 0
M  V30 4013 C 387.346 -1.13267 -1.59468 0
M  V30 4014 O 388.552 -1.45501 -2.2922 0
M  V30 4015 C 387.008 -3.52275 -0.736884 0
M  V30 4016 C 386.616 -4.45726 0.450796 0
M  V30 4017 C 388.36 -4.03189 -1.3281 0
M  V30 4018 C 386.267 -5.91352 0.0756662 0
M  V30 4019 H 385.197 -0.739386 -0.147731 0
M  V30 4020 H 387.848 -1.80308 0.340779 0
M  V30 4021 H 386.23 -3.65628 -1.52094 0
M  V30 4022 H 387.404 -4.44131 1.22819 0
M  V30 4023 H 385.719 -4.05264 0.956573 0
M  V30 4024 H 388.316 -5.09505 -1.62201 0
M  V30 4025 H 388.659 -3.50212 -2.25071 0
M  V30 4026 H 389.192 -3.93141 -0.607069 0
M  V30 4027 H 385.931 -6.48354 0.965272 0
M  V30 4028 H 385.451 -5.96095 -0.665635 0
M  V30 4029 H 387.13 -6.46084 -0.344075 0
M  V30 4030 N 387.262 0.0317525 -1.57568 0
M  V30 4031 C 388.49 0.734949 -1.93407 0
M  V30 4032 C 388.905 1.69036 -0.84096 0
M  V30 4033 O 388.262 1.81582 0.182836 0
M  V30 4034 C 388.313 1.49432 -3.29169 0
M  V30 4035 O 388.034 0.577261 -4.3428 0
M  V30 4036 C 389.535 2.29492 -3.79273 0
M  V30 4037 H 386.755 0.206706 -0.638368 0
M  V30 4038 H 389.299 -0.00992046 -2.04498 0
M  V30 4039 H 387.454 2.1911 -3.19483 0
M  V30 4040 H 387.868 1.10952 -5.1263 0
M  V30 4041 H 389.342 2.78172 -4.76785 0
M  V30 4042 H 389.819 3.10794 -3.10328 0
M  V30 4043 H 390.425 1.64894 -3.92033 0
M  V30 4044 N 388.74 1.54641 0.303973 0
M  V30 4045 C 390.017 1.64455 1.05896 0
M  V30 4046 C 390.397 0.490923 2.05312 0
M  V30 4047 O 389.745 -0.512685 2.22674 0
M  V30 4048 C 389.955 3.02331 1.74347 0
M  V30 4049 C 391.303 3.59045 2.26653 0
M  V30 4050 O 392.327 3.04764 1.84384 0
M  V30 4051 O 391.186 4.54081 3.04093 0
M  V30 4052 H 388.28 0.666729 0.489287 0
M  V30 4053 H 390.826 1.66986 0.302298 0
M  V30 4054 H 389.598 3.77734 1.02142 0
M  V30 4055 H 389.221 3.03565 2.56777 0
M  V30 4056 N 390.218 -0.567019 1.47046 0
M  V30 4057 C 391.466 -1.322 1.52864 0
M  V30 4058 C 391.787 -1.94088 0.188388 0
M  V30 4059 O 391.057 -1.7941 -0.786693 0
M  V30 4060 H 389.637 -0.490894 0.563056 0
M  V30 4061 H 392.299 -0.662879 1.83281 0
M  V30 4062 H 391.395 -2.12062 2.2899 0
M  V30 4063 N 391.696 -1.35014 -0.812953 0
M  V30 4064 C 392.606 -1.2951 -1.95613 0
M  V30 4065 C 393.622 -0.20107 -1.72834 0
M  V30 4066 O 394.798 -0.42932 -1.96771 0
M  V30 4067 C 391.863 -1.06033 -3.30088 0
M  V30 4068 C 390.924 -2.24688 -3.65805 0
M  V30 4069 C 390.157 -2.02322 -4.93864 0
M  V30 4070 O 390.38 -0.986464 -5.61805 0
M  V30 4071 O 389.314 -2.89525 -5.27692 0
M  V30 4072 H 393.14 -2.25705 -2.03202 0
M  V30 4073 H 390.725 -1.15321 -0.949811 0
M  V30 4074 H 392.607 -0.94763 -4.10607 0
M  V30 4075 H 391.282 -0.128852 -3.23443 0
M  V30 4076 H 390.189 -2.41521 -2.85689 0
M  V30 4077 H 391.522 -3.16261 -3.77147 0
M  V30 4078 N 393.175 1.03435 -1.18907 0
M  V30 4079 C 394.138 2.09756 -0.923844 0
M  V30 4080 C 395.138 1.60528 0.093416 0
M  V30 4081 O 396.328 1.73631 -0.140727 0
M  V30 4082 C 393.46 3.38692 -0.387354 0
M  V30 4083 H 394.653 2.34719 -1.86674 0
M  V30 4084 H 392.206 1.19959 -1.00197 0
M  V30 4085 H 392.941 3.19396 0.561845 0
M  V30 4086 H 392.726 3.75742 -1.12074 0
M  V30 4087 H 394.216 4.17016 -0.220694 0
M  V30 4088 N 394.653 0.992116 1.22453 0
M  V30 4089 C 395.881 0.685944 1.95198 0
M  V30 4090 C 396.296 -0.749233 1.73297 0
M  V30 4091 O 395.653 -1.50549 1.03156 0
M  V30 4092 C 395.704 0.981395 3.47924 0
M  V30 4093 O 395.425 2.36018 3.6909 0
M  V30 4094 C 396.926 0.692815 4.37853 0
M  V30 4095 H 394.146 0.253821 0.621141 0
M  V30 4096 H 396.69 1.32668 1.55626 0
M  V30 4097 H 394.845 0.386481 3.85467 0
M  V30 4098 H 395.259 2.45884 4.63294 0
M  V30 4099 H 396.733 0.949818 5.43767 0
M  V30 4100 H 397.21 -0.373181 4.37612 0
M  V30 4101 H 397.816 1.26874 4.05935 0
M  V30 4102 N 396.131 -1.37776 0.765217 0
M  V30 4103 C 397.408 -1.93975 0.251596 0
M  V30 4104 C 397.788 -1.69949 -1.25222 0
M  V30 4105 O 397.136 -1.04457 -2.03226 0
M  V30 4106 C 397.346 -3.43487 0.617895 0
M  V30 4107 C 398.694 -4.20564 0.584029 0
M  V30 4108 O 399.718 -3.5182 0.556888 0
M  V30 4109 O 398.577 -5.43138 0.605291 0
M  V30 4110 H 395.671 -0.82509 0.0561806 0
M  V30 4111 H 398.217 -1.47101 0.846128 0
M  V30 4112 H 396.989 -3.5453 1.65602 0
M  V30 4113 H 396.612 -3.976 -0.00403411 0
M  V30 4114 N 397.609 -0.515225 -1.4894 0
M  V30 4115 C 398.834 0.022727 -2.07388 0
M  V30 4116 C 399.259 1.2876 -1.37122 0
M  V30 4117 O 398.617 1.76067 -0.432431 0
M  V30 4118 C 398.665 0.244869 -3.59768 0
M  V30 4119 O 397.769 1.31667 -3.90817 0
M  V30 4120 H 397.11 -0.0325506 -0.663202 0
M  V30 4121 H 399.64 -0.718918 -1.91553 0
M  V30 4122 H 399.65 0.47205 -4.0526 0
M  V30 4123 H 398.325 -0.679194 -4.10317 0
M  V30 4124 H 396.902 1.07331 -3.5712 0
M  V30 4125 N 399.087 1.5561 -0.249682 0
M  V30 4126 C 400.335 1.98618 0.373548 0
M  V30 4127 C 400.656 1.13919 1.58264 0
M  V30 4128 O 399.926 0.222637 1.94631 0
M  V30 4129 H 398.506 0.733571 0.141006 0
M  V30 4130 H 401.168 1.91748 -0.349117 0
M  V30 4131 H 400.264 3.04584 0.680796 0
M  V30 4132 N 400.565 -0.0233959 1.57583 0
M  V30 4133 C 401.513 -1.04063 2.08023 0
M  V30 4134 C 402.507 -1.37084 0.995204 0
M  V30 4135 O 403.713 -1.35923 1.18004 0
M  V30 4136 H 400.088 -0.353144 0.663922 0
M  V30 4137 H 402.059 -0.589453 2.9252 0
M  V30 4138 C 400.808 -2.33123 2.57971 0
M  V30 4139 H 400.131 -2.08577 3.4108 0
M  V30 4140 H 401.571 -3.02632 2.96967 0
M  V30 4141 C 400.03 -3.02483 1.48342 0
M  V30 4142 O 400.56 -3.92541 0.852898 0
M  V30 4143 N 398.766 -2.63909 1.21658 0
M  V30 4144 H 398.313 -1.90758 1.73116 0
M  V30 4145 H 398.271 -3.10633 0.485218 0
M  V30 4146 N 402.043 -1.548 -0.295768 0
M  V30 4147 C 403.292 -1.73538 -1.02798 0
M  V30 4148 C 403.605 -0.531159 -1.8825 0
M  V30 4149 O 404.811 -0.600458 -2.64777 0
M  V30 4150 C 403.267 -3.07051 -1.87744 0
M  V30 4151 C 402.875 -4.34968 -1.07269 0
M  V30 4152 C 404.619 -3.35146 -2.60533 0
M  V30 4153 C 402.526 -5.5953 -1.91521 0
M  V30 4154 H 401.456 -0.646794 -0.387522 0
M  V30 4155 H 404.107 -1.81278 -0.284718 0
M  V30 4156 H 402.489 -2.93289 -2.66078 0
M  V30 4157 H 403.663 -4.5958 -0.335117 0
M  V30 4158 H 401.978 -4.13847 -0.460384 0
M  V30 4159 H 404.575 -4.2541 -3.23929 0
M  V30 4160 H 404.918 -2.54255 -3.29636 0
M  V30 4161 H 405.451 -3.49902 -1.89244 0
M  V30 4162 H 402.19 -6.43103 -1.26878 0
M  V30 4163 H 401.71 -5.39096 -2.62937 0
M  V30 4164 H 403.389 -5.96982 -2.49442 0
M  V30 4165 N 403.521 0.559213 -1.47345 0
M  V30 4166 C 404.798 1.31997 -1.44348 0
M  V30 4167 C 405.178 2.1064 -0.139358 0
M  V30 4168 O 404.526 2.1091 0.879153 0
M  V30 4169 C 404.736 2.22618 -2.68779 0
M  V30 4170 C 406.084 2.83701 -3.1591 0
M  V30 4171 O 407.108 2.32921 -2.69493 0
M  V30 4172 O 405.967 3.75993 -3.966 0
M  V30 4173 H 403.061 0.594251 -0.575147 0
M  V30 4174 H 405.607 0.578282 -1.59543 0
M  V30 4175 H 404.379 1.64093 -3.55231 0
M  V30 4176 H 404.002 3.04085 -2.5616 0
M  V30 4177 N 404.999 1.35443 0.805782 0
M  V30 4178 C 405.962 1.28301 1.89925 0
M  V30 4179 C 406.962 0.194285 1.59622 0
M  V30 4180 O 408.152 0.448036 1.6834 0
M  V30 4181 C 405.284 0.984997 3.2636 0
M  V30 4182 H 406.477 2.2553 1.97677 0
M  V30 4183 H 404.03 1.19979 1.00173 0
M  V30 4184 H 404.765 0.016603 3.24296 0
M  V30 4185 H 404.55 1.77269 3.4974 0
M  V30 4186 H 406.04 0.960651 4.064 0
M  V30 4187 N 406.477 -1.02803 1.19454 0
M  V30 4188 C 407.44 -2.09264 0.934955 0
M  V30 4189 C 408.44 -1.60576 -0.0849015 0
M  V30 4190 O 409.63 -1.73554 0.149933 0
M  V30 4191 C 406.762 -3.38482 0.40531 0
M  V30 4192 H 407.955 -2.33726 1.87916 0
M  V30 4193 H 405.508 -1.19426 1.00832 0
M  V30 4194 H 406.243 -3.19689 -0.544899 0
M  V30 4195 H 406.028 -3.75142 1.14065 0
M  V30 4196 H 407.518 -4.16894 0.242806 0
M  V30 4197 N 407.956 -0.998596 -1.21925 0
M  V30 4198 C 408.903 -0.553621 -2.24062 0
M  V30 4199 C 409.873 0.416999 -1.6078 0
M  V30 4200 O 411.058 0.320482 -1.88089 0
M  V30 4201 C 408.198 0.119959 -3.44891 0
M  V30 4202 C 407.311 -0.893077 -4.22668 0
M  V30 4203 C 406.446 -0.192424 -5.30851 0
M  V30 4204 C 405.485 -1.19344 -6.00353 0
M  V30 4205 N 404.622 -0.520707 -7.00166 0
M  V30 4206 H 409.462 -1.4293 -2.61486 0
M  V30 4207 H 406.999 -0.715838 -1.28507 0
M  V30 4208 H 408.957 0.527459 -4.13852 0
M  V30 4209 H 407.587 0.959389 -3.08214 0
M  V30 4210 H 406.639 -1.41886 -3.52948 0
M  V30 4211 H 407.951 -1.65512 -4.70539 0
M  V30 4212 H 407.105 0.271515 -6.06092 0
M  V30 4213 H 405.844 0.602075 -4.83969 0
M  V30 4214 H 404.849 -1.66795 -5.23889 0
M  V30 4215 H 406.074 -1.98891 -6.49322 0
M  V30 4216 H 404.02 0.254252 -6.55507 0
M  V30 4217 H 403.937 -1.2211 -7.46073 0
M  V30 4218 H 405.205 -0.0797596 -7.79459 0
M  V30 4219 N 409.434 1.37368 -0.772513 0
M  V30 4220 C 410.711 1.93839 -0.26188 0
M  V30 4221 C 411.091 1.7061 1.24319 0
M  V30 4222 O 410.439 1.05534 2.02669 0
M  V30 4223 C 410.649 3.43154 -0.636102 0
M  V30 4224 C 411.997 4.20249 -0.606324 0
M  V30 4225 O 413.021 3.5152 -0.575538 0
M  V30 4226 O 411.88 5.42809 -0.634086 0
M  V30 4227 H 408.974 0.82478 -0.0605555 0
M  V30 4228 H 411.52 1.4665 -0.853917 0
M  V30 4229 H 410.292 3.53647 -1.6748 0
M  V30 4230 H 409.915 3.97596 -0.0170516 0
M  V30 4231 N 410.912 0.523116 1.48665 0
M  V30 4232 C 412.161 -0.01544 2.01694 0
M  V30 4233 C 412.474 -1.35975 1.40606 0
M  V30 4234 O 413.68 -1.98627 1.85093 0
M  V30 4235 C 412.136 -0.0779303 3.59816 0
M  V30 4236 C 411.744 1.26107 4.29885 0
M  V30 4237 C 413.488 -0.565678 4.20714 0
M  V30 4238 C 411.395 1.15954 5.79921 0
M  V30 4239 H 410.325 -0.00954163 0.75394 0
M  V30 4240 H 412.976 0.665865 1.70993 0
M  V30 4241 H 411.358 -0.824165 3.87329 0
M  V30 4242 H 412.532 2.02233 4.14051 0
M  V30 4243 H 410.847 1.68401 3.80828 0
M  V30 4244 H 413.444 -0.6595 5.30617 0
M  V30 4245 H 413.787 -1.56984 3.85567 0
M  V30 4246 H 414.32 0.12467 3.97605 0
M  V30 4247 H 411.059 2.13864 6.19631 0
M  V30 4248 H 410.579 0.439529 5.98187 0
M  V30 4249 H 412.258 0.847361 6.41427 0
M  V30 4250 N 412.39 -1.55475 0.257931 0
M  V30 4251 C 413.639 -1.98383 -0.364275 0
M  V30 4252 C 413.952 -1.14952 -1.58258 0
M  V30 4253 O 415.158 -1.47924 -2.27664 0
M  V30 4254 C 413.614 -3.53037 -0.699479 0
M  V30 4255 C 413.222 -4.45223 0.498046 0
M  V30 4256 C 414.966 -4.04575 -1.28526 0
M  V30 4257 C 412.873 -5.91238 0.138383 0
M  V30 4258 H 411.803 -0.740911 -0.13988 0
M  V30 4259 H 414.454 -1.79936 0.359883 0
M  V30 4260 H 412.836 -3.6722 -1.48207 0
M  V30 4261 H 414.01 -4.42803 1.27522 0
M  V30 4262 H 412.325 -4.04226 0.999503 0
M  V30 4263 H 414.922 -5.11196 -1.56788 0
M  V30 4264 H 415.265 -3.5258 -2.21344 0
M  V30 4265 H 415.798 -3.93762 -0.565337 0
M  V30 4266 H 412.537 -6.47294 1.03398 0
M  V30 4267 H 412.057 -5.96768 -0.602374 0
M  V30 4268 H 413.736 -6.46413 -0.27553 0
M  V30 4269 N 413.868 0.0150385 -1.57593 0
M  V30 4270 C 415.284 0.370907 -1.5523 0
M  V30 4271 C 415.484 1.75735 -0.985882 0
M  V30 4272 O 414.54 2.44944 -0.613077 0
M  V30 4273 C 415.853 0.259908 -2.99575 0
M  V30 4274 C 417.401 0.335959 -3.11192 0
M  V30 4275 C 417.876 0.254253 -4.57294 0
M  V30 4276 N 419.367 0.312618 -4.62144 0
M  V30 4277 C 420.102 0.272505 -5.72752 0
M  V30 4278 N 419.598 0.183864 -6.92556 0
M  V30 4279 N 421.391 0.323267 -5.6117 0
M  V30 4280 H 413.542 -0.892104 -1.92757 0
M  V30 4281 H 415.805 -0.340563 -0.884715 0
M  V30 4282 H 415.511 -0.693403 -3.44797 0
M  V30 4283 H 415.385 1.048 -3.62349 0
M  V30 4284 H 417.772 1.27971 -2.65909 0
M  V30 4285 H 417.853 -0.481739 -2.51223 0
M  V30 4286 H 417.497 -0.685887 -5.03247 0
M  V30 4287 H 417.427 1.09024 -5.15191 0
M  V30 4288 H 419.918 0.38307 -3.75953 0
M  V30 4289 H 420.231 0.15874 -7.72637 0
M  V30 4290 H 418.576 0.149708 -6.94839 0
M  V30 4291 H 421.767 0.390607 -4.66467 0
M  V30 4292 H 421.94 0.288539 -6.47357 0
M  V30 4293 N 415.346 1.54954 0.287554 0
M  V30 4294 C 416.576 1.78622 1.03816 0
M  V30 4295 C 416.984 0.552451 1.80955 0
M  V30 4296 O 416.327 -0.487665 1.77109 0
M  V30 4297 C 416.389 2.94975 2.055 0
M  V30 4298 C 416.053 4.32565 1.47433 0
M  V30 4299 C 417.05 5.12096 0.897436 0
M  V30 4300 C 414.735 4.79195 1.50591 0
M  V30 4301 C 416.729 6.36383 0.359851 0
M  V30 4302 C 414.416 6.03441 0.964459 0
M  V30 4303 C 415.414 6.81872 0.392413 0
M  V30 4304 O 415.102 8.03777 -0.140788 0
M  V30 4305 H 414.834 0.599144 0.313053 0
M  V30 4306 H 417.388 2.02761 0.328225 0
M  V30 4307 H 415.618 2.66493 2.80211 0
M  V30 4308 H 417.307 3.06097 2.6657 0
M  V30 4309 H 418.073 4.77209 0.865841 0
M  V30 4310 H 413.952 4.18167 1.94055 0
M  V30 4311 H 417.496 6.97545 -0.0872951 0
M  V30 4312 H 413.393 6.37813 0.993246 0
M  V30 4313 H 414.161 8.18495 -0.0287617 0
M  V30 4314 N 416.824 -0.551391 1.4764 0
M  V30 4315 C 418.073 -1.30467 1.53822 0
M  V30 4316 C 418.386 -1.94495 0.207661 0
M  V30 4317 O 419.592 -2.71099 0.147533 0
M  V30 4318 C 418.048 -2.36616 2.71184 0
M  V30 4319 C 417.656 -1.78754 4.10793 0
M  V30 4320 C 419.4 -3.13088 2.86663 0
M  V30 4321 C 417.307 -2.82717 5.19447 0
M  V30 4322 H 416.237 -0.490584 0.572576 0
M  V30 4323 H 418.888 -0.58494 1.73927 0
M  V30 4324 H 417.27 -3.11529 2.4447 0
M  V30 4325 H 418.444 -1.10173 4.47435 0
M  V30 4326 H 416.759 -1.14846 4.00249 0
M  V30 4327 H 419.356 -3.90736 3.65007 0
M  V30 4328 H 419.699 -3.67635 1.95321 0
M  V30 4329 H 420.232 -2.45288 3.13175 0
M  V30 4330 H 416.971 -2.33018 6.12685 0
M  V30 4331 H 416.491 -3.4969 4.87316 0
M  V30 4332 H 418.17 -3.46102 5.46646 0
M  V30 4333 N 418.302 -1.35869 -0.798587 0
M  V30 4334 C 419.551 -1.28921 -1.5512 0
M  V30 4335 C 419.864 0.13208 -1.95154 0
M  V30 4336 O 421.07 0.323879 -2.69561 0
M  V30 4337 C 419.526 -2.26141 -2.79979 0
M  V30 4338 C 419.134 -3.73658 -2.47151 0
M  V30 4339 C 420.878 -2.28152 -3.57976 0
M  V30 4340 C 418.785 -4.62679 -3.6835 0
M  V30 4341 H 417.715 -0.479031 -0.582276 0
M  V30 4342 H 420.366 -1.61179 -0.877125 0
M  V30 4343 H 418.748 -1.86865 -3.49138 0
M  V30 4344 H 419.922 -4.21616 -1.85947 0
M  V30 4345 H 418.237 -3.74333 -1.82383 0
M  V30 4346 H 420.834 -2.91875 -4.4801 0
M  V30 4347 H 421.177 -1.28748 -3.95891 0
M  V30 4348 H 421.71 -2.65998 -2.95787 0
M  V30 4349 H 418.449 -5.63111 -3.35538 0
M  V30 4350 H 417.969 -4.19442 -4.28752 0
M  V30 4351 H 419.648 -4.78498 -4.35487 0
M  V30 4352 N 419.78 1.02168 -1.19998 0
M  V30 4353 C 421.028 1.75338 -1.00504 0
M  V30 4354 C 421.349 1.89387 0.464506 0
M  V30 4355 O 420.619 1.43268 1.33608 0
M  V30 4356 H 419.199 0.649564 -0.368885 0
M  V30 4357 H 421.861 1.23205 -1.51018 0
M  V30 4358 H 420.957 2.75892 -1.45912 0
M  V30 4359 N 421.258 1.00505 1.21394 0
M  V30 4360 C 422.507 0.683159 1.89778 0
M  V30 4361 C 422.82 -0.789471 1.7896 0
M  V30 4362 O 424.026 -1.22344 2.42372 0
M  V30 4363 C 422.482 1.17146 3.40301 0
M  V30 4364 C 422.09 2.67017 3.5973 0
M  V30 4365 C 423.834 0.924461 4.14311 0
M  V30 4366 C 421.741 3.09387 5.04017 0
M  V30 4367 H 420.671 0.25183 0.710702 0
M  V30 4368 H 423.322 1.21622 1.37406 0
M  V30 4369 H 421.704 0.566451 3.91928 0
M  V30 4370 H 422.878 3.32968 3.18542 0
M  V30 4371 H 421.193 2.89732 2.99073 0
M  V30 4372 H 423.79 1.21658 5.20676 0
M  V30 4373 H 424.133 -0.139286 4.16067 0
M  V30 4374 H 424.666 1.49226 3.6875 0
M  V30 4375 H 421.405 4.14989 5.07409 0
M  V30 4376 H 420.925 2.48149 5.46061 0
M  V30 4377 H 422.604 3.01371 5.72525 0
M  V30 4378 N 422.737 -1.36956 0.779787 0
M  V30 4379 C 423.985 -1.99097 0.347079 0
M  V30 4380 C 424.306 -1.62206 -1.08232 0
M  V30 4381 O 423.576 -0.891373 -1.74446 0
M  V30 4382 H 422.156 -0.736409 0.125342 0
M  V30 4383 H 424.818 -1.67308 0.999696 0
M  V30 4384 H 423.914 -3.09107 0.431162 0
M  V30 4385 N 424.215 -0.530993 -1.48385 0
M  V30 4386 C 425.162 0.231223 -2.29639 0
M  V30 4387 C 426.132 0.932864 -1.37429 0
M  V30 4388 O 427.317 0.933692 -1.66394 0
M  V30 4389 C 424.457 1.27155 -3.2082 0
M  V30 4390 C 423.57 0.578655 -4.28107 0
M  V30 4391 C 422.705 1.602 -5.06467 0
M  V30 4392 C 421.744 0.892625 -6.05556 0
M  V30 4393 N 420.881 1.86157 -6.76971 0
M  V30 4394 H 425.721 -0.467848 -2.94305 0
M  V30 4395 H 423.258 -0.242556 -1.45086 0
M  V30 4396 H 425.216 1.88703 -3.72085 0
M  V30 4397 H 423.846 1.939 -2.58075 0
M  V30 4398 H 422.898 -0.150782 -3.80101 0
M  V30 4399 H 424.21 0.0217065 -4.98795 0
M  V30 4400 H 423.364 2.29173 -5.61751 0
M  V30 4401 H 422.103 2.19285 -4.35621 0
M  V30 4402 H 421.108 0.188829 -5.49476 0
M  V30 4403 H 422.333 0.307878 -6.78402 0
M  V30 4404 H 420.279 2.44147 -6.08875 0
M  V30 4405 H 420.196 1.35608 -7.43738 0
M  V30 4406 H 421.464 2.54325 -7.36844 0
M  V30 4407 N 425.693 1.55336 -0.266172 0
M  V30 4408 C 426.643 2.18848 0.639497 0
M  V30 4409 C 427.627 1.1503 1.12503 0
M  V30 4410 O 428.819 1.40875 1.0716 0
M  V30 4411 C 425.948 2.90626 1.82733 0
M  V30 4412 C 425.034 4.01723 1.35939 0
M  V30 4413 N 425.425 5.02145 0.606988 0
M  V30 4414 C 423.723 4.1463 1.6431 0
M  V30 4415 C 424.424 5.80572 0.362138 0
M  V30 4416 N 423.4 5.35551 0.931971 0
M  V30 4417 H 427.202 2.93845 0.0567057 0
M  V30 4418 H 424.716 1.62252 -0.0693312 0
M  V30 4419 H 426.713 3.34569 2.48735 0
M  V30 4420 H 425.373 2.17137 2.41416 0
M  V30 4421 H 426.384 5.17271 0.255198 0
M  V30 4422 H 423.061 3.52326 2.23993 0
M  V30 4423 H 424.451 6.71472 -0.239848 0
M  V30 4424 N 427.171 -0.0066808 1.57599 0
M  V30 4425 C 428.418 -0.69292 1.90276 0
M  V30 4426 C 428.746 -1.74148 0.866192 0
M  V30 4427 O 428.001 -1.95268 -0.129933 0
M  V30 4428 C 428.3 -1.37939 3.29708 0
M  V30 4429 C 427.966 -0.464679 4.48499 0
M  V30 4430 C 426.628 -0.212809 4.80729 0
M  V30 4431 C 428.98 0.16551 5.20937 0
M  V30 4432 C 426.308 0.677653 5.82773 0
M  V30 4433 C 428.66 1.04381 6.23929 0
M  V30 4434 C 427.324 1.30492 6.54621 0
M  V30 4435 H 426.594 -0.253558 0.696268 0
M  V30 4436 H 429.241 0.0474123 1.91441 0
M  V30 4437 H 427.546 -2.1936 3.24636 0
M  V30 4438 H 429.243 -1.9163 3.52249 0
M  V30 4439 H 425.833 -0.671153 4.23313 0
M  V30 4440 H 430.017 -0.0160756 4.96297 0
M  V30 4441 H 425.273 0.88803 6.04917 0
M  V30 4442 H 429.447 1.53851 6.79193 0
M  V30 4443 H 427.074 1.99662 7.33512 0
M  V30 4444 N 428.649 -1.55105 -0.279332 0
M  V30 4445 C 429.581 -1.83952 -1.36727 0
M  V30 4446 C 430.594 -0.723642 -1.45833 0
M  V30 4447 O 431.783 -1.00141 -1.47763 0
M  V30 4448 C 428.883 -1.98183 -2.74912 0
M  V30 4449 C 428.056 -3.28787 -2.88475 0
M  V30 4450 C 427.115 -3.33162 -4.07295 0
M  V30 4451 O 426.141 -4.06576 -3.98353 0
M  V30 4452 N 427.343 -2.60109 -5.18964 0
M  V30 4453 H 430.108 -2.77853 -1.12328 0
M  V30 4454 H 427.669 -1.54945 -0.469442 0
M  V30 4455 H 429.661 -1.98488 -3.52682 0
M  V30 4456 H 428.231 -1.11177 -2.92162 0
M  V30 4457 H 427.451 -3.41075 -1.97641 0
M  V30 4458 H 428.739 -4.14933 -2.94463 0
M  V30 4459 H 428.137 -2.00136 -5.29115 0
M  V30 4460 H 426.694 -2.66143 -5.94988 0
M  V30 4461 N 430.127 0.543554 -1.4793 0
M  V30 4462 C 431.355 1.32516 -1.58894 0
M  V30 4463 C 431.77 1.87215 -0.244131 0
M  V30 4464 O 431.127 1.65709 0.764652 0
M  V30 4465 C 431.178 2.48554 -2.62494 0
M  V30 4466 O 430.899 1.96112 -3.91755 0
M  V30 4467 C 432.4 3.40572 -2.8377 0
M  V30 4468 H 429.62 0.403472 -0.536145 0
M  V30 4469 H 432.164 0.657106 -1.93655 0
M  V30 4470 H 430.319 3.1127 -2.30629 0
M  V30 4471 H 430.733 2.71967 -4.4848 0
M  V30 4472 H 432.207 4.18375 -3.60093 0
M  V30 4473 H 432.684 3.94965 -1.92092 0
M  V30 4474 H 433.29 2.8366 -3.16887 0
M  V30 4475 N 431.605 1.3629 0.791371 0
M  V30 4476 C 432.552 1.30458 1.90393 0
M  V30 4477 C 433.522 0.173632 1.6519 0
M  V30 4478 O 434.707 0.35983 1.87376 0
M  V30 4479 C 431.847 1.09777 3.27174 0
M  V30 4480 C 430.96 2.31929 3.64462 0
M  V30 4481 C 430.095 2.04276 4.90352 0
M  V30 4482 C 429.134 3.224 5.20312 0
M  V30 4483 N 428.271 2.94424 6.37385 0
M  V30 4484 H 433.111 2.25589 1.94714 0
M  V30 4485 H 430.648 1.12122 0.952216 0
M  V30 4486 H 432.606 0.958133 4.06049 0
M  V30 4487 H 431.236 0.183014 3.22281 0
M  V30 4488 H 430.288 2.56703 2.80727 0
M  V30 4489 H 431.6 3.20085 3.82553 0
M  V30 4490 H 430.754 1.87231 5.77087 0
M  V30 4491 H 429.493 1.13428 4.74326 0
M  V30 4492 H 428.498 3.40005 4.32061 0
M  V30 4493 H 429.723 4.14071 5.38258 0
M  V30 4494 H 427.669 2.06185 6.22755 0
M  V30 4495 H 427.586 3.76118 6.55798 0
M  V30 4496 H 428.854 2.80953 7.27108 0
M  V30 4497 N 433.083 -1.0153 1.20538 0
M  V30 4498 C 433.993 -2.13557 0.971113 0
M  V30 4499 C 435.009 -1.73845 -0.0734366 0
M  V30 4500 O 436.185 -2.01075 0.114299 0
M  V30 4501 C 433.25 -3.42661 0.527639 0
M  V30 4502 C 432.311 -3.96608 1.64319 0
M  V30 4503 C 431.544 -5.1955 1.22078 0
M  V30 4504 O 431.767 -5.70329 0.0900198 0
M  V30 4505 O 430.701 -5.66681 2.02871 0
M  V30 4506 H 434.527 -2.3619 1.90913 0
M  V30 4507 H 432.112 -1.11946 0.989362 0
M  V30 4508 H 433.994 -4.20404 0.289621 0
M  V30 4509 H 432.669 -3.21441 -0.381779 0
M  V30 4510 H 431.576 -3.20139 1.93551 0
M  V30 4511 H 432.909 -4.22219 2.52966 0
M  V30 4512 N 434.561 -1.01147 -1.20859 0
M  V30 4513 C 435.786 -0.716698 -1.94623 0
M  V30 4514 C 436.211 0.715415 -1.73964 0
M  V30 4515 O 435.569 1.49157 -1.03062 0
M  V30 4516 C 435.617 -1.0513 -3.44935 0
M  V30 4517 O 434.721 -0.160131 -4.12089 0
M  V30 4518 H 434.062 -0.266404 -0.608214 0
M  V30 4519 H 436.592 -1.35346 -1.53436 0
M  V30 4520 H 436.602 -1.00086 -3.95533 0
M  V30 4521 H 435.277 -2.09475 -3.59295 0
M  V30 4522 H 433.854 -0.267657 -3.71938 0
M  V30 4523 N 436.039 1.36541 -0.78704 0
M  V30 4524 C 436.971 2.28761 -0.141773 0
M  V30 4525 C 437.984 1.49365 0.647599 0
M  V30 4526 O 439.173 1.71836 0.483173 0
M  V30 4527 C 436.273 3.28771 0.822368 0
M  V30 4528 C 435.446 4.3732 0.0835594 0
M  V30 4529 C 434.505 5.17307 0.963296 0
M  V30 4530 O 433.531 5.67638 0.421419 0
M  V30 4531 N 434.733 5.33515 2.28784 0
M  V30 4532 H 437.498 2.84777 -0.933919 0
M  V30 4533 H 435.059 1.48682 -0.640735 0
M  V30 4534 H 437.051 3.79169 1.41468 0
M  V30 4535 H 435.621 2.73412 1.5154 0
M  V30 4536 H 434.841 3.88118 -0.689809 0
M  V30 4537 H 436.129 5.0701 -0.426358 0
M  V30 4538 H 435.527 4.94234 2.75226 0
M  V30 4539 H 434.084 5.87165 2.82985 0
M  V30 4540 N 437.518 0.538854 1.48102 0
M  V30 4541 C 438.428 -0.222648 2.33541 0
M  V30 4542 C 439.444 -0.930225 1.47047 0
M  V30 4543 O 440.62 -0.903211 1.80011 0
M  V30 4544 C 437.685 -1.25064 3.23357 0
M  V30 4545 C 436.746 -0.552469 4.2573 0
M  V30 4546 C 435.979 -1.53149 5.11254 0
M  V30 4547 O 436.202 -2.76487 4.9891 0
M  V30 4548 O 435.136 -1.06602 5.92385 0
M  V30 4549 H 438.962 0.477707 2.99919 0
M  V30 4550 H 436.547 0.299669 1.46364 0
M  V30 4551 H 438.429 -1.8445 3.78888 0
M  V30 4552 H 437.104 -1.93325 2.59629 0
M  V30 4553 H 436.011 0.082114 3.7401 0
M  V30 4554 H 437.344 0.0883526 4.92121 0
M  V30 4555 N 438.996 -1.55193 0.274407 0
M  V30 4556 C 440.224 -2.03987 -0.345943 0
M  V30 4557 C 440.639 -1.15279 -1.4952 0
M  V30 4558 O 439.996 -0.172759 -1.8168 0
M  V30 4559 C 440.047 -3.51898 -0.827631 0
M  V30 4560 O 439.768 -4.37231 0.275855 0
M  V30 4561 C 441.269 -4.16577 -1.51587 0
M  V30 4562 H 438.489 -0.666335 -0.0789892 0
M  V30 4563 H 441.033 -2.00423 0.406294 0
M  V30 4564 H 439.188 -3.55909 -1.52996 0
M  V30 4565 H 439.602 -5.24415 -0.0943638 0
M  V30 4566 H 441.076 -5.21678 -1.80433 0
M  V30 4567 H 441.553 -3.64707 -2.44716 0
M  V30 4568 H 442.159 -4.16568 -0.857409 0
M  V30 4569 N 440.474 -0.00167713 -1.576 0
M  V30 4570 C 441.404 0.988091 -2.11563 0
M  V30 4571 C 442.385 1.35736 -1.02517 0
M  V30 4572 O 443.57 1.44082 -1.30208 0
M  V30 4573 C 440.7 2.27941 -2.62031 0
M  V30 4574 C 439.654 2.0517 -3.75619 0
M  V30 4575 C 438.98 3.4033 -4.12407 0
M  V30 4576 C 440.28 1.41294 -5.02825 0
M  V30 4577 H 441.974 0.538771 -2.94513 0
M  V30 4578 H 439.52 0.257712 -1.41675 0
M  V30 4579 H 441.473 2.97539 -2.9841 0
M  V30 4580 H 440.197 2.74989 -1.76205 0
M  V30 4581 H 438.856 1.37998 -3.39635 0
M  V30 4582 H 438.504 3.85085 -3.23603 0
M  V30 4583 H 438.204 3.25909 -4.88935 0
M  V30 4584 H 439.728 4.1124 -4.51347 0
M  V30 4585 H 441.142 2.00851 -5.36965 0
M  V30 4586 H 439.539 1.37356 -5.84169 0
M  V30 4587 H 440.609 0.382362 -4.8339 0
M  V30 4588 N 441.952 1.55251 0.271103 0
M  V30 4589 C 442.902 1.84649 1.33749 0
M  V30 4590 C 443.886 0.705529 1.44607 0
M  V30 4591 O 445.078 0.966916 1.48256 0
M  V30 4592 C 442.207 2.12354 2.69742 0
M  V30 4593 C 441.293 3.32714 2.62988 0
M  V30 4594 N 441.684 4.52575 2.25853 0
M  V30 4595 C 439.982 3.35341 2.94045 0
M  V30 4596 C 440.683 5.34669 2.29136 0
M  V30 4597 N 439.659 4.73123 2.67685 0
M  V30 4598 H 443.461 2.74865 1.0405 0
M  V30 4599 H 440.975 1.55152 0.479738 0
M  V30 4600 H 442.972 2.31572 3.4667 0
M  V30 4601 H 441.632 1.23422 3.00328 0
M  V30 4602 H 442.643 4.78639 1.978 0
M  V30 4603 H 439.32 2.56608 3.2933 0
M  V30 4604 H 440.71 6.40509 2.02971 0
M  V30 4605 N 443.43 -0.535701 1.48216 0
M  V30 4606 C 444.377 -1.64083 1.62312 0
M  V30 4607 C 445.347 -1.59448 0.465365 0
M  V30 4608 O 446.532 -1.77959 0.688135 0
M  V30 4609 C 443.672 -3.0236 1.66349 0
M  V30 4610 C 442.785 -3.17273 2.93193 0
M  V30 4611 C 441.92 -4.46075 2.88427 0
M  V30 4612 C 440.959 -4.54496 4.1 0
M  V30 4613 N 440.096 -5.7468 4.03345 0
M  V30 4614 H 444.936 -1.51374 2.5669 0
M  V30 4615 H 442.473 -0.737059 1.27302 0
M  V30 4616 H 444.431 -3.82461 1.66672 0
M  V30 4617 H 443.061 -3.13854 0.754672 0
M  V30 4618 H 442.113 -2.30462 3.02641 0
M  V30 4619 H 443.425 -3.19357 3.83162 0
M  V30 4620 H 442.579 -5.3446 2.87119 0
M  V30 4621 H 441.318 -4.46504 1.96177 0
M  V30 4622 H 440.323 -3.64519 4.11589 0
M  V30 4623 H 441.548 -4.5581 5.03402 0
M  V30 4624 H 439.494 -5.76017 3.13912 0
M  V30 4625 H 439.411 -5.78234 4.87013 0
M  V30 4626 H 440.679 -6.65367 4.06087 0
M  V30 4627 N 444.908 -1.36708 -0.784132 0
M  V30 4628 C 446.155 -1.31231 -1.54222 0
M  V30 4629 C 446.483 0.106864 -1.94206 0
M  V30 4630 O 445.738 1.07734 -1.63376 0
M  V30 4631 C 446.037 -2.18571 -2.82774 0
M  V30 4632 C 445.703 -3.67039 -2.61903 0
M  V30 4633 C 444.365 -4.07503 -2.55919 0
M  V30 4634 C 446.717 -4.61149 -2.4288 0
M  V30 4635 C 444.045 -5.40211 -2.28886 0
M  V30 4636 C 446.397 -5.94081 -2.17373 0
M  V30 4637 C 445.061 -6.33664 -2.09825 0
M  V30 4638 H 444.331 -0.48021 -0.56434 0
M  V30 4639 H 446.978 -1.68807 -0.904233 0
M  V30 4640 H 445.283 -1.73949 -3.51068 0
M  V30 4641 H 446.98 -2.11655 -3.40592 0
M  V30 4642 H 443.57 -3.34941 -2.67418 0
M  V30 4643 H 447.754 -4.30756 -2.46501 0
M  V30 4644 H 443.01 -5.69855 -2.21529 0
M  V30 4645 H 447.184 -6.66566 -2.01649 0
M  V30 4646 H 444.811 -7.36423 -1.88641 0
M  V30 4647 N 446.386 1.0089 -1.21074 0
M  V30 4648 C 447.349 2.0775 -0.968129 0
M  V30 4649 C 448.349 1.6069 0.0593445 0
M  V30 4650 O 449.539 1.73293 -0.177525 0
M  V30 4651 C 446.671 3.37794 -0.459108 0
M  V30 4652 H 447.864 2.30707 -1.9161 0
M  V30 4653 H 445.417 1.17807 -1.02719 0
M  V30 4654 H 446.152 3.20516 0.49397 0
M  V30 4655 H 445.937 3.7328 -1.20019 0
M  V30 4656 H 447.427 4.16454 -0.309099 0
M  V30 4657 N 447.864 1.01787 1.20321 0
M  V30 4658 C 449.089 0.727009 1.9424 0
M  V30 4659 C 449.514 -0.706179 1.74341 0
M  V30 4660 O 448.872 -1.48609 1.03852 0
M  V30 4661 C 448.92 1.06958 3.44372 0
M  V30 4662 O 448.024 0.181983 4.11998 0
M  V30 4663 H 447.365 0.269626 0.606793 0
M  V30 4664 H 449.895 1.36158 1.52716 0
M  V30 4665 H 449.905 1.02182 3.94997 0
M  V30 4666 H 448.58 2.11378 3.58179 0
M  V30 4667 H 447.157 0.287378 3.71791 0
M  V30 4668 N 449.342 -1.36122 0.79427 0
M  V30 4669 C 450.289 -2.29982 0.194101 0
M  V30 4670 C 451.259 -1.52214 -0.664833 0
M  V30 4671 O 452.444 -1.80702 -0.612498 0
M  V30 4672 C 449.584 -3.38706 -0.661244 0
M  V30 4673 C 448.697 -4.31456 0.216766 0
M  V30 4674 C 447.832 -5.27265 -0.645411 0
M  V30 4675 C 446.871 -6.11653 0.233756 0
M  V30 4676 N 446.008 -6.99636 -0.587682 0
M  V30 4677 H 450.848 -2.80722 0.999965 0
M  V30 4678 H 448.385 -1.38172 0.504677 0
M  V30 4679 H 450.343 -4.00394 -1.17219 0
M  V30 4680 H 448.973 -2.89274 -1.43249 0
M  V30 4681 H 448.025 -3.7088 0.845724 0
M  V30 4682 H 449.337 -4.90724 0.893973 0
M  V30 4683 H 448.491 -5.94266 -1.22198 0
M  V30 4684 H 447.23 -4.68463 -1.35623 0
M  V30 4685 H 446.235 -5.4361 0.82269 0
M  V30 4686 H 447.46 -6.72531 0.942247 0
M  V30 4687 H 445.406 -6.43337 -1.2827 0
M  V30 4688 H 445.323 -7.55993 0.0317402 0
M  V30 4689 H 446.591 -7.71001 -1.14792 0
M  V30 4690 N 450.82 -0.546701 -1.47814 0
M  V30 4691 C 452.231 -0.110564 -1.86372 0
M  V30 4692 C 452.582 1.31678 -1.45449 0
M  V30 4693 O 451.707 1.98889 -0.852758 0
M  V30 4694 C 452.302 -0.193873 -3.38245 0
M  V30 4695 C 450.861 0.187164 -3.75934 0
M  V30 4696 C 450.008 -0.546166 -2.71868 0
M  V30 4697 H 452.959 -0.757022 -1.39481 0
M  V30 4698 H 452.98 0.590218 -3.75895 0
M  V30 4699 H 452.492 -1.23282 -3.67999 0
M  V30 4700 H 450.593 1.22762 -3.51796 0
M  V30 4701 H 450.706 -0.164083 -4.78819 0
M  V30 4702 H 449.07 0.00953904 -2.54698 0
M  V30 4703 H 449.853 -1.58606 -3.04465 0
M  V30 4704 N 452.299 1.55045 -0.282633 0
M  V30 4705 C 453.262 2.21515 0.588539 0
M  V30 4706 C 454.262 1.19535 1.07554 0
M  V30 4707 O 455.452 1.44391 0.974514 0
M  V30 4708 C 452.584 2.88704 1.8128 0
M  V30 4709 H 453.777 2.99899 0.00806397 0
M  V30 4710 H 451.33 1.56265 -0.0333067 0
M  V30 4711 H 452.065 2.14352 2.43359 0
M  V30 4712 H 451.85 3.63443 1.47144 0
M  V30 4713 H 453.34 3.39465 2.43214 0
M  V30 4714 N 453.777 0.010035 1.57597 0
M  V30 4715 C 455.002 -0.687021 1.95691 0
M  V30 4716 C 455.427 -1.65952 0.885519 0
M  V30 4717 O 454.785 -1.80633 -0.15543 0
M  V30 4718 C 454.833 -1.3864 3.32884 0
M  V30 4719 O 453.937 -2.50115 3.27897 0
M  V30 4720 H 453.278 -0.181989 0.638573 0
M  V30 4721 H 455.808 0.0662122 2.04493 0
M  V30 4722 H 455.818 -1.74754 3.6868 0
M  V30 4723 H 454.493 -0.673411 4.10412 0
M  V30 4724 H 453.07 -2.16253 3.03791 0
M  V30 4725 N 455.255 -1.55392 -0.262866 0
M  V30 4726 C 456.165 -1.92077 -1.34698 0
M  V30 4727 C 457.181 -0.819227 -1.53508 0
M  V30 4728 O 458.357 -1.11921 -1.67439 0
M  V30 4729 C 455.422 -2.19407 -2.68443 0
M  V30 4730 C 454.483 -3.42905 -2.58292 0
M  V30 4731 C 453.716 -3.68921 -3.85659 0
M  V30 4732 O 453.939 -2.97275 -4.8681 0
M  V30 4733 O 452.873 -4.62455 -3.85252 0
M  V30 4734 H 456.699 -2.84384 -1.06581 0
M  V30 4735 H 454.284 -1.42069 -0.462264 0
M  V30 4736 H 456.166 -2.38365 -3.47506 0
M  V30 4737 H 454.841 -1.30282 -2.96325 0
M  V30 4738 H 453.748 -3.29272 -1.7757 0
M  V30 4739 H 455.081 -4.32282 -2.35358 0
M  V30 4740 N 456.733 0.527833 -1.48498 0
M  V30 4741 C 457.98 1.28354 -1.56625 0
M  V30 4742 C 458.308 1.93 -0.241096 0
M  V30 4743 O 457.563 1.79967 0.768798 0
M  V30 4744 C 457.862 2.39275 -2.65485 0
M  V30 4745 C 457.528 1.92268 -4.07853 0
M  V30 4746 C 456.19 1.79166 -4.46602 0
M  V30 4747 C 458.542 1.56771 -4.97064 0
M  V30 4748 C 455.87 1.28905 -5.72364 0
M  V30 4749 C 458.222 1.07972 -6.23318 0
M  V30 4750 C 456.886 0.934887 -6.60921 0
M  V30 4751 H 456.156 0.469682 -0.573131 0
M  V30 4752 H 458.803 0.588781 -1.82224 0
M  V30 4753 H 457.108 3.1443 -2.33754 0
M  V30 4754 H 458.805 2.974 -2.68988 0
M  V30 4755 H 455.395 2.03417 -3.77252 0
M  V30 4756 H 459.579 1.65753 -4.67803 0
M  V30 4757 H 454.835 1.16381 -6.00221 0
M  V30 4758 H 459.009 0.795775 -6.91838 0
M  V30 4759 H 456.636 0.543231 -7.58257 0
M  V30 4760 N 458.211 1.37122 0.776871 0
M  V30 4761 C 459.457 1.32243 1.53752 0
M  V30 4762 C 459.79 -0.0944745 1.9397 0
M  V30 4763 O 459.065 -1.05068 1.6368 0
M  V30 4764 C 459.348 2.25681 2.80607 0
M  V30 4765 C 459.201 3.76127 2.46676 0
M  V30 4766 C 460.52 2.17657 3.82509 0
M  V30 4767 H 457.639 0.481704 0.557791 0
M  V30 4768 H 460.281 1.6778 0.891612 0
M  V30 4769 H 458.431 1.95505 3.35723 0
M  V30 4770 H 460.103 4.16877 1.97513 0
M  V30 4771 H 458.346 3.94946 1.79443 0
M  V30 4772 H 459.017 4.36933 3.37333 0
M  V30 4773 H 461.493 2.44245 3.36873 0
M  V30 4774 H 460.369 2.85185 4.69 0
M  V30 4775 H 460.63 1.16785 4.26396 0
M  V30 4776 N 459.689 -1.00246 1.21608 0
M  V30 4777 C 460.636 -2.09073 0.977613 0
M  V30 4778 C 461.606 -1.65815 -0.097297 0
M  V30 4779 O 462.791 -1.90734 0.0503445 0
M  V30 4780 C 459.931 -3.40671 0.551133 0
M  V30 4781 C 459.044 -3.97326 1.69576 0
M  V30 4782 C 458.179 -5.17043 1.2182 0
M  V30 4783 C 457.218 -5.65813 2.335 0
M  V30 4784 N 456.355 -6.76778 1.86859 0
M  V30 4785 H 461.195 -2.28806 1.90924 0
M  V30 4786 H 458.732 -1.12186 0.951452 0
M  V30 4787 H 460.69 -4.16225 0.285097 0
M  V30 4788 H 459.32 -3.20967 -0.343489 0
M  V30 4789 H 458.372 -3.18734 2.07637 0
M  V30 4790 H 459.684 -4.29511 2.53617 0
M  V30 4791 H 458.838 -5.99852 0.908975 0
M  V30 4792 H 457.577 -4.86458 0.347869 0
M  V30 4793 H 456.582 -4.81599 2.65222 0
M  V30 4794 H 457.807 -5.98427 3.21033 0
M  V30 4795 H 455.753 -6.47994 1.02174 0
M  V30 4796 H 455.67 -7.08231 2.64471 0
M  V30 4797 H 456.938 -7.63116 1.58978 0
M  V30 4798 N 461.167 -1.02423 -1.1978 0
M  V30 4799 C 462.416 -0.713265 -1.88667 0
M  V30 4800 C 462.729 0.7609 -1.80193 0
M  V30 4801 O 463.935 1.18473 -2.44288 0
M  V30 4802 C 462.391 -1.22545 -3.38394 0
M  V30 4803 C 461.999 -2.72706 -3.55437 0
M  V30 4804 C 463.743 -0.990257 -4.12788 0
M  V30 4805 C 461.65 -3.17367 -4.99031 0
M  V30 4806 H 460.58 -0.263105 -0.706606 0
M  V30 4807 H 463.231 -1.23792 -1.35454 0
M  V30 4808 H 461.613 -0.628732 -3.90977 0
M  V30 4809 H 462.787 -3.37993 -3.13205 0
M  V30 4810 H 461.102 -2.94453 -2.94425 0
M  V30 4811 H 463.699 -1.29926 -5.18675 0
M  V30 4812 H 464.042 0.0730761 -4.16236 0
M  V30 4813 H 464.575 -1.55074 -3.66329 0
M  V30 4814 H 461.314 -4.23009 -5.00743 0
M  V30 4815 H 460.834 -2.56805 -5.42044 0
M  V30 4816 H 462.513 -3.10441 -5.67658 0
M  V30 4817 N 462.645 1.35699 -0.801477 0
M  V30 4818 C 463.575 2.32436 -0.222658 0
M  V30 4819 C 464.556 1.5723 0.649057 0
M  V30 4820 O 465.741 1.85324 0.580387 0
M  V30 4821 C 462.871 3.41469 0.633719 0
M  V30 4822 C 461.825 4.27774 -0.139083 0
M  V30 4823 C 461.151 5.28082 0.838666 0
M  V30 4824 C 462.451 5.04946 -1.33517 0
M  V30 4825 H 464.145 2.81094 -1.03086 0
M  V30 4826 H 461.691 1.35146 -0.497155 0
M  V30 4827 H 463.644 4.08143 1.04868 0
M  V30 4828 H 462.368 2.91408 1.47475 0
M  V30 4829 H 461.027 3.62673 -0.535156 0
M  V30 4830 H 460.675 4.7429 1.67506 0
M  V30 4831 H 460.375 5.86695 0.32594 0
M  V30 4832 H 461.899 5.97628 1.25194 0
M  V30 4833 H 463.313 5.64593 -0.995349 0
M  V30 4834 H 461.71 5.7303 -1.78202 0
M  V30 4835 H 462.78 4.35886 -2.12442 0
M  V30 4836 N 464.123 0.554532 1.47522 0
M  V30 4837 C 465.4 -0.0360704 1.95567 0
M  V30 4838 C 465.78 -1.48828 1.49711 0
M  V30 4839 O 465.128 -2.16366 0.734717 0
M  V30 4840 C 465.338 0.106631 3.48837 0
M  V30 4841 C 466.686 -0.0400899 4.24581 0
M  V30 4842 O 467.71 0.0340453 3.56184 0
M  V30 4843 O 466.569 -0.199111 5.46137 0
M  V30 4844 H 463.663 -0.0656294 0.824392 0
M  V30 4845 H 466.209 0.620867 1.57935 0
M  V30 4846 H 464.981 1.11727 3.7501 0
M  V30 4847 H 464.604 -0.58804 3.93227 0
M  V30 4848 N 465.601 -1.54893 0.290851 0
M  V30 4849 C 466.829 -2.04343 -0.324288 0
M  V30 4850 C 467.244 -1.16859 -1.48289 0
M  V30 4851 O 466.601 -0.192018 -1.81487 0
M  V30 4852 C 466.652 -3.52756 -0.79026 0
M  V30 4853 O 466.373 -4.36913 0.322213 0
M  V30 4854 C 467.874 -4.18161 -1.4716 0
M  V30 4855 H 465.094 -0.667135 -0.0719173 0
M  V30 4856 H 467.638 -1.99981 0.427529 0
M  V30 4857 H 465.793 -3.57511 -1.49213 0
M  V30 4858 H 466.207 -5.24486 -0.0387372 0
M  V30 4859 H 467.681 -5.23562 -1.7489 0
M  V30 4860 H 468.158 -3.67282 -2.40834 0
M  V30 4861 H 468.764 -4.17454 -0.813178 0
M  V30 4862 N 467.08 -0.0183926 -1.57589 0
M  V30 4863 C 468.327 0.662562 -1.91354 0
M  V30 4864 C 468.655 1.72747 -0.893788 0
M  V30 4865 O 467.91 1.9545 0.0988509 0
M  V30 4866 C 468.209 1.32676 -3.31861 0
M  V30 4867 C 467.875 0.393267 -4.49182 0
M  V30 4868 C 466.537 0.136302 -4.81007 0
M  V30 4869 C 468.889 -0.248366 -5.20608 0
M  V30 4870 C 466.217 -0.770282 -5.81621 0
M  V30 4871 C 468.569 -1.14294 -6.22189 0
M  V30 4872 C 467.233 -1.4089 -6.52462 0
M  V30 4873 H 466.503 0.242448 -0.700214 0
M  V30 4874 H 469.15 -0.0778629 -1.91342 0
M  V30 4875 H 467.455 2.14168 -3.28084 0
M  V30 4876 H 469.152 1.86001 -3.55253 0
M  V30 4877 H 465.742 0.603723 -4.24327 0
M  V30 4878 H 469.926 -0.062883 -4.9626 0
M  V30 4879 H 465.182 -0.984154 -6.03427 0
M  V30 4880 H 469.356 -1.64637 -6.76659 0
M  V30 4881 H 466.983 -2.11306 -7.30242 0
M  V30 4882 N 468.558 1.5553 0.254621 0
M  V30 4883 C 469.468 1.92789 1.33677 0
M  V30 4884 C 470.484 0.827356 1.53071 0
M  V30 4885 O 471.66 1.12807 1.66843 0
M  V30 4886 C 468.725 2.20827 2.67275 0
M  V30 4887 C 467.786 3.4427 2.5647 0
M  V30 4888 C 467.019 3.70961 3.83697 0
M  V30 4889 O 467.242 2.99852 4.85227 0
M  V30 4890 O 466.176 4.64491 3.82794 0
M  V30 4891 H 470.002 2.84945 1.05071 0
M  V30 4892 H 467.587 1.42312 0.454723 0
M  V30 4893 H 469.469 2.40204 3.46237 0
M  V30 4894 H 468.144 1.31851 2.9563 0
M  V30 4895 H 467.051 3.30209 1.75821 0
M  V30 4896 H 468.384 4.33524 2.33062 0
M  V30 4897 N 470.036 -0.519951 1.48776 0
M  V30 4898 C 470.983 -1.62352 1.64044 0
M  V30 4899 C 471.953 -1.58945 0.482251 0
M  V30 4900 O 473.138 -1.77219 0.706971 0
M  V30 4901 C 470.278 -3.00579 1.69547 0
M  V30 4902 C 469.391 -3.14145 2.96541 0
M  V30 4903 C 468.526 -4.42991 2.93142 0
M  V30 4904 C 467.565 -4.50122 4.14797 0
M  V30 4905 N 466.702 -5.7037 4.09418 0
M  V30 4906 H 471.542 -1.48643 2.58281 0
M  V30 4907 H 469.079 -0.723516 1.28077 0
M  V30 4908 H 471.037 -3.80671 1.70719 0
M  V30 4909 H 469.667 -3.13036 0.787918 0
M  V30 4910 H 468.719 -2.27239 3.05068 0
M  V30 4911 H 470.031 -3.15275 3.86527 0
M  V30 4912 H 469.185 -5.31385 2.92772 0
M  V30 4913 H 467.924 -4.44398 2.00902 0
M  V30 4914 H 466.929 -3.60133 4.15433 0
M  V30 4915 H 468.154 -4.50445 5.08208 0
M  V30 4916 H 466.1 -5.72655 3.20004 0
M  V30 4917 H 466.017 -5.73036 4.93119 0
M  V30 4918 H 467.285 -6.61023 4.13121 0
M  V30 4919 N 471.514 -1.37532 -0.769588 0
M  V30 4920 C 472.444 -1.36172 -1.89682 0
M  V30 4921 C 473.425 -0.23001 -1.68538 0
M  V30 4922 O 474.61 -0.43069 -1.89364 0
M  V30 4923 C 471.74 -1.1701 -3.26995 0
M  V30 4924 C 470.694 -2.27216 -3.62708 0
M  V30 4925 C 470.02 -1.93174 -4.98586 0
M  V30 4926 C 471.32 -3.6941 -3.69234 0
M  V30 4927 H 473.014 -2.30499 -1.91078 0
M  V30 4928 H 470.56 -1.10953 -0.917902 0
M  V30 4929 H 472.513 -1.14688 -4.05493 0
M  V30 4930 H 471.237 -0.191395 -3.26039 0
M  V30 4931 H 469.896 -2.28697 -2.86519 0
M  V30 4932 H 469.544 -0.938281 -4.94171 0
M  V30 4933 H 469.244 -2.66973 -5.23449 0
M  V30 4934 H 470.768 -1.92443 -5.79481 0
M  V30 4935 H 472.182 -3.70047 -4.37879 0
M  V30 4936 H 470.579 -4.4228 -4.05597 0
M  V30 4937 H 471.649 -4.0288 -2.69844 0
M  V30 4938 N 472.992 0.995999 -1.22138 0
M  V30 4939 C 473.939 2.08551 -0.988687 0
M  V30 4940 C 474.909 1.65864 0.0885021 0
M  V30 4941 O 476.094 1.90704 -0.0604589 0
M  V30 4942 C 473.234 3.40374 -0.569191 0
M  V30 4943 C 472.347 3.96421 -1.71681 0
M  V30 4944 C 471.482 5.1639 -1.2456 0
M  V30 4945 C 470.521 5.64567 -2.36497 0
M  V30 4946 N 469.658 6.75777 -1.90445 0
M  V30 4947 H 474.498 2.2779 -1.92135 0
M  V30 4948 H 472.035 1.1168 -0.957388 0
M  V30 4949 H 473.993 4.16068 -0.307166 0
M  V30 4950 H 472.623 3.21145 0.326462 0
M  V30 4951 H 471.675 3.17628 -2.09324 0
M  V30 4952 H 472.987 4.2816 -2.55891 0
M  V30 4953 H 472.141 5.99362 -0.940774 0
M  V30 4954 H 470.88 4.86266 -0.373662 0
M  V30 4955 H 469.885 4.80185 -2.67772 0
M  V30 4956 H 471.11 5.96716 -3.24202 0
M  V30 4957 H 469.056 6.47443 -1.05609 0
M  V30 4958 H 468.973 7.06818 -2.68223 0
M  V30 4959 H 470.241 7.62262 -1.63022 0
M  V30 4960 N 474.47 1.03057 1.19235 0
M  V30 4961 C 475.747 0.642608 1.84743 0
M  V30 4962 C 476.127 -0.878577 1.91948 0
M  V30 4963 O 475.475 -1.77597 1.43776 0
M  V30 4964 C 475.685 1.30665 3.23616 0
M  V30 4965 C 477.033 1.43098 3.9976 0
M  V30 4966 O 478.057 1.26396 3.3302 0
M  V30 4967 O 476.916 1.70223 5.19313 0
M  V30 4968 H 474.01 0.223573 0.796206 0
M  V30 4969 H 476.556 1.12883 1.26711 0
M  V30 4970 H 475.328 2.34544 3.13217 0
M  V30 4971 H 474.951 0.808405 3.89295 0
M  V30 4972 N 475.948 -1.35272 0.808662 0
M  V30 4973 C 476.878 -2.32315 0.234981 0
M  V30 4974 C 477.859 -1.57572 -0.64071 0
M  V30 4975 O 479.044 -1.8563 -0.570551 0
M  V30 4976 C 476.174 -3.41801 -0.615601 0
M  V30 4977 C 475.128 -4.27694 0.161767 0
M  V30 4978 C 474.454 -5.28519 -0.810649 0
M  V30 4979 C 475.754 -5.04231 1.36193 0
M  V30 4980 H 477.448 -2.80543 1.04575 0
M  V30 4981 H 474.994 -1.3488 0.504315 0
M  V30 4982 H 476.947 -4.08693 -1.02702 0
M  V30 4983 H 475.671 -2.92186 -1.45928 0
M  V30 4984 H 474.33 -3.62384 0.554382 0
M  V30 4985 H 473.978 -4.75171 -1.64988 0
M  V30 4986 H 473.678 -5.8686 -0.294822 0
M  V30 4987 H 475.202 -5.98283 -1.22023 0
M  V30 4988 H 476.616 -5.64058 1.02528 0
M  V30 4989 H 475.013 -5.72077 1.81239 0
M  V30 4990 H 476.083 -4.34753 2.14751 0
M  V30 4991 N 477.426 -0.562348 -1.47226 0
M  V30 4992 C 478.673 -0.0402165 -2.0246 0
M  V30 4993 C 479.001 1.31169 -1.43614 0
M  V30 4994 O 478.256 1.86805 -0.5833 0
M  V30 4995 C 478.555 0.0969817 -3.57268 0
M  V30 4996 C 478.221 -1.1847 -4.35058 0
M  V30 4997 C 476.883 -1.53588 -4.56031 0
M  V30 4998 C 479.235 -2.03378 -4.79882 0
M  V30 4999 C 476.563 -2.73452 -5.19077 0
M  V30 5000 C 478.915 -3.2245 -5.44251 0
M  V30 5001 C 477.579 -3.57876 -5.63455 0
M  V30 5002 H 476.849 -0.0147163 -0.740854 0
M  V30 5003 H 479.496 -0.734895 -1.76838 0
M  V30 5004 H 477.801 0.87466 -3.81912 0
M  V30 5005 H 479.498 0.516408 -3.97661 0
M  V30 5006 H 476.088 -0.90126 -4.19017 0
M  V30 5007 H 480.272 -1.77553 -4.63453 0
M  V30 5008 H 475.528 -3.01062 -5.32139 0
M  V30 5009 H 479.702 -3.88526 -5.77945 0
M  V30 5010 H 477.329 -4.50849 -6.12078 0
M  V30 5011 N 478.904 1.54736 -0.299062 0
M  V30 5012 C 480.132 2.04512 0.313447 0
M  V30 5013 C 480.547 1.17643 1.47667 0
M  V30 5014 O 479.904 0.20164 1.81383 0
M  V30 5015 C 479.955 3.53171 0.771542 0
M  V30 5016 O 479.676 4.36736 -0.345379 0
M  V30 5017 C 481.177 4.18936 1.4494 0
M  V30 5018 H 478.397 0.667507 0.0683784 0
M  V30 5019 H 480.941 1.99752 -0.438129 0
M  V30 5020 H 479.096 3.58298 1.47314 0
M  V30 5021 H 479.51 5.24499 0.0109219 0
M  V30 5022 H 480.984 5.24482 1.72111 0
M  V30 5023 H 481.461 3.68554 2.38883 0
M  V30 5024 H 482.067 4.17879 0.791028 0
M  V30 5025 N 480.382 0.0267497 1.57577 0
M  V30 5026 C 481.292 -0.971633 2.13533 0
M  V30 5027 C 482.308 -1.35868 1.08701 0
M  V30 5028 O 483.484 -1.44058 1.40746 0
M  V30 5029 C 480.549 -2.23622 2.64941 0
M  V30 5030 C 479.61 -1.90982 3.8448 0
M  V30 5031 C 478.843 -3.11411 4.33427 0
M  V30 5032 O 479.066 -4.23992 3.81558 0
M  V30 5033 O 478 -2.93848 5.25297 0
M  V30 5034 H 481.826 -0.525853 2.99113 0
M  V30 5035 H 479.411 -0.193712 1.48139 0
M  V30 5036 H 481.293 -2.97864 2.98086 0
M  V30 5037 H 479.968 -2.67386 1.82446 0
M  V30 5038 H 478.875 -1.14132 3.56265 0
M  V30 5039 H 480.208 -1.52036 4.6813 0
M  V30 5040 N 481.861 -1.55662 -0.24637 0
M  V30 5041 C 482.791 -1.93377 -1.30873 0
M  V30 5042 C 483.772 -0.798773 -1.50179 0
M  V30 5043 O 484.957 -1.0591 -1.62778 0
M  V30 5044 C 482.087 -2.22893 -2.66338 0
M  V30 5045 C 481.041 -3.38649 -2.61727 0
M  V30 5046 C 480.367 -3.53708 -4.00992 0
M  V30 5047 C 481.667 -4.74323 -2.18666 0
M  V30 5048 H 483.361 -2.82363 -0.995552 0
M  V30 5049 H 480.907 -1.35854 -0.477464 0
M  V30 5050 H 482.86 -2.47866 -3.40794 0
M  V30 5051 H 481.584 -1.30733 -2.99293 0
M  V30 5052 H 480.243 -3.13685 -1.89729 0
M  V30 5053 H 479.891 -2.58967 -4.31214 0
M  V30 5054 H 479.591 -4.31551 -3.98795 0
M  V30 5055 H 481.115 -3.81003 -4.77147 0
M  V30 5056 H 482.529 -4.98665 -2.82854 0
M  V30 5057 H 480.926 -5.55273 -2.27579 0
M  V30 5058 H 481.996 -4.71349 -1.13834 0
M  V30 5059 N 483.339 0.512053 -1.4905 0
M  V30 5060 C 484.271 1.63121 -1.6101 0
M  V30 5061 C 485.284 1.55145 -0.493352 0
M  V30 5062 O 486.473 1.61278 -0.764955 0
M  V30 5063 C 483.573 3.01863 -1.54052 0
M  V30 5064 C 482.746 3.35138 -2.81072 0
M  V30 5065 C 481.805 4.5324 -2.67319 0
M  V30 5066 O 480.831 4.55571 -3.41238 0
M  V30 5067 N 482.033 5.52495 -1.78127 0
M  V30 5068 H 484.798 1.53292 -2.5753 0
M  V30 5069 H 482.359 0.699706 -1.45999 0
M  V30 5070 H 484.351 3.78774 -1.42521 0
M  V30 5071 H 482.921 3.05675 -0.654345 0
M  V30 5072 H 482.141 2.4723 -3.07036 0
M  V30 5073 H 483.429 3.54162 -3.65304 0
M  V30 5074 H 482.827 5.53403 -1.17308 0
M  V30 5075 H 481.384 6.28553 -1.72525 0
M  V30 5076 N 484.817 1.37938 0.762283 0
M  V30 5077 C 485.764 1.34467 1.87583 0
M  V30 5078 C 486.734 0.208633 1.64785 0
M  V30 5079 O 487.919 0.399494 1.86571 0
M  V30 5080 C 485.059 1.16692 3.24772 0
M  V30 5081 C 484.172 2.39608 3.59461 0
M  V30 5082 C 483.307 2.14631 4.85908 0
M  V30 5083 C 482.346 3.33364 5.13357 0
M  V30 5084 N 481.483 3.07877 6.30996 0
M  V30 5085 H 486.323 2.29669 1.89885 0
M  V30 5086 H 483.86 1.14116 0.928219 0
M  V30 5087 H 485.818 1.04405 4.03925 0
M  V30 5088 H 484.448 0.251333 3.2182 0
M  V30 5089 H 483.5 2.626 2.75219 0
M  V30 5090 H 484.812 3.28128 3.75678 0
M  V30 5091 H 483.966 1.99429 5.72986 0
M  V30 5092 H 482.705 1.23463 4.71814 0
M  V30 5093 H 481.71 3.49094 4.24751 0
M  V30 5094 H 482.935 4.25395 5.29354 0
M  V30 5095 H 480.881 2.19348 6.18241 0
M  V30 5096 H 480.798 3.89944 6.47673 0
M  V30 5097 H 482.066 2.96313 7.20985 0
M  V30 5098 N 486.295 -0.989507 1.22664 0
M  V30 5099 C 487.242 -2.08024 0.999733 0
M  V30 5100 C 488.212 -1.65909 -0.0797047 0
M  V30 5101 O 489.397 -1.90669 0.0705715 0
M  V30 5102 C 486.537 -3.40067 0.587234 0
M  V30 5103 C 485.65 -3.95505 1.73781 0
M  V30 5104 C 484.785 -5.15722 1.27297 0
M  V30 5105 C 483.824 -5.63305 2.39488 0
M  V30 5106 N 482.961 -6.74758 1.94026 0
M  V30 5107 H 487.801 -2.26768 1.9334 0
M  V30 5108 H 485.338 -1.11171 0.963297 0
M  V30 5109 H 487.296 -4.15899 0.329227 0
M  V30 5110 H 485.926 -3.21314 -0.309426 0
M  V30 5111 H 484.978 -3.16513 2.11006 0
M  V30 5112 H 486.29 -4.26797 2.58158 0
M  V30 5113 H 485.444 -5.98854 0.972546 0
M  V30 5114 H 484.183 -4.86061 0.399445 0
M  V30 5115 H 483.188 -4.78759 2.70315 0
M  V30 5116 H 484.413 -5.94988 3.27362 0
M  V30 5117 H 482.359 -6.46874 1.09041 0
M  V30 5118 H 482.276 -7.05386 2.71968 0
M  V30 5119 H 483.544 -7.61387 1.67062 0
M  V30 5120 N 487.773 -1.03688 -1.18687 0
M  V30 5121 C 489.022 -0.733235 -1.879 0
M  V30 5122 C 489.335 0.741745 -1.8099 0
M  V30 5123 O 490.541 1.15875 -2.4553 0
M  V30 5124 C 488.997 -1.26127 -3.37076 0
M  V30 5125 C 488.605 -2.76461 -3.52524 0
M  V30 5126 C 490.349 -1.03398 -4.11715 0
M  V30 5127 C 488.256 -3.22642 -4.95637 0
M  V30 5128 H 487.186 -0.270584 -0.703776 0
M  V30 5129 H 489.837 -1.25222 -1.34133 0
M  V30 5130 H 488.219 -0.670165 -3.90288 0
M  V30 5131 H 489.393 -3.41296 -3.09602 0
M  V30 5132 H 487.708 -2.97559 -2.91286 0
M  V30 5133 H 490.305 -1.3542 -5.17267 0
M  V30 5134 H 490.648 0.0289246 -4.1629 0
M  V30 5135 H 491.181 -1.5895 -3.64664 0
M  V30 5136 H 487.92 -4.28296 -4.96228 0
M  V30 5137 H 487.44 -2.62539 -5.39289 0
M  V30 5138 H 489.119 -3.16444 -5.64333 0
M  V30 5139 N 489.251 1.34841 -0.815825 0
M  V30 5140 C 490.481 2.02436 -0.412695 0
M  V30 5141 C 490.889 1.61604 0.983906 0
M  V30 5142 O 490.232 0.813729 1.64694 0
M  V30 5143 C 490.294 3.56953 -0.427182 0
M  V30 5144 C 489.958 4.21083 -1.77589 0
M  V30 5145 C 490.955 4.42107 -2.73564 0
M  V30 5146 C 488.64 4.58006 -2.06243 0
M  V30 5147 C 490.634 4.99169 -3.9637 0
M  V30 5148 C 488.321 5.1478 -3.2931 0
M  V30 5149 C 489.319 5.35304 -4.24191 0
M  V30 5150 O 489.007 5.90878 -5.45086 0
M  V30 5151 H 488.739 0.655631 -0.164695 0
M  V30 5152 H 491.293 1.73246 -1.1034 0
M  V30 5153 H 489.523 3.85372 0.320175 0
M  V30 5154 H 491.212 4.05875 -0.0450875 0
M  V30 5155 H 491.978 4.13953 -2.52721 0
M  V30 5156 H 487.857 4.41339 -1.33196 0
M  V30 5157 H 491.401 5.15105 -4.70439 0
M  V30 5158 H 487.298 5.42362 -3.5002 0
M  V30 5159 H 488.066 6.0932 -5.46508 0
M  V30 5160 N 490.729 0.570148 1.46925 0
M  V30 5161 C 491.975 0.0510284 2.02736 0
M  V30 5162 C 492.308 -1.3006 1.44215 0
M  V30 5163 O 491.583 -1.84932 0.602521 0
M  V30 5164 C 491.866 -0.028215 3.60089 0
M  V30 5165 C 491.719 1.35142 4.29018 0
M  V30 5166 C 493.038 -0.735181 4.33916 0
M  V30 5167 H 490.157 0.0200178 0.736728 0
M  V30 5168 H 492.799 0.73493 1.75211 0
M  V30 5169 H 490.949 -0.610648 3.83671 0
M  V30 5170 H 492.621 1.97806 4.16738 0
M  V30 5171 H 490.864 1.9226 3.88868 0
M  V30 5172 H 491.535 1.24857 5.37694 0
M  V30 5173 H 494.011 -0.240519 4.15404 0
M  V30 5174 H 492.887 -0.759622 5.43618 0
M  V30 5175 H 493.148 -1.79397 4.04066 0
M  V30 5176 N 492.207 -1.54576 0.307264 0
M  V30 5177 C 493.456 -1.99442 -0.300976 0
M  V30 5178 C 493.769 -1.19928 -1.5452 0
M  V30 5179 O 494.975 -1.55092 -2.22842 0
M  V30 5180 C 493.431 -3.55084 -0.586809 0
M  V30 5181 C 493.039 -4.43413 0.639438 0
M  V30 5182 C 494.783 -4.0846 -1.1559 0
M  V30 5183 C 492.69 -5.90499 0.326411 0
M  V30 5184 H 491.62 -0.744986 -0.116238 0
M  V30 5185 H 494.271 -1.787 0.416947 0
M  V30 5186 H 492.653 -3.71749 -1.36449 0
M  V30 5187 H 493.827 -4.38522 1.41545 0
M  V30 5188 H 492.142 -4.00842 1.1276 0
M  V30 5189 H 494.739 -5.15926 -1.40445 0
M  V30 5190 H 495.082 -3.59443 -2.10015 0
M  V30 5191 H 495.615 -3.95362 -0.439778 0
M  V30 5192 H 492.354 -6.43676 1.23939 0
M  V30 5193 H 491.874 -5.98382 -0.412212 0
M  V30 5194 H 493.553 -6.46962 -0.0697393 0
M  V30 5195 N 493.685 -0.035106 -1.57561 0
M  V30 5196 C 494.595 0.960295 -2.14046 0
M  V30 5197 C 495.611 1.3529 -1.0942 0
M  V30 5198 O 496.787 1.43309 -1.41508 0
M  V30 5199 C 493.852 2.22214 -2.66124 0
M  V30 5200 C 492.913 1.8894 -3.85487 0
M  V30 5201 C 492.146 3.09109 -4.35072 0
M  V30 5202 O 492.369 4.21963 -3.83802 0
M  V30 5203 O 491.303 2.91058 -5.26848 0
M  V30 5204 H 495.129 0.509983 -2.99387 0
M  V30 5205 H 492.714 0.185853 -1.48239 0
M  V30 5206 H 494.596 2.96279 -2.99661 0
M  V30 5207 H 493.271 2.66414 -1.83862 0
M  V30 5208 H 492.178 1.12241 -3.56865 0
M  V30 5209 H 493.511 1.49551 -4.6893 0
M  V30 5210 N 495.163 1.55791 0.238111 0
M  V30 5211 C 496.411 1.77681 0.963001 0
M  V30 5212 C 496.732 0.600674 1.85518 0
M  V30 5213 O 496.002 -0.383182 1.92116 0
M  V30 5214 H 494.582 0.655315 0.358568 0
M  V30 5215 H 497.244 1.93239 0.253945 0
M  V30 5216 H 496.34 2.69177 1.57956 0
M  V30 5217 N 496.642 -0.504142 1.49319 0
M  V30 5218 C 497.87 -1.28256 1.62351 0
M  V30 5219 C 498.285 -1.86502 0.293682 0
M  V30 5220 O 497.642 -1.67678 -0.720449 0
M  V30 5221 C 497.693 -2.41507 2.68992 0
M  V30 5222 O 497.414 -1.85656 3.96817 0
M  V30 5223 C 498.915 -3.32929 2.927 0
M  V30 5224 H 496.135 -0.389115 0.546654 0
M  V30 5225 H 498.679 -0.605531 1.95329 0
M  V30 5226 H 496.834 -3.05046 2.38801 0
M  V30 5227 H 497.248 -2.59981 4.55533 0
M  V30 5228 H 498.722 -4.0868 3.71058 0
M  V30 5229 H 499.199 -3.89733 2.02496 0
M  V30 5230 H 499.805 -2.75158 3.24296 0
M  V30 5231 N 498.12 -1.38341 -0.754957 0
M  V30 5232 C 499.345 -1.37882 -1.5493 0
M  V30 5233 C 499.77 0.0296385 -1.88077 0
M  V30 5234 O 499.128 1.01133 -1.50472 0
M  V30 5235 C 499.176 -2.23996 -2.82592 0
M  V30 5236 O 498.28 -1.65612 -3.77686 0
M  V30 5237 H 497.621 -0.470384 -0.468652 0
M  V30 5238 H 500.151 -1.82084 -0.933082 0
M  V30 5239 H 500.161 -2.37806 -3.3153 0
M  V30 5240 H 498.836 -3.26365 -2.57796 0
M  V30 5241 H 497.413 -1.60936 -3.36384 0
M  V30 5242 N 499.598 0.982988 -1.23187 0
M  V30 5243 C 500.545 2.07491 -1.01075 0
M  V30 5244 C 501.515 1.65949 0.070905 0
M  V30 5245 O 502.7 1.90629 -0.0806822 0
M  V30 5246 C 499.84 3.39751 -0.605261 0
M  V30 5247 C 498.953 3.94578 -1.75876 0
M  V30 5248 C 498.088 5.15039 -1.3003 0
M  V30 5249 C 497.127 5.62027 -2.42472 0
M  V30 5250 N 496.264 6.73719 -1.97602 0
M  V30 5251 H 501.104 2.25739 -1.9454 0
M  V30 5252 H 498.641 1.10659 -0.969179 0
M  V30 5253 H 500.599 4.15719 -0.351279 0
M  V30 5254 H 499.229 3.21473 0.292382 0
M  V30 5255 H 498.281 3.1539 -2.12681 0
M  V30 5256 H 499.593 4.25422 -2.60418 0
M  V30 5257 H 498.747 5.9833 -1.00429 0
M  V30 5258 H 497.486 4.85843 -0.425216 0
M  V30 5259 H 496.491 4.77318 -2.7285 0
M  V30 5260 H 497.716 5.93244 -3.30512 0
M  V30 5261 H 495.662 6.46287 -1.1247 0
M  V30 5262 H 495.579 7.03934 -2.75705 0
M  V30 5263 H 496.847 7.6049 -1.71098 0
M  V30 5264 N 501.076 1.04316 1.18135 0
M  V30 5265 C 502.008 0.594444 2.21357 0
M  V30 5266 C 503.021 -0.337215 1.59269 0
M  V30 5267 O 504.21 -0.131337 1.78016 0
M  V30 5268 C 501.31 -0.151251 3.38562 0
M  V30 5269 C 500.483 0.788907 4.30227 0
M  V30 5270 C 499.542 0.0860572 5.2613 0
M  V30 5271 O 498.568 0.717302 5.64662 0
M  V30 5272 N 499.77 -1.17969 5.68387 0
M  V30 5273 H 502.535 1.48227 2.60478 0
M  V30 5274 H 500.096 0.92396 1.32946 0
M  V30 5275 H 502.088 -0.631352 3.99745 0
M  V30 5276 H 500.658 -0.940639 2.98112 0
M  V30 5277 H 499.878 1.44882 3.6661 0
M  V30 5278 H 501.166 1.42738 4.88368 0
M  V30 5279 H 500.564 -1.71302 5.3914 0
M  V30 5280 H 499.121 -1.60402 6.31755 0
M  V30 5281 N 502.554 -1.34406 0.822964 0
M  V30 5282 C 503.831 -1.92733 0.333641 0
M  V30 5283 C 504.211 -1.75107 -1.17901 0
M  V30 5284 O 503.559 -1.12983 -1.98613 0
M  V30 5285 C 503.769 -3.40557 0.763023 0
M  V30 5286 C 505.117 -4.17709 0.761879 0
M  V30 5287 O 506.141 -3.49141 0.705606 0
M  V30 5288 O 505 -5.40082 0.835109 0
M  V30 5289 H 502.094 -0.821964 0.0911249 0
M  V30 5290 H 504.64 -1.4338 0.907757 0
M  V30 5291 H 503.412 -3.47187 1.8049 0
M  V30 5292 H 503.035 -3.97259 0.164605 0
M  V30 5293 N 504.032 -0.577932 -1.46621 0
M  V30 5294 C 504.962 0.145917 -2.33044 0
M  V30 5295 C 505.943 0.888412 -1.45056 0
M  V30 5296 O 507.128 0.864812 -1.73881 0
M  V30 5297 C 504.258 1.16322 -3.27241 0
M  V30 5298 C 503.212 0.535868 -4.24632 0
M  V30 5299 C 502.538 1.65929 -5.08303 0
M  V30 5300 C 503.838 -0.523861 -5.19666 0
M  V30 5301 H 505.532 -0.575636 -2.93814 0
M  V30 5302 H 503.078 -0.278272 -1.41286 0
M  V30 5303 H 505.031 1.67793 -3.86553 0
M  V30 5304 H 503.755 1.91498 -2.64567 0
M  V30 5305 H 502.414 0.0422759 -3.66576 0
M  V30 5306 H 502.062 2.40061 -4.42018 0
M  V30 5307 H 501.762 1.2452 -5.74255 0
M  V30 5308 H 503.286 2.17686 -5.70478 0
M  V30 5309 H 504.7 -0.0944059 -5.73222 0
M  V30 5310 H 503.097 -0.858 -5.93935 0
M  V30 5311 H 504.167 -1.41197 -4.63887 0
M  V30 5312 N 505.51 1.54411 -0.315457 0
M  V30 5313 C 506.738 2.04833 0.291738 0
M  V30 5314 C 507.153 1.19203 1.46411 0
M  V30 5315 O 506.51 0.220867 1.81159 0
M  V30 5316 C 506.561 3.53969 0.73404 0
M  V30 5317 O 506.282 4.36346 -0.391682 0
M  V30 5318 C 507.783 4.2045 1.40489 0
M  V30 5319 H 505.003 0.668195 0.0612947 0
M  V30 5320 H 507.547 1.99276 -0.45929 0
M  V30 5321 H 505.702 3.5984 1.43506 0
M  V30 5322 H 506.116 5.24481 -0.0447088 0
M  V30 5323 H 507.59 5.26278 1.66539 0
M  V30 5324 H 508.067 3.71067 2.3496 0
M  V30 5325 H 508.673 4.18694 0.746662 0
M  V30 5326 N 506.988 0.0434614 1.5754 0
M  V30 5327 C 508.213 -0.645358 1.97104 0
M  V30 5328 C 508.638 -1.64037 0.920521 0
M  V30 5329 O 507.996 -1.80922 -0.11708 0
M  V30 5330 C 508.044 -1.31547 3.35749 0
M  V30 5331 O 507.148 -2.43103 3.33129 0
M  V30 5332 H 506.489 -0.168403 0.64229 0
M  V30 5333 H 509.019 0.109573 2.04306 0
M  V30 5334 H 509.029 -1.66895 3.72304 0
M  V30 5335 H 507.704 -0.586205 4.11748 0
M  V30 5336 H 506.281 -2.0976 3.0831 0
M  V30 5337 N 508.466 -1.55915 -0.229846 0
M  V30 5338 C 509.713 -1.78542 -0.955452 0
M  V30 5339 C 510.041 -0.610785 -1.84661 0
M  V30 5340 O 509.296 0.405213 -1.91459 0
M  V30 5341 C 509.595 -3.06845 -1.8325 0
M  V30 5342 C 509.261 -4.37395 -1.09528 0
M  V30 5343 C 507.923 -4.72868 -0.891598 0
M  V30 5344 C 510.275 -5.18029 -0.574046 0
M  V30 5345 C 507.603 -5.86496 -0.154655 0
M  V30 5346 C 509.955 -6.32423 0.149513 0
M  V30 5347 C 508.619 -6.66504 0.364519 0
M  V30 5348 H 507.889 -0.653333 -0.349625 0
M  V30 5349 H 510.536 -1.90183 -0.224235 0
M  V30 5350 H 508.841 -2.90291 -2.63132 0
M  V30 5351 H 510.538 -3.21553 -2.39592 0
M  V30 5352 H 507.128 -4.09538 -1.26399 0
M  V30 5353 H 511.312 -4.91066 -0.718899 0
M  V30 5354 H 506.568 -6.11396 0.0222356 0
M  V30 5355 H 510.742 -6.94137 0.560947 0
M  V30 5356 H 508.369 -7.54397 0.937495 0
M  V30 5357 N 509.944 0.496216 -1.49584 0
M  V30 5358 C 510.892 1.61805 -1.67098 0
M  V30 5359 C 511.886 1.60667 -0.536877 0
M  V30 5360 O 513.092 1.65118 -0.716654 0
M  V30 5361 H 509.467 0.53646 -0.526986 0
M  V30 5362 H 511.438 1.44187 -2.61252 0
M  V30 5363 C 510.187 2.99912 -1.75921 0
M  V30 5364 H 509.51 3.01496 -2.62565 0
M  V30 5365 H 510.95 3.77931 -1.92209 0
M  V30 5366 C 509.409 3.33092 -0.505088 0
M  V30 5367 O 509.939 4.00019 0.367085 0
M  V30 5368 N 508.145 2.88278 -0.366599 0
M  V30 5369 H 507.692 2.33989 -1.07735 0
M  V30 5370 H 507.65 3.10846 0.47142 0
M  V30 5371 N 511.423 1.38739 0.74761 0
M  V30 5372 C 512.356 1.3083 1.86972 0
M  V30 5373 C 513.334 0.184229 1.61553 0
M  V30 5374 O 514.518 0.36256 1.8498 0
M  V30 5375 C 511.645 1.02854 3.22705 0
M  V30 5376 C 510.691 2.17281 3.67003 0
M  V30 5377 S 511.524 3.79468 3.77842 0
M  V30 5378 C 512.68 3.53692 5.16385 0
M  V30 5379 H 512.913 2.258 1.93395 0
M  V30 5380 H 510.446 1.24646 0.911199 0
M  V30 5381 H 512.404 0.87397 4.01089 0
M  V30 5382 H 511.065 0.0959295 3.13953 0
M  V30 5383 H 510.258 1.93267 4.65472 0
M  V30 5384 H 509.86 2.28876 2.9579 0
M  V30 5385 H 512.152 3.10176 6.02327 0
M  V30 5386 H 513.095 4.51576 5.45422 0
M  V30 5387 H 513.503 2.8807 4.85464 0
M  V30 5388 N 512.901 -0.976442 1.23707 0
M  V30 5389 C 513.811 -2.10359 1.03856 0
M  V30 5390 C 514.827 -1.73991 -0.0180919 0
M  V30 5391 O 516.003 -2.0061 0.178211 0
M  V30 5392 C 513.068 -3.40809 0.636387 0
M  V30 5393 C 512.129 -3.91179 1.76854 0
M  V30 5394 C 511.362 -5.15404 1.38546 0
M  V30 5395 O 511.585 -5.69754 0.27142 0
M  V30 5396 O 510.519 -5.5994 2.20797 0
M  V30 5397 H 514.345 -2.29997 1.98331 0
M  V30 5398 H 511.93 -1.08742 1.02448 0
M  V30 5399 H 513.812 -4.19269 0.423223 0
M  V30 5400 H 512.487 -3.22493 -0.279322 0
M  V30 5401 H 511.394 -3.13819 2.03638 0
M  V30 5402 H 512.727 -4.13958 2.6627 0
M  V30 5403 N 514.379 -1.04941 -1.1758 0
M  V30 5404 C 515.309 -0.669172 -2.23706 0
M  V30 5405 C 516.29 0.331835 -1.66832 0
M  V30 5406 O 517.475 0.209988 -1.93061 0
M  V30 5407 C 514.605 -0.0404889 -3.47276 0
M  V30 5408 C 513.559 -0.965983 -4.16957 0
M  V30 5409 C 512.885 -0.201312 -5.34321 0
M  V30 5410 C 514.185 -2.28902 -4.69469 0
M  V30 5411 H 515.879 -1.55639 -2.55767 0
M  V30 5412 H 513.425 -0.749793 -1.22939 0
M  V30 5413 H 515.378 0.237298 -4.20731 0
M  V30 5414 H 514.102 0.881658 -3.14475 0
M  V30 5415 H 512.761 -1.22829 -3.45411 0
M  V30 5416 H 512.409 0.723519 -4.97769 0
M  V30 5417 H 512.109 -0.817968 -5.81879 0
M  V30 5418 H 513.633 0.0692499 -6.10561 0
M  V30 5419 H 515.047 -2.07132 -5.34574 0
M  V30 5420 H 513.444 -2.85942 -5.27596 0
M  V30 5421 H 514.514 -2.92937 -3.86414 0
M  V30 5422 N 515.857 1.33968 -0.830081 0
M  V30 5423 C 517.082 2.02813 -0.433796 0
M  V30 5424 C 517.507 1.62076 0.954614 0
M  V30 5425 O 516.865 0.808955 1.62252 0
M  V30 5426 C 516.913 3.56348 -0.552115 0
M  V30 5427 O 516.017 4.10202 0.425191 0
M  V30 5428 H 515.358 0.639817 -0.177567 0
M  V30 5429 H 517.888 1.7106 -1.12248 0
M  V30 5430 H 517.898 4.05722 -0.430513 0
M  V30 5431 H 516.573 3.85344 -1.56471 0
M  V30 5432 H 515.15 3.71979 0.261878 0
M  V30 5433 N 517.335 0.585699 1.46312 0
M  V30 5434 C 518.56 0.0762461 2.0726 0
M  V30 5435 C 518.985 -1.22071 1.43109 0
M  V30 5436 O 518.343 -1.73804 0.515942 0
M  V30 5437 C 518.391 -0.0729404 3.60526 0
M  V30 5438 O 517.495 -1.1287 3.96654 0
M  V30 5439 H 516.836 0.0641558 0.660893 0
M  V30 5440 H 519.366 0.809492 1.87905 0
M  V30 5441 H 519.376 -0.278158 4.07051 0
M  V30 5442 H 518.051 0.874188 4.06609 0
M  V30 5443 H 516.628 -0.901703 3.61834 0
M  V30 5444 N 518.813 -1.54241 0.323641 0
M  V30 5445 C 520.038 -2.05452 -0.283605 0
M  V30 5446 C 520.463 -1.19823 -1.44997 0
M  V30 5447 O 519.821 -0.207358 -1.8011 0
M  V30 5448 C 519.869 -3.53823 -0.695795 0
M  V30 5449 O 518.973 -3.71134 -1.79815 0
M  V30 5450 H 518.314 -0.662024 -0.0511917 0
M  V30 5451 H 520.844 -1.99079 0.472073 0
M  V30 5452 H 520.854 -3.96094 -0.978434 0
M  V30 5453 H 519.529 -4.15602 0.157287 0
M  V30 5454 H 518.106 -3.40768 -1.51431 0
M  V30 5455 N 520.291 -0.0518155 -1.57515 0
M  V30 5456 C 521.539 0.620595 -1.92336 0
M  V30 5457 C 521.86 1.71345 -0.930907 0
M  V30 5458 O 521.13 1.95885 0.0241341 0
M  V30 5459 H 519.71 0.232226 -0.709986 0
M  V30 5460 H 522.372 -0.104969 -1.94617 0
M  V30 5461 H 521.468 1.05879 -2.93592 0
M  V30 5462 N 521.769 1.56035 0.221574 0
M  V30 5463 C 523.018 1.78245 0.944016 0
M  V30 5464 C 523.331 0.620371 1.85501 0
M  V30 5465 O 524.537 0.726103 2.6161 0
M  V30 5466 C 522.993 3.15659 1.7288 0
M  V30 5467 C 522.601 4.39591 0.863942 0
M  V30 5468 C 524.345 3.47195 2.44246 0
M  V30 5469 C 522.252 5.6803 1.64607 0
M  V30 5470 H 521.182 0.664547 0.356222 0
M  V30 5471 H 523.833 1.8243 0.197904 0
M  V30 5472 H 522.215 3.0565 2.51781 0
M  V30 5473 H 523.389 4.60655 0.115464 0
M  V30 5474 H 521.704 4.15572 0.262407 0
M  V30 5475 H 524.301 4.40381 3.03263 0
M  V30 5476 H 524.644 2.69693 3.1713 0
M  V30 5477 H 525.177 3.58533 1.72334 0
M  V30 5478 H 521.916 6.48425 0.960507 0
M  V30 5479 H 521.436 5.51027 2.36917 0
M  V30 5480 H 523.115 6.08203 2.20675 0
M  V30 5481 N 523.247 -0.488276 1.49845 0
M  V30 5482 C 524.472 -1.26997 1.63971 0
M  V30 5483 C 524.897 -1.85427 0.315994 0
M  V30 5484 O 524.255 -1.66475 -0.718032 0
M  V30 5485 C 524.303 -2.36689 2.72049 0
M  V30 5486 O 523.407 -3.40882 2.32107 0
M  V30 5487 H 522.748 -0.374376 0.548396 0
M  V30 5488 H 525.278 -0.583104 1.96115 0
M  V30 5489 H 525.288 -2.82262 2.94605 0
M  V30 5490 H 523.963 -1.93529 3.68129 0
M  V30 5491 H 522.54 -3.01139 2.19931 0
M  V30 5492 N 524.725 -1.39134 -0.740242 0
M  V30 5493 C 525.688 -1.37217 -1.83587 0
M  V30 5494 C 526.688 -0.270221 -1.58513 0
M  V30 5495 O 527.878 -0.527843 -1.6601 0
M  V30 5496 C 525.01 -1.13959 -3.21288 0
M  V30 5497 H 526.203 -2.34705 -1.86691 0
M  V30 5498 H 523.756 -1.24622 -0.94335 0
M  V30 5499 H 524.491 -0.17131 -3.23847 0
M  V30 5500 H 524.276 -1.93754 -3.40884 0
M  V30 5501 H 525.766 -1.15346 -4.01354 0
M  V30 5502 N 526.204 0.969867 -1.24223 0
M  V30 5503 C 527.481 1.68774 -0.988664 0
M  V30 5504 C 527.861 2.05342 0.489673 0
M  V30 5505 O 527.209 1.75486 1.46345 0
M  V30 5506 C 527.419 2.92135 -1.90941 0
M  V30 5507 C 528.767 3.64422 -2.17903 0
M  V30 5508 O 529.791 3.02188 -1.88576 0
M  V30 5509 O 528.65 4.76446 -2.67697 0
M  V30 5510 H 525.744 0.737736 -0.37373 0
M  V30 5511 H 528.29 1.02415 -1.35312 0
M  V30 5512 H 527.062 2.61788 -2.90831 0
M  V30 5513 H 526.685 3.66228 -1.54798 0
M  V30 5514 N 527.682 1.05563 1.17022 0
M  V30 5515 C 528.612 0.681026 2.23348 0
M  V30 5516 C 529.593 -0.322983 1.67005 0
M  V30 5517 O 530.778 -0.199746 1.9317 0
M  V30 5518 C 527.908 0.0589053 3.4725 0
M  V30 5519 C 526.862 0.988082 4.16438 0
M  V30 5520 C 526.188 0.229646 5.34207 0
M  V30 5521 C 527.488 2.31388 4.68249 0
M  V30 5522 H 529.182 1.56993 2.54938 0
M  V30 5523 H 526.728 0.756302 1.2254 0
M  V30 5524 H 528.681 -0.214982 4.20851 0
M  V30 5525 H 527.405 -0.864968 3.14938 0
M  V30 5526 H 526.064 1.24659 3.44754 0
M  V30 5527 H 525.712 -0.697111 4.98146 0
M  V30 5528 H 525.412 0.848815 5.81437 0
M  V30 5529 H 526.936 -0.0368694 6.10589 0
M  V30 5530 H 528.35 2.09964 5.33468 0
M  V30 5531 H 526.747 2.88736 5.26072 0
M  V30 5532 H 527.817 2.94982 3.84855 0
M  V30 5533 N 529.16 -1.33526 0.837174 0
M  V30 5534 C 530.385 -2.0258 0.444545 0
M  V30 5535 C 530.81 -1.6258 -0.946006 0
M  V30 5536 O 530.168 -0.817548 -1.6182 0
M  V30 5537 C 530.216 -3.5605 0.571006 0
M  V30 5538 O 529.32 -4.10422 -0.403431 0
M  V30 5539 H 528.661 -0.638866 0.180958 0
M  V30 5540 H 531.191 -1.70462 1.13154 0
M  V30 5541 H 531.201 -4.05488 0.452024 0
M  V30 5542 H 529.876 -3.84509 1.58512 0
M  V30 5543 H 528.453 -3.72113 -0.242147 0
M  V30 5544 N 530.638 -0.59345 -1.46 0
M  V30 5545 C 532.054 -0.255965 -1.57534 0
M  V30 5546 C 532.254 1.24167 -1.58697 0
M  V30 5547 O 531.31 2.02398 -1.50968 0
M  V30 5548 C 532.623 -0.91466 -2.86451 0
M  V30 5549 C 534.171 -0.889253 -3.00102 0
M  V30 5550 C 534.646 -1.52769 -4.3177 0
M  V30 5551 N 536.137 -1.49253 -4.38495 0
M  V30 5552 C 536.872 -1.9558 -5.39014 0
M  V30 5553 N 536.368 -2.49929 -6.46148 0
M  V30 5554 N 538.161 -1.86432 -5.30282 0
M  V30 5555 H 530.312 -1.56604 -1.43489 0
M  V30 5556 H 532.575 -0.655207 -0.685133 0
M  V30 5557 H 532.281 -1.96861 -2.91442 0
M  V30 5558 H 532.155 -0.429356 -3.74748 0
M  V30 5559 H 534.542 0.156111 -2.94687 0
M  V30 5560 H 534.623 -1.41268 -2.13253 0
M  V30 5561 H 534.267 -2.57231 -4.37944 0
M  V30 5562 H 534.197 -0.979398 -5.17412 0
M  V30 5563 H 536.688 -1.09536 -3.61677 0
M  V30 5564 H 537.001 -2.83109 -7.19075 0
M  V30 5565 H 535.346 -2.53961 -6.46938 0
M  V30 5566 H 538.537 -1.43722 -4.4549 0
M  V30 5567 H 538.71 -2.22852 -6.08474 0
M  V30 5568 N 532.116 1.54067 -0.331816 0
M  V30 5569 C 533.364 2.00319 0.267739 0
M  V30 5570 C 533.685 1.22148 1.52003 0
M  V30 5571 O 532.955 0.325494 1.93177 0
M  V30 5572 H 531.535 0.740014 0.101922 0
M  V30 5573 H 534.197 1.89628 -0.450267 0
M  V30 5574 H 533.293 3.07765 0.518385 0
M  V30 5575 N 533.594 0.0601682 1.57485 0
M  V30 5576 C 534.544 -0.920969 2.08572 0
M  V30 5577 C 535.528 -1.26617 0.992827 0
M  V30 5578 O 536.72 -1.24708 1.25606 0
M  V30 5579 C 533.849 -2.19267 2.64153 0
M  V30 5580 C 532.935 -1.87447 3.80427 0
M  V30 5581 N 533.326 -1.26025 4.89848 0
M  V30 5582 C 531.624 -2.17265 3.89502 0
M  V30 5583 C 532.325 -1.12036 5.70809 0
M  V30 5584 N 531.301 -1.62624 5.18705 0
M  V30 5585 H 535.103 -0.441561 2.90564 0
M  V30 5586 H 532.617 -0.144043 1.6176 0
M  V30 5587 H 534.614 -2.90462 2.99061 0
M  V30 5588 H 533.274 -2.67806 1.83603 0
M  V30 5589 H 534.285 -0.931336 5.09457 0
M  V30 5590 H 530.962 -2.68262 3.19909 0
M  V30 5591 H 532.352 -0.642783 6.68818 0
M  V30 5592 N 535.072 -1.5615 -0.213296 0
M  V30 5593 C 536.035 -1.92249 -1.24792 0
M  V30 5594 C 537.035 -0.801828 -1.39382 0
M  V30 5595 O 538.225 -1.06948 -1.37506 0
M  V30 5596 C 535.357 -2.18056 -2.62039 0
M  V30 5597 H 536.55 -2.84793 -0.939845 0
M  V30 5598 H 534.103 -1.49559 -0.454062 0
M  V30 5599 H 534.838 -1.2809 -2.97932 0
M  V30 5600 H 534.623 -2.99703 -2.52825 0
M  V30 5601 H 536.113 -2.47051 -3.36683 0
M  V30 5602 N 536.55 0.480323 -1.50102 0
M  V30 5603 C 537.796 1.23489 -1.60867 0
M  V30 5604 C 538.129 1.91809 -0.303827 0
M  V30 5605 O 537.404 1.81694 0.694092 0
M  V30 5606 C 537.687 2.28578 -2.78252 0
M  V30 5607 C 537.54 1.64624 -4.18592 0
M  V30 5608 C 538.859 3.2997 -2.91218 0
M  V30 5609 H 535.978 0.447605 -0.585507 0
M  V30 5610 H 538.62 0.530005 -1.82458 0
M  V30 5611 H 536.77 2.88697 -2.59974 0
M  V30 5612 H 538.442 1.08173 -4.48438 0
M  V30 5613 H 536.685 0.949645 -4.23278 0
M  V30 5614 H 537.356 2.40946 -4.96638 0
M  V30 5615 H 539.832 2.79864 -3.07921 0
M  V30 5616 H 538.708 4.00839 -3.74993 0
M  V30 5617 H 538.969 3.93541 -2.0144 0
M  V30 5618 N 538.028 1.39524 0.732853 0
M  V30 5619 C 539.274 1.37068 1.49467 0
M  V30 5620 C 539.607 -0.0327166 1.94172 0
M  V30 5621 O 538.882 -0.998071 1.66939 0
M  V30 5622 C 539.165 2.34494 2.73285 0
M  V30 5623 C 539.018 3.83784 2.34585 0
M  V30 5624 C 540.337 2.29717 3.75391 0
M  V30 5625 H 537.456 0.499206 0.542183 0
M  V30 5626 H 540.098 1.70532 0.837783 0
M  V30 5627 H 538.248 2.06087 3.29333 0
M  V30 5628 H 539.92 4.22949 1.84151 0
M  V30 5629 H 538.163 4.00455 1.66787 0
M  V30 5630 H 538.834 4.47444 3.23262 0
M  V30 5631 H 541.31 2.54839 3.28932 0
M  V30 5632 H 540.186 2.99962 4.59689 0
M  V30 5633 H 540.447 1.30291 4.22465 0
M  V30 5634 N 539.506 -0.963266 1.24736 0
M  V30 5635 C 540.754 -1.70343 1.08755 0
M  V30 5636 C 541.075 -1.91387 -0.373619 0
M  V30 5637 O 540.345 -1.4948 -1.2662 0
M  V30 5638 H 538.925 -0.631224 0.399456 0
M  V30 5639 H 541.587 -1.15859 1.56725 0
M  V30 5640 H 540.683 -2.68616 1.58909 0
M  V30 5641 N 540.985 -1.06182 -1.16461 0
M  V30 5642 C 541.948 -0.675723 -2.19013 0
M  V30 5643 C 542.948 0.277963 -1.58379 0
M  V30 5644 O 544.138 0.0604962 -1.74095 0
M  V30 5645 C 541.27 0.00591459 -3.40899 0
M  V30 5646 H 542.463 -1.58353 -2.54685 0
M  V30 5647 H 540.016 -0.856908 -1.30716 0
M  V30 5648 H 540.751 0.92652 -3.10783 0
M  V30 5649 H 540.536 -0.67984 -3.86161 0
M  V30 5650 H 542.026 0.26181 -4.16778 0
M  V30 5651 N 542.463 1.3308 -0.844243 0
M  V30 5652 C 543.709 1.97898 -0.443206 0
M  V30 5653 C 544.042 1.66699 0.99625 0
M  V30 5654 O 543.317 0.949704 1.69738 0
M  V30 5655 C 543.6 3.53801 -0.670606 0
M  V30 5656 C 543.453 3.94667 -2.15772 0
M  V30 5657 C 544.772 4.39936 -0.120226 0
M  V30 5658 H 541.891 0.718861 -0.162504 0
M  V30 5659 H 544.533 1.57633 -1.06075 0
M  V30 5660 H 542.683 3.88229 -0.14496 0
M  V30 5661 H 544.355 3.70469 -2.74865 0
M  V30 5662 H 542.598 3.44203 -2.6402 0
M  V30 5663 H 543.269 5.03275 -2.26757 0
M  V30 5664 H 545.745 4.12183 -0.5696 0
M  V30 5665 H 544.621 5.4803 -0.308984 0
M  V30 5666 H 544.882 4.31184 0.976347 0
M  V30 5667 N 543.941 0.601185 1.45683 0
M  V30 5668 C 545.189 0.0936957 2.01883 0
M  V30 5669 C 545.51 -1.2779 1.47291 0
M  V30 5670 O 544.78 -1.84279 0.664691 0
M  V30 5671 H 543.36 0.0316466 0.746329 0
M  V30 5672 H 546.022 0.781137 1.78562 0
M  V30 5673 H 545.118 0.0386297 3.12076 0
M  V30 5674 N 545.419 -1.53889 0.339982 0
M  V30 5675 C 546.382 -2.23547 -0.50592 0
M  V30 5676 C 547.382 -1.23445 -1.03044 0
M  V30 5677 O 548.572 -1.47909 -0.920253 0
M  V30 5678 C 545.704 -2.95234 -1.7044 0
M  V30 5679 H 546.897 -2.99722 0.103247 0
M  V30 5680 H 544.45 -1.56033 0.0912804 0
M  V30 5681 H 545.185 -2.23236 -2.35236 0
M  V30 5682 H 544.97 -3.68654 -1.33553 0
M  V30 5683 H 546.46 -3.48258 -2.30447 0
M  V30 5684 N 546.897 -0.0685191 -1.57451 0
M  V30 5685 C 547.844 0.899861 -2.12535 0
M  V30 5686 C 548.814 1.29749 -1.03703 0
M  V30 5687 O 549.999 1.38392 -1.31348 0
M  V30 5688 C 547.139 2.16328 -2.6888 0
M  V30 5689 C 546.252 1.81857 -3.91857 0
M  V30 5690 C 545.387 3.02786 -4.36457 0
M  V30 5691 C 544.426 2.64317 -5.5209 0
M  V30 5692 N 543.563 3.77994 -5.91663 0
M  V30 5693 H 548.403 0.423243 -2.94979 0
M  V30 5694 H 545.94 0.197268 -1.45771 0
M  V30 5695 H 547.898 2.90281 -2.99655 0
M  V30 5696 H 546.528 2.61536 -1.89206 0
M  V30 5697 H 545.58 0.979808 -3.67565 0
M  V30 5698 H 546.892 1.49553 -4.75852 0
M  V30 5699 H 546.046 3.85021 -4.68875 0
M  V30 5700 H 544.785 3.38281 -3.51308 0
M  V30 5701 H 543.79 1.80503 -5.19325 0
M  V30 5702 H 545.015 2.29995 -6.38967 0
M  V30 5703 H 542.961 4.13258 -5.09464 0
M  V30 5704 H 542.878 3.49447 -6.7039 0
M  V30 5705 H 544.146 4.60818 -6.28703 0
M  V30 5706 N 548.375 1.56261 0.205012 0
M  V30 5707 C 549.652 1.70856 0.952233 0
M  V30 5708 C 550.032 0.620501 2.01775 0
M  V30 5709 O 549.38 -0.370035 2.25484 0
M  V30 5710 C 549.59 3.12807 1.54767 0
M  V30 5711 C 550.938 3.72733 2.0336 0
M  V30 5712 O 551.962 3.15873 1.64629 0
M  V30 5713 O 550.821 4.72501 2.746 0
M  V30 5714 H 547.915 0.696496 0.445895 0
M  V30 5715 H 550.461 1.6857 0.195489 0
M  V30 5716 H 549.233 3.83465 0.779132 0
M  V30 5717 H 548.856 3.1928 2.36951 0
M  V30 5718 N 549.853 -0.472356 1.50355 0
M  V30 5719 C 551.099 -1.22348 1.62488 0
M  V30 5720 C 551.454 -1.89711 0.320574 0
M  V30 5721 O 550.747 -1.79074 -0.68141 0
M  V30 5722 C 550.941 -2.29257 2.74182 0
M  V30 5723 C 550.77 -1.72383 4.15348 0
M  V30 5724 C 549.54 -1.52411 4.81766 0
M  V30 5725 C 551.738 -1.21949 4.99633 0
M  V30 5726 N 549.72 -0.907669 6.07153 0
M  V30 5727 C 551.091 -0.726191 6.15732 0
M  V30 5728 C 553.146 -1.10792 4.85417 0
M  V30 5729 C 551.849 -0.132322 7.19178 0
M  V30 5730 C 553.875 -0.52799 5.89038 0
M  V30 5731 C 553.237 -0.0450604 7.04386 0
M  V30 5732 H 549.336 -0.436631 0.648751 0
M  V30 5733 H 551.92 -0.525698 1.87469 0
M  V30 5734 H 550.091 -2.96464 2.50926 0
M  V30 5735 H 551.823 -2.9628 2.75681 0
M  V30 5736 H 548.578 -1.776 4.39039 0
M  V30 5737 H 549.002 -0.617897 6.74174 0
M  V30 5738 H 553.644 -1.46722 3.96525 0
M  V30 5739 H 551.362 0.239187 8.07746 0
M  V30 5740 H 554.948 -0.444046 5.80103 0
M  V30 5741 H 553.828 0.396659 7.83196 0
M  V30 5742 N 551.331 -1.39911 -0.725443 0
M  V30 5743 C 552.294 -1.39156 -1.82121 0
M  V30 5744 C 553.294 -0.287018 -1.58218 0
M  V30 5745 O 554.484 -0.545421 -1.65441 0
M  V30 5746 C 551.616 -1.1736 -3.20062 0
M  V30 5747 H 552.809 -2.36672 -1.84191 0
M  V30 5748 H 550.362 -1.25615 -0.930079 0
M  V30 5749 H 551.097 -0.205648 -3.23647 0
M  V30 5750 H 550.882 -1.97358 -3.3881 0
M  V30 5751 H 552.372 -1.19596 -4.00108 0
M  V30 5752 N 552.809 0.956637 -1.25245 0
M  V30 5753 C 554.057 1.69764 -1.09657 0
M  V30 5754 C 554.378 1.91583 0.363464 0
M  V30 5755 O 553.648 1.50149 1.25825 0
M  V30 5756 H 552.228 0.629097 -0.402798 0
M  V30 5757 H 554.89 1.15026 -1.57337 0
M  V30 5758 H 553.986 2.67769 -1.60331 0
M  V30 5759 N 554.287 1.06798 1.15896 0
M  V30 5760 C 555.535 0.786211 1.8618 0
M  V30 5761 C 555.856 -0.689547 1.82401 0
M  V30 5762 O 555.126 -1.49913 1.26107 0
M  V30 5763 H 553.706 0.287843 0.689315 0
M  V30 5764 H 556.368 1.35055 1.40521 0
M  V30 5765 H 555.464 1.1157 2.91477 0
M  V30 5766 N 555.766 -1.3263 0.851289 0
M  V30 5767 C 557.013 -1.97368 0.453023 0
M  V30 5768 C 557.341 -1.67384 -0.990596 0
M  V30 5769 O 556.596 -0.952665 -1.70947 0
M  V30 5770 C 556.895 -3.51713 0.635015 0
M  V30 5771 C 556.561 -4.01676 2.04859 0
M  V30 5772 C 555.223 -4.15031 2.43522 0
M  V30 5773 C 557.575 -4.28206 2.97135 0
M  V30 5774 C 554.903 -4.52257 3.73739 0
M  V30 5775 C 557.255 -4.66889 4.26846 0
M  V30 5776 C 555.919 -4.7845 4.65448 0
M  V30 5777 H 555.189 -0.722219 0.165773 0
M  V30 5778 H 557.836 -1.58092 1.0807 0
M  V30 5779 H 556.141 -3.91726 -0.0759081 0
M  V30 5780 H 557.838 -3.99823 0.306964 0
M  V30 5781 H 554.428 -3.91764 1.73836 0
M  V30 5782 H 558.612 -4.174 2.68498 0
M  V30 5783 H 553.868 -4.59402 4.03435 0
M  V30 5784 H 558.042 -4.86372 4.98413 0
M  V30 5785 H 555.669 -5.07052 5.66395 0
M  V30 5786 N 557.244 -0.608902 -1.45362 0
M  V30 5787 C 558.174 0.0964526 -2.33301 0
M  V30 5788 C 559.155 0.857444 -1.46908 0
M  V30 5789 O 560.34 0.827735 -1.75676 0
M  V30 5790 C 557.47 1.09354 -3.29635 0
M  V30 5791 C 556.424 0.445676 -4.25673 0
M  V30 5792 C 555.75 1.5511 -5.11708 0
M  V30 5793 C 557.05 -0.633972 -5.18438 0
M  V30 5794 H 558.744 -0.637829 -2.92527 0
M  V30 5795 H 556.29 -0.308178 -1.40664 0
M  V30 5796 H 558.243 1.59556 -3.90025 0
M  V30 5797 H 556.967 1.85843 -2.6857 0
M  V30 5798 H 555.626 -0.0354897 -3.66583 0
M  V30 5799 H 555.274 2.30631 -4.4701 0
M  V30 5800 H 554.974 1.12311 -5.76767 0
M  V30 5801 H 556.498 2.05537 -5.74967 0
M  V30 5802 H 557.912 -0.215974 -5.72893 0
M  V30 5803 H 556.309 -0.983789 -5.91981 0
M  V30 5804 H 557.379 -1.51005 -4.60788 0
M  V30 5805 N 558.722 1.53707 -0.348139 0
M  V30 5806 C 559.999 1.93247 0.302475 0
M  V30 5807 C 560.379 1.28012 1.67857 0
M  V30 5808 O 559.727 0.43274 2.24365 0
M  V30 5809 C 559.937 3.47031 0.370159 0
M  V30 5810 C 561.285 4.20066 0.61882 0
M  V30 5811 O 562.309 3.53319 0.452087 0
M  V30 5812 O 561.168 5.38318 0.94215 0
M  V30 5813 H 558.262 0.807736 0.177458 0
M  V30 5814 H 560.808 1.64927 -0.399651 0
M  V30 5815 H 559.58 3.86745 -0.59534 0
M  V30 5816 H 559.203 3.81532 1.11888 0
M  V30 5817 N 560.2 0.0768682 1.57412 0
M  V30 5818 C 561.13 -0.886026 2.16037 0
M  V30 5819 C 562.111 -1.30691 1.08876 0
M  V30 5820 O 563.296 -1.37705 1.36934 0
M  V30 5821 C 560.426 -2.1518 2.72608 0
M  V30 5822 C 559.38 -1.87015 3.8498 0
M  V30 5823 C 558.706 -3.20266 4.28175 0
M  V30 5824 C 560.006 -1.17143 5.08994 0
M  V30 5825 H 561.7 -0.397642 2.96748 0
M  V30 5826 H 559.246 -0.189823 1.42743 0
M  V30 5827 H 561.199 -2.82962 3.12266 0
M  V30 5828 H 559.923 -2.66269 1.89125 0
M  V30 5829 H 558.582 -1.21636 3.45833 0
M  V30 5830 H 558.23 -3.69207 3.41607 0
M  V30 5831 H 557.93 -3.0221 5.03927 0
M  V30 5832 H 559.454 -3.89237 4.70454 0
M  V30 5833 H 560.868 -1.75003 5.45937 0
M  V30 5834 H 559.265 -1.09328 5.90057 0
M  V30 5835 H 560.335 -0.151295 4.84664 0
M  V30 5836 N 561.678 -1.56367 -0.196722 0
M  V30 5837 C 562.625 -1.94417 -1.24382 0
M  V30 5838 C 563.595 -0.804543 -1.45315 0
M  V30 5839 O 564.78 -1.06256 -1.58475 0
M  V30 5840 C 561.92 -2.28757 -2.58388 0
M  V30 5841 C 561.033 -3.55775 -2.45047 0
M  V30 5842 C 560.168 -3.79445 -3.71746 0
M  V30 5843 C 559.207 -4.99894 -3.53231 0
M  V30 5844 N 558.344 -5.19826 -4.71938 0
M  V30 5845 H 563.184 -2.83691 -0.912338 0
M  V30 5846 H 560.721 -1.40392 -0.439135 0
M  V30 5847 H 562.679 -2.46682 -3.36457 0
M  V30 5848 H 561.309 -1.42625 -2.89582 0
M  V30 5849 H 560.361 -3.45905 -1.58284 0
M  V30 5850 H 561.673 -4.44 -2.27299 0
M  V30 5851 H 560.827 -3.97601 -4.58256 0
M  V30 5852 H 559.566 -2.89546 -3.92446 0
M  V30 5853 H 558.571 -4.81662 -2.65107 0
M  V30 5854 H 559.796 -5.913 -3.33978 0
M  V30 5855 H 557.742 -4.32875 -4.92905 0
M  V30 5856 H 557.659 -6.02228 -4.57009 0
M  V30 5857 H 558.927 -5.42439 -5.59803 0
M  V30 5858 N 563.156 0.464375 -1.50603 0
M  V30 5859 C 564.119 1.54393 -1.69397 0
M  V30 5860 C 565.119 1.50566 -0.564504 0
M  V30 5861 O 566.309 1.53066 -0.831645 0
M  V30 5862 C 563.441 2.9401 -1.72543 0
M  V30 5863 H 564.634 1.39044 -2.65719 0
M  V30 5864 H 562.187 0.69122 -1.40185 0
M  V30 5865 H 562.922 3.14795 -0.77938 0
M  V30 5866 H 562.707 2.98195 -2.54602 0
M  V30 5867 H 564.197 3.72375 -1.89015 0
M  V30 5868 N 564.634 1.40294 0.718013 0
M  V30 5869 C 565.911 1.2894 1.47084 0
M  V30 5870 C 566.291 -0.0933625 2.10893 0
M  V30 5871 O 565.639 -1.10598 1.99951 0
M  V30 5872 C 565.849 2.4264 2.50852 0
M  V30 5873 C 567.197 2.8276 3.16752 0
M  V30 5874 O 568.221 2.42215 2.61171 0
M  V30 5875 O 567.08 3.528 4.17366 0
M  V30 5876 H 564.174 0.506236 0.653952 0
M  V30 5877 H 566.72 1.52208 0.750394 0
M  V30 5878 H 565.492 3.35009 2.022 0
M  V30 5879 H 565.115 2.21129 3.30435 0
M  V30 5880 N 566.112 -0.949982 1.2575 0
M  V30 5881 C 567.042 -2.06483 1.09028 0
M  V30 5882 C 568.023 -1.701 -0.00201532 0
M  V30 5883 O 569.208 -1.93469 0.168383 0
M  V30 5884 C 566.338 -3.39899 0.71316 0
M  V30 5885 C 565.292 -3.90309 1.75621 0
M  V30 5886 C 564.618 -5.20274 1.23365 0
M  V30 5887 C 565.918 -4.16169 3.15596 0
M  V30 5888 H 567.612 -2.20731 2.02283 0
M  V30 5889 H 565.158 -1.06066 0.973964 0
M  V30 5890 H 567.111 -4.17346 0.58309 0
M  V30 5891 H 565.835 -3.25602 -0.255091 0
M  V30 5892 H 564.494 -3.15035 1.8748 0
M  V30 5893 H 564.142 -5.02351 0.255491 0
M  V30 5894 H 563.842 -5.54971 1.93082 0
M  V30 5895 H 565.366 -6.00314 1.11607 0
M  V30 5896 H 566.78 -4.84259 3.06864 0
M  V30 5897 H 565.177 -4.62131 3.82825 0
M  V30 5898 H 566.247 -3.22273 3.6231 0
M  V30 5899 N 567.59 -1.07411 -1.15328 0
M  V30 5900 C 568.522 -0.652924 -2.19703 0
M  V30 5901 C 569.535 0.294869 -1.60107 0
M  V30 5902 O 570.724 0.0840932 -1.78302 0
M  V30 5903 C 567.824 0.061434 -3.38844 0
M  V30 5904 C 566.997 -0.902696 -4.27984 0
M  V30 5905 C 566.056 -0.225521 -5.25717 0
M  V30 5906 O 565.082 -0.86676 -5.62562 0
M  V30 5907 N 566.284 1.02858 -5.71315 0
M  V30 5908 H 569.049 -1.55081 -2.56457 0
M  V30 5909 H 566.61 -0.958883 -1.30449 0
M  V30 5910 H 568.602 0.525145 -4.01278 0
M  V30 5911 H 567.172 0.861269 -3.00501 0
M  V30 5912 H 566.392 -1.54551 -3.6264 0
M  V30 5913 H 567.68 -1.55636 -4.84412 0
M  V30 5914 H 567.078 1.56948 -5.43492 0
M  V30 5915 H 565.635 1.43596 -6.35786 0
M  V30 5916 N 569.068 1.32177 -0.85831 0
M  V30 5917 C 570.345 1.91781 -0.384624 0
M  V30 5918 C 570.725 1.78171 1.13217 0
M  V30 5919 O 570.073 1.18209 1.95548 0
M  V30 5920 C 570.283 3.38414 -0.853047 0
M  V30 5921 C 571.631 4.15542 -0.872359 0
M  V30 5922 O 572.655 3.47148 -0.797926 0
M  V30 5923 O 571.514 5.37678 -0.978009 0
M  V30 5924 H 568.608 0.819259 -0.112886 0
M  V30 5925 H 571.154 1.40923 -0.945453 0
M  V30 5926 H 569.926 3.4228 -1.89632 0
M  V30 5927 H 569.549 3.96683 -0.269874 0
M  V30 5928 N 570.547 0.616602 1.45037 0
M  V30 5929 C 571.824 0.0469086 1.95544 0
M  V30 5930 C 572.204 -1.42345 1.55888 0
M  V30 5931 O 571.552 -2.13055 0.825824 0
M  V30 5932 C 571.762 0.254489 3.48071 0
M  V30 5933 C 573.11 0.140025 4.24369 0
M  V30 5934 O 574.134 0.185084 3.55719 0
M  V30 5935 O 572.993 0.0327034 5.4649 0
M  V30 5936 H 570.087 -0.0306051 0.826433 0
M  V30 5937 H 572.633 0.687293 1.55159 0
M  V30 5938 H 571.405 1.27532 3.69934 0
M  V30 5939 H 571.028 -0.42073 3.95368 0
M  V30 5940 N 572.025 -1.5352 0.356285 0
M  V30 5941 C 573.253 -2.05534 -0.237328 0
M  V30 5942 C 573.668 -1.23043 -1.43199 0
M  V30 5943 O 573.025 -0.268821 -1.80509 0
M  V30 5944 C 573.076 -3.55791 -0.639933 0
M  V30 5945 O 572.797 -4.35154 0.507233 0
M  V30 5946 C 574.298 -4.24027 -1.29292 0
M  V30 5947 H 571.518 -0.669585 -0.0435572 0
M  V30 5948 H 574.062 -1.97988 0.511963 0
M  V30 5949 H 572.217 -3.63518 -1.33915 0
M  V30 5950 H 572.631 -5.24178 0.18375 0
M  V30 5951 H 574.105 -5.30509 -1.52527 0
M  V30 5952 H 574.582 -3.77166 -2.25039 0
M  V30 5953 H 575.188 -4.20527 -0.63539 0
M  V30 5954 N 573.503 -0.0852151 -1.57369 0
M  V30 5955 C 574.75 0.580806 -1.93992 0
M  V30 5956 C 575.078 1.68801 -0.966252 0
M  V30 5957 O 574.333 1.95694 0.0158649 0
M  V30 5958 C 574.632 1.18482 -3.3719 0
M  V30 5959 C 574.298 0.2024 -4.50446 0
M  V30 5960 C 572.96 -0.0678318 -4.81152 0
M  V30 5961 C 575.312 -0.46895 -5.19086 0
M  V30 5962 C 572.64 -1.01627 -5.77831 0
M  V30 5963 C 574.992 -1.4058 -6.16782 0
M  V30 5964 C 573.656 -1.68436 -6.45899 0
M  V30 5965 H 572.926 0.212532 -0.709867 0
M  V30 5966 H 575.573 -0.158947 -1.90839 0
M  V30 5967 H 573.878 2.0006 -3.36873 0
M  V30 5968 H 575.575 1.70767 -3.62822 0
M  V30 5969 H 572.165 0.423208 -4.26505 0
M  V30 5970 H 576.349 -0.273307 -4.95547 0
M  V30 5971 H 571.605 -1.2392 -5.9871 0
M  V30 5972 H 575.779 -1.93188 -6.69068 0
M  V30 5973 H 573.406 -2.42088 -7.20623 0
M  V30 5974 N 574.981 1.5647 0.188427 0
M  V30 5975 C 576.23 1.80207 0.905995 0
M  V30 5976 C 576.543 0.659579 1.84144 0
M  V30 5977 O 577.749 0.781431 2.60011 0
M  V30 5978 C 576.205 3.19255 1.66145 0
M  V30 5979 C 575.813 4.41324 0.770504 0
M  V30 5980 C 577.557 3.52298 2.36826 0
M  V30 5981 C 575.464 5.71394 1.52521 0
M  V30 5982 H 574.394 0.671953 0.342045 0
M  V30 5983 H 577.045 1.82808 0.159164 0
M  V30 5984 H 575.427 3.10922 2.45242 0
M  V30 5985 H 576.601 4.60797 0.0177261 0
M  V30 5986 H 574.916 4.16035 0.174199 0
M  V30 5987 H 577.513 4.46715 2.93854 0
M  V30 5988 H 577.856 2.76359 3.11338 0
M  V30 5989 H 578.389 3.62108 1.6469 0
M  V30 5990 H 575.128 6.50316 0.82275 0
M  V30 5991 H 574.648 5.55928 2.25175 0
M  V30 5992 H 576.327 6.12747 2.07725 0
M  V30 5993 N 576.459 -0.456382 1.50847 0
M  V30 5994 C 577.707 -1.20497 1.62249 0
M  V30 5995 C 578.028 -1.92156 0.331839 0
M  V30 5996 O 577.298 -1.84751 -0.651443 0
M  V30 5997 H 575.878 -0.447775 0.597918 0
M  V30 5998 H 578.54 -0.525099 1.87693 0
M  V30 5999 H 577.636 -1.94492 2.44089 0
M  V30 6000 N 577.937 -1.40673 -0.710563 0
M  V30 6001 C 578.885 -1.41517 -1.84596 0
M  V30 6002 C 579.879 -0.295043 -1.66811 0
M  V30 6003 O 581.085 -0.466331 -1.73854 0
M  V30 6004 H 577.46 -0.442467 -0.608052 0
M  V30 6005 H 579.431 -2.37238 -1.80999 0
M  V30 6006 C 578.18 -1.29957 -3.225 0
M  V30 6007 H 577.503 -2.15429 -3.36794 0
M  V30 6008 H 578.943 -1.34608 -4.02066 0
M  V30 6009 C 577.402 -0.0103164 -3.36898 0
M  V30 6010 O 577.932 0.950707 -3.90288 0
M  V30 6011 N 576.138 0.0608409 -2.90536 0
M  V30 6012 H 575.685 -0.721943 -2.47277 0
M  V30 6013 H 575.643 0.92292 -3.00549 0
M  V30 6014 N 579.415 0.9433 -1.26252 0
M  V30 6015 C 580.325 2.07532 -1.09397 0
M  V30 6016 C 581.341 1.73977 -0.0280449 0
M  V30 6017 O 582.517 2.00067 -0.231337 0
M  V30 6018 C 579.582 3.39002 -0.726523 0
M  V30 6019 C 578.643 3.86353 -1.87163 0
M  V30 6020 C 577.876 5.11549 -1.52162 0
M  V30 6021 O 578.099 5.68834 -0.422385 0
M  V30 6022 O 577.033 5.53889 -2.35565 0
M  V30 6023 H 580.859 2.24658 -2.04359 0
M  V30 6024 H 578.444 1.05988 -1.05295 0
M  V30 6025 H 580.326 4.18 -0.534236 0
M  V30 6026 H 579.001 3.2312 0.193721 0
M  V30 6027 H 577.908 3.0831 -2.11886 0
M  V30 6028 H 579.241 4.06752 -2.77152 0
M  V30 6029 N 580.893 1.08022 1.14757 0
M  V30 6030 C 582.304 0.829144 1.67279 0
M  V30 6031 C 582.655 -0.644721 1.85305 0
M  V30 6032 O 581.78 -1.49838 1.56133 0
M  V30 6033 C 582.375 1.49855 3.03857 0
M  V30 6034 C 580.934 1.29482 3.53428 0
M  V30 6035 C 580.081 1.56386 2.28995 0
M  V30 6036 H 583.032 1.24134 0.988762 0
M  V30 6037 H 583.053 0.923572 3.69121 0
M  V30 6038 H 582.565 2.57123 2.90705 0
M  V30 6039 H 580.666 0.242669 3.71809 0
M  V30 6040 H 580.779 2.01974 4.34446 0
M  V30 6041 H 579.143 0.985217 2.34874 0
M  V30 6042 H 579.926 2.64851 2.18423 0
M  V30 6043 N 582.371 -1.3172 0.865308 0
M  V30 6044 C 583.301 -2.31109 0.333302 0
M  V30 6045 C 584.282 -1.60148 -0.573301 0
M  V30 6046 O 585.467 -1.87882 -0.491305 0
M  V30 6047 C 582.597 -3.44104 -0.470078 0
M  V30 6048 C 581.551 -4.26623 0.343021 0
M  V30 6049 C 580.877 -5.31482 -0.585756 0
M  V30 6050 C 582.177 -4.98001 1.57456 0
M  V30 6051 H 583.871 -2.75855 1.1638 0
M  V30 6052 H 581.417 -1.3262 0.561069 0
M  V30 6053 H 583.37 -4.12682 -0.852752 0
M  V30 6054 H 582.094 -2.98112 -1.33404 0
M  V30 6055 H 580.753 -3.59707 0.707583 0
M  V30 6056 H 580.401 -4.81741 -1.44686 0
M  V30 6057 H 580.101 -5.87582 -0.0456494 0
M  V30 6058 H 581.625 -6.0292 -0.965375 0
M  V30 6059 H 583.039 -5.59201 1.26359 0
M  V30 6060 H 581.436 -5.63876 2.05339 0
M  V30 6061 H 582.506 -4.25253 2.32997 0
M  V30 6062 N 583.85 -0.624285 -1.44708 0
M  V30 6063 C 585.077 -0.132919 -2.06473 0
M  V30 6064 C 585.493 1.18967 -1.46602 0
M  V30 6065 O 584.85 1.72824 -0.586341 0
M  V30 6066 C 584.901 -0.00465418 -3.615 0
M  V30 6067 O 584.622 -1.27494 -4.19138 0
M  V30 6068 C 586.123 0.516213 -4.40284 0
M  V30 6069 H 583.343 -0.0765201 -0.666623 0
M  V30 6070 H 585.887 -0.856751 -1.85688 0
M  V30 6071 H 584.042 0.669583 -3.8157 0
M  V30 6072 H 584.456 -1.11536 -5.12504 0
M  V30 6073 H 585.93 0.554994 -5.49203 0
M  V30 6074 H 586.407 1.5419 -4.11245 0
M  V30 6075 H 587.013 -0.124542 -4.25118 0
M  V30 6076 N 585.328 1.53329 -0.364422 0
M  V30 6077 C 586.739 1.86345 0.115039 0
M  V30 6078 C 587.09 1.28505 1.4826 0
M  V30 6079 O 586.215 0.606639 2.07723 0
M  V30 6080 C 586.81 3.38114 0.215522 0
M  V30 6081 C 585.369 3.70932 0.639237 0
M  V30 6082 C 584.516 2.76471 -0.214261 0
M  V30 6083 H 587.467 1.47593 -0.583258 0
M  V30 6084 H 587.488 3.66031 1.0393 0
M  V30 6085 H 587 3.80182 -0.779948 0
M  V30 6086 H 585.101 3.3442 1.64298 0
M  V30 6087 H 585.214 4.77302 0.41465 0
M  V30 6088 H 583.578 2.52724 0.316678 0
M  V30 6089 H 584.361 3.21373 -1.20725 0
M  V30 6090 N 586.806 0.0935595 1.57322 0
M  V30 6091 C 587.716 -0.880192 2.17462 0
M  V30 6092 C 588.732 -1.31135 1.14366 0
M  V30 6093 O 589.908 -1.37958 1.46729 0
M  V30 6094 C 586.973 -2.12184 2.74188 0
M  V30 6095 C 586.034 -1.74503 3.92234 0
M  V30 6096 C 585.267 -2.92748 4.46245 0
M  V30 6097 O 585.49 -4.07427 3.99198 0
M  V30 6098 O 584.424 -2.71303 5.37288 0
M  V30 6099 H 588.25 -0.398516 3.01074 0
M  V30 6100 H 585.835 -0.130707 1.48827 0
M  V30 6101 H 587.717 -2.84953 3.10451 0
M  V30 6102 H 586.392 -2.59407 1.93623 0
M  V30 6103 H 585.299 -0.989186 3.60785 0
M  V30 6104 H 586.632 -1.32044 4.74157 0
M  V30 6105 N 588.284 -1.56567 -0.180126 0
M  V30 6106 C 589.53 -1.81761 -0.899497 0
M  V30 6107 C 589.863 -0.670015 -1.82276 0
M  V30 6108 O 589.138 0.328575 -1.91705 0
M  V30 6109 C 589.421 -3.17296 -1.7028 0
M  V30 6110 C 589.274 -4.4257 -0.803255 0
M  V30 6111 C 590.593 -3.49678 -2.67233 0
M  V30 6112 H 587.712 -0.661192 -0.325567 0
M  V30 6113 H 590.354 -1.89272 -0.16612 0
M  V30 6114 H 588.504 -3.11023 -2.32802 0
M  V30 6115 H 590.176 -4.60902 -0.191585 0
M  V30 6116 H 588.419 -4.33658 -0.110796 0
M  V30 6117 H 589.09 -5.33935 -1.40064 0
M  V30 6118 H 591.566 -3.56347 -2.14839 0
M  V30 6119 H 590.442 -4.45605 -3.20511 0
M  V30 6120 H 590.703 -2.73932 -3.47007 0
M  V30 6121 N 589.762 0.448376 -1.51087 0
M  V30 6122 C 591.178 0.783984 -1.39017 0
M  V30 6123 C 591.378 1.96087 -0.463904 0
M  V30 6124 O 590.434 2.52357 0.0850534 0
M  V30 6125 C 591.747 1.07471 -2.80839 0
M  V30 6126 C 593.295 1.17981 -2.89913 0
M  V30 6127 C 593.77 1.50354 -4.32617 0
M  V30 6128 N 595.261 1.57301 -4.35673 0
M  V30 6129 C 595.996 1.839 -5.4311 0
M  V30 6130 N 595.492 2.08365 -6.60724 0
M  V30 6131 N 597.285 1.8559 -5.30578 0
M  V30 6132 H 589.436 -0.326881 -2.0987 0
M  V30 6133 H 591.699 -0.0838006 -0.944289 0
M  V30 6134 H 591.405 0.282768 -3.50561 0
M  V30 6135 H 591.279 2.00519 -3.19487 0
M  V30 6136 H 593.666 1.9624 -2.20395 0
M  V30 6137 H 593.747 0.228603 -2.54776 0
M  V30 6138 H 593.391 0.726273 -5.0268 0
M  V30 6139 H 593.321 2.46663 -4.65258 0
M  V30 6140 H 595.812 1.40342 -3.50874 0
M  V30 6141 H 596.125 2.27999 -7.38401 0
M  V30 6142 H 594.47 2.0571 -6.63859 0
M  V30 6143 H 597.661 1.65989 -4.37682 0
M  V30 6144 H 597.834 2.05983 -6.1439 0
M  V30 6145 N 591.24 1.41047 0.703093 0
M  V30 6146 C 592.203 1.42036 1.79884 0
M  V30 6147 C 593.203 0.312153 1.57741 0
M  V30 6148 O 594.393 0.571672 1.64553 0
M  V30 6149 C 591.525 1.22437 3.18154 0
M  V30 6150 H 592.718 2.39572 1.80403 0
M  V30 6151 H 590.271 1.27079 0.909977 0
M  V30 6152 H 591.006 0.257112 3.23279 0
M  V30 6153 H 590.791 2.02723 3.35627 0
M  V30 6154 H 592.281 1.25946 3.98155 0
M  V30 6155 N 592.718 -0.936591 1.26751 0
M  V30 6156 C 593.966 -1.67998 1.12343 0
M  V30 6157 C 594.287 -1.92137 -0.332938 0
M  V30 6158 O 593.557 -1.52132 -1.23421 0
M  V30 6159 H 592.137 -0.622609 0.412756 0
M  V30 6160 H 594.799 -1.12509 1.59147 0
M  V30 6161 H 593.895 -2.65185 1.64571 0
M  V30 6162 N 594.196 -1.08629 -1.14182 0
M  V30 6163 C 595.426 -0.837673 -1.88856 0
M  V30 6164 C 595.834 0.614024 -1.78959 0
M  V30 6165 O 595.177 1.43384 -1.14833 0
M  V30 6166 C 595.239 -1.18355 -3.39459 0
M  V30 6167 C 594.903 -2.63848 -3.73139 0
M  V30 6168 C 595.9 -3.62099 -3.73069 0
M  V30 6169 C 593.585 -2.99761 -4.03049 0
M  V30 6170 C 595.579 -4.94292 -4.02435 0
M  V30 6171 C 593.266 -4.32147 -4.32078 0
M  V30 6172 C 594.264 -5.29223 -4.31755 0
M  V30 6173 O 593.952 -6.59229 -4.60079 0
M  V30 6174 H 593.684 -0.301609 -0.604986 0
M  V30 6175 H 596.238 -1.44961 -1.45518 0
M  V30 6176 H 594.468 -0.514628 -3.8326 0
M  V30 6177 H 596.157 -0.915391 -3.95443 0
M  V30 6178 H 596.923 -3.35698 -3.50046 0
M  V30 6179 H 592.802 -2.2484 -4.02453 0
M  V30 6180 H 596.346 -5.70055 -4.02098 0
M  V30 6181 H 592.243 -4.58296 -4.54571 0
M  V30 6182 H 593.011 -6.64578 -4.77785 0
M  V30 6183 N 595.674 1.31259 -0.872281 0
M  V30 6184 C 596.604 2.30929 -0.345554 0
M  V30 6185 C 597.585 1.60449 0.5648 0
M  V30 6186 O 598.77 1.8814 0.481335 0
M  V30 6187 C 595.9 3.44348 0.451823 0
M  V30 6188 C 594.854 4.26435 -0.365641 0
M  V30 6189 C 594.18 5.31785 0.557562 0
M  V30 6190 C 595.48 4.97159 -1.60095 0
M  V30 6191 H 597.174 2.75234 -1.17841 0
M  V30 6192 H 594.72 1.3232 -0.568094 0
M  V30 6193 H 596.673 4.13128 0.830854 0
M  V30 6194 H 595.397 2.98816 1.31821 0
M  V30 6195 H 594.056 3.59326 -0.726649 0
M  V30 6196 H 593.704 4.82502 1.4213 0
M  V30 6197 H 593.404 5.87598 0.0144878 0
M  V30 6198 H 594.928 6.03424 0.933387 0
M  V30 6199 H 596.342 5.58523 -1.29323 0
M  V30 6200 H 594.739 5.62779 -2.08327 0
M  V30 6201 H 595.809 4.24012 -2.35249 0
M  V30 6202 N 597.152 0.631951 1.44375 0
M  V30 6203 C 598.4 0.136497 2.01639 0
M  V30 6204 C 598.721 -1.24637 1.49969 0
M  V30 6205 O 597.991 -1.82827 0.70363 0
M  V30 6206 H 596.571 0.0474703 0.74549 0
M  V30 6207 H 599.233 0.818837 1.76865 0
M  V30 6208 H 598.329 0.104817 3.11924 0
M  V30 6209 N 598.631 -1.53133 0.372548 0
M  V30 6210 C 599.861 -2.05476 -0.215202 0
M  V30 6211 C 600.269 -1.24534 -1.42436 0
M  V30 6212 O 599.612 -0.280771 -1.81542 0
M  V30 6213 C 599.674 -3.53276 -0.666068 0
M  V30 6214 C 599.338 -4.54998 0.427342 0
M  V30 6215 C 600.335 -5.03911 1.27944 0
M  V30 6216 C 598.02 -4.98828 0.589579 0
M  V30 6217 C 600.014 -5.95263 2.27905 0
M  V30 6218 C 597.701 -5.89984 1.59255 0
M  V30 6219 C 598.699 -6.38093 2.43571 0
M  V30 6220 O 598.387 -7.27451 3.42156 0
M  V30 6221 H 598.119 -0.67481 -0.040099 0
M  V30 6222 H 600.673 -1.98409 0.531312 0
M  V30 6223 H 598.903 -3.57904 -1.4643 0
M  V30 6224 H 600.592 -3.88442 -1.1776 0
M  V30 6225 H 601.358 -4.70792 1.16532 0
M  V30 6226 H 597.237 -4.60965 -0.0569456 0
M  V30 6227 H 600.781 -6.32736 2.93753 0
M  V30 6228 H 596.678 -6.22518 1.70711 0
M  V30 6229 H 597.446 -7.45467 3.37967 0
M  V30 6230 N 600.109 -0.101901 -1.5727 0
M  V30 6231 C 601.337 0.568392 -1.98939 0
M  V30 6232 C 601.752 1.61301 -0.981194 0
M  V30 6233 O 601.109 1.82478 0.0282869 0
M  V30 6234 C 601.16 1.20997 -3.40649 0
M  V30 6235 O 600.881 0.207129 -4.3761 0
M  V30 6236 C 602.382 1.96523 -3.97358 0
M  V30 6237 H 599.602 0.15186 -0.65359 0
M  V30 6238 H 602.146 -0.183198 -2.03678 0
M  V30 6239 H 600.301 1.91245 -3.36904 0
M  V30 6240 H 600.715 0.671071 -5.20189 0
M  V30 6241 H 602.189 2.36764 -4.98645 0
M  V30 6242 H 602.666 2.83376 -3.35552 0
M  V30 6243 H 603.272 1.31076 -4.04598 0
M  V30 6244 N 601.587 1.56661 0.17182 0
M  V30 6245 C 602.833 1.82235 0.889845 0
M  V30 6246 C 603.166 0.679673 1.81918 0
M  V30 6247 O 602.441 -0.318404 1.91876 0
M  V30 6248 C 602.724 3.18195 1.68595 0
M  V30 6249 C 602.577 4.42989 0.779773 0
M  V30 6250 C 603.896 3.5109 2.65375 0
M  V30 6251 H 601.015 0.66291 0.322056 0
M  V30 6252 H 603.657 1.89358 0.15608 0
M  V30 6253 H 601.807 3.12253 2.3115 0
M  V30 6254 H 603.479 4.60997 0.16714 0
M  V30 6255 H 601.722 4.33711 0.0877964 0
M  V30 6256 H 602.393 5.3467 1.3723 0
M  V30 6257 H 604.869 3.57482 2.12946 0
M  V30 6258 H 603.745 4.47298 3.18144 0
M  V30 6259 H 604.006 2.75768 3.45549 0
M  V30 6260 N 603.065 -0.440357 1.51323 0
M  V30 6261 C 604.293 -1.21255 1.67645 0
M  V30 6262 C 604.708 -1.85088 0.37252 0
M  V30 6263 O 604.065 -1.70582 -0.648683 0
M  V30 6264 C 604.116 -2.29881 2.78993 0
M  V30 6265 O 603.837 -1.68659 4.04334 0
M  V30 6266 C 605.338 -3.20214 3.06558 0
M  V30 6267 H 602.558 -0.36558 0.562666 0
M  V30 6268 H 605.102 -0.52214 1.97722 0
M  V30 6269 H 603.257 -2.94643 2.51524 0
M  V30 6270 H 603.671 -2.40426 4.6615 0
M  V30 6271 H 605.145 -3.92575 3.88058 0
M  V30 6272 H 605.622 -3.80794 2.18844 0
M  V30 6273 H 606.228 -2.61156 3.35675 0
M  V30 6274 N 604.543 -1.41418 -0.695603 0
M  V30 6275 C 605.789 -1.41983 -1.45645 0
M  V30 6276 C 606.144 -0.0282216 -1.92379 0
M  V30 6277 O 605.437 0.945916 -1.66622 0
M  V30 6278 C 605.631 -2.36112 -2.68302 0
M  V30 6279 C 605.46 -3.84288 -2.33566 0
M  V30 6280 C 604.23 -4.52971 -2.23932 0
M  V30 6281 C 606.428 -4.75264 -1.96543 0
M  V30 6282 N 604.41 -5.86276 -1.82081 0
M  V30 6283 C 605.781 -5.97517 -1.6545 0
M  V30 6284 C 607.836 -4.62911 -1.83352 0
M  V30 6285 C 606.539 -7.08793 -1.22492 0
M  V30 6286 C 608.565 -5.74149 -1.41799 0
M  V30 6287 C 607.927 -6.95501 -1.11617 0
M  V30 6288 H 604.026 -0.574771 -0.530247 0
M  V30 6289 H 606.61 -1.77289 -0.804788 0
M  V30 6290 H 604.781 -2.02902 -3.31188 0
M  V30 6291 H 606.513 -2.27397 -3.34773 0
M  V30 6292 H 603.268 -4.06909 -2.42327 0
M  V30 6293 H 603.692 -6.56926 -1.63638 0
M  V30 6294 H 608.334 -3.69588 -2.05341 0
M  V30 6295 H 606.052 -8.01982 -0.992482 0
M  V30 6296 H 609.638 -5.66595 -1.32143 0
M  V30 6297 H 608.518 -7.80114 -0.799493 0
M  V30 6298 N 606.021 0.929856 -1.27246 0
M  V30 6299 C 606.951 2.04722 -1.12299 0
M  V30 6300 C 607.932 1.70082 -0.0250464 0
M  V30 6301 O 609.117 1.93176 -0.199141 0
M  V30 6302 C 606.247 3.38721 -0.767145 0
M  V30 6303 C 605.201 3.87466 -1.81808 0
M  V30 6304 C 604.527 5.18246 -1.31626 0
M  V30 6305 C 605.827 4.11095 -3.22177 0
M  V30 6306 H 607.521 2.17485 -2.05769 0
M  V30 6307 H 605.067 1.04503 -0.990715 0
M  V30 6308 H 607.02 4.16366 -0.649413 0
M  V30 6309 H 605.744 3.25967 0.203259 0
M  V30 6310 H 604.403 3.12012 -1.92468 0
M  V30 6311 H 604.051 5.01881 -0.335378 0
M  V30 6312 H 603.751 5.51829 -2.01887 0
M  V30 6313 H 605.275 5.98462 -1.21143 0
M  V30 6314 H 606.689 4.79316 -3.1453 0
M  V30 6315 H 605.086 4.55982 -3.90129 0
M  V30 6316 H 606.156 3.16468 -3.67391 0
M  V30 6317 N 607.499 1.09233 1.13605 0
M  V30 6318 C 608.91 0.846839 1.6639 0
M  V30 6319 C 609.261 -0.625031 1.85978 0
M  V30 6320 O 608.386 -1.48173 1.57714 0
M  V30 6321 C 608.981 1.5307 3.0225 0
M  V30 6322 C 607.54 1.33223 3.52035 0
M  V30 6323 C 606.687 1.58806 2.27323 0
M  V30 6324 H 609.638 1.25175 0.975541 0
M  V30 6325 H 609.659 0.96267 3.68121 0
M  V30 6326 H 609.171 2.60192 2.87961 0
M  V30 6327 H 607.272 0.282091 3.71531 0
M  V30 6328 H 607.385 2.0657 4.32279 0
M  V30 6329 H 605.749 1.01007 2.33815 0
M  V30 6330 H 606.532 2.67153 2.15602 0
M  V30 6331 N 608.977 -1.30795 0.87923 0
M  V30 6332 C 610.202 -2.01063 0.508769 0
M  V30 6333 C 610.627 -1.65508 -0.893803 0
M  V30 6334 O 609.985 -0.868616 -1.59138 0
M  V30 6335 C 610.033 -3.54054 0.683991 0
M  V30 6336 O 609.137 -4.11498 -0.272654 0
M  V30 6337 H 608.478 -0.632786 0.201191 0
M  V30 6338 H 611.008 -1.66776 1.18519 0
M  V30 6339 H 611.018 -4.03845 0.580798 0
M  V30 6340 H 609.693 -3.79271 1.70665 0
M  V30 6341 H 608.27 -3.72695 -0.12364 0
M  V30 6342 N 610.455 -0.639598 -1.44038 0
M  V30 6343 C 611.871 -0.305953 -1.5664 0
M  V30 6344 C 612.071 1.19055 -1.62567 0
M  V30 6345 O 611.127 1.97492 -1.57331 0
M  V30 6346 C 612.44 -1.00533 -2.83397 0
M  V30 6347 C 613.988 -0.984278 -2.97121 0
M  V30 6348 C 614.463 -1.66428 -4.26691 0
M  V30 6349 N 615.954 -1.63127 -4.33525 0
M  V30 6350 C 616.689 -2.12629 -5.32519 0
M  V30 6351 N 616.185 -2.70359 -6.3787 0
M  V30 6352 N 617.978 -2.03208 -5.24083 0
M  V30 6353 H 610.129 -1.6109 -1.38434 0
M  V30 6354 H 612.392 -0.676672 -0.663942 0
M  V30 6355 H 612.098 -2.06034 -2.85032 0
M  V30 6356 H 611.972 -0.548362 -3.73193 0
M  V30 6357 H 614.359 0.0622792 -2.95034 0
M  V30 6358 H 614.44 -1.47981 -2.08651 0
M  V30 6359 H 614.084 -2.71034 -4.29538 0
M  V30 6360 H 614.014 -1.14351 -5.14034 0
M  V30 6361 H 616.505 -1.20987 -3.58009 0
M  V30 6362 H 616.818 -3.05842 -7.09704 0
M  V30 6363 H 615.163 -2.74414 -6.38531 0
M  V30 6364 H 618.354 -1.57823 -4.40692 0
M  V30 6365 H 618.527 -2.42097 -6.01077 0
M  V30 6366 N 611.933 1.52934 -0.380664 0
M  V30 6367 C 612.865 2.23822 0.493581 0
M  V30 6368 C 613.878 1.25761 1.03383 0
M  V30 6369 O 615.067 1.5189 0.937633 0
M  V30 6370 C 612.167 2.9342 1.69582 0
M  V30 6371 C 611.34 4.18115 1.28445 0
M  V30 6372 C 610.399 4.70788 2.35042 0
M  V30 6373 O 609.425 5.34093 1.96807 0
M  V30 6374 N 610.627 4.49899 3.66839 0
M  V30 6375 H 613.392 2.99484 -0.11371 0
M  V30 6376 H 610.953 1.60577 -0.206587 0
M  V30 6377 H 612.945 3.2556 2.40401 0
M  V30 6378 H 611.515 2.21119 2.20965 0
M  V30 6379 H 610.735 3.92109 0.405503 0
M  V30 6380 H 612.023 4.99152 0.986132 0
M  V30 6381 H 611.421 3.99349 4.0067 0
M  V30 6382 H 609.978 4.86551 4.33718 0
M  V30 6383 N 613.412 0.11024 1.57214 0
M  V30 6384 C 614.359 -0.843195 2.14846 0
M  V30 6385 C 615.329 -1.26954 1.07107 0
M  V30 6386 O 616.514 -1.34861 1.34971 0
M  V30 6387 C 613.654 -2.09123 2.74521 0
M  V30 6388 C 612.767 -1.71404 3.96541 0
M  V30 6389 C 611.902 -2.91107 4.44331 0
M  V30 6390 C 610.941 -2.49586 5.58903 0
M  V30 6391 N 610.078 -3.62175 6.01477 0
M  V30 6392 H 614.918 -0.344886 2.95998 0
M  V30 6393 H 612.455 -0.15855 1.46243 0
M  V30 6394 H 614.413 -2.82234 3.07246 0
M  V30 6395 H 613.043 -2.56427 1.96074 0
M  V30 6396 H 612.095 -0.88201 3.70033 0
M  V30 6397 H 613.407 -1.36884 4.7965 0
M  V30 6398 H 612.561 -3.72454 4.78919 0
M  V30 6399 H 611.3 -3.28848 3.60153 0
M  V30 6400 H 610.305 -1.6667 5.23929 0
M  V30 6401 H 611.53 -2.12973 6.4484 0
M  V30 6402 H 609.476 -3.99605 5.20242 0
M  V30 6403 H 609.393 -3.3155 6.79419 0
M  V30 6404 H 610.661 -4.43987 6.407 0
M  V30 6405 N 614.89 -1.56749 -0.16351 0
M  V30 6406 C 616.118 -1.86577 -0.894233 0
M  V30 6407 C 616.533 -0.696543 -1.75481 0
M  V30 6408 O 615.89 0.334161 -1.79415 0
M  V30 6409 C 615.941 -3.15508 -1.76456 0
M  V30 6410 O 615.662 -4.27926 -0.938685 0
M  V30 6411 C 617.163 -3.58737 -2.60428 0
M  V30 6412 H 614.383 -0.618829 -0.259405 0
M  V30 6413 H 616.927 -2.03863 -0.161259 0
M  V30 6414 H 615.082 -3.00025 -2.45079 0
M  V30 6415 H 615.496 -5.01546 -1.53465 0
M  V30 6416 H 616.97 -4.51832 -3.17099 0
M  V30 6417 H 617.447 -2.83229 -3.35675 0
M  V30 6418 H 618.053 -3.76858 -1.97125 0
M  V30 6419 N 616.368 0.432326 -1.51554 0
M  V30 6420 C 617.593 1.20824 -1.68571 0
M  V30 6421 C 618.018 1.84126 -0.384596 0
M  V30 6422 O 617.376 1.69025 0.655751 0
M  V30 6423 C 617.424 2.26429 -2.80646 0
M  V30 6424 O 616.528 3.32032 -2.44598 0
M  V30 6425 H 615.869 0.353765 -0.561913 0
M  V30 6426 H 618.399 0.509916 -1.98144 0
M  V30 6427 H 618.409 2.71133 -3.04878 0
M  V30 6428 H 617.084 1.79733 -3.75058 0
M  V30 6429 H 615.661 2.92769 -2.30956 0
M  V30 6430 N 617.846 1.41785 0.688094 0
M  V30 6431 C 618.776 1.47 1.8142 0
M  V30 6432 C 619.757 0.327881 1.6691 0
M  V30 6433 O 620.942 0.540362 1.86531 0
M  V30 6434 C 618.072 1.35876 3.19617 0
M  V30 6435 C 617.026 2.47976 3.48844 0
M  V30 6436 C 616.352 2.21915 4.86475 0
M  V30 6437 C 617.652 3.90309 3.47068 0
M  V30 6438 H 619.346 2.41247 1.77314 0
M  V30 6439 H 616.892 1.16116 0.851651 0
M  V30 6440 H 618.845 1.38134 3.98117 0
M  V30 6441 H 617.569 0.38116 3.24368 0
M  V30 6442 H 616.228 2.45013 2.72698 0
M  V30 6443 H 615.876 1.2248 4.8786 0
M  V30 6444 H 615.576 2.97037 5.06994 0
M  V30 6445 H 617.1 2.25901 5.67275 0
M  V30 6446 H 618.514 3.94947 4.1556 0
M  V30 6447 H 616.911 4.65175 3.7912 0
M  V30 6448 H 617.981 4.17927 2.45896 0
M  V30 6449 N 619.324 -0.923095 1.27737 0
M  V30 6450 C 620.254 -2.04124 1.13383 0
M  V30 6451 C 621.235 -1.70066 0.0340658 0
M  V30 6452 O 622.42 -1.93068 0.209383 0
M  V30 6453 C 619.55 -3.3831 0.785097 0
M  V30 6454 C 618.504 -3.86496 1.8386 0
M  V30 6455 C 617.83 -5.1754 1.34373 0
M  V30 6456 C 619.13 -4.09381 3.24353 0
M  V30 6457 H 620.824 -2.1639 2.06919 0
M  V30 6458 H 618.37 -1.03976 0.996243 0
M  V30 6459 H 620.323 -4.16016 0.671485 0
M  V30 6460 H 619.047 -3.2607 -0.185969 0
M  V30 6461 H 617.706 -3.10987 1.9412 0
M  V30 6462 H 617.354 -5.01696 0.361989 0
M  V30 6463 H 617.054 -5.50751 2.04811 0
M  V30 6464 H 618.578 -5.97811 1.24315 0
M  V30 6465 H 619.992 -4.77641 3.17067 0
M  V30 6466 H 618.389 -4.53906 3.92542 0
M  V30 6467 H 619.459 -3.14515 3.69064 0
M  V30 6468 N 620.802 -1.09834 -1.13024 0
M  V30 6469 C 621.765 -0.745058 -2.16752 0
M  V30 6470 C 622.765 0.227435 -1.59183 0
M  V30 6471 O 623.955 0.0050786 -1.74199 0
M  V30 6472 C 621.087 -0.102543 -3.40746 0
M  V30 6473 H 622.28 -1.66375 -2.49518 0
M  V30 6474 H 619.833 -0.898061 -1.27924 0
M  V30 6475 H 620.568 0.827177 -3.13573 0
M  V30 6476 H 620.353 -0.80235 -3.83803 0
M  V30 6477 H 621.843 0.129082 -4.174 0
M  V30 6478 N 622.28 1.30327 -0.886154 0
M  V30 6479 C 623.505 2.0079 -0.519425 0
M  V30 6480 C 623.93 1.65979 0.885013 0
M  V30 6481 O 623.288 0.877043 1.58675 0
M  V30 6482 C 623.336 3.53686 -0.702758 0
M  V30 6483 O 622.44 4.11637 0.250828 0
M  V30 6484 H 621.781 0.63171 -0.204544 0
M  V30 6485 H 624.311 1.66145 -1.19402 0
M  V30 6486 H 624.321 4.03531 -0.602207 0
M  V30 6487 H 622.996 3.78361 -1.72673 0
M  V30 6488 H 621.573 3.72755 0.103873 0
M  V30 6489 N 623.758 0.647228 1.43697 0
M  V30 6490 C 625.006 0.157876 2.01482 0
M  V30 6491 C 625.327 -1.23039 1.51282 0
M  V30 6492 O 624.597 -1.82071 0.722982 0
M  V30 6493 H 623.177 0.0553745 0.744945 0
M  V30 6494 H 625.839 0.83755 1.75986 0
M  V30 6495 H 624.935 0.137895 3.11795 0
M  V30 6496 N 625.236 -1.5273 0.388769 0
M  V30 6497 C 626.199 -2.25043 -0.434544 0
M  V30 6498 C 627.199 -1.26661 -0.990644 0
M  V30 6499 O 628.389 -1.50762 -0.872731 0
M  V30 6500 C 625.521 -3.00507 -1.60961 0
M  V30 6501 H 626.714 -2.99242 0.198549 0
M  V30 6502 H 624.267 -1.55664 0.140875 0
M  V30 6503 H 625.002 -2.30607 -2.28015 0
M  V30 6504 H 624.787 -3.72716 -1.21757 0
M  V30 6505 H 626.277 -3.55413 -2.19251 0
M  V30 6506 N 626.714 -0.118576 -1.57153 0
M  V30 6507 C 628.125 0.40687 -1.82213 0
M  V30 6508 C 628.476 1.66636 -1.03571 0
M  V30 6509 O 627.601 2.14682 -0.272171 0
M  V30 6510 C 628.196 0.744949 -3.30509 0
M  V30 6511 C 626.755 1.21503 -3.5625 0
M  V30 6512 C 625.902 0.223511 -2.76398 0
M  V30 6513 H 628.853 -0.343712 -1.54933 0
M  V30 6514 H 628.874 1.6024 -3.45114 0
M  V30 6515 H 628.386 -0.171911 -3.87719 0
M  V30 6516 H 626.487 2.1488 -3.04396 0
M  V30 6517 H 626.6 1.16065 -4.64829 0
M  V30 6518 H 624.964 0.71046 -2.44591 0
M  V30 6519 H 625.747 -0.686439 -3.36367 0
M  V30 6520 N 628.193 1.56834 0.155195 0
M  V30 6521 C 629.609 1.51315 0.50755 0
M  V30 6522 C 629.809 0.825614 1.83809 0
M  V30 6523 O 628.865 0.39271 2.49427 0
M  V30 6524 C 630.178 2.96074 0.52542 0
M  V30 6525 C 631.726 3.06968 0.611505 0
M  V30 6526 C 632.201 4.53218 0.660115 0
M  V30 6527 N 633.692 4.5753 0.722564 0
M  V30 6528 C 634.427 5.68056 0.781023 0
M  V30 6529 N 633.923 6.88173 0.799327 0
M  V30 6530 N 635.716 5.56068 0.821278 0
M  V30 6531 H 627.867 1.9993 -0.717063 0
M  V30 6532 H 630.13 0.911507 -0.260496 0
M  V30 6533 H 629.836 3.49599 -0.383875 0
M  V30 6534 H 629.71 3.51587 1.36624 0
M  V30 6535 H 632.097 2.53468 1.51122 0
M  V30 6536 H 632.178 2.54513 -0.256306 0
M  V30 6537 H 631.822 5.07354 -0.23541 0
M  V30 6538 H 631.752 5.03447 1.5443 0
M  V30 6539 H 634.243 3.71054 0.716049 0
M  V30 6540 H 634.556 7.6816 0.845553 0
M  V30 6541 H 632.901 6.90751 0.767337 0
M  V30 6542 H 636.092 4.61142 0.804091 0
M  V30 6543 H 636.265 6.42223 0.863372 0
M  V30 6544 N 629.671 -0.424282 1.51781 0
M  V30 6545 C 630.901 -1.19297 1.68677 0
M  V30 6546 C 631.309 -1.85152 0.389258 0
M  V30 6547 O 630.652 -1.72067 -0.643311 0
M  V30 6548 C 630.714 -2.30929 2.75521 0
M  V30 6549 C 630.378 -1.85335 4.17732 0
M  V30 6550 C 631.375 -1.34951 5.0208 0
M  V30 6551 C 629.06 -1.92629 4.63896 0
M  V30 6552 C 631.054 -0.924636 6.30658 0
M  V30 6553 C 628.741 -1.49754 5.92467 0
M  V30 6554 C 629.739 -0.997543 6.75676 0
M  V30 6555 O 629.427 -0.57492 8.01842 0
M  V30 6556 H 629.159 -0.36512 0.568914 0
M  V30 6557 H 631.713 -0.507327 1.99036 0
M  V30 6558 H 629.943 -3.02811 2.40505 0
M  V30 6559 H 631.632 -2.92748 2.81165 0
M  V30 6560 H 632.398 -1.287 4.67612 0
M  V30 6561 H 628.277 -2.30491 3.99243 0
M  V30 6562 H 631.821 -0.533682 6.95556 0
M  V30 6563 H 627.718 -1.55679 6.26446 0
M  V30 6564 H 628.486 -0.699597 8.15505 0
M  V30 6565 N 631.149 -1.42148 -0.680565 0
M  V30 6566 C 632.081 -1.41119 -1.80605 0
M  V30 6567 C 633.094 -0.311099 -1.598 0
M  V30 6568 O 634.283 -0.573813 -1.69026 0
M  V30 6569 C 631.383 -1.18204 -3.17618 0
M  V30 6570 C 630.556 -2.40537 -3.65322 0
M  V30 6571 C 629.615 -2.13254 -4.8105 0
M  V30 6572 O 628.641 -2.8641 -4.91892 0
M  V30 6573 N 629.843 -1.13208 -5.69354 0
M  V30 6574 H 632.608 -2.38128 -1.81975 0
M  V30 6575 H 630.169 -1.36953 -0.863446 0
M  V30 6576 H 632.161 -0.97878 -3.92686 0
M  V30 6577 H 630.731 -0.29738 -3.11182 0
M  V30 6578 H 629.951 -2.76468 -2.80996 0
M  V30 6579 H 631.239 -3.22012 -3.93936 0
M  V30 6580 H 630.637 -0.526893 -5.63241 0
M  V30 6581 H 629.194 -0.988699 -6.44258 0
M  V30 6582 N 632.627 0.916307 -1.28225 0
M  V30 6583 C 633.577 2.00488 -1.08574 0
M  V30 6584 C 634.561 1.60897 -0.0101874 0
M  V30 6585 O 635.753 1.75499 -0.230034 0
M  V30 6586 C 632.882 3.35076 -0.746943 0
M  V30 6587 C 631.968 3.81077 -1.86121 0
M  V30 6588 N 632.359 3.99475 -3.10247 0
M  V30 6589 C 630.657 4.10212 -1.75048 0
M  V30 6590 C 631.358 4.37965 -3.82834 0
M  V30 6591 N 630.334 4.4608 -3.10667 0
M  V30 6592 H 634.136 2.1276 -2.02757 0
M  V30 6593 H 631.65 1.10397 -1.19107 0
M  V30 6594 H 633.647 4.12743 -0.587252 0
M  V30 6595 H 632.307 3.2416 0.187146 0
M  V30 6596 H 633.318 3.85466 -3.45885 0
M  V30 6597 H 629.995 4.07947 -0.887999 0
M  V30 6598 H 631.385 4.60183 -4.89572 0
M  V30 6599 N 634.105 1.10431 1.1244 0
M  V30 6600 C 635.038 0.696987 2.17296 0
M  V30 6601 C 636.016 -0.301673 1.59777 0
M  V30 6602 O 637.2 -0.200583 1.8743 0
M  V30 6603 C 634.327 0.0284094 3.38688 0
M  V30 6604 C 633.373 0.990536 4.14838 0
M  V30 6605 S 634.206 2.50785 4.73146 0
M  V30 6606 C 635.362 1.85198 5.97873 0
M  V30 6607 H 635.595 1.58523 2.51511 0
M  V30 6608 H 633.128 0.921312 1.239 0
M  V30 6609 H 635.086 -0.351009 4.08997 0
M  V30 6610 H 633.747 -0.836629 3.02753 0
M  V30 6611 H 632.94 0.469991 5.01804 0
M  V30 6612 H 632.542 1.31186 3.50237 0
M  V30 6613 H 634.834 1.18217 6.67106 0
M  V30 6614 H 635.777 2.7012 6.54554 0
M  V30 6615 H 636.185 1.31653 5.48933 0
M  V30 6616 N 635.583 -1.29855 0.893053 0
M  V30 6617 C 636.831 -1.9544 0.514566 0
M  V30 6618 C 637.152 -1.70795 -0.940959 0
M  V30 6619 O 636.422 -1.03601 -1.66264 0
M  V30 6620 H 635.002 -0.723137 0.187302 0
M  V30 6621 H 637.664 -1.58234 1.13789 0
M  V30 6622 H 636.76 -3.04341 0.691581 0
M  V30 6623 N 637.061 -0.65484 -1.43351 0
M  V30 6624 C 638.477 -0.32255 -1.56307 0
M  V30 6625 C 638.677 1.17324 -1.63821 0
M  V30 6626 O 637.733 1.95813 -1.59417 0
M  V30 6627 C 639.046 -1.03533 -2.82314 0
M  V30 6628 C 640.594 -1.01574 -2.9606 0
M  V30 6629 C 641.069 -1.70945 -4.24902 0
M  V30 6630 N 642.56 -1.67716 -4.3177 0
M  V30 6631 C 643.295 -2.18265 -5.30234 0
M  V30 6632 N 642.791 -2.7711 -6.34966 0
M  V30 6633 N 644.584 -2.08756 -5.21898 0
M  V30 6634 H 636.735 -1.62549 -1.36717 0
M  V30 6635 H 638.998 -0.683676 -0.656727 0
M  V30 6636 H 638.704 -2.09045 -2.8283 0
M  V30 6637 H 638.578 -0.587913 -3.7259 0
M  V30 6638 H 640.965 0.0309834 -2.95084 0
M  V30 6639 H 641.046 -1.50186 -2.07069 0
M  V30 6640 H 640.69 -2.75574 -4.26639 0
M  V30 6641 H 640.62 -1.19797 -5.12793 0
M  V30 6642 H 643.111 -1.24777 -3.56706 0
M  V30 6643 H 643.424 -3.13353 -7.06421 0
M  V30 6644 H 641.769 -2.81171 -6.35585 0
M  V30 6645 H 644.96 -1.62488 -4.38994 0
M  V30 6646 H 645.133 -2.48459 -5.98475 0
M  V30 6647 N 638.539 1.52521 -0.396863 0
M  V30 6648 C 639.785 2.01971 0.183169 0
M  V30 6649 C 640.118 1.2825 1.45827 0
M  V30 6650 O 639.393 0.385179 1.90648 0
M  V30 6651 C 639.676 3.5736 0.443391 0
M  V30 6652 C 639.529 4.41743 -0.84753 0
M  V30 6653 C 640.848 4.22539 1.2308 0
M  V30 6654 H 637.967 0.734119 0.0650976 0
M  V30 6655 H 640.609 1.82519 -0.527918 0
M  V30 6656 H 638.759 3.74066 1.04914 0
M  V30 6657 H 640.431 4.36773 -1.48414 0
M  V30 6658 H 638.674 4.0845 -1.4612 0
M  V30 6659 H 639.345 5.48507 -0.620003 0
M  V30 6660 H 641.821 4.09857 0.718084 0
M  V30 6661 H 640.697 5.31227 1.38162 0
M  V30 6662 H 640.958 3.80675 2.24808 0
M  V30 6663 N 640.017 0.126909 1.57088 0
M  V30 6664 C 640.947 -0.816847 2.18746 0
M  V30 6665 C 641.928 -1.27161 1.12979 0
M  V30 6666 O 643.113 -1.33279 1.41246 0
M  V30 6667 C 640.243 -2.06398 2.79315 0
M  V30 6668 C 639.197 -1.74673 3.90735 0
M  V30 6669 C 638.523 -3.06482 4.38147 0
M  V30 6670 C 639.823 -1.0089 5.12463 0
M  V30 6671 H 641.517 -0.303032 2.97863 0
M  V30 6672 H 639.063 -0.144314 1.43275 0
M  V30 6673 H 641.016 -2.72885 3.2111 0
M  V30 6674 H 639.74 -2.60118 1.975 0
M  V30 6675 H 638.399 -1.10572 3.49527 0
M  V30 6676 H 638.047 -3.58152 3.5318 0
M  V30 6677 H 637.747 -2.86025 5.13287 0
M  V30 6678 H 639.271 -3.74073 4.82599 0
M  V30 6679 H 640.685 -1.57546 5.51228 0
M  V30 6680 H 639.082 -0.905006 5.93237 0
M  V30 6681 H 640.152 0.00297335 4.849 0
M  V30 6682 N 641.495 -1.56914 -0.146875 0
M  V30 6683 C 642.425 -2.01308 -1.1831 0
M  V30 6684 C 643.406 -0.892664 -1.44795 0
M  V30 6685 O 644.591 -1.16048 -1.55713 0
M  V30 6686 C 641.721 -2.3938 -2.51624 0
M  V30 6687 C 640.675 -3.54608 -2.3966 0
M  V30 6688 C 640.001 -3.78493 -3.77686 0
M  V30 6689 C 641.301 -4.87269 -1.88058 0
M  V30 6690 H 642.995 -2.88123 -0.813964 0
M  V30 6691 H 640.541 -1.38615 -0.3901 0
M  V30 6692 H 642.494 -2.69037 -3.24341 0
M  V30 6693 H 641.218 -1.49502 -2.90373 0
M  V30 6694 H 639.877 -3.25116 -1.69396 0
M  V30 6695 H 639.525 -2.85866 -4.13871 0
M  V30 6696 H 639.225 -4.56039 -3.70543 0
M  V30 6697 H 640.749 -4.10576 -4.51951 0
M  V30 6698 H 642.163 -5.15644 -2.50568 0
M  V30 6699 H 640.56 -5.68622 -1.91805 0
M  V30 6700 H 641.63 -4.77634 -0.836277 0
M  V30 6701 N 642.974 0.416227 -1.52004 0
M  V30 6702 C 644.221 1.16383 -1.65714 0
M  V30 6703 C 644.549 1.9068 -0.383594 0
M  V30 6704 O 643.804 1.85174 0.633185 0
M  V30 6705 C 644.103 2.18923 -2.82502 0
M  V30 6706 C 643.769 1.61485 -4.20991 0
M  V30 6707 C 642.431 1.45545 -4.58661 0
M  V30 6708 C 644.783 1.19468 -5.07323 0
M  V30 6709 C 642.111 0.860937 -5.80349 0
M  V30 6710 C 644.463 0.614386 -6.29609 0
M  V30 6711 C 643.127 0.442056 -6.66035 0
M  V30 6712 H 642.397 0.425875 -0.606392 0
M  V30 6713 H 645.044 0.45199 -1.8609 0
M  V30 6714 H 643.349 2.96225 -2.56433 0
M  V30 6715 H 645.046 2.76628 -2.90307 0
M  V30 6716 H 641.636 1.74873 -3.91302 0
M  V30 6717 H 645.82 1.30596 -4.78809 0
M  V30 6718 H 641.076 0.715372 -6.072 0
M  V30 6719 H 645.25 0.280393 -6.95835 0
M  V30 6720 H 642.877 -0.0207218 -7.60197 0
M  V30 6721 N 644.452 1.42507 0.673017 0
M  V30 6722 C 645.384 1.42074 1.79854 0
M  V30 6723 C 646.397 0.319569 1.59633 0
M  V30 6724 O 647.586 0.582769 1.68719 0
M  V30 6725 C 644.686 1.19886 3.16987 0
M  V30 6726 C 643.859 2.42471 3.64042 0
M  V30 6727 C 642.918 2.15802 4.79913 0
M  V30 6728 O 641.944 2.89015 4.90366 0
M  V30 6729 N 643.146 1.16225 5.68746 0
M  V30 6730 H 645.911 2.3909 1.8071 0
M  V30 6731 H 643.472 1.37409 0.856171 0
M  V30 6732 H 645.464 0.999591 3.92161 0
M  V30 6733 H 644.034 0.313879 3.1102 0
M  V30 6734 H 643.254 2.77954 2.79526 0
M  V30 6735 H 644.542 3.24097 3.92223 0
M  V30 6736 H 643.94 0.556756 5.62954 0
M  V30 6737 H 642.497 1.02285 6.43724 0
M  V30 6738 N 645.93 -0.909495 1.28709 0
M  V30 6739 C 646.84 -2.04558 1.14861 0
M  V30 6740 C 647.856 -1.73842 0.0741621 0
M  V30 6741 O 649.032 -1.99383 0.2843 0
M  V30 6742 C 646.097 -3.36957 0.816148 0
M  V30 6743 C 645.158 -3.81255 1.97341 0
M  V30 6744 C 644.391 -5.07335 1.65671 0
M  V30 6745 O 644.614 -5.67514 0.573053 0
M  V30 6746 O 643.548 -5.47449 2.50167 0
M  V30 6747 H 647.374 -2.19161 2.10243 0
M  V30 6748 H 644.959 -1.03159 1.08068 0
M  V30 6749 H 646.841 -4.16436 0.644873 0
M  V30 6750 H 645.516 -3.2352 -0.107983 0
M  V30 6751 H 644.423 -3.02584 2.19986 0
M  V30 6752 H 645.756 -3.99261 2.87839 0
M  V30 6753 N 647.408 -1.11026 -1.11852 0
M  V30 6754 C 648.819 -0.873203 -1.65021 0
M  V30 6755 C 649.17 0.595364 -1.86949 0
M  V30 6756 O 648.295 1.45645 -1.60051 0
M  V30 6757 C 648.89 -1.57859 -2.99777 0
M  V30 6758 C 647.449 -1.38807 -3.49871 0
M  V30 6759 C 646.596 -1.62403 -2.24768 0
M  V30 6760 H 649.547 -1.26712 -0.955503 0
M  V30 6761 H 649.568 -1.02111 -3.66543 0
M  V30 6762 H 649.08 -2.6474 -2.83786 0
M  V30 6763 H 647.181 -0.341163 -3.71035 0
M  V30 6764 H 647.294 -2.13421 -4.28938 0
M  V30 6765 H 645.658 -1.04714 -2.32179 0
M  V30 6766 H 646.441 -2.70549 -2.11324 0
M  V30 6767 N 648.886 1.2938 -0.899927 0
M  V30 6768 C 649.818 2.26737 -0.335139 0
M  V30 6769 C 650.831 1.54316 0.518681 0
M  V30 6770 O 652.02 1.75313 0.335803 0
M  V30 6771 C 649.12 3.34558 0.540774 0
M  V30 6772 C 648.293 4.36455 -0.287372 0
M  V30 6773 C 647.352 5.2361 0.52141 0
M  V30 6774 O 646.378 5.69167 -0.0611735 0
M  V30 6775 N 647.58 5.50985 1.82745 0
M  V30 6776 H 650.345 2.75838 -1.17191 0
M  V30 6777 H 647.906 1.42716 -0.764438 0
M  V30 6778 H 649.898 3.89794 1.08825 0
M  V30 6779 H 648.468 2.85272 1.27823 0
M  V30 6780 H 647.688 3.80875 -1.01626 0
M  V30 6781 H 648.976 5.01573 -0.854518 0
M  V30 6782 H 648.374 5.15781 2.32349 0
M  V30 6783 H 646.931 6.09036 2.32204 0
M  V30 6784 N 650.364 0.662433 1.43002 0
M  V30 6785 C 651.612 0.179237 2.01304 0
M  V30 6786 C 651.933 -1.21428 1.52579 0
M  V30 6787 O 651.203 -1.81294 0.742252 0
M  V30 6788 H 649.783 0.0632725 0.744316 0
M  V30 6789 H 652.445 0.856169 1.75088 0
M  V30 6790 H 651.541 0.170957 3.11631 0
M  V30 6791 N 651.842 -1.52309 0.404946 0
M  V30 6792 C 653.09 -2.01368 -0.17186 0
M  V30 6793 C 653.411 -1.29261 -1.46002 0
M  V30 6794 O 652.681 -0.41729 -1.91404 0
M  V30 6795 H 651.261 -0.744034 -0.0664993 0
M  V30 6796 H 653.923 -1.87263 0.540228 0
M  V30 6797 H 653.019 -3.09888 -0.370957 0
M  V30 6798 N 653.32 -0.135238 -1.57019 0
M  V30 6799 C 654.568 0.51777 -1.95355 0
M  V30 6800 C 654.889 1.6617 -1.02042 0
M  V30 6801 O 654.159 1.95738 -0.0797343 0
M  V30 6802 H 652.739 0.194264 -0.721298 0
M  V30 6803 H 655.401 -0.207983 -1.93787 0
M  V30 6804 H 654.497 0.901675 -2.98791 0
M  V30 6805 N 654.798 1.5699 0.138552 0
M  V30 6806 C 655.748 1.9532 1.17619 0
M  V30 6807 C 656.732 0.825545 1.38107 0
M  V30 6808 O 657.924 1.08908 1.39528 0
M  V30 6809 C 655.053 2.34451 2.50774 0
M  V30 6810 C 654.139 3.53805 2.33844 0
M  V30 6811 N 654.53 4.70088 1.86685 0
M  V30 6812 C 652.828 3.59055 2.64567 0
M  V30 6813 C 653.529 5.52165 1.82998 0
M  V30 6814 N 652.505 4.94108 2.26624 0
M  V30 6815 H 656.307 2.82694 0.803809 0
M  V30 6816 H 653.821 1.5866 0.346519 0
M  V30 6817 H 655.818 2.60119 3.25797 0
M  V30 6818 H 654.478 1.48431 2.88788 0
M  V30 6819 H 655.489 4.93681 1.56523 0
M  V30 6820 H 652.166 2.83596 3.06398 0
M  V30 6821 H 653.556 6.55407 1.47957 0
M  V30 6822 N 656.276 -0.40816 1.52223 0
M  V30 6823 C 657.522 -1.15347 1.67531 0
M  V30 6824 C 657.877 -1.8818 0.400748 0
M  V30 6825 O 657.17 -1.81803 -0.604845 0
M  V30 6826 C 657.364 -2.17422 2.83659 0
M  V30 6827 C 657.193 -1.54611 4.22286 0
M  V30 6828 C 655.963 -1.31841 4.87797 0
M  V30 6829 C 658.161 -1.00648 5.04355 0
M  V30 6830 N 656.143 -0.649338 6.10456 0
M  V30 6831 C 657.514 -0.464384 6.18258 0
M  V30 6832 C 659.569 -0.901041 4.89679 0
M  V30 6833 C 658.272 0.172825 7.19092 0
M  V30 6834 C 660.298 -0.277684 5.90748 0
M  V30 6835 C 659.66 0.253734 7.03943 0
M  V30 6836 H 655.759 -0.408722 0.666686 0
M  V30 6837 H 658.343 -0.445713 1.8953 0
M  V30 6838 H 656.514 -2.85554 2.63274 0
M  V30 6839 H 658.246 -2.84321 2.87999 0
M  V30 6840 H 655.001 -1.58819 4.46176 0
M  V30 6841 H 655.425 -0.3314 6.76188 0
M  V30 6842 H 660.067 -1.29772 4.02392 0
M  V30 6843 H 657.785 0.581564 8.06005 0
M  V30 6844 H 661.371 -0.197605 5.81464 0
M  V30 6845 H 660.251 0.728482 7.80809 0
M  V30 6846 N 657.755 -1.42862 -0.66545 0
M  V30 6847 C 658.98 -1.47456 -1.45848 0
M  V30 6848 C 659.405 -0.0900312 -1.87884 0
M  V30 6849 O 658.763 0.913587 -1.56599 0
M  V30 6850 C 658.811 -2.41514 -2.67774 0
M  V30 6851 O 657.915 -1.89296 -3.66389 0
M  V30 6852 H 657.256 -0.499236 -0.437789 0
M  V30 6853 H 659.786 -1.8765 -0.815394 0
M  V30 6854 H 659.796 -2.58409 -3.15735 0
M  V30 6855 H 658.471 -3.42099 -2.36519 0
M  V30 6856 H 657.048 -1.82003 -3.25468 0
M  V30 6857 N 659.233 0.902656 -1.29189 0
M  V30 6858 C 660.165 2.01149 -1.09872 0
M  V30 6859 C 661.178 1.62732 -0.0471046 0
M  V30 6860 O 662.367 1.76107 -0.29132 0
M  V30 6861 C 659.467 3.32612 -0.649818 0
M  V30 6862 C 658.64 3.99574 -1.7793 0
M  V30 6863 C 657.699 5.09325 -1.32191 0
M  V30 6864 O 656.725 5.31919 -2.02611 0
M  V30 6865 N 657.927 5.80185 -0.191171 0
M  V30 6866 H 660.692 2.18276 -2.05368 0
M  V30 6867 H 658.253 1.07466 -1.2109 0
M  V30 6868 H 660.245 4.03375 -0.327199 0
M  V30 6869 H 658.815 3.11876 0.212597 0
M  V30 6870 H 658.035 3.22213 -2.27095 0
M  V30 6871 H 659.323 4.41056 -2.53668 0
M  V30 6872 H 658.721 5.64312 0.396016 0
M  V30 6873 H 657.278 6.5176 0.0721001 0
M  V30 6874 N 660.711 1.11618 1.11262 0
M  V30 6875 C 661.957 0.867463 1.83311 0
M  V30 6876 C 662.29 -0.605366 1.84524 0
M  V30 6877 O 661.565 -1.44704 1.29965 0
M  V30 6878 C 661.848 1.43207 3.30399 0
M  V30 6879 C 661.701 2.97265 3.3757 0
M  V30 6880 C 663.02 1.08454 4.26528 0
M  V30 6881 H 660.139 0.316578 0.665543 0
M  V30 6882 H 662.781 1.38137 1.30454 0
M  V30 6883 H 660.931 0.994982 3.75543 0
M  V30 6884 H 662.603 3.49591 3.00971 0
M  V30 6885 H 660.846 3.33237 2.77733 0
M  V30 6886 H 661.517 3.31859 4.41105 0
M  V30 6887 H 663.993 1.4619 3.89574 0
M  V30 6888 H 662.869 1.50633 5.27826 0
M  V30 6889 H 663.13 -0.00444568 4.421 0
M  V30 6890 N 662.189 -1.289 0.906776 0
M  V30 6891 C 663.121 -2.26556 0.347159 0
M  V30 6892 C 664.134 -1.54589 -0.51049 0
M  V30 6893 O 665.323 -1.75489 -0.326501 0
M  V30 6894 C 662.423 -3.3484 -0.523024 0
M  V30 6895 C 661.596 -4.36296 0.310515 0
M  V30 6896 C 660.655 -5.23879 -0.493634 0
M  V30 6897 O 659.681 -5.69127 0.0913569 0
M  V30 6898 N 660.883 -5.51946 -1.7982 0
M  V30 6899 H 663.648 -2.75212 1.18652 0
M  V30 6900 H 661.209 -1.42309 0.771996 0
M  V30 6901 H 663.201 -3.90366 -1.06756 0
M  V30 6902 H 661.771 -2.85946 -1.26309 0
M  V30 6903 H 660.991 -3.80331 1.03644 0
M  V30 6904 H 662.279 -5.01113 0.881106 0
M  V30 6905 H 661.677 -5.17006 -2.2961 0
M  V30 6906 H 660.234 -6.10258 -2.28971 0
M  V30 6907 N 663.667 -0.670007 -1.42649 0
M  V30 6908 C 664.895 -0.19854 -2.05945 0
M  V30 6909 C 665.31 1.14243 -1.50313 0
M  V30 6910 O 664.667 1.70872 -0.641027 0
M  V30 6911 C 664.718 -0.11966 -3.61302 0
M  V30 6912 O 664.439 -1.40764 -4.1487 0
M  V30 6913 C 665.94 0.375878 -4.41704 0
M  V30 6914 H 663.16 -0.0976894 -0.663851 0
M  V30 6915 H 665.704 -0.915392 -1.82868 0
M  V30 6916 H 663.859 0.547851 -3.83507 0
M  V30 6917 H 664.273 -1.27784 -5.08696 0
M  V30 6918 H 665.747 0.379988 -5.50691 0
M  V30 6919 H 666.224 1.41028 -4.15942 0
M  V30 6920 H 666.83 -0.259727 -4.24506 0
M  V30 6921 N 665.145 1.52092 -0.413018 0
M  V30 6922 C 666.394 2.01041 0.16287 0
M  V30 6923 C 666.707 1.30288 1.45892 0
M  V30 6924 O 667.913 1.70075 2.11629 0
M  V30 6925 C 666.369 3.58283 0.340806 0
M  V30 6926 C 665.977 4.37955 -0.943377 0
M  V30 6927 C 667.721 4.15452 0.871774 0
M  V30 6928 C 665.628 5.86847 -0.732417 0
M  V30 6929 H 664.558 0.751224 0.0646414 0
M  V30 6930 H 667.209 1.75404 -0.539059 0
M  V30 6931 H 665.591 3.80266 1.10516 0
M  V30 6932 H 666.765 4.2773 -1.71418 0
M  V30 6933 H 665.08 3.92122 -1.40105 0
M  V30 6934 H 667.677 5.24375 1.0457 0
M  V30 6935 H 668.02 3.73057 1.84755 0
M  V30 6936 H 668.553 3.97452 0.166377 0
M  V30 6937 H 665.292 6.33609 -1.67986 0
M  V30 6938 H 664.812 5.998 -0.000980058 0
M  V30 6939 H 666.491 6.45906 -0.376105 0
M  V30 6940 N 666.623 0.143563 1.56945 0
M  V30 6941 C 667.573 -0.809115 2.1316 0
M  V30 6942 C 668.557 -1.21176 1.05855 0
M  V30 6943 O 669.749 -1.17875 1.3204 0
M  V30 6944 C 666.878 -2.04957 2.75405 0
M  V30 6945 C 665.964 -1.67018 3.89828 0
M  V30 6946 N 666.355 -0.998822 4.9584 0
M  V30 6947 C 664.653 -1.96313 4.00471 0
M  V30 6948 C 665.354 -0.816217 5.75945 0
M  V30 6949 N 664.33 -1.349 5.26596 0
M  V30 6950 H 668.132 -0.286919 2.92496 0
M  V30 6951 H 665.646 -0.0580948 1.62296 0
M  V30 6952 H 667.643 -2.74201 3.14037 0
M  V30 6953 H 666.303 -2.57697 1.97541 0
M  V30 6954 H 667.314 -0.659975 5.13678 0
M  V30 6955 H 663.991 -2.50927 3.33679 0
M  V30 6956 H 665.381 -0.287353 6.71285 0
M  V30 6957 N 668.101 -1.57061 -0.130224 0
M  V30 6958 C 669.349 -1.83893 -0.838313 0
M  V30 6959 C 669.67 -0.727046 -1.80939 0
M  V30 6960 O 668.94 0.249927 -1.94299 0
M  V30 6961 H 667.52 -0.67846 -0.312573 0
M  V30 6962 H 670.182 -1.94529 -0.120224 0
M  V30 6963 H 669.278 -2.79419 -1.39038 0
M  V30 6964 N 669.579 0.400081 -1.52437 0
M  V30 6965 C 670.807 1.16768 -1.70801 0
M  V30 6966 C 671.222 1.84036 -0.421462 0
M  V30 6967 O 670.579 1.72242 0.603228 0
M  V30 6968 C 670.63 2.22403 -2.8499 0
M  V30 6969 O 670.351 1.57879 -4.08663 0
M  V30 6970 C 671.852 3.11974 -3.1494 0
M  V30 6971 H 669.072 0.350533 -0.57216 0
M  V30 6972 H 671.616 0.469534 -1.99037 0
M  V30 6973 H 669.771 2.87871 -2.59247 0
M  V30 6974 H 670.185 2.27982 -4.7236 0
M  V30 6975 H 671.659 3.82148 -3.9833 0
M  V30 6976 H 672.136 3.74858 -2.28863 0
M  V30 6977 H 672.742 2.52165 -3.42481 0
M  V30 6978 N 671.057 1.43213 0.657864 0
M  V30 6979 C 671.989 1.43974 1.78337 0
M  V30 6980 C 673.002 0.336482 1.59285 0
M  V30 6981 O 674.191 0.600631 1.68091 0
M  V30 6982 C 671.291 1.23242 3.15697 0
M  V30 6983 C 670.464 2.46319 3.61449 0
M  V30 6984 C 669.523 2.2088 4.77597 0
M  V30 6985 O 668.549 2.942 4.87273 0
M  V30 6986 N 669.751 1.22251 5.67481 0
M  V30 6987 H 672.516 2.40993 1.78164 0
M  V30 6988 H 670.077 1.3831 0.841549 0
M  V30 6989 H 672.069 1.04113 3.91079 0
M  V30 6990 H 670.639 0.346849 3.1067 0
M  V30 6991 H 669.859 2.80904 2.76563 0
M  V30 6992 H 671.147 3.28239 3.88763 0
M  V30 6993 H 670.545 0.616433 5.62331 0
M  V30 6994 H 669.102 1.09107 6.42603 0
M  V30 6995 N 672.536 -0.895792 1.29666 0
M  V30 6996 C 673.785 -1.64131 1.17234 0
M  V30 6997 C 674.098 -1.93665 -0.274416 0
M  V30 6998 O 675.304 -2.66472 -0.520105 0
M  V30 6999 C 673.76 -2.95764 2.05065 0
M  V30 7000 C 673.368 -2.7381 3.54587 0
M  V30 7001 C 675.112 -3.737 2.01367 0
M  V30 7002 C 673.019 -4.01194 4.34508 0
M  V30 7003 H 671.949 -0.615742 0.435175 0
M  V30 7004 H 674.6 -0.992626 1.54335 0
M  V30 7005 H 672.982 -3.61867 1.60837 0
M  V30 7006 H 674.156 -2.16277 4.06892 0
M  V30 7007 H 672.471 -2.09265 3.59996 0
M  V30 7008 H 675.068 -4.68152 2.58337 0
M  V30 7009 H 675.411 -4.04245 0.994575 0
M  V30 7010 H 675.944 -3.14444 2.43659 0
M  V30 7011 H 672.683 -3.75813 5.37071 0
M  V30 7012 H 672.203 -4.58272 3.86971 0
M  V30 7013 H 673.882 -4.69307 4.45376 0
M  V30 7014 N 674.014 -1.12206 -1.10668 0
M  V30 7015 C 675.262 -0.874144 -1.82217 0
M  V30 7016 C 675.583 0.601736 -1.85484 0
M  V30 7017 O 674.853 1.43725 -1.33116 0
M  V30 7018 H 673.433 -0.320404 -0.674797 0
M  V30 7019 H 676.095 -1.41606 -1.33917 0
M  V30 7020 H 675.191 -1.25349 -2.85822 0
M  V30 7021 N 675.492 1.28418 -0.913599 0
M  V30 7022 C 676.717 1.99643 -0.561899 0
M  V30 7023 C 677.142 1.67819 0.849608 0
M  V30 7024 O 676.5 0.910503 1.56779 0
M  V30 7025 C 676.548 3.52116 -0.777622 0
M  V30 7026 O 675.652 4.12076 0.163457 0
M  V30 7027 H 674.993 0.627229 -0.217898 0
M  V30 7028 H 677.523 1.63575 -1.229 0
M  V30 7029 H 677.533 4.02163 -0.687666 0
M  V30 7030 H 676.208 3.74613 -1.8066 0
M  V30 7031 H 674.785 3.72892 0.0247827 0
M  V30 7032 N 676.97 0.677563 1.42291 0
M  V30 7033 C 678.2 0.209155 2.05539 0
M  V30 7034 C 678.608 -1.13987 1.51009 0
M  V30 7035 O 677.951 -1.71976 0.645764 0
M  V30 7036 C 678.013 0.0697758 3.59432 0
M  V30 7037 C 677.677 1.34795 4.36668 0
M  V30 7038 C 678.674 2.28201 4.67141 0
M  V30 7039 C 676.359 1.59632 4.76259 0
M  V30 7040 C 678.353 3.44718 5.36142 0
M  V30 7041 C 676.04 2.76437 5.45 0
M  V30 7042 C 677.038 3.68805 5.74867 0
M  V30 7043 O 676.726 4.83567 6.42198 0
M  V30 7044 H 676.458 0.0986202 0.668768 0
M  V30 7045 H 679.012 0.925483 1.83368 0
M  V30 7046 H 677.242 -0.702157 3.80272 0
M  V30 7047 H 678.931 -0.359115 4.04308 0
M  V30 7048 H 679.697 2.10264 4.37052 0
M  V30 7049 H 675.576 0.886073 4.52404 0
M  V30 7050 H 679.12 4.16833 5.59371 0
M  V30 7051 H 675.017 2.94299 5.74507 0
M  V30 7052 H 675.785 4.83147 6.6069 0
M  V30 7053 N 678.448 -1.51871 0.421078 0
M  V30 7054 C 679.695 -2.01938 -0.15079 0
M  V30 7055 C 680.023 -1.30611 -1.44121 0
M  V30 7056 O 679.278 -0.404631 -1.91471 0
M  V30 7057 C 679.577 -3.54764 -0.433292 0
M  V30 7058 C 679.243 -4.44288 0.76936 0
M  V30 7059 C 677.905 -4.68477 1.09921 0
M  V30 7060 C 680.257 -4.96915 1.57242 0
M  V30 7061 C 677.585 -5.4254 2.2331 0
M  V30 7062 C 679.937 -5.7222 2.69716 0
M  V30 7063 C 678.601 -5.94678 3.03174 0
M  V30 7064 H 677.871 -0.738943 -0.0551781 0
M  V30 7065 H 680.518 -1.82977 0.564945 0
M  V30 7066 H 678.823 -3.71968 -1.23074 0
M  V30 7067 H 680.52 -3.91023 -0.888922 0
M  V30 7068 H 677.11 -4.25646 0.502305 0
M  V30 7069 H 681.294 -4.78125 1.3308 0
M  V30 7070 H 676.55 -5.58146 2.49565 0
M  V30 7071 H 680.724 -6.11992 3.32323 0
M  V30 7072 H 678.351 -6.51848 3.9115 0
M  V30 7073 N 679.926 -0.151884 -1.56866 0
M  V30 7074 C 681.174 0.497021 -1.95893 0
M  V30 7075 C 681.495 1.65078 -1.03799 0
M  V30 7076 O 680.765 1.95642 -0.10049 0
M  V30 7077 H 679.345 0.186603 -0.723318 0
M  V30 7078 H 682.007 -0.228525 -1.93556 0
M  V30 7079 H 681.103 0.869933 -2.99731 0
M  V30 7080 N 681.404 1.57128 0.121893 0
M  V30 7081 C 682.652 1.84335 0.828548 0
M  V30 7082 C 682.973 0.736632 1.80551 0
M  V30 7083 O 682.243 -0.23962 1.94429 0
M  V30 7084 H 680.823 0.680108 0.30897 0
M  V30 7085 H 683.485 1.9459 0.109906 0
M  V30 7086 H 682.581 2.80152 1.37554 0
M  V30 7087 N 682.882 -0.391992 1.52647 0
M  V30 7088 C 683.792 -1.503 1.80131 0
M  V30 7089 C 684.808 -1.59825 0.687882 0
M  V30 7090 O 685.984 -1.76218 0.975149 0
M  V30 7091 C 683.049 -2.85863 1.96171 0
M  V30 7092 C 682.11 -2.86084 3.20085 0
M  V30 7093 C 681.343 -4.15181 3.35351 0
M  V30 7094 O 681.566 -5.09981 2.55491 0
M  V30 7095 O 680.5 -4.22603 4.28591 0
M  V30 7096 H 684.326 -1.30007 2.74466 0
M  V30 7097 H 681.911 -0.579539 1.37701 0
M  V30 7098 H 683.793 -3.66236 2.08445 0
M  V30 7099 H 682.468 -3.06189 1.05025 0
M  V30 7100 H 681.375 -2.04504 3.13256 0
M  V30 7101 H 682.708 -2.7071 4.11068 0
M  V30 7102 N 684.36 -1.4356 -0.65026 0
M  V30 7103 C 685.29 -1.51758 -1.77459 0
M  V30 7104 C 686.271 -0.372019 -1.65982 0
M  V30 7105 O 687.456 -0.589627 -1.85033 0
M  V30 7106 C 684.586 -1.44302 -3.15902 0
M  V30 7107 C 683.54 -2.57138 -3.42146 0
M  V30 7108 C 682.866 -2.34735 -4.8042 0
M  V30 7109 C 684.166 -3.99373 -3.36598 0
M  V30 7110 H 685.86 -2.45863 -1.70855 0
M  V30 7111 H 683.406 -1.18333 -0.820566 0
M  V30 7112 H 685.359 -1.48641 -3.94314 0
M  V30 7113 H 684.083 -0.467026 -3.23244 0
M  V30 7114 H 682.742 -2.52157 -2.66106 0
M  V30 7115 H 682.39 -1.35372 -4.84441 0
M  V30 7116 H 682.09 -3.10375 -4.9894 0
M  V30 7117 H 683.614 -2.40862 -5.61086 0
M  V30 7118 H 685.028 -4.05826 -4.04942 0
M  V30 7119 H 683.425 -4.75063 -3.66654 0
M  V30 7120 H 684.495 -4.243 -2.34729 0
M  V30 7121 N 685.838 0.888903 -1.30139 0
M  V30 7122 C 687.078 1.65456 -1.20015 0
M  V30 7123 C 687.442 1.90467 0.242148 0
M  V30 7124 O 688.643 2.6472 0.466561 0
M  V30 7125 C 686.914 2.96071 -2.00191 0
M  V30 7126 S 688.473 3.87055 -2.06721 0
M  V30 7127 H 685.291 0.567927 -0.427761 0
M  V30 7128 H 687.893 1.05539 -1.64565 0
M  V30 7129 H 686.597 2.7559 -3.04103 0
M  V30 7130 H 686.128 3.61023 -1.56288 0
M  V30 7131 H 688.143 4.81676 -1.19174 0
M  V30 7132 N 687.317 1.12792 1.10072 0
M  V30 7133 C 688.565 0.883796 1.81751 0
M  V30 7134 C 688.886 -0.591891 1.858 0
M  V30 7135 O 688.156 -1.43017 1.33876 0
M  V30 7136 H 686.736 0.323978 0.673088 0
M  V30 7137 H 689.398 1.42314 1.33164 0
M  V30 7138 H 688.494 1.26863 2.85153 0
M  V30 7139 N 688.795 -1.27931 0.920396 0
M  V30 7140 C 690.041 -1.94977 0.557832 0
M  V30 7141 C 690.374 -1.72224 -0.897365 0
M  V30 7142 O 689.649 -1.04705 -1.63912 0
M  V30 7143 C 689.932 -3.49289 0.875741 0
M  V30 7144 C 689.785 -3.81416 2.38416 0
M  V30 7145 C 691.104 -4.38486 0.376517 0
M  V30 7146 H 688.223 -0.708164 0.20414 0
M  V30 7147 H 690.865 -1.5118 1.15085 0
M  V30 7148 H 689.015 -3.86724 0.371062 0
M  V30 7149 H 690.687 -3.53813 2.95997 0
M  V30 7150 H 688.93 -3.28225 2.83639 0
M  V30 7151 H 689.601 -4.89198 2.55713 0
M  V30 7152 H 692.077 -4.08161 0.808945 0
M  V30 7153 H 690.953 -5.45296 0.627976 0
M  V30 7154 H 691.214 -4.36143 -0.723293 0
M  V30 7155 N 690.273 -0.685099 -1.4193 0
M  V30 7156 C 691.55 -0.140152 -1.95097 0
M  V30 7157 C 691.93 1.34745 -1.62502 0
M  V30 7158 O 691.278 2.08872 -0.926534 0
M  V30 7159 C 691.488 -0.420268 -3.4646 0
M  V30 7160 C 692.836 -0.342338 -4.23218 0
M  V30 7161 O 693.86 -0.354592 -3.54431 0
M  V30 7162 O 692.719 -0.293404 -5.45712 0
M  V30 7163 H 689.813 -0.00885998 -0.826953 0
M  V30 7164 H 692.359 -0.760539 -1.51703 0
M  V30 7165 H 691.131 -1.45037 -3.63428 0
M  V30 7166 H 690.754 0.231616 -3.96925 0
M  V30 7167 N 691.751 1.51645 -0.429126 0
M  V30 7168 C 692.997 2.02314 0.140286 0
M  V30 7169 C 693.33 1.31314 1.43074 0
M  V30 7170 O 692.605 0.425531 1.89788 0
M  V30 7171 C 692.888 3.5822 0.36749 0
M  V30 7172 C 692.741 4.39846 -0.941039 0
M  V30 7173 C 694.06 4.25055 1.14089 0
M  V30 7174 H 691.179 0.735335 0.0495112 0
M  V30 7175 H 693.821 1.81358 -0.566514 0
M  V30 7176 H 691.971 3.76207 0.969556 0
M  V30 7177 H 693.643 4.33527 -1.57646 0
M  V30 7178 H 691.886 4.05259 -1.54751 0
M  V30 7179 H 692.557 5.47069 -0.73621 0
M  V30 7180 H 695.033 4.11288 0.630986 0
M  V30 7181 H 693.909 5.34038 1.26863 0
M  V30 7182 H 694.17 3.85358 2.16683 0
M  V30 7183 N 693.229 0.160201 1.56784 0
M  V30 7184 C 694.506 -0.533355 1.88188 0
M  V30 7185 C 694.886 -1.82072 1.06831 0
M  V30 7186 O 694.234 -2.27946 0.158959 0
M  V30 7187 C 694.444 -0.786034 3.40033 0
M  V30 7188 C 695.792 -1.12097 4.09536 0
M  V30 7189 O 696.816 -0.874949 3.45287 0
M  V30 7190 O 695.675 -1.58457 5.23023 0
M  V30 7191 H 692.769 -0.273589 0.780434 0
M  V30 7192 H 695.315 0.197803 1.68543 0
M  V30 7193 H 694.087 0.124515 3.91102 0
M  V30 7194 H 693.71 -1.57091 3.65251 0
M  V30 7195 N 694.707 -1.5719 -0.113559 0
M  V30 7196 C 695.639 -1.97393 -1.16484 0
M  V30 7197 C 696.652 -0.873964 -1.37352 0
M  V30 7198 O 697.841 -1.15222 -1.36331 0
M  V30 7199 C 694.941 -2.26174 -2.52386 0
M  V30 7200 C 694.114 -3.57479 -2.52046 0
M  V30 7201 C 693.173 -3.74409 -3.69735 0
M  V30 7202 O 692.199 -4.46463 -3.53071 0
M  V30 7203 N 693.401 -3.13588 -4.88511 0
M  V30 7204 H 696.166 -2.88184 -0.822814 0
M  V30 7205 H 693.727 -1.59044 -0.302769 0
M  V30 7206 H 695.719 -2.3471 -3.29687 0
M  V30 7207 H 694.289 -1.41483 -2.7875 0
M  V30 7208 H 693.509 -3.60081 -1.60421 0
M  V30 7209 H 694.797 -4.43775 -2.48881 0
M  V30 7210 H 694.195 -2.55026 -5.04953 0
M  V30 7211 H 692.752 -3.27637 -5.63469 0
M  V30 7212 N 696.185 0.383891 -1.52853 0
M  V30 7213 C 697.462 1.14296 -1.58732 0
M  V30 7214 C 697.842 2.07585 -0.383611 0
M  V30 7215 O 697.19 2.1971 0.627661 0
M  V30 7216 C 697.4 1.89816 -2.92867 0
M  V30 7217 C 698.748 2.44998 -3.46787 0
M  V30 7218 O 699.772 1.99966 -2.94774 0
M  V30 7219 O 698.631 3.2727 -4.37672 0
M  V30 7220 H 695.725 0.52326 -0.640413 0
M  V30 7221 H 698.271 0.388631 -1.6519 0
M  V30 7222 H 697.043 1.21626 -3.71918 0
M  V30 7223 H 696.666 2.72199 -2.89816 0
M  V30 7224 N 697.663 1.43903 0.642637 0
M  V30 7225 C 698.911 1.45791 1.39962 0
M  V30 7226 C 699.232 0.0873144 1.94804 0
M  V30 7227 O 698.502 -0.878825 1.75081 0
M  V30 7228 H 697.082 0.536797 0.519479 0
M  V30 7229 H 699.744 1.7959 0.757189 0
M  V30 7230 H 698.84 2.17665 2.2367 0
M  V30 7231 N 699.141 -0.881989 1.30609 0
M  V30 7232 C 700.051 -2.02076 1.19174 0
M  V30 7233 C 701.067 -1.73645 0.11102 0
M  V30 7234 O 702.243 -1.98735 0.326528 0
M  V30 7235 C 699.308 -3.3515 0.887438 0
M  V30 7236 C 698.369 -3.76983 2.05383 0
M  V30 7237 C 697.602 -5.03707 1.76395 0
M  V30 7238 O 697.825 -5.66171 0.693302 0
M  V30 7239 O 696.759 -5.42019 2.61723 0
M  V30 7240 H 700.585 -2.14652 2.14845 0
M  V30 7241 H 698.17 -1.00843 1.10232 0
M  V30 7242 H 700.052 -4.14975 0.73306 0
M  V30 7243 H 698.727 -3.23676 -0.0393354 0
M  V30 7244 H 697.634 -2.97849 2.26355 0
M  V30 7245 H 698.967 -3.93066 2.96243 0
M  V30 7246 N 700.619 -1.13374 -1.09472 0
M  V30 7247 C 701.847 -0.918351 -1.85402 0
M  V30 7248 C 702.262 0.53281 -1.81126 0
M  V30 7249 O 701.619 1.36879 -1.20708 0
M  V30 7250 C 701.67 -1.39743 -3.33398 0
M  V30 7251 O 701.391 -2.79172 -3.37631 0
M  V30 7252 C 702.892 -1.22042 -4.2617 0
M  V30 7253 H 700.112 -0.327511 -0.585643 0
M  V30 7254 H 702.656 -1.50617 -1.38328 0
M  V30 7255 H 700.811 -0.852619 -3.77901 0
M  V30 7256 H 701.225 -3.00428 -4.29934 0
M  V30 7257 H 702.699 -1.60438 -5.2817 0
M  V30 7258 H 703.176 -0.162047 -4.38901 0
M  V30 7259 H 703.782 -1.75323 -3.87482 0
M  V30 7260 N 702.098 1.27442 -0.927168 0
M  V30 7261 C 703.008 2.30599 -0.431448 0
M  V30 7262 C 704.024 1.67028 0.48761 0
M  V30 7263 O 705.2 1.97962 0.370546 0
M  V30 7264 C 702.265 3.45327 0.308292 0
M  V30 7265 C 701.326 4.24418 -0.645615 0
M  V30 7266 C 700.559 5.33667 0.0589164 0
M  V30 7267 O 700.782 5.5589 1.27838 0
M  V30 7268 O 699.716 5.98774 -0.612638 0
M  V30 7269 H 703.542 2.75036 -1.28797 0
M  V30 7270 H 701.127 1.32382 -0.692495 0
M  V30 7271 H 703.009 4.15107 0.725555 0
M  V30 7272 H 701.684 3.02945 1.14043 0
M  V30 7273 H 700.591 3.57174 -1.11255 0
M  V30 7274 H 701.924 4.70512 -1.44496 0
M  V30 7275 N 703.576 0.692616 1.41565 0
M  V30 7276 C 704.506 0.0397325 2.33466 0
M  V30 7277 C 705.487 -0.770334 1.51657 0
M  V30 7278 O 706.672 -0.723903 1.80203 0
M  V30 7279 C 703.802 -0.899495 3.3545 0
M  V30 7280 C 702.756 -0.196738 4.27548 0
M  V30 7281 C 702.082 -1.25012 5.19881 0
M  V30 7282 C 703.382 0.935158 5.1386 0
M  V30 7283 H 705.076 0.807296 2.88311 0
M  V30 7284 H 702.622 0.389665 1.38628 0
M  V30 7285 H 704.575 -1.36545 3.98665 0
M  V30 7286 H 703.299 -1.69869 2.78948 0
M  V30 7287 H 701.958 0.249158 3.65752 0
M  V30 7288 H 701.606 -2.04177 4.59696 0
M  V30 7289 H 701.306 -0.784931 5.82334 0
M  V30 7290 H 702.83 -1.71665 5.85972 0
M  V30 7291 H 704.244 0.549619 5.70659 0
M  V30 7292 H 702.641 1.32726 5.85238 0
M  V30 7293 H 703.711 1.77613 4.512 0
M  V30 7294 N 705.054 -1.51416 0.437162 0
M  V30 7295 C 705.984 -2.30631 -0.364922 0
M  V30 7296 C 706.965 -1.36037 -1.02118 0
M  V30 7297 O 708.15 -1.64956 -1.02485 0
M  V30 7298 C 705.28 -3.1482 -1.46648 0
M  V30 7299 C 704.234 -4.17691 -0.933717 0
M  V30 7300 C 703.56 -4.904 -2.13101 0
M  V30 7301 C 704.86 -5.2229 0.0317201 0
M  V30 7302 H 706.554 -2.97932 0.29614 0
M  V30 7303 H 704.1 -1.4328 0.143865 0
M  V30 7304 H 706.053 -3.69017 -2.03481 0
M  V30 7305 H 704.777 -2.4534 -2.15583 0
M  V30 7306 H 703.436 -3.64545 -0.387602 0
M  V30 7307 H 703.084 -4.17423 -2.80654 0
M  V30 7308 H 702.784 -5.59962 -1.78092 0
M  V30 7309 H 704.308 -5.4742 -2.70487 0
M  V30 7310 H 705.722 -5.7156 -0.446302 0
M  V30 7311 H 704.119 -5.99378 0.29437 0
M  V30 7312 H 705.189 -4.75131 0.968447 0
M  V30 7313 N 706.532 -0.168513 -1.56696 0
M  V30 7314 C 707.462 0.758563 -2.20835 0
M  V30 7315 C 708.443 1.24121 -1.1631 0
M  V30 7316 O 709.628 1.29487 -1.4473 0
M  V30 7317 C 706.758 1.9892 -2.8469 0
M  V30 7318 C 705.712 1.64252 -3.95228 0
M  V30 7319 C 705.038 2.94757 -4.46119 0
M  V30 7320 C 706.338 0.872675 -5.14958 0
M  V30 7321 H 708.032 0.223953 -2.98561 0
M  V30 7322 H 705.578 0.106277 -1.43607 0
M  V30 7323 H 707.531 2.64275 -3.28233 0
M  V30 7324 H 706.255 2.5479 -2.04327 0
M  V30 7325 H 704.914 1.01266 -3.52336 0
M  V30 7326 H 704.562 3.48662 -3.62552 0
M  V30 7327 H 704.262 2.72316 -5.2069 0
M  V30 7328 H 705.786 3.61147 -4.92347 0
M  V30 7329 H 707.2 1.42875 -5.55211 0
M  V30 7330 H 705.597 0.747402 -5.95428 0
M  V30 7331 H 706.667 -0.131535 -4.84722 0
M  V30 7332 N 708.01 1.57248 0.105221 0
M  V30 7333 C 709.259 1.84756 0.809198 0
M  V30 7334 C 709.572 0.756262 1.80389 0
M  V30 7335 O 710.778 0.918158 2.55504 0
M  V30 7336 C 709.234 3.27613 1.48989 0
M  V30 7337 C 708.842 4.44788 0.535484 0
M  V30 7338 C 710.586 3.64356 2.17819 0
M  V30 7339 C 708.493 5.78676 1.22019 0
M  V30 7340 H 707.423 0.689139 0.305946 0
M  V30 7341 H 710.074 1.83395 0.0620371 0
M  V30 7342 H 708.456 3.23485 2.28415 0
M  V30 7343 H 709.63 4.60243 -0.226557 0
M  V30 7344 H 707.945 4.16374 -0.0465769 0
M  V30 7345 H 710.542 4.61663 2.69761 0
M  V30 7346 H 710.885 2.92474 2.96251 0
M  V30 7347 H 711.418 3.70328 1.45264 0
M  V30 7348 H 708.157 6.53763 0.476875 0
M  V30 7349 H 707.677 5.67083 1.9539 0
M  V30 7350 H 709.356 6.22897 1.74952 0
M  V30 7351 N 709.488 -0.375779 1.53054 0
M  V30 7352 C 710.736 -1.11727 1.68409 0
M  V30 7353 C 711.057 -1.90127 0.43323 0
M  V30 7354 O 710.327 -1.87945 -0.552595 0
M  V30 7355 H 708.907 -0.415451 0.620813 0
M  V30 7356 H 711.569 -0.424869 1.90213 0
M  V30 7357 H 710.665 -1.8128 2.54055 0
M  V30 7358 N 710.966 -1.44241 -0.634997 0
M  V30 7359 C 711.929 -1.50457 -1.72903 0
M  V30 7360 C 712.929 -0.387058 -1.56072 0
M  V30 7361 O 714.119 -0.649531 -1.61638 0
M  V30 7362 C 711.251 -1.37477 -3.1195 0
M  V30 7363 H 712.444 -2.47907 -1.68767 0
M  V30 7364 H 709.997 -1.31276 -0.84831 0
M  V30 7365 H 710.732 -0.41106 -3.21684 0
M  V30 7366 H 710.517 -2.18506 -3.25573 0
M  V30 7367 H 712.007 -1.44799 -3.91692 0
M  V30 7368 N 712.444 0.87505 -1.31075 0
M  V30 7369 C 713.855 1.4433 -1.18431 0
M  V30 7370 C 714.206 1.9506 0.211189 0
M  V30 7371 O 713.331 1.85847 1.10859 0
M  V30 7372 C 713.926 2.62341 -2.14389 0
M  V30 7373 C 712.485 3.15225 -2.05694 0
M  V30 7374 C 711.632 1.87929 -2.03907 0
M  V30 7375 H 714.583 0.684061 -1.432 0
M  V30 7376 H 714.604 3.3887 -1.73053 0
M  V30 7377 H 714.116 2.25388 -3.15946 0
M  V30 7378 H 712.217 3.56812 -1.07314 0
M  V30 7379 H 712.33 3.77853 -2.94558 0
M  V30 7380 H 710.694 2.06679 -1.48849 0
M  V30 7381 H 711.477 1.53221 -3.07211 0
M  V30 7382 N 713.922 1.13953 1.08869 0
M  V30 7383 C 714.852 0.844824 2.17681 0
M  V30 7384 C 715.833 -0.198213 1.68941 0
M  V30 7385 O 717.018 -0.0559073 1.9412 0
M  V30 7386 C 714.148 0.316325 3.45856 0
M  V30 7387 C 713.102 1.29426 4.07962 0
M  V30 7388 C 712.428 0.625275 5.31031 0
M  V30 7389 C 713.728 2.65484 4.49795 0
M  V30 7390 H 715.422 1.75471 2.42591 0
M  V30 7391 H 712.968 0.845116 1.16592 0
M  V30 7392 H 714.921 0.0977876 4.21287 0
M  V30 7393 H 713.645 -0.628972 3.20486 0
M  V30 7394 H 712.304 1.49889 3.34558 0
M  V30 7395 H 711.952 -0.325678 5.01945 0
M  V30 7396 H 711.652 1.27777 5.73539 0
M  V30 7397 H 713.176 0.416152 6.0918 0
M  V30 7398 H 714.59 2.48957 5.16424 0
M  V30 7399 H 712.987 3.26963 5.03205 0
M  V30 7400 H 714.057 3.22717 3.61914 0
M  V30 7401 N 715.4 -1.26948 0.933913 0
M  V30 7402 C 716.647 -1.94087 0.577625 0
M  V30 7403 C 716.975 -1.73345 -0.88214 0
M  V30 7404 O 716.23 -1.05945 -1.64542 0
M  V30 7405 C 716.529 -3.46963 0.857406 0
M  V30 7406 C 716.195 -3.87834 2.2999 0
M  V30 7407 C 714.857 -3.98704 2.69423 0
M  V30 7408 C 717.209 -4.08442 3.23766 0
M  V30 7409 C 714.537 -4.27573 4.01744 0
M  V30 7410 C 716.889 -4.38798 4.55675 0
M  V30 7411 C 715.553 -4.47881 4.94934 0
M  V30 7412 H 714.823 -0.710215 0.211368 0
M  V30 7413 H 717.47 -1.50899 1.17905 0
M  V30 7414 H 715.775 -3.91416 0.173369 0
M  V30 7415 H 717.472 -3.97062 0.560615 0
M  V30 7416 H 714.062 -3.79916 1.98399 0
M  V30 7417 H 718.246 -3.99479 2.94499 0
M  V30 7418 H 713.502 -4.32815 4.31834 0
M  V30 7419 H 717.676 -4.5369 5.28335 0
M  V30 7420 H 715.303 -4.70005 5.97495 0
M  V30 7421 N 716.879 -0.700114 -1.41195 0
M  V30 7422 C 718.109 -0.241828 -2.0518 0
M  V30 7423 C 718.517 1.1157 -1.52803 0
M  V30 7424 O 717.86 1.70926 -0.673042 0
M  V30 7425 C 717.922 -0.12695 -3.59276 0
M  V30 7426 C 717.586 -1.41725 -4.34469 0
M  V30 7427 C 718.583 -2.35604 -4.63451 0
M  V30 7428 C 716.268 -1.67189 -4.73659 0
M  V30 7429 C 718.262 -3.53204 -5.3059 0
M  V30 7430 C 715.949 -2.85073 -5.40534 0
M  V30 7431 C 716.947 -3.77904 -5.68927 0
M  V30 7432 O 716.635 -4.93723 -6.34424 0
M  V30 7433 H 716.367 -0.109247 -0.667114 0
M  V30 7434 H 718.921 -0.954538 -1.81873 0
M  V30 7435 H 717.151 0.641571 -3.81341 0
M  V30 7436 H 718.84 0.294748 -4.04828 0
M  V30 7437 H 719.606 -2.1719 -4.33651 0
M  V30 7438 H 715.485 -0.957935 -4.50937 0
M  V30 7439 H 719.029 -4.25679 -5.52669 0
M  V30 7440 H 714.926 -3.03402 -5.69752 0
M  V30 7441 H 715.694 -4.93597 -6.5292 0
M  V30 7442 N 718.357 1.51182 -0.445186 0
M  V30 7443 C 719.605 2.01753 0.11841 0
M  V30 7444 C 719.926 1.33087 1.42523 0
M  V30 7445 O 719.196 0.467891 1.9023 0
M  V30 7446 H 717.776 0.745536 0.0467492 0
M  V30 7447 H 720.438 1.85765 -0.589688 0
M  V30 7448 H 719.534 3.10762 0.288665 0
M  V30 7449 N 719.835 0.176821 1.56605 0
M  V30 7450 C 720.745 -0.763682 2.21822 0
M  V30 7451 C 721.761 -1.24889 1.21156 0
M  V30 7452 O 722.937 -1.29987 1.53836 0
M  V30 7453 C 720.002 -1.97352 2.8505 0
M  V30 7454 C 719.063 -1.53466 4.00932 0
M  V30 7455 C 718.296 -2.68682 4.61135 0
M  V30 7456 O 718.519 -3.85694 4.20234 0
M  V30 7457 O 717.453 -2.42442 5.50913 0
M  V30 7458 H 721.279 -0.238363 3.02763 0
M  V30 7459 H 718.864 -0.0516331 1.49311 0
M  V30 7460 H 720.746 -2.68096 3.25119 0
M  V30 7461 H 719.421 -2.48779 2.07101 0
M  V30 7462 H 718.328 -0.796551 3.65521 0
M  V30 7463 H 719.661 -1.06724 4.8049 0
M  V30 7464 N 721.313 -1.57302 -0.09688 0
M  V30 7465 C 722.245 -1.98618 -1.14384 0
M  V30 7466 C 723.258 -0.888483 -1.36418 0
M  V30 7467 O 724.447 -1.16661 -1.35101 0
M  V30 7468 C 721.547 -2.28838 -2.49973 0
M  V30 7469 C 720.72 -3.60132 -2.48241 0
M  V30 7470 C 719.779 -3.7831 -3.65743 0
M  V30 7471 O 718.805 -4.50183 -3.48316 0
M  V30 7472 N 720.007 -3.18752 -4.85157 0
M  V30 7473 H 722.772 -2.8904 -0.792202 0
M  V30 7474 H 720.333 -1.59356 -0.285883 0
M  V30 7475 H 722.325 -2.38193 -3.27179 0
M  V30 7476 H 720.895 -1.44431 -2.77233 0
M  V30 7477 H 720.115 -3.61763 -1.56593 0
M  V30 7478 H 721.403 -4.46389 -2.4416 0
M  V30 7479 H 720.801 -2.60368 -5.0222 0
M  V30 7480 H 719.358 -3.33595 -5.59962 0
M  V30 7481 N 722.791 0.367657 -1.53252 0
M  V30 7482 C 724.207 0.709191 -1.42978 0
M  V30 7483 C 724.407 1.93352 -0.567193 0
M  V30 7484 O 723.463 2.52453 -0.0488349 0
M  V30 7485 C 724.776 0.924338 -2.86141 0
M  V30 7486 C 726.324 1.02448 -2.95759 0
M  V30 7487 C 726.799 1.27211 -4.39979 0
M  V30 7488 N 728.29 1.33986 -4.43398 0
M  V30 7489 C 729.025 1.54852 -5.52095 0
M  V30 7490 N 728.521 1.73049 -6.7084 0
M  V30 7491 N 730.314 1.57205 -5.39669 0
M  V30 7492 H 722.465 -0.437669 -2.07842 0
M  V30 7493 H 724.728 -0.133737 -0.938519 0
M  V30 7494 H 724.434 0.0965455 -3.51567 0
M  V30 7495 H 724.308 1.83302 -3.29667 0
M  V30 7496 H 726.695 1.84282 -2.30487 0
M  V30 7497 H 726.776 0.0932301 -2.5563 0
M  V30 7498 H 726.42 0.458792 -5.05824 0
M  V30 7499 H 726.35 2.21654 -4.77679 0
M  V30 7500 H 728.841 1.21545 -3.5782 0
M  V30 7501 H 729.154 1.88538 -7.49449 0
M  V30 7502 H 727.499 1.70231 -6.7383 0
M  V30 7503 H 730.69 1.42555 -4.45865 0
M  V30 7504 H 730.863 1.73126 -6.24445 0
M  V30 7505 N 724.269 1.44576 0.627338 0
M  V30 7506 C 725.517 1.47267 1.38408 0
M  V30 7507 C 725.838 0.107971 1.94701 0
M  V30 7508 O 725.108 -0.860206 1.76004 0
M  V30 7509 H 723.688 0.542276 0.513756 0
M  V30 7510 H 726.35 1.80383 0.738099 0
M  V30 7511 H 725.446 2.20025 2.21349 0
M  V30 7512 N 725.747 -0.868086 1.31537 0
M  V30 7513 C 726.995 -1.61807 1.21091 0
M  V30 7514 C 727.316 -1.93631 -0.230623 0
M  V30 7515 O 726.586 -1.5846 -1.15183 0
M  V30 7516 H 725.166 -0.599854 0.445178 0
M  V30 7517 H 727.828 -1.03915 1.64887 0
M  V30 7518 H 726.924 -2.56088 1.78396 0
M  V30 7519 N 727.225 -1.14528 -1.08264 0
M  V30 7520 C 728.641 -0.885976 -1.3275 0
M  V30 7521 C 728.841 0.472096 -1.95892 0
M  V30 7522 O 727.897 1.21606 -2.21288 0
M  V30 7523 C 729.21 -2.01982 -2.22764 0
M  V30 7524 C 730.758 -2.05329 -2.36239 0
M  V30 7525 C 731.233 -3.1801 -3.29596 0
M  V30 7526 N 732.724 -3.17598 -3.37173 0
M  V30 7527 C 733.459 -4.01426 -4.09444 0
M  V30 7528 N 732.955 -4.95297 -4.8441 0
M  V30 7529 N 734.748 -3.89482 -4.0529 0
M  V30 7530 H 726.899 -2.01996 -0.656607 0
M  V30 7531 H 729.162 -0.880274 -0.351884 0
M  V30 7532 H 728.868 -2.99964 -1.83615 0
M  V30 7533 H 728.742 -1.94421 -3.23234 0
M  V30 7534 H 731.129 -1.07953 -2.74646 0
M  V30 7535 H 731.21 -2.1696 -1.35506 0
M  V30 7536 H 730.854 -4.15633 -2.9191 0
M  V30 7537 H 730.784 -3.03616 -4.30261 0
M  V30 7538 H 733.275 -2.4961 -2.83731 0
M  V30 7539 H 733.588 -5.55723 -5.37021 0
M  V30 7540 H 731.933 -4.99293 -4.83457 0
M  V30 7541 H 735.124 -3.15465 -3.45832 0
M  V30 7542 H 735.297 -4.55039 -4.6135 0
M  V30 7543 N 728.703 1.26451 -0.940633 0
M  V30 7544 C 729.949 1.94065 -0.58878 0
M  V30 7545 C 730.282 1.7363 0.869853 0
M  V30 7546 O 729.557 1.073 1.62225 0
M  V30 7547 C 729.84 3.47852 -0.931199 0
M  V30 7548 C 729.693 3.77575 -2.44453 0
M  V30 7549 C 731.012 4.37832 -0.446229 0
M  V30 7550 H 728.131 0.704827 -0.21538 0
M  V30 7551 H 730.773 1.4933 -1.17475 0
M  V30 7552 H 728.923 3.86085 -0.432539 0
M  V30 7553 H 730.595 3.49059 -3.01588 0
M  V30 7554 H 728.838 3.23671 -2.88825 0
M  V30 7555 H 729.509 4.85068 -2.63464 0
M  V30 7556 H 731.985 4.06822 -0.873778 0
M  V30 7557 H 730.861 5.44228 -0.714648 0
M  V30 7558 H 731.122 4.37239 0.653815 0
M  V30 7559 N 730.181 0.707592 1.40822 0
M  V30 7560 C 731.428 0.243671 2.01029 0
M  V30 7561 C 731.756 -1.16057 1.5608 0
M  V30 7562 O 731.011 -1.7999 0.768251 0
M  V30 7563 C 731.31 0.262892 3.56432 0
M  V30 7564 C 730.976 1.61632 4.20935 0
M  V30 7565 C 729.638 1.98682 4.38268 0
M  V30 7566 C 731.99 2.50619 4.5699 0
M  V30 7567 C 729.318 3.2428 4.88937 0
M  V30 7568 C 731.67 3.75562 5.09054 0
M  V30 7569 C 730.334 4.12739 5.24598 0
M  V30 7570 H 729.604 0.0891654 0.735616 0
M  V30 7571 H 732.251 0.909051 1.68548 0
M  V30 7572 H 730.556 -0.486052 3.88773 0
M  V30 7573 H 732.253 -0.113775 4.00839 0
M  V30 7574 H 728.843 1.31818 4.07826 0
M  V30 7575 H 733.027 2.23272 4.43242 0
M  V30 7576 H 728.283 3.53064 4.99155 0
M  V30 7577 H 732.457 4.44692 5.35931 0
M  V30 7578 H 730.084 5.10132 5.63622 0
M  V30 7579 N 731.66 -1.50943 0.453197 0
M  V30 7580 C 732.909 -2.01402 -0.10951 0
M  V30 7581 C 733.222 -1.3411 -1.42386 0
M  V30 7582 O 734.428 -1.75626 -2.07045 0
M  V30 7583 C 732.884 -3.5906 -0.245693 0
M  V30 7584 C 732.492 -4.353 1.05916 0
M  V30 7585 C 734.236 -4.17617 -0.761318 0
M  V30 7586 C 732.143 -5.84699 0.887752 0
M  V30 7587 H 731.073 -0.752674 -0.0447013 0
M  V30 7588 H 733.724 -1.73913 0.585375 0
M  V30 7589 H 732.106 -3.83062 -1.00395 0
M  V30 7590 H 733.28 -4.23034 1.82698 0
M  V30 7591 H 731.595 -3.88269 1.50452 0
M  V30 7592 H 734.192 -5.26963 -0.906306 0
M  V30 7593 H 734.535 -3.77824 -1.74799 0
M  V30 7594 H 735.068 -3.97753 -0.0609416 0
M  V30 7595 H 731.807 -6.28933 1.84726 0
M  V30 7596 H 731.327 -5.99587 0.160006 0
M  V30 7597 H 733.006 -6.44682 0.547223 0
M  V30 7598 N 733.138 -0.185124 -1.56509 0
M  V30 7599 C 734.368 0.461469 -2.0138 0
M  V30 7600 C 734.776 1.56417 -1.06445 0
M  V30 7601 O 734.119 1.83603 -0.0597515 0
M  V30 7602 C 734.181 1.08731 -3.42663 0
M  V30 7603 C 733.845 0.124581 -4.5683 0
M  V30 7604 C 734.842 -0.662295 -5.15664 0
M  V30 7605 C 732.527 0.0163947 -5.02297 0
M  V30 7606 C 734.521 -1.54442 -6.18406 0
M  V30 7607 C 732.208 -0.869301 -6.04885 0
M  V30 7608 C 733.206 -1.64828 -6.62813 0
M  V30 7609 O 732.894 -2.51915 -7.63409 0
M  V30 7610 H 732.626 0.1212 -0.665046 0
M  V30 7611 H 735.18 -0.288119 -2.03369 0
M  V30 7612 H 733.41 1.8853 -3.37629 0
M  V30 7613 H 735.099 1.63753 -3.71403 0
M  V30 7614 H 735.865 -0.588963 -4.81411 0
M  V30 7615 H 731.744 0.61253 -4.56913 0
M  V30 7616 H 735.288 -2.15289 -6.63548 0
M  V30 7617 H 731.185 -0.943786 -6.38563 0
M  V30 7618 H 731.953 -2.45584 -7.80789 0
M  V30 7619 N 734.616 1.57351 0.0885366 0
M  V30 7620 C 735.548 1.99221 1.13329 0
M  V30 7621 C 736.561 0.895705 1.35945 0
M  V30 7622 O 737.75 1.17376 1.34481 0
M  V30 7623 C 734.85 2.3016 2.48756 0
M  V30 7624 C 734.023 3.61444 2.46327 0
M  V30 7625 C 733.082 3.80244 3.63732 0
M  V30 7626 O 732.108 4.52024 3.45924 0
M  V30 7627 N 733.31 3.2132 4.8346 0
M  V30 7628 H 736.075 2.89456 0.776862 0
M  V30 7629 H 733.636 1.59505 0.277428 0
M  V30 7630 H 735.628 2.39925 3.25911 0
M  V30 7631 H 734.198 1.459 2.76464 0
M  V30 7632 H 733.418 3.62588 1.54673 0
M  V30 7633 H 734.706 4.47678 2.41789 0
M  V30 7634 H 734.104 2.63028 5.00832 0
M  V30 7635 H 732.661 3.3656 5.58185 0
M  V30 7636 N 736.094 -0.359525 1.53444 0
M  V30 7637 C 737.51 -0.701599 1.43352 0
M  V30 7638 C 737.71 -1.93049 0.577439 0
M  V30 7639 O 736.766 -2.52423 0.0622224 0
M  V30 7640 C 738.079 -0.90915 2.86627 0
M  V30 7641 C 739.627 -1.00878 2.96298 0
M  V30 7642 C 740.102 -1.24876 4.40647 0
M  V30 7643 N 741.593 -1.31632 4.44103 0
M  V30 7644 C 742.328 -1.51922 5.52908 0
M  V30 7645 N 741.824 -1.69489 6.71748 0
M  V30 7646 N 743.617 -1.54341 5.40496 0
M  V30 7647 H 735.768 0.448685 2.07607 0
M  V30 7648 H 738.031 0.138713 0.937797 0
M  V30 7649 H 737.737 -0.0778997 3.51614 0
M  V30 7650 H 737.611 -1.81551 3.30634 0
M  V30 7651 H 739.998 -1.83057 2.31461 0
M  V30 7652 H 740.079 -0.0796721 2.55676 0
M  V30 7653 H 739.723 -0.431961 5.0606 0
M  V30 7654 H 739.653 -2.19118 4.78848 0
M  V30 7655 H 742.144 -1.19646 3.5846 0
M  V30 7656 H 742.457 -1.84561 7.50438 0
M  V30 7657 H 740.802 -1.66655 6.74723 0
M  V30 7658 H 743.993 -1.40188 4.46615 0
M  V30 7659 H 744.166 -1.69812 6.25354 0
M  V30 7660 N 737.572 -1.44907 -0.619662 0
M  V30 7661 C 738.988 -1.29046 -0.939107 0
M  V30 7662 C 739.188 -0.23462 -2.00129 0
M  V30 7663 O 738.244 0.37558 -2.49691 0
M  V30 7664 C 739.557 -2.66567 -1.39149 0
M  V30 7665 C 741.105 -2.74368 -1.50635 0
M  V30 7666 C 741.58 -4.12386 -1.99253 0
M  V30 7667 N 743.071 -4.1462 -2.06506 0
M  V30 7668 C 743.806 -5.18272 -2.4532 0
M  V30 7669 N 743.302 -6.32278 -2.83189 0
M  V30 7670 N 745.095 -5.05628 -2.45554 0
M  V30 7671 H 737.246 -2.12239 0.0826135 0
M  V30 7672 H 739.509 -0.947652 -0.0256829 0
M  V30 7673 H 739.215 -3.4496 -0.685254 0
M  V30 7674 H 739.089 -2.94224 -2.36034 0
M  V30 7675 H 741.476 -1.96287 -2.20353 0
M  V30 7676 H 741.557 -2.50439 -0.520963 0
M  V30 7677 H 741.201 -4.90947 -1.30127 0
M  V30 7678 H 741.131 -4.33699 -2.98684 0
M  V30 7679 H 743.622 -3.32343 -1.79878 0
M  V30 7680 H 743.935 -7.07172 -3.11652 0
M  V30 7681 H 742.28 -6.35699 -2.80913 0
M  V30 7682 H 745.471 -4.15613 -2.15367 0
M  V30 7683 H 745.644 -5.86529 -2.75478 0
M  V30 7684 N 739.05 0.861098 -1.31996 0
M  V30 7685 C 739.982 1.97551 -1.16216 0
M  V30 7686 C 740.995 1.625 -0.0988527 0
M  V30 7687 O 742.184 1.75091 -0.3472 0
M  V30 7688 C 739.284 3.30376 -0.755307 0
M  V30 7689 C 738.457 3.93711 -1.90552 0
M  V30 7690 C 737.516 5.04862 -1.48328 0
M  V30 7691 O 736.542 5.25204 -2.19431 0
M  V30 7692 N 737.744 5.79283 -0.375656 0
M  V30 7693 H 740.509 2.11632 -2.12208 0
M  V30 7694 H 738.07 1.03559 -1.24448 0
M  V30 7695 H 740.062 4.0213 -0.455364 0
M  V30 7696 H 738.632 3.12395 0.113269 0
M  V30 7697 H 737.852 3.14825 -2.37231 0
M  V30 7698 H 739.14 4.32762 -2.67571 0
M  V30 7699 H 738.538 5.65286 0.216284 0
M  V30 7700 H 737.095 6.5166 -0.135289 0
M  V30 7701 N 740.528 1.15101 1.07655 0
M  V30 7702 C 741.458 0.867864 2.16773 0
M  V30 7703 C 742.439 -0.180283 1.69142 0
M  V30 7704 O 743.624 -0.0353152 1.94168 0
M  V30 7705 C 740.754 0.35299 3.45501 0
M  V30 7706 C 739.708 1.33746 4.06566 0
M  V30 7707 C 739.034 0.681562 5.30338 0
M  V30 7708 C 740.334 2.7024 4.46954 0
M  V30 7709 H 742.028 1.78034 2.40716 0
M  V30 7710 H 739.574 0.857435 1.15689 0
M  V30 7711 H 741.527 0.142465 4.21159 0
M  V30 7712 H 740.251 -0.594945 3.21135 0
M  V30 7713 H 738.91 1.53429 3.32949 0
M  V30 7714 H 738.558 -0.272422 5.02262 0
M  V30 7715 H 738.258 1.33853 5.72151 0
M  V30 7716 H 739.782 0.48074 6.08705 0
M  V30 7717 H 741.196 2.5442 5.13754 0
M  V30 7718 H 739.593 3.32282 4.99709 0
M  V30 7719 H 740.663 3.26537 3.58471 0
M  V30 7720 N 742.006 -1.2595 0.947325 0
M  V30 7721 C 743.254 -1.93081 0.596996 0
M  V30 7722 C 743.575 -1.74632 -0.867672 0
M  V30 7723 O 742.845 -1.1056 -1.6172 0
M  V30 7724 H 741.425 -0.714542 0.217805 0
M  V30 7725 H 744.087 -1.53265 1.20398 0
M  V30 7726 H 743.183 -3.01134 0.82004 0
M  V30 7727 N 743.484 -0.715051 -1.40445 0
M  V30 7728 C 744.731 -0.254328 -2.00897 0
M  V30 7729 C 745.059 1.15228 -1.56693 0
M  V30 7730 O 744.314 1.7958 -0.777786 0
M  V30 7731 C 744.613 -0.281791 -3.56287 0
M  V30 7732 C 744.279 -1.63862 -4.20071 0
M  V30 7733 C 742.941 -2.01003 -4.37208 0
M  V30 7734 C 745.293 -2.53039 -4.55654 0
M  V30 7735 C 742.621 -3.26869 -4.8721 0
M  V30 7736 C 744.973 -3.78256 -5.07055 0
M  V30 7737 C 743.637 -4.15515 -5.22401 0
M  V30 7738 H 742.907 -0.0930652 -0.735133 0
M  V30 7739 H 745.554 -0.917977 -1.68064 0
M  V30 7740 H 743.859 0.465428 -3.89026 0
M  V30 7741 H 745.556 0.0925158 -4.00893 0
M  V30 7742 H 742.146 -1.33979 -4.07121 0
M  V30 7743 H 746.33 -2.2562 -4.42051 0
M  V30 7744 H 741.586 -3.55706 -4.97276 0
M  V30 7745 H 745.76 -4.47528 -5.33565 0
M  V30 7746 H 743.387 -5.13114 -5.60909 0
M  V30 7747 N 744.962 1.50701 -0.461195 0
M  V30 7748 C 745.872 2.32069 0.343661 0
M  V30 7749 C 746.888 1.42016 1.00535 0
M  V30 7750 O 748.064 1.75077 0.995498 0
M  V30 7751 C 745.129 3.16424 1.41692 0
M  V30 7752 C 744.19 4.22286 0.772869 0
M  V30 7753 C 743.423 5.02609 1.79499 0
M  V30 7754 O 743.646 4.83874 3.0203 0
M  V30 7755 O 742.58 5.86047 1.3723 0
M  V30 7756 H 746.406 3.01996 -0.321268 0
M  V30 7757 H 743.991 1.47723 -0.223235 0
M  V30 7758 H 745.873 3.68795 2.03883 0
M  V30 7759 H 744.548 2.49236 2.0655 0
M  V30 7760 H 743.455 3.73931 0.112277 0
M  V30 7761 H 744.788 4.91915 0.167399 0
M  V30 7762 N 746.441 0.193421 1.56409 0
M  V30 7763 C 747.351 -0.740112 2.2262 0
M  V30 7764 C 748.367 -1.23597 1.22474 0
M  V30 7765 O 749.543 -1.28348 1.55206 0
M  V30 7766 C 746.608 -1.94317 2.87127 0
M  V30 7767 C 745.669 -1.49205 4.02538 0
M  V30 7768 C 744.902 -2.63776 4.63959 0
M  V30 7769 O 745.125 -3.81215 4.24301 0
M  V30 7770 O 744.059 -2.36585 5.53454 0
M  V30 7771 H 747.885 -0.206238 3.02999 0
M  V30 7772 H 745.47 -0.0357938 1.49357 0
M  V30 7773 H 747.352 -2.64633 3.27944 0
M  V30 7774 H 746.027 -2.46568 2.09728 0
M  V30 7775 H 744.934 -0.757738 3.66346 0
M  V30 7776 H 746.267 -1.01622 4.81595 0
M  V30 7777 N 747.919 -1.57396 -0.0801906 0
M  V30 7778 C 749.165 -1.87113 -0.782083 0
M  V30 7779 C 749.498 -0.78458 -1.77646 0
M  V30 7780 O 748.773 0.205993 -1.93406 0
M  V30 7781 C 749.056 -3.27483 -1.49756 0
M  V30 7782 C 748.909 -4.46782 -0.520171 0
M  V30 7783 C 750.228 -3.65965 -2.44454 0
M  V30 7784 H 747.347 -0.680559 -0.282858 0
M  V30 7785 H 749.989 -1.89946 -0.0454139 0
M  V30 7786 H 748.139 -3.25199 -2.12551 0
M  V30 7787 H 749.811 -4.61187 0.101919 0
M  V30 7788 H 748.054 -4.33485 0.165219 0
M  V30 7789 H 748.725 -5.41761 -1.05824 0
M  V30 7790 H 751.201 -3.69289 -1.91742 0
M  V30 7791 H 750.077 -4.65086 -2.91524 0
M  V30 7792 H 750.338 -2.95446 -3.28883 0
M  V30 7793 N 749.397 0.351382 -1.53633 0
M  V30 7794 C 750.622 1.11718 -1.74739 0
M  V30 7795 C 751.047 1.81829 -0.481657 0
M  V30 7796 O 750.405 1.72264 0.565233 0
M  V30 7797 C 750.453 2.11234 -2.92254 0
M  V30 7798 O 749.557 3.186 -2.61855 0
M  V30 7799 H 748.898 0.323482 -0.579875 0
M  V30 7800 H 751.428 0.404167 -2.00568 0
M  V30 7801 H 751.438 2.54591 -3.18822 0
M  V30 7802 H 750.113 1.59599 -3.84058 0
M  V30 7803 H 748.69 2.80115 -2.4615 0
M  V30 7804 N 750.875 1.45233 0.611969 0
M  V30 7805 C 751.785 1.56098 1.7513 0
M  V30 7806 C 752.801 0.445646 1.68196 0
M  V30 7807 O 753.977 0.705718 1.88631 0
M  V30 7808 C 751.042 1.52052 3.11579 0
M  V30 7809 C 750.103 2.74589 3.29999 0
M  V30 7810 C 749.336 2.70726 4.59938 0
M  V30 7811 O 749.559 1.77806 5.41979 0
M  V30 7812 O 748.493 3.61864 4.80976 0
M  V30 7813 H 752.319 2.52392 1.68914 0
M  V30 7814 H 749.904 1.27695 0.775528 0
M  V30 7815 H 751.786 1.52387 3.92882 0
M  V30 7816 H 750.461 0.589085 3.18295 0
M  V30 7817 H 749.368 2.79817 2.48301 0
M  V30 7818 H 750.701 3.66843 3.28157 0
M  V30 7819 N 752.353 -0.854086 1.3245 0
M  V30 7820 C 753.283 -1.97827 1.24044 0
M  V30 7821 C 754.264 -1.69646 0.124166 0
M  V30 7822 O 755.449 -1.91687 0.31143 0
M  V30 7823 C 752.579 -3.33673 0.963324 0
M  V30 7824 C 751.533 -3.76207 2.04089 0
M  V30 7825 C 750.859 -5.0969 1.61618 0
M  V30 7826 C 752.159 -3.91612 3.45597 0
M  V30 7827 H 753.853 -2.05118 2.18099 0
M  V30 7828 H 751.399 -0.985489 1.04996 0
M  V30 7829 H 753.352 -4.11871 0.891061 0
M  V30 7830 H 752.076 -3.26597 -0.0128649 0
M  V30 7831 H 750.735 -3.0026 2.10332 0
M  V30 7832 H 750.383 -4.99072 0.627418 0
M  V30 7833 H 750.083 -5.3912 2.33717 0
M  V30 7834 H 751.607 -5.90381 1.55829 0
M  V30 7835 H 753.021 -4.60163 3.4194 0
M  V30 7836 H 751.418 -4.3246 4.16051 0
M  V30 7837 H 752.488 -2.9451 3.85217 0
M  V30 7838 N 753.831 -1.1567 -1.07043 0
M  V30 7839 C 754.763 -0.814095 -2.14255 0
M  V30 7840 C 755.776 0.175293 -1.61854 0
M  V30 7841 O 756.965 -0.0483984 -1.78434 0
M  V30 7842 C 754.065 -0.190082 -3.38367 0
M  V30 7843 C 753.238 -1.21768 -4.20109 0
M  V30 7844 C 752.297 -0.614863 -5.22595 0
M  V30 7845 O 751.323 -1.28167 -5.54583 0
M  V30 7846 N 752.525 0.601955 -5.77371 0
M  V30 7847 H 755.29 -1.73677 -2.44247 0
M  V30 7848 H 752.851 -1.05301 -1.22977 0
M  V30 7849 H 754.843 0.22604 -4.04068 0
M  V30 7850 H 753.413 0.635992 -3.06062 0
M  V30 7851 H 752.633 -1.81025 -3.50177 0
M  V30 7852 H 753.921 -1.9114 -4.71533 0
M  V30 7853 H 753.319 1.162 -5.53637 0
M  V30 7854 H 751.876 0.96039 -6.44686 0
M  V30 7855 N 755.309 1.25446 -0.953992 0
M  V30 7856 C 756.557 1.92762 -0.607227 0
M  V30 7857 C 756.878 1.7509 0.858399 0
M  V30 7858 O 756.148 1.11416 1.61132 0
M  V30 7859 H 754.728 0.713377 -0.221591 0
M  V30 7860 H 757.39 1.52625 -1.21209 0
M  V30 7861 H 756.486 3.00695 -0.835998 0
M  V30 7862 N 756.787 0.722489 1.40064 0
M  V30 7863 C 758.064 0.191829 1.94657 0
M  V30 7864 C 758.444 -1.30389 1.66018 0
M  V30 7865 O 757.792 -2.06342 0.981588 0
M  V30 7866 C 758.002 0.511978 3.45224 0
M  V30 7867 C 759.35 0.454426 4.22161 0
M  V30 7868 O 760.374 0.448438 3.53366 0
M  V30 7869 O 759.233 0.437986 5.44742 0
M  V30 7870 H 756.327 0.0307821 0.826427 0
M  V30 7871 H 758.873 0.800493 1.49634 0
M  V30 7872 H 757.645 1.54622 3.59455 0
M  V30 7873 H 757.268 -0.126296 3.97399 0
M  V30 7874 N 758.265 -1.50454 0.469181 0
M  V30 7875 C 759.676 -1.86695 0.0136034 0
M  V30 7876 C 760.027 -1.38413 -1.39055 0
M  V30 7877 O 759.152 -0.748294 -2.03051 0
M  V30 7878 C 759.747 -3.38795 0.0179098 0
M  V30 7879 C 758.306 -3.74455 -0.382191 0
M  V30 7880 C 757.453 -2.74338 0.404207 0
M  V30 7881 H 760.404 -1.43225 0.683547 0
M  V30 7882 H 760.425 -3.72321 -0.78468 0
M  V30 7883 H 759.937 -3.73906 1.04 0
M  V30 7884 H 758.038 -3.44944 -1.4087 0
M  V30 7885 H 758.151 -4.79025 -0.084862 0
M  V30 7886 H 756.515 -2.54305 -0.141829 0
M  V30 7887 H 757.298 -3.12293 1.42577 0
M  V30 7888 N 759.743 -0.201713 -1.56304 0
M  V30 7889 C 760.991 0.434447 -1.97375 0
M  V30 7890 C 761.312 1.61692 -1.08998 0
M  V30 7891 O 760.582 1.95223 -0.162682 0
M  V30 7892 H 759.162 0.163497 -0.728888 0
M  V30 7893 H 761.824 -0.289988 -1.92731 0
M  V30 7894 H 760.92 0.774136 -3.02347 0
M  V30 7895 N 761.222 1.57436 0.0718424 0
M  V30 7896 C 762.452 1.91196 0.782795 0
M  V30 7897 C 762.86 0.795927 1.71644 0
M  V30 7898 O 762.203 -0.239604 1.82131 0
M  V30 7899 C 762.265 3.20421 1.63005 0
M  V30 7900 C 761.929 4.48724 0.865782 0
M  V30 7901 C 762.926 5.19571 0.185051 0
M  V30 7902 C 760.611 4.95345 0.832971 0
M  V30 7903 C 762.605 6.3529 -0.518264 0
M  V30 7904 C 760.292 6.1097 0.125884 0
M  V30 7905 C 761.29 6.80794 -0.548533 0
M  V30 7906 O 760.978 7.94213 -1.24423 0
M  V30 7907 H 760.71 0.636486 0.227731 0
M  V30 7908 H 763.264 2.05348 0.0464187 0
M  V30 7909 H 761.494 3.02478 2.40923 0
M  V30 7910 H 763.183 3.39831 2.21968 0
M  V30 7911 H 763.949 4.8458 0.201707 0
M  V30 7912 H 759.828 4.40871 1.34737 0
M  V30 7913 H 763.372 6.89725 -1.04523 0
M  V30 7914 H 759.269 6.45411 0.107155 0
M  V30 7915 H 760.037 8.10331 -1.1535 0
M  V30 7916 N 762.7 -0.34323 1.53817 0
M  V30 7917 C 764.111 -0.918823 1.62525 0
M  V30 7918 C 764.462 -1.89542 0.506765 0
M  V30 7919 O 763.587 -2.13326 -0.363441 0
M  V30 7920 C 764.182 -1.67326 2.94597 0
M  V30 7921 C 762.741 -2.19786 3.05567 0
M  V30 7922 C 761.888 -1.01708 2.57974 0
M  V30 7923 H 764.839 -0.121358 1.58235 0
M  V30 7924 H 764.86 -2.53615 2.83654 0
M  V30 7925 H 764.372 -0.962223 3.75983 0
M  V30 7926 H 762.473 -2.94065 2.28816 0
M  V30 7927 H 762.586 -2.46135 4.1104 0
M  V30 7928 H 760.95 -1.39058 2.13389 0
M  V30 7929 H 761.733 -0.320671 3.41799 0
M  V30 7930 N 764.178 -1.45556 -0.604258 0
M  V30 7931 C 765.108 -1.57327 -1.72541 0
M  V30 7932 C 766.089 -0.424637 -1.64714 0
M  V30 7933 O 767.274 -0.648196 -1.83063 0
M  V30 7934 C 764.404 -1.54279 -3.11152 0
M  V30 7935 C 763.358 -2.67893 -3.33792 0
M  V30 7936 C 762.684 -2.499 -4.72709 0
M  V30 7937 C 763.984 -4.0988 -3.23722 0
M  V30 7938 H 765.678 -2.51175 -1.62947 0
M  V30 7939 H 763.224 -1.20884 -0.782504 0
M  V30 7940 H 765.177 -1.6111 -3.89386 0
M  V30 7941 H 763.901 -0.569627 -3.21594 0
M  V30 7942 H 762.56 -2.60495 -2.57949 0
M  V30 7943 H 762.208 -1.50715 -4.79889 0
M  V30 7944 H 761.908 -3.26091 -4.88813 0
M  V30 7945 H 763.432 -2.5859 -5.5314 0
M  V30 7946 H 764.846 -4.18503 -3.91826 0
M  V30 7947 H 763.243 -4.86487 -3.51355 0
M  V30 7948 H 764.313 -4.31553 -2.21111 0
M  V30 7949 N 765.656 0.84705 -1.32902 0
M  V30 7950 C 766.904 1.5986 -1.2365 0
M  V30 7951 C 767.225 1.93974 0.199789 0
M  V30 7952 O 766.495 1.60273 1.12648 0
M  V30 7953 H 765.075 0.592696 -0.454665 0
M  V30 7954 H 767.737 1.01278 -1.66519 0
M  V30 7955 H 766.833 2.53218 -1.82448 0
M  V30 7956 N 767.134 1.16236 1.06428 0
M  V30 7957 C 768.55 0.906983 1.31324 0
M  V30 7958 C 768.75 -0.440872 1.96618 0
M  V30 7959 O 767.806 -1.1807 2.23194 0
M  V30 7960 C 769.119 2.05501 2.19522 0
M  V30 7961 C 770.667 2.09061 2.32943 0
M  V30 7962 C 771.142 3.23214 3.24495 0
M  V30 7963 N 772.633 3.22922 3.32078 0
M  V30 7964 C 773.368 4.07889 4.03006 0
M  V30 7965 N 772.864 5.02941 4.76469 0
M  V30 7966 N 774.657 3.95881 3.99043 0
M  V30 7967 H 766.808 2.03015 0.624388 0
M  V30 7968 H 769.071 0.88576 0.337835 0
M  V30 7969 H 768.777 3.02847 1.78819 0
M  V30 7970 H 768.651 1.99538 3.201 0
M  V30 7971 H 771.038 1.12308 2.72893 0
M  V30 7972 H 771.119 2.19089 1.32037 0
M  V30 7973 H 770.763 4.20225 2.85261 0
M  V30 7974 H 770.693 3.10423 4.25377 0
M  V30 7975 H 773.184 2.54093 2.79724 0
M  V30 7976 H 773.497 5.64196 5.28112 0
M  V30 7977 H 771.842 5.06922 4.75453 0
M  V30 7978 H 775.033 3.20927 3.40769 0
M  V30 7979 H 775.206 4.62321 4.54052 0
M  V30 7980 N 768.612 -1.24939 0.960631 0
M  V30 7981 C 769.859 -1.92818 0.618663 0
M  V30 7982 C 770.187 -1.75177 -0.845173 0
M  V30 7983 O 769.442 -1.09412 -1.62258 0
M  V30 7984 C 769.741 -3.45066 0.930809 0
M  V30 7985 C 769.407 -3.82869 2.38164 0
M  V30 7986 C 768.069 -3.92899 2.7782 0
M  V30 7987 C 770.421 -4.01483 3.32356 0
M  V30 7988 C 767.749 -4.18955 4.10723 0
M  V30 7989 C 770.101 -4.29033 4.6488 0
M  V30 7990 C 768.765 -4.37282 5.04322 0
M  V30 7991 H 768.035 -0.705571 0.226385 0
M  V30 7992 H 770.682 -1.48365 1.21079 0
M  V30 7993 H 768.987 -3.9096 0.256355 0
M  V30 7994 H 770.684 -3.95783 0.644712 0
M  V30 7995 H 767.274 -3.75622 2.06413 0
M  V30 7996 H 771.458 -3.93143 3.02907 0
M  V30 7997 H 766.714 -4.23558 4.40918 0
M  V30 7998 H 770.888 -4.42381 5.3784 0
M  V30 7999 H 768.515 -4.57225 6.0733 0
M  V30 8000 N 770.09 -0.729906 -1.39679 0
M  V30 8001 C 771.338 -0.275077 -2.00219 0
M  V30 8002 C 771.659 1.1401 -1.58199 0
M  V30 8003 O 770.929 1.77546 -0.827904 0
M  V30 8004 H 769.509 -0.0987127 -0.740449 0
M  V30 8005 H 772.171 -0.93873 -1.70804 0
M  V30 8006 H 771.267 -0.319446 -3.10461 0
M  V30 8007 N 771.568 1.50203 -0.477153 0
M  V30 8008 C 772.478 2.32421 0.319027 0
M  V30 8009 C 773.494 1.43075 0.990233 0
M  V30 8010 O 774.67 1.76123 0.976873 0
M  V30 8011 C 771.735 3.17909 1.38328 0
M  V30 8012 C 770.796 4.23082 0.728036 0
M  V30 8013 C 770.029 5.04484 1.74158 0
M  V30 8014 O 770.252 4.8705 2.96881 0
M  V30 8015 O 769.186 5.8747 1.31006 0
M  V30 8016 H 773.012 3.01638 -0.353281 0
M  V30 8017 H 770.597 1.47478 -0.238891 0
M  V30 8018 H 772.479 3.70937 1.9996 0
M  V30 8019 H 771.154 2.51413 2.03895 0
M  V30 8020 H 770.061 3.7403 0.07261 0
M  V30 8021 H 771.394 4.92065 0.115216 0
M  V30 8022 N 773.046 0.209999 1.56195 0
M  V30 8023 C 774.009 -0.691232 2.18528 0
M  V30 8024 C 775.009 -1.13013 1.14388 0
M  V30 8025 O 776.199 -1.04081 1.39688 0
M  V30 8026 C 773.331 -1.94551 2.79934 0
M  V30 8027 H 774.524 -0.147953 2.99535 0
M  V30 8028 H 772.077 -0.0396243 1.5625 0
M  V30 8029 H 772.812 -2.53094 2.02766 0
M  V30 8030 H 772.597 -1.63938 3.56184 0
M  V30 8031 H 774.087 -2.58785 3.2775 0
M  V30 8032 N 774.524 -1.57472 -0.0634922 0
M  V30 8033 C 775.773 -1.86837 -0.759928 0
M  V30 8034 C 776.086 -0.803823 -1.7832 0
M  V30 8035 O 777.292 -0.985578 -2.52979 0
M  V30 8036 C 775.748 -3.31448 -1.4025 0
M  V30 8037 C 775.356 -4.46052 -0.417368 0
M  V30 8038 C 777.1 -3.70003 -2.08082 0
M  V30 8039 C 775.007 -5.81707 -1.06633 0
M  V30 8040 H 773.937 -0.697009 -0.287567 0
M  V30 8041 H 776.588 -1.83495 -0.0133914 0
M  V30 8042 H 774.97 -3.29427 -2.19759 0
M  V30 8043 H 776.144 -4.5948 0.348503 0
M  V30 8044 H 774.459 -4.16104 0.156955 0
M  V30 8045 H 777.056 -4.68653 -2.57426 0
M  V30 8046 H 777.399 -3.00226 -2.88393 0
M  V30 8047 H 777.932 -3.7405 -1.35394 0
M  V30 8048 H 774.671 -6.54798 -0.303374 0
M  V30 8049 H 774.191 -5.72064 -1.80286 0
M  V30 8050 H 775.87 -6.27317 -1.58376 0
M  V30 8051 N 776.003 0.335068 -1.53997 0
M  V30 8052 C 777.231 1.09418 -1.756 0
M  V30 8053 C 777.646 1.82083 -0.499138 0
M  V30 8054 O 777.003 1.74646 0.529631 0
M  V30 8055 C 777.054 2.10115 -2.94166 0
M  V30 8056 O 776.775 1.40404 -4.14992 0
M  V30 8057 C 778.276 2.98336 -3.27888 0
M  V30 8058 H 775.496 0.32595 -0.586513 0
M  V30 8059 H 778.04 0.384693 -2.00849 0
M  V30 8060 H 776.195 2.76616 -2.71224 0
M  V30 8061 H 776.609 2.07743 -4.81605 0
M  V30 8062 H 778.083 3.6491 -4.1418 0
M  V30 8063 H 778.56 3.64814 -2.44556 0
M  V30 8064 H 779.166 2.37412 -3.52868 0
M  V30 8065 N 777.481 1.45874 0.596531 0
M  V30 8066 C 778.444 1.54988 1.68853 0
M  V30 8067 C 779.444 0.428302 1.54991 0
M  V30 8068 O 780.634 0.692158 1.59859 0
M  V30 8069 C 777.766 1.457 3.08195 0
M  V30 8070 H 778.959 2.52294 1.62135 0
M  V30 8071 H 776.512 1.33479 0.813206 0
M  V30 8072 H 777.247 0.496204 3.20481 0
M  V30 8073 H 777.032 2.27061 3.19665 0
M  V30 8074 H 778.522 1.55133 3.87716 0
M  V30 8075 N 778.959 -0.83999 1.33349 0
M  V30 8076 C 779.889 -1.965 1.26135 0
M  V30 8077 C 780.87 -1.69505 0.142152 0
M  V30 8078 O 782.055 -1.91346 0.331743 0
M  V30 8079 C 779.185 -3.32632 0.99866 0
M  V30 8080 C 778.139 -3.74021 2.08068 0
M  V30 8081 C 777.465 -5.07947 1.67014 0
M  V30 8082 C 778.765 -3.87925 3.49731 0
M  V30 8083 H 780.459 -2.02793 2.20262 0
M  V30 8084 H 778.005 -0.974297 1.06035 0
M  V30 8085 H 779.958 -4.10903 0.934696 0
M  V30 8086 H 778.682 -3.26593 0.0217759 0
M  V30 8087 H 777.341 -2.98012 2.13505 0
M  V30 8088 H 776.989 -4.98378 0.680316 0
M  V30 8089 H 776.689 -5.36611 2.39422 0
M  V30 8090 H 778.213 -5.88695 1.62082 0
M  V30 8091 H 779.627 -4.5651 3.46802 0
M  V30 8092 H 778.024 -4.28023 4.20614 0
M  V30 8093 H 779.094 -2.90407 3.88319 0
M  V30 8094 N 780.437 -1.16799 -1.0581 0
M  V30 8095 C 781.665 -0.97687 -1.82387 0
M  V30 8096 C 782.08 0.474917 -1.82729 0
M  V30 8097 O 781.437 1.3297 -1.25001 0
M  V30 8098 C 781.488 -1.50279 -3.28783 0
M  V30 8099 O 781.209 -2.89772 -3.28578 0
M  V30 8100 C 782.71 -1.35538 -4.22071 0
M  V30 8101 H 779.93 -0.345977 -0.574927 0
M  V30 8102 H 782.474 -1.54942 -1.33466 0
M  V30 8103 H 780.629 -0.972414 -3.74997 0
M  V30 8104 H 781.043 -3.13954 -4.20159 0
M  V30 8105 H 782.517 -1.7716 -5.22799 0
M  V30 8106 H 782.994 -0.301598 -4.38163 0
M  V30 8107 H 783.6 -1.87562 -3.81708 0
M  V30 8108 N 781.915 1.24427 -0.967243 0
M  V30 8109 C 783.192 1.87831 -0.545776 0
M  V30 8110 C 783.572 1.87126 0.977099 0
M  V30 8111 O 782.92 1.34357 1.84826 0
M  V30 8112 C 783.13 3.29967 -1.13679 0
M  V30 8113 C 784.478 4.06654 -1.22139 0
M  V30 8114 O 785.502 3.39136 -1.08926 0
M  V30 8115 O 784.361 5.27455 -1.43017 0
M  V30 8116 H 781.455 0.806745 -0.181912 0
M  V30 8117 H 784.001 1.32403 -1.06148 0
M  V30 8118 H 782.773 3.24977 -2.17958 0
M  V30 8119 H 782.396 3.92969 -0.605093 0
M  V30 8120 N 783.393 0.737304 1.3929 0
M  V30 8121 C 784.642 0.283129 1.99703 0
M  V30 8122 C 784.955 -1.13677 1.59176 0
M  V30 8123 O 786.161 -1.69058 2.12442 0
M  V30 8124 C 784.617 0.455262 3.57009 0
M  V30 8125 C 784.225 1.88319 4.06497 0
M  V30 8126 C 785.969 0.0629786 4.24453 0
M  V30 8127 C 783.876 2.00475 5.56385 0
M  V30 8128 H 782.806 0.102106 0.747054 0
M  V30 8129 H 785.457 0.911515 1.5926 0
M  V30 8130 H 783.839 -0.242057 3.9526 0
M  V30 8131 H 785.013 2.61265 3.79575 0
M  V30 8132 H 783.328 2.2289 3.51723 0
M  V30 8133 H 785.925 0.132787 5.34535 0
M  V30 8134 H 786.268 -0.982128 4.04549 0
M  V30 8135 H 786.801 0.71154 3.91385 0
M  V30 8136 H 783.54 3.03182 5.81172 0
M  V30 8137 H 783.06 1.31969 5.85102 0
M  V30 8138 H 784.739 1.787 6.21832 0
M  V30 8139 N 784.871 -1.49948 0.485112 0
M  V30 8140 C 785.819 -2.30449 -0.315609 0
M  V30 8141 C 786.813 -1.38351 -0.977516 0
M  V30 8142 O 788.019 -1.55477 -0.907019 0
M  V30 8143 H 784.394 -0.742262 -0.120629 0
M  V30 8144 H 786.365 -2.95925 0.383552 0
M  V30 8145 C 785.114 -3.19283 -1.37673 0
M  V30 8146 H 784.437 -3.90067 -0.876801 0
M  V30 8147 H 785.877 -3.78579 -1.90929 0
M  V30 8148 C 784.336 -2.37817 -2.38631 0
M  V30 8149 O 784.866 -2.0711 -3.44192 0
M  V30 8150 N 783.072 -2.00135 -2.107 0
M  V30 8151 H 782.619 -2.25307 -1.24878 0
M  V30 8152 H 782.577 -1.45933 -2.7848 0
M  V30 8153 N 786.349 -0.21828 -1.56081 0
M  V30 8154 C 787.597 0.413488 -1.97825 0
M  V30 8155 C 787.918 1.60527 -1.10707 0
M  V30 8156 O 787.188 1.9504 -0.183378 0
M  V30 8157 H 785.768 0.155757 -0.730581 0
M  V30 8158 H 788.43 -0.310413 -1.92412 0
M  V30 8159 H 787.526 0.742024 -3.03151 0
M  V30 8160 N 787.827 1.57504 0.0551401 0
M  V30 8161 C 789.104 1.79155 0.785048 0
M  V30 8162 C 789.484 0.809995 1.94942 0
M  V30 8163 O 788.832 -0.153432 2.27984 0
M  V30 8164 C 789.042 3.26134 1.24247 0
M  V30 8165 C 790.39 3.90419 1.66908 0
M  V30 8166 O 791.414 3.30126 1.33772 0
M  V30 8167 O 790.273 4.96523 2.28314 0
M  V30 8168 H 787.367 0.735825 0.377479 0
M  V30 8169 H 789.913 1.69666 0.0339285 0
M  V30 8170 H 788.685 3.89145 0.410089 0
M  V30 8171 H 788.308 3.40411 2.05441 0
M  V30 8172 N 789.305 -0.326896 1.54172 0
M  V30 8173 C 790.553 -1.06313 1.71878 0
M  V30 8174 C 790.874 -1.88652 0.493498 0
M  V30 8175 O 790.144 -1.89608 -0.492522 0
M  V30 8176 H 788.724 -0.39549 0.633716 0
M  V30 8177 H 791.386 -0.364139 1.91468 0
M  V30 8178 H 790.482 -1.73105 2.59694 0
M  V30 8179 N 790.784 -1.46188 -0.588786 0
M  V30 8180 C 791.714 -1.59148 -1.70863 0
M  V30 8181 C 792.695 -0.442083 -1.64255 0
M  V30 8182 O 793.88 -0.667575 -1.82365 0
M  V30 8183 C 791.01 -1.5757 -3.09498 0
M  V30 8184 C 789.964 -2.71418 -3.30932 0
M  V30 8185 C 789.29 -2.549 -4.70032 0
M  V30 8186 C 790.59 -4.1329 -3.19356 0
M  V30 8187 H 792.284 -2.52889 -1.60274 0
M  V30 8188 H 789.83 -1.21707 -0.769638 0
M  V30 8189 H 791.783 -1.65231 -3.87655 0
M  V30 8190 H 790.507 -0.603705 -3.20972 0
M  V30 8191 H 789.166 -2.63216 -2.55172 0
M  V30 8192 H 788.814 -1.55797 -4.78264 0
M  V30 8193 H 788.514 -3.31257 -4.85327 0
M  V30 8194 H 790.038 -2.64443 -5.50366 0
M  V30 8195 H 791.452 -4.22636 -3.87365 0
M  V30 8196 H 789.849 -4.90187 -3.46175 0
M  V30 8197 H 790.919 -4.33874 -2.16522 0
M  V30 8198 N 792.262 0.832906 -1.33792 0
M  V30 8199 C 793.508 1.59089 -1.25772 0
M  V30 8200 C 793.841 1.93414 0.174601 0
M  V30 8201 O 793.116 1.59195 1.11746 0
M  V30 8202 C 793.399 2.89699 -2.13885 0
M  V30 8203 C 793.252 2.62017 -3.65605 0
M  V30 8204 C 794.571 3.91182 -2.01654 0
M  V30 8205 H 791.69 0.577232 -0.458227 0
M  V30 8206 H 794.332 0.960227 -1.6395 0
M  V30 8207 H 792.482 3.4352 -1.81456 0
M  V30 8208 H 794.154 2.14582 -4.08353 0
M  V30 8209 H 792.397 1.95621 -3.87189 0
M  V30 8210 H 793.068 3.55112 -4.2261 0
M  V30 8211 H 795.544 3.46684 -2.30107 0
M  V30 8212 H 794.42 4.80391 -2.65548 0
M  V30 8213 H 794.681 4.30861 -0.990536 0
M  V30 8214 N 793.74 1.17359 1.05189 0
M  V30 8215 C 795.017 0.871914 1.75091 0
M  V30 8216 C 795.397 -0.627821 2.01548 0
M  V30 8217 O 794.745 -1.5791 1.65156 0
M  V30 8218 C 794.955 1.70687 3.04413 0
M  V30 8219 C 796.303 1.92684 3.78362 0
M  V30 8220 O 797.327 1.67645 3.14282 0
M  V30 8221 O 796.186 2.34765 4.93505 0
M  V30 8222 H 793.28 0.322831 0.761386 0
M  V30 8223 H 795.826 1.28054 1.11357 0
M  V30 8224 H 794.598 2.72405 2.80911 0
M  V30 8225 H 794.221 1.29602 3.75884 0
M  V30 8226 N 795.218 -1.23913 0.973828 0
M  V30 8227 C 796.464 -1.92436 0.640026 0
M  V30 8228 C 796.797 -1.75875 -0.823512 0
M  V30 8229 O 796.072 -1.11563 -1.59323 0
M  V30 8230 C 796.355 -3.4526 1.0231 0
M  V30 8231 C 796.208 -3.70961 2.54378 0
M  V30 8232 C 797.527 -4.36495 0.562155 0
M  V30 8233 H 794.646 -0.698868 0.233992 0
M  V30 8234 H 797.288 -1.46163 1.21393 0
M  V30 8235 H 795.438 -3.84802 0.534751 0
M  V30 8236 H 797.11 -3.40941 3.10737 0
M  V30 8237 H 795.353 -3.15899 2.97305 0
M  V30 8238 H 796.024 -4.77912 2.76232 0
M  V30 8239 H 798.5 -4.04363 0.981333 0
M  V30 8240 H 797.376 -5.42142 0.858689 0
M  V30 8241 H 797.637 -4.38818 -0.537659 0
M  V30 8242 N 796.696 -0.74468 -1.38897 0
M  V30 8243 C 797.659 -0.11945 -2.28889 0
M  V30 8244 C 798.659 0.656942 -1.46768 0
M  V30 8245 O 799.849 0.484525 -1.67326 0
M  V30 8246 C 796.981 0.839635 -3.30398 0
M  V30 8247 H 798.174 -0.912414 -2.85683 0
M  V30 8248 H 795.727 -0.511119 -1.47707 0
M  V30 8249 H 796.462 1.6586 -2.78677 0
M  V30 8250 H 796.247 0.285432 -3.9106 0
M  V30 8251 H 797.737 1.27337 -3.97712 0
M  V30 8252 N 798.174 1.49689 -0.493057 0
M  V30 8253 C 799.42 2.02727 0.0543518 0
M  V30 8254 C 799.753 1.37264 1.37376 0
M  V30 8255 O 799.028 0.505644 1.87812 0
M  V30 8256 C 799.311 3.59456 0.215226 0
M  V30 8257 C 799.164 4.35459 -1.12675 0
M  V30 8258 C 800.483 4.29511 0.959586 0
M  V30 8259 H 797.602 0.736773 0.0182786 0
M  V30 8260 H 800.244 1.78792 -0.642924 0
M  V30 8261 H 798.394 3.79981 0.809122 0
M  V30 8262 H 800.066 4.2645 -1.75891 0
M  V30 8263 H 798.309 3.9833 -1.71801 0
M  V30 8264 H 798.98 5.43454 -0.967578 0
M  V30 8265 H 801.456 4.13594 0.455977 0
M  V30 8266 H 800.332 5.38939 1.04098 0
M  V30 8267 H 800.593 3.94202 2.00144 0
M  V30 8268 N 799.652 0.226554 1.55963 0
M  V30 8269 C 800.9 -0.402991 1.98041 0
M  V30 8270 C 801.221 -1.59938 1.11557 0
M  V30 8271 O 800.491 -1.9494 0.193719 0
M  V30 8272 H 799.071 -0.15188 0.731397 0
M  V30 8273 H 801.733 0.320613 1.92245 0
M  V30 8274 H 800.829 -0.725937 3.0354 0
M  V30 8275 N 801.13 -1.57531 -0.0467866 0
M  V30 8276 C 802.093 -2.04379 -1.03738 0
M  V30 8277 C 803.093 -0.944881 -1.3011 0
M  V30 8278 O 804.283 -1.20904 -1.25411 0
M  V30 8279 C 801.415 -2.44572 -2.37482 0
M  V30 8280 H 802.608 -2.93142 -0.633063 0
M  V30 8281 H 800.161 -1.53526 -0.293177 0
M  V30 8282 H 800.896 -1.58911 -2.82697 0
M  V30 8283 H 800.681 -3.24785 -2.19675 0
M  V30 8284 H 802.171 -2.81307 -3.08636 0
M  V30 8285 N 802.608 0.318715 -1.54344 0
M  V30 8286 C 804.019 0.89285 -1.63967 0
M  V30 8287 C 804.37 1.88712 -0.536855 0
M  V30 8288 O 803.495 2.13877 0.329457 0
M  V30 8289 C 804.09 1.62618 -2.97222 0
M  V30 8290 C 802.649 2.14897 -3.09025 0
M  V30 8291 C 801.796 0.975909 -2.5956 0
M  V30 8292 H 804.747 0.0961687 -1.58408 0
M  V30 8293 H 804.768 2.4907 -2.87653 0
M  V30 8294 H 804.28 0.902286 -3.77466 0
M  V30 8295 H 802.381 2.90387 -2.33465 0
M  V30 8296 H 802.494 2.39565 -4.14904 0
M  V30 8297 H 800.858 1.35646 -2.15574 0
M  V30 8298 H 801.641 0.266253 -3.42266 0
M  V30 8299 N 804.086 1.46499 0.581025 0
M  V30 8300 C 805.016 1.60052 1.70017 0
M  V30 8301 C 805.997 0.450788 1.64018 0
M  V30 8302 O 807.182 0.677237 1.82009 0
M  V30 8303 C 804.312 1.5921 3.08658 0
M  V30 8304 C 803.266 2.73169 3.29488 0
M  V30 8305 C 802.592 2.57389 4.68674 0
M  V30 8306 C 803.892 4.14978 3.1716 0
M  V30 8307 H 805.586 2.53735 1.5893 0
M  V30 8308 H 803.132 1.22113 0.763173 0
M  V30 8309 H 805.085 1.67285 3.86773 0
M  V30 8310 H 803.809 0.620718 3.20647 0
M  V30 8311 H 802.468 2.64566 2.53773 0
M  V30 8312 H 802.116 1.58331 4.77431 0
M  V30 8313 H 801.816 3.33826 4.83564 0
M  V30 8314 H 803.34 2.67358 5.48956 0
M  V30 8315 H 804.754 4.24684 3.85119 0
M  V30 8316 H 803.151 4.92016 3.4357 0
M  V30 8317 H 804.221 4.35016 2.14218 0
M  V30 8318 N 805.565 -0.825799 1.34232 0
M  V30 8319 C 806.475 -1.9684 1.27638 0
M  V30 8320 C 807.491 -1.73018 0.184569 0
M  V30 8321 O 808.667 -1.97172 0.410525 0
M  V30 8322 C 805.732 -3.31084 1.02879 0
M  V30 8323 C 804.793 -3.67933 2.21188 0
M  V30 8324 C 804.026 -4.95772 1.976 0
M  V30 8325 O 804.249 -5.62721 0.93281 0
M  V30 8326 O 803.183 -5.30431 2.84477 0
M  V30 8327 H 807.009 -2.05346 2.23756 0
M  V30 8328 H 804.594 -0.960772 1.1441 0
M  V30 8329 H 806.476 -4.11492 0.908406 0
M  V30 8330 H 805.151 -3.23552 0.0979821 0
M  V30 8331 H 804.058 -2.87981 2.38784 0
M  V30 8332 H 805.391 -3.80147 3.12648 0
M  V30 8333 N 807.043 -1.17915 -1.04565 0
M  V30 8334 C 807.953 -0.916449 -2.15959 0
M  V30 8335 C 808.969 0.117655 -1.73602 0
M  V30 8336 O 810.145 -0.063089 -2.01301 0
M  V30 8337 C 807.21 -0.440262 -3.43893 0
M  V30 8338 C 806.271 -1.54172 -4.00661 0
M  V30 8339 C 805.504 -1.08816 -5.22489 0
M  V30 8340 O 805.727 0.0551547 -5.70373 0
M  V30 8341 O 804.661 -1.88383 -5.7166 0
M  V30 8342 H 808.487 -1.8484 -2.40972 0
M  V30 8343 H 806.072 -0.960552 -1.14428 0
M  V30 8344 H 807.954 -0.182537 -4.21004 0
M  V30 8345 H 806.629 0.46346 -3.20365 0
M  V30 8346 H 805.536 -1.85341 -3.24961 0
M  V30 8347 H 806.869 -2.42139 -4.2852 0
M  V30 8348 N 808.521 1.23394 -0.980386 0
M  V30 8349 C 809.453 2.24146 -0.478657 0
M  V30 8350 C 810.466 1.57303 0.419492 0
M  V30 8351 O 811.655 1.77094 0.223631 0
M  V30 8352 C 808.755 3.3732 0.326913 0
M  V30 8353 C 807.928 4.33744 -0.56436 0
M  V30 8354 C 806.987 5.25866 0.187358 0
M  V30 8355 O 806.013 5.67626 -0.423019 0
M  V30 8356 N 807.215 5.61492 1.47335 0
M  V30 8357 H 809.98 2.67826 -1.34496 0
M  V30 8358 H 807.541 1.37566 -0.853653 0
M  V30 8359 H 809.533 3.95926 0.838148 0
M  V30 8360 H 808.103 2.92823 1.09422 0
M  V30 8361 H 807.323 3.73641 -1.25642 0
M  V30 8362 H 808.611 4.95123 -1.17177 0
M  V30 8363 H 808.009 5.29514 1.99077 0
M  V30 8364 H 806.566 6.2257 1.93002 0
M  V30 8365 N 809.999 0.752036 1.385 0
M  V30 8366 C 811.247 0.306895 1.99756 0
M  V30 8367 C 811.568 -1.11478 1.59992 0
M  V30 8368 O 810.838 -1.76206 0.856045 0
M  V30 8369 H 809.418 0.11048 0.738785 0
M  V30 8370 H 812.08 0.965785 1.69289 0
M  V30 8371 H 811.176 0.368797 3.09913 0
M  V30 8372 N 811.477 -1.49425 0.500989 0
M  V30 8373 C 812.44 -2.27646 -0.266416 0
M  V30 8374 C 813.44 -1.3366 -0.893961 0
M  V30 8375 O 814.63 -1.5682 -0.758495 0
M  V30 8376 C 811.762 -3.11618 -1.38227 0
M  V30 8377 H 812.955 -2.96945 0.419973 0
M  V30 8378 H 810.508 -1.5419 0.255954 0
M  V30 8379 H 811.243 -2.46885 -2.10281 0
M  V30 8380 H 811.028 -3.80721 -0.937746 0
M  V30 8381 H 812.518 -3.70698 -1.92283 0
M  V30 8382 N 812.955 -0.234822 -1.55841 0
M  V30 8383 C 814.201 0.393843 -1.98939 0
M  V30 8384 C 814.534 1.58466 -1.1226 0
M  V30 8385 O 813.809 1.93635 -0.183242 0
M  V30 8386 C 814.092 0.815492 -3.50745 0
M  V30 8387 C 813.945 -0.379878 -4.48193 0
M  V30 8388 C 815.264 1.66687 -4.07312 0
M  V30 8389 H 812.383 0.141681 -0.723253 0
M  V30 8390 H 815.025 -0.333716 -1.87046 0
M  V30 8391 H 813.175 1.43541 -3.6101 0
M  V30 8392 H 814.847 -1.0182 -4.49923 0
M  V30 8393 H 813.09 -1.02507 -4.21515 0
M  V30 8394 H 813.761 -0.0417069 -5.51984 0
M  V30 8395 H 816.237 1.14369 -4.00074 0
M  V30 8396 H 815.113 1.93078 -5.13821 0
M  V30 8397 H 815.374 2.63468 -3.55017 0
M  V30 8398 N 814.433 1.57553 0.0384317 0
M  V30 8399 C 815.663 1.92813 0.742064 0
M  V30 8400 C 816.071 0.832157 1.69917 0
M  V30 8401 O 815.414 -0.200917 1.82598 0
M  V30 8402 C 815.476 3.23806 1.56172 0
M  V30 8403 C 815.14 4.50459 0.770407 0
M  V30 8404 C 816.137 5.19846 0.0748006 0
M  V30 8405 C 813.822 4.97001 0.727714 0
M  V30 8406 C 815.816 6.34047 -0.652902 0
M  V30 8407 C 813.503 6.111 -0.00373992 0
M  V30 8408 C 814.501 6.79477 -0.692816 0
M  V30 8409 O 814.189 7.91395 -1.41241 0
M  V30 8410 H 813.921 0.641174 0.214179 0
M  V30 8411 H 816.475 2.054 0.00285095 0
M  V30 8412 H 814.705 3.0752 2.34453 0
M  V30 8413 H 816.394 3.44463 2.14709 0
M  V30 8414 H 817.16 4.84899 0.098875 0
M  V30 8415 H 813.039 4.43629 1.25355 0
M  V30 8416 H 816.583 6.87353 -1.1913 0
M  V30 8417 H 812.48 6.45493 -0.0297703 0
M  V30 8418 H 813.248 8.07702 -1.32512 0
M  V30 8419 N 815.911 -0.310526 1.54511 0
M  V30 8420 C 817.16 -1.0445 1.72549 0
M  V30 8421 C 817.473 -1.88748 0.513172 0
M  V30 8422 O 818.679 -2.65338 0.575165 0
M  V30 8423 C 817.135 -1.90665 3.05246 0
M  V30 8424 C 816.743 -1.11415 4.33925 0
M  V30 8425 C 818.487 -2.63719 3.32645 0
M  V30 8426 C 816.394 -1.96852 5.57677 0
M  V30 8427 H 815.324 -0.393676 0.643067 0
M  V30 8428 H 817.975 -0.302003 1.80998 0
M  V30 8429 H 816.357 -2.68864 2.90737 0
M  V30 8430 H 817.531 -0.378956 4.59239 0
M  V30 8431 H 815.846 -0.499853 4.13389 0
M  V30 8432 H 818.443 -3.27974 4.223 0
M  V30 8433 H 818.786 -3.32047 2.51098 0
M  V30 8434 H 819.319 -1.92574 3.48081 0
M  V30 8435 H 816.058 -1.33009 6.41864 0
M  V30 8436 H 815.578 -2.68069 5.36562 0
M  V30 8437 H 817.257 -2.55127 5.94575 0
M  V30 8438 N 817.389 -1.46805 -0.573248 0
M  V30 8439 C 818.636 -1.52604 -1.3311 0
M  V30 8440 C 818.964 -0.181633 -1.9365 0
M  V30 8441 O 818.219 0.823775 -1.77517 0
M  V30 8442 C 818.518 -2.58001 -2.47326 0
M  V30 8443 C 818.184 -4.01747 -2.04719 0
M  V30 8444 C 816.846 -4.40881 -1.92814 0
M  V30 8445 C 819.198 -4.92008 -1.71982 0
M  V30 8446 C 816.526 -5.68129 -1.46445 0
M  V30 8447 C 818.878 -6.19703 -1.27089 0
M  V30 8448 C 817.542 -6.57733 -1.13768 0
M  V30 8449 H 816.812 -0.558417 -0.487084 0
M  V30 8450 H 819.459 -1.80327 -0.644538 0
M  V30 8451 H 817.764 -2.23974 -3.2147 0
M  V30 8452 H 819.461 -2.59715 -3.05531 0
M  V30 8453 H 816.051 -3.70819 -2.14922 0
M  V30 8454 H 820.235 -4.62485 -1.8006 0
M  V30 8455 H 815.491 -5.96359 -1.34783 0
M  V30 8456 H 819.665 -6.89064 -1.00814 0
M  V30 8457 H 817.292 -7.56228 -0.776142 0
M  V30 8458 N 818.867 0.818669 -1.34668 0
M  V30 8459 C 819.815 1.95123 -1.26609 0
M  V30 8460 C 820.809 1.68611 -0.163348 0
M  V30 8461 O 822.015 1.76975 -0.328586 0
M  V30 8462 H 818.39 0.640871 -0.393431 0
M  V30 8463 H 820.361 1.99043 -2.22316 0
M  V30 8464 C 819.11 3.31697 -1.04272 0
M  V30 8465 H 818.433 3.52648 -1.8836 0
M  V30 8466 H 819.873 4.11382 -1.0267 0
M  V30 8467 C 818.332 3.35942 0.253858 0
M  V30 8468 O 818.862 3.81632 1.25378 0
M  V30 8469 N 817.068 2.89165 0.288447 0
M  V30 8470 H 816.615 2.52176 -0.525845 0
M  V30 8471 H 816.573 2.92387 1.15572 0
M  V30 8472 N 820.346 1.18468 1.03938 0
M  V30 8473 C 821.594 0.978895 1.76811 0
M  V30 8474 C 821.915 -0.49257 1.88676 0
M  V30 8475 O 821.185 -1.3572 1.41269 0
M  V30 8476 H 819.765 0.359201 0.654968 0
M  V30 8477 H 822.427 1.49173 1.25433 0
M  V30 8478 H 821.523 1.418 2.78027 0
M  V30 8479 N 821.824 -1.22873 0.986916 0
M  V30 8480 C 823.24 -1.43594 0.696633 0
M  V30 8481 C 823.44 -1.87622 -0.734869 0
M  V30 8482 O 822.496 -2.02633 -1.50652 0
M  V30 8483 C 823.809 -2.48231 1.69711 0
M  V30 8484 C 825.357 -2.62037 1.71188 0
M  V30 8485 C 825.832 -3.6989 2.70084 0
M  V30 8486 N 827.323 -3.77341 2.68641 0
M  V30 8487 C 828.058 -4.6037 3.41829 0
M  V30 8488 N 827.554 -5.47438 4.24598 0
M  V30 8489 N 829.347 -4.54626 3.30563 0
M  V30 8490 H 821.498 -0.925982 1.91153 0
M  V30 8491 H 823.761 -0.46866 0.824052 0
M  V30 8492 H 823.467 -2.22812 2.72117 0
M  V30 8493 H 823.341 -3.46731 1.48516 0
M  V30 8494 H 825.728 -2.86803 0.694837 0
M  V30 8495 H 825.809 -1.63831 1.96451 0
M  V30 8496 H 825.453 -3.45872 3.71934 0
M  V30 8497 H 825.383 -4.67652 2.42093 0
M  V30 8498 H 827.874 -3.15124 2.08578 0
M  V30 8499 H 828.187 -6.078 4.77283 0
M  V30 8500 H 826.532 -5.4704 4.28687 0
M  V30 8501 H 829.723 -3.85627 2.65347 0
M  V30 8502 H 829.896 -5.19103 3.8786 0
M  V30 8503 N 823.302 -0.75937 -1.38099 0
M  V30 8504 C 824.252 -0.111098 -2.27729 0
M  V30 8505 C 825.236 0.687161 -1.45489 0
M  V30 8506 O 826.428 0.552167 -1.68167 0
M  V30 8507 C 823.557 0.776809 -3.34396 0
M  V30 8508 C 822.643 -0.0286108 -4.2409 0
M  V30 8509 N 823.034 -1.06797 -4.94397 0
M  V30 8510 C 821.332 0.197307 -4.45563 0
M  V30 8511 C 822.033 -1.55576 -5.6051 0
M  V30 8512 N 821.009 -0.870059 -5.36592 0
M  V30 8513 H 824.811 -0.907047 -2.79553 0
M  V30 8514 H 822.325 -0.595954 -1.5107 0
M  V30 8515 H 824.322 1.25691 -3.97502 0
M  V30 8516 H 822.982 1.57164 -2.84129 0
M  V30 8517 H 823.993 -1.44988 -4.97191 0
M  V30 8518 H 820.67 0.965028 -4.06194 0
M  V30 8519 H 822.06 -2.42184 -6.26735 0
M  V30 8520 N 824.78 1.49157 -0.508906 0
M  V30 8521 C 826.028 2.02073 0.0327335 0
M  V30 8522 C 826.349 1.39012 1.3675 0
M  V30 8523 O 825.619 0.548153 1.88075 0
M  V30 8524 H 824.199 0.746848 0.0150864 0
M  V30 8525 H 826.861 1.83097 -0.667946 0
M  V30 8526 H 825.957 3.11707 0.1566 0
M  V30 8527 N 826.258 0.243083 1.55714 0
M  V30 8528 C 827.506 -0.381964 1.98458 0
M  V30 8529 C 827.827 -1.58745 1.13247 0
M  V30 8530 O 827.097 -1.94723 0.214384 0
M  V30 8531 H 825.677 -0.144114 0.732967 0
M  V30 8532 H 828.339 0.340985 1.91894 0
M  V30 8533 H 827.435 -0.693702 3.04293 0
M  V30 8534 N 827.736 -1.57571 -0.0300757 0
M  V30 8535 C 828.666 -2.0953 -1.03051 0
M  V30 8536 C 829.647 -0.99761 -1.37774 0
M  V30 8537 O 830.832 -1.27279 -1.46676 0
M  V30 8538 C 827.962 -2.57385 -2.33174 0
M  V30 8539 C 826.916 -3.71409 -2.12696 0
M  V30 8540 C 826.242 -4.05467 -3.4857 0
M  V30 8541 C 827.542 -4.99877 -1.51396 0
M  V30 8542 H 829.236 -2.93367 -0.597999 0
M  V30 8543 H 826.782 -1.41127 -0.286203 0
M  V30 8544 H 828.735 -2.92355 -3.03491 0
M  V30 8545 H 827.459 -1.70629 -2.78484 0
M  V30 8546 H 826.118 -3.36786 -1.44813 0
M  V30 8547 H 825.766 -3.15779 -3.91526 0
M  V30 8548 H 825.466 -4.82269 -3.35694 0
M  V30 8549 H 826.99 -4.4297 -4.2025 0
M  V30 8550 H 828.404 -5.3281 -2.11629 0
M  V30 8551 H 826.801 -5.81283 -1.49098 0
M  V30 8552 H 827.871 -4.82522 -0.479676 0
M  V30 8553 N 829.214 0.302327 -1.54673 0
M  V30 8554 C 830.439 1.06103 -1.78205 0
M  V30 8555 C 830.864 1.80204 -0.53926 0
M  V30 8556 O 830.222 1.73975 0.510142 0
M  V30 8557 C 830.27 2.01829 -2.98827 0
M  V30 8558 O 829.374 3.10108 -2.71858 0
M  V30 8559 H 828.715 0.30487 -0.589873 0
M  V30 8560 H 831.245 0.340153 -2.01753 0
M  V30 8561 H 831.255 2.44319 -3.2676 0
M  V30 8562 H 829.93 1.473 -3.88942 0
M  V30 8563 H 828.507 2.72142 -2.54937 0
M  V30 8564 N 830.692 1.47107 0.565454 0
M  V30 8565 C 832.103 1.47266 1.1476 0
M  V30 8566 C 832.454 0.222841 1.9493 0
M  V30 8567 O 831.579 -0.672862 2.05673 0
M  V30 8568 C 832.174 2.66822 2.08785 0
M  V30 8569 C 830.733 2.69967 2.62288 0
M  V30 8570 C 829.88 2.40236 1.38499 0
M  V30 8571 H 832.831 1.54736 0.352479 0
M  V30 8572 H 832.852 2.43323 2.92531 0
M  V30 8573 H 832.364 3.5777 1.50408 0
M  V30 8574 H 830.465 1.83137 3.24487 0
M  V30 8575 H 830.578 3.70426 3.03845 0
M  V30 8576 H 828.942 1.90648 1.68895 0
M  V30 8577 H 829.725 3.33381 0.819274 0
M  V30 8578 N 832.17 -0.811516 1.35101 0
M  V30 8579 C 833.102 -1.93102 1.23468 0
M  V30 8580 C 834.115 -1.62021 0.159095 0
M  V30 8581 O 835.304 -1.73682 0.411945 0
M  V30 8582 C 832.404 -3.27345 0.877404 0
M  V30 8583 C 831.577 -3.86368 2.05033 0
M  V30 8584 C 830.636 -4.99009 1.66963 0
M  V30 8585 O 829.662 -5.16698 2.38772 0
M  V30 8586 N 830.864 -5.7749 0.590394 0
M  V30 8587 H 833.629 -2.0361 2.19916 0
M  V30 8588 H 831.19 -0.988687 1.28205 0
M  V30 8589 H 833.182 -4.00163 0.604298 0
M  V30 8590 H 831.752 -3.126 0.00275267 0
M  V30 8591 H 830.972 -3.05804 2.48752 0
M  V30 8592 H 832.26 -4.22533 2.83449 0
M  V30 8593 H 831.658 -5.657 -0.00633259 0
M  V30 8594 H 830.215 -6.50708 0.377055 0
M  V30 8595 N 833.648 -1.19017 -1.03309 0
M  V30 8596 C 835.059 -0.993206 -1.5809 0
M  V30 8597 C 835.41 0.45505 -1.9085 0
M  V30 8598 O 834.535 1.33372 -1.70414 0
M  V30 8599 C 835.13 -1.79661 -2.87241 0
M  V30 8600 C 833.689 -1.64377 -3.38611 0
M  V30 8601 C 832.836 -1.78628 -2.12102 0
M  V30 8602 H 835.787 -1.3345 -0.858879 0
M  V30 8603 H 835.808 -1.29019 -3.57958 0
M  V30 8604 H 835.32 -2.85061 -2.63366 0
M  V30 8605 H 833.421 -0.615447 -3.67482 0
M  V30 8606 H 833.534 -2.44651 -4.11926 0
M  V30 8607 H 831.898 -1.21648 -2.23772 0
M  V30 8608 H 832.681 -2.8548 -1.90673 0
M  V30 8609 N 835.127 1.22348 -0.993418 0
M  V30 8610 C 836.352 1.95666 -0.687727 0
M  V30 8611 C 836.777 1.72883 0.741161 0
M  V30 8612 O 836.135 1.00837 1.50671 0
M  V30 8613 C 836.183 3.46457 -0.99998 0
M  V30 8614 O 835.287 4.12281 -0.0989386 0
M  V30 8615 H 834.628 0.612102 -0.257346 0
M  V30 8616 H 837.158 1.55428 -1.33054 0
M  V30 8617 H 837.168 3.96976 -0.942035 0
M  V30 8618 H 835.843 3.62365 -2.04118 0
M  V30 8619 H 834.42 3.72295 -0.212413 0
M  V30 8620 N 836.605 0.766683 1.37694 0
M  V30 8621 C 837.537 0.107798 2.28946 0
M  V30 8622 C 838.55 -0.669701 1.48387 0
M  V30 8623 O 839.739 -0.508629 1.711 0
M  V30 8624 C 836.839 -0.871084 3.27514 0
M  V30 8625 C 836.012 -0.148471 4.37148 0
M  V30 8626 C 835.071 -1.03998 5.1582 0
M  V30 8627 O 834.097 -0.505639 5.6695 0
M  V30 8628 N 835.299 -2.36679 5.3006 0
M  V30 8629 H 838.064 0.89154 2.86132 0
M  V30 8630 H 835.625 0.618593 1.49616 0
M  V30 8631 H 837.617 -1.47081 3.77027 0
M  V30 8632 H 836.187 -1.55582 2.71133 0
M  V30 8633 H 835.407 0.632117 3.89099 0
M  V30 8634 H 836.695 0.351045 5.07588 0
M  V30 8635 H 836.093 -2.82532 4.90094 0
M  V30 8636 H 834.65 -2.9167 5.82899 0
M  V30 8637 N 838.083 -1.48885 0.516809 0
M  V30 8638 C 839.499 -1.58651 0.173788 0
M  V30 8639 C 839.699 -1.52033 -1.32243 0
M  V30 8640 O 838.755 -1.40251 -2.09967 0
M  V30 8641 C 840.068 -2.90816 0.764628 0
M  V30 8642 C 841.616 -3.04316 0.732164 0
M  V30 8643 C 842.091 -4.39123 1.30135 0
M  V30 8644 N 843.582 -4.45656 1.26273 0
M  V30 8645 C 844.317 -5.48446 1.67317 0
M  V30 8646 N 843.813 -6.58258 2.16028 0
M  V30 8647 N 845.606 -5.39251 1.58635 0
M  V30 8648 H 837.757 -1.5143 1.48939 0
M  V30 8649 H 840.02 -0.718243 0.618733 0
M  V30 8650 H 839.726 -3.01275 1.81456 0
M  V30 8651 H 839.6 -3.76473 0.234113 0
M  V30 8652 H 841.987 -2.93478 -0.308975 0
M  V30 8653 H 842.068 -2.20303 1.3 0
M  V30 8654 H 841.712 -4.50714 2.34135 0
M  V30 8655 H 841.642 -5.21801 0.709305 0
M  V30 8656 H 844.133 -3.66879 0.906006 0
M  V30 8657 H 844.446 -7.32811 2.45374 0
M  V30 8658 H 842.791 -6.59257 2.20013 0
M  V30 8659 H 845.982 -4.52354 1.20387 0
M  V30 8660 H 846.155 -6.19229 1.90944 0
M  V30 8661 N 839.561 -0.251338 -1.55583 0
M  V30 8662 C 840.81 0.372681 -1.98227 0
M  V30 8663 C 841.123 1.58743 -1.1428 0
M  V30 8664 O 842.329 2.28289 -1.46957 0
M  V30 8665 C 840.785 0.714439 -3.52738 0
M  V30 8666 C 840.393 -0.479168 -4.4543 0
M  V30 8667 C 842.137 1.3024 -4.04027 0
M  V30 8668 C 840.044 -0.113318 -5.91291 0
M  V30 8669 H 838.974 0.14302 -0.740312 0
M  V30 8670 H 841.625 -0.352253 -1.80087 0
M  V30 8671 H 840.007 1.49762 -3.66589 0
M  V30 8672 H 841.181 -1.25644 -4.4334 0
M  V30 8673 H 839.496 -0.982359 -4.04646 0
M  V30 8674 H 842.093 1.58953 -5.10527 0
M  V30 8675 H 842.436 2.22837 -3.51638 0
M  V30 8676 H 842.969 0.582024 -3.93519 0
M  V30 8677 H 839.708 -1.00654 -6.47726 0
M  V30 8678 H 839.228 0.627666 -5.96507 0
M  V30 8679 H 840.907 0.30293 -6.4629 0
M  V30 8680 N 841.039 1.57585 0.0217189 0
M  V30 8681 C 841.949 2.10444 1.03684 0
M  V30 8682 C 842.965 1.04472 1.39146 0
M  V30 8683 O 844.141 1.36249 1.48317 0
M  V30 8684 C 841.206 2.5794 2.31664 0
M  V30 8685 C 840.267 3.78425 2.02714 0
M  V30 8686 C 839.5 4.23646 3.24592 0
M  V30 8687 O 839.723 3.6834 4.35525 0
M  V30 8688 O 838.657 5.16013 3.09862 0
M  V30 8689 H 842.483 2.97354 0.617584 0
M  V30 8690 H 840.068 1.47473 0.239174 0
M  V30 8691 H 841.95 2.88785 3.06889 0
M  V30 8692 H 840.625 1.74138 2.7287 0
M  V30 8693 H 839.532 3.52587 1.25033 0
M  V30 8694 H 840.865 4.63234 1.66359 0
M  V30 8695 N 842.517 -0.29412 1.54831 0
M  V30 8696 C 843.765 -1.02643 1.74094 0
M  V30 8697 C 844.086 -1.87563 0.533402 0
M  V30 8698 O 843.356 -1.9061 -0.452192 0
M  V30 8699 H 841.936 -0.381959 0.641963 0
M  V30 8700 H 844.598 -0.323444 1.92197 0
M  V30 8701 H 843.694 -1.67558 2.63307 0
M  V30 8702 N 843.995 -1.47404 -0.557645 0
M  V30 8703 C 845.223 -1.57622 -1.34026 0
M  V30 8704 C 845.638 -0.226256 -1.87439 0
M  V30 8705 O 844.995 0.78043 -1.64971 0
M  V30 8706 C 845.046 -2.60111 -2.51047 0
M  V30 8707 O 844.767 -3.89866 -1.99841 0
M  V30 8708 C 846.268 -2.80508 -3.43264 0
M  V30 8709 H 843.488 -0.532271 -0.40857 0
M  V30 8710 H 846.032 -1.93019 -0.675555 0
M  V30 8711 H 844.187 -2.27648 -3.13457 0
M  V30 8712 H 844.601 -4.45864 -2.76234 0
M  V30 8713 H 846.075 -3.56084 -4.21792 0
M  V30 8714 H 846.552 -1.88314 -3.9678 0
M  V30 8715 H 847.158 -3.14166 -2.86671 0
M  V30 8716 N 845.473 0.80434 -1.35529 0
M  V30 8717 C 846.405 1.92445 -1.2449 0
M  V30 8718 C 847.418 1.61934 -0.167685 0
M  V30 8719 O 848.607 1.73461 -0.42115 0
M  V30 8720 C 845.707 3.26875 -0.894751 0
M  V30 8721 C 844.88 3.85275 -2.07079 0
M  V30 8722 C 843.939 4.98116 -1.69607 0
M  V30 8723 O 842.965 5.15424 -2.41509 0
M  V30 8724 N 844.167 5.77169 -0.621012 0
M  V30 8725 H 846.932 2.02441 -2.20993 0
M  V30 8726 H 844.493 0.981874 -1.28728 0
M  V30 8727 H 846.485 3.99837 -0.625511 0
M  V30 8728 H 845.055 3.12594 -0.0193306 0
M  V30 8729 H 844.275 3.0448 -2.5037 0
M  V30 8730 H 845.563 4.21024 -2.85685 0
M  V30 8731 H 844.961 5.65695 -0.0236679 0
M  V30 8732 H 843.518 6.50499 -0.411558 0
M  V30 8733 N 846.951 1.19563 1.02676 0
M  V30 8734 C 848.197 1.00105 1.76371 0
M  V30 8735 C 848.53 -0.466823 1.88506 0
M  V30 8736 O 847.805 -1.34665 1.40341 0
M  V30 8737 C 848.088 1.67321 3.18866 0
M  V30 8738 C 847.941 3.21486 3.1459 0
M  V30 8739 C 849.26 1.39794 4.17308 0
M  V30 8740 H 846.379 0.365075 0.640226 0
M  V30 8741 H 849.021 1.47433 1.19848 0
M  V30 8742 H 847.171 1.27081 3.67128 0
M  V30 8743 H 848.843 3.70953 2.7421 0
M  V30 8744 H 847.086 3.5292 2.52249 0
M  V30 8745 H 847.757 3.63665 4.15273 0
M  V30 8746 H 850.233 1.74685 3.77657 0
M  V30 8747 H 849.109 1.89371 5.15199 0
M  V30 8748 H 849.37 0.323505 4.40915 0
M  V30 8749 N 848.429 -1.21819 0.999893 0
M  V30 8750 C 849.359 -2.26282 0.576096 0
M  V30 8751 C 850.34 -1.65317 -0.400537 0
M  V30 8752 O 851.525 -1.92028 -0.28964 0
M  V30 8753 C 848.655 -3.47147 -0.103145 0
M  V30 8754 C 847.609 -4.20594 0.792745 0
M  V30 8755 C 846.935 -5.34696 -0.0198026 0
M  V30 8756 C 848.235 -4.78533 2.09293 0
M  V30 8757 H 849.929 -2.61984 1.4493 0
M  V30 8758 H 847.475 -1.25935 0.698316 0
M  V30 8759 H 849.428 -4.1939 -0.411068 0
M  V30 8760 H 848.152 -3.1056 -1.01094 0
M  V30 8761 H 846.811 -3.50194 1.08442 0
M  V30 8762 H 846.459 -4.94352 -0.928729 0
M  V30 8763 H 846.159 -5.84764 0.576661 0
M  V30 8764 H 847.683 -6.09752 -0.321659 0
M  V30 8765 H 849.097 -5.42682 1.8485 0
M  V30 8766 H 847.494 -5.38968 2.63881 0
M  V30 8767 H 848.564 -3.98197 2.76708 0
M  V30 8768 N 849.908 -0.773975 -1.37286 0
M  V30 8769 C 851.133 -0.349561 -2.04433 0
M  V30 8770 C 851.558 1.02082 -1.5799 0
M  V30 8771 O 850.916 1.65458 -0.741172 0
M  V30 8772 C 850.964 -0.404292 -3.58326 0
M  V30 8773 O 850.068 0.594447 -4.08093 0
M  V30 8774 H 849.409 -0.150959 -0.646612 0
M  V30 8775 H 851.939 -1.05079 -1.75555 0
M  V30 8776 H 851.949 -0.262378 -4.07155 0
M  V30 8777 H 850.624 -1.40403 -3.91484 0
M  V30 8778 H 849.201 0.415468 -3.70578 0
M  V30 8779 N 851.386 1.48609 -0.524698 0
M  V30 8780 C 852.634 2.02097 0.0112991 0
M  V30 8781 C 852.955 1.40455 1.35268 0
M  V30 8782 O 852.225 0.56807 1.87483 0
M  V30 8783 H 850.805 0.746966 0.00716426 0
M  V30 8784 H 853.467 1.82378 -0.687329 0
M  V30 8785 H 852.563 3.11855 0.123531 0
M  V30 8786 N 852.864 0.259585 1.55447 0
M  V30 8787 C 854.113 -0.362163 1.98422 0
M  V30 8788 C 854.426 -1.58135 1.1512 0
M  V30 8789 O 855.632 -2.27506 1.48166 0
M  V30 8790 C 854.088 -0.695722 3.53111 0
M  V30 8791 C 853.696 0.502784 4.4517 0
M  V30 8792 C 855.44 -1.28096 4.04712 0
M  V30 8793 C 853.347 0.144674 5.91223 0
M  V30 8794 H 852.277 -0.139092 0.74106 0
M  V30 8795 H 854.928 0.361798 1.79898 0
M  V30 8796 H 853.31 -1.47816 3.67378 0
M  V30 8797 H 854.484 1.27994 4.42667 0
M  V30 8798 H 852.799 1.0038 4.0412 0
M  V30 8799 H 855.396 -1.56243 5.11363 0
M  V30 8800 H 855.739 -2.20969 3.52815 0
M  V30 8801 H 856.272 -0.561146 3.93822 0
M  V30 8802 H 853.011 1.04087 6.47183 0
M  V30 8803 H 852.531 -0.596023 5.96831 0
M  V30 8804 H 854.21 -0.268651 6.46442 0
M  V30 8805 N 854.342 -1.57594 -0.0133615 0
M  V30 8806 C 855.274 -2.04402 -1.03695 0
M  V30 8807 C 856.287 -0.959546 -1.31516 0
M  V30 8808 O 857.476 -1.23659 -1.28727 0
M  V30 8809 C 854.576 -2.41766 -2.37491 0
M  V30 8810 C 853.749 -3.72785 -2.28802 0
M  V30 8811 C 852.808 -3.97165 -3.45176 0
M  V30 8812 O 851.834 -4.68013 -3.23963 0
M  V30 8813 N 853.036 -3.44021 -4.67579 0
M  V30 8814 H 855.801 -2.92833 -0.637874 0
M  V30 8815 H 853.362 -1.60647 -0.20101 0
M  V30 8816 H 855.354 -2.55201 -3.14093 0
M  V30 8817 H 853.924 -1.58924 -2.69188 0
M  V30 8818 H 853.144 -3.69555 -1.37197 0
M  V30 8819 H 854.432 -4.58704 -2.20154 0
M  V30 8820 H 853.83 -2.86623 -4.87713 0
M  V30 8821 H 852.387 -3.62808 -5.41492 0
M  V30 8822 N 855.82 0.285905 -1.54985 0
M  V30 8823 C 857.066 1.01669 -1.76168 0
M  V30 8824 C 857.421 1.84401 -0.549019 0
M  V30 8825 O 856.714 1.86034 0.458463 0
M  V30 8826 C 856.908 1.94193 -3.0004 0
M  V30 8827 C 856.737 1.20565 -4.33237 0
M  V30 8828 C 855.507 0.92661 -4.96731 0
M  V30 8829 C 857.705 0.602514 -5.10759 0
M  V30 8830 N 855.687 0.162185 -6.13686 0
M  V30 8831 C 857.058 -0.0283843 -6.19994 0
M  V30 8832 C 859.113 0.509067 -4.95291 0
M  V30 8833 C 857.816 -0.743706 -7.15445 0
M  V30 8834 C 859.842 -0.192633 -5.91086 0
M  V30 8835 C 859.204 -0.812321 -6.997 0
M  V30 8836 H 855.303 0.354451 -0.697057 0
M  V30 8837 H 857.887 0.293693 -1.92472 0
M  V30 8838 H 856.058 2.6373 -2.85133 0
M  V30 8839 H 857.79 2.60536 -3.09682 0
M  V30 8840 H 854.545 1.22861 -4.57386 0
M  V30 8841 H 854.969 -0.206982 -6.76684 0
M  V30 8842 H 859.611 0.973856 -4.11432 0
M  V30 8843 H 857.329 -1.22022 -7.98834 0
M  V30 8844 H 860.915 -0.265082 -5.81196 0
M  V30 8845 H 859.795 -1.34665 -7.72551 0
M  V30 8846 N 857.298 1.47698 0.54982 0
M  V30 8847 C 858.545 1.54702 1.30665 0
M  V30 8848 C 858.873 0.212418 1.93337 0
M  V30 8849 O 858.128 -0.79543 1.78805 0
M  V30 8850 C 858.427 2.61903 2.4319 0
M  V30 8851 C 858.093 4.04953 1.98302 0
M  V30 8852 C 856.755 4.43893 1.85776 0
M  V30 8853 C 859.107 4.94682 1.64133 0
M  V30 8854 C 856.435 5.70387 1.37388 0
M  V30 8855 C 858.787 6.21646 1.17214 0
M  V30 8856 C 857.451 6.5946 1.0329 0
M  V30 8857 H 856.721 0.566096 0.478139 0
M  V30 8858 H 859.368 1.8133 0.615767 0
M  V30 8859 H 857.673 2.2906 3.17866 0
M  V30 8860 H 859.37 2.64543 3.0136 0
M  V30 8861 H 855.96 3.74191 2.08995 0
M  V30 8862 H 860.144 4.65291 1.72679 0
M  V30 8863 H 855.4 5.98427 1.25278 0
M  V30 8864 H 859.574 6.90581 0.898391 0
M  V30 8865 H 857.201 7.57367 0.655735 0
M  V30 8866 N 858.776 -0.797141 1.35954 0
M  V30 8867 C 860.024 -1.55161 1.29497 0
M  V30 8868 C 860.345 -1.94582 -0.127659 0
M  V30 8869 O 859.615 -1.64343 -1.06622 0
M  V30 8870 H 858.195 -0.575413 0.47635 0
M  V30 8871 H 860.857 -0.950282 1.70164 0
M  V30 8872 H 859.953 -2.46272 1.9172 0
M  V30 8873 N 860.254 -1.20106 -1.0204 0
M  V30 8874 C 861.67 -0.955099 -1.27867 0
M  V30 8875 C 861.87 0.367595 -1.98119 0
M  V30 8876 O 860.926 1.09705 -2.27423 0
M  V30 8877 C 862.239 -2.13507 -2.11744 0
M  V30 8878 C 863.787 -2.17563 -2.25023 0
M  V30 8879 C 864.262 -3.35035 -3.12275 0
M  V30 8880 N 865.753 -3.35024 -3.19864 0
M  V30 8881 C 866.488 -4.22566 -3.8759 0
M  V30 8882 N 865.984 -5.20278 -4.57474 0
M  V30 8883 N 867.777 -4.10418 -3.84075 0
M  V30 8884 H 859.928 -2.05193 -0.54861 0
M  V30 8885 H 862.191 -0.897689 -0.304728 0
M  V30 8886 H 861.897 -3.09275 -1.67456 0
M  V30 8887 H 861.771 -2.11281 -3.12474 0
M  V30 8888 H 864.158 -1.22359 -2.68537 0
M  V30 8889 H 864.239 -2.23838 -1.23815 0
M  V30 8890 H 863.883 -4.30522 -2.69468 0
M  V30 8891 H 863.813 -3.25996 -4.13563 0
M  V30 8892 H 866.304 -2.64299 -2.701 0
M  V30 8893 H 866.617 -5.83408 -5.06809 0
M  V30 8894 H 864.962 -5.24219 -4.56311 0
M  V30 8895 H 868.153 -3.33353 -3.28623 0
M  V30 8896 H 868.326 -4.78854 -4.36581 0
M  V30 8897 N 861.732 1.21287 -1.00634 0
M  V30 8898 C 862.957 1.94925 -0.708441 0
M  V30 8899 C 863.382 1.73659 0.722783 0
M  V30 8900 O 862.74 1.02429 1.49593 0
M  V30 8901 C 862.788 3.45377 -1.03667 0
M  V30 8902 O 861.892 4.12153 -0.142661 0
M  V30 8903 H 861.233 0.609338 -0.263824 0
M  V30 8904 H 863.763 1.54008 -1.34695 0
M  V30 8905 H 863.773 3.95954 -0.984086 0
M  V30 8906 H 862.448 3.6018 -2.0795 0
M  V30 8907 H 861.025 3.72048 -0.251888 0
M  V30 8908 N 863.21 0.781244 1.36873 0
M  V30 8909 C 864.459 0.34652 1.98701 0
M  V30 8910 C 864.772 -1.08555 1.62712 0
M  V30 8911 O 865.978 -1.62213 2.17713 0
M  V30 8912 C 864.434 0.568611 3.5538 0
M  V30 8913 C 864.042 2.01156 4.003 0
M  V30 8914 C 865.786 0.197983 4.24038 0
M  V30 8915 C 863.693 2.18074 5.49725 0
M  V30 8916 H 862.623 0.125821 0.743428 0
M  V30 8917 H 865.274 0.961721 1.56279 0
M  V30 8918 H 863.656 -0.116185 3.9583 0
M  V30 8919 H 864.83 2.73209 3.71071 0
M  V30 8920 H 863.145 2.33967 3.44454 0
M  V30 8921 H 865.742 0.302778 5.33842 0
M  V30 8922 H 866.085 -0.852927 4.07469 0
M  V30 8923 H 866.618 0.835696 3.88923 0
M  V30 8924 H 863.357 3.21519 5.71232 0
M  V30 8925 H 862.877 1.50517 5.80607 0
M  V30 8926 H 864.556 1.98393 6.15832 0
M  V30 8927 N 864.689 -1.48329 0.532571 0
M  V30 8928 C 865.639 -2.2664 -0.24868 0
M  V30 8929 C 866.623 -1.32861 -0.907563 0
M  V30 8930 O 867.815 -1.57382 -0.809942 0
M  V30 8931 C 864.944 -3.18004 -1.29339 0
M  V30 8932 C 864.03 -4.19256 -0.639166 0
M  V30 8933 N 864.421 -5.05043 0.276597 0
M  V30 8934 C 862.719 -4.36906 -0.896062 0
M  V30 8935 C 863.42 -5.78009 0.654261 0
M  V30 8936 N 862.396 -5.43598 0.0147447 0
M  V30 8937 H 866.198 -2.90344 0.455792 0
M  V30 8938 H 863.712 -1.58566 0.350778 0
M  V30 8939 H 865.709 -3.72767 -1.86682 0
M  V30 8940 H 864.369 -2.55855 -1.99921 0
M  V30 8941 H 865.38 -5.13813 0.649351 0
M  V30 8942 H 862.057 -3.85945 -1.59226 0
M  V30 8943 H 863.447 -6.57039 1.40532 0
M  V30 8944 N 866.167 -0.267825 -1.55308 0
M  V30 8945 C 867.415 0.350343 -1.9904 0
M  V30 8946 C 867.736 1.56924 -1.15758 0
M  V30 8947 O 867.006 1.94358 -0.245336 0
M  V30 8948 H 865.586 0.132435 -0.735167 0
M  V30 8949 H 868.248 -0.371471 -1.91327 0
M  V30 8950 H 867.344 0.645203 -3.05358 0
M  V30 8951 N 867.645 1.57599 0.00500368 0
M  V30 8952 C 868.891 1.90631 0.691919 0
M  V30 8953 C 869.224 0.868443 1.737 0
M  V30 8954 O 868.499 -0.113482 1.94169 0
M  V30 8955 C 868.782 3.34255 1.33961 0
M  V30 8956 C 868.635 4.48755 0.306413 0
M  V30 8957 C 869.954 3.77211 2.26715 0
M  V30 8958 H 867.073 0.693279 0.250066 0
M  V30 8959 H 869.715 1.89946 -0.0452634 0
M  V30 8960 H 867.865 3.3497 1.96793 0
M  V30 8961 H 869.537 4.60176 -0.321841 0
M  V30 8962 H 867.78 4.32203 -0.371852 0
M  V30 8963 H 868.451 5.46193 0.798554 0
M  V30 8964 H 870.927 3.78017 1.73904 0
M  V30 8965 H 869.803 4.78466 2.69002 0
M  V30 8966 H 870.064 3.10801 3.14413 0
M  V30 8967 N 869.123 -0.277682 1.55134 0
M  V30 8968 C 870.07 -1.34313 1.87693 0
M  V30 8969 C 871.04 -1.49298 0.727973 0
M  V30 8970 O 872.225 -1.6378 0.978807 0
M  V30 8971 C 869.365 -2.69922 2.15026 0
M  V30 8972 C 868.478 -2.63197 3.42565 0
M  V30 8973 C 867.613 -3.90955 3.59622 0
M  V30 8974 C 866.652 -3.78722 4.8087 0
M  V30 8975 N 865.789 -4.98303 4.94609 0
M  V30 8976 H 870.629 -1.05847 2.78569 0
M  V30 8977 H 868.166 -0.511469 1.37922 0
M  V30 8978 H 870.124 -3.48817 2.28872 0
M  V30 8979 H 868.754 -2.966 1.2739 0
M  V30 8980 H 867.806 -1.76038 3.37216 0
M  V30 8981 H 869.118 -2.50056 4.31594 0
M  V30 8982 H 868.272 -4.78291 3.7326 0
M  V30 8983 H 867.011 -4.06957 2.6877 0
M  V30 8984 H 866.016 -2.89769 4.67241 0
M  V30 8985 H 867.241 -3.64242 5.73153 0
M  V30 8986 H 865.187 -5.14725 4.06687 0
M  V30 8987 H 865.104 -4.87675 5.77676 0
M  V30 8988 H 866.372 -5.87225 5.12628 0
M  V30 8989 N 870.601 -1.47988 -0.541979 0
M  V30 8990 C 871.878 -1.45878 -1.30303 0
M  V30 8991 C 872.258 -0.163931 -2.10463 0
M  V30 8992 O 871.606 0.854479 -2.11922 0
M  V30 8993 C 871.816 -2.71359 -2.19466 0
M  V30 8994 C 873.164 -3.19199 -2.79995 0
M  V30 8995 O 874.188 -2.72193 -2.2976 0
M  V30 8996 O 873.047 -4.00961 -3.71339 0
M  V30 8997 H 870.141 -0.582043 -0.587498 0
M  V30 8998 H 872.687 -1.60207 -0.559623 0
M  V30 8999 H 871.459 -3.57122 -1.59936 0
M  V30 9000 H 871.082 -2.59692 -3.01075 0
M  V30 9001 N 872.079 0.78992 -1.36375 0
M  V30 9002 C 873.009 1.91683 -1.33341 0
M  V30 9003 C 873.99 1.68861 -0.204965 0
M  V30 9004 O 875.175 1.89982 -0.402531 0
M  V30 9005 C 872.305 3.28696 -1.12143 0
M  V30 9006 C 871.259 3.66041 -2.21806 0
M  V30 9007 C 870.585 5.01399 -1.85751 0
M  V30 9008 C 871.885 3.74677 -3.63888 0
M  V30 9009 H 873.579 1.94478 -2.27637 0
M  V30 9010 H 871.125 0.934271 -1.09578 0
M  V30 9011 H 873.078 4.07151 -1.08656 0
M  V30 9012 H 871.802 3.26287 -0.142974 0
M  V30 9013 H 870.461 2.89883 -2.24418 0
M  V30 9014 H 870.109 4.9551 -0.864817 0
M  V30 9015 H 869.809 5.27355 -2.59173 0
M  V30 9016 H 871.333 5.82274 -1.83819 0
M  V30 9017 H 872.747 4.43324 -3.63506 0
M  V30 9018 H 871.144 4.12118 -4.3621 0
M  V30 9019 H 872.214 2.75795 -3.9883 0
M  V30 9020 N 873.557 1.20646 1.01402 0
M  V30 9021 C 874.467 0.973385 2.13453 0
M  V30 9022 C 875.483 -0.0715865 1.73853 0
M  V30 9023 O 876.659 0.116438 2.01063 0
M  V30 9024 C 873.724 0.531285 3.42605 0
M  V30 9025 C 872.785 1.64741 3.96433 0
M  V30 9026 C 872.018 1.22631 5.1942 0
M  V30 9027 O 872.241 0.0960891 5.70319 0
M  V30 9028 O 871.175 2.03474 5.66465 0
M  V30 9029 H 875.001 1.91164 2.35987 0
M  V30 9030 H 872.586 0.990553 1.11841 0
M  V30 9031 H 874.468 0.294095 4.20373 0
M  V30 9032 H 873.143 -0.378358 3.21481 0
M  V30 9033 H 872.05 1.93891 3.19933 0
M  V30 9034 H 873.383 2.53415 4.2195 0
M  V30 9035 N 875.035 -1.20752 1.01276 0
M  V30 9036 C 876.283 -1.89645 0.698505 0
M  V30 9037 C 876.604 -1.78986 -0.773883 0
M  V30 9038 O 875.874 -1.18977 -1.55632 0
M  V30 9039 H 874.454 -0.701992 0.255375 0
M  V30 9040 H 877.116 -1.46668 1.28353 0
M  V30 9041 H 876.212 -2.96364 0.978512 0
M  V30 9042 N 876.513 -0.788492 -1.36457 0
M  V30 9043 C 877.79 -0.284484 -1.9352 0
M  V30 9044 C 878.17 1.2232 -1.7205 0
M  V30 9045 O 877.518 2.01424 -1.07892 0
M  V30 9046 C 877.728 -0.676106 -3.42388 0
M  V30 9047 C 879.076 -0.655327 -4.19512 0
M  V30 9048 O 880.1 -0.616523 -3.50824 0
M  V30 9049 O 878.959 -0.697391 -5.42032 0
M  V30 9050 H 876.053 -0.0701769 -0.824017 0
M  V30 9051 H 878.599 -0.870974 -1.45644 0
M  V30 9052 H 877.371 -1.71596 -3.51668 0
M  V30 9053 H 876.994 -0.0634517 -3.97549 0
M  V30 9054 N 877.991 1.48044 -0.54043 0
M  V30 9055 C 879.239 2.02097 -0.0101367 0
M  V30 9056 C 879.56 1.41881 1.33771 0
M  V30 9057 O 878.83 0.587923 1.8687 0
M  V30 9058 H 877.41 0.747 -0.000758716 0
M  V30 9059 H 880.072 1.81639 -0.706634 0
M  V30 9060 H 879.168 3.11969 0.0904474 0
M  V30 9061 N 879.47 0.276058 1.55163 0
M  V30 9062 C 880.4 -0.604633 2.25536 0
M  V30 9063 C 881.381 -1.15813 1.24585 0
M  V30 9064 O 882.566 -1.1921 1.53306 0
M  V30 9065 C 879.696 -1.78836 2.97716 0
M  V30 9066 C 878.65 -1.36635 4.05604 0
M  V30 9067 C 877.976 -2.63325 4.65364 0
M  V30 9068 C 879.276 -0.515858 5.19746 0
M  V30 9069 H 880.97 -0.0177483 2.99395 0
M  V30 9070 H 878.516 -0.00709627 1.43998 0
M  V30 9071 H 880.469 -2.41036 3.45658 0
M  V30 9072 H 879.193 -2.40109 2.21394 0
M  V30 9073 H 877.852 -0.767541 3.58475 0
M  V30 9074 H 877.5 -3.22858 3.85709 0
M  V30 9075 H 877.2 -2.358 5.38212 0
M  V30 9076 H 878.724 -3.26372 5.16056 0
M  V30 9077 H 880.138 -1.04289 5.63735 0
M  V30 9078 H 878.535 -0.335449 5.99162 0
M  V30 9079 H 879.605 0.465137 4.82664 0
M  V30 9080 N 880.948 -1.576 0.00335426 0
M  V30 9081 C 881.911 -2.07576 -0.971838 0
M  V30 9082 C 882.911 -0.985796 -1.27038 0
M  V30 9083 O 884.101 -1.24833 -1.21501 0
M  V30 9084 C 881.233 -2.52003 -2.29581 0
M  V30 9085 H 882.426 -2.95008 -0.539481 0
M  V30 9086 H 879.979 -1.54381 -0.244186 0
M  V30 9087 H 880.714 -1.67825 -2.77498 0
M  V30 9088 H 880.499 -3.31609 -2.09231 0
M  V30 9089 H 881.989 -2.90983 -2.99531 0
M  V30 9090 N 882.426 0.269451 -1.5528 0
M  V30 9091 C 883.703 1.02207 -1.66773 0
M  V30 9092 C 884.083 2.04168 -0.536536 0
M  V30 9093 O 883.431 2.23761 0.462956 0
M  V30 9094 C 883.641 1.67569 -3.0614 0
M  V30 9095 C 884.989 2.18599 -3.64005 0
M  V30 9096 O 886.013 1.7755 -3.08795 0
M  V30 9097 O 884.872 2.93903 -4.60742 0
M  V30 9098 H 881.966 0.474314 -0.677462 0
M  V30 9099 H 884.512 0.265026 -1.67618 0
M  V30 9100 H 883.284 0.937029 -3.79915 0
M  V30 9101 H 882.907 2.49951 -3.09209 0
M  V30 9102 N 883.904 1.48273 0.534124 0
M  V30 9103 C 885.15 1.56311 1.29208 0
M  V30 9104 C 885.483 0.234481 1.92779 0
M  V30 9105 O 884.758 -0.759143 1.79073 0
M  V30 9106 C 885.041 2.69831 2.3846 0
M  V30 9107 C 884.894 4.12385 1.79608 0
M  V30 9108 C 886.213 2.79133 3.40254 0
M  V30 9109 H 883.332 0.56899 0.468422 0
M  V30 9110 H 885.974 1.80429 0.595438 0
M  V30 9111 H 884.124 2.49397 2.97881 0
M  V30 9112 H 885.796 4.44246 1.24269 0
M  V30 9113 H 884.039 4.19579 1.10162 0
M  V30 9114 H 884.71 4.87629 2.58693 0
M  V30 9115 H 887.186 2.97632 2.90783 0
M  V30 9116 H 886.062 3.60298 4.14097 0
M  V30 9117 H 886.323 1.87122 4.00547 0
M  V30 9118 N 885.382 -0.782676 1.36792 0
M  V30 9119 C 886.345 -1.8772 1.31507 0
M  V30 9120 C 887.345 -1.59269 0.221349 0
M  V30 9121 O 888.535 -1.67555 0.476544 0
M  V30 9122 C 885.667 -3.24641 1.04025 0
M  V30 9123 H 886.86 -1.9382 2.28853 0
M  V30 9124 H 884.413 -0.981226 1.21662 0
M  V30 9125 H 885.148 -3.24221 0.0716439 0
M  V30 9126 H 884.933 -3.46681 1.8318 0
M  V30 9127 H 886.423 -4.04711 1.02949 0
M  V30 9128 N 886.86 -1.21182 -1.00761 0
M  V30 9129 C 888.106 -1.02898 -1.74756 0
M  V30 9130 C 888.439 0.436774 -1.89225 0
M  V30 9131 O 887.714 1.32415 -1.42466 0
M  V30 9132 C 887.997 -1.72372 -3.16164 0
M  V30 9133 C 887.85 -3.2645 -3.09435 0
M  V30 9134 C 889.169 -1.46415 -4.15031 0
M  V30 9135 H 886.288 -0.375214 -0.634337 0
M  V30 9136 H 888.93 -1.49321 -1.17487 0
M  V30 9137 H 887.08 -1.32906 -3.65059 0
M  V30 9138 H 888.752 -3.75269 -2.68274 0
M  V30 9139 H 886.995 -3.56889 -2.46603 0
M  V30 9140 H 887.666 -3.70226 -4.09435 0
M  V30 9141 H 890.142 -1.80671 -3.7483 0
M  V30 9142 H 889.018 -1.97544 -5.12121 0
M  V30 9143 H 889.279 -0.39361 -4.40344 0
M  V30 9144 N 888.338 1.20213 -1.01915 0
M  V30 9145 C 889.586 1.89272 -0.708552 0
M  V30 9146 C 889.907 1.79394 0.76438 0
M  V30 9147 O 889.177 1.198 1.54999 0
M  V30 9148 H 887.757 0.700628 -0.259094 0
M  V30 9149 H 890.419 1.45985 -1.29129 0
M  V30 9150 H 889.515 2.95841 -0.994215 0
M  V30 9151 N 889.816 0.795718 1.36037 0
M  V30 9152 C 890.779 0.204318 2.28287 0
M  V30 9153 C 891.779 -0.602017 1.49105 0
M  V30 9154 O 892.969 -0.422089 1.69009 0
M  V30 9155 C 890.101 -0.716431 3.33287 0
M  V30 9156 H 891.294 1.01781 2.821 0
M  V30 9157 H 888.847 0.565588 1.45708 0
M  V30 9158 H 889.582 -1.55403 2.84641 0
M  V30 9159 H 889.367 -0.140096 3.9185 0
M  V30 9160 H 890.857 -1.12488 4.02164 0
M  V30 9161 N 891.294 -1.47756 0.548274 0
M  V30 9162 C 892.204 -2.33678 -0.207773 0
M  V30 9163 C 893.22 -1.47636 -0.920843 0
M  V30 9164 O 894.396 -1.80583 -0.89173 0
M  V30 9165 C 891.461 -3.24147 -1.23003 0
M  V30 9166 C 890.522 -4.26073 -0.52535 0
M  V30 9167 C 889.755 -5.12219 -1.4989 0
M  V30 9168 O 889.978 -5.0066 -2.73305 0
M  V30 9169 O 888.912 -5.93051 -1.02828 0
M  V30 9170 H 892.738 -2.99609 0.496794 0
M  V30 9171 H 890.323 -1.4617 0.308982 0
M  V30 9172 H 892.205 -3.80055 -1.82034 0
M  V30 9173 H 890.88 -2.60855 -1.91668 0
M  V30 9174 H 889.787 -3.7395 0.105927 0
M  V30 9175 H 891.12 -4.92054 0.119686 0
M  V30 9176 N 892.772 -0.284283 -1.55015 0
M  V30 9177 C 893.997 0.335799 -2.04664 0
M  V30 9178 C 894.422 1.47999 -1.16094 0
M  V30 9179 O 893.78 1.8058 -0.161454 0
M  V30 9180 C 893.828 0.785615 -3.51938 0
M  V30 9181 O 892.932 1.89202 -3.66437 0
M  V30 9182 H 892.273 0.0680233 -0.660506 0
M  V30 9183 H 894.803 -0.421255 -2.00216 0
M  V30 9184 H 894.813 1.07892 -3.93476 0
M  V30 9185 H 893.488 -0.0514675 -4.15868 0
M  V30 9186 H 892.065 1.60055 -3.36804 0
M  V30 9187 N 894.251 1.57596 -0.0117121 0
M  V30 9188 C 895.183 2.06025 1.0043 0
M  V30 9189 C 896.196 0.980348 1.29973 0
M  V30 9190 O 897.385 1.25691 1.26744 0
M  V30 9191 C 894.485 2.45514 2.33615 0
M  V30 9192 C 893.658 3.76378 2.22842 0
M  V30 9193 C 892.717 4.02606 3.38814 0
M  V30 9194 O 891.743 4.73108 3.16477 0
M  V30 9195 N 892.945 3.51416 4.62047 0
M  V30 9196 H 895.71 2.93811 0.591206 0
M  V30 9197 H 893.271 1.60947 0.175427 0
M  V30 9198 H 895.263 2.60166 3.09993 0
M  V30 9199 H 893.833 1.63186 2.66625 0
M  V30 9200 H 893.053 3.71691 1.313 0
M  V30 9201 H 894.341 4.62149 2.12829 0
M  V30 9202 H 893.739 2.94346 4.83091 0
M  V30 9203 H 892.296 3.71377 5.35651 0
M  V30 9204 N 895.729 -0.261212 1.5542 0
M  V30 9205 C 896.662 -1.34906 1.84054 0
M  V30 9206 C 897.64 -1.47024 0.694466 0
M  V30 9207 O 898.824 -1.63463 0.938719 0
M  V30 9208 C 895.951 -2.7242 2.01259 0
M  V30 9209 C 894.997 -2.77526 3.23855 0
M  V30 9210 S 895.83 -2.35578 4.80898 0
M  V30 9211 C 896.986 -3.75045 5.01091 0
M  V30 9212 H 897.219 -1.10416 2.76035 0
M  V30 9213 H 894.752 -0.461461 1.47343 0
M  V30 9214 H 896.71 -3.51606 2.11857 0
M  V30 9215 H 895.371 -2.94155 1.10145 0
M  V30 9216 H 894.564 -3.78483 3.32816 0
M  V30 9217 H 894.166 -2.0637 3.11909 0
M  V30 9218 H 896.458 -4.7042 4.87556 0
M  V30 9219 H 897.401 -3.71027 6.03112 0
M  V30 9220 H 897.809 -3.66894 4.29009 0
M  V30 9221 N 897.207 -1.48554 -0.526253 0
M  V30 9222 C 898.456 -1.56014 -1.27837 0
M  V30 9223 C 898.769 -0.240643 -1.94114 0
M  V30 9224 O 899.975 -0.193525 -2.70809 0
M  V30 9225 C 898.431 -2.75161 -2.31979 0
M  V30 9226 C 898.039 -4.13768 -1.71755 0
M  V30 9227 C 899.783 -2.91936 -3.08178 0
M  V30 9228 C 897.69 -5.24171 -2.7386 0
M  V30 9229 H 896.62 -0.58082 -0.480795 0
M  V30 9230 H 899.271 -1.74895 -0.555335 0
M  V30 9231 H 897.653 -2.49722 -3.07335 0
M  V30 9232 H 898.827 -4.49241 -1.02563 0
M  V30 9233 H 897.142 -4.02141 -1.08036 0
M  V30 9234 H 899.739 -3.71586 -3.84484 0
M  V30 9235 H 900.082 -2.01533 -3.64267 0
M  V30 9236 H 900.615 -3.17294 -2.39937 0
M  V30 9237 H 897.354 -6.16552 -2.22586 0
M  V30 9238 H 896.874 -4.93181 -3.41368 0
M  V30 9239 H 898.553 -5.52442 -3.36774 0
M  V30 9240 N 898.685 0.775411 -1.37205 0
M  V30 9241 C 899.931 1.53611 -1.32407 0
M  V30 9242 C 900.264 1.9398 0.0924103 0
M  V30 9243 O 899.539 1.63791 1.04893 0
M  V30 9244 C 899.822 2.80367 -2.25979 0
M  V30 9245 C 899.675 2.46275 -3.76389 0
M  V30 9246 C 900.994 3.82277 -2.18064 0
M  V30 9247 H 898.113 0.557278 -0.482297 0
M  V30 9248 H 900.755 0.889826 -1.67875 0
M  V30 9249 H 898.905 3.35515 -1.95862 0
M  V30 9250 H 900.577 1.9707 -4.17087 0
M  V30 9251 H 898.82 1.79023 -3.95137 0
M  V30 9252 H 899.491 3.36868 -4.37291 0
M  V30 9253 H 901.967 3.36613 -2.44604 0
M  V30 9254 H 900.843 4.68696 -2.85684 0
M  V30 9255 H 901.104 4.26272 -1.17239 0
M  V30 9256 N 900.163 1.21714 1.00117 0
M  V30 9257 C 901.093 1.00397 2.10815 0
M  V30 9258 C 902.074 -0.0723502 1.69946 0
M  V30 9259 O 903.259 0.0882398 1.93999 0
M  V30 9260 C 900.389 0.572001 3.42557 0
M  V30 9261 C 899.343 1.59331 3.97237 0
M  V30 9262 C 898.669 1.01746 5.2493 0
M  V30 9263 C 899.969 2.98117 4.28863 0
M  V30 9264 H 901.663 1.92983 2.28906 0
M  V30 9265 H 899.209 0.929273 1.10002 0
M  V30 9266 H 901.162 0.410018 4.19401 0
M  V30 9267 H 899.886 -0.38951 3.24269 0
M  V30 9268 H 898.545 1.74293 3.22518 0
M  V30 9269 H 898.193 0.0475491 5.02978 0
M  V30 9270 H 897.893 1.69969 5.62481 0
M  V30 9271 H 899.417 0.866881 6.04415 0
M  V30 9272 H 900.831 2.86578 4.96534 0
M  V30 9273 H 899.228 3.63389 4.77565 0
M  V30 9274 H 900.298 3.48674 3.36979 0
M  V30 9275 N 901.641 -1.19671 1.02551 0
M  V30 9276 C 902.866 -1.93774 0.739363 0
M  V30 9277 C 903.291 -1.74787 -0.695064 0
M  V30 9278 O 902.649 -1.04796 -1.47944 0
M  V30 9279 C 902.697 -3.43684 1.09149 0
M  V30 9280 O 901.801 -4.11874 0.208213 0
M  V30 9281 H 901.142 -0.605064 0.273484 0
M  V30 9282 H 903.672 -1.51846 1.37128 0
M  V30 9283 H 903.682 -3.94339 1.04695 0
M  V30 9284 H 902.357 -3.56826 2.13654 0
M  V30 9285 H 900.934 -3.716 0.311045 0
M  V30 9286 N 903.119 -0.802921 -1.35613 0
M  V30 9287 C 904.344 -0.392846 -2.03645 0
M  V30 9288 C 904.769 0.987075 -1.6012 0
M  V30 9289 O 904.127 1.63849 -0.776101 0
M  V30 9290 C 904.175 -0.480208 -3.57388 0
M  V30 9291 O 903.279 0.507751 -4.09262 0
M  V30 9292 H 902.62 -0.16464 -0.643265 0
M  V30 9293 H 905.15 -1.08779 -1.73287 0
M  V30 9294 H 905.16 -0.348683 -4.06507 0
M  V30 9295 H 903.835 -1.48675 -3.88418 0
M  V30 9296 H 902.412 0.336769 -3.71376 0
M  V30 9297 N 904.597 1.47463 -0.556102 0
M  V30 9298 C 906.013 1.58134 -0.21579 0
M  V30 9299 C 906.213 1.55486 1.28166 0
M  V30 9300 O 905.269 1.45768 2.06174 0
M  V30 9301 C 906.582 2.88686 -0.841464 0
M  V30 9302 C 908.13 3.02268 -0.812591 0
M  V30 9303 C 908.605 4.35518 -1.41731 0
M  V30 9304 N 910.096 4.42151 -1.38045 0
M  V30 9305 C 910.831 5.43817 -1.81799 0
M  V30 9306 N 910.327 6.52299 -2.33404 0
M  V30 9307 N 912.12 5.34855 -1.72877 0
M  V30 9308 H 904.271 1.47428 -1.52901 0
M  V30 9309 H 906.534 0.701586 -0.637559 0
M  V30 9310 H 906.24 2.96358 -1.8938 0
M  V30 9311 H 906.114 3.7572 -0.333846 0
M  V30 9312 H 908.501 2.94194 0.231056 0
M  V30 9313 H 908.582 2.16779 -1.35796 0
M  V30 9314 H 908.226 4.44348 -2.46002 0
M  V30 9315 H 908.156 5.19737 -0.847402 0
M  V30 9316 H 910.647 3.64348 -1.00296 0
M  V30 9317 H 910.96 7.26047 -2.64717 0
M  V30 9318 H 909.305 6.53192 -2.37414 0
M  V30 9319 H 912.496 4.49004 -1.32338 0
M  V30 9320 H 912.669 6.13949 -2.07294 0
M  V30 9321 N 906.075 0.2925 1.54862 0
M  V30 9322 C 907.486 -0.201841 1.85606 0
M  V30 9323 C 907.837 -1.54093 1.21449 0
M  V30 9324 O 906.962 -2.10327 0.509079 0
M  V30 9325 C 907.557 -0.373011 3.3674 0
M  V30 9326 C 906.116 -0.811574 3.67547 0
M  V30 9327 C 905.263 0.0850583 2.7717 0
M  V30 9328 H 908.214 0.513774 1.50153 0
M  V30 9329 H 908.235 -1.20892 3.60785 0
M  V30 9330 H 907.747 0.601751 3.83407 0
M  V30 9331 H 905.848 -1.79719 3.26392 0
M  V30 9332 H 905.961 -0.636853 4.74848 0
M  V30 9333 H 904.325 -0.434224 2.50971 0
M  V30 9334 H 905.108 1.05602 3.26654 0
M  V30 9335 N 907.553 -1.57587 0.0200696 0
M  V30 9336 C 908.799 -1.91708 -0.661503 0
M  V30 9337 C 909.132 -0.895968 -1.72296 0
M  V30 9338 O 908.407 0.082577 -1.94325 0
M  V30 9339 C 908.69 -3.36344 -1.28627 0
M  V30 9340 C 908.543 -4.49186 -0.234982 0
M  V30 9341 C 909.862 -3.80771 -2.20685 0
M  V30 9342 H 906.981 -0.69717 -0.239005 0
M  V30 9343 H 909.623 -1.8985 0.0754764 0
M  V30 9344 H 907.773 -3.38058 -1.91439 0
M  V30 9345 H 909.445 -4.59606 0.395011 0
M  V30 9346 H 907.688 -4.31557 0.440565 0
M  V30 9347 H 908.359 -5.47395 -0.711558 0
M  V30 9348 H 910.835 -3.80735 -1.67868 0
M  V30 9349 H 909.711 -4.82685 -2.61356 0
M  V30 9350 H 909.972 -3.15764 -3.09428 0
M  V30 9351 N 909.032 0.252966 -1.55557 0
M  V30 9352 C 910.278 0.983306 -1.77367 0
M  V30 9353 C 910.611 1.85203 -0.584258 0
M  V30 9354 O 909.886 1.89963 0.417644 0
M  V30 9355 C 910.169 1.84896 -3.09007 0
M  V30 9356 C 910.022 1.00883 -4.38341 0
M  V30 9357 C 911.341 2.83254 -3.36831 0
M  V30 9358 H 908.46 0.356056 -0.645286 0
M  V30 9359 H 911.102 0.254232 -1.88291 0
M  V30 9360 H 909.252 2.47058 -2.99825 0
M  V30 9361 H 910.924 0.40638 -4.59507 0
M  V30 9362 H 909.167 0.31297 -4.3267 0
M  V30 9363 H 909.838 1.64818 -5.2682 0
M  V30 9364 H 912.314 2.31228 -3.45937 0
M  V30 9365 H 911.19 3.40949 -4.30169 0
M  V30 9366 H 911.451 3.59407 -2.57447 0
M  V30 9367 N 910.51 1.48831 0.518367 0
M  V30 9368 C 911.787 1.47933 1.27966 0
M  V30 9369 C 912.167 0.197393 2.10175 0
M  V30 9370 O 911.515 -0.820656 2.13255 0
M  V30 9371 C 911.725 2.74816 2.15121 0
M  V30 9372 C 913.073 3.23613 2.74881 0
M  V30 9373 O 914.097 2.75814 2.254 0
M  V30 9374 O 912.956 4.06818 3.64913 0
M  V30 9375 H 910.05 0.591316 0.578164 0
M  V30 9376 H 912.596 1.61077 0.534065 0
M  V30 9377 H 911.368 3.59621 1.54234 0
M  V30 9378 H 910.991 2.64449 2.96905 0
M  V30 9379 N 911.988 -0.768124 1.37614 0
M  V30 9380 C 912.921 -1.88894 1.2804 0
M  V30 9381 C 913.899 -1.61809 0.160226 0
M  V30 9382 O 915.083 -1.85498 0.33506 0
M  V30 9383 C 912.21 -3.24197 0.980523 0
M  V30 9384 C 911.256 -3.70188 2.11808 0
M  V30 9385 S 912.089 -3.83433 3.73817 0
M  V30 9386 C 913.245 -5.21578 3.45987 0
M  V30 9387 H 913.478 -1.96726 2.22904 0
M  V30 9388 H 911.011 -0.929602 1.23279 0
M  V30 9389 H 912.969 -4.02342 0.814331 0
M  V30 9390 H 911.63 -3.14061 0.0493122 0
M  V30 9391 H 910.823 -4.6829 1.86335 0
M  V30 9392 H 910.425 -2.99155 2.2446 0
M  V30 9393 H 912.717 -6.06865 3.012 0
M  V30 9394 H 913.66 -5.52065 4.43429 0
M  V30 9395 H 914.068 -4.89687 2.80832 0
M  V30 9396 N 913.466 -1.22244 -0.994698 0
M  V30 9397 C 914.712 -1.04746 -1.73655 0
M  V30 9398 C 915.045 0.41668 -1.89677 0
M  V30 9399 O 914.32 1.30897 -1.43862 0
M  V30 9400 C 914.603 -1.75716 -3.14318 0
M  V30 9401 C 914.456 -3.29714 -3.05955 0
M  V30 9402 C 915.775 -1.50809 -4.13455 0
M  V30 9403 H 912.894 -0.381921 -0.630322 0
M  V30 9404 H 915.536 -1.50559 -1.15897 0
M  V30 9405 H 913.686 -1.3677 -3.63629 0
M  V30 9406 H 915.358 -3.78093 -2.64279 0
M  V30 9407 H 913.601 -3.59484 -2.42804 0
M  V30 9408 H 914.272 -3.74547 -4.05485 0
M  V30 9409 H 916.748 -1.84636 -3.72892 0
M  V30 9410 H 915.624 -2.02964 -5.09997 0
M  V30 9411 H 915.885 -0.440292 -4.39902 0
M  V30 9412 N 914.944 1.19125 -1.03184 0
M  V30 9413 C 916.172 1.92838 -0.74975 0
M  V30 9414 C 916.587 1.75667 0.691851 0
M  V30 9415 O 915.944 1.0805 1.47076 0
M  V30 9416 C 915.995 3.44509 -1.09525 0
M  V30 9417 O 915.716 3.6113 -2.48025 0
M  V30 9418 C 917.217 4.35338 -0.836397 0
M  V30 9419 H 914.437 0.61246 -0.274105 0
M  V30 9420 H 916.981 1.5118 -1.37712 0
M  V30 9421 H 915.136 3.83988 -0.513006 0
M  V30 9422 H 915.55 4.54959 -2.60984 0
M  V30 9423 H 917.024 5.4035 -1.12808 0
M  V30 9424 H 917.501 4.38602 0.229102 0
M  V30 9425 H 918.107 4.01544 -1.40152 0
M  V30 9426 N 916.422 0.810101 1.35185 0
M  V30 9427 C 917.352 0.237453 2.32289 0
M  V30 9428 C 918.333 -0.639032 1.5764 0
M  V30 9429 O 919.518 -0.568575 1.8569 0
M  V30 9430 C 916.648 -0.611964 3.41866 0
M  V30 9431 C 915.602 0.166318 4.27677 0
M  V30 9432 C 914.928 -0.805024 5.28605 0
M  V30 9433 C 916.228 1.36729 5.04086 0
M  V30 9434 H 917.922 1.04874 2.80432 0
M  V30 9435 H 915.468 0.505751 1.34826 0
M  V30 9436 H 917.421 -1.02267 4.08802 0
M  V30 9437 H 916.145 -1.45617 2.92341 0
M  V30 9438 H 914.804 0.558238 3.62325 0
M  V30 9439 H 914.452 -1.64483 4.75347 0
M  V30 9440 H 914.152 -0.288577 5.86891 0
M  V30 9441 H 915.676 -1.21386 5.98413 0
M  V30 9442 H 917.09 1.03128 5.63948 0
M  V30 9443 H 915.487 1.81848 5.71884 0
M  V30 9444 H 916.557 2.15214 4.34524 0
M  V30 9445 N 917.9 -1.47166 0.563914 0
M  V30 9446 C 918.833 -2.27058 -0.227989 0
M  V30 9447 C 919.811 -1.34468 -0.914179 0
M  V30 9448 O 920.995 -1.63857 -0.931829 0
M  V30 9449 C 918.122 -3.11689 -1.32543 0
M  V30 9450 C 917.168 -4.19906 -0.747084 0
M  V30 9451 S 918.001 -5.33916 0.41153 0
M  V30 9452 C 919.157 -6.22112 -0.687566 0
M  V30 9453 H 919.39 -2.93876 0.449939 0
M  V30 9454 H 916.923 -1.50372 0.350382 0
M  V30 9455 H 918.881 -3.61017 -1.95389 0
M  V30 9456 H 917.542 -2.44221 -1.97522 0
M  V30 9457 H 916.735 -4.78876 -1.57141 0
M  V30 9458 H 916.337 -3.73493 -0.194671 0
M  V30 9459 H 918.629 -6.58867 -1.578 0
M  V30 9460 H 919.572 -7.07971 -0.135058 0
M  V30 9461 H 919.98 -5.55871 -0.983255 0
M  V30 9462 N 919.378 -0.300708 -1.54705 0
M  V30 9463 C 920.603 0.314073 -2.05008 0
M  V30 9464 C 921.028 1.46759 -1.17657 0
M  V30 9465 O 920.386 1.80398 -0.180598 0
M  V30 9466 C 920.434 0.748243 -3.52752 0
M  V30 9467 O 919.538 1.85305 -3.68424 0
M  V30 9468 H 918.879 0.0610139 -0.661191 0
M  V30 9469 H 921.409 -0.442467 -1.99758 0
M  V30 9470 H 921.419 1.03713 -3.94598 0
M  V30 9471 H 920.094 -0.095573 -4.1579 0
M  V30 9472 H 918.671 1.56473 -3.38483 0
M  V30 9473 N 920.856 1.57574 -0.0284266 0
M  V30 9474 C 922.103 1.91772 0.650364 0
M  V30 9475 C 922.431 0.904769 1.72175 0
M  V30 9476 O 921.686 -0.0864038 1.95509 0
M  V30 9477 C 921.985 3.32699 1.3056 0
M  V30 9478 C 921.651 4.49423 0.364658 0
M  V30 9479 C 920.313 4.81084 0.105672 0
M  V30 9480 C 922.665 5.20439 -0.28151 0
M  V30 9481 C 919.993 5.81119 -0.8073 0
M  V30 9482 C 922.345 6.21449 -1.18253 0
M  V30 9483 C 921.009 6.51551 -1.45042 0
M  V30 9484 H 920.279 0.701744 0.237985 0
M  V30 9485 H 922.926 1.91288 -0.0900448 0
M  V30 9486 H 921.231 3.29441 2.12075 0
M  V30 9487 H 922.928 3.5643 1.83736 0
M  V30 9488 H 919.518 4.24703 0.576692 0
M  V30 9489 H 923.702 4.9621 -0.0944806 0
M  V30 9490 H 918.958 6.02788 -1.02256 0
M  V30 9491 H 923.132 6.75597 -1.68942 0
M  V30 9492 H 920.759 7.28882 -2.15951 0
M  V30 9493 N 922.334 -0.244713 1.55689 0
M  V30 9494 C 923.559 -0.994157 1.8202 0
M  V30 9495 C 923.984 -1.78079 0.60577 0
M  V30 9496 O 923.342 -1.75748 -0.445221 0
M  V30 9497 C 923.39 -1.90599 3.06111 0
M  V30 9498 O 922.494 -2.99804 2.8318 0
M  V30 9499 H 921.835 -0.282767 0.600782 0
M  V30 9500 H 924.365 -0.26504 2.02876 0
M  V30 9501 H 924.375 -2.32023 3.35603 0
M  V30 9502 H 923.05 -1.32763 3.9414 0
M  V30 9503 H 921.627 -2.62493 2.64862 0
M  V30 9504 N 923.813 -1.49104 -0.510467 0
M  V30 9505 C 925.224 -1.51423 -1.09215 0
M  V30 9506 C 925.575 -0.295035 -1.93969 0
M  V30 9507 O 924.7 0.596064 -2.08029 0
M  V30 9508 C 925.295 -2.74387 -1.98739 0
M  V30 9509 C 923.854 -2.79515 -2.52088 0
M  V30 9510 C 923.001 -2.4521 -1.29488 0
M  V30 9511 H 925.952 -1.55938 -0.294807 0
M  V30 9512 H 925.973 -2.54012 -2.83298 0
M  V30 9513 H 925.485 -3.63105 -1.37026 0
M  V30 9514 H 923.586 -1.95054 -3.17466 0
M  V30 9515 H 923.699 -3.81447 -2.89887 0
M  V30 9516 H 922.063 -1.96785 -1.61703 0
M  V30 9517 H 922.846 -3.36192 -0.694978 0
M  V30 9518 N 925.291 0.760815 -1.38019 0
M  V30 9519 C 926.254 1.85604 -1.34476 0
M  V30 9520 C 927.254 1.58897 -0.24666 0
M  V30 9521 O 928.444 1.66776 -0.50314 0
M  V30 9522 C 925.576 3.22945 -1.09176 0
M  V30 9523 H 926.769 1.90155 -2.31908 0
M  V30 9524 H 924.322 0.961746 -1.23208 0
M  V30 9525 H 925.057 3.24066 -0.123216 0
M  V30 9526 H 924.842 3.43723 -1.88672 0
M  V30 9527 H 926.332 4.03022 -1.09375 0
M  V30 9528 N 926.769 1.22769 0.988202 0
M  V30 9529 C 927.679 1.01844 2.11341 0
M  V30 9530 C 928.695 -0.0346937 1.73965 0
M  V30 9531 O 929.871 0.159061 2.00771 0
M  V30 9532 C 926.936 0.603837 3.41401 0
M  V30 9533 C 925.997 1.73113 3.92849 0
M  V30 9534 C 925.23 1.33621 5.16702 0
M  V30 9535 O 925.453 0.217041 5.69987 0
M  V30 9536 O 924.387 2.15444 5.62021 0
M  V30 9537 H 928.213 1.96127 2.31879 0
M  V30 9538 H 925.798 1.01405 1.09715 0
M  V30 9539 H 927.68 0.383196 4.19654 0
M  V30 9540 H 926.355 -0.310082 3.22211 0
M  V30 9541 H 925.262 2.00634 3.15748 0
M  V30 9542 H 926.595 2.62308 4.1648 0
M  V30 9543 N 928.247 -1.18576 1.03814 0
M  V30 9544 C 929.496 -1.87822 0.735235 0
M  V30 9545 C 929.809 -1.81069 -0.739819 0
M  V30 9546 O 931.015 -2.45654 -1.15614 0
M  V30 9547 C 929.471 -3.36941 1.26486 0
M  V30 9548 C 929.079 -3.5223 2.76836 0
M  V30 9549 C 930.823 -4.11604 1.03836 0
M  V30 9550 C 928.73 -4.95294 3.23169 0
M  V30 9551 H 927.66 -0.703487 0.271333 0
M  V30 9552 H 930.311 -1.34 1.25365 0
M  V30 9553 H 928.693 -3.90217 0.674318 0
M  V30 9554 H 929.867 -3.09239 3.41625 0
M  V30 9555 H 928.182 -2.90969 2.97869 0
M  V30 9556 H 930.779 -5.17123 1.3597 0
M  V30 9557 H 931.122 -4.16293 -0.0244945 0
M  V30 9558 H 931.655 -3.64494 1.59338 0
M  V30 9559 H 928.394 -4.95772 4.28824 0
M  V30 9560 H 927.914 -5.3901 2.63113 0
M  V30 9561 H 929.593 -5.63996 3.17045 0
M  V30 9562 N 929.725 -0.817259 -1.34754 0
M  V30 9563 C 931.136 -0.462215 -1.80888 0
M  V30 9564 C 931.487 1.01685 -1.67794 0
M  V30 9565 O 930.612 1.79094 -1.21468 0
M  V30 9566 C 931.207 -0.832204 -3.2842 0
M  V30 9567 C 929.766 -0.52961 -3.72655 0
M  V30 9568 C 928.913 -1.05214 -2.56564 0
M  V30 9569 H 931.864 -1.00795 -1.22581 0
M  V30 9570 H 931.885 -0.133804 -3.80265 0
M  V30 9571 H 931.397 -1.90873 -3.37919 0
M  V30 9572 H 929.498 0.537743 -3.68699 0
M  V30 9573 H 929.611 -1.06971 -4.67005 0
M  V30 9574 H 927.975 -0.473949 -2.50251 0
M  V30 9575 H 928.758 -2.135 -2.68836 0
M  V30 9576 N 931.203 1.46865 -0.571711 0
M  V30 9577 C 932.449 2.0273 -0.0531858 0
M  V30 9578 C 932.782 1.44353 1.29907 0
M  V30 9579 O 932.057 0.604488 1.84868 0
M  V30 9580 C 932.34 3.60092 0.0243831 0
M  V30 9581 C 932.193 4.28874 -1.35599 0
M  V30 9582 C 933.512 4.33994 0.730563 0
M  V30 9583 H 930.631 0.736706 -0.0208018 0
M  V30 9584 H 933.273 1.75132 -0.736794 0
M  V30 9585 H 931.423 3.83736 0.606565 0
M  V30 9586 H 933.095 4.16527 -1.98249 0
M  V30 9587 H 931.338 3.88664 -1.92674 0
M  V30 9588 H 932.009 5.37561 -1.25429 0
M  V30 9589 H 934.485 4.1543 0.236098 0
M  V30 9590 H 933.361 5.43699 0.753836 0
M  V30 9591 H 933.622 4.04257 1.78967 0
M  V30 9592 N 932.681 0.308908 1.54543 0
M  V30 9593 C 933.631 -0.578902 2.20528 0
M  V30 9594 C 934.615 -1.09288 1.18088 0
M  V30 9595 O 935.807 -1.03234 1.43777 0
M  V30 9596 C 932.936 -1.74649 2.95555 0
M  V30 9597 C 932.022 -1.24809 4.05319 0
M  V30 9598 N 932.413 -0.46828 5.03628 0
M  V30 9599 C 930.711 -1.52813 4.19004 0
M  V30 9600 C 931.412 -0.201896 5.8135 0
M  V30 9601 N 930.388 -0.783927 5.37918 0
M  V30 9602 H 934.19 0.0243496 2.9389 0
M  V30 9603 H 931.704 0.114049 1.61999 0
M  V30 9604 H 933.701 -2.39414 3.41301 0
M  V30 9605 H 932.361 -2.35336 2.23712 0
M  V30 9606 H 933.372 -0.112453 5.17778 0
M  V30 9607 H 930.049 -2.14191 3.58369 0
M  V30 9608 H 931.439 0.424929 6.70555 0
M  V30 9609 N 934.159 -1.57557 0.0367827 0
M  V30 9610 C 935.069 -2.14148 -0.958017 0
M  V30 9611 C 936.085 -1.09564 -1.35173 0
M  V30 9612 O 937.261 -1.4166 -1.43158 0
M  V30 9613 C 934.326 -2.6636 -2.21931 0
M  V30 9614 C 933.387 -3.85688 -1.8853 0
M  V30 9615 C 932.62 -4.35401 -3.08645 0
M  V30 9616 O 932.843 -3.8425 -4.21554 0
M  V30 9617 O 931.777 -5.27158 -2.90497 0
M  V30 9618 H 935.603 -2.99442 -0.506797 0
M  V30 9619 H 933.188 -1.48259 -0.184275 0
M  V30 9620 H 935.07 -2.99976 -2.9596 0
M  V30 9621 H 933.745 -1.84145 -2.66219 0
M  V30 9622 H 932.652 -3.56985 -1.11861 0
M  V30 9623 H 933.985 -4.69089 -1.49052 0
M  V30 9624 N 935.637 0.236453 -1.55816 0
M  V30 9625 C 936.883 0.964439 -1.784 0
M  V30 9626 C 937.216 1.84573 -0.603868 0
M  V30 9627 O 936.491 1.90395 0.397473 0
M  V30 9628 C 936.774 1.81608 -3.10951 0
M  V30 9629 C 936.627 0.962283 -4.39386 0
M  V30 9630 C 937.946 2.79665 -3.39817 0
M  V30 9631 H 935.065 0.349192 -0.649026 0
M  V30 9632 H 937.707 0.234247 -1.8855 0
M  V30 9633 H 935.857 2.43864 -3.02428 0
M  V30 9634 H 937.529 0.35762 -4.59912 0
M  V30 9635 H 935.772 0.267062 -4.32977 0
M  V30 9636 H 936.443 1.59222 -5.28538 0
M  V30 9637 H 938.919 2.27546 -3.4837 0
M  V30 9638 H 937.795 3.36367 -4.33761 0
M  V30 9639 H 938.056 3.56657 -2.61244 0
M  V30 9640 N 937.115 1.49373 0.502552 0
M  V30 9641 C 938.025 1.68659 1.63068 0
M  V30 9642 C 939.041 0.569182 1.64427 0
M  V30 9643 O 940.217 0.843695 1.82876 0
M  V30 9644 C 937.282 1.74745 2.99441 0
M  V30 9645 C 936.343 2.98311 3.08721 0
M  V30 9646 C 935.576 3.04097 4.38589 0
M  V30 9647 O 935.799 2.17519 5.27297 0
M  V30 9648 O 934.733 3.96544 4.52809 0
M  V30 9649 H 938.559 2.64226 1.49727 0
M  V30 9650 H 936.144 1.33096 0.67867 0
M  V30 9651 H 938.026 1.8111 3.80496 0
M  V30 9652 H 936.701 0.823565 3.13048 0
M  V30 9653 H 935.608 2.97465 2.2686 0
M  V30 9654 H 936.941 3.90174 3.00041 0
M  V30 9655 N 938.594 -0.753485 1.38421 0
M  V30 9656 C 939.834 -1.52544 1.3605 0
M  V30 9657 C 940.198 -1.91937 -0.0493257 0
M  V30 9658 O 941.399 -2.6807 -0.197908 0
M  V30 9659 C 939.67 -2.74432 2.28958 0
M  V30 9660 S 941.229 -3.64297 2.44607 0
M  V30 9661 H 938.047 -0.522017 0.48272 0
M  V30 9662 H 940.649 -0.884503 1.74347 0
M  V30 9663 H 939.353 -2.43602 3.30282 0
M  V30 9664 H 938.884 -3.43471 1.91811 0
M  V30 9665 H 940.899 -4.67245 1.67022 0
M  V30 9666 N 940.072 -1.23292 -0.981677 0
M  V30 9667 C 941.297 -1.09176 -1.76339 0
M  V30 9668 C 941.722 0.352726 -1.84763 0
M  V30 9669 O 941.08 1.25509 -1.30832 0
M  V30 9670 C 941.128 -1.72046 -3.16911 0
M  V30 9671 O 940.232 -0.98174 -4.00544 0
M  V30 9672 H 939.573 -0.382755 -0.542581 0
M  V30 9673 H 942.103 -1.63319 -1.23239 0
M  V30 9674 H 942.113 -1.77232 -3.67495 0
M  V30 9675 H 940.788 -2.77154 -3.10095 0
M  V30 9676 H 939.365 -1.00672 -3.59054 0
M  V30 9677 N 941.55 1.18024 -1.04442 0
M  V30 9678 C 942.78 1.91753 -0.769044 0
M  V30 9679 C 943.188 1.76629 0.678141 0
M  V30 9680 O 942.531 1.09589 1.47431 0
M  V30 9681 C 942.593 3.43505 -1.0604 0
M  V30 9682 C 942.257 3.82409 -2.50225 0
M  V30 9683 C 943.254 3.8588 -3.48414 0
M  V30 9684 C 940.939 4.13594 -2.85036 0
M  V30 9685 C 942.933 4.19993 -4.79463 0
M  V30 9686 C 940.62 4.47377 -4.1629 0
M  V30 9687 C 941.618 4.50553 -5.13314 0
M  V30 9688 O 941.306 4.83546 -6.42214 0
M  V30 9689 H 941.038 0.615466 -0.279603 0
M  V30 9690 H 943.592 1.5065 -1.3962 0
M  V30 9691 H 941.822 3.84866 -0.376125 0
M  V30 9692 H 943.511 3.98486 -0.772235 0
M  V30 9693 H 944.277 3.6192 -3.2286 0
M  V30 9694 H 940.156 4.10297 -2.10185 0
M  V30 9695 H 943.7 4.22387 -5.55189 0
M  V30 9696 H 939.597 4.70798 -4.4161 0
M  V30 9697 H 940.365 5.01433 -6.46921 0
M  V30 9698 N 943.028 0.824394 1.34319 0
M  V30 9699 C 944.253 0.425194 2.02995 0
M  V30 9700 C 944.678 -0.961476 1.6167 0
M  V30 9701 O 944.036 -1.62593 0.80207 0
M  V30 9702 C 944.084 0.537004 3.56579 0
M  V30 9703 O 943.188 -0.442576 4.10018 0
M  V30 9704 H 942.529 0.174853 0.640564 0
M  V30 9705 H 945.059 1.11522 1.71534 0
M  V30 9706 H 945.069 0.413311 4.05901 0
M  V30 9707 H 943.744 1.54836 3.86004 0
M  V30 9708 H 942.321 -0.277644 3.71865 0
M  V30 9709 N 944.506 -1.46559 0.579492 0
M  V30 9710 C 945.734 -2.06784 0.0693648 0
M  V30 9711 C 946.149 -1.42875 -1.23419 0
M  V30 9712 O 945.506 -0.532919 -1.74546 0
M  V30 9713 C 945.557 -3.61343 -0.106511 0
M  V30 9714 O 945.278 -4.22861 1.14545 0
M  V30 9715 C 946.779 -4.38489 -0.651359 0
M  V30 9716 H 943.999 -0.66866 0.0559848 0
M  V30 9717 H 946.543 -1.88235 0.799245 0
M  V30 9718 H 944.698 -3.7933 -0.786601 0
M  V30 9719 H 945.112 -5.15691 0.95723 0
M  V30 9720 H 946.586 -5.47237 -0.723615 0
M  V30 9721 H 947.063 -4.06309 -1.66763 0
M  V30 9722 H 947.669 -4.253 -0.0062433 0
M  V30 9723 N 945.984 -0.3171 -1.54377 0
M  V30 9724 C 947.209 0.292311 -2.0533 0
M  V30 9725 C 947.634 1.45503 -1.19207 0
M  V30 9726 O 946.992 1.80197 -0.199721 0
M  V30 9727 C 947.04 0.710787 -3.53525 0
M  V30 9728 O 946.144 1.81387 -3.70368 0
M  V30 9729 H 945.485 0.0539976 -0.661801 0
M  V30 9730 H 948.015 -0.463629 -1.99278 0
M  V30 9731 H 948.025 0.995216 -3.95676 0
M  V30 9732 H 946.7 -0.139668 -4.15665 0
M  V30 9733 H 945.277 1.52875 -3.40123 0
M  V30 9734 N 947.462 1.57535 -0.0451378 0
M  V30 9735 C 948.41 2.12351 0.949205 0
M  V30 9736 C 949.404 1.05386 1.32628 0
M  V30 9737 O 950.61 1.23802 1.30664 0
M  V30 9738 H 946.985 0.678648 0.323945 0
M  V30 9739 H 948.956 2.94806 0.461718 0
M  V30 9740 C 947.705 2.67862 2.21687 0
M  V30 9741 H 947.028 3.49826 1.93551 0
M  V30 9742 H 948.468 3.09844 2.89435 0
M  V30 9743 C 946.927 1.61353 2.95748 0
M  V30 9744 O 947.457 1.02276 3.88462 0
M  V30 9745 N 945.663 1.33017 2.5837 0
M  V30 9746 H 945.21 1.81246 1.83051 0
M  V30 9747 H 945.168 0.619812 3.0823 0
M  V30 9748 N 948.94 -0.228186 1.55939 0
M  V30 9749 C 949.887 -1.28274 1.91871 0
M  V30 9750 C 950.857 -1.46906 0.775103 0
M  V30 9751 O 952.042 -1.60583 1.03042 0
M  V30 9752 C 949.182 -2.62945 2.23504 0
M  V30 9753 C 948.295 -2.52166 3.50766 0
M  V30 9754 C 947.43 -3.79316 3.71878 0
M  V30 9755 C 946.469 -3.63231 4.92676 0
M  V30 9756 N 945.606 -4.82315 5.10212 0
M  V30 9757 H 950.446 -0.96931 2.81795 0
M  V30 9758 H 947.983 -0.467331 1.39479 0
M  V30 9759 H 949.941 -3.41359 2.39854 0
M  V30 9760 H 948.571 -2.92397 1.36762 0
M  V30 9761 H 947.623 -1.65221 3.42646 0
M  V30 9762 H 948.935 -2.36199 4.39331 0
M  V30 9763 H 948.089 -4.66173 3.88288 0
M  V30 9764 H 946.828 -3.982 2.81581 0
M  V30 9765 H 945.833 -2.74757 4.76223 0
M  V30 9766 H 947.058 -3.45823 5.84451 0
M  V30 9767 H 945.004 -5.01526 4.22856 0
M  V30 9768 H 944.921 -4.6905 5.92898 0
M  V30 9769 H 946.189 -5.70618 5.31051 0
M  V30 9770 N 950.418 -1.49637 -0.494624 0
M  V30 9771 C 951.351 -1.61387 -1.61337 0
M  V30 9772 C 952.329 -0.462704 -1.55878 0
M  V30 9773 O 953.513 -0.679103 -1.75842 0
M  V30 9774 C 950.64 -1.57471 -2.99867 0
M  V30 9775 C 949.686 -2.77863 -3.23565 0
M  V30 9776 S 950.519 -4.3946 -3.05999 0
M  V30 9777 C 951.675 -4.382 -4.46914 0
M  V30 9778 H 951.908 -2.56024 -1.51126 0
M  V30 9779 H 949.441 -1.38607 -0.680253 0
M  V30 9780 H 951.399 -1.55898 -3.79745 0
M  V30 9781 H 950.06 -0.641107 -3.07488 0
M  V30 9782 H 949.253 -2.71361 -4.24711 0
M  V30 9783 H 948.855 -2.76882 -2.51421 0
M  V30 9784 H 951.147 -4.10312 -5.3912 0
M  V30 9785 H 952.09 -5.39645 -4.58464 0
M  V30 9786 H 952.498 -3.68197 -4.27891 0
M  V30 9787 N 951.896 0.746133 -1.38819 0
M  V30 9788 C 952.843 1.86001 -1.36647 0
M  V30 9789 C 953.813 1.6453 -0.227849 0
M  V30 9790 O 954.998 1.86092 -0.421241 0
M  V30 9791 C 952.138 3.23388 -1.20474 0
M  V30 9792 C 951.251 3.5664 -2.43786 0
M  V30 9793 C 950.386 4.8337 -2.20287 0
M  V30 9794 C 949.425 5.09431 -3.39332 0
M  V30 9795 N 948.562 6.2736 -3.1522 0
M  V30 9796 H 953.402 1.87192 -2.31869 0
M  V30 9797 H 950.939 0.914838 -1.15192 0
M  V30 9798 H 952.897 4.02679 -1.09112 0
M  V30 9799 H 951.527 3.21505 -0.288874 0
M  V30 9800 H 950.579 2.72135 -2.65794 0
M  V30 9801 H 951.891 3.71823 -3.3249 0
M  V30 9802 H 951.045 5.70619 -2.06103 0
M  V30 9803 H 949.784 4.70341 -1.28961 0
M  V30 9804 H 948.789 4.20648 -3.54027 0
M  V30 9805 H 950.014 5.24354 -4.31544 0
M  V30 9806 H 947.96 6.15639 -2.26549 0
M  V30 9807 H 947.877 6.43078 -3.97476 0
M  V30 9808 H 949.145 7.17477 -3.04707 0
M  V30 9809 N 953.375 1.23811 0.975125 0
M  V30 9810 C 954.285 1.0408 2.10249 0
M  V30 9811 C 955.301 -0.0162404 1.73992 0
M  V30 9812 O 956.477 0.180346 2.00591 0
M  V30 9813 C 953.542 0.640013 3.40741 0
M  V30 9814 C 952.603 1.7727 3.90991 0
M  V30 9815 C 951.836 1.39094 5.15256 0
M  V30 9816 O 952.059 0.277483 5.69725 0
M  V30 9817 O 950.993 2.21392 5.59704 0
M  V30 9818 H 954.819 1.98575 2.29786 0
M  V30 9819 H 952.404 1.02563 1.08633 0
M  V30 9820 H 954.286 0.427684 4.19224 0
M  V30 9821 H 952.961 -0.27589 3.22522 0
M  V30 9822 H 951.868 2.03971 3.13602 0
M  V30 9823 H 953.201 2.66711 4.13674 0
M  V30 9824 N 954.853 -1.17469 1.05066 0
M  V30 9825 C 956.101 -1.87327 0.758485 0
M  V30 9826 C 956.422 -1.81358 -0.716549 0
M  V30 9827 O 955.692 -1.23868 -1.51768 0
M  V30 9828 H 954.272 -0.693512 0.277579 0
M  V30 9829 H 956.934 -1.4251 1.32954 0
M  V30 9830 H 956.03 -2.93101 1.0723 0
M  V30 9831 N 956.331 -0.831506 -1.3388 0
M  V30 9832 C 957.577 -0.424302 -1.98312 0
M  V30 9833 C 957.91 1.01211 -1.65741 0
M  V30 9834 O 957.185 1.70636 -0.933464 0
M  V30 9835 C 957.468 -0.636815 -3.54424 0
M  V30 9836 C 957.321 -2.11997 -3.96708 0
M  V30 9837 C 958.64 -0.0782411 -4.4003 0
M  V30 9838 H 955.759 -0.155637 -0.720379 0
M  V30 9839 H 958.401 -1.04566 -1.58638 0
M  V30 9840 H 956.551 -0.107907 -3.8835 0
M  V30 9841 H 958.223 -2.71317 -3.73075 0
M  V30 9842 H 956.466 -2.60723 -3.46707 0
M  V30 9843 H 957.137 -2.21944 -5.05416 0
M  V30 9844 H 959.613 -0.530243 -4.12708 0
M  V30 9845 H 958.489 -0.256676 -5.483 0
M  V30 9846 H 958.75 1.01745 -4.30233 0
M  V30 9847 N 957.809 1.4625 -0.587256 0
M  V30 9848 C 958.757 2.32076 0.156108 0
M  V30 9849 C 959.751 1.44756 0.879887 0
M  V30 9850 O 960.957 1.61356 0.797759 0
M  V30 9851 H 957.332 0.748808 0.0692098 0
M  V30 9852 H 959.303 2.9258 -0.586497 0
M  V30 9853 C 958.052 3.28008 1.15352 0
M  V30 9854 H 957.375 3.9518 0.60601 0
M  V30 9855 H 958.815 3.90832 1.64396 0
M  V30 9856 C 957.274 2.53691 2.21681 0
M  V30 9857 O 957.804 2.30329 3.29107 0
M  V30 9858 N 956.01 2.14174 1.96412 0
M  V30 9859 H 955.557 2.33374 1.09061 0
M  V30 9860 H 955.515 1.6477 2.67765 0
M  V30 9861 N 959.287 0.325282 1.54207 0
M  V30 9862 C 960.536 -0.27768 1.99779 0
M  V30 9863 C 960.849 -1.5311 1.21723 0
M  V30 9864 O 962.055 -2.21017 1.57682 0
M  V30 9865 C 960.511 -0.545329 3.55745 0
M  V30 9866 C 960.119 0.691143 4.42637 0
M  V30 9867 C 961.863 -1.10815 4.09781 0
M  V30 9868 C 959.77 0.395302 5.90077 0
M  V30 9869 H 958.7 -0.107536 0.746292 0
M  V30 9870 H 961.351 0.437773 1.78202 0
M  V30 9871 H 959.733 -1.32101 3.73317 0
M  V30 9872 H 960.907 1.46653 4.3684 0
M  V30 9873 H 959.222 1.1743 3.99499 0
M  V30 9874 H 961.819 -1.34414 5.1753 0
M  V30 9875 H 962.162 -2.05806 3.6187 0
M  V30 9876 H 962.695 -0.393608 3.95848 0
M  V30 9877 H 959.434 1.31443 6.42186 0
M  V30 9878 H 958.954 -0.34235 5.98822 0
M  V30 9879 H 960.633 0.00576877 6.47 0
M  V30 9880 N 960.765 -1.57509 0.0534917 0
M  V30 9881 C 961.993 -1.97098 -0.629298 0
M  V30 9882 C 962.408 -0.931128 -1.64242 0
M  V30 9883 O 961.765 0.0843866 -1.82305 0
M  V30 9884 C 961.816 -3.36767 -1.31415 0
M  V30 9885 O 961.537 -4.36766 -0.341599 0
M  V30 9886 C 963.038 -3.91127 -2.08649 0
M  V30 9887 H 960.258 -0.648611 -0.171886 0
M  V30 9888 H 962.802 -2.04145 0.120479 0
M  V30 9889 H 960.957 -3.30863 -2.01515 0
M  V30 9890 H 961.371 -5.1788 -0.830715 0
M  V30 9891 H 962.845 -4.91129 -2.51985 0
M  V30 9892 H 963.322 -3.26679 -2.9356 0
M  V30 9893 H 963.928 -4.00376 -1.43456 0
M  V30 9894 N 962.243 0.219913 -1.56058 0
M  V30 9895 C 963.492 0.942119 -1.78345 0
M  V30 9896 C 963.805 1.85435 -0.622344 0
M  V30 9897 O 965.011 2.61533 -0.728886 0
M  V30 9898 C 963.467 1.72544 -3.15843 0
M  V30 9899 C 963.075 0.859263 -4.39682 0
M  V30 9900 C 964.819 2.43876 -3.47455 0
M  V30 9901 C 962.726 1.64003 -5.68205 0
M  V30 9902 H 961.656 0.355514 -0.664925 0
M  V30 9903 H 964.307 0.195963 -1.82451 0
M  V30 9904 H 962.689 2.51456 -3.05918 0
M  V30 9905 H 963.863 0.110562 -4.60667 0
M  V30 9906 H 962.178 0.257985 -4.156 0
M  V30 9907 H 964.775 3.02794 -4.40704 0
M  V30 9908 H 965.118 3.16843 -2.7003 0
M  V30 9909 H 965.651 1.71952 -3.58716 0
M  V30 9910 H 962.39 0.953606 -6.48526 0
M  V30 9911 H 961.91 2.3633 -5.51279 0
M  V30 9912 H 963.589 2.20028 -6.08438 0
M  V30 9913 N 963.721 1.49897 0.486681 0
M  V30 9914 C 964.961 1.61732 1.24988 0
M  V30 9915 C 965.325 0.303724 1.89582 0
M  V30 9916 O 966.526 0.297373 2.6715 0
M  V30 9917 C 964.797 2.75429 2.27757 0
M  V30 9918 S 966.356 3.07304 3.13225 0
M  V30 9919 H 963.174 0.570316 0.424571 0
M  V30 9920 H 965.776 1.87617 0.549549 0
M  V30 9921 H 964.48 3.69376 1.78857 0
M  V30 9922 H 964.011 2.51582 3.0244 0
M  V30 9923 H 966.026 2.49928 4.28661 0
M  V30 9924 N 965.199 -0.738761 1.39212 0
M  V30 9925 C 966.446 -1.49824 1.36231 0
M  V30 9926 C 966.774 -1.94453 -0.0429552 0
M  V30 9927 O 966.029 -1.6683 -1.02304 0
M  V30 9928 C 966.328 -2.75435 2.2775 0
M  V30 9929 C 965.994 -2.49694 3.75451 0
M  V30 9930 C 964.656 -2.42383 4.15697 0
M  V30 9931 C 967.008 -2.27587 4.68885 0
M  V30 9932 C 964.336 -2.11001 5.47444 0
M  V30 9933 C 966.688 -1.97723 6.00906 0
M  V30 9934 C 965.352 -1.88879 6.4022 0
M  V30 9935 H 964.622 -0.548247 0.498504 0
M  V30 9936 H 967.269 -0.848244 1.71689 0
M  V30 9937 H 965.574 -3.45159 1.85398 0
M  V30 9938 H 967.271 -3.33449 2.22739 0
M  V30 9939 H 963.861 -2.56261 3.43552 0
M  V30 9940 H 968.045 -2.32206 4.38628 0
M  V30 9941 H 963.301 -2.02673 5.76831 0
M  V30 9942 H 967.475 -1.79625 6.72836 0
M  V30 9943 H 965.102 -1.64327 7.42227 0
M  V30 9944 N 966.677 -1.24326 -0.968545 0
M  V30 9945 C 967.609 -0.992749 -2.06584 0
M  V30 9946 C 968.622 0.0374902 -1.62757 0
M  V30 9947 O 969.811 -0.199448 -1.77382 0
M  V30 9948 C 966.911 -0.476165 -3.35538 0
M  V30 9949 C 966.084 -1.56934 -4.08277 0
M  V30 9950 C 965.143 -1.05555 -5.15504 0
M  V30 9951 O 964.169 -1.74707 -5.41725 0
M  V30 9952 N 965.371 0.110465 -5.80395 0
M  V30 9953 H 968.136 -1.93752 -2.28649 0
M  V30 9954 H 965.697 -1.15344 -1.13611 0
M  V30 9955 H 967.689 -0.117223 -4.0453 0
M  V30 9956 H 966.259 0.374315 -3.10351 0
M  V30 9957 H 965.479 -2.10051 -3.33575 0
M  V30 9958 H 966.767 -2.30415 -4.53637 0
M  V30 9959 H 966.165 0.688614 -5.61493 0
M  V30 9960 H 964.722 0.41056 -6.50506 0
M  V30 9961 N 968.156 1.1691 -1.05688 0
M  V30 9962 C 969.405 1.86629 -0.765022 0
M  V30 9963 C 969.718 1.82223 0.710918 0
M  V30 9964 O 970.924 2.47462 1.11691 0
M  V30 9965 C 969.38 3.34886 -1.3183 0
M  V30 9966 C 968.988 3.47781 -2.82404 0
M  V30 9967 C 970.732 4.099 -1.10372 0
M  V30 9968 C 968.639 4.9009 -3.31008 0
M  V30 9969 H 967.569 0.699082 -0.282491 0
M  V30 9970 H 970.22 1.31989 -1.27481 0
M  V30 9971 H 968.602 3.89094 -0.736312 0
M  V30 9972 H 969.776 3.03765 -3.46502 0
M  V30 9973 H 968.091 2.86193 -3.02461 0
M  V30 9974 H 970.688 5.14894 -1.4418 0
M  V30 9975 H 971.031 4.16279 -0.0417372 0
M  V30 9976 H 971.564 3.61913 -1.65117 0
M  V30 9977 H 968.303 4.88887 -4.36657 0
M  V30 9978 H 967.823 5.34756 -2.71655 0
M  V30 9979 H 969.502 5.58881 -3.25977 0
M  V30 9980 N 969.634 0.838594 1.33437 0
M  V30 9981 C 970.581 0.269609 2.2922 0
M  V30 9982 C 971.551 -0.614429 1.54318 0
M  V30 9983 O 972.736 -0.552756 1.82618 0
M  V30 9984 C 969.876 -0.549527 3.40697 0
M  V30 9985 C 968.989 0.358502 4.3051 0
M  V30 9986 C 968.124 -0.471709 5.29101 0
M  V30 9987 C 967.163 0.434728 6.10554 0
M  V30 9988 N 966.3 -0.357339 7.0119 0
M  V30 9989 H 971.14 1.09172 2.77282 0
M  V30 9990 H 968.677 0.549832 1.36438 0
M  V30 9991 H 970.635 -1.03992 4.04032 0
M  V30 9992 H 969.265 -1.33661 2.93828 0
M  V30 9993 H 968.317 0.967204 3.67899 0
M  V30 9994 H 969.629 1.05483 4.87519 0
M  V30 9995 H 968.783 -1.02594 5.97963 0
M  V30 9996 H 967.522 -1.20147 4.72669 0
M  V30 9997 H 966.527 1.00097 5.40611 0
M  V30 9998 H 967.752 1.16285 6.6907 0
M  V30 9999 H 965.698 -1.07049 6.47207 0
M  V30 10000 H 965.615 0.280277 7.5548 0
M  V30 10001 H 966.883 -0.893814 7.74359 0
M  V30 10002 N 971.112 -1.45937 0.595003 0
M  V30 10003 C 972.337 -2.07207 0.0894416 0
M  V30 10004 C 972.762 -1.43884 -1.21157 0
M  V30 10005 O 972.12 -0.526998 -1.73472 0
M  V30 10006 C 972.168 -3.60565 -0.0499828 0
M  V30 10007 O 971.272 -3.97364 -1.10342 0
M  V30 10008 H 970.613 -0.660471 0.0683627 0
M  V30 10009 H 973.143 -1.87386 0.82144 0
M  V30 10010 H 973.153 -4.0722 -0.252234 0
M  V30 10011 H 971.828 -4.06044 0.90006 0
M  V30 10012 H 970.405 -3.62401 -0.878645 0
M  V30 10013 N 972.59 -0.333456 -1.54032 0
M  V30 10014 C 973.52 0.52051 -2.27625 0
M  V30 10015 C 974.501 1.1111 -1.28797 0
M  V30 10016 O 975.686 1.13438 -1.57625 0
M  V30 10017 C 972.816 1.67663 -3.04149 0
M  V30 10018 C 971.77 1.21487 -4.10396 0
M  V30 10019 C 971.096 2.45872 -4.74817 0
M  V30 10020 C 972.396 0.322603 -5.21303 0
M  V30 10021 H 974.09 -0.0933823 -2.99254 0
M  V30 10022 H 971.636 -0.0463526 -1.43925 0
M  V30 10023 H 973.589 2.28041 -3.54366 0
M  V30 10024 H 972.313 2.31727 -2.30153 0
M  V30 10025 H 970.972 0.633966 -3.61077 0
M  V30 10026 H 970.62 3.0832 -3.97426 0
M  V30 10027 H 970.32 2.15662 -5.46593 0
M  V30 10028 H 971.844 3.06994 -5.27814 0
M  V30 10029 H 973.258 0.832942 -5.67217 0
M  V30 10030 H 971.655 0.112843 -5.99994 0
M  V30 10031 H 972.725 -0.643954 -4.80605 0
M  V30 10032 N 974.068 1.57479 -0.061844 0
M  V30 10033 C 975.317 1.92285 0.609055 0
M  V30 10034 C 975.63 0.942983 1.71369 0
M  V30 10035 O 976.836 1.18349 2.44348 0
M  V30 10036 C 975.292 3.41545 1.13468 0
M  V30 10037 C 974.9 4.47958 0.0615926 0
M  V30 10038 C 976.644 3.85368 1.78022 0
M  V30 10039 C 974.551 5.88341 0.600705 0
M  V30 10040 H 973.481 0.717656 0.23127 0
M  V30 10041 H 976.132 1.83021 -0.132466 0
M  V30 10042 H 974.514 3.45848 1.92886 0
M  V30 10043 H 975.688 4.55258 -0.712527 0
M  V30 10044 H 974.003 4.13541 -0.487116 0
M  V30 10045 H 976.6 4.87627 2.19371 0
M  V30 10046 H 976.943 3.22193 2.63623 0
M  V30 10047 H 977.476 3.83626 1.05242 0
M  V30 10048 H 974.215 6.55138 -0.217922 0
M  V30 10049 H 973.735 5.84581 1.34257 0
M  V30 10050 H 975.414 6.37918 1.08025 0
M  V30 10051 N 975.546 -0.211634 1.56173 0
M  V30 10052 C 976.957 -0.777776 1.69728 0
M  V30 10053 C 977.308 -1.84566 0.66558 0
M  V30 10054 O 976.433 -2.15639 -0.181338 0
M  V30 10055 C 977.028 -1.41757 3.07718 0
M  V30 10056 C 975.587 -1.93098 3.23094 0
M  V30 10057 C 974.734 -0.794785 2.65666 0
M  V30 10058 H 977.685 0.0131839 1.58695 0
M  V30 10059 H 977.706 -2.28662 3.04128 0
M  V30 10060 H 977.218 -0.640114 3.82785 0
M  V30 10061 H 975.319 -2.73615 2.52914 0
M  V30 10062 H 975.432 -2.10414 4.30422 0
M  V30 10063 H 973.796 -1.20473 2.24407 0
M  V30 10064 H 974.579 -0.0298408 3.43287 0
M  V30 10065 N 977.024 -1.50153 -0.478725 0
M  V30 10066 C 977.956 -1.64603 -1.59494 0
M  V30 10067 C 978.969 -0.527789 -1.54007 0
M  V30 10068 O 980.158 -0.80069 -1.59534 0
M  V30 10069 C 977.258 -1.60738 -2.98356 0
M  V30 10070 C 976.431 -2.88468 -3.28794 0
M  V30 10071 C 975.49 -2.77349 -4.47173 0
M  V30 10072 O 974.516 -3.51302 -4.47857 0
M  V30 10073 N 975.718 -1.9039 -5.4839 0
M  V30 10074 H 978.483 -2.6088 -1.47518 0
M  V30 10075 H 976.044 -1.47521 -0.667011 0
M  V30 10076 H 978.036 -1.50923 -3.75505 0
M  V30 10077 H 976.606 -0.722273 -3.04141 0
M  V30 10078 H 975.826 -3.12467 -2.40329 0
M  V30 10079 H 977.114 -3.73102 -3.45937 0
M  V30 10080 H 976.512 -1.29606 -5.50653 0
M  V30 10081 H 975.069 -1.86484 -6.24553 0
M  V30 10082 N 978.502 0.731368 -1.39602 0
M  V30 10083 C 979.749 1.491 -1.37024 0
M  V30 10084 C 980.077 1.94473 0.0326423 0
M  V30 10085 O 979.332 1.6737 1.01418 0
M  V30 10086 C 979.631 2.74224 -2.29208 0
M  V30 10087 C 979.297 2.477 -3.7677 0
M  V30 10088 C 977.959 2.40175 -4.16976 0
M  V30 10089 C 980.311 2.25098 -4.70086 0
M  V30 10090 C 977.639 2.08095 -5.48556 0
M  V30 10091 C 979.991 1.94534 -6.01946 0
M  V30 10092 C 978.655 1.85481 -6.41212 0
M  V30 10093 H 977.925 0.545595 -0.501405 0
M  V30 10094 H 980.572 0.839127 -1.72136 0
M  V30 10095 H 978.877 3.44171 -1.87225 0
M  V30 10096 H 980.574 3.32264 -2.24504 0
M  V30 10097 H 977.164 2.54436 -3.44906 0
M  V30 10098 H 981.348 2.29876 -4.39853 0
M  V30 10099 H 976.604 1.99611 -5.77897 0
M  V30 10100 H 980.778 1.76054 -6.73779 0
M  V30 10101 H 978.405 1.60389 -7.43088 0
M  V30 10102 N 979.98 1.24838 0.961938 0
M  V30 10103 C 980.912 1.00369 2.06055 0
M  V30 10104 C 981.925 -0.0288583 1.62774 0
M  V30 10105 O 983.114 0.208853 1.77274 0
M  V30 10106 C 980.214 0.493953 3.35281 0
M  V30 10107 C 979.387 1.59097 4.07439 0
M  V30 10108 C 978.446 1.08288 5.14937 0
M  V30 10109 O 977.472 1.77577 5.40791 0
M  V30 10110 N 978.674 -0.0796836 5.80445 0
M  V30 10111 H 981.439 1.94962 2.27618 0
M  V30 10112 H 979 1.15945 1.12997 0
M  V30 10113 H 980.992 0.138675 4.04462 0
M  V30 10114 H 979.562 -0.357851 3.10545 0
M  V30 10115 H 978.782 2.11817 3.32456 0
M  V30 10116 H 980.07 2.32817 4.52409 0
M  V30 10117 H 979.468 -0.658827 5.6185 0
M  V30 10118 H 978.025 -0.376057 6.50714 0
M  V30 10119 N 981.458 -1.16348 1.06306 0
M  V30 10120 C 982.706 -1.86512 0.778311 0
M  V30 10121 C 983.027 -1.82107 -0.697273 0
M  V30 10122 O 982.297 -1.2547 -1.50446 0
M  V30 10123 H 980.877 -0.690529 0.284919 0
M  V30 10124 H 983.539 -1.41092 1.34458 0
M  V30 10125 H 982.635 -2.91947 1.10333 0
M  V30 10126 N 982.937 -0.845659 -1.3299 0
M  V30 10127 C 984.353 -0.53433 -1.5039 0
M  V30 10128 C 984.553 0.936939 -1.78392 0
M  V30 10129 O 983.609 1.72043 -1.84818 0
M  V30 10130 C 984.922 -1.41354 -2.65404 0
M  V30 10131 C 986.47 -1.41303 -2.79289 0
M  V30 10132 C 986.945 -2.27724 -3.97373 0
M  V30 10133 N 988.436 -2.25471 -4.0462 0
M  V30 10134 C 989.171 -2.89074 -4.95201 0
M  V30 10135 N 988.667 -3.61755 -5.90851 0
M  V30 10136 N 990.46 -2.78508 -4.88251 0
M  V30 10137 H 982.611 -1.79798 -1.13078 0
M  V30 10138 H 984.874 -0.767454 -0.556524 0
M  V30 10139 H 984.58 -2.45936 -2.51413 0
M  V30 10140 H 984.454 -1.09445 -3.60973 0
M  V30 10141 H 986.841 -0.374899 -2.92709 0
M  V30 10142 H 986.922 -1.77222 -1.84461 0
M  V30 10143 H 986.566 -3.316 -3.84713 0
M  V30 10144 H 986.496 -1.89142 -4.9146 0
M  V30 10145 H 988.987 -1.72622 -3.3617 0
M  V30 10146 H 989.3 -4.07475 -6.56646 0
M  V30 10147 H 987.645 -3.65863 -5.90906 0
M  V30 10148 H 990.836 -2.21285 -4.12493 0
M  V30 10149 H 991.009 -3.2836 -5.58645 0
M  V30 10150 N 984.415 1.45619 -0.602734 0
M  V30 10151 C 985.345 2.33258 0.106342 0
M  V30 10152 C 986.326 1.46543 0.863664 0
M  V30 10153 O 987.511 1.75324 0.835175 0
M  V30 10154 C 984.641 3.29168 1.10751 0
M  V30 10155 C 983.595 4.25481 0.463717 0
M  V30 10156 C 982.921 5.11046 1.57278 0
M  V30 10157 C 984.221 5.18702 -0.61199 0
M  V30 10158 H 985.915 2.92795 -0.625423 0
M  V30 10159 H 983.461 1.40793 -0.302213 0
M  V30 10160 H 985.414 3.89346 1.61208 0
M  V30 10161 H 984.138 2.6778 1.8698 0
M  V30 10162 H 982.797 3.66595 -0.0199496 0
M  V30 10163 H 982.445 4.46029 2.32524 0
M  V30 10164 H 982.145 5.76286 1.14755 0
M  V30 10165 H 983.669 5.74091 2.07972 0
M  V30 10166 H 985.083 5.72979 -0.191686 0
M  V30 10167 H 983.48 5.92393 -0.958686 0
M  V30 10168 H 984.55 4.61424 -1.4905 0
M  V30 10169 N 985.893 0.34162 1.53853 0
M  V30 10170 C 987.139 -0.255862 2.01179 0
M  V30 10171 C 987.472 -1.50356 1.22909 0
M  V30 10172 O 986.747 -1.91913 0.316198 0
M  V30 10173 C 987.03 -0.571934 3.55529 0
M  V30 10174 C 986.883 0.687727 4.44511 0
M  V30 10175 C 988.202 -1.38233 4.17827 0
M  V30 10176 H 985.321 -0.091521 0.731295 0
M  V30 10177 H 987.963 0.461775 1.84303 0
M  V30 10178 H 986.113 -1.18331 3.70041 0
M  V30 10179 H 987.785 1.32572 4.4184 0
M  V30 10180 H 986.028 1.313 4.13452 0
M  V30 10181 H 986.699 0.421858 5.50386 0
M  V30 10182 H 989.175 -0.865374 4.07002 0
M  V30 10183 H 988.051 -1.57223 5.25901 0
M  V30 10184 H 988.312 -2.38386 3.72323 0
M  V30 10185 N 987.371 -1.57444 0.0701946 0
M  V30 10186 C 988.334 -2.11511 -0.882923 0
M  V30 10187 C 989.334 -1.03879 -1.22743 0
M  V30 10188 O 990.524 -1.29874 -1.16097 0
M  V30 10189 C 987.656 -2.61514 -2.18686 0
M  V30 10190 H 988.849 -2.9703 -0.413873 0
M  V30 10191 H 986.402 -1.55278 -0.178488 0
M  V30 10192 H 987.137 -1.79443 -2.70131 0
M  V30 10193 H 986.922 -3.40185 -1.94978 0
M  V30 10194 H 988.412 -3.03425 -2.86919 0
M  V30 10195 N 988.849 0.203349 -1.56283 0
M  V30 10196 C 989.797 1.27157 -1.94766 0
M  V30 10197 C 990.791 1.4756 -0.832005 0
M  V30 10198 O 991.997 1.48519 -1.01696 0
M  V30 10199 H 988.372 0.426712 -0.61921 0
M  V30 10200 H 990.343 0.919921 -2.83866 0
M  V30 10201 C 989.092 2.6108 -2.29636 0
M  V30 10202 H 988.415 2.46193 -3.15006 0
M  V30 10203 H 989.855 3.34591 -2.60433 0
M  V30 10204 C 988.314 3.17456 -1.12799 0
M  V30 10205 O 988.844 3.99717 -0.398661 0
M  V30 10206 N 987.05 2.76084 -0.906975 0
M  V30 10207 H 986.597 2.09294 -1.50179 0
M  V30 10208 H 986.555 3.14143 -0.127005 0
M  V30 10209 N 990.327 1.50405 0.470755 0
M  V30 10210 C 991.257 1.72222 1.57676 0
M  V30 10211 C 992.238 0.57121 1.60222 0
M  V30 10212 O 993.423 0.810381 1.76484 0
M  V30 10213 C 990.553 1.81666 2.95998 0
M  V30 10214 C 989.507 2.96857 3.08318 0
M  V30 10215 C 988.833 2.91445 4.4829 0
M  V30 10216 C 990.133 4.37361 2.85504 0
M  V30 10217 H 991.827 2.64825 1.39671 0
M  V30 10218 H 989.373 1.27438 0.67049 0
M  V30 10219 H 991.326 1.95514 3.73299 0
M  V30 10220 H 990.05 0.856856 3.1516 0
M  V30 10221 H 988.709 2.82661 2.33449 0
M  V30 10222 H 988.357 1.93309 4.64371 0
M  V30 10223 H 988.057 3.68776 4.57469 0
M  V30 10224 H 989.581 3.07341 5.27611 0
M  V30 10225 H 990.995 4.52081 3.52555 0
M  V30 10226 H 989.392 5.16145 3.06127 0
M  V30 10227 H 990.462 4.49708 1.81359 0
M  V30 10228 N 991.805 -0.723954 1.39988 0
M  V30 10229 C 993.033 -1.51313 1.4111 0
M  V30 10230 C 993.448 -1.88798 0.00853333 0
M  V30 10231 O 992.805 -1.54868 -0.965516 0
M  V30 10232 C 992.856 -2.79375 2.29416 0
M  V30 10233 O 992.577 -2.43478 3.64211 0
M  V30 10234 C 994.078 -3.7333 2.3904 0
M  V30 10235 H 991.298 -0.46724 0.481589 0
M  V30 10236 H 993.842 -0.893694 1.83938 0
M  V30 10237 H 991.997 -3.37624 1.89971 0
M  V30 10238 H 992.411 -3.25821 4.11024 0
M  V30 10239 H 993.885 -4.60051 3.05053 0
M  V30 10240 H 994.362 -4.15854 1.41289 0
M  V30 10241 H 994.968 -3.20996 2.79001 0
M  V30 10242 N 993.283 -1.25346 -0.955304 0
M  V30 10243 C 994.513 -1.12629 -1.732 0
M  V30 10244 C 994.921 0.322748 -1.86427 0
M  V30 10245 O 994.264 1.23381 -1.36099 0
M  V30 10246 C 994.326 -1.7064 -3.16421 0
M  V30 10247 C 993.99 -3.19632 -3.26626 0
M  V30 10248 C 994.987 -4.1663 -3.10991 0
M  V30 10249 C 992.672 -3.59829 -3.50468 0
M  V30 10250 C 994.666 -5.51806 -3.19043 0
M  V30 10251 C 992.353 -4.95143 -3.58157 0
M  V30 10252 C 993.351 -5.90941 -3.42459 0
M  V30 10253 O 993.039 -7.23792 -3.49828 0
M  V30 10254 H 992.771 -0.393646 -0.549562 0
M  V30 10255 H 995.325 -1.66184 -1.20715 0
M  V30 10256 H 993.555 -1.11532 -3.70267 0
M  V30 10257 H 995.244 -1.53032 -3.75947 0
M  V30 10258 H 996.01 -3.86915 -2.92441 0
M  V30 10259 H 991.889 -2.8576 -3.61749 0
M  V30 10260 H 995.433 -6.26559 -3.06707 0
M  V30 10261 H 991.33 -5.24525 -3.76224 0
M  V30 10262 H 992.098 -7.31879 -3.66463 0
M  V30 10263 N 994.761 1.15782 -1.06922 0
M  V30 10264 C 995.989 1.90355 -0.81072 0
M  V30 10265 C 996.404 1.77779 0.635614 0
M  V30 10266 O 995.761 1.12675 1.43564 0
M  V30 10267 C 995.812 3.4085 -1.2043 0
M  V30 10268 O 995.533 3.53057 -2.59388 0
M  V30 10269 C 997.034 4.32457 -0.974473 0
M  V30 10270 H 994.254 0.60343 -0.293451 0
M  V30 10271 H 996.798 1.46723 -1.42452 0
M  V30 10272 H 994.953 3.82162 -0.634909 0
M  V30 10273 H 995.367 4.46426 -2.75326 0
M  V30 10274 H 996.841 5.36488 -1.29942 0
M  V30 10275 H 997.318 4.39109 0.0894481 0
M  V30 10276 H 997.924 3.96882 -1.52856 0
M  V30 10277 N 996.239 0.8527 1.3254 0
M  V30 10278 C 997.169 0.311234 2.31416 0
M  V30 10279 C 998.15 -0.588557 1.59593 0
M  V30 10280 O 999.335 -0.509211 1.87405 0
M  V30 10281 C 996.465 -0.502892 3.4364 0
M  V30 10282 C 995.419 0.302296 4.26931 0
M  V30 10283 C 994.745 -0.636445 5.30899 0
M  V30 10284 C 996.045 1.52697 4.99481 0
M  V30 10285 H 997.739 1.13742 2.76953 0
M  V30 10286 H 995.285 0.548389 1.33149 0
M  V30 10287 H 997.238 -0.892092 4.11849 0
M  V30 10288 H 995.962 -1.36242 2.96826 0
M  V30 10289 H 994.621 0.673226 3.60365 0
M  V30 10290 H 994.269 -1.49277 4.80339 0
M  V30 10291 H 993.969 -0.101716 5.87512 0
M  V30 10292 H 995.493 -1.02286 6.01972 0
M  V30 10293 H 996.907 1.21017 5.60382 0
M  V30 10294 H 995.304 1.9995 5.65809 0
M  V30 10295 H 996.374 2.28929 4.27457 0
M  V30 10296 N 997.718 -1.45297 0.610449 0
M  V30 10297 C 998.65 -2.28742 -0.144884 0
M  V30 10298 C 999.663 -1.40114 -0.828977 0
M  V30 10299 O 1000.85 -1.64461 -0.693887 0
M  V30 10300 C 997.952 -3.15934 -1.22632 0
M  V30 10301 C 997.125 -4.32857 -0.628785 0
M  V30 10302 C 996.184 -5.01237 -1.60148 0
M  V30 10303 O 995.21 -5.57938 -1.12667 0
M  V30 10304 N 996.412 -5.00785 -2.9359 0
M  V30 10305 H 999.177 -2.94207 0.571145 0
M  V30 10306 H 996.738 -1.55517 0.450134 0
M  V30 10307 H 998.73 -3.58545 -1.87691 0
M  V30 10308 H 997.3 -2.52358 -1.84483 0
M  V30 10309 H 996.52 -3.93693 0.199951 0
M  V30 10310 H 997.808 -5.08367 -0.209845 0
M  V30 10311 H 997.206 -4.56014 -3.34765 0
M  V30 10312 H 995.763 -5.4725 -3.54064 0
M  V30 10313 N 999.196 -0.349774 -1.5367 0
M  V30 10314 C 1000.13 0.496338 -2.28164 0
M  V30 10315 C 1001.11 1.09737 -1.29968 0
M  V30 10316 O 1002.29 1.11759 -1.58819 0
M  V30 10317 C 999.422 1.64428 -3.0591 0
M  V30 10318 C 998.376 1.17127 -4.11661 0
M  V30 10319 C 997.702 2.40822 -4.77398 0
M  V30 10320 C 999.002 0.267293 -5.21616 0
M  V30 10321 H 1000.7 -0.125117 -2.99138 0
M  V30 10322 H 998.242 -0.0616152 -1.43868 0
M  V30 10323 H 1000.19 2.2427 -3.56765 0
M  V30 10324 H 998.919 2.29272 -2.32598 0
M  V30 10325 H 997.578 0.595634 -3.61729 0
M  V30 10326 H 997.226 3.04088 -4.00674 0
M  V30 10327 H 996.926 2.09852 -5.48849 0
M  V30 10328 H 998.45 3.01378 -5.3104 0
M  V30 10329 H 999.864 0.772734 -5.68068 0
M  V30 10330 H 998.261 0.0491991 -6.0008 0
M  V30 10331 H 999.331 -0.694892 -4.79895 0
M  V30 10332 N 1000.67 1.57404 -0.0785433 0
M  V30 10333 C 1001.95 1.85163 0.630389 0
M  V30 10334 C 1002.33 0.972295 1.87376 0
M  V30 10335 O 1001.68 0.0403375 2.28464 0
M  V30 10336 C 1001.89 3.35491 0.961604 0
M  V30 10337 C 1003.24 4.0316 1.33219 0
M  V30 10338 O 1004.26 3.40276 1.05313 0
M  V30 10339 O 1003.12 5.14086 1.85412 0
M  V30 10340 H 1000.21 0.765169 0.31376 0
M  V30 10341 H 1002.76 1.69343 -0.109986 0
M  V30 10342 H 1001.53 3.91221 0.0788113 0
M  V30 10343 H 1001.15 3.56598 1.75852 0
M  V30 10344 N 1002.15 -0.195058 1.56388 0
M  V30 10345 C 1003.4 -0.913636 1.8027 0
M  V30 10346 C 1003.72 -1.83791 0.651606 0
M  V30 10347 O 1002.99 -1.931 -0.330057 0
M  V30 10348 H 1001.57 -0.34036 0.664954 0
M  V30 10349 H 1004.23 -0.200559 1.93865 0
M  V30 10350 H 1003.33 -1.50473 2.7343 0
M  V30 10351 N 1003.63 -1.50653 -0.462772 0
M  V30 10352 C 1004.58 -1.66509 -1.55752 0
M  V30 10353 C 1005.56 -0.519508 -1.52282 0
M  V30 10354 O 1006.76 -0.774296 -1.59166 0
M  V30 10355 C 1003.88 -1.77023 -2.94139 0
M  V30 10356 C 1002.97 -2.97284 -3.02461 0
M  V30 10357 N 1003.36 -4.20843 -2.80579 0
M  V30 10358 C 1001.66 -2.96014 -3.33604 0
M  V30 10359 C 1002.36 -5.01886 -2.94084 0
M  V30 10360 N 1001.34 -4.3601 -3.24648 0
M  V30 10361 H 1005.14 -2.59727 -1.37546 0
M  V30 10362 H 1002.65 -1.47951 -0.669653 0
M  V30 10363 H 1004.65 -1.86488 -3.72864 0
M  V30 10364 H 1003.31 -0.849688 -3.13385 0
M  V30 10365 H 1004.32 -4.50206 -2.55998 0
M  V30 10366 H 1001 -2.13493 -3.58786 0
M  V30 10367 H 1002.39 -6.10164 -2.81334 0
M  V30 10368 N 1005.11 0.71652 -1.4037 0
M  V30 10369 C 1006.52 1.02447 -1.22379 0
M  V30 10370 C 1006.72 2.0126 -0.0983394 0
M  V30 10371 O 1005.78 2.46569 0.544071 0
M  V30 10372 C 1007.09 1.56909 -2.56515 0
M  V30 10373 C 1008.64 1.68898 -2.6352 0
M  V30 10374 C 1009.12 2.26765 -3.97922 0
M  V30 10375 N 1010.61 2.34152 -3.99658 0
M  V30 10376 C 1011.34 2.79907 -5.00439 0
M  V30 10377 N 1010.84 3.25422 -6.11615 0
M  V30 10378 N 1012.63 2.79283 -4.87809 0
M  V30 10379 H 1004.78 0.0615306 -2.12311 0
M  V30 10380 H 1007.05 0.0898994 -0.943728 0
M  V30 10381 H 1006.75 0.917649 -3.39517 0
M  V30 10382 H 1006.63 2.55446 -2.77538 0
M  V30 10383 H 1009.01 2.33159 -1.8089 0
M  V30 10384 H 1009.09 0.689626 -2.46329 0
M  V30 10385 H 1008.74 1.63126 -4.80991 0
M  V30 10386 H 1008.67 3.27413 -4.12442 0
M  V30 10387 H 1011.16 2.02006 -3.19378 0
M  V30 10388 H 1011.47 3.58899 -6.84406 0
M  V30 10389 H 1009.82 3.23383 -6.15181 0
M  V30 10390 H 1013.01 2.43061 -4.00049 0
M  V30 10391 H 1013.18 3.14626 -5.66493 0
M  V30 10392 N 1006.59 1.25851 0.948643 0
M  V30 10393 C 1007.81 1.13711 1.72851 0
M  V30 10394 C 1008.23 -0.308471 1.86263 0
M  V30 10395 O 1007.59 -1.21175 1.36465 0
M  V30 10396 C 1007.64 1.79271 3.13918 0
M  V30 10397 O 1007.36 3.18179 3.01154 0
M  V30 10398 C 1008.86 1.72988 4.08154 0
M  V30 10399 H 1006.08 0.396334 0.541443 0
M  V30 10400 H 1008.62 1.66329 1.18974 0
M  V30 10401 H 1006.78 1.30609 3.64719 0
M  V30 10402 H 1007.19 3.50507 3.90186 0
M  V30 10403 H 1008.67 2.2351 5.04725 0
M  V30 10404 H 1009.14 0.694866 4.33668 0
M  V30 10405 H 1009.75 2.21166 3.63271 0
M  V30 10406 N 1008.06 -1.15214 1.07534 0
M  V30 10407 C 1009.48 -1.38031 0.801228 0
M  V30 10408 C 1009.68 -1.92556 -0.593672 0
M  V30 10409 O 1008.74 -2.1325 -1.35206 0
M  V30 10410 C 1010.05 -2.34958 1.87657 0
M  V30 10411 C 1011.6 -2.48617 1.90154 0
M  V30 10412 C 1012.07 -3.48837 2.96777 0
M  V30 10413 N 1013.56 -3.56374 2.95892 0
M  V30 10414 C 1014.3 -4.33746 3.75036 0
M  V30 10415 N 1013.79 -5.14435 4.64036 0
M  V30 10416 N 1015.59 -4.28853 3.63375 0
M  V30 10417 H 1007.74 -0.781639 1.97495 0
M  V30 10418 H 1010 -0.406243 0.856546 0
M  V30 10419 H 1009.71 -2.02013 2.87895 0
M  V30 10420 H 1009.58 -3.3476 1.73827 0
M  V30 10421 H 1011.97 -2.80859 0.905666 0
M  V30 10422 H 1012.05 -1.48808 2.08062 0
M  V30 10423 H 1011.69 -3.1733 3.96565 0
M  V30 10424 H 1011.62 -4.48406 2.76116 0
M  V30 10425 H 1014.11 -2.98784 2.31379 0
M  V30 10426 H 1014.43 -5.70722 5.21053 0
M  V30 10427 H 1012.77 -5.13734 4.68084 0
M  V30 10428 H 1015.96 -3.64882 2.93221 0
M  V30 10429 H 1016.14 -4.88903 4.25298 0
M  V30 10430 N 1009.54 -0.859717 -1.32086 0
M  V30 10431 C 1010.96 -0.55025 -1.49815 0
M  V30 10432 C 1011.16 0.917966 -1.79376 0
M  V30 10433 O 1010.21 1.70073 -1.86632 0
M  V30 10434 C 1011.53 -1.44161 -2.6389 0
M  V30 10435 C 1013.08 -1.44257 -2.77775 0
M  V30 10436 C 1013.55 -2.31926 -3.94936 0
M  V30 10437 N 1015.04 -2.2975 -4.02206 0
M  V30 10438 C 1015.78 -2.9431 -4.92107 0
M  V30 10439 N 1015.27 -3.68001 -5.86981 0
M  V30 10440 N 1017.07 -2.83671 -4.8527 0
M  V30 10441 H 1009.22 -1.80987 -1.11164 0
M  V30 10442 H 1011.48 -0.773313 -0.548353 0
M  V30 10443 H 1011.19 -2.48588 -2.4879 0
M  V30 10444 H 1011.06 -1.13268 -3.59792 0
M  V30 10445 H 1013.45 -0.405923 -2.92295 0
M  V30 10446 H 1013.53 -1.79169 -1.82571 0
M  V30 10447 H 1013.17 -3.35661 -3.81174 0
M  V30 10448 H 1013.1 -1.94344 -4.89426 0
M  V30 10449 H 1015.59 -1.76177 -3.3432 0
M  V30 10450 H 1015.91 -4.14417 -6.52287 0
M  V30 10451 H 1014.25 -3.72109 -5.86992 0
M  V30 10452 H 1017.44 -2.25647 -4.10123 0
M  V30 10453 H 1017.61 -3.34267 -5.5513 0
M  V30 10454 N 1011.02 1.44971 -0.618145 0
M  V30 10455 C 1012.44 1.57077 -0.282666 0
M  V30 10456 C 1012.64 1.60782 1.21456 0
M  V30 10457 O 1011.69 1.54382 1.99806 0
M  V30 10458 C 1013.01 2.84858 -0.963148 0
M  V30 10459 C 1014.55 2.9855 -0.940062 0
M  V30 10460 C 1015.03 4.29115 -1.60076 0
M  V30 10461 N 1016.52 4.35899 -1.56674 0
M  V30 10462 C 1017.25 5.35617 -2.04701 0
M  V30 10463 N 1016.75 6.41813 -2.6086 0
M  V30 10464 N 1018.54 5.27042 -1.95406 0
M  V30 10465 H 1010.69 1.4081 -1.59017 0
M  V30 10466 H 1012.96 0.673914 -0.666741 0
M  V30 10467 H 1012.66 2.88059 -2.0178 0
M  V30 10468 H 1012.54 3.73966 -0.492901 0
M  V30 10469 H 1014.92 2.94909 0.10607 0
M  V30 10470 H 1015.01 2.10825 -1.44868 0
M  V30 10471 H 1014.65 4.33514 -2.64627 0
M  V30 10472 H 1014.58 5.15675 -1.06708 0
M  V30 10473 H 1017.07 3.59766 -1.15659 0
M  V30 10474 H 1017.38 7.14166 -2.95273 0
M  V30 10475 H 1015.73 6.42534 -2.64905 0
M  V30 10476 H 1018.92 4.42987 -1.51263 0
M  V30 10477 H 1019.09 6.04604 -2.33147 0
M  V30 10478 N 1012.5 0.357919 1.53482 0
M  V30 10479 C 1013.75 -0.2337 2.00744 0
M  V30 10480 C 1014.07 -1.49908 1.2471 0
M  V30 10481 O 1013.34 -1.92597 0.358235 0
M  V30 10482 H 1011.92 -0.0893474 0.741637 0
M  V30 10483 H 1014.58 0.482388 1.88836 0
M  V30 10484 H 1013.68 -0.466073 3.086 0
M  V30 10485 N 1013.98 -1.5736 0.0868897 0
M  V30 10486 C 1014.91 -2.16596 -0.872252 0
M  V30 10487 C 1015.89 -1.09706 -1.29995 0
M  V30 10488 O 1017.07 -1.37808 -1.36831 0
M  V30 10489 C 1014.2 -2.73972 -2.1344 0
M  V30 10490 C 1013.16 -3.86163 -1.8456 0
M  V30 10491 C 1012.48 -4.30206 -3.17533 0
M  V30 10492 C 1013.78 -5.0973 -1.13899 0
M  V30 10493 H 1015.48 -2.96995 -0.378738 0
M  V30 10494 H 1013.02 -1.42861 -0.18073 0
M  V30 10495 H 1014.98 -3.14062 -2.80968 0
M  V30 10496 H 1013.7 -1.90817 -2.6506 0
M  V30 10497 H 1012.36 -3.466 -1.19432 0
M  V30 10498 H 1012.01 -3.43951 -3.67024 0
M  V30 10499 H 1011.71 -5.05841 -2.98996 0
M  V30 10500 H 1013.23 -4.72922 -3.86234 0
M  V30 10501 H 1014.64 -5.4704 -1.71523 0
M  V30 10502 H 1013.04 -5.90741 -1.05569 0
M  V30 10503 H 1014.11 -4.8475 -0.120432 0
M  V30 10504 N 1015.45 0.186762 -1.56489 0
M  V30 10505 C 1016.7 0.905852 -1.81109 0
M  V30 10506 C 1017.03 1.82906 -0.661477 0
M  V30 10507 O 1016.28 1.92504 0.35226 0
M  V30 10508 C 1016.58 1.74719 -3.11782 0
M  V30 10509 C 1016.25 0.974238 -4.40249 0
M  V30 10510 C 1014.91 0.760856 -4.75147 0
M  V30 10511 C 1017.26 0.430971 -5.19415 0
M  V30 10512 C 1014.59 -0.00714216 -5.867 0
M  V30 10513 C 1016.94 -0.323859 -6.3177 0
M  V30 10514 C 1015.61 -0.548183 -6.65245 0
M  V30 10515 H 1014.88 0.331475 -0.662726 0
M  V30 10516 H 1017.52 0.171703 -1.90729 0
M  V30 10517 H 1015.83 2.55027 -2.97437 0
M  V30 10518 H 1017.53 2.30634 -3.28038 0
M  V30 10519 H 1014.12 1.15057 -4.12868 0
M  V30 10520 H 1018.3 0.583205 -4.92861 0
M  V30 10521 H 1013.56 -0.190832 -6.11102 0
M  V30 10522 H 1017.73 -0.752155 -6.92326 0
M  V30 10523 H 1015.36 -1.14518 -7.51525 0
M  V30 10524 N 1016.93 1.50896 0.454776 0
M  V30 10525 C 1018.34 1.55372 1.0352 0
M  V30 10526 C 1018.69 0.366822 1.9274 0
M  V30 10527 O 1017.82 -0.518444 2.10098 0
M  V30 10528 C 1018.41 2.81574 1.88418 0
M  V30 10529 C 1016.97 2.88679 2.4154 0
M  V30 10530 C 1016.12 2.49847 1.20298 0
M  V30 10531 H 1019.07 1.56924 0.236729 0
M  V30 10532 H 1019.09 2.64352 2.73676 0
M  V30 10533 H 1018.6 3.67941 1.23455 0
M  V30 10534 H 1016.71 2.06702 3.10008 0
M  V30 10535 H 1016.82 3.91944 2.7553 0
M  V30 10536 H 1015.18 2.02651 1.54288 0
M  V30 10537 H 1015.97 3.3854 0.569723 0
M  V30 10538 N 1018.41 -0.709066 1.40748 0
M  V30 10539 C 1019.66 -1.46611 1.39103 0
M  V30 10540 C 1019.98 -1.95 -0.00365366 0
M  V30 10541 O 1019.25 -1.70791 -0.959541 0
M  V30 10542 H 1017.83 -0.543954 0.511979 0
M  V30 10543 H 1020.49 -0.840141 1.75863 0
M  V30 10544 H 1019.59 -2.33581 2.06994 0
M  V30 10545 N 1019.89 -1.26353 -0.941956 0
M  V30 10546 C 1021.14 -1.1163 -1.68473 0
M  V30 10547 C 1021.46 0.34108 -1.91994 0
M  V30 10548 O 1020.73 1.24065 -1.51607 0
M  V30 10549 H 1019.31 -0.410113 -0.624353 0
M  V30 10550 H 1021.97 -1.58669 -1.13182 0
M  V30 10551 H 1021.07 -1.63445 -2.6588 0
M  V30 10552 N 1021.37 1.14642 -1.08144 0
M  V30 10553 C 1022.78 1.37604 -0.808537 0
M  V30 10554 C 1022.98 1.92868 0.583452 0
M  V30 10555 O 1022.04 2.13964 1.34073 0
M  V30 10556 C 1023.35 2.3396 -1.889 0
M  V30 10557 C 1024.9 2.47605 -1.9147 0
M  V30 10558 C 1025.38 3.47258 -2.98623 0
M  V30 10559 N 1026.87 3.548 -2.97777 0
M  V30 10560 C 1027.6 4.31751 -3.77331 0
M  V30 10561 N 1027.1 5.11966 -4.66757 0
M  V30 10562 N 1028.89 4.2692 -3.65645 0
M  V30 10563 H 1021.04 0.771154 -1.97906 0
M  V30 10564 H 1023.3 0.401694 -0.858688 0
M  V30 10565 H 1023.01 2.00484 -2.88962 0
M  V30 10566 H 1022.88 3.33833 -1.756 0
M  V30 10567 H 1025.27 2.80375 -0.920548 0
M  V30 10568 H 1025.35 1.47702 -2.08848 0
M  V30 10569 H 1025 3.15223 -3.98243 0
M  V30 10570 H 1024.93 4.46935 -2.7849 0
M  V30 10571 H 1027.42 2.97553 -2.3296 0
M  V30 10572 H 1027.73 5.67951 -5.24072 0
M  V30 10573 H 1026.08 5.11245 -4.70801 0
M  V30 10574 H 1029.27 3.63322 -2.95152 0
M  V30 10575 H 1029.44 4.8664 -4.27885 0
M  V30 10576 N 1022.85 0.866709 1.31628 0
M  V30 10577 C 1023.8 0.291712 2.26126 0
M  V30 10578 C 1024.78 -0.569375 1.50489 0
M  V30 10579 O 1025.97 -0.416786 1.72023 0
M  V30 10580 C 1023.1 -0.508624 3.39511 0
M  V30 10581 C 1022.19 0.365524 4.22522 0
M  V30 10582 N 1022.58 1.45747 4.84346 0
M  V30 10583 C 1020.88 0.157384 4.45722 0
M  V30 10584 C 1021.58 1.99625 5.46374 0
M  V30 10585 N 1020.55 1.29371 5.27981 0
M  V30 10586 H 1024.35 1.12633 2.71461 0
M  V30 10587 H 1021.87 0.714118 1.45857 0
M  V30 10588 H 1023.87 -0.937057 4.06233 0
M  V30 10589 H 1022.53 -1.34089 2.9572 0
M  V30 10590 H 1023.54 1.84039 4.84097 0
M  V30 10591 H 1020.21 -0.639193 4.12578 0
M  V30 10592 H 1021.6 2.91222 6.05508 0
M  V30 10593 N 1024.32 -1.44642 0.625825 0
M  V30 10594 C 1025.23 -2.34451 -0.0836134 0
M  V30 10595 C 1026.25 -1.5231 -0.841289 0
M  V30 10596 O 1027.43 -1.85056 -0.794754 0
M  V30 10597 C 1024.49 -3.30211 -1.05648 0
M  V30 10598 C 1023.55 -4.28259 -0.298759 0
M  V30 10599 C 1022.78 -5.19444 -1.22528 0
M  V30 10600 O 1023.01 -5.14444 -2.46382 0
M  V30 10601 O 1021.94 -5.97668 -0.71247 0
M  V30 10602 H 1025.77 -2.96555 0.654912 0
M  V30 10603 H 1023.35 -1.44327 0.386029 0
M  V30 10604 H 1025.23 -3.8917 -1.61632 0
M  V30 10605 H 1023.91 -2.70648 -1.77571 0
M  V30 10606 H 1022.82 -3.72863 0.304001 0
M  V30 10607 H 1024.15 -4.90728 0.380345 0
M  V30 10608 N 1025.8 -0.366053 -1.5329 0
M  V30 10609 C 1026.73 0.47211 -2.28677 0
M  V30 10610 C 1027.71 1.08353 -1.31125 0
M  V30 10611 O 1028.9 1.10069 -1.59995 0
M  V30 10612 C 1026.03 1.61174 -3.07637 0
M  V30 10613 C 1024.98 1.12755 -4.12881 0
M  V30 10614 C 1024.31 2.35745 -4.79925 0
M  V30 10615 C 1025.61 0.211954 -5.2187 0
M  V30 10616 H 1027.3 -0.156838 -2.98989 0
M  V30 10617 H 1024.85 -0.0768709 -1.43795 0
M  V30 10618 H 1026.8 2.20473 -3.59123 0
M  V30 10619 H 1025.52 2.26793 -2.35016 0
M  V30 10620 H 1024.18 0.557234 -3.6234 0
M  V30 10621 H 1023.83 2.99821 -4.03877 0
M  V30 10622 H 1023.53 2.04019 -5.51044 0
M  V30 10623 H 1025.06 2.95729 -5.34207 0
M  V30 10624 H 1026.47 0.71244 -5.68856 0
M  V30 10625 H 1024.87 -0.0144501 -6.00098 0
M  V30 10626 H 1025.94 -0.745753 -4.79131 0
M  V30 10627 N 1027.28 1.57312 -0.0952337 0
M  V30 10628 C 1028.7 1.57445 0.261416 0
M  V30 10629 C 1028.9 1.10639 1.68408 0
M  V30 10630 O 1027.95 0.782912 2.40056 0
M  V30 10631 C 1029.26 3.00659 0.0497206 0
M  V30 10632 C 1030.81 3.1278 0.117459 0
M  V30 10633 C 1031.29 4.57952 -0.0662441 0
M  V30 10634 N 1032.78 4.63199 -0.0114146 0
M  V30 10635 C 1033.51 5.73255 -0.128799 0
M  V30 10636 N 1033.01 6.92146 -0.301026 0
M  V30 10637 N 1034.8 5.62056 -0.0700599 0
M  V30 10638 H 1026.95 1.86045 -1.02475 0
M  V30 10639 H 1029.22 0.858726 -0.401614 0
M  V30 10640 H 1028.92 3.39102 -0.932888 0
M  V30 10641 H 1028.8 3.68792 0.791975 0
M  V30 10642 H 1031.18 2.74209 1.09057 0
M  V30 10643 H 1031.26 2.47238 -0.656288 0
M  V30 10644 H 1030.91 4.97217 -1.03623 0
M  V30 10645 H 1030.84 5.21555 0.727198 0
M  V30 10646 H 1033.33 3.77712 0.119154 0
M  V30 10647 H 1033.64 7.71855 -0.382104 0
M  V30 10648 H 1031.99 6.94184 -0.336695 0
M  V30 10649 H 1035.18 4.68057 0.0633587 0
M  V30 10650 H 1035.35 6.4779 -0.164991 0
M  V30 10651 N 1028.76 -0.17846 1.56586 0
M  V30 10652 C 1030.17 -0.529957 1.50544 0
M  V30 10653 C 1030.37 -1.85015 0.798237 0
M  V30 10654 O 1029.43 -2.49983 0.355639 0
M  V30 10655 C 1030.74 -0.569314 2.95261 0
M  V30 10656 C 1032.29 -0.657008 3.06027 0
M  V30 10657 C 1032.77 -0.727323 4.52188 0
M  V30 10658 N 1034.26 -0.790406 4.56406 0
M  V30 10659 C 1034.99 -0.865265 5.66834 0
M  V30 10660 N 1034.49 -0.901398 6.86911 0
M  V30 10661 N 1036.28 -0.903736 5.54787 0
M  V30 10662 H 1028.43 0.687304 2.00972 0
M  V30 10663 H 1030.69 0.246936 0.915274 0
M  V30 10664 H 1030.4 0.331934 3.5013 0
M  V30 10665 H 1030.27 -1.41828 3.4952 0
M  V30 10666 H 1032.66 -1.54868 2.51197 0
M  V30 10667 H 1032.74 0.218495 2.54865 0
M  V30 10668 H 1032.39 0.160067 5.07648 0
M  V30 10669 H 1032.32 -1.61887 5.01099 0
M  V30 10670 H 1034.81 -0.771054 3.6995 0
M  V30 10671 H 1035.12 -0.959494 7.6682 0
M  V30 10672 H 1033.47 -0.869795 6.89536 0
M  V30 10673 H 1036.66 -0.872459 4.59898 0
M  V30 10674 H 1036.83 -0.958615 6.4087 0
M  V30 10675 N 1030.24 -1.51135 -0.446768 0
M  V30 10676 C 1031.18 -1.72328 -1.56224 0
M  V30 10677 C 1032.18 -0.589411 -1.58815 0
M  V30 10678 O 1033.38 -0.770554 -1.62673 0
M  V30 10679 H 1029.76 -0.544339 -0.518844 0
M  V30 10680 H 1031.73 -2.65851 -1.3552 0
M  V30 10681 C 1030.48 -1.85686 -2.93966 0
M  V30 10682 H 1029.8 -2.72336 -2.927 0
M  V30 10683 H 1031.24 -2.0453 -3.71407 0
M  V30 10684 C 1029.7 -0.614328 -3.31252 0
M  V30 10685 O 1030.23 0.235369 -4.0101 0
M  V30 10686 N 1028.44 -0.461181 -2.86917 0
M  V30 10687 H 1027.98 -1.15369 -2.30321 0
M  V30 10688 H 1027.94 0.368966 -3.12227 0
M  V30 10689 N 1031.71 0.701592 -1.41122 0
M  V30 10690 C 1032.96 1.45722 -1.39456 0
M  V30 10691 C 1033.28 1.95599 -0.00475228 0
M  V30 10692 O 1034.48 2.71166 0.134529 0
M  V30 10693 C 1032.94 2.63475 -2.45172 0
M  V30 10694 C 1032.55 2.20409 -3.90031 0
M  V30 10695 C 1034.29 3.4114 -2.52633 0
M  V30 10696 C 1032.2 3.35084 -4.87312 0
M  V30 10697 H 1031.13 0.547341 -0.518588 0
M  V30 10698 H 1033.78 0.762233 -1.6692 0
M  V30 10699 H 1032.16 3.35212 -2.10829 0
M  V30 10700 H 1033.33 1.56 -4.3359 0
M  V30 10701 H 1031.65 1.55752 -3.86174 0
M  V30 10702 H 1034.25 4.26496 -3.22498 0
M  V30 10703 H 1034.59 3.85915 -1.56125 0
M  V30 10704 H 1035.12 2.76456 -2.86037 0
M  V30 10705 H 1031.86 2.95327 -5.85203 0
M  V30 10706 H 1031.38 3.98362 -4.48406 0
M  V30 10707 H 1033.06 4.00949 -5.07788 0
M  V30 10708 N 1033.19 1.2685 0.935242 0
M  V30 10709 C 1034.15 1.08975 2.01636 0
M  V30 10710 C 1035.15 0.0361543 1.60759 0
M  V30 10711 O 1036.34 0.280087 1.71934 0
M  V30 10712 C 1033.48 0.658831 3.34473 0
M  V30 10713 H 1034.67 2.04968 2.18925 0
M  V30 10714 H 1032.22 1.09531 1.11501 0
M  V30 10715 H 1032.96 -0.302824 3.22883 0
M  V30 10716 H 1032.74 1.41967 3.65497 0
M  V30 10717 H 1034.23 0.555783 4.13885 0
M  V30 10718 N 1034.67 -1.14067 1.0875 0
M  V30 10719 C 1035.92 -1.85459 0.82053 0
M  V30 10720 C 1036.25 -1.82923 -0.65213 0
M  V30 10721 O 1035.52 -1.26241 -1.47965 0
M  V30 10722 C 1035.81 -3.33937 1.34752 0
M  V30 10723 C 1035.66 -3.45026 2.88578 0
M  V30 10724 C 1036.98 -4.2915 0.975636 0
M  V30 10725 H 1034.1 -0.673384 0.299538 0
M  V30 10726 H 1036.74 -1.33927 1.34772 0
M  V30 10727 H 1034.89 -3.77953 0.899086 0
M  V30 10728 H 1036.56 -3.09771 3.41818 0
M  V30 10729 H 1034.81 -2.86124 3.26061 0
M  V30 10730 H 1035.48 -4.49408 3.20526 0
M  V30 10731 H 1037.95 -3.93168 1.36228 0
M  V30 10732 H 1036.83 -5.31489 1.37152 0
M  V30 10733 H 1037.09 -4.41945 -0.116956 0
M  V30 10734 N 1036.15 -0.873678 -1.31166 0
M  V30 10735 C 1037.38 -0.501043 -2.00742 0
M  V30 10736 C 1037.79 0.907477 -1.65561 0
M  V30 10737 O 1037.15 1.59507 -0.886771 0
M  V30 10738 C 1037.2 -0.652877 -3.55556 0
M  V30 10739 O 1036.92 -2.00593 -3.89479 0
M  V30 10740 C 1038.42 -0.281742 -4.42404 0
M  V30 10741 H 1035.64 -0.194829 -0.642092 0
M  V30 10742 H 1038.19 -1.17587 -1.67313 0
M  V30 10743 H 1036.34 -0.0255627 -3.87392 0
M  V30 10744 H 1036.75 -2.01638 -4.84193 0
M  V30 10745 H 1038.23 -0.43892 -5.50252 0
M  V30 10746 H 1038.71 0.779389 -4.32229 0
M  V30 10747 H 1039.31 -0.88491 -4.15992 0
M  V30 10748 N 1037.63 1.44308 -0.633487 0
M  V30 10749 C 1038.85 2.06384 -0.146063 0
M  V30 10750 C 1039.27 1.47357 1.18031 0
M  V30 10751 O 1038.63 0.597334 1.72448 0
M  V30 10752 C 1038.68 3.61489 -0.0276722 0
M  V30 10753 O 1038.4 4.18318 -1.3016 0
M  V30 10754 C 1039.9 4.40604 0.488168 0
M  V30 10755 H 1037.12 0.666122 -0.0807632 0
M  V30 10756 H 1039.66 1.85139 -0.868557 0
M  V30 10757 H 1037.82 3.81988 0.645273 0
M  V30 10758 H 1038.23 5.11783 -1.14797 0
M  V30 10759 H 1039.71 5.49545 0.520013 0
M  V30 10760 H 1040.18 4.12218 1.51568 0
M  V30 10761 H 1040.79 4.2503 -0.151608 0
M  V30 10762 N 1039.1 0.374177 1.53094 0
M  V30 10763 C 1040.33 -0.215903 2.06273 0
M  V30 10764 C 1040.75 -1.40979 1.24526 0
M  V30 10765 O 1040.11 -1.79331 0.266462 0
M  V30 10766 C 1040.16 -0.579089 3.5592 0
M  V30 10767 O 1039.26 -1.67516 3.76845 0
M  V30 10768 H 1038.61 -0.0293981 0.663349 0
M  V30 10769 H 1041.14 0.537271 1.9742 0
M  V30 10770 H 1041.15 -0.847678 3.99097 0
M  V30 10771 H 1039.82 0.293843 4.14861 0
M  V30 10772 H 1038.4 -1.40146 3.45563 0
M  V30 10773 N 1040.58 -1.57259 0.103575 0
M  V30 10774 C 1041.52 -2.10165 -0.889141 0
M  V30 10775 C 1042.49 -1.01426 -1.27089 0
M  V30 10776 O 1043.68 -1.2898 -1.37465 0
M  V30 10777 C 1040.8 -2.58564 -2.18774 0
M  V30 10778 C 1039.85 -3.79043 -1.95522 0
M  V30 10779 S 1040.68 -5.22213 -1.18551 0
M  V30 10780 C 1041.84 -5.73968 -2.49623 0
M  V30 10781 H 1042.07 -2.9404 -0.439083 0
M  V30 10782 H 1039.61 -1.54008 -0.10989 0
M  V30 10783 H 1041.56 -2.87106 -2.93395 0
M  V30 10784 H 1040.22 -1.749 -2.609 0
M  V30 10785 H 1039.42 -4.11004 -2.91705 0
M  V30 10786 H 1039.02 -3.51038 -1.29028 0
M  V30 10787 H 1041.31 -5.82752 -3.45553 0
M  V30 10788 H 1042.25 -6.72324 -2.22229 0
M  V30 10789 H 1042.66 -5.01946 -2.58284 0
M  V30 10790 N 1042.06 0.170153 -1.56679 0
M  V30 10791 C 1043.29 0.90618 -1.86556 0
M  V30 10792 C 1043.71 1.74986 -0.690044 0
M  V30 10793 O 1043.07 1.77672 0.360862 0
M  V30 10794 C 1043.12 1.75777 -3.14857 0
M  V30 10795 O 1042.22 2.85952 -2.97162 0
M  V30 10796 H 1041.56 0.253781 -0.613589 0
M  V30 10797 H 1044.09 0.167943 -2.0391 0
M  V30 10798 H 1044.1 2.15747 -3.46291 0
M  V30 10799 H 1042.78 1.13807 -4.00026 0
M  V30 10800 H 1041.35 2.49557 -2.77084 0
M  V30 10801 N 1043.54 1.5137 0.438746 0
M  V30 10802 C 1044.78 1.65627 1.19779 0
M  V30 10803 C 1045.14 0.363885 1.8852 0
M  V30 10804 O 1046.34 0.382215 2.66069 0
M  V30 10805 C 1044.61 2.82536 2.18879 0
M  V30 10806 S 1046.17 3.17113 3.0329 0
M  V30 10807 H 1042.99 0.583535 0.406212 0
M  V30 10808 H 1045.59 1.89271 0.489582 0
M  V30 10809 H 1044.3 3.74879 1.67015 0
M  V30 10810 H 1043.83 2.61077 2.94283 0
M  V30 10811 H 1045.84 2.63439 4.20493 0
M  V30 10812 N 1045.02 -0.694098 1.41492 0
M  V30 10813 C 1046.24 -1.48286 1.44288 0
M  V30 10814 C 1046.66 -1.88737 0.0485783 0
M  V30 10815 O 1046.02 -1.56881 -0.932449 0
M  V30 10816 C 1046.07 -2.74446 2.3529 0
M  V30 10817 O 1045.79 -2.35698 3.69294 0
M  V30 10818 C 1047.29 -3.68175 2.46905 0
M  V30 10819 H 1044.51 -0.45692 0.491391 0
M  V30 10820 H 1047.05 -0.854477 1.85793 0
M  V30 10821 H 1045.21 -3.33518 1.9709 0
M  V30 10822 H 1045.62 -3.17029 4.17843 0
M  V30 10823 H 1047.1 -4.53476 3.14743 0
M  V30 10824 H 1047.57 -4.12763 1.50078 0
M  V30 10825 H 1048.18 -3.15006 2.85747 0
M  V30 10826 N 1046.49 -1.27344 -0.928501 0
M  V30 10827 C 1047.77 -1.04362 -1.65433 0
M  V30 10828 C 1048.15 0.421896 -2.06841 0
M  V30 10829 O 1047.5 1.40496 -1.80203 0
M  V30 10830 C 1047.71 -2.00442 -2.85699 0
M  V30 10831 C 1049.06 -2.29767 -3.57061 0
M  V30 10832 O 1050.08 -1.98409 -2.95825 0
M  V30 10833 O 1048.94 -2.83217 -4.67387 0
M  V30 10834 H 1046.03 -0.397783 -0.72505 0
M  V30 10835 H 1048.58 -1.38606 -0.979109 0
M  V30 10836 H 1047.35 -2.99281 -2.52085 0
M  V30 10837 H 1046.98 -1.66755 -3.60941 0
M  V30 10838 N 1047.97 1.13488 -1.09353 0
M  V30 10839 C 1049.22 1.84748 -0.829126 0
M  V30 10840 C 1049.55 1.83485 0.645247 0
M  V30 10841 O 1048.8 1.26767 1.49093 0
M  V30 10842 C 1049.1 3.32584 -1.30854 0
M  V30 10843 C 1048.77 3.54028 -2.7924 0
M  V30 10844 C 1047.43 3.59588 -3.19765 0
M  V30 10845 C 1049.78 3.62058 -3.74918 0
M  V30 10846 C 1047.11 3.70712 -4.54741 0
M  V30 10847 C 1049.46 3.7471 -5.09682 0
M  V30 10848 C 1048.13 3.78523 -5.49797 0
M  V30 10849 H 1047.4 0.67604 -0.303399 0
M  V30 10850 H 1050.04 1.33989 -1.36818 0
M  V30 10851 H 1048.35 3.85689 -0.689275 0
M  V30 10852 H 1050.04 3.86166 -1.08059 0
M  V30 10853 H 1046.63 3.50354 -2.4688 0
M  V30 10854 H 1050.82 3.57043 -3.44723 0
M  V30 10855 H 1046.07 3.71931 -4.8526 0
M  V30 10856 H 1050.25 3.79866 -5.83674 0
M  V30 10857 H 1047.88 3.86895 -6.54382 0
M  V30 10858 N 1049.45 0.880621 1.30701 0
M  V30 10859 C 1050.68 0.510909 2.01009 0
M  V30 10860 C 1051.1 -0.892041 1.65603 0
M  V30 10861 O 1050.46 -1.59045 0.870309 0
M  V30 10862 C 1050.51 0.687759 3.53981 0
M  V30 10863 O 1049.61 -0.268275 4.11526 0
M  V30 10864 H 1048.95 0.201864 0.632572 0
M  V30 10865 H 1051.48 1.18697 1.6665 0
M  V30 10866 H 1051.49 0.585095 4.03783 0
M  V30 10867 H 1050.17 1.71068 3.79089 0
M  V30 10868 H 1048.74 -0.119673 3.72708 0
M  V30 10869 N 1050.93 -1.4397 0.641131 0
M  V30 10870 C 1052.18 -2.01946 0.149629 0
M  V30 10871 C 1052.5 -1.50496 -1.23212 0
M  V30 10872 O 1051.76 -0.683453 -1.83378 0
M  V30 10873 C 1052.06 -3.5727 0.0963368 0
M  V30 10874 C 1051.72 -4.28016 1.4182 0
M  V30 10875 C 1050.39 -4.47059 1.78021 0
M  V30 10876 C 1052.74 -4.68183 2.29028 0
M  V30 10877 C 1050.07 -5.03532 3.01119 0
M  V30 10878 C 1052.42 -5.26019 3.51406 0
M  V30 10879 C 1051.08 -5.4328 3.87818 0
M  V30 10880 H 1050.35 -0.738974 0.0547531 0
M  V30 10881 H 1053 -1.72605 0.829436 0
M  V30 10882 H 1051.3 -3.86083 -0.666879 0
M  V30 10883 H 1053 -3.99871 -0.300635 0
M  V30 10884 H 1049.59 -4.13531 1.12651 0
M  V30 10885 H 1053.78 -4.53175 2.02353 0
M  V30 10886 H 1049.03 -5.15082 3.29395 0
M  V30 10887 H 1053.21 -5.56092 4.19208 0
M  V30 10888 H 1050.83 -5.86805 4.83284 0
M  V30 10889 N 1052.41 -0.382291 -1.52893 0
M  V30 10890 C 1053.36 0.473026 -2.23039 0
M  V30 10891 C 1054.34 1.0353 -1.23168 0
M  V30 10892 O 1055.53 0.962566 -1.48538 0
M  V30 10893 C 1052.66 1.60349 -3.03551 0
M  V30 10894 C 1051.75 1.05329 -4.10812 0
M  V30 10895 N 1052.14 0.22746 -5.05288 0
M  V30 10896 C 1050.44 1.32648 -4.25818 0
M  V30 10897 C 1051.14 -0.0757032 -5.81651 0
M  V30 10898 N 1050.11 0.526387 -5.41045 0
M  V30 10899 H 1053.92 -0.164541 -2.93439 0
M  V30 10900 H 1051.43 -0.191211 -1.6127 0
M  V30 10901 H 1053.43 2.22858 -3.52335 0
M  V30 10902 H 1052.09 2.24394 -2.34685 0
M  V30 10903 H 1053.1 -0.134714 -5.17725 0
M  V30 10904 H 1049.78 1.96849 -3.6818 0
M  V30 10905 H 1051.17 -0.744375 -6.67764 0
M  V30 10906 N 1053.89 1.57202 -0.111913 0
M  V30 10907 C 1055.13 1.9495 0.547795 0
M  V30 10908 C 1055.46 0.994763 1.67137 0
M  V30 10909 O 1054.72 0.0173528 1.95692 0
M  V30 10910 C 1055.01 3.39152 1.12741 0
M  V30 10911 C 1054.68 4.50724 0.125916 0
M  V30 10912 C 1053.34 4.80968 -0.149489 0
M  V30 10913 C 1055.69 5.18215 -0.556987 0
M  V30 10914 C 1053.02 5.76023 -1.1142 0
M  V30 10915 C 1055.37 6.14307 -1.51029 0
M  V30 10916 C 1054.04 6.42947 -1.79375 0
M  V30 10917 H 1053.31 0.713372 0.200453 0
M  V30 10918 H 1055.96 1.90542 -0.191316 0
M  V30 10919 H 1054.26 3.4022 1.94313 0
M  V30 10920 H 1055.96 3.65668 1.64584 0
M  V30 10921 H 1052.55 4.27162 0.350756 0
M  V30 10922 H 1056.73 4.95012 -0.357378 0
M  V30 10923 H 1051.99 5.9652 -1.34064 0
M  V30 10924 H 1056.16 6.65692 -2.04516 0
M  V30 10925 H 1053.79 7.1641 -2.54284 0
M  V30 10926 N 1055.36 -0.161842 1.56767 0
M  V30 10927 C 1056.77 -0.723385 1.72116 0
M  V30 10928 C 1057.13 -1.82355 0.723961 0
M  V30 10929 O 1056.25 -2.16107 -0.112643 0
M  V30 10930 C 1056.85 -1.31895 3.12072 0
M  V30 10931 C 1055.4 -1.82722 3.29074 0
M  V30 10932 C 1054.55 -0.709863 2.6806 0
M  V30 10933 H 1057.5 0.0636647 1.58572 0
M  V30 10934 H 1057.52 -2.18871 3.11249 0
M  V30 10935 H 1057.04 -0.51801 3.84627 0
M  V30 10936 H 1055.14 -2.6543 2.61491 0
M  V30 10937 H 1055.25 -1.96614 4.36898 0
M  V30 10938 H 1053.61 -1.13273 2.28126 0
M  V30 10939 H 1054.4 0.0793884 3.43208 0
M  V30 10940 N 1056.84 -1.516 -0.430713 0
M  V30 10941 C 1058.09 -1.6484 -1.18134 0
M  V30 10942 C 1058.42 -0.366725 -1.90706 0
M  V30 10943 O 1057.7 0.63398 -1.83878 0
M  V30 10944 C 1057.98 -2.85617 -2.19306 0
M  V30 10945 C 1057.83 -4.23778 -1.50773 0
M  V30 10946 C 1059.15 -3.01909 -3.20217 0
M  V30 10947 H 1056.27 -0.599907 -0.428113 0
M  V30 10948 H 1058.91 -1.84102 -0.46973 0
M  V30 10949 H 1057.06 -2.69325 -2.79993 0
M  V30 10950 H 1058.73 -4.51752 -0.93371 0
M  V30 10951 H 1056.98 -4.26171 -0.809966 0
M  V30 10952 H 1057.65 -5.04291 -2.24487 0
M  V30 10953 H 1060.12 -3.16956 -2.69589 0
M  V30 10954 H 1059 -3.87968 -3.88293 0
M  V30 10955 H 1059.26 -2.1427 -3.86705 0
M  V30 10956 N 1058.32 0.686584 -1.41858 0
M  V30 10957 C 1059.56 1.45879 -1.43173 0
M  V30 10958 C 1059.92 1.91953 -0.0423059 0
M  V30 10959 O 1061.12 2.68709 0.069783 0
M  V30 10960 C 1059.4 2.63196 -2.41791 0
M  V30 10961 S 1060.95 3.52212 -2.6171 0
M  V30 10962 H 1057.77 0.498391 -0.507077 0
M  V30 10963 H 1060.37 0.800313 -1.78368 0
M  V30 10964 H 1059.08 2.27566 -3.41529 0
M  V30 10965 H 1058.61 3.33928 -2.0798 0
M  V30 10966 H 1060.62 4.58744 -1.89125 0
M  V30 10967 N 1059.8 1.27835 0.921735 0
M  V30 10968 C 1061.04 1.14692 1.67253 0
M  V30 10969 C 1061.38 -0.305384 1.91784 0
M  V30 10970 O 1060.65 -1.22286 1.51249 0
M  V30 10971 C 1060.93 1.93743 3.03539 0
M  V30 10972 C 1060.79 3.46991 2.86212 0
M  V30 10973 C 1062.11 1.74658 4.03959 0
M  V30 10974 H 1059.23 0.418021 0.606983 0
M  V30 10975 H 1061.87 1.5706 1.06922 0
M  V30 10976 H 1060.02 1.57738 3.55037 0
M  V30 10977 H 1061.69 3.92858 2.41785 0
M  V30 10978 H 1059.93 3.73029 2.21432 0
M  V30 10979 H 1060.6 3.97551 3.82958 0
M  V30 10980 H 1063.08 2.06063 3.61493 0
M  V30 10981 H 1061.96 2.32353 4.97296 0
M  V30 10982 H 1062.22 0.696019 4.36587 0
M  V30 10983 N 1061.28 -1.12907 1.09954 0
M  V30 10984 C 1062.21 -2.18194 0.701701 0
M  V30 10985 C 1063.22 -1.60724 -0.259131 0
M  V30 10986 O 1064.41 -1.78445 -0.0443549 0
M  V30 10987 C 1061.51 -3.38897 0.0140602 0
M  V30 10988 C 1060.68 -4.25867 0.997807 0
M  V30 10989 C 1059.74 -5.25084 0.34257 0
M  V30 10990 O 1058.77 -5.60492 0.991857 0
M  V30 10991 N 1059.97 -5.73464 -0.901058 0
M  V30 10992 H 1062.73 -2.52939 1.60755 0
M  V30 10993 H 1060.3 -1.28281 0.987703 0
M  V30 10994 H 1062.29 -4.02349 -0.435628 0
M  V30 10995 H 1060.86 -3.02345 -0.794118 0
M  V30 10996 H 1060.08 -3.59107 1.6259 0
M  V30 10997 H 1061.37 -4.80825 1.66388 0
M  V30 10998 H 1060.76 -5.46854 -1.44802 0
M  V30 10999 H 1059.32 -6.38827 -1.29398 0
M  V30 11000 N 1062.75 -0.88754 -1.30232 0
M  V30 11001 C 1064.03 -0.427249 -1.90877 0
M  V30 11002 C 1064.41 1.0922 -1.80649 0
M  V30 11003 O 1063.76 1.92866 -1.22536 0
M  V30 11004 C 1063.97 -0.928219 -3.3643 0
M  V30 11005 C 1065.32 -0.964706 -4.13496 0
M  V30 11006 O 1066.34 -0.875057 -3.45284 0
M  V30 11007 O 1065.2 -1.09754 -5.35366 0
M  V30 11008 H 1062.29 -0.131107 -0.816541 0
M  V30 11009 H 1064.84 -0.976609 -1.38782 0
M  V30 11010 H 1063.61 -1.97209 -3.37971 0
M  V30 11011 H 1063.23 -0.358169 -3.95983 0
M  V30 11012 N 1064.23 1.43628 -0.648757 0
M  V30 11013 C 1065.16 2.33478 0.0320785 0
M  V30 11014 C 1066.14 1.49217 0.816605 0
M  V30 11015 O 1067.33 1.77892 0.778974 0
M  V30 11016 C 1064.46 3.32525 1.00222 0
M  V30 11017 C 1063.41 4.2674 0.328119 0
M  V30 11018 C 1062.74 5.15791 1.4094 0
M  V30 11019 C 1064.04 5.16493 -0.776701 0
M  V30 11020 H 1065.73 2.90657 -0.718257 0
M  V30 11021 H 1063.28 1.3976 -0.346852 0
M  V30 11022 H 1065.23 3.94277 1.4874 0
M  V30 11023 H 1063.96 2.73593 1.78366 0
M  V30 11024 H 1062.61 3.66346 -0.136569 0
M  V30 11025 H 1062.26 4.53201 2.18216 0
M  V30 11026 H 1061.96 5.79645 0.963631 0
M  V30 11027 H 1063.49 5.80416 1.89603 0
M  V30 11028 H 1064.9 5.7208 -0.373878 0
M  V30 11029 H 1063.3 5.89043 -1.14667 0
M  V30 11030 H 1064.37 4.56448 -1.63654 0
M  V30 11031 N 1065.71 0.390394 1.52688 0
M  V30 11032 C 1066.96 -0.192697 2.00777 0
M  V30 11033 C 1067.27 -1.4781 1.28108 0
M  V30 11034 O 1068.48 -2.1413 1.66914 0
M  V30 11035 C 1066.93 -0.393955 3.57737 0
M  V30 11036 C 1066.54 0.878259 4.39307 0
M  V30 11037 C 1068.29 -0.933352 4.14112 0
M  V30 11038 C 1066.19 0.645218 5.8787 0
M  V30 11039 H 1065.12 -0.0757862 0.750182 0
M  V30 11040 H 1067.77 0.512961 1.76184 0
M  V30 11041 H 1066.16 -1.16149 3.78583 0
M  V30 11042 H 1067.33 1.65049 4.30227 0
M  V30 11043 H 1065.65 1.34269 3.94158 0
M  V30 11044 H 1068.24 -1.12343 5.22765 0
M  V30 11045 H 1068.59 -1.90272 3.70273 0
M  V30 11046 H 1069.12 -0.225361 3.97161 0
M  V30 11047 H 1065.86 1.58562 6.36033 0
M  V30 11048 H 1065.38 -0.0880609 5.99735 0
M  V30 11049 H 1067.06 0.280178 6.46393 0
M  V30 11050 N 1067.19 -1.57141 0.120249 0
M  V30 11051 C 1068.41 -2.00017 -0.548454 0
M  V30 11052 C 1068.84 -0.999433 -1.59352 0
M  V30 11053 O 1068.2 0.0286978 -1.81277 0
M  V30 11054 C 1068.24 -3.41766 -1.15015 0
M  V30 11055 O 1067.35 -3.44589 -2.26566 0
M  V30 11056 H 1066.69 -0.649739 -0.136875 0
M  V30 11057 H 1069.22 -2.03529 0.209092 0
M  V30 11058 H 1069.23 -3.80001 -1.48537 0
M  V30 11059 H 1067.9 -4.14117 -0.384681 0
M  V30 11060 H 1066.48 -3.18174 -1.94473 0
M  V30 11061 N 1068.67 0.153526 -1.5685 0
M  V30 11062 C 1070.08 0.714247 -1.72498 0
M  V30 11063 C 1070.43 1.81968 -0.733621 0
M  V30 11064 O 1069.55 2.16163 0.10118 0
M  V30 11065 C 1070.15 1.30238 -3.12767 0
M  V30 11066 C 1068.71 1.80974 -3.30038 0
M  V30 11067 C 1067.85 0.695638 -2.68433 0
M  V30 11068 H 1070.81 -0.0720733 -1.58536 0
M  V30 11069 H 1070.83 2.17217 -3.12405 0
M  V30 11070 H 1070.34 0.497605 -3.84897 0
M  V30 11071 H 1068.44 2.64039 -2.62895 0
M  V30 11072 H 1068.55 1.94294 -4.37934 0
M  V30 11073 H 1066.92 1.12061 -2.28723 0
M  V30 11074 H 1067.7 -0.0975885 -3.43161 0
M  V30 11075 N 1070.14 1.51827 0.422667 0
M  V30 11076 C 1071.39 1.6445 1.16786 0
M  V30 11077 C 1071.71 0.373792 1.91995 0
M  V30 11078 O 1072.91 0.379621 2.68833 0
M  V30 11079 C 1071.37 2.90488 2.12473 0
M  V30 11080 C 1070.98 4.24617 1.42844 0
M  V30 11081 C 1072.72 3.12472 2.87335 0
M  V30 11082 C 1070.63 5.41791 2.371 0
M  V30 11083 H 1069.56 0.612561 0.439641 0
M  V30 11084 H 1072.21 1.78305 0.433534 0
M  V30 11085 H 1070.59 2.703 2.89402 0
M  V30 11086 H 1071.76 4.55239 0.71372 0
M  V30 11087 H 1070.08 4.08628 0.800769 0
M  V30 11088 H 1072.68 3.9719 3.57973 0
M  V30 11089 H 1073.02 2.26148 3.49518 0
M  V30 11090 H 1073.55 3.33069 2.17509 0
M  V30 11091 H 1070.29 6.3042 1.79584 0
M  V30 11092 H 1069.81 5.15526 3.06583 0
M  V30 11093 H 1071.49 5.74329 2.97918 0
M  V30 11094 N 1071.62 -0.679052 1.4222 0
M  V30 11095 C 1072.57 -1.81398 1.45594 0
M  V30 11096 C 1073.56 -1.66112 0.332127 0
M  V30 11097 O 1074.77 -1.72772 0.504942 0
M  V30 11098 H 1071.15 -0.598045 0.455902 0
M  V30 11099 H 1073.12 -1.7567 2.41211 0
M  V30 11100 C 1071.87 -3.19525 1.37109 0
M  V30 11101 H 1071.19 -3.31912 2.22878 0
M  V30 11102 H 1072.63 -3.98967 1.43531 0
M  V30 11103 C 1071.09 -3.36792 0.0853593 0
M  V30 11104 O 1071.62 -3.92309 -0.863532 0
M  V30 11105 N 1069.82 -2.906 0.00389229 0
M  V30 11106 H 1069.37 -2.45607 0.776846 0
M  V30 11107 H 1069.33 -3.0253 -0.855742 0
M  V30 11108 N 1073.1 -1.28322 -0.914942 0
M  V30 11109 C 1074.35 -1.15578 -1.66642 0
M  V30 11110 C 1074.68 0.295209 -1.91943 0
M  V30 11111 O 1073.95 1.21482 -1.51896 0
M  V30 11112 C 1074.24 -1.9535 -3.02507 0
M  V30 11113 C 1074.09 -3.48504 -2.84367 0
M  V30 11114 C 1075.41 -1.76798 -4.03027 0
M  V30 11115 H 1072.53 -0.421234 -0.604757 0
M  V30 11116 H 1075.17 -1.57625 -1.06087 0
M  V30 11117 H 1073.32 -1.59619 -3.54195 0
M  V30 11118 H 1074.99 -3.94135 -2.39699 0
M  V30 11119 H 1073.24 -3.74198 -2.1945 0
M  V30 11120 H 1073.91 -3.99576 -3.80845 0
M  V30 11121 H 1076.38 -2.07977 -3.60395 0
M  V30 11122 H 1075.26 -2.34987 -4.96057 0
M  V30 11123 H 1075.52 -0.719162 -4.36211 0
M  V30 11124 N 1074.58 1.12322 -1.10551 0
M  V30 11125 C 1075.8 1.8822 -0.871093 0
M  V30 11126 C 1076.23 1.7916 0.573005 0
M  V30 11127 O 1075.59 1.14738 1.40374 0
M  V30 11128 C 1075.63 3.35349 -1.32565 0
M  V30 11129 O 1074.74 4.09461 -0.49145 0
M  V30 11130 H 1074.08 0.584787 -0.314516 0
M  V30 11131 H 1076.61 1.42039 -1.47262 0
M  V30 11132 H 1076.62 3.86189 -1.31612 0
M  V30 11133 H 1075.29 3.4126 -2.37728 0
M  V30 11134 H 1073.87 3.68575 -0.566294 0
M  V30 11135 N 1076.06 0.894434 1.2976 0
M  V30 11136 C 1076.99 0.3847 2.30309 0
M  V30 11137 C 1077.97 -0.537486 1.61385 0
M  V30 11138 O 1079.15 -0.449332 1.8893 0
M  V30 11139 C 1076.28 -0.393311 3.45066 0
M  V30 11140 C 1075.24 0.437968 4.25753 0
M  V30 11141 C 1074.56 -0.467221 5.32655 0
M  V30 11142 C 1075.86 1.6851 4.9437 0
M  V30 11143 H 1077.56 1.22496 2.73194 0
M  V30 11144 H 1075.1 0.590471 1.31337 0
M  V30 11145 H 1077.06 -0.760614 4.14479 0
M  V30 11146 H 1075.78 -1.2673 3.0101 0
M  V30 11147 H 1074.44 0.787533 3.58041 0
M  V30 11148 H 1074.09 -1.33919 4.84845 0
M  V30 11149 H 1073.79 0.0852482 5.87538 0
M  V30 11150 H 1075.31 -0.830833 6.04921 0
M  V30 11151 H 1076.72 1.38784 5.56248 0
M  V30 11152 H 1075.12 2.17849 5.59162 0
M  V30 11153 H 1076.19 2.42412 4.19958 0
M  V30 11154 N 1077.53 -1.43282 0.656365 0
M  V30 11155 C 1078.48 -2.32556 -0.0452037 0
M  V30 11156 C 1079.48 -1.48789 -0.80982 0
M  V30 11157 O 1080.68 -1.64979 -0.719865 0
M  V30 11158 H 1077.06 -0.751258 -0.0334043 0
M  V30 11159 H 1079.03 -2.89448 0.725423 0
M  V30 11160 C 1077.78 -3.33138 -0.995706 0
M  V30 11161 H 1077.1 -3.97622 -0.416774 0
M  V30 11162 H 1078.54 -3.98231 -1.45562 0
M  V30 11163 C 1077 -2.63978 -2.09325 0
M  V30 11164 O 1077.53 -2.45769 -3.17743 0
M  V30 11165 N 1075.74 -2.23301 -1.8597 0
M  V30 11166 H 1075.28 -2.38312 -0.97802 0
M  V30 11167 H 1075.24 -1.77358 -2.59599 0
M  V30 11168 N 1079.01 -0.398486 -1.52479 0
M  V30 11169 C 1080.26 0.180752 -2.01692 0
M  V30 11170 C 1080.59 1.46044 -1.28457 0
M  V30 11171 O 1079.84 1.92051 -0.376162 0
M  V30 11172 C 1080.14 0.485909 -3.54081 0
M  V30 11173 C 1079.81 -0.703321 -4.45381 0
M  V30 11174 C 1078.47 -1.02955 -4.70057 0
M  V30 11175 C 1080.82 -1.49848 -4.99194 0
M  V30 11176 C 1078.15 -2.15231 -5.45795 0
M  V30 11177 C 1080.5 -2.61192 -5.76161 0
M  V30 11178 C 1079.17 -2.94313 -5.99113 0
M  V30 11179 H 1078.44 0.0661417 -0.738042 0
M  V30 11180 H 1081.08 -0.53772 -1.83796 0
M  V30 11181 H 1079.39 1.28582 -3.701 0
M  V30 11182 H 1081.09 0.946872 -3.89661 0
M  V30 11183 H 1077.68 -0.439062 -4.26345 0
M  V30 11184 H 1081.86 -1.25968 -4.80048 0
M  V30 11185 H 1077.12 -2.41252 -5.61789 0
M  V30 11186 H 1081.29 -3.23201 -6.16858 0
M  V30 11187 H 1078.92 -3.81431 -6.57583 0
M  V30 11188 N 1080.49 1.57075 -0.12858 0
M  V30 11189 C 1081.72 2.00305 0.537839 0
M  V30 11190 C 1082.14 1.00787 1.58819 0
M  V30 11191 O 1081.5 -0.0190839 1.8129 0
M  V30 11192 C 1081.55 3.42371 1.13201 0
M  V30 11193 O 1080.65 3.45786 2.24735 0
M  V30 11194 H 1079.99 0.650456 0.133428 0
M  V30 11195 H 1082.52 2.03415 -0.219882 0
M  V30 11196 H 1082.53 3.80783 1.4652 0
M  V30 11197 H 1081.21 4.14315 0.362713 0
M  V30 11198 H 1079.78 3.19201 1.92783 0
M  V30 11199 N 1081.97 -0.145205 1.5693 0
M  V30 11200 C 1082.9 -1.18096 2.01434 0
M  V30 11201 C 1083.88 -1.447 0.894204 0
M  V30 11202 O 1085.07 -1.55589 1.16214 0
M  V30 11203 C 1082.2 -2.51369 2.39647 0
M  V30 11204 C 1081.15 -2.39283 3.54863 0
M  V30 11205 C 1080.48 -3.77283 3.78895 0
M  V30 11206 C 1081.78 -1.8754 4.87469 0
M  V30 11207 H 1083.47 -0.810897 2.8821 0
M  V30 11208 H 1081.02 -0.388624 1.38657 0
M  V30 11209 H 1082.97 -3.24054 2.69382 0
M  V30 11210 H 1081.69 -2.90214 1.49811 0
M  V30 11211 H 1080.35 -1.6905 3.25296 0
M  V30 11212 H 1080 -4.13567 2.86307 0
M  V30 11213 H 1079.7 -3.70057 4.56433 0
M  V30 11214 H 1081.22 -4.51514 4.11057 0
M  V30 11215 H 1082.64 -2.50019 5.1591 0
M  V30 11216 H 1081.03 -1.912 5.68826 0
M  V30 11217 H 1082.1 -0.831194 4.77723 0
M  V30 11218 N 1083.45 -1.52049 -0.414609 0
M  V30 11219 C 1084.69 -1.67041 -1.16056 0
M  V30 11220 C 1085.05 -0.392768 -1.88348 0
M  V30 11221 O 1084.34 0.612547 -1.81545 0
M  V30 11222 C 1084.54 -2.82735 -2.18622 0
M  V30 11223 C 1084.36 -4.21627 -1.564 0
M  V30 11224 C 1083.13 -4.87234 -1.33907 0
M  V30 11225 C 1085.33 -5.03924 -1.02785 0
M  V30 11226 N 1083.31 -6.10175 -0.67521 0
M  V30 11227 C 1084.69 -6.18056 -0.490589 0
M  V30 11228 C 1086.74 -4.89293 -0.921791 0
M  V30 11229 C 1085.44 -7.19159 0.14234 0
M  V30 11230 C 1087.47 -5.90625 -0.302724 0
M  V30 11231 C 1086.83 -7.04044 0.223891 0
M  V30 11232 H 1082.93 -0.664947 -0.411544 0
M  V30 11233 H 1085.51 -1.89339 -0.453743 0
M  V30 11234 H 1083.69 -2.62062 -2.86668 0
M  V30 11235 H 1085.42 -2.86792 -2.85539 0
M  V30 11236 H 1082.17 -4.45499 -1.60709 0
M  V30 11237 H 1082.6 -6.76042 -0.360062 0
M  V30 11238 H 1087.24 -4.01838 -1.31477 0
M  V30 11239 H 1084.96 -8.06244 0.547392 0
M  V30 11240 H 1088.54 -5.81375 -0.222252 0
M  V30 11241 H 1087.42 -7.81111 0.695377 0
M  V30 11242 N 1084.93 0.6715 -1.42579 0
M  V30 11243 C 1085.84 1.81435 -1.48723 0
M  V30 11244 C 1086.85 1.69895 -0.375716 0
M  V30 11245 O 1088.03 1.91388 -0.627115 0
M  V30 11246 C 1085.09 3.17599 -1.39038 0
M  V30 11247 C 1084.15 3.41071 -2.60709 0
M  V30 11248 C 1083.39 4.7074 -2.51476 0
M  V30 11249 O 1083.61 5.48868 -1.55243 0
M  V30 11250 O 1082.54 4.95528 -3.41666 0
M  V30 11251 H 1086.37 1.79206 -2.45191 0
M  V30 11252 H 1083.95 0.827666 -1.24379 0
M  V30 11253 H 1085.84 3.98847 -1.3601 0
M  V30 11254 H 1084.51 3.20458 -0.456966 0
M  V30 11255 H 1083.42 2.59659 -2.69311 0
M  V30 11256 H 1084.75 3.43045 -3.5296 0
M  V30 11257 N 1086.4 1.28806 0.908124 0
M  V30 11258 C 1087.31 1.15079 2.04436 0
M  V30 11259 C 1088.33 0.076012 1.73834 0
M  V30 11260 O 1089.51 0.286421 1.99353 0
M  V30 11261 C 1086.57 0.819733 3.3687 0
M  V30 11262 C 1085.63 1.97746 3.81045 0
M  V30 11263 C 1084.86 1.66211 5.07158 0
M  V30 11264 O 1085.09 0.579092 5.67453 0
M  V30 11265 O 1084.02 2.5075 5.47182 0
M  V30 11266 H 1087.85 2.10477 2.18937 0
M  V30 11267 H 1085.43 1.08177 1.03044 0
M  V30 11268 H 1087.31 0.649304 4.16368 0
M  V30 11269 H 1085.99 -0.10454 3.23531 0
M  V30 11270 H 1084.9 2.20308 3.02349 0
M  V30 11271 H 1086.23 2.88264 3.98955 0
M  V30 11272 N 1087.88 -1.11734 1.11145 0
M  V30 11273 C 1088.79 -2.21267 0.779607 0
M  V30 11274 C 1089.81 -1.72526 -0.225986 0
M  V30 11275 O 1090.98 -2.01302 -0.0629166 0
M  V30 11276 C 1088.05 -3.45973 0.22435 0
M  V30 11277 C 1087.11 -4.09518 1.28816 0
M  V30 11278 C 1086.34 -5.28271 0.7593 0
M  V30 11279 O 1086.57 -5.68912 -0.411725 0
M  V30 11280 O 1085.5 -5.82322 1.52266 0
M  V30 11281 H 1089.33 -2.5206 1.6941 0
M  V30 11282 H 1086.91 -1.20211 0.887115 0
M  V30 11283 H 1088.79 -4.21322 -0.0810921 0
M  V30 11284 H 1087.47 -3.1684 -0.662891 0
M  V30 11285 H 1086.37 -3.35915 1.64657 0
M  V30 11286 H 1087.71 -4.42824 2.14868 0
M  V30 11287 N 1089.36 -0.901303 -1.29284 0
M  V30 11288 C 1090.61 -0.527 -1.95108 0
M  V30 11289 C 1090.93 0.930065 -1.71391 0
M  V30 11290 O 1090.2 1.65601 -1.04658 0
M  V30 11291 H 1088.78 -0.191903 -0.721929 0
M  V30 11292 H 1091.44 -1.14795 -1.57506 0
M  V30 11293 H 1090.54 -0.710945 -3.03895 0
M  V30 11294 N 1090.84 1.42931 -0.663954 0
M  V30 11295 C 1092.07 2.06028 -0.189808 0
M  V30 11296 C 1092.48 1.49827 1.14879 0
M  V30 11297 O 1091.84 0.633778 1.71142 0
M  V30 11298 C 1091.89 3.61349 -0.104343 0
M  V30 11299 O 1091.61 4.15463 -1.39004 0
M  V30 11300 C 1093.11 4.4154 0.394599 0
M  V30 11301 H 1090.33 0.664259 -0.0948744 0
M  V30 11302 H 1092.87 1.83255 -0.907632 0
M  V30 11303 H 1091.03 3.83271 0.564103 0
M  V30 11304 H 1091.44 5.09233 -1.25626 0
M  V30 11305 H 1092.92 5.50525 0.403329 0
M  V30 11306 H 1093.39 4.1534 1.4279 0
M  V30 11307 H 1094 4.24612 -0.241729 0
M  V30 11308 N 1092.32 0.406567 1.52266 0
M  V30 11309 C 1093.73 -0.063607 1.86592 0
M  V30 11310 C 1094.08 -1.4466 1.32544 0
M  V30 11311 O 1093.2 -2.05971 0.663692 0
M  V30 11312 C 1093.8 -0.122198 3.3858 0
M  V30 11313 C 1092.36 -0.536701 3.72554 0
M  V30 11314 C 1091.5 0.290422 2.75775 0
M  V30 11315 H 1094.45 0.623738 1.45929 0
M  V30 11316 H 1094.48 -0.937964 3.68758 0
M  V30 11317 H 1093.99 0.884495 3.77887 0
M  V30 11318 H 1092.09 -1.55013 3.38824 0
M  V30 11319 H 1092.2 -0.282867 4.78264 0
M  V30 11320 H 1090.57 -0.246864 2.53501 0
M  V30 11321 H 1091.35 1.29541 3.17921 0
M  V30 11322 N 1093.79 -1.57004 0.136909 0
M  V30 11323 C 1095.21 -1.58082 -0.21958 0
M  V30 11324 C 1095.41 -1.15065 -1.65415 0
M  V30 11325 O 1094.47 -0.846284 -2.37896 0
M  V30 11326 C 1095.78 -3.00685 0.0300112 0
M  V30 11327 C 1097.33 -3.12981 -0.0344899 0
M  V30 11328 C 1097.8 -4.57615 0.187639 0
M  V30 11329 N 1099.29 -4.63005 0.134219 0
M  V30 11330 C 1100.03 -5.72712 0.280743 0
M  V30 11331 N 1099.52 -6.91104 0.48443 0
M  V30 11332 N 1101.32 -5.61673 0.219055 0
M  V30 11333 H 1093.47 -1.83262 1.07372 0
M  V30 11334 H 1095.73 -0.847776 0.424241 0
M  V30 11335 H 1095.44 -3.36509 1.02247 0
M  V30 11336 H 1095.31 -3.70762 -0.693918 0
M  V30 11337 H 1097.7 -2.77004 -1.01749 0
M  V30 11338 H 1097.78 -2.45411 0.721608 0
M  V30 11339 H 1097.42 -4.94295 1.16769 0
M  V30 11340 H 1097.35 -5.23299 -0.588661 0
M  V30 11341 H 1099.84 -3.77895 -0.0189681 0
M  V30 11342 H 1100.16 -7.7057 0.586613 0
M  V30 11343 H 1098.5 -6.93047 0.520627 0
M  V30 11344 H 1101.69 -4.68061 0.0607606 0
M  V30 11345 H 1101.87 -6.47125 0.336683 0
M  V30 11346 N 1095.27 0.136881 -1.57004 0
M  V30 11347 C 1096.55 0.87705 -1.74835 0
M  V30 11348 C 1096.93 1.98886 -0.707639 0
M  V30 11349 O 1096.28 2.26879 0.271652 0
M  V30 11350 C 1096.49 1.41021 -3.1924 0
M  V30 11351 C 1097.84 1.86963 -3.81222 0
M  V30 11352 O 1098.86 1.5074 -3.22732 0
M  V30 11353 O 1097.72 2.53798 -4.83993 0
M  V30 11354 H 1094.81 0.415192 -0.715223 0
M  V30 11355 H 1097.36 0.122016 -1.69261 0
M  V30 11356 H 1096.13 0.611677 -3.8649 0
M  V30 11357 H 1095.75 2.22846 -3.2928 0
M  V30 11358 N 1096.75 1.52266 0.40654 0
M  V30 11359 C 1097.68 1.72025 1.51459 0
M  V30 11360 C 1098.7 0.600667 1.51314 0
M  V30 11361 O 1099.88 0.875894 1.55532 0
M  V30 11362 C 1096.98 1.7479 2.90348 0
M  V30 11363 C 1096.16 3.03826 3.14656 0
M  V30 11364 C 1095.22 2.98369 4.33431 0
M  V30 11365 O 1094.24 3.7227 4.30586 0
M  V30 11366 N 1095.44 2.16338 5.38682 0
M  V30 11367 H 1098.21 2.67622 1.34903 0
M  V30 11368 H 1095.77 1.50536 0.595867 0
M  V30 11369 H 1097.76 1.68667 3.67877 0
M  V30 11370 H 1096.33 0.86656 3.00349 0
M  V30 11371 H 1095.55 3.23577 2.25148 0
M  V30 11372 H 1096.84 3.89182 3.27742 0
M  V30 11373 H 1096.24 1.55731 5.43842 0
M  V30 11374 H 1094.8 2.1607 6.14945 0
M  V30 11375 N 1098.23 -0.663929 1.42933 0
M  V30 11376 C 1099.64 -0.978346 1.26097 0
M  V30 11377 C 1099.84 -2.00756 0.172968 0
M  V30 11378 O 1098.9 -2.48418 -0.452184 0
M  V30 11379 C 1100.21 -1.4728 2.62162 0
M  V30 11380 C 1101.76 -1.59001 2.69606 0
M  V30 11381 C 1102.24 -2.1184 4.06064 0
M  V30 11382 N 1103.73 -2.19158 4.08074 0
M  V30 11383 C 1104.46 -2.61141 5.10483 0
M  V30 11384 N 1103.96 -3.02498 6.23271 0
M  V30 11385 N 1105.75 -2.60986 4.97838 0
M  V30 11386 H 1097.9 0.0173096 2.12393 0
M  V30 11387 H 1100.17 -0.0548116 0.946414 0
M  V30 11388 H 1099.87 -0.791008 3.42689 0
M  V30 11389 H 1099.75 -2.4497 2.86827 0
M  V30 11390 H 1102.13 -2.26284 1.89418 0
M  V30 11391 H 1102.21 -0.597728 2.48718 0
M  V30 11392 H 1101.86 -1.45162 4.86714 0
M  V30 11393 H 1101.79 -3.1188 4.2431 0
M  V30 11394 H 1104.28 -1.90013 3.26655 0
M  V30 11395 H 1104.59 -3.33251 6.97254 0
M  V30 11396 H 1102.94 -3.00328 6.2676 0
M  V30 11397 H 1106.13 -2.28046 4.08794 0
M  V30 11398 H 1106.3 -2.93384 5.7778 0
M  V30 11399 N 1099.71 -1.29285 -0.901281 0
M  V30 11400 C 1100.67 -1.14283 -1.98676 0
M  V30 11401 C 1101.67 -0.0787641 -1.60607 0
M  V30 11402 O 1102.86 -0.325574 -1.71131 0
M  V30 11403 C 1099.99 -0.747279 -3.32609 0
M  V30 11404 H 1101.18 -2.10701 -2.13413 0
M  V30 11405 H 1098.74 -1.12449 -1.08558 0
M  V30 11406 H 1099.47 0.217111 -3.23572 0
M  V30 11407 H 1099.26 -1.51608 -3.61604 0
M  V30 11408 H 1100.75 -0.665322 -4.12266 0
M  V30 11409 N 1101.18 1.11143 -1.11736 0
M  V30 11410 C 1102.12 2.1705 -0.736325 0
M  V30 11411 C 1103.13 1.61116 0.233528 0
M  V30 11412 O 1104.32 1.78493 0.0159602 0
M  V30 11413 C 1101.42 3.38832 -0.067974 0
M  V30 11414 C 1100.59 4.24226 -1.06543 0
M  V30 11415 C 1099.65 5.24472 -0.426063 0
M  V30 11416 O 1098.68 5.58843 -1.0809 0
M  V30 11417 N 1099.88 5.74825 0.809711 0
M  V30 11418 H 1102.64 2.50349 -1.64758 0
M  V30 11419 H 1100.2 1.26693 -1.00799 0
M  V30 11420 H 1102.2 4.02991 0.371563 0
M  V30 11421 H 1100.77 3.0357 0.745917 0
M  V30 11422 H 1099.99 3.56475 -1.68283 0
M  V30 11423 H 1101.27 4.78117 -1.74016 0
M  V30 11424 H 1100.67 5.49088 1.36084 0
M  V30 11425 H 1099.23 6.40804 1.19218 0
M  V30 11426 N 1102.66 0.908147 1.28804 0
M  V30 11427 C 1103.91 0.53734 1.94826 0
M  V30 11428 C 1104.23 -0.920962 1.71882 0
M  V30 11429 O 1103.5 -1.65043 1.05534 0
M  V30 11430 H 1102.08 0.195729 0.720902 0
M  V30 11431 H 1104.74 1.15628 1.56895 0
M  V30 11432 H 1103.84 0.727052 3.03513 0
M  V30 11433 N 1104.14 -1.42577 0.671525 0
M  V30 11434 C 1105.09 -2.30798 -0.00883676 0
M  V30 11435 C 1106.06 -1.4578 -0.796076 0
M  V30 11436 O 1107.24 -1.74617 -0.768987 0
M  V30 11437 C 1104.38 -3.31581 -0.956452 0
M  V30 11438 C 1103.5 -4.31691 -0.163381 0
M  V30 11439 C 1102.63 -5.19549 -1.10645 0
M  V30 11440 C 1101.67 -6.1134 -0.304876 0
M  V30 11441 N 1100.81 -6.91761 -1.20048 0
M  V30 11442 H 1105.65 -2.88426 0.749301 0
M  V30 11443 H 1103.18 -1.42074 0.381251 0
M  V30 11444 H 1105.14 -3.88539 -1.51966 0
M  V30 11445 H 1103.77 -2.75561 -1.68126 0
M  V30 11446 H 1102.82 -3.76879 0.516396 0
M  V30 11447 H 1104.14 -4.96683 0.459099 0
M  V30 11448 H 1103.29 -5.81223 -1.73969 0
M  V30 11449 H 1102.03 -4.54726 -1.76282 0
M  V30 11450 H 1101.03 -5.48738 0.341597 0
M  V30 11451 H 1102.26 -6.78211 0.347352 0
M  V30 11452 H 1100.2 -6.2957 -1.84331 0
M  V30 11453 H 1100.12 -7.53345 -0.633003 0
M  V30 11454 H 1101.39 -7.57924 -1.82129 0
M  V30 11455 N 1105.62 -0.414636 -1.52048 0
M  V30 11456 C 1106.9 0.218172 -1.94379 0
M  V30 11457 C 1107.28 1.62133 -1.35189 0
M  V30 11458 O 1106.62 2.22271 -0.529877 0
M  V30 11459 C 1106.83 0.218932 -3.48313 0
M  V30 11460 C 1108.18 0.435604 -4.2236 0
M  V30 11461 O 1109.21 0.298049 -3.54951 0
M  V30 11462 O 1108.06 0.707217 -5.41905 0
M  V30 11463 H 1105.16 0.142173 -0.814688 0
M  V30 11464 H 1107.7 -0.470977 -1.63033 0
M  V30 11465 H 1106.48 -0.76292 -3.83791 0
M  V30 11466 H 1106.1 0.951949 -3.86036 0
M  V30 11467 N 1107.1 1.56929 -0.145233 0
M  V30 11468 C 1108.35 1.95243 0.506273 0
M  V30 11469 C 1108.66 1.0325 1.66129 0
M  V30 11470 O 1109.86 1.31135 2.37731 0
M  V30 11471 C 1108.32 3.47079 0.952042 0
M  V30 11472 C 1107.93 4.47654 -0.175947 0
M  V30 11473 C 1109.67 3.94263 1.57344 0
M  V30 11474 C 1107.58 5.90698 0.287993 0
M  V30 11475 H 1106.51 0.728906 0.192903 0
M  V30 11476 H 1109.16 1.82062 -0.229295 0
M  V30 11477 H 1107.54 3.55587 1.74282 0
M  V30 11478 H 1108.72 4.50841 -0.952848 0
M  V30 11479 H 1107.03 4.10377 -0.70564 0
M  V30 11480 H 1109.63 4.9857 1.93214 0
M  V30 11481 H 1109.97 3.35714 2.46174 0
M  V30 11482 H 1110.5 3.88665 0.847593 0
M  V30 11483 H 1107.24 6.53061 -0.564889 0
M  V30 11484 H 1106.76 5.90876 1.03081 0
M  V30 11485 H 1108.44 6.42747 0.740586 0
M  V30 11486 N 1108.58 -0.128553 1.57075 0
M  V30 11487 C 1109.99 -0.686713 1.73612 0
M  V30 11488 C 1110.34 -1.80778 0.762478 0
M  V30 11489 O 1109.46 -2.16297 -0.0667779 0
M  V30 11490 C 1110.06 -1.25246 3.148 0
M  V30 11491 C 1108.62 -1.757 3.32876 0
M  V30 11492 C 1107.76 -0.652844 2.69506 0
M  V30 11493 H 1110.71 0.0972859 1.58402 0
M  V30 11494 H 1110.74 -2.1222 3.15821 0
M  V30 11495 H 1110.25 -0.436308 3.8564 0
M  V30 11496 H 1108.35 -2.59824 2.67063 0
M  V30 11497 H 1108.46 -1.87302 4.4097 0
M  V30 11498 H 1106.83 -1.08408 2.30477 0
M  V30 11499 H 1107.61 0.15217 3.42963 0
M  V30 11500 N 1110.05 -1.5248 -0.398459 0
M  V30 11501 C 1111.46 -1.59107 -0.976817 0
M  V30 11502 C 1111.82 -0.438104 -1.91246 0
M  V30 11503 O 1110.94 0.440111 -2.11877 0
M  V30 11504 C 1111.54 -2.88373 -1.77838 0
M  V30 11505 C 1110.09 -2.97445 -2.30659 0
M  V30 11506 C 1109.24 -2.5414 -1.10942 0
M  V30 11507 H 1112.19 -1.57695 -0.178324 0
M  V30 11508 H 1112.21 -2.74327 -2.63676 0
M  V30 11509 H 1111.73 -3.72269 -1.09714 0
M  V30 11510 H 1109.83 -2.18066 -3.02123 0
M  V30 11511 H 1109.94 -4.019 -2.60794 0
M  V30 11512 H 1108.3 -2.08237 -1.46661 0
M  V30 11513 H 1109.09 -3.40421 -0.443684 0
M  V30 11514 N 1111.53 0.65634 -1.43283 0
M  V30 11515 C 1112.78 1.41212 -1.44021 0
M  V30 11516 C 1113.09 1.95485 -0.0669783 0
M  V30 11517 O 1114.3 2.71457 0.0481909 0
M  V30 11518 C 1112.76 2.55541 -2.5343 0
M  V30 11519 C 1112.36 2.07889 -3.96845 0
M  V30 11520 C 1114.11 3.3293 -2.63359 0
M  V30 11521 C 1112.01 3.19411 -4.97726 0
M  V30 11522 H 1110.94 0.530566 -0.535739 0
M  V30 11523 H 1113.6 0.708743 -1.6926 0
M  V30 11524 H 1111.98 3.28335 -2.21387 0
M  V30 11525 H 1113.15 1.42127 -4.38334 0
M  V30 11526 H 1111.47 1.43388 -3.90933 0
M  V30 11527 H 1114.06 4.1602 -3.35903 0
M  V30 11528 H 1114.41 3.80753 -1.68324 0
M  V30 11529 H 1114.94 2.67216 -2.94687 0
M  V30 11530 H 1111.68 2.7656 -5.94302 0
M  V30 11531 H 1111.2 3.83895 -4.60853 0
M  V30 11532 H 1112.88 3.84591 -5.20287 0
M  V30 11533 N 1113.01 1.29761 0.894412 0
M  V30 11534 C 1113.94 1.17902 2.01547 0
M  V30 11535 C 1114.92 0.0719402 1.69948 0
M  V30 11536 O 1116.11 0.252338 1.92554 0
M  V30 11537 C 1113.24 0.860262 3.36477 0
M  V30 11538 C 1112.19 1.92424 3.82305 0
M  V30 11539 C 1111.52 1.45868 5.14419 0
M  V30 11540 C 1112.82 3.33391 4.02054 0
M  V30 11541 H 1114.51 2.11688 2.11727 0
M  V30 11542 H 1112.06 1.01916 1.01731 0
M  V30 11543 H 1114.01 0.763987 4.14417 0
M  V30 11544 H 1112.73 -0.113289 3.26403 0
M  V30 11545 H 1111.39 2.00999 3.06586 0
M  V30 11546 H 1111.04 0.473654 5.00765 0
M  V30 11547 H 1110.74 2.17028 5.46052 0
M  V30 11548 H 1112.26 1.37601 5.94894 0
M  V30 11549 H 1113.68 3.27628 4.7046 0
M  V30 11550 H 1112.07 4.02555 4.4505 0
M  V30 11551 H 1113.14 3.75978 3.06216 0
M  V30 11552 N 1114.49 -1.10549 1.12324 0
M  V30 11553 C 1115.9 -1.34508 0.85905 0
M  V30 11554 C 1116.1 -1.94901 -0.511468 0
M  V30 11555 O 1115.16 -2.18793 -1.2604 0
M  V30 11556 C 1116.47 -2.26788 1.97453 0
M  V30 11557 C 1118.02 -2.40328 2.00528 0
M  V30 11558 C 1118.5 -3.35936 3.11305 0
M  V30 11559 N 1119.99 -3.43504 3.1074 0
M  V30 11560 C 1120.72 -4.17449 3.93096 0
M  V30 11561 N 1120.22 -4.9429 4.85437 0
M  V30 11562 N 1122.01 -4.13055 3.81237 0
M  V30 11563 H 1114.16 -0.697171 2.00632 0
M  V30 11564 H 1116.42 -0.369548 0.873005 0
M  V30 11565 H 1116.13 -1.89621 2.96204 0
M  V30 11566 H 1116 -3.27086 1.87869 0
M  V30 11567 H 1118.39 -2.76765 1.02397 0
M  V30 11568 H 1118.47 -1.39849 2.14186 0
M  V30 11569 H 1118.12 -3.00225 4.09667 0
M  V30 11570 H 1118.05 -4.36291 2.94886 0
M  V30 11571 H 1120.54 -2.88702 2.43843 0
M  V30 11572 H 1120.85 -5.48109 5.4479 0
M  V30 11573 H 1119.2 -4.93419 4.89452 0
M  V30 11574 H 1122.39 -3.52117 3.08433 0
M  V30 11575 H 1122.56 -4.70424 4.45651 0
M  V30 11576 N 1115.97 -0.914965 -1.28321 0
M  V30 11577 C 1117.38 -0.59512 -1.76961 0
M  V30 11578 C 1117.73 0.88958 -1.74874 0
M  V30 11579 O 1116.85 1.6959 -1.34418 0
M  V30 11580 C 1117.45 -1.07353 -3.21342 0
M  V30 11581 C 1116.01 -0.804577 -3.677 0
M  V30 11582 C 1115.15 -1.23955 -2.48053 0
M  V30 11583 H 1118.1 -1.0961 -1.14767 0
M  V30 11584 H 1118.13 -0.415506 -3.78225 0
M  V30 11585 H 1117.64 -2.15413 -3.22829 0
M  V30 11586 H 1115.74 0.26277 -3.71672 0
M  V30 11587 H 1115.85 -1.41317 -4.57784 0
M  V30 11588 H 1114.22 -0.658274 -2.46046 0
M  V30 11589 H 1115 -2.32853 -2.52258 0
M  V30 11590 N 1117.44 1.42219 -0.679077 0
M  V30 11591 C 1118.67 2.06333 -0.210097 0
M  V30 11592 C 1119.09 1.50703 1.12562 0
M  V30 11593 O 1118.45 0.627241 1.70104 0
M  V30 11594 C 1118.5 3.60243 -0.160322 0
M  V30 11595 O 1117.6 4.03122 0.869872 0
M  V30 11596 H 1116.94 0.655362 -0.106754 0
M  V30 11597 H 1119.47 1.82278 -0.929294 0
M  V30 11598 H 1119.48 4.07997 0.014384 0
M  V30 11599 H 1118.16 4.00106 -1.13526 0
M  V30 11600 H 1116.74 3.66907 0.66586 0
M  V30 11601 N 1118.92 0.422693 1.51826 0
M  V30 11602 C 1119.85 -0.386913 2.30272 0
M  V30 11603 C 1120.83 -1.03411 1.35056 0
M  V30 11604 O 1122.02 -1.04055 1.6397 0
M  V30 11605 C 1119.15 -1.49645 3.13407 0
M  V30 11606 C 1118.1 -0.973532 4.16781 0
M  V30 11607 C 1117.43 -2.1777 4.88344 0
M  V30 11608 C 1118.73 -0.0181194 5.22297 0
M  V30 11609 H 1120.42 0.267697 2.98201 0
M  V30 11610 H 1117.97 0.130186 1.4341 0
M  V30 11611 H 1119.92 -2.06993 3.67059 0
M  V30 11612 H 1118.64 -2.17914 2.43272 0
M  V30 11613 H 1117.3 -0.42237 3.64159 0
M  V30 11614 H 1116.95 -2.84625 4.14726 0
M  V30 11615 H 1116.65 -1.83427 5.58237 0
M  V30 11616 H 1118.18 -2.75699 5.44814 0
M  V30 11617 H 1119.59 -0.500822 5.71108 0
M  V30 11618 H 1117.99 0.237163 5.99631 0
M  V30 11619 H 1119.06 0.923065 4.76033 0
M  V30 11620 N 1120.4 -1.5685 0.153553 0
M  V30 11621 C 1121.35 -2.13671 -0.795526 0
M  V30 11622 C 1122.33 -1.06624 -1.20499 0
M  V30 11623 O 1123.53 -1.32788 -1.17032 0
M  V30 11624 C 1120.65 -2.76704 -2.03199 0
M  V30 11625 C 1119.74 -3.90884 -1.64532 0
M  V30 11626 N 1120.13 -4.96466 -0.96723 0
M  V30 11627 C 1118.43 -4.01713 -1.93759 0
M  V30 11628 C 1119.13 -5.76453 -0.779527 0
M  V30 11629 N 1118.11 -5.27444 -1.31544 0
M  V30 11630 H 1121.91 -2.92673 -0.268288 0
M  V30 11631 H 1119.42 -1.6233 -0.0477596 0
M  V30 11632 H 1121.42 -3.15777 -2.72196 0
M  V30 11633 H 1120.08 -1.99177 -2.56434 0
M  V30 11634 H 1121.09 -5.14087 -0.627253 0
M  V30 11635 H 1117.77 -3.3527 -2.48797 0
M  V30 11636 H 1119.16 -6.71455 -0.244604 0
M  V30 11637 N 1121.88 0.120221 -1.57141 0
M  V30 11638 C 1123.1 0.84637 -1.89344 0
M  V30 11639 C 1123.53 1.72702 -0.745365 0
M  V30 11640 O 1122.89 1.7873 0.304155 0
M  V30 11641 C 1122.93 1.65671 -3.20289 0
M  V30 11642 O 1122.04 2.76353 -3.06109 0
M  V30 11643 H 1121.38 0.234132 -0.621352 0
M  V30 11644 H 1123.91 0.102986 -2.04341 0
M  V30 11645 H 1123.92 2.04621 -3.52979 0
M  V30 11646 H 1122.59 1.01023 -4.03444 0
M  V30 11647 H 1121.17 2.40615 -2.84884 0
M  V30 11648 N 1123.36 1.52689 0.390367 0
M  V30 11649 C 1124.27 1.8029 1.50108 0
M  V30 11650 C 1125.28 0.689582 1.59752 0
M  V30 11651 O 1126.46 0.977024 1.76114 0
M  V30 11652 C 1123.52 1.96475 2.85654 0
M  V30 11653 C 1122.58 3.2039 2.85743 0
M  V30 11654 C 1121.82 3.35793 4.14824 0
M  V30 11655 O 1122.04 2.56033 5.09709 0
M  V30 11656 O 1120.97 4.2904 4.22147 0
M  V30 11657 H 1124.8 2.74605 1.29715 0
M  V30 11658 H 1122.39 1.37763 0.578074 0
M  V30 11659 H 1124.27 2.08835 3.66013 0
M  V30 11660 H 1122.94 1.05351 3.06077 0
M  V30 11661 H 1121.85 3.13473 2.0417 0
M  V30 11662 H 1123.18 4.11356 2.70272 0
M  V30 11663 N 1124.83 -0.648732 1.43629 0
M  V30 11664 C 1126.06 -1.4362 1.48932 0
M  V30 11665 C 1126.48 -1.88487 0.108599 0
M  V30 11666 O 1125.83 -1.59768 -0.882066 0
M  V30 11667 C 1125.89 -2.66822 2.43903 0
M  V30 11668 O 1125.61 -2.2383 3.76606 0
M  V30 11669 C 1127.11 -3.60134 2.58493 0
M  V30 11670 H 1124.33 -0.441055 0.505679 0
M  V30 11671 H 1126.87 -0.794936 1.88417 0
M  V30 11672 H 1125.03 -3.27079 2.07601 0
M  V30 11673 H 1125.44 -3.03575 4.27718 0
M  V30 11674 H 1126.91 -4.43234 3.29011 0
M  V30 11675 H 1127.39 -4.07779 1.63134 0
M  V30 11676 H 1128 -3.05756 2.95624 0
M  V30 11677 N 1126.31 -1.30234 -0.887518 0
M  V30 11678 C 1127.56 -1.20096 -1.6416 0
M  V30 11679 C 1127.91 0.24253 -1.90865 0
M  V30 11680 O 1127.21 1.17078 -1.51668 0
M  V30 11681 C 1127.4 -1.96046 -2.98832 0
M  V30 11682 C 1127.23 -3.47633 -2.85274 0
M  V30 11683 C 1126 -4.16989 -2.85392 0
M  V30 11684 C 1128.2 -4.42911 -2.61409 0
M  V30 11685 N 1126.18 -5.54854 -2.62699 0
M  V30 11686 C 1127.55 -5.68321 -2.47813 0
M  V30 11687 C 1129.61 -4.32535 -2.46613 0
M  V30 11688 C 1128.31 -6.84532 -2.20927 0
M  V30 11689 C 1130.33 -5.4851 -2.21112 0
M  V30 11690 C 1129.7 -6.729 -2.08291 0
M  V30 11691 H 1125.8 -0.494513 -0.605789 0
M  V30 11692 H 1128.38 -1.64213 -1.04605 0
M  V30 11693 H 1126.55 -1.54324 -3.56425 0
M  V30 11694 H 1128.28 -1.78072 -3.63418 0
M  V30 11695 H 1125.04 -3.68798 -2.97128 0
M  V30 11696 H 1125.46 -6.27395 -2.54371 0
M  V30 11697 H 1130.1 -3.37047 -2.55262 0
M  V30 11698 H 1127.82 -7.80063 -2.11015 0
M  V30 11699 H 1131.41 -5.42389 -2.1049 0
M  V30 11700 H 1130.29 -7.61125 -1.88833 0
M  V30 11701 N 1127.79 1.09952 -1.12909 0
M  V30 11702 C 1128.7 2.19999 -0.81471 0
M  V30 11703 C 1129.72 1.72864 0.19851 0
M  V30 11704 O 1130.89 2.01376 0.0308832 0
M  V30 11705 C 1127.96 3.45573 -0.279363 0
M  V30 11706 C 1127.02 4.07417 -1.35314 0
M  V30 11707 C 1126.25 5.26996 -0.843247 0
M  V30 11708 O 1126.47 5.69495 0.321164 0
M  V30 11709 O 1125.41 5.79826 -1.61511 0
M  V30 11710 H 1129.23 2.49333 -1.73398 0
M  V30 11711 H 1126.82 1.18784 -0.906128 0
M  V30 11712 H 1128.7 4.21398 0.0140531 0
M  V30 11713 H 1127.38 3.17854 0.612401 0
M  V30 11714 H 1126.28 3.33253 -1.6998 0
M  V30 11715 H 1127.62 4.39349 -2.21885 0
M  V30 11716 N 1129.27 0.921757 1.27833 0
M  V30 11717 C 1130.52 0.55493 1.93916 0
M  V30 11718 C 1130.83 -0.907191 1.7329 0
M  V30 11719 O 1132.04 -1.38253 2.33663 0
M  V30 11720 C 1130.49 0.941644 3.47363 0
M  V30 11721 C 1130.1 2.42404 3.76755 0
M  V30 11722 C 1131.84 0.645785 4.19559 0
M  V30 11723 C 1129.75 2.75046 5.23549 0
M  V30 11724 H 1128.68 0.203818 0.72593 0
M  V30 11725 H 1131.33 1.12176 1.4522 0
M  V30 11726 H 1129.71 0.303519 3.94835 0
M  V30 11727 H 1130.89 3.10957 3.40062 0
M  V30 11728 H 1129.2 2.69118 3.17749 0
M  V30 11729 H 1131.8 0.866237 5.27637 0
M  V30 11730 H 1132.14 -0.41676 4.14209 0
M  V30 11731 H 1132.68 1.24274 3.7789 0
M  V30 11732 H 1129.42 3.80186 5.33984 0
M  V30 11733 H 1128.94 2.11138 5.6141 0
M  V30 11734 H 1130.61 2.62474 5.91368 0
M  V30 11735 N 1130.75 -1.41857 0.686609 0
M  V30 11736 C 1132.16 -1.84439 0.289662 0
M  V30 11737 C 1132.51 -1.57462 -1.17047 0
M  V30 11738 O 1131.63 -1.04046 -1.89745 0
M  V30 11739 C 1132.23 -3.34802 0.518948 0
M  V30 11740 C 1130.79 -3.75988 0.176007 0
M  V30 11741 C 1129.93 -2.65339 0.805632 0
M  V30 11742 H 1132.89 -1.31536 0.88792 0
M  V30 11743 H 1132.91 -3.79833 -0.225209 0
M  V30 11744 H 1132.42 -3.54405 1.58173 0
M  V30 11745 H 1130.52 -3.61989 -0.882865 0
M  V30 11746 H 1130.63 -4.75009 0.624772 0
M  V30 11747 H 1129 -2.53605 0.235966 0
M  V30 11748 H 1129.78 -2.87762 1.8721 0
M  V30 11749 N 1132.22 -0.430739 -1.51599 0
M  V30 11750 C 1133.47 0.137929 -2.0203 0
M  V30 11751 C 1133.8 1.43287 -1.31526 0
M  V30 11752 O 1133.05 1.9121 -0.416814 0
M  V30 11753 C 1133.35 0.410694 -3.55032 0
M  V30 11754 C 1133.02 -0.797634 -4.43789 0
M  V30 11755 C 1131.68 -1.12902 -4.67768 0
M  V30 11756 C 1134.03 -1.60403 -4.95904 0
M  V30 11757 C 1131.36 -2.2676 -5.41107 0
M  V30 11758 C 1133.71 -2.73354 -5.70491 0
M  V30 11759 C 1132.38 -3.06955 -5.92735 0
M  V30 11760 H 1131.65 0.0504718 -0.739279 0
M  V30 11761 H 1134.29 -0.576585 -1.82614 0
M  V30 11762 H 1132.6 1.20703 -3.72744 0
M  V30 11763 H 1134.3 0.864006 -3.91581 0
M  V30 11764 H 1130.89 -0.529397 -4.25318 0
M  V30 11765 H 1135.07 -1.36122 -4.77268 0
M  V30 11766 H 1130.33 -2.53114 -5.56546 0
M  V30 11767 H 1134.5 -3.36213 -6.09864 0
M  V30 11768 H 1132.13 -3.95293 -6.49344 0
M  V30 11769 N 1133.7 1.56767 -0.161869 0
M  V30 11770 C 1134.61 2.21083 0.784814 0
M  V30 11771 C 1135.63 1.19959 1.26039 0
M  V30 11772 O 1136.8 1.52588 1.31449 0
M  V30 11773 C 1133.87 2.83153 2.00063 0
M  V30 11774 C 1132.93 3.9945 1.57285 0
M  V30 11775 C 1132.16 4.5855 2.7307 0
M  V30 11776 O 1132.39 4.16534 3.89686 0
M  V30 11777 O 1131.32 5.48575 2.47688 0
M  V30 11778 H 1135.15 3.02522 0.267243 0
M  V30 11779 H 1132.73 1.49255 0.0658783 0
M  V30 11780 H 1134.61 3.22546 2.71186 0
M  V30 11781 H 1133.29 2.04718 2.50744 0
M  V30 11782 H 1132.2 3.64745 0.831393 0
M  V30 11783 H 1133.53 4.7945 1.11304 0
M  V30 11784 N 1135.18 -0.111886 1.57202 0
M  V30 11785 C 1136.13 -1.13688 2.00858 0
M  V30 11786 C 1137.1 -1.40752 0.881939 0
M  V30 11787 O 1138.28 -1.52498 1.14669 0
M  V30 11788 C 1135.42 -2.45641 2.42393 0
M  V30 11789 C 1134.54 -2.25452 3.68504 0
M  V30 11790 C 1133.67 -3.50686 3.9899 0
M  V30 11791 C 1132.71 -3.25685 5.18262 0
M  V30 11792 N 1131.85 -4.4314 5.44583 0
M  V30 11793 H 1136.69 -0.757611 2.88209 0
M  V30 11794 H 1134.22 -0.362582 1.42561 0
M  V30 11795 H 1136.18 -3.22627 2.64514 0
M  V30 11796 H 1134.81 -2.81447 1.58074 0
M  V30 11797 H 1133.86 -1.39349 3.53958 0
M  V30 11798 H 1135.18 -2.0296 4.55641 0
M  V30 11799 H 1134.33 -4.36087 4.21797 0
M  V30 11800 H 1133.07 -3.76216 3.10343 0
M  V30 11801 H 1132.07 -2.38675 4.95292 0
M  V30 11802 H 1133.3 -3.01518 6.08493 0
M  V30 11803 H 1131.24 -4.68778 4.58893 0
M  V30 11804 H 1131.16 -4.23778 6.26058 0
M  V30 11805 H 1132.43 -5.29654 5.71915 0
M  V30 11806 N 1136.66 -1.52894 -0.382264 0
M  V30 11807 C 1137.61 -1.78799 -1.48774 0
M  V30 11808 C 1138.6 -0.65624 -1.56173 0
M  V30 11809 O 1139.81 -0.838856 -1.59258 0
M  V30 11810 H 1136.18 -0.565855 -0.49529 0
M  V30 11811 H 1138.15 -2.7136 -1.24122 0
M  V30 11812 C 1136.9 -1.97987 -2.85826 0
M  V30 11813 H 1136.22 -2.84505 -2.80886 0
M  V30 11814 H 1137.66 -2.20099 -3.62398 0
M  V30 11815 C 1136.12 -0.75427 -3.28348 0
M  V30 11816 O 1136.65 0.0650749 -4.01647 0
M  V30 11817 N 1134.86 -0.582457 -2.84703 0
M  V30 11818 H 1134.41 -1.25034 -2.2522 0
M  V30 11819 H 1134.36 0.236208 -3.13511 0
M  V30 11820 N 1138.14 0.641106 -1.43971 0
M  V30 11821 C 1139.38 1.41251 -1.47742 0
M  V30 11822 C 1139.74 1.91722 -0.103353 0
M  V30 11823 O 1140.94 2.68795 -0.0157401 0
M  V30 11824 C 1139.21 2.5537 -2.50042 0
M  V30 11825 S 1140.77 3.43708 -2.72783 0
M  V30 11826 H 1137.59 0.482007 -0.522676 0
M  V30 11827 H 1140.19 0.743161 -1.80824 0
M  V30 11828 H 1138.9 2.16586 -3.48596 0
M  V30 11829 H 1138.43 3.27142 -2.18498 0
M  V30 11830 H 1140.44 4.52495 -2.03624 0
M  V30 11831 N 1139.62 1.30703 0.880598 0
M  V30 11832 C 1140.86 1.19541 1.62955 0
M  V30 11833 C 1141.18 -0.249089 1.93403 0
M  V30 11834 O 1140.45 -1.1669 1.57354 0
M  V30 11835 H 1139.03 0.439434 0.604075 0
M  V30 11836 H 1141.7 1.63888 1.05483 0
M  V30 11837 H 1140.79 1.75945 2.57779 0
M  V30 11838 N 1141.09 -1.09351 1.1349 0
M  V30 11839 C 1142 -2.19564 0.826366 0
M  V30 11840 C 1143.02 -1.72967 -0.189339 0
M  V30 11841 O 1144.2 -2.0139 -0.0202033 0
M  V30 11842 C 1141.26 -3.4542 0.297685 0
M  V30 11843 C 1140.32 -4.06694 1.37473 0
M  V30 11844 C 1139.55 -5.26542 0.871183 0
M  V30 11845 O 1139.78 -5.69657 -0.290958 0
M  V30 11846 O 1138.71 -5.78961 1.64584 0
M  V30 11847 H 1142.54 -2.4841 1.74718 0
M  V30 11848 H 1140.12 -1.18302 0.912414 0
M  V30 11849 H 1142 -4.21399 0.00829479 0
M  V30 11850 H 1140.68 -3.18175 -0.595536 0
M  V30 11851 H 1139.59 -3.32347 1.71745 0
M  V30 11852 H 1140.92 -4.38166 2.24212 0
M  V30 11853 N 1142.57 -0.928524 -1.27343 0
M  V30 11854 C 1143.85 -0.487758 -1.89421 0
M  V30 11855 C 1144.23 1.03418 -1.84032 0
M  V30 11856 O 1143.58 1.8887 -1.2861 0
M  V30 11857 C 1143.79 -1.03478 -3.33307 0
M  V30 11858 C 1145.13 -1.09577 -4.10217 0
M  V30 11859 O 1146.16 -0.984463 -3.42326 0
M  V30 11860 O 1145.02 -1.2673 -5.31603 0
M  V30 11861 H 1142.11 -0.157018 -0.811957 0
M  V30 11862 H 1144.66 -1.02027 -1.35605 0
M  V30 11863 H 1143.43 -2.07861 -3.31526 0
M  V30 11864 H 1143.05 -0.483967 -3.94644 0
M  V30 11865 N 1144.05 1.41491 -0.694123 0
M  V30 11866 C 1145 2.30783 -0.0278824 0
M  V30 11867 C 1145.97 1.47028 0.772783 0
M  V30 11868 O 1147.15 1.75819 0.74111 0
M  V30 11869 C 1144.29 3.33061 0.903579 0
M  V30 11870 C 1143.4 4.31896 0.0946823 0
M  V30 11871 C 1142.54 5.21243 1.02365 0
M  V30 11872 C 1141.58 6.11748 0.207578 0
M  V30 11873 N 1140.72 6.93583 1.09028 0
M  V30 11874 H 1145.56 2.87197 -0.795092 0
M  V30 11875 H 1143.09 1.41449 -0.403806 0
M  V30 11876 H 1145.05 3.90907 1.45765 0
M  V30 11877 H 1143.68 2.782 1.6372 0
M  V30 11878 H 1142.73 3.76009 -0.576289 0
M  V30 11879 H 1144.04 4.95889 -0.538059 0
M  V30 11880 H 1143.2 5.83917 1.647 0
M  V30 11881 H 1141.94 4.57473 1.69025 0
M  V30 11882 H 1140.94 5.48125 -0.428854 0
M  V30 11883 H 1142.17 6.77573 -0.455206 0
M  V30 11884 H 1140.11 6.32422 1.74292 0
M  V30 11885 H 1140.03 7.54257 0.513073 0
M  V30 11886 H 1141.3 7.60726 1.70048 0
M  V30 11887 N 1145.53 0.438773 1.51369 0
M  V30 11888 C 1146.47 -0.37195 2.27783 0
M  V30 11889 C 1147.44 -1.01558 1.31435 0
M  V30 11890 O 1148.63 -1.03421 1.60339 0
M  V30 11891 C 1145.77 -1.46636 3.12397 0
M  V30 11892 C 1144.88 -0.840727 4.2374 0
M  V30 11893 C 1144.02 -1.91031 4.95662 0
M  V30 11894 C 1143.06 -1.26318 5.98924 0
M  V30 11895 N 1142.19 -2.27419 6.64248 0
M  V30 11896 H 1147.03 0.286048 2.96624 0
M  V30 11897 H 1144.57 0.152909 1.46303 0
M  V30 11898 H 1146.53 -2.11219 3.59781 0
M  V30 11899 H 1145.16 -2.09397 2.45668 0
M  V30 11900 H 1144.21 -0.0831588 3.80309 0
M  V30 11901 H 1145.52 -0.328285 4.97719 0
M  V30 11902 H 1144.68 -2.63272 5.46601 0
M  V30 11903 H 1143.42 -2.45649 4.21317 0
M  V30 11904 H 1142.42 -0.526246 5.47276 0
M  V30 11905 H 1143.65 -0.724324 6.75226 0
M  V30 11906 H 1141.59 -2.81114 5.92715 0
M  V30 11907 H 1141.51 -1.81071 7.33996 0
M  V30 11908 H 1142.78 -2.99139 7.19817 0
M  V30 11909 N 1147.01 -1.56678 0.170181 0
M  V30 11910 C 1148.25 -1.98743 -0.477534 0
M  V30 11911 C 1148.61 -1.0538 -1.60497 0
M  V30 11912 O 1149.81 -1.3658 -2.31515 0
M  V30 11913 C 1148.08 -3.44565 -0.949186 0
M  V30 11914 S 1149.64 -4.08658 -1.59824 0
M  V30 11915 H 1146.46 -0.694202 -0.153639 0
M  V30 11916 H 1149.06 -1.93663 0.267373 0
M  V30 11917 H 1147.76 -4.1023 -0.118205 0
M  V30 11918 H 1147.3 -3.53409 -1.72816 0
M  V30 11919 H 1149.31 -4.03614 -2.88635 0
M  V30 11920 N 1148.48 0.103547 -1.57259 0
M  V30 11921 C 1149.39 1.14475 -2.04774 0
M  V30 11922 C 1150.41 1.44385 -0.971025 0
M  V30 11923 O 1151.59 1.55195 -1.28361 0
M  V30 11924 C 1148.65 2.4475 -2.45558 0
M  V30 11925 C 1147.71 2.22098 -3.67384 0
M  V30 11926 C 1146.94 3.4616 -4.06213 0
M  V30 11927 O 1147.17 4.5407 -3.45219 0
M  V30 11928 O 1146.1 3.36248 -4.9922 0
M  V30 11929 H 1149.93 0.771211 -2.93745 0
M  V30 11930 H 1147.51 0.315456 -1.46032 0
M  V30 11931 H 1149.39 3.21476 -2.72454 0
M  V30 11932 H 1148.07 2.81547 -1.59728 0
M  V30 11933 H 1146.98 1.43179 -3.45616 0
M  V30 11934 H 1148.31 1.90197 -4.53967 0
M  V30 11935 N 1149.96 1.53094 0.37415 0
M  V30 11936 C 1150.92 1.78264 1.44065 0
M  V30 11937 C 1151.92 0.652892 1.46949 0
M  V30 11938 O 1153.11 0.921046 1.47859 0
M  V30 11939 C 1150.25 1.89693 2.83248 0
M  V30 11940 H 1151.44 2.73505 1.23025 0
M  V30 11941 H 1148.99 1.44041 0.60678 0
M  V30 11942 H 1149.73 0.964884 3.09613 0
M  V30 11943 H 1149.51 2.71855 2.82554 0
M  V30 11944 H 1151 2.10787 3.60498 0
M  V30 11945 N 1151.44 -0.633461 1.44309 0
M  V30 11946 C 1152.39 -1.76674 1.51292 0
M  V30 11947 C 1153.38 -1.64972 0.384807 0
M  V30 11948 O 1154.59 -1.71079 0.559653 0
M  V30 11949 H 1150.96 -0.583238 0.474697 0
M  V30 11950 H 1152.93 -1.67907 2.46678 0
M  V30 11951 C 1151.68 -3.15002 1.47205 0
M  V30 11952 H 1151.01 -3.24653 2.33325 0
M  V30 11953 H 1152.45 -3.94199 1.56151 0
M  V30 11954 C 1150.9 -3.3635 0.192464 0
M  V30 11955 O 1151.43 -3.94857 -0.738285 0
M  V30 11956 N 1149.64 -2.9044 0.0963424 0
M  V30 11957 H 1149.19 -2.43011 0.85459 0
M  V30 11958 H 1149.15 -3.05099 -0.759061 0
M  V30 11959 N 1152.92 -1.31168 -0.873655 0
M  V30 11960 C 1153.85 -1.21094 -1.99646 0
M  V30 11961 C 1154.83 -0.0989684 -1.69812 0
M  V30 11962 O 1156.01 -0.282939 -1.92128 0
M  V30 11963 C 1153.14 -0.913684 -3.35066 0
M  V30 11964 C 1152.1 -1.98482 -3.79195 0
M  V30 11965 C 1151.42 -1.54033 -5.12033 0
M  V30 11966 C 1152.72 -3.39745 -3.96699 0
M  V30 11967 H 1154.42 -2.1503 -2.08333 0
M  V30 11968 H 1151.96 -1.03521 -1.00097 0
M  V30 11969 H 1153.92 -0.829821 -4.13149 0
M  V30 11970 H 1152.64 0.0613471 -3.26542 0
M  V30 11971 H 1151.3 -2.05851 -3.03349 0
M  V30 11972 H 1150.95 -0.553261 -4.99948 0
M  V30 11973 H 1150.65 -2.25688 -5.4253 0
M  V30 11974 H 1152.17 -1.47047 -5.92629 0
M  V30 11975 H 1153.59 -3.35071 -4.65188 0
M  V30 11976 H 1151.98 -4.09585 -4.38589 0
M  V30 11977 H 1153.05 -3.80802 -3.00196 0
M  V30 11978 N 1154.4 1.08748 -1.14068 0
M  V30 11979 C 1155.81 1.33125 -0.880341 0
M  V30 11980 C 1156.01 1.9569 0.480396 0
M  V30 11981 O 1155.07 2.2077 1.22543 0
M  V30 11982 C 1156.38 2.23618 -2.01036 0
M  V30 11983 C 1157.93 2.37108 -2.04326 0
M  V30 11984 C 1158.4 3.30941 -3.1661 0
M  V30 11985 N 1159.9 3.38517 -3.16166 0
M  V30 11986 C 1160.63 4.11142 -3.99687 0
M  V30 11987 N 1160.13 4.86505 -4.93239 0
M  V30 11988 N 1161.92 4.06938 -3.87761 0
M  V30 11989 H 1154.07 0.665164 -2.01716 0
M  V30 11990 H 1156.33 0.355612 -0.878774 0
M  V30 11991 H 1156.04 1.84885 -2.99183 0
M  V30 11992 H 1155.91 3.24056 -1.93049 0
M  V30 11993 H 1158.3 2.75101 -1.06787 0
M  V30 11994 H 1158.38 1.36424 -2.16384 0
M  V30 11995 H 1158.03 2.93669 -4.14392 0
M  V30 11996 H 1157.96 4.31545 -3.01789 0
M  V30 11997 H 1160.45 2.84786 -2.48405 0
M  V30 11998 H 1160.76 5.39372 -5.53441 0
M  V30 11999 H 1159.1 4.8557 -4.9724 0
M  V30 12000 H 1162.3 3.47166 -3.13996 0
M  V30 12001 H 1162.47 4.63275 -4.53079 0
M  V30 12002 N 1155.87 0.935264 1.26849 0
M  V30 12003 C 1157.12 0.580548 1.94313 0
M  V30 12004 C 1157.45 -0.877205 1.73259 0
M  V30 12005 O 1156.73 -1.62679 1.06611 0
M  V30 12006 C 1157.01 0.916445 3.48243 0
M  V30 12007 C 1156.86 2.42851 3.78607 0
M  V30 12008 C 1158.18 0.427665 4.38017 0
M  V30 12009 H 1155.3 0.21239 0.705733 0
M  V30 12010 H 1157.94 1.16841 1.49827 0
M  V30 12011 H 1156.09 0.416169 3.86265 0
M  V30 12012 H 1157.77 3.00106 3.50335 0
M  V30 12013 H 1156.01 2.8745 3.24892 0
M  V30 12014 H 1156.68 2.61405 4.8618 0
M  V30 12015 H 1159.16 0.856525 4.07189 0
M  V30 12016 H 1158.03 0.691571 5.44526 0
M  V30 12017 H 1158.29 -0.672344 4.36958 0
M  V30 12018 N 1157.35 -1.41121 0.701616 0
M  V30 12019 C 1158.58 -2.05973 0.242896 0
M  V30 12020 C 1159 -1.52474 -1.10151 0
M  V30 12021 O 1158.36 -0.654224 -1.69085 0
M  V30 12022 C 1158.41 -3.59943 0.217614 0
M  V30 12023 O 1157.51 -4.04454 -0.805629 0
M  V30 12024 H 1156.85 -0.653581 0.117166 0
M  V30 12025 H 1159.38 -1.80777 0.958175 0
M  V30 12026 H 1159.39 -4.07969 0.0505267 0
M  V30 12027 H 1158.07 -3.98249 1.19877 0
M  V30 12028 H 1156.65 -3.6792 -0.607404 0
M  V30 12029 N 1158.83 -0.446794 -1.51134 0
M  V30 12030 C 1160.08 0.116493 -2.02165 0
M  V30 12031 C 1160.41 1.41884 -1.33039 0
M  V30 12032 O 1159.66 1.90757 -0.437071 0
M  V30 12033 C 1159.96 0.373015 -3.55448 0
M  V30 12034 C 1159.63 -0.844659 -4.42918 0
M  V30 12035 C 1158.29 -1.17857 -4.66544 0
M  V30 12036 C 1160.64 -1.65653 -4.94174 0
M  V30 12037 C 1157.97 -2.32486 -5.38672 0
M  V30 12038 C 1160.32 -2.7939 -5.6756 0
M  V30 12039 C 1158.98 -3.13224 -5.89446 0
M  V30 12040 H 1158.25 0.0426279 -0.739773 0
M  V30 12041 H 1160.9 -0.595921 -1.81992 0
M  V30 12042 H 1159.21 1.16742 -3.74003 0
M  V30 12043 H 1160.9 0.822425 -3.92476 0
M  V30 12044 H 1157.49 -0.574478 -4.24733 0
M  V30 12045 H 1161.68 -1.41176 -4.75797 0
M  V30 12046 H 1156.93 -2.59003 -5.5383 0
M  V30 12047 H 1161.11 -3.42662 -6.06264 0
M  V30 12048 H 1158.73 -4.02158 -6.45115 0
M  V30 12049 N 1160.31 1.56586 -0.178487 0
M  V30 12050 C 1161.53 2.01915 0.473841 0
M  V30 12051 C 1161.96 1.05789 1.55533 0
M  V30 12052 O 1161.32 0.0386018 1.81259 0
M  V30 12053 C 1161.36 3.45799 1.02251 0
M  V30 12054 O 1160.47 3.52761 2.1362 0
M  V30 12055 H 1159.81 0.654372 0.112666 0
M  V30 12056 H 1162.34 2.02613 -0.284486 0
M  V30 12057 H 1162.35 3.85252 1.34332 0
M  V30 12058 H 1161.02 4.1526 0.230719 0
M  V30 12059 H 1159.6 3.25172 1.8253 0
M  V30 12060 N 1161.79 -0.095206 1.57312 0
M  V30 12061 C 1163.2 -0.649733 1.7503 0
M  V30 12062 C 1163.55 -1.7912 0.800652 0
M  V30 12063 O 1162.67 -2.1639 -0.0208831 0
M  V30 12064 C 1163.27 -1.18541 3.17386 0
M  V30 12065 C 1161.83 -1.686 3.36528 0
M  V30 12066 C 1160.97 -0.595531 2.7083 0
M  V30 12067 H 1163.93 0.130863 1.5816 0
M  V30 12068 H 1163.95 -2.05473 3.20252 0
M  V30 12069 H 1163.46 -0.35441 3.86478 0
M  V30 12070 H 1161.56 -2.541 2.72514 0
M  V30 12071 H 1161.67 -1.77907 4.44844 0
M  V30 12072 H 1160.04 -1.03495 2.32725 0
M  V30 12073 H 1160.82 0.224883 3.42563 0
M  V30 12074 N 1163.26 -1.53291 -0.366026 0
M  V30 12075 C 1164.23 -1.79025 -1.43117 0
M  V30 12076 C 1165.23 -0.660676 -1.46601 0
M  V30 12077 O 1166.42 -0.928875 -1.47369 0
M  V30 12078 C 1163.55 -1.91192 -2.82238 0
M  V30 12079 H 1164.74 -2.74154 -1.21572 0
M  V30 12080 H 1162.3 -1.44361 -0.599132 0
M  V30 12081 H 1163.03 -0.98129 -3.09097 0
M  V30 12082 H 1162.82 -2.7335 -2.81109 0
M  V30 12083 H 1164.31 -2.12696 -3.59375 0
M  V30 12084 N 1164.74 0.6258 -1.44643 0
M  V30 12085 C 1166.16 0.944569 -1.28647 0
M  V30 12086 C 1166.36 2.00227 -0.226134 0
M  V30 12087 O 1165.41 2.4953 0.386161 0
M  V30 12088 C 1166.73 1.40278 -2.65975 0
M  V30 12089 C 1168.28 1.51797 -2.73727 0
M  V30 12090 C 1168.75 2.01 -4.11537 0
M  V30 12091 N 1170.24 2.08262 -4.13741 0
M  V30 12092 C 1170.98 2.47515 -5.17227 0
M  V30 12093 N 1170.47 2.85867 -6.31072 0
M  V30 12094 N 1172.27 2.47695 -5.04583 0
M  V30 12095 H 1164.42 -0.0736157 -2.12272 0
M  V30 12096 H 1166.68 0.0296998 -0.947535 0
M  V30 12097 H 1166.39 0.699871 -3.44666 0
M  V30 12098 H 1166.26 2.37279 -2.93221 0
M  V30 12099 H 1168.65 2.21183 -1.95351 0
M  V30 12100 H 1168.73 0.531574 -2.50216 0
M  V30 12101 H 1168.37 1.32207 -4.90391 0
M  V30 12102 H 1168.3 3.0052 -4.32429 0
M  V30 12103 H 1170.79 1.81286 -3.31578 0
M  V30 12104 H 1171.11 3.14647 -7.05845 0
M  V30 12105 H 1169.45 2.83605 -6.34502 0
M  V30 12106 H 1172.64 2.17127 -4.14697 0
M  V30 12107 H 1172.81 2.77962 -5.85356 0
M  V30 12108 N 1166.22 1.31629 0.866686 0
M  V30 12109 C 1167.45 1.24609 1.65793 0
M  V30 12110 C 1167.87 -0.184944 1.87189 0
M  V30 12111 O 1167.23 -1.1322 1.41601 0
M  V30 12112 C 1167.28 1.9988 3.00134 0
M  V30 12113 O 1166.38 1.33838 3.90079 0
M  V30 12114 H 1165.72 0.430051 0.505917 0
M  V30 12115 H 1168.25 1.73752 1.08035 0
M  V30 12116 H 1168.26 2.09599 3.50046 0
M  V30 12117 H 1166.94 3.03947 2.83882 0
M  V30 12118 H 1165.51 1.3259 3.48532 0
M  V30 12119 N 1167.7 -1.08142 1.14644 0
M  V30 12120 C 1169.12 -1.32656 0.887388 0
M  V30 12121 C 1169.32 -1.95942 -0.470012 0
M  V30 12122 O 1168.37 -2.21417 -1.21371 0
M  V30 12123 C 1169.68 -2.22549 2.02219 0
M  V30 12124 C 1171.23 -2.36021 2.0558 0
M  V30 12125 C 1171.71 -3.29257 3.18361 0
M  V30 12126 N 1173.2 -3.36835 3.17957 0
M  V30 12127 C 1173.93 -4.09017 4.01862 0
M  V30 12128 N 1173.43 -4.83882 4.95812 0
M  V30 12129 N 1175.22 -4.04875 3.89913 0
M  V30 12130 H 1167.37 -0.654457 2.02066 0
M  V30 12131 H 1169.64 -0.350947 0.880648 0
M  V30 12132 H 1169.34 -1.83296 3.00159 0
M  V30 12133 H 1169.22 -3.23027 1.94765 0
M  V30 12134 H 1171.6 -2.74531 1.08245 0
M  V30 12135 H 1171.68 -1.35275 2.17105 0
M  V30 12136 H 1171.33 -2.91468 4.15944 0
M  V30 12137 H 1171.26 -4.29938 3.04074 0
M  V30 12138 H 1173.75 -2.83465 2.49912 0
M  V30 12139 H 1174.06 -5.3643 5.56294 0
M  V30 12140 H 1172.41 -4.82926 4.99808 0
M  V30 12141 H 1175.6 -3.45496 3.15833 0
M  V30 12142 H 1175.77 -4.60866 4.55529 0
M  V30 12143 N 1169.18 -0.941978 -1.26351 0
M  V30 12144 C 1170.14 -0.456768 -2.24602 0
M  V30 12145 C 1171.14 0.432574 -1.54872 0
M  V30 12146 O 1172.33 0.23164 -1.72653 0
M  V30 12147 C 1169.46 0.341583 -3.39184 0
M  V30 12148 H 1170.66 -1.32503 -2.69041 0
M  V30 12149 H 1168.21 -0.724021 -1.38519 0
M  V30 12150 H 1168.94 1.22806 -3.00149 0
M  V30 12151 H 1168.73 -0.296268 -3.90979 0
M  V30 12152 H 1170.22 0.670955 -4.12175 0
M  V30 12153 N 1170.66 1.40747 -0.709091 0
M  V30 12154 C 1171.59 2.33404 -0.0669763 0
M  V30 12155 C 1172.57 1.52546 0.752582 0
M  V30 12156 O 1173.75 1.81036 0.702823 0
M  V30 12157 C 1170.88 3.36476 0.860285 0
M  V30 12158 C 1169.84 4.27748 0.146828 0
M  V30 12159 C 1169.16 5.21304 1.18937 0
M  V30 12160 C 1170.46 5.12734 -0.995064 0
M  V30 12161 H 1172.16 2.87349 -0.840888 0
M  V30 12162 H 1169.7 1.38163 -0.405817 0
M  V30 12163 H 1171.65 4.00231 1.31883 0
M  V30 12164 H 1170.38 2.80912 1.66602 0
M  V30 12165 H 1169.04 3.65437 -0.291826 0
M  V30 12166 H 1168.69 4.62048 1.98798 0
M  V30 12167 H 1168.39 5.8321 0.716917 0
M  V30 12168 H 1169.91 5.87936 1.64815 0
M  V30 12169 H 1171.32 5.69979 -0.61618 0
M  V30 12170 H 1169.72 5.83649 -1.39547 0
M  V30 12171 H 1170.79 4.49097 -1.82867 0
M  V30 12172 N 1172.13 0.454803 1.50895 0
M  V30 12173 C 1173.55 0.108037 1.59234 0
M  V30 12174 C 1173.75 -1.38416 1.46435 0
M  V30 12175 O 1172.81 -2.15586 1.31449 0
M  V30 12176 C 1174.12 0.643721 2.93729 0
M  V30 12177 C 1175.67 0.605703 3.07083 0
M  V30 12178 C 1176.14 1.11865 4.44128 0
M  V30 12179 N 1177.63 1.07738 4.50496 0
M  V30 12180 C 1178.37 1.44495 5.54895 0
M  V30 12181 N 1177.86 1.88624 6.66628 0
M  V30 12182 N 1179.66 1.36201 5.45349 0
M  V30 12183 H 1171.81 1.4255 1.57459 0
M  V30 12184 H 1174.07 0.588504 0.743214 0
M  V30 12185 H 1173.78 1.68844 3.0852 0
M  V30 12186 H 1173.65 0.0782404 3.77119 0
M  V30 12187 H 1176.04 -0.430065 2.91949 0
M  V30 12188 H 1176.12 1.2078 2.2549 0
M  V30 12189 H 1175.76 2.15297 4.6001 0
M  V30 12190 H 1175.69 0.492933 5.24288 0
M  V30 12191 H 1178.18 0.753526 3.70311 0
M  V30 12192 H 1178.5 2.14863 7.4233 0
M  V30 12193 H 1176.84 1.92564 6.6779 0
M  V30 12194 H 1180.03 1.01579 4.56946 0
M  V30 12195 H 1180.21 1.65175 6.26595 0
M  V30 12196 N 1173.61 -1.56489 0.186789 0
M  V30 12197 C 1174.54 -2.21705 -0.732739 0
M  V30 12198 C 1175.52 -1.17751 -1.22755 0
M  V30 12199 O 1176.71 -1.46231 -1.27789 0
M  V30 12200 C 1173.84 -2.86992 -1.95584 0
M  V30 12201 C 1172.79 -3.97118 -1.59628 0
M  V30 12202 C 1172.12 -4.49529 -2.89531 0
M  V30 12203 C 1173.42 -5.15941 -0.812518 0
M  V30 12204 H 1175.11 -2.98802 -0.189094 0
M  V30 12205 H 1172.66 -1.43722 -0.0895099 0
M  V30 12206 H 1174.61 -3.31295 -2.60426 0
M  V30 12207 H 1173.33 -2.07287 -2.52388 0
M  V30 12208 H 1171.99 -3.53494 -0.971475 0
M  V30 12209 H 1171.64 -3.66596 -3.44407 0
M  V30 12210 H 1171.34 -5.23832 -2.66221 0
M  V30 12211 H 1172.87 -4.96528 -3.55376 0
M  V30 12212 H 1174.28 -5.56841 -1.36386 0
M  V30 12213 H 1172.68 -5.96259 -0.677862 0
M  V30 12214 H 1173.75 -4.84535 0.188095 0
M  V30 12215 N 1175.09 0.086862 -1.5736 0
M  V30 12216 C 1176.32 0.802167 -1.90717 0
M  V30 12217 C 1176.73 1.71875 -0.781304 0
M  V30 12218 O 1176.09 1.80831 0.246255 0
M  V30 12219 C 1176.14 1.60858 -3.23739 0
M  V30 12220 O 1175.86 0.728851 -4.31995 0
M  V30 12221 C 1177.36 2.42621 -3.71012 0
M  V30 12222 H 1174.58 0.228914 -0.630745 0
M  V30 12223 H 1177.13 0.061634 -2.04407 0
M  V30 12224 H 1175.28 2.30153 -3.11622 0
M  V30 12225 H 1175.7 1.2882 -5.08435 0
M  V30 12226 H 1177.17 2.94683 -4.66761 0
M  V30 12227 H 1177.65 3.21462 -2.99264 0
M  V30 12228 H 1178.25 1.78509 -3.86024 0
M  V30 12229 N 1176.57 1.53483 0.357892 0
M  V30 12230 C 1177.53 1.79782 1.42166 0
M  V30 12231 C 1178.53 0.668441 1.46248 0
M  V30 12232 O 1179.72 0.936677 1.46874 0
M  V30 12233 C 1176.85 1.92686 2.8122 0
M  V30 12234 H 1178.05 2.74794 1.20117 0
M  V30 12235 H 1175.6 1.44677 0.591468 0
M  V30 12236 H 1176.33 0.997669 3.08573 0
M  V30 12237 H 1176.12 2.74837 2.79655 0
M  V30 12238 H 1177.61 2.14599 3.58242 0
M  V30 12239 N 1178.05 -0.61812 1.44973 0
M  V30 12240 C 1179.29 -1.3774 1.48439 0
M  V30 12241 C 1179.62 -1.94117 0.121999 0
M  V30 12242 O 1178.88 -1.749 -0.877974 0
M  V30 12243 C 1179.17 -2.55143 2.50274 0
M  V30 12244 C 1178.84 -2.16976 3.95262 0
M  V30 12245 C 1177.5 -2.06281 4.34743 0
M  V30 12246 C 1179.85 -1.8703 4.86486 0
M  V30 12247 C 1177.18 -1.63846 5.63357 0
M  V30 12248 C 1179.53 -1.46085 6.15501 0
M  V30 12249 C 1178.2 -1.3394 6.53924 0
M  V30 12250 H 1177.47 -0.504026 0.543175 0
M  V30 12251 H 1180.12 -0.699685 1.7826 0
M  V30 12252 H 1178.42 -3.28205 2.13983 0
M  V30 12253 H 1180.12 -3.13373 2.50197 0
M  V30 12254 H 1176.71 -2.26223 3.64034 0
M  V30 12255 H 1180.89 -1.94196 4.56729 0
M  V30 12256 H 1176.15 -1.53058 5.91932 0
M  V30 12257 H 1180.32 -1.21956 6.85638 0
M  V30 12258 H 1177.95 -1.00832 7.53483 0
M  V30 12259 N 1179.52 -1.32087 -0.859693 0
M  V30 12260 C 1180.49 -1.20546 -1.94939 0
M  V30 12261 C 1181.49 -0.12982 -1.60275 0
M  V30 12262 O 1182.68 -0.379853 -1.70008 0
M  V30 12263 C 1179.81 -0.852717 -3.30063 0
M  V30 12264 H 1181 -2.17384 -2.06602 0
M  V30 12265 H 1178.55 -1.15846 -1.04926 0
M  V30 12266 H 1179.29 0.114059 -3.24099 0
M  V30 12267 H 1179.07 -1.63035 -3.56598 0
M  V30 12268 H 1180.56 -0.796145 -4.09941 0
M  V30 12269 N 1181 1.07532 -1.15215 0
M  V30 12270 C 1182.23 1.84356 -0.950139 0
M  V30 12271 C 1182.65 1.81429 0.496502 0
M  V30 12272 O 1182.01 1.20589 1.35381 0
M  V30 12273 C 1182.06 3.29425 -1.46669 0
M  V30 12274 O 1181.16 4.07008 -0.664674 0
M  V30 12275 H 1180.5 0.570921 -0.339036 0
M  V30 12276 H 1183.03 1.35665 -1.53154 0
M  V30 12277 H 1183.04 3.8026 -1.47873 0
M  V30 12278 H 1181.72 3.3087 -2.51988 0
M  V30 12279 H 1180.29 3.65841 -0.72211 0
M  V30 12280 N 1182.48 0.948665 1.2585 0
M  V30 12281 C 1183.41 0.482036 2.2847 0
M  V30 12282 C 1184.39 -0.468553 1.63519 0
M  V30 12283 O 1185.58 -0.368796 1.90666 0
M  V30 12284 C 1182.71 -0.246603 3.46423 0
M  V30 12285 C 1181.66 0.61815 4.23513 0
M  V30 12286 C 1180.99 -0.240884 5.34157 0
M  V30 12287 C 1182.29 1.89327 4.86778 0
M  V30 12288 H 1183.98 1.33973 2.67753 0
M  V30 12289 H 1181.53 0.645645 1.28715 0
M  V30 12290 H 1183.48 -0.584135 4.17332 0
M  V30 12291 H 1182.2 -1.13849 3.06114 0
M  V30 12292 H 1180.86 0.938682 3.54379 0
M  V30 12293 H 1180.51 -1.13235 4.90089 0
M  V30 12294 H 1180.21 0.334367 5.86648 0
M  V30 12295 H 1181.73 -0.573517 6.07901 0
M  V30 12296 H 1183.15 1.62252 5.49861 0
M  V30 12297 H 1181.55 2.41369 5.49419 0
M  V30 12298 H 1182.62 2.60006 4.09298 0
M  V30 12299 N 1183.96 -1.40369 0.716545 0
M  V30 12300 C 1185.18 -2.05704 0.264729 0
M  V30 12301 C 1185.61 -1.53634 -1.08527 0
M  V30 12302 O 1184.97 -0.67212 -1.68381 0
M  V30 12303 C 1185.01 -3.59692 0.255778 0
M  V30 12304 O 1184.12 -4.05286 -0.762686 0
M  V30 12305 H 1183.46 -0.652301 0.124092 0
M  V30 12306 H 1185.99 -1.7975 0.977295 0
M  V30 12307 H 1186 -4.07892 0.0937944 0
M  V30 12308 H 1184.67 -3.96955 1.24095 0
M  V30 12309 H 1183.25 -3.68543 -0.568347 0
M  V30 12310 N 1185.44 -0.462799 -1.50652 0
M  V30 12311 C 1186.68 0.0951853 -2.02576 0
M  V30 12312 C 1187.02 1.40113 -1.34469 0
M  V30 12313 O 1186.29 1.88793 -0.467702 0
M  V30 12314 C 1186.57 0.287603 -3.5895 0
M  V30 12315 C 1186.43 -1.03878 -4.37641 0
M  V30 12316 C 1187.75 1.04593 -4.27491 0
M  V30 12317 H 1184.86 0.0331191 -0.736255 0
M  V30 12318 H 1187.51 -0.606772 -1.80051 0
M  V30 12319 H 1185.66 0.885514 -3.78274 0
M  V30 12320 H 1187.33 -1.67263 -4.29908 0
M  V30 12321 H 1185.57 -1.6374 -4.01711 0
M  V30 12322 H 1186.24 -0.857889 -5.45293 0
M  V30 12323 H 1188.72 0.539213 -4.12591 0
M  V30 12324 H 1187.59 1.14935 -5.36732 0
M  V30 12325 H 1187.86 2.08045 -3.90089 0
M  V30 12326 N 1186.91 1.56388 -0.195085 0
M  V30 12327 C 1187.82 2.22698 0.737743 0
M  V30 12328 C 1188.84 1.22605 1.23466 0
M  V30 12329 O 1190.02 1.55342 1.28183 0
M  V30 12330 C 1187.08 2.87333 1.94011 0
M  V30 12331 C 1186.14 4.02696 1.48776 0
M  V30 12332 C 1185.38 4.64239 2.63282 0
M  V30 12333 O 1185.6 4.24706 3.80763 0
M  V30 12334 O 1184.53 5.53705 2.35996 0
M  V30 12335 H 1188.36 3.03021 0.203013 0
M  V30 12336 H 1185.94 1.49361 0.0342044 0
M  V30 12337 H 1187.83 3.28226 2.64284 0
M  V30 12338 H 1186.5 2.0999 2.46345 0
M  V30 12339 H 1185.41 3.66426 0.753839 0
M  V30 12340 H 1186.74 4.81703 1.01109 0
M  V30 12341 N 1188.39 -0.0785156 1.57404 0
M  V30 12342 C 1189.32 -1.09446 2.06262 0
M  V30 12343 C 1190.3 -1.40777 0.954772 0
M  V30 12344 O 1191.49 -1.5052 1.22708 0
M  V30 12345 C 1188.62 -2.40979 2.50093 0
M  V30 12346 C 1187.57 -2.24017 3.64692 0
M  V30 12347 C 1186.9 -3.60873 3.94556 0
M  V30 12348 C 1188.2 -1.66696 4.94985 0
M  V30 12349 H 1189.89 -0.687928 2.9139 0
M  V30 12350 H 1187.44 -0.329466 1.4018 0
M  V30 12351 H 1189.39 -3.12337 2.82884 0
M  V30 12352 H 1188.12 -2.83599 1.61985 0
M  V30 12353 H 1186.77 -1.55101 3.32174 0
M  V30 12354 H 1186.42 -4.01051 3.0359 0
M  V30 12355 H 1186.12 -3.50365 4.71718 0
M  V30 12356 H 1187.65 -4.33673 4.29837 0
M  V30 12357 H 1189.06 -2.27913 5.2605 0
M  V30 12358 H 1187.46 -1.66902 5.76423 0
M  V30 12359 H 1188.53 -0.627827 4.80818 0
M  V30 12360 N 1189.87 -1.5367 -0.349747 0
M  V30 12361 C 1191.1 -1.74858 -1.11532 0
M  V30 12362 C 1191.52 -0.483591 -1.81777 0
M  V30 12363 O 1190.88 0.563399 -1.72324 0
M  V30 12364 C 1190.93 -2.92479 -2.10923 0
M  V30 12365 O 1190.03 -2.62194 -3.18321 0
M  V30 12366 H 1189.37 -0.580219 -0.322865 0
M  V30 12367 H 1191.9 -2.00611 -0.402033 0
M  V30 12368 H 1191.91 -3.19093 -2.54252 0
M  V30 12369 H 1190.59 -3.84228 -1.59191 0
M  V30 12370 H 1189.16 -2.46448 -2.79853 0
M  V30 12371 N 1191.35 0.610423 -1.45298 0
M  V30 12372 C 1192.28 1.73207 -1.56594 0
M  V30 12373 C 1193.26 1.64893 -0.417651 0
M  V30 12374 O 1194.44 1.83336 -0.64043 0
M  V30 12375 C 1191.57 3.11803 -1.52959 0
M  V30 12376 C 1190.53 3.34925 -2.66475 0
M  V30 12377 C 1189.85 4.73764 -2.47894 0
M  V30 12378 C 1191.15 3.25456 -4.08504 0
M  V30 12379 H 1192.85 1.6401 -2.50482 0
M  V30 12380 H 1190.39 0.787621 -1.20551 0
M  V30 12381 H 1192.35 3.90065 -1.59458 0
M  V30 12382 H 1191.07 3.21833 -0.55599 0
M  V30 12383 H 1189.73 2.59051 -2.59399 0
M  V30 12384 H 1189.38 4.80524 -1.4868 0
M  V30 12385 H 1189.08 4.90191 -3.24016 0
M  V30 12386 H 1190.6 5.54231 -2.56243 0
M  V30 12387 H 1192.02 3.93597 -4.16839 0
M  V30 12388 H 1190.41 3.53414 -4.84994 0
M  V30 12389 H 1191.48 2.22939 -4.30612 0
M  V30 12390 N 1192.83 1.32541 0.852676 0
M  V30 12391 C 1194.05 1.2636 1.64462 0
M  V30 12392 C 1194.48 -0.16508 1.87374 0
M  V30 12393 O 1193.83 -1.11712 1.42794 0
M  V30 12394 C 1193.88 2.03052 2.97997 0
M  V30 12395 O 1192.99 1.37967 3.88637 0
M  V30 12396 H 1192.33 0.435393 0.501327 0
M  V30 12397 H 1194.86 1.74888 1.06186 0
M  V30 12398 H 1194.87 2.133 3.47803 0
M  V30 12399 H 1193.54 3.06941 2.80642 0
M  V30 12400 H 1192.12 1.36279 3.47106 0
M  V30 12401 N 1194.3 -1.0692 1.15784 0
M  V30 12402 C 1195.25 -2.16335 0.854506 0
M  V30 12403 C 1196.25 -1.68505 -0.173868 0
M  V30 12404 O 1197.45 -1.79977 -0.0284722 0
M  V30 12405 H 1193.83 -0.706103 0.258694 0
M  V30 12406 H 1195.8 -2.39135 1.78486 0
M  V30 12407 C 1194.55 -3.45778 0.365042 0
M  V30 12408 H 1193.87 -3.82971 1.14776 0
M  V30 12409 H 1195.31 -4.23567 0.191504 0
M  V30 12410 C 1193.77 -3.24258 -0.914253 0
M  V30 12411 O 1194.3 -3.49236 -1.98487 0
M  V30 12412 N 1192.51 -2.77722 -0.855501 0
M  V30 12413 H 1192.05 -2.57595 0.0159233 0
M  V30 12414 H 1192.01 -2.63702 -1.71198 0
M  V30 12415 N 1195.78 -0.955326 -1.25345 0
M  V30 12416 C 1196.71 -0.494145 -2.28211 0
M  V30 12417 C 1197.69 0.459875 -1.63766 0
M  V30 12418 O 1198.88 0.358679 -1.90859 0
M  V30 12419 C 1196.01 0.228228 -3.46549 0
M  V30 12420 C 1194.96 -0.640601 -4.23179 0
M  V30 12421 C 1194.29 0.212553 -5.34277 0
M  V30 12422 C 1195.59 -1.91906 -4.85767 0
M  V30 12423 H 1197.28 -1.35391 -2.67039 0
M  V30 12424 H 1194.83 -0.652462 -1.2837 0
M  V30 12425 H 1196.78 0.561995 -4.17636 0
M  V30 12426 H 1195.51 1.12224 -3.06714 0
M  V30 12427 H 1194.16 -0.957462 -3.53876 0
M  V30 12428 H 1193.81 1.10634 -4.90682 0
M  V30 12429 H 1193.51 -0.365473 -5.86462 0
M  V30 12430 H 1195.04 0.541271 -6.08196 0
M  V30 12431 H 1196.45 -1.65165 -5.48993 0
M  V30 12432 H 1194.85 -2.44279 -5.48131 0
M  V30 12433 H 1195.92 -2.62173 -4.07914 0
M  V30 12434 N 1197.26 1.39987 -0.723979 0
M  V30 12435 C 1198.17 2.3447 -0.0780936 0
M  V30 12436 C 1199.19 1.57744 0.734368 0
M  V30 12437 O 1200.36 1.90091 0.665385 0
M  V30 12438 C 1197.43 3.36705 0.826492 0
M  V30 12439 C 1196.49 4.293 0.00303036 0
M  V30 12440 C 1195.72 5.26651 0.864535 0
M  V30 12441 O 1195.95 5.30194 2.10357 0
M  V30 12442 O 1194.88 6.01157 0.299057 0
M  V30 12443 H 1198.71 2.91338 -0.857646 0
M  V30 12444 H 1196.29 1.41324 -0.484536 0
M  V30 12445 H 1198.17 3.9938 1.34439 0
M  V30 12446 H 1196.85 2.82237 1.58505 0
M  V30 12447 H 1195.75 3.69883 -0.560136 0
M  V30 12448 H 1197.09 4.86942 -0.717494 0
M  V30 12449 N 1198.74 0.470782 1.50404 0
M  V30 12450 C 1199.65 -0.328877 2.32283 0
M  V30 12451 C 1200.67 -0.99629 1.42654 0
M  V30 12452 O 1201.84 -0.984331 1.75707 0
M  V30 12453 C 1198.91 -1.39675 3.1732 0
M  V30 12454 C 1197.97 -0.745965 4.22769 0
M  V30 12455 C 1197.2 -1.76295 5.03742 0
M  V30 12456 O 1197.42 -2.98943 4.85788 0
M  V30 12457 O 1196.36 -1.33495 5.86909 0
M  V30 12458 H 1200.18 0.340491 3.01785 0
M  V30 12459 H 1197.77 0.232637 1.47578 0
M  V30 12460 H 1199.65 -2.0153 3.70086 0
M  V30 12461 H 1198.33 -2.04959 2.50546 0
M  V30 12462 H 1197.23 -0.0884647 3.73995 0
M  V30 12463 H 1198.57 -0.136074 4.92012 0
M  V30 12464 N 1200.22 -1.56282 0.203376 0
M  V30 12465 C 1201.49 -1.89587 -0.481256 0
M  V30 12466 C 1201.87 -1.11812 -1.79057 0
M  V30 12467 O 1201.22 -0.221759 -2.27421 0
M  V30 12468 C 1201.43 -3.42071 -0.691965 0
M  V30 12469 C 1202.78 -4.12471 -1.00761 0
M  V30 12470 O 1203.8 -3.47568 -0.779396 0
M  V30 12471 O 1202.66 -5.27194 -1.43974 0
M  V30 12472 H 1199.76 -0.787682 -0.251963 0
M  V30 12473 H 1202.3 -1.67934 0.244207 0
M  V30 12474 H 1201.08 -3.9061 0.232322 0
M  V30 12475 H 1200.7 -3.69444 -1.46958 0
M  V30 12476 N 1201.7 0.070167 -1.57444 0
M  V30 12477 C 1202.66 1.06761 -2.02817 0
M  V30 12478 C 1203.66 1.31498 -0.925462 0
M  V30 12479 O 1204.85 1.27192 -1.19029 0
M  V30 12480 C 1201.98 2.41086 -2.41019 0
M  V30 12481 H 1203.17 0.67651 -2.9217 0
M  V30 12482 H 1200.73 0.315936 -1.53074 0
M  V30 12483 H 1201.46 2.85025 -1.54697 0
M  V30 12484 H 1201.25 2.24472 -3.21488 0
M  V30 12485 H 1202.74 3.12778 -2.76694 0
M  V30 12486 N 1203.17 1.53854 0.341593 0
M  V30 12487 C 1204.4 1.7488 1.10002 0
M  V30 12488 C 1204.81 0.488802 1.82777 0
M  V30 12489 O 1204.15 -0.549333 1.75294 0
M  V30 12490 C 1204.22 2.87604 2.15694 0
M  V30 12491 C 1203.88 4.27142 1.62477 0
M  V30 12492 C 1204.88 5.08642 1.07606 0
M  V30 12493 C 1202.56 4.73633 1.67265 0
M  V30 12494 C 1204.56 6.34735 0.582284 0
M  V30 12495 C 1202.24 5.99697 1.175 0
M  V30 12496 C 1203.24 6.80081 0.630742 0
M  V30 12497 O 1202.93 8.03777 0.140519 0
M  V30 12498 H 1202.66 0.587824 0.333824 0
M  V30 12499 H 1205.22 2.01488 0.398965 0
M  V30 12500 H 1203.45 2.56526 2.89364 0
M  V30 12501 H 1205.13 2.96583 2.77117 0
M  V30 12502 H 1205.9 4.73887 1.03227 0
M  V30 12503 H 1201.78 4.11121 2.08567 0
M  V30 12504 H 1205.32 6.97424 0.156811 0
M  V30 12505 H 1201.22 6.33947 1.21579 0
M  V30 12506 H 1201.99 8.18094 0.257626 0
M  V30 12507 N 1204.65 -0.602709 1.4562 0
M  V30 12508 C 1205.9 -1.36159 1.51103 0
M  V30 12509 C 1206.25 -1.91794 0.152552 0
M  V30 12510 O 1205.55 -1.7239 -0.836201 0
M  V30 12511 C 1205.74 -2.52474 2.52966 0
M  V30 12512 C 1205.57 -2.0823 3.98585 0
M  V30 12513 C 1204.34 -1.94175 4.66502 0
M  V30 12514 C 1206.54 -1.65402 4.86977 0
M  V30 12515 N 1204.52 -1.43792 5.96822 0
M  V30 12516 C 1205.89 -1.26469 6.06964 0
M  V30 12517 C 1207.94 -1.53038 4.73797 0
M  V30 12518 C 1206.65 -0.764065 7.1523 0
M  V30 12519 C 1208.67 -1.04379 5.82116 0
M  V30 12520 C 1208.04 -0.664136 7.01262 0
M  V30 12521 H 1204.13 -0.491974 0.607853 0
M  V30 12522 H 1206.72 -0.688472 1.82121 0
M  V30 12523 H 1204.89 -3.17375 2.23891 0
M  V30 12524 H 1206.62 -3.19369 2.48567 0
M  V30 12525 H 1203.38 -2.1551 4.21726 0
M  V30 12526 H 1203.8 -1.2082 6.66132 0
M  V30 12527 H 1208.44 -1.81014 3.82091 0
M  V30 12528 H 1206.16 -0.471858 8.06721 0
M  V30 12529 H 1209.75 -0.952316 5.73953 0
M  V30 12530 H 1208.63 -0.293412 7.83651 0
M  V30 12531 N 1206.13 -1.32992 -0.845635 0
M  V30 12532 C 1207.38 -1.24249 -1.60281 0
M  V30 12533 C 1207.71 0.193049 -1.93238 0
M  V30 12534 O 1206.98 1.1326 -1.58122 0
M  V30 12535 C 1207.27 -2.1111 -2.91727 0
M  V30 12536 C 1207.12 -3.63088 -2.65494 0
M  V30 12537 C 1208.44 -1.97913 -3.93089 0
M  V30 12538 H 1205.56 -0.452698 -0.581578 0
M  V30 12539 H 1208.2 -1.63026 -0.975828 0
M  V30 12540 H 1206.35 -1.78169 -3.45236 0
M  V30 12541 H 1208.02 -4.06287 -2.18469 0
M  V30 12542 H 1206.26 -3.85304 -1.99306 0
M  V30 12543 H 1206.94 -4.19202 -3.59129 0
M  V30 12544 H 1209.41 -2.26788 -3.48864 0
M  V30 12545 H 1208.29 -2.60952 -4.82903 0
M  V30 12546 H 1208.55 -0.949378 -4.31786 0
M  V30 12547 N 1207.61 1.06304 -1.1635 0
M  V30 12548 C 1208.54 2.13732 -0.827721 0
M  V30 12549 C 1209.55 1.61962 0.164983 0
M  V30 12550 O 1210.74 1.784 -0.0597591 0
M  V30 12551 C 1207.84 3.38239 -0.211623 0
M  V30 12552 C 1207.01 4.19325 -1.2444 0
M  V30 12553 C 1206.07 5.22193 -0.648127 0
M  V30 12554 O 1205.1 5.53755 -1.31695 0
M  V30 12555 N 1206.3 5.77742 0.565179 0
M  V30 12556 H 1209.07 2.43136 -1.75228 0
M  V30 12557 H 1206.63 1.22304 -1.06081 0
M  V30 12558 H 1208.62 4.04204 0.200306 0
M  V30 12559 H 1207.19 3.06461 0.616491 0
M  V30 12560 H 1206.41 3.49017 -1.83251 0
M  V30 12561 H 1207.7 4.70306 -1.94138 0
M  V30 12562 H 1207.1 5.54366 1.12673 0
M  V30 12563 H 1205.65 6.45284 0.919321 0
M  V30 12564 N 1209.09 0.96196 1.24836 0
M  V30 12565 C 1210.02 0.506241 2.27946 0
M  V30 12566 C 1211 -0.451183 1.64007 0
M  V30 12567 O 1212.18 -0.348552 1.91046 0
M  V30 12568 C 1209.31 -0.209846 3.46665 0
M  V30 12569 C 1208.27 0.663035 4.22833 0
M  V30 12570 C 1207.59 -0.184216 5.34383 0
M  V30 12571 C 1208.89 1.94479 4.84742 0
M  V30 12572 H 1210.59 1.36805 2.66317 0
M  V30 12573 H 1208.13 0.65926 1.28023 0
M  V30 12574 H 1210.08 -0.539838 4.17928 0
M  V30 12575 H 1208.81 -1.10596 3.07305 0
M  V30 12576 H 1207.47 0.976216 3.53363 0
M  V30 12577 H 1207.12 -1.08031 4.91262 0
M  V30 12578 H 1206.82 0.39657 5.8626 0
M  V30 12579 H 1208.34 -0.509009 6.08475 0
M  V30 12580 H 1209.75 1.68074 5.48109 0
M  V30 12581 H 1208.15 2.47183 5.46828 0
M  V30 12582 H 1209.22 2.64332 4.06517 0
M  V30 12583 N 1210.56 -1.39601 0.731392 0
M  V30 12584 C 1211.84 -1.94531 0.20422 0
M  V30 12585 C 1212.22 -1.66845 -1.29329 0
M  V30 12586 O 1211.57 -0.994706 -2.05713 0
M  V30 12587 C 1211.78 -3.44891 0.53395 0
M  V30 12588 C 1213.13 -4.21863 0.481298 0
M  V30 12589 O 1214.15 -3.53073 0.470929 0
M  V30 12590 O 1213.01 -5.44452 0.472663 0
M  V30 12591 H 1210.1 -0.826214 0.0360436 0
M  V30 12592 H 1212.65 -1.49121 0.810005 0
M  V30 12593 H 1211.42 -3.58463 1.56907 0
M  V30 12594 H 1211.04 -3.97472 -0.10099 0
M  V30 12595 N 1212.04 -0.478751 -1.50152 0
M  V30 12596 C 1212.97 0.301182 -2.31549 0
M  V30 12597 C 1213.95 0.983276 -1.38801 0
M  V30 12598 O 1215.14 0.978973 -1.67719 0
M  V30 12599 C 1212.27 1.3791 -3.18745 0
M  V30 12600 C 1211.22 0.818175 -4.20107 0
M  V30 12601 C 1210.55 1.99496 -4.9609 0
M  V30 12602 C 1211.85 -0.17574 -5.22004 0
M  V30 12603 H 1213.54 -0.378188 -2.97002 0
M  V30 12604 H 1211.09 -0.183323 -1.42828 0
M  V30 12605 H 1213.04 1.93227 -3.74488 0
M  V30 12606 H 1211.77 2.08735 -2.51192 0
M  V30 12607 H 1210.42 0.286924 -3.65475 0
M  V30 12608 H 1210.07 2.69036 -4.25004 0
M  V30 12609 H 1209.77 1.62582 -5.6466 0
M  V30 12610 H 1211.3 2.55288 -5.54671 0
M  V30 12611 H 1212.71 0.288513 -5.72574 0
M  V30 12612 H 1211.11 -0.459549 -5.98338 0
M  V30 12613 H 1212.18 -1.09911 -4.72279 0
M  V30 12614 N 1213.52 1.56172 -0.211661 0
M  V30 12615 C 1214.47 2.16477 0.715675 0
M  V30 12616 C 1215.45 1.11023 1.16459 0
M  V30 12617 O 1216.65 1.3704 1.12023 0
M  V30 12618 C 1213.78 2.84055 1.92789 0
M  V30 12619 C 1212.86 3.96721 1.49911 0
M  V30 12620 N 1213.25 4.99714 0.782304 0
M  V30 12621 C 1211.55 4.08628 1.78716 0
M  V30 12622 C 1212.25 5.78949 0.565043 0
M  V30 12623 N 1211.23 5.31963 1.11878 0
M  V30 12624 H 1215.03 2.93467 0.15948 0
M  V30 12625 H 1212.54 1.62395 -0.012521 0
M  V30 12626 H 1214.54 3.25662 2.60289 0
M  V30 12627 H 1213.2 2.08558 2.48865 0
M  V30 12628 H 1214.21 5.16061 0.436021 0
M  V30 12629 H 1210.89 3.44273 2.36183 0
M  V30 12630 H 1212.28 6.719 -0.00477074 0
M  V30 12631 N 1215 -0.0618163 1.57479 0
M  V30 12632 C 1216.25 -0.759069 1.87735 0
M  V30 12633 C 1216.57 -1.77071 0.804732 0
M  V30 12634 O 1215.83 -1.94694 -0.198173 0
M  V30 12635 C 1216.13 -1.4939 3.2468 0
M  V30 12636 C 1215.79 -0.621312 4.46599 0
M  V30 12637 C 1214.46 -0.380873 4.7969 0
M  V30 12638 C 1216.81 -0.0168537 5.21197 0
M  V30 12639 C 1214.14 0.473341 5.84787 0
M  V30 12640 C 1216.49 0.824872 6.27199 0
M  V30 12641 C 1215.15 1.07509 6.58785 0
M  V30 12642 H 1214.42 -0.277763 0.686971 0
M  V30 12643 H 1217.07 -0.0195971 1.9149 0
M  V30 12644 H 1215.37 -2.30584 3.16762 0
M  V30 12645 H 1217.07 -2.03837 3.45328 0
M  V30 12646 H 1213.66 -0.818848 4.20705 0
M  V30 12647 H 1217.84 -0.189707 4.95937 0
M  V30 12648 H 1213.1 0.675842 6.07653 0
M  V30 12649 H 1217.27 1.29993 6.8416 0
M  V30 12650 H 1214.9 1.73876 7.40048 0
M  V30 12651 N 1216.48 -1.54033 -0.333429 0
M  V30 12652 C 1217.89 -1.63107 -0.908455 0
M  V30 12653 C 1218.24 -0.518823 -1.89216 0
M  V30 12654 O 1217.36 0.34985 -2.13553 0
M  V30 12655 C 1217.96 -2.95657 -1.65447 0
M  V30 12656 C 1216.52 -3.0696 -2.17836 0
M  V30 12657 C 1215.66 -2.58617 -1.00063 0
M  V30 12658 H 1218.62 -1.58309 -0.11128 0
M  V30 12659 H 1218.64 -2.85263 -2.51804 0
M  V30 12660 H 1218.15 -3.76588 -0.938263 0
M  V30 12661 H 1216.25 -2.30683 -2.92602 0
M  V30 12662 H 1216.36 -4.12599 -2.43513 0
M  V30 12663 H 1214.73 -2.1427 -1.37697 0
M  V30 12664 H 1215.51 -3.41996 -0.298901 0
M  V30 12665 N 1217.95 0.594978 -1.45938 0
M  V30 12666 C 1219.37 1.17703 -1.44924 0
M  V30 12667 C 1219.72 1.9534 -0.183522 0
M  V30 12668 O 1218.84 2.04276 0.714163 0
M  V30 12669 C 1219.44 2.14119 -2.62561 0
M  V30 12670 C 1218 2.67674 -2.64627 0
M  V30 12671 C 1217.14 1.43312 -2.37397 0
M  V30 12672 H 1220.09 0.383583 -1.53995 0
M  V30 12673 H 1220.11 2.97374 -2.3738 0
M  V30 12674 H 1219.63 1.57586 -3.54667 0
M  V30 12675 H 1217.73 3.28111 -1.76562 0
M  V30 12676 H 1217.84 3.11246 -3.64229 0
M  V30 12677 H 1216.2 1.72702 -1.87206 0
M  V30 12678 H 1216.99 0.886276 -3.31663 0
M  V30 12679 N 1219.43 1.33438 0.838571 0
M  V30 12680 C 1220.68 1.24665 1.59069 0
M  V30 12681 C 1221 -0.187433 1.94097 0
M  V30 12682 O 1220.27 -1.11625 1.60987 0
M  V30 12683 H 1218.85 0.45843 0.589789 0
M  V30 12684 H 1221.51 1.67161 1.00216 0
M  V30 12685 H 1220.61 1.84057 2.52051 0
M  V30 12686 N 1220.91 -1.05686 1.16912 0
M  V30 12687 C 1221.84 -2.15268 0.904532 0
M  V30 12688 C 1222.82 -1.69424 -0.151548 0
M  V30 12689 O 1224.01 -1.942 -0.00235371 0
M  V30 12690 C 1221.14 -3.44853 0.411581 0
M  V30 12691 C 1220.09 -4.04237 1.40628 0
M  V30 12692 C 1219.42 -5.29105 0.771479 0
M  V30 12693 C 1220.72 -4.42303 2.77787 0
M  V30 12694 H 1222.41 -2.37659 1.82094 0
M  V30 12695 H 1219.96 -1.14217 0.876947 0
M  V30 12696 H 1221.91 -4.20857 0.213929 0
M  V30 12697 H 1220.63 -3.22099 -0.540352 0
M  V30 12698 H 1219.29 -3.30297 1.59058 0
M  V30 12699 H 1218.94 -5.02652 -0.187133 0
M  V30 12700 H 1218.64 -5.69797 1.43545 0
M  V30 12701 H 1220.16 -6.07801 0.583988 0
M  V30 12702 H 1221.58 -5.09362 2.63103 0
M  V30 12703 H 1219.98 -4.93997 3.40716 0
M  V30 12704 H 1221.05 -3.52877 3.32575 0
M  V30 12705 N 1222.39 -0.968567 -1.24324 0
M  V30 12706 C 1223.61 -0.648166 -1.97012 0
M  V30 12707 C 1224.04 0.775842 -1.71354 0
M  V30 12708 O 1223.4 1.52672 -0.977804 0
M  V30 12709 C 1223.44 -0.929974 -3.48402 0
M  V30 12710 O 1222.55 -0.015854 -4.12397 0
M  V30 12711 H 1221.89 -0.244961 -0.617163 0
M  V30 12712 H 1224.42 -1.29895 -1.58077 0
M  V30 12713 H 1224.43 -0.861863 -3.98793 0
M  V30 12714 H 1223.1 -1.96776 -3.66404 0
M  V30 12715 H 1221.68 -0.137361 -3.72647 0
M  V30 12716 N 1223.87 1.39211 -0.738786 0
M  V30 12717 C 1225.11 2.00436 -0.28839 0
M  V30 12718 C 1225.44 1.58626 1.12552 0
M  V30 12719 O 1224.7 0.808154 1.78234 0
M  V30 12720 C 1225 3.55758 -0.342224 0
M  V30 12721 C 1224.66 4.1723 -1.70968 0
M  V30 12722 C 1223.32 4.33734 -2.08395 0
M  V30 12723 C 1225.68 4.51294 -2.60736 0
M  V30 12724 C 1223 4.81592 -3.35091 0
M  V30 12725 C 1225.36 5.00562 -3.86808 0
M  V30 12726 C 1224.02 5.15274 -4.24322 0
M  V30 12727 H 1223.29 0.733447 -0.105529 0
M  V30 12728 H 1225.94 1.66481 -0.94637 0
M  V30 12729 H 1224.24 3.8976 0.399331 0
M  V30 12730 H 1225.94 4.00993 0.0244582 0
M  V30 12731 H 1222.53 4.04788 -1.4087 0
M  V30 12732 H 1226.71 4.38158 -2.3309 0
M  V30 12733 H 1221.97 4.91167 -3.64095 0
M  V30 12734 H 1226.14 5.25892 -4.5652 0
M  V30 12735 H 1223.77 5.52119 -5.2256 0
M  V30 12736 N 1225.34 0.486708 1.49896 0
M  V30 12737 C 1226.76 0.141788 1.58969 0
M  V30 12738 C 1226.96 -1.35279 1.49338 0
M  V30 12739 O 1226.02 -2.1275 1.35992 0
M  V30 12740 C 1227.33 0.70588 2.92297 0
M  V30 12741 C 1228.88 0.670704 3.0573 0
M  V30 12742 C 1229.35 1.21261 4.41656 0
M  V30 12743 N 1230.84 1.17269 4.4811 0
M  V30 12744 C 1231.58 1.56233 5.51705 0
M  V30 12745 N 1231.07 2.02721 6.62477 0
M  V30 12746 N 1232.87 1.47738 5.42337 0
M  V30 12747 H 1225.02 1.45858 1.544 0
M  V30 12748 H 1227.28 0.604137 0.730563 0
M  V30 12749 H 1226.99 1.7535 3.04869 0
M  V30 12750 H 1226.86 0.158215 3.76868 0
M  V30 12751 H 1229.25 -0.368041 2.92796 0
M  V30 12752 H 1229.33 1.25535 2.22878 0
M  V30 12753 H 1228.97 2.25006 4.5534 0
M  V30 12754 H 1228.9 0.604031 5.23124 0
M  V30 12755 H 1231.39 0.831905 3.6863 0
M  V30 12756 H 1231.71 2.3056 7.37606 0
M  V30 12757 H 1230.05 2.06686 6.63556 0
M  V30 12758 H 1233.24 1.11249 4.54688 0
M  V30 12759 H 1233.42 1.78429 6.2295 0
M  V30 12760 N 1226.82 -1.56058 0.219941 0
M  V30 12761 C 1227.77 -2.20218 -0.690846 0
M  V30 12762 C 1228.74 -1.15725 -1.19151 0
M  V30 12763 O 1229.93 -1.44073 -1.2509 0
M  V30 12764 C 1227.07 -2.88477 -1.89408 0
M  V30 12765 C 1226.18 -4.07559 -1.43246 0
M  V30 12766 C 1225.31 -4.63605 -2.59314 0
M  V30 12767 C 1224.35 -5.74993 -2.0988 0
M  V30 12768 N 1223.49 -6.25337 -3.19214 0
M  V30 12769 H 1228.33 -2.97685 -0.136992 0
M  V30 12770 H 1225.87 -1.46994 -0.055865 0
M  V30 12771 H 1227.82 -3.26235 -2.60051 0
M  V30 12772 H 1226.45 -2.1353 -2.42084 0
M  V30 12773 H 1225.51 -3.75297 -0.621013 0
M  V30 12774 H 1226.82 -4.8805 -1.02997 0
M  V30 12775 H 1225.97 -5.03798 -3.38041 0
M  V30 12776 H 1224.71 -3.82274 -3.0285 0
M  V30 12777 H 1223.72 -5.34304 -1.29613 0
M  V30 12778 H 1224.94 -6.58158 -1.67345 0
M  V30 12779 H 1222.89 -5.4692 -3.62236 0
M  V30 12780 H 1222.8 -7.00947 -2.83213 0
M  V30 12781 H 1224.07 -6.70187 -3.98083 0
M  V30 12782 N 1228.3 0.053464 -1.57509 0
M  V30 12783 C 1229.55 0.750212 -1.88414 0
M  V30 12784 C 1229.88 1.76288 -0.814619 0
M  V30 12785 O 1229.16 1.93728 0.173136 0
M  V30 12786 C 1229.44 1.44176 -3.29978 0
M  V30 12787 C 1229.29 0.444263 -4.47601 0
M  V30 12788 C 1230.61 2.38207 -3.70061 0
M  V30 12789 H 1227.73 0.271266 -0.685262 0
M  V30 12790 H 1230.37 0.0131676 -1.89995 0
M  V30 12791 H 1228.52 2.07001 -3.2876 0
M  V30 12792 H 1230.19 -0.180182 -4.60948 0
M  V30 12793 H 1228.44 -0.238771 -4.33142 0
M  V30 12794 H 1229.11 0.966134 -5.43479 0
M  V30 12795 H 1231.58 1.85446 -3.7249 0
M  V30 12796 H 1230.46 2.83588 -4.69967 0
M  V30 12797 H 1230.72 3.23821 -3.00985 0
M  V30 12798 N 1229.78 1.54207 0.325255 0
M  V30 12799 C 1230.69 1.86495 1.42326 0
M  V30 12800 C 1231.71 0.756718 1.56684 0
M  V30 12801 O 1232.88 1.05084 1.71812 0
M  V30 12802 C 1229.95 2.08414 2.77064 0
M  V30 12803 C 1229.01 3.32221 2.71897 0
M  V30 12804 C 1228.24 3.53085 4.00209 0
M  V30 12805 O 1228.46 2.77421 4.98391 0
M  V30 12806 O 1227.4 4.46559 4.0357 0
M  V30 12807 H 1231.22 2.79859 1.17951 0
M  V30 12808 H 1228.81 1.40091 0.519124 0
M  V30 12809 H 1230.69 2.24171 3.56827 0
M  V30 12810 H 1229.37 1.18238 3.01333 0
M  V30 12811 H 1228.27 3.21851 1.90691 0
M  V30 12812 H 1229.61 4.22449 2.52582 0
M  V30 12813 N 1231.26 -0.58723 1.46251 0
M  V30 12814 C 1232.19 -1.71113 1.50982 0
M  V30 12815 C 1233.17 -1.58466 0.364322 0
M  V30 12816 O 1234.35 -1.79745 0.567812 0
M  V30 12817 C 1231.48 -3.09128 1.38411 0
M  V30 12818 C 1230.53 -3.40308 2.57085 0
M  V30 12819 S 1231.36 -3.32881 4.19464 0
M  V30 12820 C 1232.51 -4.73441 4.09395 0
M  V30 12821 H 1232.75 -1.66841 2.46072 0
M  V30 12822 H 1230.28 -0.765598 1.34082 0
M  V30 12823 H 1232.24 -3.88751 1.31846 0
M  V30 12824 H 1230.9 -3.10895 0.447567 0
M  V30 12825 H 1230.09 -4.40849 2.4427 0
M  V30 12826 H 1229.69 -2.68244 2.60617 0
M  V30 12827 H 1231.99 -5.63723 3.75796 0
M  V30 12828 H 1232.93 -4.91313 5.09919 0
M  V30 12829 H 1233.34 -4.50079 3.40719 0
M  V30 12830 N 1232.74 -1.33881 -0.831482 0
M  V30 12831 C 1233.67 -1.27384 -1.95693 0
M  V30 12832 C 1234.65 -0.152943 -1.69411 0
M  V30 12833 O 1235.83 -0.34392 -1.9113 0
M  V30 12834 C 1232.96 -1.01982 -3.31989 0
M  V30 12835 C 1231.92 -2.10445 -3.72689 0
M  V30 12836 C 1231.24 -1.70245 -5.06873 0
M  V30 12837 C 1232.54 -3.52194 -3.8569 0
M  V30 12838 H 1234.24 -2.21549 -2.01386 0
M  V30 12839 H 1231.78 -1.06653 -0.967526 0
M  V30 12840 H 1233.73 -0.960841 -4.103 0
M  V30 12841 H 1232.46 -0.0425709 -3.26572 0
M  V30 12842 H 1231.12 -2.15398 -2.96647 0
M  V30 12843 H 1230.77 -0.712036 -4.97935 0
M  V30 12844 H 1230.47 -2.42834 -5.35075 0
M  V30 12845 H 1231.99 -1.65827 -5.87651 0
M  V30 12846 H 1233.4 -3.49701 -4.54293 0
M  V30 12847 H 1231.8 -4.23331 -4.25336 0
M  V30 12848 H 1232.87 -3.9016 -2.87929 0
M  V30 12849 N 1234.21 1.05064 -1.1747 0
M  V30 12850 C 1235.16 2.12841 -0.89259 0
M  V30 12851 C 1236.13 1.65288 0.16402 0
M  V30 12852 O 1237.32 1.90782 0.026537 0
M  V30 12853 C 1234.46 3.42614 -0.41344 0
M  V30 12854 C 1233.57 4.03835 -1.53432 0
M  V30 12855 C 1232.7 5.21531 -1.00891 0
M  V30 12856 C 1231.74 5.74761 -2.10515 0
M  V30 12857 N 1230.88 6.83756 -1.59442 0
M  V30 12858 H 1235.72 2.36312 -1.81551 0
M  V30 12859 H 1233.26 1.15929 -0.905483 0
M  V30 12860 H 1235.21 4.17035 -0.117181 0
M  V30 12861 H 1233.84 3.19323 0.472517 0
M  V30 12862 H 1232.9 3.2684 -1.94627 0
M  V30 12863 H 1234.21 4.3938 -2.36108 0
M  V30 12864 H 1233.36 6.03027 -0.666575 0
M  V30 12865 H 1232.1 4.87464 -0.151608 0
M  V30 12866 H 1231.11 4.91893 -2.45604 0
M  V30 12867 H 1232.33 6.10875 -2.96663 0
M  V30 12868 H 1230.28 6.51584 -0.759849 0
M  V30 12869 H 1230.19 7.18311 -2.35724 0
M  V30 12870 H 1231.46 7.68901 -1.28105 0
M  V30 12871 N 1235.69 0.975146 1.23809 0
M  V30 12872 C 1237.1 0.678873 1.7392 0
M  V30 12873 C 1237.45 -0.805133 1.78919 0
M  V30 12874 O 1236.58 -1.62984 1.42356 0
M  V30 12875 C 1237.17 1.22562 3.15854 0
M  V30 12876 C 1235.73 0.979096 3.63443 0
M  V30 12877 C 1234.88 1.35649 2.41857 0
M  V30 12878 H 1237.83 1.14961 1.09406 0
M  V30 12879 H 1237.85 0.595489 3.75811 0
M  V30 12880 H 1237.36 2.30571 3.12184 0
M  V30 12881 H 1235.46 -0.0851407 3.72503 0
M  V30 12882 H 1235.58 1.62998 4.5052 0
M  V30 12883 H 1233.94 0.774916 2.42626 0
M  V30 12884 H 1234.72 2.44624 2.40861 0
M  V30 12885 N 1237.17 -1.38817 0.746158 0
M  V30 12886 C 1238.12 -2.27825 0.089362 0
M  V30 12887 C 1239.1 -1.44826 -0.701013 0
M  V30 12888 O 1240.3 -1.67632 -0.568188 0
M  V30 12889 C 1237.42 -3.33639 -0.808682 0
M  V30 12890 C 1236.51 -4.24098 -0.0118582 0
M  V30 12891 N 1236.9 -4.95393 1.02075 0
M  V30 12892 C 1235.2 -4.45355 -0.239815 0
M  V30 12893 C 1235.9 -5.61969 1.5022 0
M  V30 12894 N 1234.88 -5.37398 0.818816 0
M  V30 12895 H 1238.68 -2.80406 0.88033 0
M  V30 12896 H 1236.19 -1.51632 0.581512 0
M  V30 12897 H 1238.19 -3.96284 -1.29478 0
M  V30 12898 H 1236.85 -2.82617 -1.59868 0
M  V30 12899 H 1237.86 -4.98552 1.40237 0
M  V30 12900 H 1234.54 -4.05255 -1.00374 0
M  V30 12901 H 1235.93 -6.29017 2.36192 0
M  V30 12902 N 1238.65 -0.49465 -1.49636 0
M  V30 12903 C 1239.87 0.051305 -2.07337 0
M  V30 12904 C 1240.3 1.30637 -1.35335 0
M  V30 12905 O 1239.66 1.76647 -0.408126 0
M  V30 12906 C 1239.7 0.294425 -3.59396 0
M  V30 12907 O 1238.81 1.3704 -3.88965 0
M  V30 12908 H 1238.15 -0.023408 -0.663587 0
M  V30 12909 H 1240.68 -0.692451 -1.92526 0
M  V30 12910 H 1240.69 0.527854 -4.04571 0
M  V30 12911 H 1239.36 -0.622583 -4.11214 0
M  V30 12912 H 1237.94 1.12242 -3.55607 0
M  V30 12913 N 1240.13 1.55939 -0.228214 0
M  V30 12914 C 1241.06 2.17874 0.711589 0
M  V30 12915 C 1242.07 1.14969 1.15265 0
M  V30 12916 O 1243.26 1.41919 1.08265 0
M  V30 12917 C 1240.36 2.75294 1.97652 0
M  V30 12918 C 1239.53 4.03435 1.68994 0
M  V30 12919 C 1238.59 4.45354 2.8026 0
M  V30 12920 O 1237.62 5.12117 2.48445 0
M  V30 12921 N 1238.82 4.11588 4.0936 0
M  V30 12922 H 1241.58 2.99148 0.181757 0
M  V30 12923 H 1239.15 1.6183 -0.0474567 0
M  V30 12924 H 1241.14 3.00305 2.71292 0
M  V30 12925 H 1239.71 1.98285 2.41665 0
M  V30 12926 H 1238.93 3.8621 0.789657 0
M  V30 12927 H 1240.22 4.87015 1.47287 0
M  V30 12928 H 1239.61 3.57953 4.38048 0
M  V30 12929 H 1238.17 4.41477 4.79522 0
M  V30 12930 N 1241.6 -0.0451101 1.57535 0
M  V30 12931 C 1242.85 -0.738072 1.87711 0
M  V30 12932 C 1243.17 -1.7737 0.824579 0
M  V30 12933 O 1244.37 -2.51812 1.01503 0
M  V30 12934 C 1242.83 -1.36373 3.33062 0
M  V30 12935 C 1242.44 -0.365283 4.46508 0
M  V30 12936 C 1244.18 -2.0375 3.72406 0
M  V30 12937 C 1242.09 -0.998371 5.82912 0
M  V30 12938 H 1241.02 -0.279413 0.700317 0
M  V30 12939 H 1243.67 0.00802425 1.83498 0
M  V30 12940 H 1242.05 -2.15899 3.31969 0
M  V30 12941 H 1243.22 0.402102 4.59042 0
M  V30 12942 H 1241.54 0.205505 4.15893 0
M  V30 12943 H 1244.14 -2.51939 4.71625 0
M  V30 12944 H 1244.48 -2.84869 3.03571 0
M  V30 12945 H 1245.01 -1.3102 3.75604 0
M  V30 12946 H 1241.75 -0.226935 6.55107 0
M  V30 12947 H 1241.27 -1.73598 5.74129 0
M  V30 12948 H 1242.95 -1.51044 6.29122 0
M  V30 12949 N 1243.08 -1.54377 -0.317073 0
M  V30 12950 C 1244.49 -1.64062 -0.891105 0
M  V30 12951 C 1244.84 -0.538863 -1.88655 0
M  V30 12952 O 1243.97 0.32718 -2.13912 0
M  V30 12953 C 1244.56 -2.97395 -1.62302 0
M  V30 12954 C 1243.12 -3.09253 -2.14568 0
M  V30 12955 C 1242.27 -2.59664 -0.973146 0
M  V30 12956 H 1245.22 -1.58418 -0.0944829 0
M  V30 12957 H 1245.24 -2.87918 -2.48764 0
M  V30 12958 H 1244.75 -3.77562 -0.898268 0
M  V30 12959 H 1242.86 -2.33774 -2.90139 0
M  V30 12960 H 1242.97 -4.15159 -2.39123 0
M  V30 12961 H 1241.33 -2.15719 -1.35416 0
M  V30 12962 H 1242.12 -3.42294 -0.262611 0
M  V30 12963 N 1244.56 0.579466 -1.4656 0
M  V30 12964 C 1245.81 1.33954 -1.52264 0
M  V30 12965 C 1246.14 1.93409 -0.175089 0
M  V30 12966 O 1245.41 1.76654 0.81385 0
M  V30 12967 C 1245.7 2.46645 -2.6237 0
M  V30 12968 C 1245.55 1.92204 -4.06667 0
M  V30 12969 C 1246.87 3.48676 -2.68538 0
M  V30 12970 H 1243.99 0.485697 -0.554317 0
M  V30 12971 H 1246.63 0.650639 -1.78512 0
M  V30 12972 H 1244.78 3.0541 -2.40119 0
M  V30 12973 H 1246.45 1.37871 -4.40215 0
M  V30 12974 H 1244.7 1.23012 -4.15993 0
M  V30 12975 H 1245.37 2.73566 -4.79443 0
M  V30 12976 H 1247.84 2.99798 -2.88549 0
M  V30 12977 H 1246.72 4.24981 -3.47394 0
M  V30 12978 H 1246.98 4.06112 -1.74716 0
M  V30 12979 N 1246.04 1.3432 0.824371 0
M  V30 12980 C 1247.26 1.2982 1.61745 0
M  V30 12981 C 1247.69 -0.125298 1.87682 0
M  V30 12982 O 1247.05 -1.08658 1.45131 0
M  V30 12983 C 1247.09 2.09327 2.93623 0
M  V30 12984 O 1246.2 1.4618 3.85623 0
M  V30 12985 H 1245.54 0.445929 0.491979 0
M  V30 12986 H 1248.07 1.77101 1.02452 0
M  V30 12987 H 1248.08 2.20629 3.43201 0
M  V30 12988 H 1246.75 3.12825 2.74069 0
M  V30 12989 H 1245.33 1.43611 3.44137 0
M  V30 12990 N 1247.52 -1.0444 1.18026 0
M  V30 12991 C 1248.76 -1.79143 0.984238 0
M  V30 12992 C 1249.12 -1.85955 -0.478002 0
M  V30 12993 O 1250.32 -2.56826 -0.793345 0
M  V30 12994 C 1248.59 -3.18744 1.61669 0
M  V30 12995 S 1250.15 -4.09832 1.56791 0
M  V30 12996 H 1246.97 -0.61688 0.353525 0
M  V30 12997 H 1249.57 -1.25256 1.50104 0
M  V30 12998 H 1248.28 -3.11394 2.67324 0
M  V30 12999 H 1247.81 -3.77708 1.10001 0
M  V30 13000 H 1249.82 -4.92785 0.581175 0
M  V30 13001 N 1248.99 -0.981699 -1.2329 0
M  V30 13002 C 1249.9 -0.531296 -2.28505 0
M  V30 13003 C 1250.92 0.414531 -1.6899 0
M  V30 13004 O 1252.1 0.284129 -1.99386 0
M  V30 13005 C 1249.16 0.157864 -3.4634 0
M  V30 13006 C 1248.22 -0.829527 -4.21209 0
M  V30 13007 C 1247.46 -0.17316 -5.33419 0
M  V30 13008 O 1247.68 1.03549 -5.60922 0
M  V30 13009 O 1246.61 -0.872385 -5.95544 0
M  V30 13010 H 1250.44 -1.40633 -2.69177 0
M  V30 13011 H 1248.02 -0.749395 -1.29246 0
M  V30 13012 H 1249.91 0.544394 -4.17869 0
M  V30 13013 H 1248.58 1.00764 -3.07617 0
M  V30 13014 H 1247.49 -1.26678 -3.51999 0
M  V30 13015 H 1248.82 -1.64815 -4.63785 0
M  V30 13016 N 1250.47 1.3842 -0.753509 0
M  V30 13017 C 1251.38 2.34252 -0.127811 0
M  V30 13018 C 1252.4 1.59266 0.700743 0
M  V30 13019 O 1253.57 1.9146 0.624914 0
M  V30 13020 C 1250.64 3.38382 0.754886 0
M  V30 13021 C 1249.7 4.2921 -0.0880312 0
M  V30 13022 C 1248.93 5.28367 0.75263 0
M  V30 13023 O 1249.16 5.34537 1.99064 0
M  V30 13024 O 1248.09 6.01656 0.171475 0
M  V30 13025 H 1251.92 2.89454 -0.91925 0
M  V30 13026 H 1249.5 1.40265 -0.514404 0
M  V30 13027 H 1251.38 4.02141 1.25938 0
M  V30 13028 H 1250.06 2.85536 1.52482 0
M  V30 13029 H 1248.97 3.68611 -0.638468 0
M  V30 13030 H 1250.3 4.85311 -0.82062 0
M  V30 13031 N 1251.95 0.502579 1.49372 0
M  V30 13032 C 1252.88 -0.264307 2.31999 0
M  V30 13033 C 1253.86 -0.96107 1.40348 0
M  V30 13034 O 1255.05 -0.952167 1.69255 0
M  V30 13035 C 1252.18 -1.32822 3.20898 0
M  V30 13036 C 1251.13 -0.751236 4.21355 0
M  V30 13037 C 1250.46 -1.91578 4.99201 0
M  V30 13038 C 1251.76 0.258764 5.21659 0
M  V30 13039 H 1253.45 0.425391 2.96363 0
M  V30 13040 H 1251 0.206022 1.42519 0
M  V30 13041 H 1252.95 -1.87245 3.77515 0
M  V30 13042 H 1251.67 -2.04712 2.54481 0
M  V30 13043 H 1250.33 -0.228743 3.65886 0
M  V30 13044 H 1249.98 -2.62241 4.2923 0
M  V30 13045 H 1249.68 -1.53578 5.67175 0
M  V30 13046 H 1251.2 -2.46432 5.58663 0
M  V30 13047 H 1252.62 -0.197385 5.7296 0
M  V30 13048 H 1251.02 0.554681 5.97531 0
M  V30 13049 H 1252.09 1.1741 4.70471 0
M  V30 13050 N 1253.43 -1.55816 0.23648 0
M  V30 13051 C 1254.84 -1.84757 -0.268622 0
M  V30 13052 C 1255.19 -1.15815 -1.58371 0
M  V30 13053 O 1254.32 -0.432923 -2.12025 0
M  V30 13054 C 1254.91 -3.35177 -0.494167 0
M  V30 13055 C 1253.47 -3.64382 -0.943551 0
M  V30 13056 C 1252.62 -2.77296 -0.0149191 0
M  V30 13057 H 1255.57 -1.51908 0.459308 0
M  V30 13058 H 1255.59 -3.56192 -1.3382 0
M  V30 13059 H 1255.1 -3.85327 0.463138 0
M  V30 13060 H 1253.2 -3.19701 -1.91369 0
M  V30 13061 H 1253.31 -4.72244 -0.807626 0
M  V30 13062 H 1251.68 -2.49243 -0.524419 0
M  V30 13063 H 1252.46 -3.30249 0.937571 0
M  V30 13064 N 1254.91 0.036755 -1.57557 0
M  V30 13065 C 1255.82 1.05687 -2.09446 0
M  V30 13066 C 1256.83 1.40137 -1.03139 0
M  V30 13067 O 1258.01 1.49611 -1.34828 0
M  V30 13068 C 1255.07 2.34114 -2.55717 0
M  V30 13069 C 1254.13 2.06316 -3.76473 0
M  V30 13070 C 1253.37 3.2862 -4.20529 0
M  V30 13071 O 1253.59 4.3902 -3.64167 0
M  V30 13072 O 1252.52 3.14772 -5.13033 0
M  V30 13073 H 1256.35 0.64593 -2.96751 0
M  V30 13074 H 1253.94 0.253235 -1.47238 0
M  V30 13075 H 1255.82 3.09631 -2.85844 0
M  V30 13076 H 1254.49 2.74519 -1.71526 0
M  V30 13077 H 1253.4 1.28392 -3.51378 0
M  V30 13078 H 1254.73 1.70772 -4.61625 0
M  V30 13079 N 1256.39 1.54543 0.308881 0
M  V30 13080 C 1257.3 1.87994 1.4034 0
M  V30 13081 C 1258.31 0.773294 1.55872 0
M  V30 13082 O 1259.49 1.069 1.70688 0
M  V30 13083 C 1256.55 2.11341 2.74838 0
M  V30 13084 C 1255.61 3.35086 2.68358 0
M  V30 13085 C 1254.85 3.5731 3.96441 0
M  V30 13086 O 1255.07 2.82692 4.9542 0
M  V30 13087 O 1254 4.50814 3.98811 0
M  V30 13088 H 1257.83 2.81094 1.14976 0
M  V30 13089 H 1255.41 1.40634 0.504236 0
M  V30 13090 H 1257.3 2.27943 3.54429 0
M  V30 13091 H 1255.97 1.21427 3.00062 0
M  V30 13092 H 1254.88 3.23855 1.87267 0
M  V30 13093 H 1256.21 4.25104 2.48087 0
M  V30 13094 N 1257.86 -0.571685 1.46866 0
M  V30 13095 C 1259.09 -1.36008 1.56578 0
M  V30 13096 C 1259.51 -1.86909 0.211326 0
M  V30 13097 O 1258.87 -1.62179 -0.810421 0
M  V30 13098 C 1258.92 -2.51598 2.58323 0
M  V30 13099 O 1258.02 -3.53383 2.1259 0
M  V30 13100 H 1257.36 -0.404593 0.526498 0
M  V30 13101 H 1259.89 -0.692357 1.92529 0
M  V30 13102 H 1259.9 -2.98366 2.78283 0
M  V30 13103 H 1258.58 -2.13904 3.56676 0
M  V30 13104 H 1257.16 -3.13019 2.02666 0
M  V30 13105 N 1259.34 -1.34755 -0.817236 0
M  V30 13106 C 1260.76 -1.14561 -1.11121 0
M  V30 13107 C 1260.96 0.0490776 -2.0144 0
M  V30 13108 O 1260.01 0.722897 -2.41931 0
M  V30 13109 C 1261.33 -2.44356 -1.75244 0
M  V30 13110 C 1262.87 -2.50465 -1.87713 0
M  V30 13111 C 1263.35 -3.80276 -2.55253 0
M  V30 13112 N 1264.84 -3.81468 -2.62747 0
M  V30 13113 C 1265.58 -4.78634 -3.15749 0
M  V30 13114 N 1265.07 -5.86184 -3.6927 0
M  V30 13115 N 1266.86 -4.66083 -3.14203 0
M  V30 13116 H 1259.02 -2.11293 -0.2166 0
M  V30 13117 H 1261.28 -0.934629 -0.158661 0
M  V30 13118 H 1260.98 -3.31899 -1.16344 0
M  V30 13119 H 1260.86 -2.58117 -2.75055 0
M  V30 13120 H 1263.25 -1.63358 -2.45761 0
M  V30 13121 H 1263.33 -2.40627 -0.867887 0
M  V30 13122 H 1262.97 -4.67776 -1.97858 0
M  V30 13123 H 1262.9 -3.87399 -3.56693 0
M  V30 13124 H 1265.39 -3.03753 -2.24817 0
M  V30 13125 H 1265.7 -6.56332 -4.0798 0
M  V30 13126 H 1264.05 -5.8989 -3.67498 0
M  V30 13127 H 1267.24 -3.81206 -2.7166 0
M  V30 13128 H 1267.41 -5.41973 -3.55203 0
M  V30 13129 N 1260.82 1.03812 -1.18578 0
M  V30 13130 C 1261.75 2.13802 -0.938665 0
M  V30 13131 C 1262.73 1.69643 0.124575 0
M  V30 13132 O 1263.92 1.94179 -0.0285421 0
M  V30 13133 C 1261.05 3.44154 -0.466392 0
M  V30 13134 C 1260 4.01949 -1.47041 0
M  V30 13135 C 1259.33 5.27811 -0.855558 0
M  V30 13136 C 1260.63 4.37827 -2.84789 0
M  V30 13137 H 1262.32 2.34732 -1.85852 0
M  V30 13138 H 1259.87 1.12808 -0.895007 0
M  V30 13139 H 1261.82 4.20463 -0.280856 0
M  V30 13140 H 1260.54 3.22918 0.489041 0
M  V30 13141 H 1259.2 3.27725 -1.64293 0
M  V30 13142 H 1258.85 5.02886 0.107142 0
M  V30 13143 H 1258.55 5.67441 -1.52592 0
M  V30 13144 H 1260.07 6.06795 -0.680609 0
M  V30 13145 H 1261.49 5.05112 -2.71173 0
M  V30 13146 H 1259.88 4.88514 -3.48532 0
M  V30 13147 H 1260.95 3.47541 -3.38147 0
M  V30 13148 N 1262.3 0.988223 1.22768 0
M  V30 13149 C 1263.23 0.554478 2.26821 0
M  V30 13150 C 1264.21 -0.416293 1.64927 0
M  V30 13151 O 1265.39 -0.30795 1.91743 0
M  V30 13152 C 1262.52 -0.136266 3.47033 0
M  V30 13153 C 1261.48 0.752575 4.21332 0
M  V30 13154 C 1260.8 -0.0708236 5.34653 0
M  V30 13155 C 1262.1 2.04717 4.80508 0
M  V30 13156 H 1263.8 1.42423 2.63355 0
M  V30 13157 H 1261.34 0.686267 1.26595 0
M  V30 13158 H 1263.3 -0.451068 4.18979 0
M  V30 13159 H 1262.02 -1.04053 3.09581 0
M  V30 13160 H 1260.68 1.05095 3.51213 0
M  V30 13161 H 1260.33 -0.975859 4.93443 0
M  V30 13162 H 1260.03 0.520835 5.85287 0
M  V30 13163 H 1261.55 -0.379828 6.09417 0
M  V30 13164 H 1262.97 1.79663 5.44421 0
M  V30 13165 H 1261.36 2.58726 5.41462 0
M  V30 13166 H 1262.43 2.72896 4.00819 0
M  V30 13167 N 1263.78 -1.38018 0.760839 0
M  V30 13168 C 1265 -2.04757 0.330038 0
M  V30 13169 C 1265.43 -1.57009 -1.03585 0
M  V30 13170 O 1264.78 -0.725349 -1.66158 0
M  V30 13171 C 1264.83 -3.58696 0.370082 0
M  V30 13172 O 1263.94 -4.07507 -0.633361 0
M  V30 13173 H 1263.28 -0.648023 0.144782 0
M  V30 13174 H 1265.81 -1.7655 1.03399 0
M  V30 13175 H 1265.82 -4.07387 0.223515 0
M  V30 13176 H 1264.49 -3.92806 1.36661 0
M  V30 13177 H 1263.07 -3.70165 -0.45081 0
M  V30 13178 N 1265.25 -0.510493 -1.49103 0
M  V30 13179 C 1266.67 -0.167061 -1.58723 0
M  V30 13180 C 1266.87 1.32886 -1.51471 0
M  V30 13181 O 1265.93 2.10559 -1.39359 0
M  V30 13182 C 1267.24 -0.752293 -2.91137 0
M  V30 13183 C 1268.79 -0.719258 -3.04624 0
M  V30 13184 C 1269.26 -1.28272 -4.39671 0
M  V30 13185 N 1270.75 -1.24383 -4.46187 0
M  V30 13186 C 1271.49 -1.6499 -5.4915 0
M  V30 13187 N 1270.98 -2.13235 -6.59168 0
M  V30 13188 N 1272.78 -1.56348 -5.39918 0
M  V30 13189 H 1264.93 -1.48296 -1.5206 0
M  V30 13190 H 1267.19 -0.615683 -0.72086 0
M  V30 13191 H 1266.9 -1.80178 -3.02041 0
M  V30 13192 H 1266.77 -0.218152 -3.76569 0
M  V30 13193 H 1269.16 0.321413 -2.93344 0
M  V30 13194 H 1269.24 -1.29065 -2.20852 0
M  V30 13195 H 1268.88 -2.32222 -4.51703 0
M  V30 13196 H 1268.81 -0.687179 -5.22097 0
M  V30 13197 H 1271.3 -0.890446 -3.67259 0
M  V30 13198 H 1271.62 -2.42266 -7.33844 0
M  V30 13199 H 1269.96 -2.17216 -6.60183 0
M  V30 13200 H 1273.15 -1.18469 -4.52861 0
M  V30 13201 H 1273.33 -1.88317 -6.20033 0
M  V30 13202 N 1266.73 1.55688 -0.24474 0
M  V30 13203 C 1267.69 2.20014 0.642382 0
M  V30 13204 C 1268.69 1.16877 1.10437 0
M  V30 13205 O 1269.88 1.41972 1.00943 0
M  V30 13206 C 1267.02 2.84198 1.88267 0
M  V30 13207 H 1268.21 2.9979 0.0811937 0
M  V30 13208 H 1265.76 1.56299 0.00480917 0
M  V30 13209 H 1266.5 2.08354 2.48514 0
M  V30 13210 H 1266.28 3.59747 1.55963 0
M  V30 13211 H 1267.77 3.33434 2.5142 0
M  V30 13212 N 1268.21 -0.0283989 1.57574 0
M  V30 13213 C 1269.14 -1.02828 2.09639 0
M  V30 13214 C 1270.12 -1.37668 0.999076 0
M  V30 13215 O 1271.31 -1.4654 1.27435 0
M  V30 13216 C 1268.44 -2.329 2.57633 0
M  V30 13217 C 1267.39 -2.12301 3.71635 0
M  V30 13218 C 1266.72 -3.48138 4.05837 0
M  V30 13219 C 1268.02 -1.50864 5.00037 0
M  V30 13220 H 1269.71 -0.594876 2.93431 0
M  V30 13221 H 1267.26 -0.284701 1.41158 0
M  V30 13222 H 1269.21 -3.03179 2.92678 0
M  V30 13223 H 1267.93 -2.78302 1.70926 0
M  V30 13224 H 1266.59 -1.44454 3.3694 0
M  V30 13225 H 1266.24 -3.9119 3.16195 0
M  V30 13226 H 1265.94 -3.3518 4.82626 0
M  V30 13227 H 1267.46 -4.19779 4.43417 0
M  V30 13228 H 1268.88 -2.11062 5.33035 0
M  V30 13229 H 1267.27 -1.48479 5.81441 0
M  V30 13230 H 1268.34 -0.474541 4.82572 0
M  V30 13231 N 1269.69 -1.54705 -0.300681 0
M  V30 13232 C 1270.91 -1.78318 -1.05913 0
M  V30 13233 C 1271.34 -0.541177 -1.80147 0
M  V30 13234 O 1270.7 0.508291 -1.74029 0
M  V30 13235 C 1270.74 -2.99041 -2.01511 0
M  V30 13236 O 1269.85 -2.72188 -3.09818 0
M  V30 13237 H 1269.19 -0.590197 -0.304242 0
M  V30 13238 H 1271.72 -2.01789 -0.338006 0
M  V30 13239 H 1271.73 -3.2702 -2.43971 0
M  V30 13240 H 1270.4 -3.89098 -1.46886 0
M  V30 13241 H 1268.98 -2.55227 -2.71871 0
M  V30 13242 N 1271.17 0.563888 -1.47167 0
M  V30 13243 C 1272.41 1.33221 -1.55021 0
M  V30 13244 C 1272.77 1.90904 -0.204835 0
M  V30 13245 O 1273.97 2.68334 -0.158201 0
M  V30 13246 C 1272.24 2.41757 -2.63227 0
M  V30 13247 S 1273.8 3.28765 -2.90619 0
M  V30 13248 H 1270.62 0.453623 -0.547491 0
M  V30 13249 H 1273.22 0.646265 -1.84509 0
M  V30 13250 H 1271.93 1.97803 -3.59586 0
M  V30 13251 H 1271.46 3.151 -2.35532 0
M  V30 13252 H 1273.47 4.41065 -2.27323 0
M  V30 13253 N 1272.64 1.35187 0.810078 0
M  V30 13254 C 1273.59 1.27848 1.94313 0
M  V30 13255 C 1274.59 0.174081 1.68503 0
M  V30 13256 O 1275.79 0.339848 1.76763 0
M  V30 13257 H 1272.17 0.397504 0.638353 0
M  V30 13258 H 1274.14 2.23579 1.97623 0
M  V30 13259 C 1272.89 1.06382 3.31026 0
M  V30 13260 H 1272.21 1.90601 3.51441 0
M  V30 13261 H 1273.65 1.05287 4.1072 0
M  V30 13262 C 1272.11 -0.232462 3.36097 0
M  V30 13263 O 1272.64 -1.22946 3.82423 0
M  V30 13264 N 1270.85 -0.270028 2.89343 0
M  V30 13265 H 1270.39 0.541891 2.51836 0
M  V30 13266 H 1270.35 -1.13708 2.93117 0
M  V30 13267 N 1274.12 -1.03182 1.19127 0
M  V30 13268 C 1275.37 -1.76794 0.993563 0
M  V30 13269 C 1275.7 -1.88306 -0.474809 0
M  V30 13270 O 1274.98 -1.39769 -1.35258 0
M  V30 13271 C 1275.26 -3.19573 1.65968 0
M  V30 13272 C 1275.11 -3.1595 3.2015 0
M  V30 13273 C 1276.43 -4.17897 1.38023 0
M  V30 13274 H 1273.55 -0.641768 0.362357 0
M  V30 13275 H 1276.19 -1.20472 1.46924 0
M  V30 13276 H 1274.34 -3.67663 1.25524 0
M  V30 13277 H 1276.01 -2.7578 3.69788 0
M  V30 13278 H 1274.26 -2.53743 3.51848 0
M  V30 13279 H 1274.93 -4.16811 3.61901 0
M  V30 13280 H 1277.4 -3.78394 1.73082 0
M  V30 13281 H 1276.28 -5.15997 1.87186 0
M  V30 13282 H 1276.54 -4.41048 0.304812 0
M  V30 13283 N 1275.6 -0.99472 -1.22242 0
M  V30 13284 C 1276.83 -0.689809 -1.95592 0
M  V30 13285 C 1277.25 0.739321 -1.72961 0
M  V30 13286 O 1276.61 1.50563 -1.00997 0
M  V30 13287 C 1276.66 -1.00367 -3.46351 0
M  V30 13288 O 1275.76 -0.103326 -4.12271 0
M  V30 13289 H 1275.1 -0.257997 -0.611828 0
M  V30 13290 H 1277.63 -1.33219 -1.55286 0
M  V30 13291 H 1277.64 -0.946259 -3.96875 0
M  V30 13292 H 1276.32 -2.04504 -3.62148 0
M  V30 13293 H 1274.89 -0.216374 -3.72272 0
M  V30 13294 N 1277.08 1.37613 -0.768148 0
M  V30 13295 C 1278.3 2.04579 -0.340892 0
M  V30 13296 C 1278.73 1.57556 1.02751 0
M  V30 13297 O 1278.09 0.734151 1.65771 0
M  V30 13298 C 1278.13 3.58495 -0.389099 0
M  V30 13299 O 1277.24 4.07838 0.611741 0
M  V30 13300 H 1276.58 0.647246 -0.148216 0
M  V30 13301 H 1279.11 1.75999 -1.04333 0
M  V30 13302 H 1279.12 4.07263 -0.245116 0
M  V30 13303 H 1277.79 3.92076 -1.38742 0
M  V30 13304 H 1276.37 3.70399 0.431173 0
M  V30 13305 N 1278.56 0.518393 1.4883 0
M  V30 13306 C 1279.97 0.0749773 1.86549 0
M  V30 13307 C 1280.32 -1.34429 1.4291 0
M  V30 13308 O 1279.44 -2.00481 0.814648 0
M  V30 13309 C 1280.04 0.129289 3.38553 0
M  V30 13310 C 1278.6 -0.258871 3.75509 0
M  V30 13311 C 1277.74 0.494185 2.72861 0
M  V30 13312 H 1280.7 0.730266 1.409 0
M  V30 13313 H 1280.72 -0.661844 3.747 0
M  V30 13314 H 1280.23 1.16237 3.70285 0
M  V30 13315 H 1278.33 -1.29453 3.49389 0
M  V30 13316 H 1278.44 0.0726769 4.79045 0
M  V30 13317 H 1276.81 -0.0581428 2.54634 0
M  V30 13318 H 1277.59 1.52767 3.07436 0
M  V30 13319 N 1280.03 -1.55556 0.252993 0
M  V30 13320 C 1281.28 -1.98267 -0.370571 0
M  V30 13321 C 1281.6 -1.14449 -1.58622 0
M  V30 13322 O 1282.8 -1.472 -2.28132 0
M  V30 13323 C 1281.26 -3.52813 -0.710685 0
M  V30 13324 C 1280.87 -4.45379 0.483908 0
M  V30 13325 C 1282.61 -4.04165 -1.2981 0
M  V30 13326 C 1280.52 -5.91279 0.119611 0
M  V30 13327 H 1279.45 -0.740463 -0.142232 0
M  V30 13328 H 1282.1 -1.8005 0.354169 0
M  V30 13329 H 1280.48 -3.66748 -1.49372 0
M  V30 13330 H 1281.65 -4.43206 1.26116 0
M  V30 13331 H 1279.97 -4.04542 0.986664 0
M  V30 13332 H 1282.57 -5.10696 -1.5841 0
M  V30 13333 H 1282.91 -3.51875 -2.22462 0
M  V30 13334 H 1283.44 -3.93581 -0.577836 0
M  V30 13335 H 1280.18 -6.47619 1.01343 0
M  V30 13336 H 1279.7 -5.96573 -0.621318 0
M  V30 13337 H 1281.38 -6.46322 -0.296052 0
M  V30 13338 N 1281.51 0.0200419 -1.57587 0
M  V30 13339 C 1282.76 0.709027 -1.89681 0
M  V30 13340 C 1283.09 1.74876 -0.851396 0
M  V30 13341 O 1282.34 1.95151 0.146483 0
M  V30 13342 C 1282.64 1.40729 -3.28527 0
M  V30 13343 C 1282.31 0.502686 -4.48089 0
M  V30 13344 C 1280.97 0.253558 -4.80532 0
M  V30 13345 C 1283.32 -0.121338 -5.21059 0
M  V30 13346 C 1280.65 -0.628221 -5.83327 0
M  V30 13347 C 1283 -0.990873 -6.24792 0
M  V30 13348 C 1281.67 -1.24937 -6.55703 0
M  V30 13349 H 1280.94 0.259451 -0.694094 0
M  V30 13350 H 1283.58 -0.03118 -1.91475 0
M  V30 13351 H 1281.89 2.22105 -3.22764 0
M  V30 13352 H 1283.58 1.94609 -3.50611 0
M  V30 13353 H 1280.17 0.707018 -4.22728 0
M  V30 13354 H 1284.36 0.0581516 -4.96266 0
M  V30 13355 H 1279.61 -0.836712 -6.05648 0
M  V30 13356 H 1283.79 -1.48087 -6.80473 0
M  V30 13357 H 1281.42 -1.93436 -7.35178 0
M  V30 13358 N 1282.99 1.54862 0.292472 0
M  V30 13359 C 1283.94 1.86403 1.36098 0
M  V30 13360 C 1284.91 0.713694 1.49985 0
M  V30 13361 O 1286.09 0.963134 1.64707 0
M  V30 13362 C 1283.23 2.1244 2.71962 0
M  V30 13363 C 1282.35 3.40038 2.66454 0
M  V30 13364 C 1281.48 3.55875 3.94368 0
M  V30 13365 C 1280.52 4.77235 3.83293 0
M  V30 13366 N 1279.66 4.89832 5.03 0
M  V30 13367 H 1284.5 2.77546 1.085 0
M  V30 13368 H 1282.03 1.37427 0.524607 0
M  V30 13369 H 1283.99 2.25533 3.50985 0
M  V30 13370 H 1282.62 1.24554 2.97802 0
M  V30 13371 H 1281.67 3.35521 1.79248 0
M  V30 13372 H 1282.99 4.29188 2.54163 0
M  V30 13373 H 1282.14 3.68679 4.8183 0
M  V30 13374 H 1280.88 2.64874 4.09503 0
M  V30 13375 H 1279.88 4.64455 2.94214 0
M  V30 13376 H 1281.11 5.69651 3.69695 0
M  V30 13377 H 1279.05 4.01756 5.18582 0
M  V30 13378 H 1278.97 5.72996 4.93165 0
M  V30 13379 H 1280.24 5.07001 5.92089 0
M  V30 13380 N 1284.47 -0.556076 1.47464 0
M  V30 13381 C 1285.43 -1.64515 1.59586 0
M  V30 13382 C 1286.43 -1.53751 0.470881 0
M  V30 13383 O 1287.62 -1.57889 0.735979 0
M  V30 13384 C 1284.75 -3.0406 1.54143 0
M  V30 13385 H 1285.95 -1.55116 2.56669 0
M  V30 13386 H 1283.5 -0.776087 1.35671 0
M  V30 13387 H 1284.23 -3.18991 0.584395 0
M  V30 13388 H 1284.02 -3.13282 2.3579 0
M  V30 13389 H 1285.51 -3.8329 1.65766 0
M  V30 13390 N 1285.95 -1.35615 -0.802897 0
M  V30 13391 C 1287.2 -1.28839 -1.55708 0
M  V30 13392 C 1287.52 0.135906 -1.94526 0
M  V30 13393 O 1286.79 1.07317 -1.6389 0
M  V30 13394 H 1285.37 -0.473906 -0.577427 0
M  V30 13395 H 1288.03 -1.69759 -0.957487 0
M  V30 13396 H 1287.12 -1.90675 -2.47082 0
M  V30 13397 N 1287.43 1.02549 -1.19673 0
M  V30 13398 C 1288.38 2.09257 -0.905282 0
M  V30 13399 C 1289.36 1.60363 0.131302 0
M  V30 13400 O 1290.55 1.76842 -0.0748563 0
M  V30 13401 C 1287.68 3.40345 -0.449474 0
M  V30 13402 C 1286.77 3.95964 -1.51899 0
M  V30 13403 N 1287.16 4.25203 -2.73926 0
M  V30 13404 C 1285.46 4.24013 -1.38307 0
M  V30 13405 C 1286.16 4.69925 -3.42849 0
M  V30 13406 N 1285.13 4.71664 -2.70248 0
M  V30 13407 H 1288.93 2.29761 -1.83268 0
M  V30 13408 H 1286.45 1.2044 -1.0894 0
M  V30 13409 H 1288.45 4.16308 -0.222121 0
M  V30 13410 H 1287.11 3.2126 0.471402 0
M  V30 13411 H 1288.12 4.14381 -3.10658 0
M  V30 13412 H 1284.79 4.14174 -0.52592 0
M  V30 13413 H 1286.18 5.01442 -4.4722 0
M  V30 13414 N 1288.9 1.00119 1.21713 0
M  V30 13415 C 1290.13 0.700172 1.95224 0
M  V30 13416 C 1290.55 -0.730138 1.73351 0
M  V30 13417 O 1289.91 -1.50026 1.01794 0
M  V30 13418 C 1289.96 1.02202 3.45814 0
M  V30 13419 O 1289.06 0.125188 4.1221 0
M  V30 13420 H 1288.4 0.261238 0.610451 0
M  V30 13421 H 1290.93 1.34041 1.54578 0
M  V30 13422 H 1290.94 0.967293 3.96368 0
M  V30 13423 H 1289.62 2.06422 3.61058 0
M  V30 13424 H 1288.2 0.236114 3.72152 0
M  V30 13425 N 1290.38 -1.37203 0.775435 0
M  V30 13426 C 1291.63 -1.99897 0.341936 0
M  V30 13427 C 1291.96 -1.61414 -1.07978 0
M  V30 13428 O 1291.24 -0.862108 -1.7435 0
M  V30 13429 C 1291.52 -3.56755 0.489715 0
M  V30 13430 C 1291.37 -4.05135 1.95411 0
M  V30 13431 C 1292.69 -4.39978 -0.103779 0
M  V30 13432 H 1289.81 -0.726199 0.125717 0
M  V30 13433 H 1292.45 -1.62826 0.979167 0
M  V30 13434 H 1290.6 -3.88464 -0.0527684 0
M  V30 13435 H 1292.27 -3.83975 2.55658 0
M  V30 13436 H 1290.52 -3.57192 2.46164 0
M  V30 13437 H 1291.19 -5.14161 2.00855 0
M  V30 13438 H 1293.66 -4.14547 0.359134 0
M  V30 13439 H 1292.54 -5.48892 0.0297337 0
M  V30 13440 H 1292.8 -4.25658 -1.19448 0
M  V30 13441 N 1291.86 -0.526279 -1.48553 0
M  V30 13442 C 1292.82 0.227739 -2.28066 0
M  V30 13443 C 1293.82 0.871146 -1.35158 0
M  V30 13444 O 1295.01 0.731769 -1.58085 0
M  V30 13445 C 1292.14 1.32918 -3.1392 0
M  V30 13446 H 1293.34 -0.470313 -2.96189 0
M  V30 13447 H 1290.89 -0.282089 -1.53733 0
M  V30 13448 H 1291.63 2.0606 -2.50419 0
M  V30 13449 H 1291.41 0.872991 -3.82258 0
M  V30 13450 H 1292.9 1.85964 -3.73908 0
M  V30 13451 N 1293.34 1.5542 -0.261239 0
M  V30 13452 C 1294.27 2.24949 0.626126 0
M  V30 13453 C 1295.25 1.23474 1.16997 0
M  V30 13454 O 1296.43 1.52161 1.20667 0
M  V30 13455 C 1293.56 2.95996 1.81669 0
M  V30 13456 C 1292.52 4.04282 1.40499 0
M  V30 13457 C 1291.84 4.62831 2.67753 0
M  V30 13458 C 1293.14 5.1923 0.56543 0
M  V30 13459 H 1294.84 2.99364 0.0463164 0
M  V30 13460 H 1292.38 1.43985 0.0208366 0
M  V30 13461 H 1294.34 3.43343 2.44323 0
M  V30 13462 H 1293.06 2.19093 2.42211 0
M  V30 13463 H 1291.72 3.57726 0.801712 0
M  V30 13464 H 1291.37 3.82611 3.26524 0
M  V30 13465 H 1291.07 5.35938 2.40925 0
M  V30 13466 H 1292.59 5.12918 3.31281 0
M  V30 13467 H 1294.01 5.62714 1.09663 0
M  V30 13468 H 1292.4 5.98814 0.392607 0
M  V30 13469 H 1293.47 4.83086 -0.419059 0
M  V30 13470 N 1294.82 -0.0116844 1.57596 0
M  V30 13471 C 1295.75 -1.03477 2.04512 0
M  V30 13472 C 1296.76 -1.31414 0.960945 0
M  V30 13473 O 1297.95 -1.28596 1.23796 0
M  V30 13474 C 1295.05 -2.37234 2.42019 0
M  V30 13475 C 1294.22 -2.28405 3.73028 0
M  V30 13476 C 1293.28 -3.44753 3.97532 0
M  V30 13477 O 1292.31 -3.23465 4.68358 0
M  V30 13478 N 1293.51 -4.67212 3.44518 0
M  V30 13479 H 1296.27 -0.634758 2.92901 0
M  V30 13480 H 1293.84 -0.1993 1.60669 0
M  V30 13481 H 1295.83 -3.13821 2.55535 0
M  V30 13482 H 1294.4 -2.69018 1.5921 0
M  V30 13483 H 1293.62 -1.36804 3.697 0
M  V30 13484 H 1294.91 -2.19666 4.58938 0
M  V30 13485 H 1294.3 -4.87407 2.87142 0
M  V30 13486 H 1292.86 -5.41105 3.63384 0
M  V30 13487 N 1296.29 -1.55015 -0.284256 0
M  V30 13488 C 1297.23 -1.82031 -1.37623 0
M  V30 13489 C 1298.2 -0.672564 -1.48038 0
M  V30 13490 O 1299.39 -0.914349 -1.64839 0
M  V30 13491 C 1296.52 -1.97193 -2.75377 0
M  V30 13492 C 1295.56 -3.19699 -2.82303 0
M  V30 13493 S 1296.39 -4.77348 -2.42691 0
M  V30 13494 C 1297.55 -4.95468 -3.82442 0
M  V30 13495 H 1297.78 -2.74366 -1.14502 0
M  V30 13496 H 1295.32 -1.46642 -0.483283 0
M  V30 13497 H 1297.27 -2.06614 -3.54713 0
M  V30 13498 H 1295.94 -1.05766 -2.95757 0
M  V30 13499 H 1295.13 -3.27161 -3.83382 0
M  V30 13500 H 1294.73 -3.08811 -2.10978 0
M  V30 13501 H 1297.02 -4.80519 -4.77606 0
M  V30 13502 H 1297.97 -5.97538 -3.7994 0
M  V30 13503 H 1298.37 -4.23516 -3.73222 0
M  V30 13504 N 1297.77 0.548248 -1.47757 0
M  V30 13505 C 1298.7 1.6705 -1.55466 0
M  V30 13506 C 1299.68 1.57444 -0.406208 0
M  V30 13507 O 1300.87 1.78176 -0.615268 0
M  V30 13508 C 1297.99 3.0535 -1.46558 0
M  V30 13509 C 1297.04 3.33372 -2.66017 0
M  V30 13510 S 1297.87 3.21643 -4.28143 0
M  V30 13511 C 1299.03 4.62421 -4.21803 0
M  V30 13512 H 1299.26 1.60258 -2.50409 0
M  V30 13513 H 1296.79 0.72978 -1.36065 0
M  V30 13514 H 1298.75 3.85118 -1.42106 0
M  V30 13515 H 1297.41 3.09599 -0.529838 0
M  V30 13516 H 1296.61 4.34218 -2.55873 0
M  V30 13517 H 1296.21 2.6124 -2.67638 0
M  V30 13518 H 1298.5 5.53561 -3.9061 0
M  V30 13519 H 1299.44 4.77621 -5.22766 0
M  V30 13520 H 1299.85 4.40887 -3.52532 0
M  V30 13521 N 1299.25 1.36039 0.795694 0
M  V30 13522 C 1300.5 1.29919 1.5533 0
M  V30 13523 C 1300.82 -0.123325 1.94109 0
M  V30 13524 O 1300.08 -1.09115 1.62457 0
M  V30 13525 C 1300.38 2.16166 2.84617 0
M  V30 13526 C 1300.04 3.64805 2.65006 0
M  V30 13527 C 1298.71 4.05319 2.59365 0
M  V30 13528 C 1301.06 4.59073 2.46781 0
M  V30 13529 C 1298.39 5.38251 2.33458 0
M  V30 13530 C 1300.74 5.92216 2.22402 0
M  V30 13531 C 1299.4 6.31862 2.1519 0
M  V30 13532 H 1298.67 0.475408 0.568391 0
M  V30 13533 H 1301.32 1.68035 0.918512 0
M  V30 13534 H 1299.62 1.70967 3.5253 0
M  V30 13535 H 1301.32 2.0876 3.42375 0
M  V30 13536 H 1297.91 3.32662 2.70248 0
M  V30 13537 H 1302.1 4.28651 2.50144 0
M  V30 13538 H 1297.35 5.67957 2.26352 0
M  V30 13539 H 1301.53 6.64833 2.07293 0
M  V30 13540 H 1299.15 7.34797 1.94878 0
M  V30 13541 N 1300.73 -1.01913 1.20215 0
M  V30 13542 C 1301.68 -2.12516 0.945493 0
M  V30 13543 C 1302.67 -1.69091 -0.102243 0
M  V30 13544 O 1303.88 -1.79936 0.047888 0
M  V30 13545 H 1300.25 -0.694496 0.288409 0
M  V30 13546 H 1302.22 -2.31349 1.88468 0
M  V30 13547 C 1300.97 -3.43919 0.51137 0
M  V30 13548 H 1300.29 -3.77758 1.30916 0
M  V30 13549 H 1301.73 -4.22374 0.370981 0
M  V30 13550 C 1300.19 -3.27844 -0.775902 0
M  V30 13551 O 1300.72 -3.5734 -1.83496 0
M  V30 13552 N 1298.93 -2.81101 -0.73694 0
M  V30 13553 H 1298.48 -2.57296 0.125164 0
M  V30 13554 H 1298.43 -2.70726 -1.59859 0
M  V30 13555 N 1302.21 -1.00763 -1.2118 0
M  V30 13556 C 1303.43 -0.710746 -1.94309 0
M  V30 13557 C 1303.85 0.727103 -1.74237 0
M  V30 13558 O 1303.21 1.49223 -1.05065 0
M  V30 13559 C 1303.26 -1.02562 -3.46646 0
M  V30 13560 O 1302.98 -2.40699 -3.66054 0
M  V30 13561 C 1304.48 -0.748517 -4.36935 0
M  V30 13562 H 1301.7 -0.26171 -0.617858 0
M  V30 13563 H 1304.24 -1.34639 -1.53924 0
M  V30 13564 H 1302.4 -0.435537 -3.84944 0
M  V30 13565 H 1302.81 -2.51764 -4.60125 0
M  V30 13566 H 1304.29 -1.01899 -5.42513 0
M  V30 13567 H 1304.76 0.317423 -4.38051 0
M  V30 13568 H 1305.37 -1.32033 -4.04286 0
M  V30 13569 N 1303.68 1.3679 -0.7827 0
M  V30 13570 C 1304.61 2.32721 -0.190604 0
M  V30 13571 C 1305.6 1.56321 0.670663 0
M  V30 13572 O 1306.78 1.84507 0.605871 0
M  V30 13573 C 1303.91 3.40564 0.680717 0
M  V30 13574 C 1302.86 4.27925 -0.080118 0
M  V30 13575 C 1302.19 5.26876 0.911361 0
M  V30 13576 C 1303.49 5.06738 -1.26545 0
M  V30 13577 H 1305.18 2.82488 -0.992023 0
M  V30 13578 H 1302.73 1.35818 -0.478484 0
M  V30 13579 H 1304.68 4.06659 1.10482 0
M  V30 13580 H 1303.41 2.89348 1.51477 0
M  V30 13581 H 1302.07 3.63376 -0.485125 0
M  V30 13582 H 1301.71 4.71936 1.74026 0
M  V30 13583 H 1301.41 5.8619 0.406762 0
M  V30 13584 H 1302.94 5.95846 1.33418 0
M  V30 13585 H 1304.35 5.65911 -0.917448 0
M  V30 13586 H 1302.75 5.75432 -1.70289 0
M  V30 13587 H 1303.82 4.38772 -2.06415 0
M  V30 13588 N 1305.16 0.53415 1.48272 0
M  V30 13589 C 1306.41 0.00157492 2.028 0
M  V30 13590 C 1306.74 -1.33538 1.41001 0
M  V30 13591 O 1306.02 -1.86347 0.557245 0
M  V30 13592 C 1306.3 -0.116016 3.59913 0
M  V30 13593 C 1306.15 1.2464 4.32186 0
M  V30 13594 C 1307.47 -0.840775 4.31994 0
M  V30 13595 H 1304.59 0.00204634 0.736997 0
M  V30 13596 H 1307.23 0.691985 1.76951 0
M  V30 13597 H 1305.38 -0.704027 3.82068 0
M  V30 13598 H 1307.05 1.87584 4.21438 0
M  V30 13599 H 1305.3 1.8272 3.93441 0
M  V30 13600 H 1305.97 1.11708 5.40579 0
M  V30 13601 H 1308.44 -0.341746 4.14694 0
M  V30 13602 H 1307.32 -0.89196 5.41604 0
M  V30 13603 H 1307.58 -1.89197 3.99571 0
M  V30 13604 N 1306.64 -1.55279 0.269478 0
M  V30 13605 C 1307.59 -2.23723 -0.636468 0
M  V30 13606 C 1308.58 -1.23234 -1.16232 0
M  V30 13607 O 1309.79 -1.41181 -1.1166 0
M  V30 13608 H 1306.16 -0.71793 -0.223788 0
M  V30 13609 H 1308.13 -2.98378 -0.0363057 0
M  V30 13610 C 1306.88 -2.96755 -1.81195 0
M  V30 13611 H 1306.21 -3.73865 -1.4165 0
M  V30 13612 H 1307.65 -3.47975 -2.42258 0
M  V30 13613 C 1306.11 -2.01905 -2.69696 0
M  V30 13614 O 1306.64 -1.56662 -3.69892 0
M  V30 13615 N 1304.84 -1.68524 -2.36744 0
M  V30 13616 H 1304.39 -2.05512 -1.55314 0
M  V30 13617 H 1304.35 -1.05331 -2.96231 0
M  V30 13618 N 1308.12 0.00332656 -1.576 0
M  V30 13619 C 1309.34 0.703587 -1.95101 0
M  V30 13620 C 1309.77 1.66697 -0.871418 0
M  V30 13621 O 1309.13 1.80494 0.170739 0
M  V30 13622 C 1309.17 1.41457 -3.31696 0
M  V30 13623 O 1308.28 2.52885 -3.25765 0
M  V30 13624 H 1307.62 0.187396 -0.637008 0
M  V30 13625 H 1310.15 -0.0488727 -2.04542 0
M  V30 13626 H 1310.16 1.77874 -3.67185 0
M  V30 13627 H 1308.83 0.708182 -4.09826 0
M  V30 13628 H 1307.41 2.18821 -3.01947 0
M  V30 13629 N 1309.6 1.55164 0.276031 0
M  V30 13630 C 1310.82 1.7998 1.03063 0
M  V30 13631 C 1311.25 0.569769 1.79263 0
M  V30 13632 O 1310.6 -0.48054 1.74816 0
M  V30 13633 C 1310.65 3.02209 1.96728 0
M  V30 13634 O 1309.76 2.77083 3.05449 0
M  V30 13635 H 1309.1 0.594963 0.294814 0
M  V30 13636 H 1311.63 2.02301 0.305861 0
M  V30 13637 H 1311.64 3.3086 2.38738 0
M  V30 13638 H 1310.31 3.91386 1.40677 0
M  V30 13639 H 1308.89 2.5952 2.67776 0
M  V30 13640 N 1311.07 -0.540404 1.48045 0
M  V30 13641 C 1312.32 -1.29628 1.56742 0
M  V30 13642 C 1312.68 -1.90975 0.233761 0
M  V30 13643 O 1311.97 -1.75781 -0.762333 0
M  V30 13644 C 1312.16 -2.41517 2.63447 0
M  V30 13645 C 1311.99 -1.91137 4.07059 0
M  V30 13646 C 1310.76 -1.74214 4.74318 0
M  V30 13647 C 1312.96 -1.44598 4.93554 0
M  V30 13648 N 1310.94 -1.1835 6.02384 0
M  V30 13649 C 1312.31 -1.00612 6.11782 0
M  V30 13650 C 1314.37 -1.32805 4.79862 0
M  V30 13651 C 1313.07 -0.460024 7.17827 0
M  V30 13652 C 1315.1 -0.795956 5.86019 0
M  V30 13653 C 1314.46 -0.36611 7.03448 0
M  V30 13654 H 1310.56 -0.46575 0.628173 0
M  V30 13655 H 1313.14 -0.610609 1.84877 0
M  V30 13656 H 1311.31 -3.07594 2.37151 0
M  V30 13657 H 1313.04 -3.08539 2.61889 0
M  V30 13658 H 1309.8 -1.97429 4.30487 0
M  V30 13659 H 1310.22 -0.924579 6.70657 0
M  V30 13660 H 1314.87 -1.64645 3.89425 0
M  V30 13661 H 1312.58 -0.129275 8.07997 0
M  V30 13662 H 1316.17 -0.708026 5.77476 0
M  V30 13663 H 1315.05 0.0392247 7.8419 0
M  V30 13664 N 1312.55 -1.36459 -0.788468 0
M  V30 13665 C 1313.8 -1.30483 -1.54333 0
M  V30 13666 C 1314.12 0.115266 -1.94659 0
M  V30 13667 O 1313.39 1.05573 -1.65019 0
M  V30 13668 H 1311.97 -0.480004 -0.572368 0
M  V30 13669 H 1314.63 -1.70765 -0.939428 0
M  V30 13670 H 1313.73 -1.93284 -2.45046 0
M  V30 13671 N 1314.03 1.01274 -1.20754 0
M  V30 13672 C 1315.31 1.7213 -0.929008 0
M  V30 13673 C 1315.69 2.03503 0.561217 0
M  V30 13674 O 1315.04 1.70259 1.52395 0
M  V30 13675 C 1315.25 2.98636 -1.80603 0
M  V30 13676 C 1316.59 3.71823 -2.0502 0
M  V30 13677 O 1317.62 3.08601 -1.77888 0
M  V30 13678 O 1316.48 4.8552 -2.50864 0
M  V30 13679 H 1313.57 0.750361 -0.347689 0
M  V30 13680 H 1316.12 1.07086 -1.31646 0
M  V30 13681 H 1314.89 2.71803 -2.81494 0
M  V30 13682 H 1314.51 3.7142 -1.4189 0
M  V30 13683 N 1315.51 1.01404 1.20644 0
M  V30 13684 C 1316.73 0.720839 1.9447 0
M  V30 13685 C 1317.16 -0.711711 1.74116 0
M  V30 13686 O 1316.52 -1.48938 1.03379 0
M  V30 13687 C 1316.57 1.05864 3.4471 0
M  V30 13688 O 1315.67 0.168901 4.12054 0
M  V30 13689 H 1315.01 0.267698 0.607646 0
M  V30 13690 H 1317.54 1.35672 1.53147 0
M  V30 13691 H 1317.55 1.00928 3.9532 0
M  V30 13692 H 1316.23 2.1024 3.58848 0
M  V30 13693 H 1314.8 0.275572 3.7188 0
M  V30 13694 N 1316.99 -1.36373 0.789944 0
M  V30 13695 C 1318.23 -1.99523 0.363119 0
M  V30 13696 C 1318.57 -1.6255 -1.0626 0
M  V30 13697 O 1317.84 -0.880551 -1.73426 0
M  V30 13698 C 1318.12 -3.56215 0.527526 0
M  V30 13699 C 1317.98 -4.0304 1.99697 0
M  V30 13700 C 1319.3 -4.40063 -0.0571079 0
M  V30 13701 H 1316.42 -0.724824 0.133412 0
M  V30 13702 H 1319.06 -1.61778 0.996381 0
M  V30 13703 H 1317.21 -3.88498 -0.0115636 0
M  V30 13704 H 1318.88 -3.81241 2.59717 0
M  V30 13705 H 1317.12 -3.54561 2.49939 0
M  V30 13706 H 1317.79 -5.12001 2.06297 0
M  V30 13707 H 1320.27 -4.14143 0.403082 0
M  V30 13708 H 1319.15 -5.4883 0.0879494 0
M  V30 13709 H 1319.41 -4.26901 -1.14926 0
M  V30 13710 N 1318.47 -0.542005 -1.47987 0
M  V30 13711 C 1319.38 0.217677 -2.33588 0
M  V30 13712 C 1320.39 0.927093 -1.47245 0
M  V30 13713 O 1321.57 0.899378 -1.80203 0
M  V30 13714 C 1318.63 1.24376 -3.23622 0
M  V30 13715 C 1317.69 0.543407 -4.25847 0
M  V30 13716 C 1316.93 1.5206 -5.11579 0
M  V30 13717 O 1317.15 2.75425 -4.99497 0
M  V30 13718 O 1316.08 1.05341 -5.9261 0
M  V30 13719 H 1319.91 -0.484089 -2.99817 0
M  V30 13720 H 1317.49 -0.302783 -1.463 0
M  V30 13721 H 1319.38 1.83644 -3.7928 0
M  V30 13722 H 1318.05 1.92772 -2.6004 0
M  V30 13723 H 1316.96 -0.090074 -3.73992 0
M  V30 13724 H 1318.29 -0.0988264 -4.92101 0
M  V30 13725 N 1319.94 1.55134 -0.277709 0
M  V30 13726 C 1320.87 2.256 0.602232 0
M  V30 13727 C 1321.85 1.24708 1.15681 0
M  V30 13728 O 1323.04 1.53433 1.19046 0
M  V30 13729 C 1320.17 2.97907 1.78519 0
M  V30 13730 C 1319.12 4.0575 1.36203 0
M  V30 13731 C 1318.45 4.65644 2.62829 0
M  V30 13732 C 1319.75 5.19801 0.510327 0
M  V30 13733 H 1321.44 2.99396 0.0145622 0
M  V30 13734 H 1318.99 1.43999 0.00556389 0
M  V30 13735 H 1320.94 3.45915 2.40668 0
M  V30 13736 H 1319.67 2.21649 2.39873 0
M  V30 13737 H 1318.33 3.58557 0.763726 0
M  V30 13738 H 1317.97 3.86053 3.22447 0
M  V30 13739 H 1317.67 5.38463 2.35227 0
M  V30 13740 H 1319.2 5.16403 3.25823 0
M  V30 13741 H 1320.61 5.63845 1.03689 0
M  V30 13742 H 1319.01 5.99197 0.329073 0
M  V30 13743 H 1320.08 4.82614 -0.470273 0
M  V30 13744 N 1321.42 0.00503138 1.57599 0
M  V30 13745 C 1322.37 -0.993379 2.05222 0
M  V30 13746 C 1323.36 -1.30013 0.947919 0
M  V30 13747 O 1324.55 -1.29027 1.21166 0
M  V30 13748 C 1321.68 -2.28375 2.5632 0
M  V30 13749 C 1320.76 -2.00642 3.73636 0
M  V30 13750 N 1321.15 -1.43087 4.85139 0
M  V30 13751 C 1319.45 -2.30759 3.81662 0
M  V30 13752 C 1320.15 -1.31939 5.66539 0
M  V30 13753 N 1319.13 -1.80672 5.12697 0
M  V30 13754 H 1322.93 -0.542951 2.88841 0
M  V30 13755 H 1320.44 -0.20055 1.61157 0
M  V30 13756 H 1322.44 -3.00748 2.88715 0
M  V30 13757 H 1321.1 -2.74066 1.74121 0
M  V30 13758 H 1322.11 -1.10901 5.05887 0
M  V30 13759 H 1318.79 -2.7929 3.10327 0
M  V30 13760 H 1320.18 -0.876391 6.6616 0
M  V30 13761 N 1322.9 -1.55308 -0.267798 0
M  V30 13762 C 1323.86 -1.87765 -1.31442 0
M  V30 13763 C 1324.86 -0.752571 -1.42102 0
M  V30 13764 O 1326.05 -1.02072 -1.41163 0
M  V30 13765 C 1323.18 -2.08754 -2.69508 0
M  V30 13766 H 1324.38 -2.8133 -1.03891 0
M  V30 13767 H 1321.93 -1.47879 -0.506111 0
M  V30 13768 H 1322.67 -1.17588 -3.02231 0
M  V30 13769 H 1322.45 -2.90674 -2.63156 0
M  V30 13770 H 1323.94 -2.3512 -3.4512 0
M  V30 13771 N 1324.38 0.532545 -1.4833 0
M  V30 13772 C 1325.33 1.65832 -1.63103 0
M  V30 13773 C 1326.32 1.61929 -0.497538 0
M  V30 13774 O 1327.53 1.66817 -0.676176 0
M  V30 13775 H 1323.9 0.549152 -0.513748 0
M  V30 13776 H 1325.87 1.50515 -2.57658 0
M  V30 13777 C 1324.62 3.04113 -1.68555 0
M  V30 13778 H 1323.94 3.07809 -2.55135 0
M  V30 13779 H 1325.38 3.82506 -1.82936 0
M  V30 13780 C 1323.84 3.34225 -0.423711 0
M  V30 13781 O 1324.37 3.99005 0.464523 0
M  V30 13782 N 1322.58 2.89087 -0.296192 0
M  V30 13783 H 1322.13 2.36547 -1.01997 0
M  V30 13784 H 1322.08 3.09604 0.547082 0
M  V30 13785 N 1325.86 1.36875 0.78122 0
M  V30 13786 C 1327.1 1.31754 1.54171 0
M  V30 13787 C 1327.43 -0.100632 1.93939 0
M  V30 13788 O 1326.71 -1.05587 1.63345 0
M  V30 13789 C 1326.99 2.24789 2.81322 0
M  V30 13790 C 1326.85 3.75342 2.47868 0
M  V30 13791 C 1328.16 2.16442 3.83198 0
M  V30 13792 H 1325.28 0.479931 0.559317 0
M  V30 13793 H 1327.93 1.67497 0.896935 0
M  V30 13794 H 1326.08 1.94438 3.36342 0
M  V30 13795 H 1327.75 4.16247 1.98836 0
M  V30 13796 H 1325.99 3.94375 1.80696 0
M  V30 13797 H 1326.66 4.3586 3.38719 0
M  V30 13798 H 1329.14 2.43175 3.37647 0
M  V30 13799 H 1328.01 2.83695 4.69903 0
M  V30 13800 H 1328.27 1.15431 4.26765 0
M  V30 13801 N 1327.33 -1.00632 1.21289 0
M  V30 13802 C 1328.56 -1.77967 1.05524 0
M  V30 13803 C 1328.98 -1.84621 -0.395023 0
M  V30 13804 O 1328.33 -1.30664 -1.27409 0
M  V30 13805 C 1328.38 -3.21939 1.64432 0
M  V30 13806 O 1328.11 -3.15669 3.03784 0
M  V30 13807 C 1329.61 -4.1578 1.5376 0
M  V30 13808 H 1326.83 -0.559341 0.370646 0
M  V30 13809 H 1329.37 -1.26604 1.60598 0
M  V30 13810 H 1327.53 -3.70415 1.13453 0
M  V30 13811 H 1327.94 -4.06112 3.31924 0
M  V30 13812 H 1329.41 -5.14602 1.99722 0
M  V30 13813 H 1329.89 -4.36438 0.491811 0
M  V30 13814 H 1330.5 -3.73192 2.0398 0
M  V30 13815 N 1328.81 -1.02043 -1.20104 0
M  V30 13816 C 1330.05 -0.720566 -1.91278 0
M  V30 13817 C 1330.42 0.73658 -1.77309 0
M  V30 13818 O 1331.62 1.14913 -2.42999 0
M  V30 13819 C 1329.89 -1.1489 -3.3843 0
M  V30 13820 S 1331.45 -0.971591 -4.27908 0
M  V30 13821 H 1328.26 -0.262582 -0.660736 0
M  V30 13822 H 1330.87 -1.30849 -1.45254 0
M  V30 13823 H 1329.57 -2.20521 -3.46119 0
M  V30 13824 H 1329.1 -0.553911 -3.89481 0
M  V30 13825 H 1331.12 0.122695 -4.96048 0
M  V30 13826 N 1330.29 1.35952 -0.797165 0
M  V30 13827 C 1331.24 2.31831 -0.188958 0
M  V30 13828 C 1332.23 1.56181 0.656042 0
M  V30 13829 O 1333.44 1.71383 0.550259 0
M  V30 13830 H 1329.81 0.750807 -0.0423354 0
M  V30 13831 H 1331.78 2.80683 -1.0129 0
M  V30 13832 C 1330.53 3.41464 0.655547 0
M  V30 13833 H 1329.86 3.99797 0.0146854 0
M  V30 13834 H 1331.3 4.10853 1.04765 0
M  V30 13835 C 1329.76 2.83696 1.81709 0
M  V30 13836 O 1330.29 2.76484 2.91409 0
M  V30 13837 N 1328.49 2.40876 1.62564 0
M  V30 13838 H 1328.04 2.46941 0.733337 0
M  V30 13839 H 1328 2.02572 2.40441 0
M  V30 13840 N 1331.77 0.549846 1.47697 0
M  V30 13841 C 1332.72 -0.215119 2.31603 0
M  V30 13842 C 1333.71 -0.916441 1.4247 0
M  V30 13843 O 1334.92 -0.838565 1.59274 0
M  V30 13844 H 1331.29 -0.0882441 0.746805 0
M  V30 13845 H 1333.26 0.511847 2.93977 0
M  V30 13846 C 1332.01 -1.23662 3.24966 0
M  V30 13847 H 1331.33 -0.706384 3.9351 0
M  V30 13848 H 1332.77 -1.7429 3.86522 0
M  V30 13849 C 1331.23 -2.28066 2.47967 0
M  V30 13850 O 1331.76 -3.34862 2.21879 0
M  V30 13851 N 1329.97 -2.01799 2.09106 0
M  V30 13852 H 1329.52 -1.14965 2.30523 0
M  V30 13853 H 1329.47 -2.71872 1.57902 0
M  V30 13854 N 1333.25 -1.54984 0.285932 0
M  V30 13855 C 1334.16 -2.26621 -0.606648 0
M  V30 13856 C 1335.17 -1.29595 -1.16108 0
M  V30 13857 O 1336.35 -1.62551 -1.18908 0
M  V30 13858 C 1333.41 -2.98156 -1.76929 0
M  V30 13859 C 1332.47 -4.10685 -1.25045 0
M  V30 13860 C 1331.71 -4.788 -2.35768 0
M  V30 13861 O 1331.93 -4.46183 -3.55354 0
M  V30 13862 O 1330.86 -5.66523 -2.03312 0
M  V30 13863 H 1334.69 -3.03689 -0.0259981 0
M  V30 13864 H 1332.28 -1.49306 0.0529355 0
M  V30 13865 H 1334.16 -3.43076 -2.44697 0
M  V30 13866 H 1332.83 -2.23996 -2.33683 0
M  V30 13867 H 1331.74 -3.70198 -0.538919 0
M  V30 13868 H 1333.07 -4.86778 -0.728528 0
M  V30 13869 N 1334.72 -0.0133892 -1.57594 0
M  V30 13870 C 1336 0.706416 -1.82398 0
M  V30 13871 C 1336.38 1.91236 -0.893983 0
M  V30 13872 O 1335.73 2.28436 0.0541675 0
M  V30 13873 C 1335.94 1.09951 -3.31228 0
M  V30 13874 C 1337.29 1.49776 -3.97306 0
M  V30 13875 O 1338.31 1.19293 -3.3563 0
M  V30 13876 O 1337.17 2.06511 -5.0598 0
M  V30 13877 H 1334.26 0.345131 -0.751541 0
M  V30 13878 H 1336.81 -0.0398687 -1.69653 0
M  V30 13879 H 1335.58 0.240514 -3.9056 0
M  V30 13880 H 1335.21 1.90447 -3.49021 0
M  V30 13881 N 1336.2 1.55448 0.259558 0
M  V30 13882 C 1337.43 1.81063 1.01148 0
M  V30 13883 C 1337.85 0.58875 1.78649 0
M  V30 13884 O 1337.21 -0.461971 1.75315 0
M  V30 13885 C 1337.26 3.04279 1.93512 0
M  V30 13886 O 1336.36 2.80307 3.02493 0
M  V30 13887 H 1335.7 0.598056 0.288487 0
M  V30 13888 H 1338.23 2.02614 0.284387 0
M  V30 13889 H 1338.24 3.33373 2.35215 0
M  V30 13890 H 1336.92 3.92856 1.36518 0
M  V30 13891 H 1335.5 2.62345 2.65008 0
M  V30 13892 N 1337.68 -0.524672 1.4861 0
M  V30 13893 C 1338.96 -1.28592 1.47389 0
M  V30 13894 C 1339.34 -2.10257 0.188482 0
M  V30 13895 O 1338.69 -2.12905 -0.829689 0
M  V30 13896 C 1338.9 -2.16284 2.73902 0
M  V30 13897 C 1340.24 -2.7625 3.22445 0
M  V30 13898 O 1341.27 -2.26567 2.74856 0
M  V30 13899 O 1340.13 -3.66635 4.05267 0
M  V30 13900 H 1337.22 -0.580666 0.58886 0
M  V30 13901 H 1339.77 -0.540888 1.60849 0
M  V30 13902 H 1338.54 -1.55757 3.58964 0
M  V30 13903 H 1338.16 -2.98024 2.63188 0
M  V30 13904 N 1339.16 -1.37287 -0.77395 0
M  V30 13905 C 1340.09 -1.35569 -1.90114 0
M  V30 13906 C 1341.07 -0.224658 -1.6861 0
M  V30 13907 O 1342.25 -0.424676 -1.895 0
M  V30 13908 C 1339.38 -1.15971 -3.27365 0
M  V30 13909 C 1338.34 -2.26063 -3.63427 0
M  V30 13910 C 1337.66 -1.9159 -4.99197 0
M  V30 13911 C 1338.96 -3.68236 -3.70405 0
M  V30 13912 H 1340.66 -2.29891 -1.91808 0
M  V30 13913 H 1338.2 -1.10661 -0.92142 0
M  V30 13914 H 1340.16 -1.134 -4.05855 0
M  V30 13915 H 1338.88 -0.181043 -3.26098 0
M  V30 13916 H 1337.54 -2.27786 -2.87244 0
M  V30 13917 H 1337.19 -0.922586 -4.94467 0
M  V30 13918 H 1336.89 -2.65309 -5.24294 0
M  V30 13919 H 1338.41 -1.90602 -5.80089 0
M  V30 13920 H 1339.83 -3.68655 -4.39052 0
M  V30 13921 H 1338.22 -4.4099 -4.06999 0
M  V30 13922 H 1339.29 -4.02021 -2.71122 0
M  V30 13923 N 1340.64 0.999871 -1.21821 0
M  V30 13924 C 1341.57 2.10708 -1.00621 0
M  V30 13925 C 1342.55 1.69954 0.0705417 0
M  V30 13926 O 1343.73 1.9399 -0.0903042 0
M  V30 13927 C 1340.86 3.42496 -0.575646 0
M  V30 13928 C 1339.82 3.97068 -1.59754 0
M  V30 13929 C 1339.14 5.24822 -1.02304 0
M  V30 13930 C 1340.44 4.28545 -2.98574 0
M  V30 13931 H 1342.14 2.28701 -1.93226 0
M  V30 13932 H 1339.68 1.09903 -0.930443 0
M  V30 13933 H 1341.64 4.19357 -0.414481 0
M  V30 13934 H 1340.36 3.2431 0.386059 0
M  V30 13935 H 1339.02 3.22332 -1.74636 0
M  V30 13936 H 1338.67 5.02972 -0.0529016 0
M  V30 13937 H 1338.37 5.62299 -1.70567 0
M  V30 13938 H 1339.89 6.04322 -0.873312 0
M  V30 13939 H 1341.3 4.96229 -2.87106 0
M  V30 13940 H 1339.7 4.77178 -3.63897 0
M  V30 13941 H 1340.77 3.36607 -3.49032 0
M  V30 13942 N 1342.11 1.02678 1.19562 0
M  V30 13943 C 1343.02 0.615738 2.26375 0
M  V30 13944 C 1344.04 -0.351525 1.70412 0
M  V30 13945 O 1345.22 -0.209932 2.00303 0
M  V30 13946 C 1342.28 -0.0292135 3.46688 0
M  V30 13947 C 1341.34 0.985284 4.1784 0
M  V30 13948 C 1340.58 0.371016 5.32409 0
M  V30 13949 O 1340.8 -0.826591 5.64379 0
M  V30 13950 O 1339.73 1.09282 5.91896 0
M  V30 13951 H 1343.56 1.50526 2.63772 0
M  V30 13952 H 1341.14 0.796847 1.26375 0
M  V30 13953 H 1343.03 -0.38893 4.19601 0
M  V30 13954 H 1341.7 -0.892778 3.11145 0
M  V30 13955 H 1340.61 1.39655 3.47055 0
M  V30 13956 H 1341.94 1.81915 4.57349 0
M  V30 13957 N 1343.59 -1.35528 0.804364 0
M  V30 13958 C 1344.87 -1.93175 0.307049 0
M  V30 13959 C 1345.25 -1.73466 -1.20303 0
M  V30 13960 O 1344.6 -1.10235 -2.00151 0
M  V30 13961 C 1344.81 -3.41576 0.716018 0
M  V30 13962 C 1346.16 -4.18719 0.704242 0
M  V30 13963 O 1347.18 -3.50081 0.657423 0
M  V30 13964 O 1346.04 -5.41181 0.760601 0
M  V30 13965 H 1343.13 -0.823142 0.0797888 0
M  V30 13966 H 1345.68 -1.44617 0.887912 0
M  V30 13967 H 1344.45 -3.49642 1.75688 0
M  V30 13968 H 1344.07 -3.97448 0.109843 0
M  V30 13969 N 1345.07 -0.557671 -1.47404 0
M  V30 13970 C 1346.02 0.202834 -2.31714 0
M  V30 13971 C 1347.01 0.908873 -1.42954 0
M  V30 13972 O 1348.22 0.830106 -1.59716 0
M  V30 13973 H 1344.59 0.0842824 -0.747262 0
M  V30 13974 H 1346.57 -0.527431 -2.93702 0
M  V30 13975 C 1345.31 1.21937 -3.25617 0
M  V30 13976 H 1344.64 0.685506 -3.93879 0
M  V30 13977 H 1346.08 1.72237 -3.87441 0
M  V30 13978 C 1344.54 2.26748 -2.49173 0
M  V30 13979 O 1345.07 3.33681 -2.23651 0
M  V30 13980 N 1343.27 2.00687 -2.10174 0
M  V30 13981 H 1342.82 1.13741 -2.3113 0
M  V30 13982 H 1342.78 2.71031 -1.59342 0
M  V30 13983 N 1346.55 1.54831 -0.294147 0
M  V30 13984 C 1347.77 2.04873 0.32276 0
M  V30 13985 C 1348.2 1.17034 1.47257 0
M  V30 13986 O 1347.56 0.172949 1.80473 0
M  V30 13987 C 1347.61 3.52431 0.76319 0
M  V30 13988 O 1346.71 3.67635 1.86865 0
M  V30 13989 H 1346.05 0.660926 0.0638162 0
M  V30 13990 H 1348.58 1.99944 -0.433995 0
M  V30 13991 H 1348.59 3.94155 1.05385 0
M  V30 13992 H 1347.27 4.15827 -0.0779464 0
M  V30 13993 H 1345.84 3.37816 1.57907 0
M  V30 13994 N 1348.03 0.0217466 1.57585 0
M  V30 13995 C 1348.99 -0.947546 2.08696 0
M  V30 13996 C 1349.99 -1.25879 1.00055 0
M  V30 13997 O 1351.18 -1.20035 1.26242 0
M  V30 13998 C 1348.31 -2.26624 2.54665 0
M  V30 13999 H 1349.51 -0.505016 2.95617 0
M  V30 14000 H 1347.06 -0.226152 1.54655 0
M  V30 14001 H 1347.79 -2.75521 1.71052 0
M  V30 14002 H 1347.58 -2.05347 3.34028 0
M  V30 14003 H 1349.07 -2.96114 2.94459 0
M  V30 14004 N 1349.51 -1.55583 -0.251311 0
M  V30 14005 C 1350.73 -1.81259 -0.997636 0
M  V30 14006 C 1351.15 -0.596861 -1.79117 0
M  V30 14007 O 1350.51 0.434425 -1.77254 0
M  V30 14008 C 1350.56 -3.05097 -1.93902 0
M  V30 14009 O 1350.28 -4.21976 -1.1776 0
M  V30 14010 C 1351.78 -3.4354 -2.8017 0
M  V30 14011 H 1349 -0.603279 -0.29376 0
M  V30 14012 H 1351.54 -2.02635 -0.27553 0
M  V30 14013 H 1349.7 -2.85784 -2.61546 0
M  V30 14014 H 1350.11 -4.92133 -1.81398 0
M  V30 14015 H 1351.59 -4.33305 -3.41981 0
M  V30 14016 H 1352.06 -2.63924 -3.51057 0
M  V30 14017 H 1352.67 -3.65189 -2.17985 0
M  V30 14018 N 1350.98 0.516783 -1.48886 0
M  V30 14019 C 1352.21 1.29628 -1.61258 0
M  V30 14020 C 1352.63 1.86744 -0.27786 0
M  V30 14021 O 1351.98 1.67061 0.734639 0
M  V30 14022 C 1352.03 2.43779 -2.66935 0
M  V30 14023 O 1351.76 1.89014 -3.95228 0
M  V30 14024 C 1353.26 3.35398 -2.89867 0
M  V30 14025 H 1350.48 0.393736 -0.543335 0
M  V30 14026 H 1353.02 0.622069 -1.94809 0
M  V30 14027 H 1351.18 3.0706 -2.36206 0
M  V30 14028 H 1351.59 2.63833 -4.53312 0
M  V30 14029 H 1353.06 4.11812 -3.6758 0
M  V30 14030 H 1353.54 3.91436 -1.99185 0
M  V30 14031 H 1354.15 2.77898 -3.21952 0
M  V30 14032 N 1352.46 1.37696 0.766659 0
M  V30 14033 C 1353.71 1.32507 1.52069 0
M  V30 14034 C 1354.02 -0.0864967 1.95409 0
M  V30 14035 O 1355.23 -0.260877 2.70244 0
M  V30 14036 C 1353.69 2.32614 2.74625 0
M  V30 14037 C 1353.29 3.79325 2.38363 0
M  V30 14038 C 1355.04 2.36445 3.52554 0
M  V30 14039 C 1352.94 4.7115 3.57451 0
M  V30 14040 H 1351.87 0.492491 0.570937 0
M  V30 14041 H 1354.53 1.63183 0.839268 0
M  V30 14042 H 1352.91 1.94963 3.44682 0
M  V30 14043 H 1354.08 4.25841 1.76056 0
M  V30 14044 H 1352.4 3.78488 1.73597 0
M  V30 14045 H 1354.99 3.02252 4.41076 0
M  V30 14046 H 1355.34 1.37953 3.92778 0
M  V30 14047 H 1355.87 2.72829 2.89498 0
M  V30 14048 H 1352.61 5.70789 3.22304 0
M  V30 14049 H 1352.13 4.29335 4.18846 0
M  V30 14050 H 1353.81 4.88532 4.242 0
M  V30 14051 N 1353.94 -0.993397 1.22349 0
M  V30 14052 C 1355.19 -1.72707 1.04189 0
M  V30 14053 C 1355.5 -1.90963 -0.423381 0
M  V30 14054 O 1356.71 -2.61651 -0.724645 0
M  V30 14055 C 1355.16 -3.10739 1.81575 0
M  V30 14056 C 1354.77 -3.00415 3.32347 0
M  V30 14057 C 1356.52 -3.88155 1.71861 0
M  V30 14058 C 1354.42 -4.33598 4.02177 0
M  V30 14059 H 1353.35 -0.647556 0.386248 0
M  V30 14060 H 1356 -1.10902 1.46195 0
M  V30 14061 H 1354.39 -3.73222 1.32367 0
M  V30 14062 H 1355.56 -2.47099 3.88946 0
M  V30 14063 H 1353.87 -2.36482 3.42732 0
M  V30 14064 H 1356.47 -4.8673 2.21354 0
M  V30 14065 H 1356.81 -4.10726 0.678939 0
M  V30 14066 H 1357.35 -3.32347 2.18609 0
M  V30 14067 H 1354.09 -4.16226 5.06395 0
M  V30 14068 H 1353.61 -4.86829 3.50367 0
M  V30 14069 H 1355.29 -5.02348 4.07744 0
M  V30 14070 N 1355.42 -1.03311 -1.19015 0
M  V30 14071 C 1356.83 -0.761079 -1.70483 0
M  V30 14072 C 1357.18 0.718851 -1.82557 0
M  V30 14073 O 1356.3 1.56006 -1.4997 0
M  V30 14074 C 1356.9 -1.37492 -3.09647 0
M  V30 14075 C 1355.46 -1.15138 -3.58358 0
M  V30 14076 C 1354.61 -1.47034 -2.35109 0
M  V30 14077 H 1357.56 -1.2005 -1.03797 0
M  V30 14078 H 1357.58 -0.774115 -3.72542 0
M  V30 14079 H 1357.09 -2.45203 -3.00828 0
M  V30 14080 H 1355.19 -0.0926822 -3.72485 0
M  V30 14081 H 1355.3 -1.84307 -4.4223 0
M  V30 14082 H 1353.67 -0.889794 -2.38652 0
M  V30 14083 H 1354.45 -2.55837 -2.28916 0
M  V30 14084 N 1356.9 1.35099 -0.81154 0
M  V30 14085 C 1358.14 1.9788 -0.390695 0
M  V30 14086 C 1358.46 1.6509 1.04903 0
M  V30 14087 O 1359.66 2.21273 1.57324 0
M  V30 14088 C 1358.12 3.54025 -0.647632 0
M  V30 14089 C 1357.73 3.9572 -2.10023 0
M  V30 14090 C 1359.47 4.23492 -0.29239 0
M  V30 14091 C 1357.38 5.44731 -2.30266 0
M  V30 14092 H 1356.31 0.740441 -0.14235 0
M  V30 14093 H 1358.96 1.54098 -0.996294 0
M  V30 14094 H 1357.34 3.9599 0.0279838 0
M  V30 14095 H 1358.52 3.64893 -2.81407 0
M  V30 14096 H 1356.83 3.39157 -2.41581 0
M  V30 14097 H 1359.43 5.33035 -0.421618 0
M  V30 14098 H 1359.77 4.09268 0.76195 0
M  V30 14099 H 1360.3 3.86965 -0.922122 0
M  V30 14100 H 1357.04 5.63928 -3.34163 0
M  V30 14101 H 1356.56 5.7711 -1.63413 0
M  V30 14102 H 1358.24 6.1126 -2.12062 0
M  V30 14103 N 1358.37 0.56548 1.47106 0
M  V30 14104 C 1359.3 -0.16567 2.32912 0
M  V30 14105 C 1360.28 -0.900678 1.44298 0
M  V30 14106 O 1361.47 -0.879523 1.73142 0
M  V30 14107 C 1358.6 -1.19092 3.26243 0
M  V30 14108 C 1357.55 -0.571849 4.24163 0
M  V30 14109 C 1356.88 -1.70233 5.06878 0
M  V30 14110 C 1358.18 0.479785 5.20092 0
M  V30 14111 H 1359.87 0.550705 2.94292 0
M  V30 14112 H 1357.42 0.266284 1.41517 0
M  V30 14113 H 1359.37 -1.71064 3.85117 0
M  V30 14114 H 1358.1 -1.93734 2.62934 0
M  V30 14115 H 1356.76 -0.073353 3.66527 0
M  V30 14116 H 1356.4 -2.438 4.39967 0
M  V30 14117 H 1356.1 -1.29384 5.73178 0
M  V30 14118 H 1357.63 -2.22515 5.68612 0
M  V30 14119 H 1359.04 0.0458042 5.73282 0
M  V30 14120 H 1357.44 0.807615 5.94641 0
M  V30 14121 H 1358.51 1.37259 4.65068 0
M  V30 14122 N 1359.85 -1.54672 0.302354 0
M  V30 14123 C 1361.08 -2.04282 -0.308645 0
M  V30 14124 C 1361.49 -1.17912 -1.47965 0
M  V30 14125 O 1360.83 -0.197723 -1.82633 0
M  V30 14126 C 1360.9 -3.49872 -0.826417 0
M  V30 14127 C 1360.56 -4.56473 0.219486 0
M  V30 14128 C 1361.56 -5.0922 1.0484 0
M  V30 14129 C 1359.24 -5.00997 0.361574 0
M  V30 14130 C 1361.24 -6.05033 2.00533 0
M  V30 14131 C 1358.92 -5.9663 1.32195 0
M  V30 14132 C 1359.92 -6.48532 2.1423 0
M  V30 14133 O 1359.61 -7.42292 3.08639 0
M  V30 14134 H 1359.34 -0.67228 -0.0708187 0
M  V30 14135 H 1361.89 -2.00625 0.440314 0
M  V30 14136 H 1360.12 -3.50857 -1.62593 0
M  V30 14137 H 1361.81 -3.8267 -1.35345 0
M  V30 14138 H 1362.58 -4.75615 0.949501 0
M  V30 14139 H 1358.46 -4.60226 -0.267018 0
M  V30 14140 H 1362 -6.45469 2.64604 0
M  V30 14141 H 1357.9 -6.29652 1.42156 0
M  V30 14142 H 1358.67 -7.60098 3.03633 0
M  V30 14143 N 1361.33 -0.0301034 -1.57571 0
M  V30 14144 C 1362.74 0.508591 -1.79639 0
M  V30 14145 C 1363.09 1.72191 -0.940458 0
M  V30 14146 O 1362.22 2.15872 -0.151138 0
M  V30 14147 C 1362.81 0.929446 -3.25802 0
M  V30 14148 C 1361.37 1.41325 -3.48861 0
M  V30 14149 C 1360.52 0.378433 -2.74706 0
M  V30 14150 H 1363.47 -0.256131 -1.56619 0
M  V30 14151 H 1363.49 1.79374 -3.35567 0
M  V30 14152 H 1363 0.0461738 -3.88073 0
M  V30 14153 H 1361.1 2.31641 -2.91844 0
M  V30 14154 H 1361.22 1.41995 -4.57574 0
M  V30 14155 H 1359.58 0.846744 -2.40213 0
M  V30 14156 H 1360.36 -0.49639 -3.39692 0
M  V30 14157 N 1362.81 1.55714 0.243056 0
M  V30 14158 C 1364.06 1.76927 0.96849 0
M  V30 14159 C 1364.37 0.594748 1.86339 0
M  V30 14160 O 1365.58 0.689981 2.62586 0
M  V30 14161 C 1364.03 3.13246 1.77214 0
M  V30 14162 C 1363.64 4.38358 0.92444 0
M  V30 14163 C 1365.38 3.43796 2.49007 0
M  V30 14164 C 1363.29 5.65708 1.7242 0
M  V30 14165 H 1362.22 0.659574 0.365346 0
M  V30 14166 H 1364.87 1.8214 0.223026 0
M  V30 14167 H 1363.25 3.02151 2.5597 0
M  V30 14168 H 1364.43 4.60452 0.178936 0
M  V30 14169 H 1362.74 4.15171 0.319653 0
M  V30 14170 H 1365.34 4.3616 3.09303 0
M  V30 14171 H 1365.68 2.65297 3.20817 0
M  V30 14172 H 1366.22 3.56124 1.77259 0
M  V30 14173 H 1362.96 6.47039 1.04978 0
M  V30 14174 H 1362.48 5.4771 2.44488 0
M  V30 14175 H 1364.15 6.05105 2.29036 0
M  V30 14176 N 1364.29 -0.50888 1.49158 0
M  V30 14177 C 1365.23 -1.63216 1.6572 0
M  V30 14178 C 1366.23 -1.61117 0.523236 0
M  V30 14179 O 1367.43 -1.6572 0.702629 0
M  V30 14180 H 1363.81 -0.540909 0.522419 0
M  V30 14181 H 1365.78 -1.46397 2.6002 0
M  V30 14182 C 1364.53 -3.01393 1.73372 0
M  V30 14183 H 1363.85 -3.03711 2.6 0
M  V30 14184 H 1365.29 -3.79547 1.88998 0
M  V30 14185 C 1363.75 -3.33509 0.47683 0
M  V30 14186 O 1364.28 -3.99694 -0.400986 0
M  V30 14187 N 1362.49 -2.88579 0.342145 0
M  V30 14188 H 1362.03 -2.34894 1.05747 0
M  V30 14189 H 1361.99 -3.10435 -0.497757 0
M  V30 14190 N 1365.76 -1.381 -0.759346 0
M  V30 14191 C 1367.01 -1.33311 -1.51364 0
M  V30 14192 C 1367.33 0.0761325 -1.95452 0
M  V30 14193 O 1368.53 0.246541 -2.70378 0
M  V30 14194 C 1366.99 -2.34067 -2.73387 0
M  V30 14195 C 1366.6 -3.80583 -2.36348 0
M  V30 14196 C 1368.34 -2.38311 -3.51295 0
M  V30 14197 C 1366.25 -4.73039 -3.54948 0
M  V30 14198 H 1365.18 -0.495512 -0.568317 0
M  V30 14199 H 1367.83 -1.63625 -0.830602 0
M  V30 14200 H 1366.21 -1.96788 -3.43643 0
M  V30 14201 H 1367.38 -4.26769 -1.73796 0
M  V30 14202 H 1365.7 -3.79403 -1.71587 0
M  V30 14203 H 1368.3 -3.04586 -4.39467 0
M  V30 14204 H 1368.64 -1.40034 -3.92041 0
M  V30 14205 H 1369.17 -2.74361 -2.88047 0
M  V30 14206 H 1365.91 -5.7249 -3.19273 0
M  V30 14207 H 1365.43 -4.3155 -4.16563 0
M  V30 14208 H 1367.11 -4.90775 -4.21603 0
M  V30 14209 N 1367.24 0.986894 -1.22875 0
M  V30 14210 C 1368.17 2.09628 -1.0285 0
M  V30 14211 C 1369.15 1.70019 0.0525118 0
M  V30 14212 O 1370.34 1.93883 -0.110874 0
M  V30 14213 C 1367.47 3.41866 -0.61194 0
M  V30 14214 C 1366.42 3.95351 -1.63956 0
M  V30 14215 C 1365.75 5.23707 -1.07865 0
M  V30 14216 C 1367.05 4.25354 -3.03102 0
M  V30 14217 H 1368.74 2.26639 -1.95641 0
M  V30 14218 H 1366.29 1.0891 -0.942048 0
M  V30 14219 H 1368.24 4.18893 -0.458936 0
M  V30 14220 H 1366.97 3.24701 0.35164 0
M  V30 14221 H 1365.62 3.20462 -1.78045 0
M  V30 14222 H 1365.27 5.02888 -0.106246 0
M  V30 14223 H 1364.97 5.60459 -1.76522 0
M  V30 14224 H 1366.5 6.03362 -0.937359 0
M  V30 14225 H 1367.91 4.93156 -2.92353 0
M  V30 14226 H 1366.31 4.73292 -3.68938 0
M  V30 14227 H 1367.38 3.32887 -3.52583 0
M  V30 14228 N 1368.72 1.0394 1.18466 0
M  V30 14229 C 1369.97 0.737233 1.87744 0
M  V30 14230 C 1370.28 -0.737891 1.81148 0
M  V30 14231 O 1371.49 -1.15353 2.45776 0
M  V30 14232 C 1369.94 1.26844 3.36806 0
M  V30 14233 C 1369.55 2.7721 3.51935 0
M  V30 14234 C 1371.3 1.04274 4.11494 0
M  V30 14235 C 1369.2 3.23696 4.9495 0
M  V30 14236 H 1368.13 0.272082 0.703198 0
M  V30 14237 H 1370.78 1.25507 1.33866 0
M  V30 14238 H 1369.17 0.67847 3.90145 0
M  V30 14239 H 1370.34 3.41954 3.08875 0
M  V30 14240 H 1368.66 2.98179 2.90652 0
M  V30 14241 H 1371.25 1.3652 5.16978 0
M  V30 14242 H 1371.6 -0.0200645 4.16295 0
M  V30 14243 H 1372.13 1.59726 3.64325 0
M  V30 14244 H 1368.87 4.29351 4.95316 0
M  V30 14245 H 1368.39 2.63687 5.38729 0
M  V30 14246 H 1370.07 3.17645 5.63658 0
M  V30 14247 N 1370.2 -1.34667 0.818693 0
M  V30 14248 C 1371.13 -2.28368 0.195126 0
M  V30 14249 C 1372.14 -1.50836 -0.612562 0
M  V30 14250 O 1373.33 -1.72917 -0.442936 0
M  V30 14251 C 1370.43 -3.30601 -0.745411 0
M  V30 14252 C 1369.61 -4.37396 0.0185308 0
M  V30 14253 C 1368.66 -5.19415 -0.842298 0
M  V30 14254 O 1367.69 -5.68467 -0.288821 0
M  V30 14255 N 1368.89 -5.38709 -2.1627 0
M  V30 14256 H 1371.66 -2.8252 1.00013 0
M  V30 14257 H 1369.22 -1.47146 0.675262 0
M  V30 14258 H 1371.21 -3.82367 -1.3258 0
M  V30 14259 H 1369.78 -2.76875 -1.45118 0
M  V30 14260 H 1369 -3.86402 0.780205 0
M  V30 14261 H 1370.29 -5.05877 0.544575 0
M  V30 14262 H 1369.69 -5.00523 -2.63616 0
M  V30 14263 H 1368.24 -5.9361 -2.69204 0
M  V30 14264 N 1371.68 -0.573274 -1.46804 0
M  V30 14265 C 1372.95 0.011163 -1.95597 0
M  V30 14266 C 1373.33 1.4691 -1.51594 0
M  V30 14267 O 1372.68 2.15413 -0.76221 0
M  V30 14268 C 1372.89 -0.151045 -3.48673 0
M  V30 14269 C 1374.24 -0.0139817 -4.24598 0
M  V30 14270 O 1375.26 -0.0794008 -3.56111 0
M  V30 14271 O 1374.12 0.129547 -5.46346 0
M  V30 14272 H 1371.22 0.0551258 -0.825161 0
M  V30 14273 H 1373.76 -0.640928 -1.57131 0
M  V30 14274 H 1372.53 -1.16494 -3.73557 0
M  V30 14275 H 1372.16 0.537917 -3.93944 0
M  V30 14276 N 1373.15 1.5451 -0.310553 0
M  V30 14277 C 1374.09 2.2134 0.595098 0
M  V30 14278 C 1375.1 1.20917 1.09009 0
M  V30 14279 O 1376.29 1.47458 1.0059 0
M  V30 14280 C 1373.39 2.85384 1.82782 0
M  V30 14281 C 1372.56 4.11826 1.47372 0
M  V30 14282 C 1371.62 4.59584 2.56259 0
M  V30 14283 O 1370.65 5.24567 2.20949 0
M  V30 14284 N 1371.85 4.32709 3.86967 0
M  V30 14285 H 1374.61 2.99691 0.0229291 0
M  V30 14286 H 1372.17 1.61351 -0.133173 0
M  V30 14287 H 1374.17 3.14263 2.54992 0
M  V30 14288 H 1372.74 2.10816 2.30815 0
M  V30 14289 H 1371.96 3.89853 0.583826 0
M  V30 14290 H 1373.24 4.94138 1.21265 0
M  V30 14291 H 1372.64 3.80669 4.18458 0
M  V30 14292 H 1371.2 4.66275 4.55446 0
M  V30 14293 N 1374.63 0.0384594 1.57553 0
M  V30 14294 C 1375.54 -0.955737 2.14249 0
M  V30 14295 C 1376.56 -1.35056 1.09708 0
M  V30 14296 O 1377.74 -1.43008 1.41812 0
M  V30 14297 C 1374.8 -2.21647 2.66596 0
M  V30 14298 C 1373.86 -1.88119 3.85888 0
M  V30 14299 C 1373.09 -3.08182 4.35729 0
M  V30 14300 O 1373.32 -4.21145 3.84699 0
M  V30 14301 O 1372.25 -2.89936 5.27467 0
M  V30 14302 H 1376.08 -0.50361 2.99495 0
M  V30 14303 H 1373.66 -0.182698 1.48279 0
M  V30 14304 H 1375.54 -2.9564 3.00291 0
M  V30 14305 H 1374.22 -2.66022 1.84428 0
M  V30 14306 H 1373.13 -1.11481 3.57103 0
M  V30 14307 H 1374.46 -1.48553 4.69247 0
M  V30 14308 N 1376.11 -1.55841 -0.234795 0
M  V30 14309 C 1377.39 -1.69008 -0.984665 0
M  V30 14310 C 1377.77 -0.581882 -2.02922 0
M  V30 14311 O 1377.12 0.412998 -2.24737 0
M  V30 14312 C 1377.33 -3.09796 -1.60708 0
M  V30 14313 C 1378.67 -3.68784 -2.10436 0
M  V30 14314 O 1379.7 -3.12674 -1.70627 0
M  V30 14315 O 1378.56 -4.67175 -2.83567 0
M  V30 14316 H 1375.65 -0.68786 -0.459105 0
M  V30 14317 H 1378.2 -1.68166 -0.227623 0
M  V30 14318 H 1376.97 -3.81908 -0.852169 0
M  V30 14319 H 1376.59 -3.147 -2.43001 0
M  V30 14320 N 1377.59 0.500963 -1.49426 0
M  V30 14321 C 1378.81 1.28383 -1.62888 0
M  V30 14322 C 1379.24 1.85688 -0.300262 0
M  V30 14323 O 1378.6 1.6586 0.73212 0
M  V30 14324 C 1378.65 2.38987 -2.70033 0
M  V30 14325 O 1377.75 3.42837 -2.29208 0
M  V30 14326 H 1377.09 0.379012 -0.545202 0
M  V30 14327 H 1379.62 0.59971 -1.95613 0
M  V30 14328 H 1379.63 2.84749 -2.92202 0
M  V30 14329 H 1378.31 1.96643 -3.66475 0
M  V30 14330 H 1376.88 3.02993 -2.1737 0
M  V30 14331 N 1379.07 1.38501 0.752011 0
M  V30 14332 C 1380.3 1.38032 1.54125 0
M  V30 14333 C 1380.71 -0.0295066 1.88777 0
M  V30 14334 O 1380.07 -0.996522 1.52891 0
M  V30 14335 C 1380.12 2.23741 2.83941 0
M  V30 14336 O 1379.84 3.59232 2.50767 0
M  V30 14337 C 1381.34 2.31469 3.7807 0
M  V30 14338 H 1378.56 0.472077 0.476848 0
M  V30 14339 H 1381.1 1.82101 0.930572 0
M  V30 14340 H 1379.26 1.8313 3.41383 0
M  V30 14341 H 1379.67 4.04376 3.34036 0
M  V30 14342 H 1381.15 2.95722 4.66103 0
M  V30 14343 H 1381.62 1.32882 4.18616 0
M  V30 14344 H 1382.23 2.72477 3.26552 0
M  V30 14345 N 1380.55 -0.980364 1.23396 0
M  V30 14346 C 1381.48 -2.0908 1.0396 0
M  V30 14347 C 1382.46 -1.70044 -0.0434946 0
M  V30 14348 O 1383.64 -1.93822 0.121155 0
M  V30 14349 C 1380.77 -3.41537 0.630061 0
M  V30 14350 C 1379.73 -3.94476 1.66051 0
M  V30 14351 C 1379.05 -5.23128 1.10641 0
M  V30 14352 C 1380.35 -4.23741 3.05354 0
M  V30 14353 H 1382.05 -2.25598 1.9684 0
M  V30 14354 H 1379.59 -1.08409 0.94781 0
M  V30 14355 H 1381.54 -4.18644 0.481145 0
M  V30 14356 H 1380.27 -3.24883 -0.334416 0
M  V30 14357 H 1378.93 -3.19513 1.79742 0
M  V30 14358 H 1378.58 -5.02824 0.132913 0
M  V30 14359 H 1378.28 -5.59515 1.79492 0
M  V30 14360 H 1379.8 -6.02857 0.969344 0
M  V30 14361 H 1381.21 -4.91598 2.94964 0
M  V30 14362 H 1379.61 -4.71329 3.71442 0
M  V30 14363 H 1380.68 -3.31012 3.54343 0
M  V30 14364 N 1382.02 -1.04567 -1.17913 0
M  V30 14365 C 1383.25 -0.771084 -1.91671 0
M  V30 14366 C 1383.66 0.676261 -1.76701 0
M  V30 14367 O 1383 1.47314 -1.09746 0
M  V30 14368 C 1383.07 -1.06406 -3.43392 0
M  V30 14369 C 1382.73 -2.50632 -3.82142 0
M  V30 14370 C 1383.73 -3.48825 -3.85509 0
M  V30 14371 C 1381.41 -2.85476 -4.1329 0
M  V30 14372 C 1383.41 -4.79909 -4.19483 0
M  V30 14373 C 1381.09 -4.16766 -4.46934 0
M  V30 14374 C 1382.09 -5.13793 -4.50007 0
M  V30 14375 O 1381.78 -6.42728 -4.82862 0
M  V30 14376 H 1381.51 -0.280258 -0.615168 0
M  V30 14377 H 1384.07 -1.39781 -1.50501 0
M  V30 14378 H 1382.3 -0.380221 -3.84826 0
M  V30 14379 H 1383.98 -0.776475 -3.98404 0
M  V30 14380 H 1384.75 -3.23245 -3.61577 0
M  V30 14381 H 1380.63 -2.10621 -4.10073 0
M  V30 14382 H 1384.17 -5.55638 -4.21796 0
M  V30 14383 H 1380.07 -4.42111 -4.70328 0
M  V30 14384 H 1380.84 -6.47454 -5.00744 0
M  V30 14385 N 1383.5 1.34231 -0.825823 0
M  V30 14386 C 1384.75 1.9849 -0.415891 0
M  V30 14387 C 1385.08 1.6531 1.01913 0
M  V30 14388 O 1384.36 0.926223 1.7103 0
M  V30 14389 C 1384.64 3.54691 -0.621785 0
M  V30 14390 C 1384.49 3.97603 -2.10313 0
M  V30 14391 C 1385.81 4.4006 -0.0595871 0
M  V30 14392 H 1382.93 0.721032 -0.152582 0
M  V30 14393 H 1385.57 1.5908 -1.03892 0
M  V30 14394 H 1383.72 3.88392 -0.0914439 0
M  V30 14395 H 1385.39 3.74221 -2.69733 0
M  V30 14396 H 1383.64 3.47809 -2.59251 0
M  V30 14397 H 1384.31 5.06352 -2.19799 0
M  V30 14398 H 1386.78 4.12929 -0.512743 0
M  V30 14399 H 1385.66 5.48403 -0.233431 0
M  V30 14400 H 1385.92 4.29798 1.03568 0
M  V30 14401 N 1384.98 0.581051 1.46498 0
M  V30 14402 C 1386.2 0.0696654 2.07283 0
M  V30 14403 C 1386.63 -1.22525 1.42721 0
M  V30 14404 O 1385.99 -1.73967 0.510421 0
M  V30 14405 C 1386.04 -0.0843864 3.60501 0
M  V30 14406 O 1385.14 -1.14129 3.96293 0
M  V30 14407 H 1384.48 0.0620572 0.661094 0
M  V30 14408 H 1387.01 0.803522 1.88161 0
M  V30 14409 H 1387.02 -0.29108 4.0696 0
M  V30 14410 H 1385.7 0.861274 4.06884 0
M  V30 14411 H 1384.27 -0.913186 3.61546 0
M  V30 14412 N 1386.46 -1.54343 0.318742 0
M  V30 14413 C 1387.7 -2.0048 -0.285276 0
M  V30 14414 C 1388.03 -1.20698 -1.5252 0
M  V30 14415 O 1387.29 -0.275893 -1.93746 0
M  V30 14416 C 1387.59 -3.51079 -0.669181 0
M  V30 14417 C 1387.25 -4.48433 0.471017 0
M  V30 14418 C 1385.91 -4.74771 0.783985 0
M  V30 14419 C 1388.27 -5.06304 1.23715 0
M  V30 14420 C 1385.59 -5.56239 1.86589 0
M  V30 14421 C 1387.95 -5.88951 2.30911 0
M  V30 14422 C 1386.61 -6.13592 2.62794 0
M  V30 14423 H 1385.88 -0.73361 -0.10439 0
M  V30 14424 H 1388.53 -1.86341 0.441521 0
M  V30 14425 H 1386.83 -3.62921 -1.47633 0
M  V30 14426 H 1388.53 -3.84216 -1.148 0
M  V30 14427 H 1385.12 -4.2805 0.217004 0
M  V30 14428 H 1389.3 -4.85943 1.00862 0
M  V30 14429 H 1384.56 -5.73563 2.11744 0
M  V30 14430 H 1388.73 -6.32814 2.90722 0
M  V30 14431 H 1386.36 -6.76508 3.46757 0
M  V30 14432 N 1387.94 -0.0468143 -1.5753 0
M  V30 14433 C 1389.16 0.637648 -1.96829 0
M  V30 14434 C 1389.58 1.64635 -0.924158 0
M  V30 14435 O 1388.94 1.82267 0.0921139 0
M  V30 14436 C 1388.99 1.32842 -3.36207 0
M  V30 14437 O 1388.71 0.360111 -4.36617 0
M  V30 14438 C 1390.21 2.10305 -3.90239 0
M  V30 14439 H 1387.43 0.174634 -0.647876 0
M  V30 14440 H 1389.97 -0.111824 -2.04194 0
M  V30 14441 H 1388.13 2.02915 -3.30006 0
M  V30 14442 H 1388.54 0.852661 -5.17523 0
M  V30 14443 H 1390.02 2.54065 -4.90056 0
M  V30 14444 H 1390.49 2.94942 -3.25432 0
M  V30 14445 H 1391.1 1.45152 -3.99764 0
M  V30 14446 N 1389.41 1.55964 0.226527 0
M  V30 14447 C 1390.83 1.68978 0.793936 0
M  V30 14448 C 1391.18 0.647938 1.85192 0
M  V30 14449 O 1390.3 -0.201907 2.15456 0
M  V30 14450 C 1390.9 3.06351 1.44687 0
M  V30 14451 C 1389.46 3.21237 1.96173 0
M  V30 14452 C 1388.6 2.64896 0.8201 0
M  V30 14453 H 1391.55 1.587 0.00195967 0
M  V30 14454 H 1391.57 3.01932 2.31554 0
M  V30 14455 H 1391.09 3.82156 0.676611 0
M  V30 14456 H 1389.19 2.50292 2.76016 0
M  V30 14457 H 1389.3 4.28394 2.14512 0
M  V30 14458 H 1387.66 2.23247 1.22609 0
M  V30 14459 H 1388.45 3.43243 0.0625967 0
M  V30 14460 N 1390.89 -0.493031 1.4969 0
M  V30 14461 C 1391.84 -1.59367 1.66945 0
M  V30 14462 C 1392.81 -1.58049 0.510842 0
M  V30 14463 O 1393.99 -1.75915 0.738822 0
M  V30 14464 C 1391.13 -2.97472 1.74941 0
M  V30 14465 C 1390.25 -3.08745 3.02159 0
M  V30 14466 C 1389.38 -4.37632 3.01085 0
M  V30 14467 C 1388.42 -4.42567 4.22849 0
M  V30 14468 N 1387.56 -5.62892 4.19639 0
M  V30 14469 H 1392.4 -1.4396 2.6092 0
M  V30 14470 H 1389.94 -0.700297 1.29361 0
M  V30 14471 H 1391.89 -3.7753 1.77558 0
M  V30 14472 H 1390.52 -3.11564 0.844252 0
M  V30 14473 H 1389.58 -2.217 3.09117 0
M  V30 14474 H 1390.89 -3.08251 3.92151 0
M  V30 14475 H 1390.04 -5.26018 3.02309 0
M  V30 14476 H 1388.78 -4.40702 2.08885 0
M  V30 14477 H 1387.79 -3.52581 4.21861 0
M  V30 14478 H 1389.01 -4.41205 5.1625 0
M  V30 14479 H 1386.96 -5.6679 3.30281 0
M  V30 14480 H 1386.87 -5.64048 5.03374 0
M  V30 14481 H 1388.14 -6.53464 4.24977 0
M  V30 14482 N 1392.37 -1.38898 -0.744656 0
M  V30 14483 C 1393.62 -1.35327 -1.50104 0
M  V30 14484 C 1393.94 0.0532788 -1.94927 0
M  V30 14485 O 1393.21 1.0027 -1.68294 0
M  V30 14486 H 1391.79 -0.49797 -0.556808 0
M  V30 14487 H 1394.45 -1.73667 -0.884625 0
M  V30 14488 H 1393.55 -2.00983 -2.38773 0
M  V30 14489 N 1393.85 0.973806 -1.23914 0
M  V30 14490 C 1395.26 1.53057 -1.06913 0
M  V30 14491 C 1395.61 1.92842 0.361423 0
M  V30 14492 O 1394.74 1.76716 1.24901 0
M  V30 14493 C 1395.33 2.78137 -1.93457 0
M  V30 14494 C 1393.89 3.3019 -1.80697 0
M  V30 14495 C 1393.04 2.03137 -1.88761 0
M  V30 14496 H 1395.99 0.792767 -1.37481 0
M  V30 14497 H 1396.01 3.5124 -1.46325 0
M  V30 14498 H 1395.52 2.49149 -2.97568 0
M  V30 14499 H 1393.62 3.64043 -0.793951 0
M  V30 14500 H 1393.73 3.99503 -2.64451 0
M  V30 14501 H 1392.1 2.17572 -1.32418 0
M  V30 14502 H 1392.88 1.76522 -2.9444 0
M  V30 14503 N 1395.33 1.05191 1.17357 0
M  V30 14504 C 1396.27 0.652868 2.21374 0
M  V30 14505 C 1397.24 -0.344974 1.62478 0
M  V30 14506 O 1398.43 -0.23639 1.8933 0
M  V30 14507 C 1395.57 0.0337737 3.45083 0
M  V30 14508 C 1394.68 1.08045 4.18271 0
M  V30 14509 C 1393.82 0.428673 5.29468 0
M  V30 14510 C 1392.86 1.45966 5.94441 0
M  V30 14511 N 1391.99 0.832042 6.97152 0
M  V30 14512 H 1396.83 1.54434 2.54861 0
M  V30 14513 H 1394.37 0.772365 1.25192 0
M  V30 14514 H 1396.33 -0.342607 4.15791 0
M  V30 14515 H 1394.96 -0.821159 3.12181 0
M  V30 14516 H 1394.01 1.57466 3.46278 0
M  V30 14517 H 1395.32 1.86305 4.62701 0
M  V30 14518 H 1394.48 -0.00129344 6.067 0
M  V30 14519 H 1393.21 -0.385919 4.86171 0
M  V30 14520 H 1392.22 1.89964 5.1594 0
M  V30 14521 H 1393.44 2.27615 6.39819 0
M  V30 14522 H 1391.39 0.0379612 6.55989 0
M  V30 14523 H 1391.31 1.55219 7.39894 0
M  V30 14524 H 1392.58 0.42685 7.7833 0
M  V30 14525 N 1396.8 -1.33791 0.83293 0
M  V30 14526 C 1398.05 -1.97233 0.422127 0
M  V30 14527 C 1398.37 -1.66738 -1.02264 0
M  V30 14528 O 1399.57 -2.23747 -1.53783 0
M  V30 14529 C 1398.03 -3.5295 0.703872 0
M  V30 14530 C 1397.64 -3.92329 2.16292 0
M  V30 14531 C 1399.38 -4.22973 0.359727 0
M  V30 14532 C 1397.29 -5.40999 2.38903 0
M  V30 14533 H 1396.22 -0.738082 0.154112 0
M  V30 14534 H 1398.87 -1.52494 1.02068 0
M  V30 14535 H 1397.25 -3.95985 0.0350184 0
M  V30 14536 H 1398.42 -3.6037 2.87176 0
M  V30 14537 H 1396.74 -3.35271 2.46947 0
M  V30 14538 H 1399.34 -5.32297 0.506366 0
M  V30 14539 H 1399.68 -4.10428 -0.696743 0
M  V30 14540 H 1400.21 -3.85449 0.983568 0
M  V30 14541 H 1396.95 -5.58541 3.43093 0
M  V30 14542 H 1396.47 -5.74438 1.72573 0
M  V30 14543 H 1398.15 -6.07809 2.2176 0
M  V30 14544 N 1398.28 -0.588812 -1.46187 0
M  V30 14545 C 1399.23 0.161973 -2.27424 0
M  V30 14546 C 1400.22 0.856178 -1.36229 0
M  V30 14547 O 1401.41 0.749266 -1.60359 0
M  V30 14548 C 1398.54 1.17104 -3.2271 0
M  V30 14549 C 1397.62 0.478637 -4.2139 0
M  V30 14550 N 1398.01 -0.46921 -5.03619 0
M  V30 14551 C 1396.31 0.728608 -4.40008 0
M  V30 14552 C 1397.01 -0.874455 -5.7509 0
M  V30 14553 N 1395.99 -0.222267 -5.43145 0
M  V30 14554 H 1399.79 -0.566306 -2.88392 0
M  V30 14555 H 1397.31 -0.41106 -1.57112 0
M  V30 14556 H 1399.3 1.72314 -3.79623 0
M  V30 14557 H 1397.96 1.90008 -2.63301 0
M  V30 14558 H 1398.97 -0.84504 -5.10959 0
M  V30 14559 H 1395.65 1.44375 -3.91742 0
M  V30 14560 H 1397.04 -1.65514 -6.51195 0
M  V30 14561 N 1399.76 1.54172 -0.326923 0
M  V30 14562 C 1400.69 2.21958 0.571588 0
M  V30 14563 C 1401.71 1.22067 1.0772 0
M  V30 14564 O 1402.89 1.48517 0.990202 0
M  V30 14565 C 1399.99 2.87307 1.79744 0
M  V30 14566 C 1399.17 4.13366 1.42995 0
M  V30 14567 C 1398.23 4.62276 2.5137 0
M  V30 14568 O 1397.25 5.2688 2.15373 0
M  V30 14569 N 1398.45 4.36789 3.82355 0
M  V30 14570 H 1401.22 2.99699 -0.00885848 0
M  V30 14571 H 1398.78 1.61201 -0.150279 0
M  V30 14572 H 1400.77 3.1695 2.51644 0
M  V30 14573 H 1399.34 2.13252 2.28566 0
M  V30 14574 H 1398.56 3.9045 0.542444 0
M  V30 14575 H 1399.85 4.95396 1.16017 0
M  V30 14576 H 1399.25 3.85086 4.14397 0
M  V30 14577 H 1397.81 4.71079 4.50475 0
M  V30 14578 N 1401.24 0.0551678 1.57503 0
M  V30 14579 C 1402.48 -0.618636 1.93134 0
M  V30 14580 C 1402.82 -1.70258 0.934125 0
M  V30 14581 O 1402.09 -1.9446 -0.0392699 0
M  V30 14582 C 1402.38 -1.21103 3.39126 0
M  V30 14583 C 1402.23 -0.134865 4.49598 0
M  V30 14584 C 1403.55 -2.12148 3.85592 0
M  V30 14585 H 1400.67 -0.223416 0.702321 0
M  V30 14586 H 1403.31 0.117748 1.89635 0
M  V30 14587 H 1401.46 -1.83862 3.42238 0
M  V30 14588 H 1403.13 0.497292 4.58612 0
M  V30 14589 H 1401.37 0.536587 4.30469 0
M  V30 14590 H 1402.04 -0.589447 5.48844 0
M  V30 14591 H 1404.52 -1.59346 3.8438 0
M  V30 14592 H 1403.4 -2.50539 4.88387 0
M  V30 14593 H 1403.66 -3.02318 3.22578 0
M  V30 14594 N 1402.72 -1.56081 -0.218252 0
M  V30 14595 C 1403.66 -1.92684 -1.27049 0
M  V30 14596 C 1404.63 -0.784441 -1.46409 0
M  V30 14597 O 1405.82 -1.04062 -1.59924 0
M  V30 14598 C 1402.96 -2.25174 -2.61516 0
M  V30 14599 C 1402.07 -3.52364 -2.49927 0
M  V30 14600 C 1401.21 -3.74286 -3.7694 0
M  V30 14601 C 1400.25 -4.94979 -3.60087 0
M  V30 14602 N 1399.38 -5.13273 -4.79057 0
M  V30 14603 H 1404.22 -2.82406 -0.951347 0
M  V30 14604 H 1401.76 -1.39774 -0.458441 0
M  V30 14605 H 1403.72 -2.42022 -3.39825 0
M  V30 14606 H 1402.35 -1.38621 -2.9152 0
M  V30 14607 H 1401.4 -3.43691 -1.63036 0
M  V30 14608 H 1402.71 -4.40826 -2.33397 0
M  V30 14609 H 1401.87 -3.91248 -4.63692 0
M  V30 14610 H 1400.6 -2.84111 -3.96399 0
M  V30 14611 H 1399.61 -4.77963 -2.71719 0
M  V30 14612 H 1400.83 -5.86641 -3.42095 0
M  V30 14613 H 1398.78 -4.26041 -4.98824 0
M  V30 14614 H 1398.7 -5.95873 -4.65265 0
M  V30 14615 H 1399.97 -5.34673 -5.67226 0
M  V30 14616 N 1404.2 0.485086 -1.49949 0
M  V30 14617 C 1405.15 1.58207 -1.64179 0
M  V30 14618 C 1406.13 1.53037 -0.496844 0
M  V30 14619 O 1407.32 1.60297 -0.750582 0
M  V30 14620 C 1404.45 2.96735 -1.72637 0
M  V30 14621 C 1403.54 3.06841 -2.92762 0
M  V30 14622 N 1403.93 2.86795 -4.16632 0
M  V30 14623 C 1402.23 3.37961 -2.91029 0
M  V30 14624 C 1402.93 3.01502 -4.97465 0
M  V30 14625 N 1401.9 3.31085 -4.31142 0
M  V30 14626 H 1405.7 1.41387 -2.57657 0
M  V30 14627 H 1403.22 0.691542 -1.4694 0
M  V30 14628 H 1405.22 3.75592 -1.80932 0
M  V30 14629 H 1403.88 3.14612 -0.803072 0
M  V30 14630 H 1404.89 2.62653 -4.46356 0
M  V30 14631 H 1401.56 3.61915 -2.08143 0
M  V30 14632 H 1402.95 2.90361 -6.05921 0
M  V30 14633 N 1405.67 1.39291 0.737279 0
M  V30 14634 C 1406.61 1.32216 1.85995 0
M  V30 14635 C 1407.58 0.19623 1.61412 0
M  V30 14636 O 1408.77 0.376297 1.84706 0
M  V30 14637 C 1405.9 1.0525 3.21932 0
M  V30 14638 C 1404.94 2.20002 3.65378 0
M  V30 14639 S 1405.77 3.82265 3.75011 0
M  V30 14640 C 1406.93 3.57519 5.13742 0
M  V30 14641 H 1407.16 2.27231 1.91712 0
M  V30 14642 H 1404.7 1.25319 0.901911 0
M  V30 14643 H 1406.65 0.903753 4.00428 0
M  V30 14644 H 1405.32 0.119258 3.13874 0
M  V30 14645 H 1404.51 1.9672 4.64023 0
M  V30 14646 H 1404.11 2.31068 2.94081 0
M  V30 14647 H 1406.4 3.14643 6.00005 0
M  V30 14648 H 1407.35 4.55616 5.42051 0
M  V30 14649 H 1407.75 2.9167 4.8331 0
M  V30 14650 N 1407.15 -0.967221 1.24429 0
M  V30 14651 C 1408.38 -1.74267 1.10972 0
M  V30 14652 C 1408.79 -1.8611 -0.340522 0
M  V30 14653 O 1408.13 -1.34915 -1.24674 0
M  V30 14654 C 1408.19 -3.18035 1.67613 0
M  V30 14655 C 1407.86 -3.29661 3.16501 0
M  V30 14656 C 1408.86 -3.14952 4.13644 0
M  V30 14657 C 1406.54 -3.53886 3.56469 0
M  V30 14658 C 1408.53 -3.24294 5.48737 0
M  V30 14659 C 1406.22 -3.62866 4.91703 0
M  V30 14660 C 1407.22 -3.48082 5.87646 0
M  V30 14661 O 1406.91 -3.56719 7.20421 0
M  V30 14662 H 1406.64 -0.553293 0.388384 0
M  V30 14663 H 1409.19 -1.22295 1.65025 0
M  V30 14664 H 1407.42 -3.71314 1.07994 0
M  V30 14665 H 1409.11 -3.7739 1.49438 0
M  V30 14666 H 1409.88 -2.9612 3.84107 0
M  V30 14667 H 1405.76 -3.64459 2.82295 0
M  V30 14668 H 1409.3 -3.12672 6.23604 0
M  V30 14669 H 1405.2 -3.81212 5.20911 0
M  V30 14670 H 1405.97 -3.73431 7.28349 0
M  V30 14671 N 1408.63 -1.05812 -1.16797 0
M  V30 14672 C 1409.56 -0.622584 -2.20582 0
M  V30 14673 C 1410.57 0.316905 -1.59686 0
M  V30 14674 O 1411.76 0.108657 -1.78169 0
M  V30 14675 C 1408.86 0.108124 -3.38727 0
M  V30 14676 C 1408.04 -0.84363 -4.29187 0
M  V30 14677 C 1407.1 -0.15305 -5.25977 0
M  V30 14678 O 1406.12 -0.78915 -5.63703 0
M  V30 14679 N 1407.32 1.10721 -5.69843 0
M  V30 14680 H 1410.09 -1.51532 -2.5857 0
M  V30 14681 H 1407.65 -0.940815 -1.31758 0
M  V30 14682 H 1409.64 0.580395 -4.00517 0
M  V30 14683 H 1408.21 0.902599 -2.99286 0
M  V30 14684 H 1407.43 -1.49538 -3.64735 0
M  V30 14685 H 1408.72 -1.48946 -4.86511 0
M  V30 14686 H 1408.12 1.64423 -5.41278 0
M  V30 14687 H 1406.67 1.52344 -6.33746 0
M  V30 14688 N 1410.11 1.33347 -0.840014 0
M  V30 14689 C 1411.35 1.98037 -0.43692 0
M  V30 14690 C 1411.69 1.66382 1.00154 0
M  V30 14691 O 1410.96 0.944311 1.70038 0
M  V30 14692 C 1411.24 3.54012 -0.65937 0
M  V30 14693 C 1411.1 3.9535 -2.14518 0
M  V30 14694 C 1412.42 4.39972 -0.106258 0
M  V30 14695 H 1409.54 0.719373 -0.160221 0
M  V30 14696 H 1412.18 1.57969 -1.05574 0
M  V30 14697 H 1410.33 3.88274 -0.132633 0
M  V30 14698 H 1412 3.7134 -2.73687 0
M  V30 14699 H 1410.24 3.4504 -2.62926 0
M  V30 14700 H 1410.91 5.03992 -2.25158 0
M  V30 14701 H 1413.39 4.12362 -0.556511 0
M  V30 14702 H 1412.27 5.48125 -0.291583 0
M  V30 14703 H 1412.53 4.30872 0.990032 0
M  V30 14704 N 1411.59 0.596556 1.45873 0
M  V30 14705 C 1413 0.259317 1.57479 0
M  V30 14706 C 1413.2 -1.23829 1.58961 0
M  V30 14707 O 1412.26 -2.02076 1.51399 0
M  V30 14708 C 1413.57 0.920755 2.86256 0
M  V30 14709 C 1415.12 0.895638 2.99912 0
M  V30 14710 C 1415.59 1.53688 4.31444 0
M  V30 14711 N 1417.08 1.50186 4.38176 0
M  V30 14712 C 1417.82 1.96727 5.38596 0
M  V30 14713 N 1417.32 2.51304 6.45615 0
M  V30 14714 N 1419.11 1.87561 5.29884 0
M  V30 14715 H 1411.26 1.56909 1.43155 0
M  V30 14716 H 1413.52 0.656664 0.683737 0
M  V30 14717 H 1413.23 1.97481 2.91023 0
M  V30 14718 H 1413.1 0.437331 3.74656 0
M  V30 14719 H 1415.49 -0.149838 2.94719 0
M  V30 14720 H 1415.57 1.41722 2.12952 0
M  V30 14721 H 1415.21 2.58163 4.37395 0
M  V30 14722 H 1415.14 0.990408 5.17203 0
M  V30 14723 H 1417.64 1.10305 3.61443 0
M  V30 14724 H 1417.95 2.84639 7.18471 0
M  V30 14725 H 1416.29 2.55337 6.46396 0
M  V30 14726 H 1419.48 1.4467 4.45183 0
M  V30 14727 H 1419.66 2.24146 6.07999 0
M  V30 14728 N 1413.06 -1.53996 0.335095 0
M  V30 14729 C 1414.31 -1.99952 -0.264954 0
M  V30 14730 C 1414.63 -1.22696 -1.52332 0
M  V30 14731 O 1415.83 -1.59086 -2.20009 0
M  V30 14732 C 1414.29 -3.56085 -0.522667 0
M  V30 14733 C 1413.9 -4.42188 0.719314 0
M  V30 14734 C 1415.64 -4.10478 -1.08204 0
M  V30 14735 C 1413.55 -5.89814 0.432867 0
M  V30 14736 H 1412.48 -0.746962 -0.102782 0
M  V30 14737 H 1415.13 -1.77919 0.449111 0
M  V30 14738 H 1413.51 -3.7415 -1.29722 0
M  V30 14739 H 1414.68 -4.35898 1.49432 0
M  V30 14740 H 1413 -3.98743 1.19972 0
M  V30 14741 H 1415.6 -5.18375 -1.31116 0
M  V30 14742 H 1415.94 -3.63173 -2.03497 0
M  V30 14743 H 1416.47 -3.96091 -0.368395 0
M  V30 14744 H 1413.21 -6.41336 1.35529 0
M  V30 14745 H 1412.73 -5.99028 -0.304214 0
M  V30 14746 H 1414.41 -6.46983 0.0469657 0
M  V30 14747 N 1414.54 -0.0635198 -1.57472 0
M  V30 14748 C 1415.47 0.93602 -2.09216 0
M  V30 14749 C 1416.49 1.2668 -1.02255 0
M  V30 14750 O 1417.68 1.22543 -1.2979 0
M  V30 14751 C 1414.78 2.25417 -2.53062 0
M  V30 14752 C 1413.95 2.10347 -3.83501 0
M  V30 14753 C 1413.01 3.25394 -4.13528 0
M  V30 14754 O 1412.03 3.00751 -4.83257 0
M  V30 14755 N 1413.24 4.50243 -3.66417 0
M  V30 14756 H 1416 0.494288 -2.95596 0
M  V30 14757 H 1413.56 0.122416 -1.61437 0
M  V30 14758 H 1415.55 3.01272 -2.70217 0
M  V30 14759 H 1414.12 2.61116 -1.71864 0
M  V30 14760 H 1413.34 1.19009 -3.75807 0
M  V30 14761 H 1414.63 1.97519 -4.68896 0
M  V30 14762 H 1414.03 4.73152 -3.1007 0
M  V30 14763 H 1412.59 5.23152 -3.88787 0
M  V30 14764 N 1416.02 1.56195 0.209972 0
M  V30 14765 C 1417.43 1.69811 0.775969 0
M  V30 14766 C 1417.78 0.667543 1.84495 0
M  V30 14767 O 1416.91 -0.179043 2.15658 0
M  V30 14768 C 1417.5 3.07869 1.41429 0
M  V30 14769 C 1416.06 3.233 1.92755 0
M  V30 14770 C 1415.21 2.6575 0.791958 0
M  V30 14771 H 1418.16 1.58693 -0.0148727 0
M  V30 14772 H 1418.18 3.04371 2.28339 0
M  V30 14773 H 1417.69 3.82853 0.63604 0
M  V30 14774 H 1415.79 2.53206 2.73345 0
M  V30 14775 H 1415.91 4.30645 2.09956 0
M  V30 14776 H 1414.27 2.24535 1.20234 0
M  V30 14777 H 1415.05 3.4329 0.0261877 0
M  V30 14778 N 1417.5 -0.477127 1.50204 0
M  V30 14779 C 1418.72 -1.25775 1.6491 0
M  V30 14780 C 1419.15 -1.85187 0.329765 0
M  V30 14781 O 1418.51 -1.67004 -0.705641 0
M  V30 14782 C 1418.55 -2.3466 2.73801 0
M  V30 14783 O 1417.66 -3.39147 2.34634 0
M  V30 14784 H 1417 -0.370291 0.551163 0
M  V30 14785 H 1419.53 -0.568514 1.96543 0
M  V30 14786 H 1419.54 -2.80065 2.96695 0
M  V30 14787 H 1418.21 -1.90788 3.69557 0
M  V30 14788 H 1416.79 -2.99496 2.22163 0
M  V30 14789 N 1418.98 -1.3968 -0.729882 0
M  V30 14790 C 1420.23 -1.36492 -1.48502 0
M  V30 14791 C 1420.54 0.0346572 -1.95569 0
M  V30 14792 O 1421.74 0.189135 -2.7084 0
M  V30 14793 C 1420.2 -2.39813 -2.68361 0
M  V30 14794 C 1419.81 -3.85511 -2.28222 0
M  V30 14795 C 1421.55 -2.45709 -3.46161 0
M  V30 14796 C 1419.46 -4.80462 -3.44834 0
M  V30 14797 H 1418.39 -0.507455 -0.557679 0
M  V30 14798 H 1421.04 -1.6535 -0.795708 0
M  V30 14799 H 1419.42 -2.04033 -3.39392 0
M  V30 14800 H 1420.6 -4.30359 -1.64704 0
M  V30 14801 H 1418.91 -3.82957 -1.63501 0
M  V30 14802 H 1421.51 -3.1384 -4.32907 0
M  V30 14803 H 1421.85 -1.48318 -3.88983 0
M  V30 14804 H 1422.38 -2.80409 -2.82163 0
M  V30 14805 H 1419.12 -5.79134 -3.07057 0
M  V30 14806 H 1418.64 -4.40289 -4.07315 0
M  V30 14807 H 1420.32 -4.99607 -4.11098 0
M  V30 14808 N 1420.45 0.960609 -1.2494 0
M  V30 14809 C 1421.4 2.04164 -1.01493 0
M  V30 14810 C 1422.39 1.60834 0.0461124 0
M  V30 14811 O 1423.58 1.76196 -0.168491 0
M  V30 14812 C 1420.71 3.37484 -0.629251 0
M  V30 14813 C 1419.8 3.87356 -1.72674 0
M  V30 14814 N 1420.19 4.10085 -2.9608 0
M  V30 14815 C 1418.48 4.16086 -1.60589 0
M  V30 14816 C 1419.19 4.51091 -3.67276 0
M  V30 14817 N 1418.16 4.56676 -2.9487 0
M  V30 14818 H 1421.96 2.19723 -1.95189 0
M  V30 14819 H 1419.48 1.14496 -1.15171 0
M  V30 14820 H 1421.47 4.14545 -0.442484 0
M  V30 14821 H 1420.13 3.23307 0.300446 0
M  V30 14822 H 1421.15 3.97331 -3.32187 0
M  V30 14823 H 1417.82 4.10804 -0.744725 0
M  V30 14824 H 1419.21 4.77031 -4.73172 0
M  V30 14825 N 1421.93 1.0643 1.16234 0
M  V30 14826 C 1423.21 0.695256 1.82827 0
M  V30 14827 C 1423.59 -0.823242 1.94386 0
M  V30 14828 O 1422.94 -1.73406 1.48804 0
M  V30 14829 C 1423.15 1.3988 3.19741 0
M  V30 14830 C 1424.5 1.54489 3.95498 0
M  V30 14831 O 1425.52 1.35882 3.29264 0
M  V30 14832 O 1424.38 1.85027 5.14225 0
M  V30 14833 H 1421.47 0.246285 0.789476 0
M  V30 14834 H 1424.02 1.16466 1.23426 0
M  V30 14835 H 1422.79 2.43419 3.06371 0
M  V30 14836 H 1422.41 0.91957 3.8682 0
M  V30 14837 N 1423.41 -1.329 0.847073 0
M  V30 14838 C 1424.36 -2.26534 0.258111 0
M  V30 14839 C 1425.34 -1.49627 -0.591653 0
M  V30 14840 O 1426.54 -1.71385 -0.442277 0
M  V30 14841 C 1423.67 -3.38719 -0.558969 0
M  V30 14842 C 1422.75 -4.23018 0.30276 0
M  V30 14843 N 1423.14 -4.86457 1.38541 0
M  V30 14844 C 1421.44 -4.45907 0.0911992 0
M  V30 14845 C 1422.14 -5.49277 1.91492 0
M  V30 14846 N 1421.12 -5.29843 1.21519 0
M  V30 14847 H 1424.92 -2.73103 1.0859 0
M  V30 14848 H 1422.43 -1.46901 0.692386 0
M  V30 14849 H 1424.43 -4.04797 -0.997259 0
M  V30 14850 H 1423.09 -2.93697 -1.38464 0
M  V30 14851 H 1424.1 -4.86776 1.76832 0
M  V30 14852 H 1420.78 -4.11584 -0.70037 0
M  V30 14853 H 1422.17 -6.09764 2.82201 0
M  V30 14854 N 1424.89 -0.604284 -1.45555 0
M  V30 14855 C 1425.84 0.129013 -2.32242 0
M  V30 14856 C 1426.83 0.862933 -1.45773 0
M  V30 14857 O 1428.04 0.778874 -1.62276 0
M  V30 14858 H 1424.41 0.0604661 -0.749565 0
M  V30 14859 H 1426.38 -0.620603 -2.91875 0
M  V30 14860 C 1425.13 1.11516 -3.29332 0
M  V30 14861 H 1424.45 0.559849 -3.95861 0
M  V30 14862 H 1425.89 1.59824 -3.92724 0
M  V30 14863 C 1424.35 2.18706 -2.5626 0
M  V30 14864 O 1424.88 3.26397 -2.34154 0
M  V30 14865 N 1423.09 1.93899 -2.16452 0
M  V30 14866 H 1422.64 1.0633 -2.34631 0
M  V30 14867 H 1422.59 2.65824 -1.67884 0
M  V30 14868 N 1426.37 1.53816 -0.343257 0
M  V30 14869 C 1427.62 2.0009 0.254346 0
M  V30 14870 C 1427.93 1.23502 1.51679 0
M  V30 14871 O 1429.13 1.60251 2.19162 0
M  V30 14872 C 1427.59 3.56357 0.503775 0
M  V30 14873 C 1427.2 4.418 -0.742754 0
M  V30 14874 C 1428.94 4.11046 1.06025 0
M  V30 14875 C 1426.85 5.89576 -0.46414 0
M  V30 14876 H 1425.78 0.747496 0.0988189 0
M  V30 14877 H 1428.43 1.77679 -0.45854 0
M  V30 14878 H 1426.81 3.74833 1.27736 0
M  V30 14879 H 1427.99 4.35099 -1.51742 0
M  V30 14880 H 1426.3 3.98101 -1.22085 0
M  V30 14881 H 1428.9 5.19063 1.28365 0
M  V30 14882 H 1429.24 3.64247 2.01568 0
M  V30 14883 H 1429.77 3.9628 0.347384 0
M  V30 14884 H 1426.51 6.40608 -1.38928 0
M  V30 14885 H 1426.03 5.99181 0.272441 0
M  V30 14886 H 1427.71 6.46949 -0.0812761 0
M  V30 14887 N 1427.84 0.0718701 1.57436 0
M  V30 14888 C 1429.26 -0.460784 1.80924 0
M  V30 14889 C 1429.61 -1.69637 0.985781 0
M  V30 14890 O 1428.73 -2.15395 0.208319 0
M  V30 14891 C 1429.33 -0.842738 3.28151 0
M  V30 14892 C 1427.89 -1.32026 3.52486 0
M  V30 14893 C 1427.03 -0.305466 2.75612 0
M  V30 14894 H 1429.98 0.297566 1.55885 0
M  V30 14895 H 1430 -1.70414 3.40205 0
M  V30 14896 H 1429.52 0.056733 3.88059 0
M  V30 14897 H 1427.62 -2.23822 2.97883 0
M  V30 14898 H 1427.73 -1.29813 4.61178 0
M  V30 14899 H 1426.09 -0.782758 2.42374 0
M  V30 14900 H 1426.88 0.586279 3.38257 0
M  V30 14901 N 1429.32 -1.56304 -0.201686 0
M  V30 14902 C 1430.55 -1.84341 -0.939465 0
M  V30 14903 C 1430.97 -0.653544 -1.77128 0
M  V30 14904 O 1430.32 0.377813 -1.78546 0
M  V30 14905 C 1430.37 -3.11111 -1.84098 0
M  V30 14906 O 1430.09 -4.25509 -1.04276 0
M  V30 14907 C 1431.6 -3.52279 -2.69099 0
M  V30 14908 H 1428.82 -0.61232 -0.274419 0
M  V30 14909 H 1431.36 -2.03409 -0.210924 0
M  V30 14910 H 1429.51 -2.9396 -2.52322 0
M  V30 14911 H 1429.93 -4.97655 -1.6565 0
M  V30 14912 H 1431.4 -4.43965 -3.28023 0
M  V30 14913 H 1431.88 -2.74959 -3.42482 0
M  V30 14914 H 1432.49 -3.71939 -2.06256 0
M  V30 14915 N 1430.8 0.469154 -1.50455 0
M  V30 14916 C 1431.73 1.57493 -1.7239 0
M  V30 14917 C 1432.71 1.60161 -0.572915 0
M  V30 14918 O 1433.9 1.76397 -0.812259 0
M  V30 14919 C 1431.03 2.95804 -1.81981 0
M  V30 14920 C 1429.98 3.08001 -2.97185 0
M  V30 14921 C 1429.31 4.4798 -2.91922 0
M  V30 14922 C 1430.61 2.85039 -4.37665 0
M  V30 14923 H 1432.3 1.39389 -2.64974 0
M  V30 14924 H 1429.85 0.669133 -1.27509 0
M  V30 14925 H 1431.8 3.73091 -1.95911 0
M  V30 14926 H 1430.52 3.15068 -0.86021 0
M  V30 14927 H 1429.18 2.33148 -2.82909 0
M  V30 14928 H 1428.83 4.64165 -1.93803 0
M  V30 14929 H 1428.53 4.57076 -3.69263 0
M  V30 14930 H 1430.05 5.27284 -3.07903 0
M  V30 14931 H 1431.47 3.52074 -4.52456 0
M  V30 14932 H 1429.87 3.05578 -5.16471 0
M  V30 14933 H 1430.94 1.8088 -4.499 0
M  V30 14934 N 1432.28 1.40065 0.722464 0
M  V30 14935 C 1433.19 1.42086 1.86678 0
M  V30 14936 C 1434.2 0.314223 1.71139 0
M  V30 14937 O 1435.38 0.55771 1.93524 0
M  V30 14938 C 1432.45 1.27498 3.22405 0
M  V30 14939 C 1431.51 2.48243 3.50248 0
M  V30 14940 C 1430.74 2.34342 4.79499 0
M  V30 14941 O 1430.96 1.35355 5.54108 0
M  V30 14942 O 1429.9 3.23579 5.07523 0
M  V30 14943 H 1433.72 2.38571 1.87929 0
M  V30 14944 H 1431.31 1.21314 0.871968 0
M  V30 14945 H 1433.19 1.21543 4.03491 0
M  V30 14946 H 1431.86 0.341141 3.21897 0
M  V30 14947 H 1430.77 2.59775 2.69199 0
M  V30 14948 H 1432.1 3.40364 3.55547 0
M  V30 14949 N 1433.76 -0.95397 1.25448 0
M  V30 14950 C 1434.72 -2.03231 1.0597 0
M  V30 14951 C 1435.72 -1.60795 0.0122855 0
M  V30 14952 O 1436.91 -1.7233 0.254533 0
M  V30 14953 C 1434.04 -3.35414 0.609105 0
M  V30 14954 H 1435.24 -2.21943 2.01696 0
M  V30 14955 H 1432.79 -1.13115 1.07864 0
M  V30 14956 H 1433.52 -3.22398 -0.350723 0
M  V30 14957 H 1433.31 -3.67564 1.36526 0
M  V30 14958 H 1434.8 -4.14664 0.49428 0
M  V30 14959 N 1435.24 -1.07045 -1.15668 0
M  V30 14960 C 1436.48 -0.792908 -1.86657 0
M  V30 14961 C 1436.81 0.679213 -1.81935 0
M  V30 14962 O 1436.09 1.49822 -1.2403 0
M  V30 14963 C 1436.37 -1.2978 -3.35901 0
M  V30 14964 C 1436.23 -2.83424 -3.49272 0
M  V30 14965 C 1437.54 -0.911821 -4.30551 0
M  V30 14966 H 1434.66 -0.289509 -0.677756 0
M  V30 14967 H 1437.31 -1.32769 -1.35913 0
M  V30 14968 H 1435.46 -0.84288 -3.79246 0
M  V30 14969 H 1437.13 -3.37182 -3.14811 0
M  V30 14970 H 1435.37 -3.21777 -2.90933 0
M  V30 14971 H 1436.04 -3.13819 -4.54116 0
M  V30 14972 H 1438.52 -1.30376 -3.95147 0
M  V30 14973 H 1437.39 -1.29247 -5.33467 0
M  V30 14974 H 1437.65 0.18255 -4.41723 0
M  V30 14975 N 1436.71 1.32449 -0.85411 0
M  V30 14976 C 1437.96 1.97563 -0.4579 0
M  V30 14977 C 1438.29 1.67435 0.983835 0
M  V30 14978 O 1437.57 0.962292 1.69027 0
M  V30 14979 C 1437.85 3.53292 -0.69688 0
M  V30 14980 C 1437.7 3.93053 -2.18699 0
M  V30 14981 C 1439.02 4.39834 -0.152917 0
M  V30 14982 H 1436.14 0.717634 -0.167842 0
M  V30 14983 H 1438.78 1.5684 -1.07243 0
M  V30 14984 H 1436.93 3.88111 -0.173807 0
M  V30 14985 H 1438.61 3.68416 -2.7761 0
M  V30 14986 H 1436.85 3.42232 -2.6657 0
M  V30 14987 H 1437.52 5.01576 -2.3049 0
M  V30 14988 H 1440 4.11748 -0.600216 0
M  V30 14989 H 1438.87 5.47785 -0.349703 0
M  V30 14990 H 1439.13 4.31898 0.944276 0
M  V30 14991 N 1438.19 0.611994 1.45232 0
M  V30 14992 C 1439.44 0.108696 2.01807 0
M  V30 14993 C 1439.76 -1.26692 1.48237 0
M  V30 14994 O 1439.03 -1.8378 0.678368 0
M  V30 14995 H 1437.61 0.0371921 0.746074 0
M  V30 14996 H 1440.27 0.794386 1.77976 0
M  V30 14997 H 1439.37 0.0618207 3.12039 0
M  V30 14998 N 1439.67 -1.53632 0.351409 0
M  V30 14999 C 1440.92 -2.01338 -0.243047 0
M  V30 15000 C 1441.25 -1.23864 -1.4957 0
M  V30 15001 O 1440.52 -0.328412 -1.91707 0
M  V30 15002 C 1440.81 -3.55886 -0.549284 0
M  V30 15003 C 1440.66 -4.44064 0.716016 0
M  V30 15004 C 1441.98 -4.18699 -1.35569 0
M  V30 15005 H 1439.1 -0.731863 -0.0868627 0
M  V30 15006 H 1441.74 -1.84005 0.473501 0
M  V30 15007 H 1439.89 -3.70787 -1.15972 0
M  V30 15008 H 1441.56 -4.40987 1.35383 0
M  V30 15009 H 1439.8 -4.12608 1.3393 0
M  V30 15010 H 1440.48 -5.50106 0.456895 0
M  V30 15011 H 1442.95 -4.07545 -0.839441 0
M  V30 15012 H 1441.83 -5.26892 -1.53871 0
M  V30 15013 H 1442.09 -3.73834 -2.3601 0
M  V30 15014 N 1441.15 -0.0802183 -1.57396 0
M  V30 15015 C 1442.56 0.451183 -1.81166 0
M  V30 15016 C 1442.91 1.69112 -0.994764 0
M  V30 15017 O 1442.03 2.15281 -0.219739 0
M  V30 15018 C 1442.63 0.825324 -3.28594 0
M  V30 15019 C 1441.19 1.30154 -3.53181 0
M  V30 15020 C 1440.34 0.290846 -2.75771 0
M  V30 15021 H 1443.29 -0.305829 -1.55725 0
M  V30 15022 H 1443.31 1.68608 -3.41104 0
M  V30 15023 H 1442.82 -0.0773119 -3.88023 0
M  V30 15024 H 1440.92 2.22239 -2.99066 0
M  V30 15025 H 1441.03 1.27365 -4.6186 0
M  V30 15026 H 1439.4 0.769894 -2.42785 0
M  V30 15027 H 1440.18 -0.604209 -3.37941 0
M  V30 15028 N 1442.63 1.56409 0.193394 0
M  V30 15029 C 1443.56 1.91211 1.26377 0
M  V30 15030 C 1444.57 0.802944 1.41622 0
M  V30 15031 O 1445.76 1.08136 1.42017 0
M  V30 15032 C 1442.86 2.13039 2.63567 0
M  V30 15033 C 1442.03 3.44192 2.69909 0
M  V30 15034 C 1441.09 3.55111 3.88307 0
M  V30 15035 O 1440.12 4.2792 3.75331 0
M  V30 15036 N 1441.32 2.88325 5.03834 0
M  V30 15037 H 1444.08 2.83624 0.968383 0
M  V30 15038 H 1441.65 1.57297 0.383302 0
M  V30 15039 H 1443.64 2.1763 3.41202 0
M  V30 15040 H 1442.21 1.27116 2.85588 0
M  V30 15041 H 1441.43 3.51452 1.78535 0
M  V30 15042 H 1442.72 4.30536 2.71139 0
M  V30 15043 H 1442.11 2.29003 5.17276 0
M  V30 15044 H 1440.67 2.98542 5.7941 0
M  V30 15045 N 1444.1 -0.461169 1.50702 0
M  V30 15046 C 1445.51 -1.04177 1.54932 0
M  V30 15047 C 1445.87 -1.92894 0.358648 0
M  V30 15048 O 1444.99 -2.09876 -0.527346 0
M  V30 15049 C 1445.59 -1.8961 2.80773 0
M  V30 15050 C 1444.14 -2.42761 2.87652 0
M  V30 15051 C 1443.29 -1.21356 2.49335 0
M  V30 15052 H 1446.24 -0.243379 1.56823 0
M  V30 15053 H 1446.26 -2.74794 2.63189 0
M  V30 15054 H 1445.78 -1.25014 3.67414 0
M  V30 15055 H 1443.88 -3.10881 2.05386 0
M  V30 15056 H 1443.99 -2.77189 3.90772 0
M  V30 15057 H 1442.35 -1.55146 2.01995 0
M  V30 15058 H 1443.14 -0.584069 3.38295 0
M  V30 15059 N 1445.58 -1.40446 -0.715026 0
M  V30 15060 C 1446.99 -1.34564 -1.29419 0
M  V30 15061 C 1447.34 -0.0193984 -1.9619 0
M  V30 15062 O 1446.47 0.882616 -1.97582 0
M  V30 15063 C 1447.06 -2.43721 -2.35342 0
M  V30 15064 C 1445.62 -2.41297 -2.88881 0
M  V30 15065 C 1444.77 -2.2457 -1.62676 0
M  V30 15066 H 1447.72 -1.50244 -0.511116 0
M  V30 15067 H 1447.74 -2.1166 -3.16197 0
M  V30 15068 H 1447.25 -3.40234 -1.86715 0
M  V30 15069 H 1445.35 -1.48483 -3.41736 0
M  V30 15070 H 1445.47 -3.36903 -3.40637 0
M  V30 15071 H 1443.83 -1.72096 -1.87763 0
M  V30 15072 H 1444.61 -3.23082 -1.16074 0
M  V30 15073 N 1447.06 0.947303 -1.25952 0
M  V30 15074 C 1448.28 1.73261 -1.13997 0
M  V30 15075 C 1448.71 1.85666 0.301639 0
M  V30 15076 O 1448.07 1.34244 1.21854 0
M  V30 15077 C 1448.12 3.12046 -1.8072 0
M  V30 15078 O 1447.22 3.97684 -1.09182 0
M  V30 15079 H 1446.56 0.53182 -0.397572 0
M  V30 15080 H 1449.09 1.18689 -1.66656 0
M  V30 15081 H 1449.1 3.62468 -1.87299 0
M  V30 15082 H 1447.78 3.02334 -2.856 0
M  V30 15083 H 1446.35 3.56141 -1.10536 0
M  V30 15084 N 1448.54 1.07657 1.15099 0
M  V30 15085 C 1449.45 0.711198 2.2356 0
M  V30 15086 C 1450.46 -0.278932 1.7175 0
M  V30 15087 O 1451.64 -0.124788 2.01013 0
M  V30 15088 C 1448.71 0.117855 3.465 0
M  V30 15089 C 1447.77 1.16162 4.13286 0
M  V30 15090 C 1447 0.596494 5.30356 0
M  V30 15091 O 1447.22 -0.586474 5.67377 0
M  V30 15092 O 1446.16 1.34288 5.86729 0
M  V30 15093 H 1449.98 1.61578 2.5715 0
M  V30 15094 H 1447.57 0.84973 1.22882 0
M  V30 15095 H 1449.45 -0.210613 4.20873 0
M  V30 15096 H 1448.12 -0.760008 3.14652 0
M  V30 15097 H 1447.03 1.54249 3.4082 0
M  V30 15098 H 1448.36 2.01149 4.49221 0
M  V30 15099 N 1450.02 -1.31994 0.861122 0
M  V30 15100 C 1451.26 -1.96636 0.466754 0
M  V30 15101 C 1451.59 -1.6845 -0.982328 0
M  V30 15102 O 1450.86 -0.995157 -1.68741 0
M  V30 15103 H 1449.44 -0.727489 0.169613 0
M  V30 15104 H 1452.1 -1.60962 1.09897 0
M  V30 15105 H 1451.19 -3.05937 0.61716 0
M  V30 15106 N 1451.49 -0.619688 -1.44906 0
M  V30 15107 C 1452.91 -0.203309 -1.8559 0
M  V30 15108 C 1453.26 1.24265 -1.51831 0
M  V30 15109 O 1452.38 1.94392 -0.950819 0
M  V30 15110 C 1452.98 -0.362204 -3.36858 0
M  V30 15111 C 1451.54 -0.000423575 -3.764 0
M  V30 15112 C 1450.68 -0.680979 -2.68808 0
M  V30 15113 H 1453.63 -0.825595 -1.35535 0
M  V30 15114 H 1453.65 0.402149 -3.78369 0
M  V30 15115 H 1453.17 -1.41468 -3.61398 0
M  V30 15116 H 1451.27 1.05077 -3.57477 0
M  V30 15117 H 1451.38 -0.402508 -4.77406 0
M  V30 15118 H 1449.74 -0.117407 -2.54429 0
M  V30 15119 H 1450.53 -1.73583 -2.96182 0
M  V30 15120 N 1452.97 1.53444 -0.359552 0
M  V30 15121 C 1454.22 2.00348 0.233109 0
M  V30 15122 C 1454.53 1.25104 1.50361 0
M  V30 15123 O 1455.74 1.62566 2.1745 0
M  V30 15124 C 1454.2 3.56871 0.465951 0
M  V30 15125 C 1453.8 4.40987 -0.789571 0
M  V30 15126 C 1455.55 4.12148 1.0166 0
M  V30 15127 C 1453.46 5.8905 -0.526646 0
M  V30 15128 H 1452.39 0.748502 0.0908851 0
M  V30 15129 H 1455.04 1.77182 -0.47736 0
M  V30 15130 H 1453.42 3.76167 1.23753 0
M  V30 15131 H 1454.59 4.33465 -1.56348 0
M  V30 15132 H 1452.91 3.96784 -1.263 0
M  V30 15133 H 1455.5 5.20395 1.22853 0
M  V30 15134 H 1455.85 3.66364 1.97694 0
M  V30 15135 H 1456.38 3.96626 0.305334 0
M  V30 15136 H 1453.12 6.39099 -1.45715 0
M  V30 15137 H 1452.64 5.99436 0.208875 0
M  V30 15138 H 1454.32 6.46826 -0.149889 0
M  V30 15139 N 1454.45 0.0885642 1.57351 0
M  V30 15140 C 1455.68 -0.585238 1.9845 0
M  V30 15141 C 1456.09 -1.62127 0.967483 0
M  V30 15142 O 1455.45 -1.82448 -0.0437565 0
M  V30 15143 C 1455.5 -1.23881 3.39611 0
M  V30 15144 O 1455.22 -0.244223 4.37419 0
M  V30 15145 C 1456.72 -1.99885 3.95678 0
M  V30 15146 H 1453.94 -0.157396 0.652279 0
M  V30 15147 H 1456.49 0.165923 2.03826 0
M  V30 15148 H 1454.64 -1.94094 3.3527 0
M  V30 15149 H 1455.06 -0.715149 5.19602 0
M  V30 15150 H 1456.53 -2.40983 4.9662 0
M  V30 15151 H 1457.01 -2.8621 3.33137 0
M  V30 15152 H 1457.61 -1.34501 4.03472 0
M  V30 15153 N 1455.93 -1.56509 -0.185096 0
M  V30 15154 C 1456.88 -1.91742 -1.23366 0
M  V30 15155 C 1457.86 -0.784182 -1.40497 0
M  V30 15156 O 1459.05 -1.04718 -1.42699 0
M  V30 15157 C 1456.18 -2.26903 -2.57624 0
M  V30 15158 C 1455.27 -3.46707 -2.44244 0
M  V30 15159 N 1455.66 -4.64338 -2.00558 0
M  V30 15160 C 1453.96 -3.51042 -2.7511 0
M  V30 15161 C 1454.66 -5.46489 -1.9931 0
M  V30 15162 N 1453.64 -4.87162 -2.41193 0
M  V30 15163 H 1457.44 -2.80184 -0.887378 0
M  V30 15164 H 1454.95 -1.57561 -0.393468 0
M  V30 15165 H 1456.95 -2.50332 -3.33376 0
M  V30 15166 H 1455.61 -1.39792 -2.93067 0
M  V30 15167 H 1456.62 -4.88817 -1.7111 0
M  V30 15168 H 1453.3 -2.74375 -3.14682 0
M  V30 15169 H 1454.69 -6.50726 -1.67349 0
M  V30 15170 N 1457.41 0.45317 -1.50944 0
M  V30 15171 C 1458.34 1.56678 -1.67287 0
M  V30 15172 C 1459.35 1.53089 -0.553853 0
M  V30 15173 O 1460.54 1.58152 -0.827653 0
M  V30 15174 C 1457.64 2.95585 -1.65779 0
M  V30 15175 C 1456.81 3.2385 -2.94007 0
M  V30 15176 C 1455.87 4.42401 -2.84899 0
M  V30 15177 O 1454.9 4.4183 -3.58853 0
M  V30 15178 N 1456.1 5.4508 -1.99671 0
M  V30 15179 H 1458.87 1.43069 -2.63347 0
M  V30 15180 H 1456.43 0.641875 -1.48632 0
M  V30 15181 H 1458.42 3.7289 -1.57275 0
M  V30 15182 H 1456.99 3.02872 -0.773791 0
M  V30 15183 H 1456.21 2.34991 -3.16501 0
M  V30 15184 H 1457.5 3.39554 -3.7892 0
M  V30 15185 H 1456.89 5.48374 -1.38933 0
M  V30 15186 H 1455.45 6.21298 -1.97057 0
M  V30 15187 N 1458.88 1.40823 0.707568 0
M  V30 15188 C 1460.13 1.40743 1.46843 0
M  V30 15189 C 1460.49 0.0119104 1.92396 0
M  V30 15190 O 1459.78 -0.960008 1.65814 0
M  V30 15191 C 1459.97 2.33829 2.70294 0
M  V30 15192 C 1459.8 3.82294 2.36816 0
M  V30 15193 C 1458.57 4.51056 2.27764 0
M  V30 15194 C 1460.77 4.7358 2.00565 0
M  V30 15195 N 1458.75 5.84711 1.87045 0
M  V30 15196 C 1460.12 5.96093 1.7051 0
M  V30 15197 C 1462.18 4.6134 1.8727 0
M  V30 15198 C 1460.88 7.07729 1.28497 0
M  V30 15199 C 1462.91 5.72926 1.46662 0
M  V30 15200 C 1462.27 6.94529 1.1751 0
M  V30 15201 H 1458.37 0.570255 0.535101 0
M  V30 15202 H 1460.95 1.766 0.81979 0
M  V30 15203 H 1459.12 2.00087 3.32896 0
M  V30 15204 H 1460.85 2.2455 3.36689 0
M  V30 15205 H 1457.61 4.04839 2.45768 0
M  V30 15206 H 1458.03 6.55515 1.69201 0
M  V30 15207 H 1462.68 3.67834 2.08467 0
M  V30 15208 H 1460.39 8.01112 1.06044 0
M  V30 15209 H 1463.98 5.65454 1.36942 0
M  V30 15210 H 1462.86 7.79408 0.865604 0
M  V30 15211 N 1460.36 -0.94061 1.26453 0
M  V30 15212 C 1461.59 -1.72654 1.14914 0
M  V30 15213 C 1462.01 -1.85823 -0.291789 0
M  V30 15214 O 1461.37 -1.34888 -1.2114 0
M  V30 15215 C 1461.42 -3.11083 1.82372 0
M  V30 15216 O 1460.52 -3.971 1.1129 0
M  V30 15217 H 1459.86 -0.529704 0.400387 0
M  V30 15218 H 1462.39 -1.17803 1.67283 0
M  V30 15219 H 1462.4 -3.6147 1.89219 0
M  V30 15220 H 1461.08 -3.00815 2.87199 0
M  V30 15221 H 1459.66 -3.5555 1.12423 0
M  V30 15222 N 1461.84 -1.08266 -1.14527 0
M  V30 15223 C 1463.09 -0.812661 -1.85805 0
M  V30 15224 C 1463.42 0.659878 -1.82645 0
M  V30 15225 O 1462.69 1.48498 -1.25612 0
M  V30 15226 C 1462.98 -1.33335 -3.34505 0
M  V30 15227 C 1462.83 -2.87113 -3.46246 0
M  V30 15228 C 1464.15 -0.957435 -4.29559 0
M  V30 15229 H 1461.27 -0.296681 -0.674648 0
M  V30 15230 H 1463.91 -1.34203 -1.34497 0
M  V30 15231 H 1462.06 -0.883056 -3.78331 0
M  V30 15232 H 1463.73 -3.40502 -3.11217 0
M  V30 15233 H 1461.98 -3.24845 -2.87504 0
M  V30 15234 H 1462.65 -3.18618 -4.50762 0
M  V30 15235 H 1465.12 -1.3456 -3.93742 0
M  V30 15236 H 1464 -1.34897 -5.32066 0
M  V30 15237 H 1464.26 0.135689 -4.41892 0
M  V30 15238 N 1463.32 1.31536 -0.86811 0
M  V30 15239 C 1464.25 2.27486 -0.279749 0
M  V30 15240 C 1465.26 1.53006 0.556158 0
M  V30 15241 O 1466.45 1.74442 0.378454 0
M  V30 15242 C 1463.55 3.33139 0.622197 0
M  V30 15243 C 1462.73 4.37026 -0.180855 0
M  V30 15244 C 1461.79 5.22183 0.64894 0
M  V30 15245 O 1460.81 5.69147 0.0776395 0
M  V30 15246 N 1462.01 5.46365 1.96127 0
M  V30 15247 H 1464.78 2.78613 -1.1043 0
M  V30 15248 H 1462.34 1.44538 -0.729409 0
M  V30 15249 H 1464.33 3.87024 1.18297 0
M  V30 15250 H 1462.9 2.8207 1.34742 0
M  V30 15251 H 1462.12 3.8324 -0.923078 0
M  V30 15252 H 1463.41 5.03508 -0.731953 0
M  V30 15253 H 1462.81 5.09962 2.44857 0
M  V30 15254 H 1461.36 6.03192 2.46987 0
M  V30 15255 N 1464.8 0.627364 1.44575 0
M  V30 15256 C 1465.73 -0.129056 2.27835 0
M  V30 15257 C 1466.71 -0.854852 1.38315 0
M  V30 15258 O 1467.89 -0.859709 1.67754 0
M  V30 15259 C 1465.02 -1.18866 3.17157 0
M  V30 15260 C 1464.07 -0.563816 4.22757 0
M  V30 15261 S 1464.9 0.643269 5.31622 0
M  V30 15262 C 1466.05 -0.416443 6.24513 0
M  V30 15263 H 1466.29 0.577281 2.91641 0
M  V30 15264 H 1463.82 0.415427 1.48706 0
M  V30 15265 H 1465.78 -1.79508 3.69171 0
M  V30 15266 H 1464.44 -1.86717 2.52578 0
M  V30 15267 H 1463.63 -1.36173 4.85256 0
M  V30 15268 H 1463.23 -0.0321045 3.73986 0
M  V30 15269 H 1465.53 -1.29006 6.65104 0
M  V30 15270 H 1466.47 0.172871 7.07889 0
M  V30 15271 H 1466.88 -0.740651 5.5962 0
M  V30 15272 N 1466.28 -1.53251 0.367684 0
M  V30 15273 C 1467.19 -2.29518 -0.485669 0
M  V30 15274 C 1468.2 -1.35568 -1.09075 0
M  V30 15275 O 1469.38 -1.68626 -1.10124 0
M  V30 15276 C 1466.44 -3.07115 -1.60876 0
M  V30 15277 C 1465.5 -4.16736 -1.031 0
M  V30 15278 C 1464.74 -4.90624 -2.10056 0
M  V30 15279 O 1464.96 -4.64393 -3.31203 0
M  V30 15280 O 1463.89 -5.76503 -1.72996 0
M  V30 15281 H 1467.72 -3.034 0.135017 0
M  V30 15282 H 1465.3 -1.48816 0.132005 0
M  V30 15283 H 1467.19 -3.55564 -2.26168 0
M  V30 15284 H 1465.86 -2.36068 -2.21481 0
M  V30 15285 H 1464.77 -3.72534 -0.341928 0
M  V30 15286 H 1466.1 -4.89956 -0.469473 0
M  V30 15287 N 1467.75 -0.0969077 -1.57302 0
M  V30 15288 C 1469.16 0.431942 -1.81635 0
M  V30 15289 C 1469.52 1.68047 -1.01264 0
M  V30 15290 O 1468.64 2.15036 -0.24256 0
M  V30 15291 C 1469.24 0.790426 -3.29451 0
M  V30 15292 C 1467.79 1.26401 -3.54542 0
M  V30 15293 C 1466.94 0.26158 -2.76063 0
M  V30 15294 H 1469.89 -0.322328 -1.55392 0
M  V30 15295 H 1469.91 1.64981 -3.42873 0
M  V30 15296 H 1469.43 -0.118463 -3.87919 0
M  V30 15297 H 1467.53 2.19055 -3.01406 0
M  V30 15298 H 1467.64 1.22459 -4.63185 0
M  V30 15299 H 1466 0.7441 -2.43588 0
M  V30 15300 H 1466.79 -0.640018 -3.37281 0
M  V30 15301 N 1469.23 1.56605 0.176793 0
M  V30 15302 C 1470.64 1.71418 0.739775 0
M  V30 15303 C 1470.99 0.706527 1.83037 0
M  V30 15304 O 1470.12 -0.133259 2.15989 0
M  V30 15305 C 1470.71 3.10799 1.34867 0
M  V30 15306 C 1469.27 3.27315 1.85854 0
M  V30 15307 C 1468.42 2.67371 0.73541 0
M  V30 15308 H 1471.37 1.58626 -0.0485305 0
M  V30 15309 H 1471.39 3.09146 2.21831 0
M  V30 15310 H 1470.9 3.84116 0.554688 0
M  V30 15311 H 1469 2.58947 2.67913 0
M  V30 15312 H 1469.12 4.35002 2.00774 0
M  V30 15313 H 1467.48 2.27035 1.15444 0
M  V30 15314 H 1468.26 3.43268 -0.0466351 0
M  V30 15315 N 1470.71 -0.445159 1.51182 0
M  V30 15316 C 1471.96 -1.19701 1.63705 0
M  V30 15317 C 1472.29 -1.91047 0.348511 0
M  V30 15318 O 1471.56 -1.83264 -0.651497 0
M  V30 15319 C 1471.85 -2.22021 2.83511 0
M  V30 15320 C 1471.7 -1.54809 4.2232 0
M  V30 15321 C 1473.02 -3.23083 2.9884 0
M  V30 15322 H 1470.14 -0.433818 0.595795 0
M  V30 15323 H 1472.78 -0.487276 1.83645 0
M  V30 15324 H 1470.93 -2.82551 2.66641 0
M  V30 15325 H 1472.6 -0.976774 4.5084 0
M  V30 15326 H 1470.84 -0.850596 4.25379 0
M  V30 15327 H 1471.52 -2.29289 5.02126 0
M  V30 15328 H 1473.99 -2.72601 3.14369 0
M  V30 15329 H 1472.87 -3.91978 3.84246 0
M  V30 15330 H 1473.13 -3.88732 2.1057 0
M  V30 15331 N 1472.19 -1.41197 -0.700089 0
M  V30 15332 C 1473.6 -1.3593 -1.27985 0
M  V30 15333 C 1473.95 -0.0402059 -1.96159 0
M  V30 15334 O 1473.07 0.861611 -1.98508 0
M  V30 15335 C 1473.67 -2.46203 -2.32743 0
M  V30 15336 C 1472.23 -2.44348 -2.86306 0
M  V30 15337 C 1471.38 -2.26283 -1.60285 0
M  V30 15338 H 1474.33 -1.50778 -0.495152 0
M  V30 15339 H 1474.35 -2.15001 -3.13934 0
M  V30 15340 H 1473.86 -3.42195 -1.83096 0
M  V30 15341 H 1471.96 -1.521 -3.40142 0
M  V30 15342 H 1472.07 -3.40497 -3.37044 0
M  V30 15343 H 1470.44 -1.74078 -1.85928 0
M  V30 15344 H 1471.22 -3.24295 -1.1264 0
M  V30 15345 N 1473.67 0.933891 -1.2695 0
M  V30 15346 C 1474.91 1.69554 -1.14153 0
M  V30 15347 C 1475.27 1.89503 0.308639 0
M  V30 15348 O 1476.47 2.62925 0.558894 0
M  V30 15349 C 1474.74 3.02894 -1.8971 0
M  V30 15350 S 1476.3 3.94051 -1.93053 0
M  V30 15351 H 1473.12 0.582546 -0.407629 0
M  V30 15352 H 1475.72 1.11233 -1.60772 0
M  V30 15353 H 1474.42 2.86061 -2.94274 0
M  V30 15354 H 1473.96 3.6627 -1.43561 0
M  V30 15355 H 1475.97 4.85551 -1.02249 0
M  V30 15356 N 1475.14 1.08871 1.13951 0
M  V30 15357 C 1476.09 0.692507 2.17229 0
M  V30 15358 C 1477.08 -0.290264 1.5826 0
M  V30 15359 O 1478.27 -0.101531 1.76709 0
M  V30 15360 C 1475.4 0.108487 3.43129 0
M  V30 15361 C 1474.48 1.11733 4.09117 0
M  V30 15362 N 1474.88 2.30244 4.50357 0
M  V30 15363 C 1473.17 0.954172 4.35674 0
M  V30 15364 C 1473.87 2.94373 5.01716 0
M  V30 15365 N 1472.85 2.2196 4.96221 0
M  V30 15366 H 1476.65 1.59489 2.46861 0
M  V30 15367 H 1474.17 0.964113 1.30685 0
M  V30 15368 H 1476.16 -0.193345 4.16451 0
M  V30 15369 H 1474.82 -0.78882 3.14973 0
M  V30 15370 H 1475.83 2.67871 4.43244 0
M  V30 15371 H 1472.51 0.111069 4.17352 0
M  V30 15372 H 1473.9 3.95089 5.43465 0
M  V30 15373 N 1476.62 -1.31073 0.875073 0
M  V30 15374 C 1477.85 -2.00397 0.50245 0
M  V30 15375 C 1478.26 -1.65826 -0.910951 0
M  V30 15376 O 1477.6 -0.886276 -1.60906 0
M  V30 15377 C 1477.66 -3.54696 0.585744 0
M  V30 15378 C 1477.33 -4.12756 1.96167 0
M  V30 15379 C 1478.33 -4.29484 2.92984 0
M  V30 15380 C 1476.01 -4.48365 2.26437 0
M  V30 15381 C 1478 -4.81019 4.18209 0
M  V30 15382 C 1475.69 -4.99601 3.51912 0
M  V30 15383 C 1476.69 -5.1588 4.47613 0
M  V30 15384 O 1476.38 -5.66014 5.70862 0
M  V30 15385 H 1476.11 -0.647645 0.193733 0
M  V30 15386 H 1478.66 -1.6816 1.17947 0
M  V30 15387 H 1476.89 -3.86416 -0.148214 0
M  V30 15388 H 1478.58 -4.05271 0.225818 0
M  V30 15389 H 1479.35 -4.02286 2.70907 0
M  V30 15390 H 1475.23 -4.34968 1.52721 0
M  V30 15391 H 1478.77 -4.9364 4.92915 0
M  V30 15392 H 1474.67 -5.26234 3.73829 0
M  V30 15393 H 1475.44 -5.84374 5.73105 0
M  V30 15394 N 1478.1 -0.635022 -1.4424 0
M  V30 15395 C 1479.01 0.0686832 -2.34499 0
M  V30 15396 C 1480.03 0.831574 -1.52843 0
M  V30 15397 O 1481.2 0.782954 -1.85558 0
M  V30 15398 C 1478.27 1.03543 -3.30877 0
M  V30 15399 C 1477.33 0.271484 -4.28441 0
M  V30 15400 C 1476.56 1.19218 -5.20214 0
M  V30 15401 O 1476.78 2.43101 -5.16002 0
M  V30 15402 O 1475.72 0.6744 -5.9811 0
M  V30 15403 H 1479.54 -0.673781 -2.96132 0
M  V30 15404 H 1477.13 -0.395211 -1.44078 0
M  V30 15405 H 1479.01 1.59151 -3.90191 0
M  V30 15406 H 1477.69 1.75844 -2.71773 0
M  V30 15407 H 1476.59 -0.327736 -3.72662 0
M  V30 15408 H 1477.93 -0.411584 -4.90476 0
M  V30 15409 N 1479.58 1.53054 -0.375806 0
M  V30 15410 C 1480.86 1.93761 0.26757 0
M  V30 15411 C 1481.24 1.31019 1.65521 0
M  V30 15412 O 1480.58 0.473138 2.23548 0
M  V30 15413 C 1480.79 3.47643 0.307505 0
M  V30 15414 C 1482.14 4.21114 0.542951 0
M  V30 15415 O 1483.17 3.54077 0.388285 0
M  V30 15416 O 1482.02 5.39929 0.8449 0
M  V30 15417 H 1479.12 0.810805 0.16286 0
M  V30 15418 H 1481.66 1.64179 -0.429334 0
M  V30 15419 H 1480.44 3.85608 -0.665001 0
M  V30 15420 H 1480.06 3.83488 1.04988 0
M  V30 15421 N 1481.06 0.105248 1.57248 0
M  V30 15422 C 1481.99 -0.846915 2.176 0
M  V30 15423 C 1482.97 -1.28706 1.11216 0
M  V30 15424 O 1484.15 -1.35213 1.39396 0
M  V30 15425 C 1481.28 -2.10228 2.76445 0
M  V30 15426 C 1480.24 -1.80041 3.8829 0
M  V30 15427 C 1479.56 -3.12491 4.33882 0
M  V30 15428 C 1480.86 -1.07943 5.11024 0
M  V30 15429 H 1482.56 -0.344052 2.97417 0
M  V30 15430 H 1480.1 -0.164045 1.43063 0
M  V30 15431 H 1482.06 -2.77284 3.17319 0
M  V30 15432 H 1480.78 -2.62815 1.93897 0
M  V30 15433 H 1479.44 -1.15379 3.4797 0
M  V30 15434 H 1479.09 -3.62985 3.48211 0
M  V30 15435 H 1478.79 -2.93072 5.09296 0
M  V30 15436 H 1480.31 -3.80688 4.77398 0
M  V30 15437 H 1481.72 -1.65127 5.49004 0
M  V30 15438 H 1480.12 -0.986674 5.91933 0
M  V30 15439 H 1481.19 -0.0638511 4.84858 0
M  V30 15440 N 1482.53 -1.56697 -0.168486 0
M  V30 15441 C 1483.44 -1.99866 -1.22845 0
M  V30 15442 C 1484.46 -0.910491 -1.48277 0
M  V30 15443 O 1485.64 -1.21834 -1.6037 0
M  V30 15444 C 1482.7 -2.35227 -2.54694 0
M  V30 15445 C 1481.76 -3.57886 -2.37099 0
M  V30 15446 C 1481 -3.91551 -3.62661 0
M  V30 15447 O 1481.22 -3.26148 -4.67957 0
M  V30 15448 O 1480.15 -4.8489 -3.56603 0
M  V30 15449 H 1483.98 -2.90305 -0.892015 0
M  V30 15450 H 1481.56 -1.44602 -0.375571 0
M  V30 15451 H 1483.45 -2.58928 -3.32467 0
M  V30 15452 H 1482.12 -1.4795 -2.87911 0
M  V30 15453 H 1481.03 -3.394 -1.57348 0
M  V30 15454 H 1482.36 -4.45714 -2.08806 0
M  V30 15455 N 1484.01 0.437135 -1.51416 0
M  V30 15456 C 1485.43 0.773631 -1.39596 0
M  V30 15457 C 1485.63 1.95737 -0.478463 0
M  V30 15458 O 1484.68 2.52413 0.0662971 0
M  V30 15459 C 1486 1.05381 -2.8163 0
M  V30 15460 C 1487.55 1.15824 -2.90782 0
M  V30 15461 C 1488.02 1.47135 -4.33722 0
M  V30 15462 N 1489.51 1.54059 -4.3683 0
M  V30 15463 C 1490.25 1.79858 -5.44462 0
M  V30 15464 N 1489.74 2.03449 -6.62254 0
M  V30 15465 N 1491.54 1.81642 -5.31942 0
M  V30 15466 H 1483.69 -0.342468 -2.09621 0
M  V30 15467 H 1485.95 -0.0908158 -0.94364 0
M  V30 15468 H 1485.66 0.256708 -3.50762 0
M  V30 15469 H 1485.53 1.98139 -3.20968 0
M  V30 15470 H 1487.92 1.94597 -2.21847 0
M  V30 15471 H 1488 0.209663 -2.54939 0
M  V30 15472 H 1487.64 0.688897 -5.03206 0
M  V30 15473 H 1487.57 2.43199 -4.67078 0
M  V30 15474 H 1490.06 1.3773 -3.51907 0
M  V30 15475 H 1490.38 2.22506 -7.40075 0
M  V30 15476 H 1488.72 2.00771 -6.65369 0
M  V30 15477 H 1491.91 1.62731 -4.38903 0
M  V30 15478 H 1492.08 2.01411 -6.15904 0
M  V30 15479 N 1485.49 1.41566 0.692592 0
M  V30 15480 C 1486.42 1.46423 1.81886 0
M  V30 15481 C 1487.4 0.32258 1.67013 0
M  V30 15482 O 1488.59 0.534437 1.86701 0
M  V30 15483 C 1485.72 1.3486 3.20047 0
M  V30 15484 C 1484.67 2.46867 3.49629 0
M  V30 15485 C 1484 2.20369 4.87177 0
M  V30 15486 C 1485.3 3.89205 3.48306 0
M  V30 15487 H 1486.99 2.40683 1.78079 0
M  V30 15488 H 1484.54 1.15845 0.855334 0
M  V30 15489 H 1486.49 1.36869 3.98553 0
M  V30 15490 H 1485.21 0.370859 3.24488 0
M  V30 15491 H 1483.87 2.44146 2.73475 0
M  V30 15492 H 1483.52 1.20931 4.88247 0
M  V30 15493 H 1483.22 2.95426 5.07934 0
M  V30 15494 H 1484.74 2.24099 5.6799 0
M  V30 15495 H 1486.16 3.93626 4.16811 0
M  V30 15496 H 1484.56 4.63969 3.80595 0
M  V30 15497 H 1485.63 4.17144 2.47222 0
M  V30 15498 N 1486.97 -0.927146 1.27443 0
M  V30 15499 C 1488.38 -1.48984 1.1252 0
M  V30 15500 C 1488.73 -1.94051 -0.289602 0
M  V30 15501 O 1487.86 -1.8123 -1.18257 0
M  V30 15502 C 1488.45 -2.70765 2.03646 0
M  V30 15503 C 1487.01 -3.23256 1.92827 0
M  V30 15504 C 1486.16 -1.95991 1.9617 0
M  V30 15505 H 1489.11 -0.741196 1.40328 0
M  V30 15506 H 1489.13 -3.45567 1.5926 0
M  V30 15507 H 1488.64 -2.37933 3.0661 0
M  V30 15508 H 1486.74 -3.60845 0.928516 0
M  V30 15509 H 1486.85 -3.89413 2.79096 0
M  V30 15510 H 1485.22 -2.12508 1.40402 0
M  V30 15511 H 1486 -1.65473 3.00788 0
M  V30 15512 N 1488.45 -1.09474 -1.13372 0
M  V30 15513 C 1489.72 -0.743485 -1.80919 0
M  V30 15514 C 1490.1 0.771414 -1.965 0
M  V30 15515 O 1489.45 1.694 -1.53349 0
M  V30 15516 C 1489.66 -1.48309 -3.1592 0
M  V30 15517 C 1491.01 -1.64921 -3.91263 0
M  V30 15518 O 1492.03 -1.44564 -3.25545 0
M  V30 15519 O 1490.89 -1.98595 -5.09139 0
M  V30 15520 H 1487.99 -0.26713 -0.782669 0
M  V30 15521 H 1490.53 -1.19697 -1.20294 0
M  V30 15522 H 1489.3 -2.51456 -2.99809 0
M  V30 15523 H 1488.93 -1.02181 -3.84246 0
M  V30 15524 N 1489.92 1.30607 -0.882012 0
M  V30 15525 C 1490.89 2.26489 -0.351498 0
M  V30 15526 C 1491.89 1.52686 0.504348 0
M  V30 15527 O 1493.08 1.71385 0.311928 0
M  V30 15528 C 1490.21 3.37222 0.499435 0
M  V30 15529 H 1491.4 2.74929 -1.19809 0
M  V30 15530 H 1488.96 1.41746 -0.658616 0
M  V30 15531 H 1489.69 2.94093 1.36673 0
M  V30 15532 H 1489.48 3.91936 -0.11356 0
M  V30 15533 H 1490.97 4.08596 0.862497 0
M  V30 15534 N 1491.4 0.642663 1.43901 0
M  V30 15535 C 1492.37 -0.0457858 2.29154 0
M  V30 15536 C 1493.37 -0.760988 1.41653 0
M  V30 15537 O 1494.56 -0.603832 1.634 0
M  V30 15538 C 1491.69 -1.07552 3.23489 0
M  V30 15539 H 1492.88 0.704193 2.91515 0
M  V30 15540 H 1490.43 0.403361 1.51006 0
M  V30 15541 H 1491.17 -1.85509 2.66002 0
M  V30 15542 H 1490.95 -0.566468 3.87987 0
M  V30 15543 H 1492.44 -1.55663 3.87503 0
M  V30 15544 N 1492.88 -1.52852 0.383918 0
M  V30 15545 C 1493.79 -2.3002 -0.461298 0
M  V30 15546 C 1494.81 -1.36717 -1.07631 0
M  V30 15547 O 1495.98 -1.69784 -1.08329 0
M  V30 15548 C 1493.05 -3.08804 -1.57609 0
M  V30 15549 C 1492.11 -4.17806 -0.986737 0
M  V30 15550 C 1491.34 -4.92825 -2.04841 0
M  V30 15551 O 1491.57 -4.67879 -3.26259 0
M  V30 15552 O 1490.5 -5.78306 -1.66871 0
M  V30 15553 H 1494.33 -3.03239 0.167189 0
M  V30 15554 H 1491.91 -1.48667 0.147781 0
M  V30 15555 H 1493.79 -3.57943 -2.22384 0
M  V30 15556 H 1492.47 -2.38404 -2.18964 0
M  V30 15557 H 1491.37 -3.72876 -0.302396 0
M  V30 15558 H 1492.71 -4.90426 -0.417481 0
M  V30 15559 N 1494.36 -0.113586 -1.5719 0
M  V30 15560 C 1495.77 0.412653 -1.82083 0
M  V30 15561 C 1496.12 1.66964 -1.03041 0
M  V30 15562 O 1495.25 2.14767 -0.265354 0
M  V30 15563 C 1495.84 0.755439 -3.3027 0
M  V30 15564 C 1494.4 1.22634 -3.55862 0
M  V30 15565 C 1493.55 0.232285 -2.76325 0
M  V30 15566 H 1496.5 -0.338792 -1.55042 0
M  V30 15567 H 1496.52 1.61335 -3.44603 0
M  V30 15568 H 1496.03 -0.1596 -3.87772 0
M  V30 15569 H 1494.13 2.15846 -3.03713 0
M  V30 15570 H 1494.25 1.1754 -4.64458 0
M  V30 15571 H 1492.61 0.718222 -2.44364 0
M  V30 15572 H 1493.39 -0.675756 -3.36583 0
M  V30 15573 N 1495.84 1.56784 0.160173 0
M  V30 15574 C 1497.08 1.84422 0.881348 0
M  V30 15575 C 1497.44 0.696069 1.78938 0
M  V30 15576 O 1498.64 0.853174 2.54901 0
M  V30 15577 C 1496.91 3.17208 1.64662 0
M  V30 15578 S 1498.47 3.66363 2.41503 0
M  V30 15579 H 1495.29 0.646923 0.294978 0
M  V30 15580 H 1497.89 1.94982 0.142215 0
M  V30 15581 H 1496.6 3.98753 0.970782 0
M  V30 15582 H 1496.13 3.0962 2.42692 0
M  V30 15583 H 1498.14 3.34577 3.66432 0
M  V30 15584 N 1497.32 -0.429099 1.51646 0
M  V30 15585 C 1498.25 -1.52867 1.76505 0
M  V30 15586 C 1499.23 -1.58586 0.615178 0
M  V30 15587 O 1500.41 -1.74182 0.858742 0
M  V30 15588 C 1497.54 -2.90875 1.8976 0
M  V30 15589 C 1496.5 -3.00014 3.05247 0
M  V30 15590 C 1495.82 -4.40082 3.03696 0
M  V30 15591 C 1497.12 -2.73334 4.45068 0
M  V30 15592 H 1498.82 -1.32315 2.68576 0
M  V30 15593 H 1496.36 -0.635091 1.29238 0
M  V30 15594 H 1498.31 -3.67765 2.05734 0
M  V30 15595 H 1497.04 -3.12677 0.943442 0
M  V30 15596 H 1495.7 -2.25565 2.88991 0
M  V30 15597 H 1495.35 -4.58864 2.06042 0
M  V30 15598 H 1495.05 -4.47125 3.81252 0
M  V30 15599 H 1496.57 -5.18935 3.21774 0
M  V30 15600 H 1497.98 -3.39954 4.61632 0
M  V30 15601 H 1496.38 -2.91777 5.24391 0
M  V30 15602 H 1497.45 -1.68889 4.54538 0
M  V30 15603 N 1498.79 -1.41931 -0.685074 0
M  V30 15604 C 1500.2 -1.37279 -1.26536 0
M  V30 15605 C 1500.56 -0.0610089 -1.96105 0
M  V30 15606 O 1499.68 0.840508 -1.9941 0
M  V30 15607 C 1500.28 -2.48658 -2.30119 0
M  V30 15608 C 1498.83 -2.47371 -2.83698 0
M  V30 15609 C 1497.98 -2.2797 -1.57876 0
M  V30 15610 H 1500.93 -1.51294 -0.479132 0
M  V30 15611 H 1500.95 -2.18319 -3.11636 0
M  V30 15612 H 1500.47 -3.44118 -1.79456 0
M  V30 15613 H 1498.57 -1.55699 -3.3851 0
M  V30 15614 H 1498.68 -3.44052 -3.33414 0
M  V30 15615 H 1497.04 -1.7604 -1.84071 0
M  V30 15616 H 1497.83 -3.25471 -1.09194 0
M  V30 15617 N 1500.27 0.920374 -1.27933 0
M  V30 15618 C 1501.52 1.66554 -1.14474 0
M  V30 15619 C 1501.84 1.92545 0.308444 0
M  V30 15620 O 1501.11 1.53691 1.21473 0
M  V30 15621 H 1499.69 0.617302 -0.420651 0
M  V30 15622 H 1502.35 1.10473 -1.60567 0
M  V30 15623 H 1501.45 2.63067 -1.67935 0
M  V30 15624 N 1501.75 1.10074 1.1279 0
M  V30 15625 C 1502.71 0.74967 2.16593 0
M  V30 15626 C 1503.71 -0.224046 1.59232 0
M  V30 15627 O 1504.9 -0.00137104 1.742 0
M  V30 15628 C 1502.03 0.109795 3.40723 0
M  V30 15629 H 1503.23 1.66906 2.49164 0
M  V30 15630 H 1500.78 0.900781 1.27733 0
M  V30 15631 H 1501.52 -0.820501 3.13749 0
M  V30 15632 H 1501.3 0.810517 3.83631 0
M  V30 15633 H 1502.79 -0.120198 4.17427 0
M  V30 15634 N 1503.23 -1.30138 0.888926 0
M  V30 15635 C 1504.16 -2.3047 0.374934 0
M  V30 15636 C 1505.14 -1.61156 -0.544322 0
M  V30 15637 O 1506.32 -1.88738 -0.457337 0
M  V30 15638 C 1503.45 -3.44896 -0.407935 0
M  V30 15639 C 1502.41 -4.25935 0.419916 0
M  V30 15640 C 1501.73 -5.32452 -0.489797 0
M  V30 15641 C 1503.03 -4.9508 1.66413 0
M  V30 15642 H 1504.73 -2.73711 1.21337 0
M  V30 15643 H 1502.27 -1.31586 0.584899 0
M  V30 15644 H 1504.23 -4.14153 -0.778177 0
M  V30 15645 H 1502.95 -3.0047 -1.28005 0
M  V30 15646 H 1501.61 -3.58372 0.772348 0
M  V30 15647 H 1501.26 -4.84273 -1.35974 0
M  V30 15648 H 1500.96 -5.87569 0.0603412 0
M  V30 15649 H 1502.48 -6.04563 -0.856468 0
M  V30 15650 H 1503.9 -5.56831 1.36425 0
M  V30 15651 H 1502.29 -5.6008 2.15477 0
M  V30 15652 H 1503.36 -4.20981 2.4063 0
M  V30 15653 N 1504.71 -0.650285 -1.43559 0
M  V30 15654 C 1505.95 -0.162484 -2.01847 0
M  V30 15655 C 1506.28 1.22251 -1.51278 0
M  V30 15656 O 1505.54 1.82939 -0.695115 0
M  V30 15657 C 1505.83 -0.119084 -3.57202 0
M  V30 15658 C 1505.5 -1.44543 -4.27104 0
M  V30 15659 C 1504.16 -1.80864 -4.45917 0
M  V30 15660 C 1506.51 -2.32005 -4.66715 0
M  V30 15661 C 1503.84 -3.04319 -5.01604 0
M  V30 15662 C 1506.19 -3.54748 -5.23771 0
M  V30 15663 C 1504.86 -3.9127 -5.408 0
M  V30 15664 H 1504.13 -0.0594573 -0.738611 0
M  V30 15665 H 1506.78 -0.84041 -1.72074 0
M  V30 15666 H 1505.08 0.642282 -3.865 0
M  V30 15667 H 1506.78 0.275168 -4.00055 0
M  V30 15668 H 1503.37 -1.15281 -4.12805 0
M  V30 15669 H 1507.55 -2.05234 -4.51877 0
M  V30 15670 H 1502.81 -3.32668 -5.12974 0
M  V30 15671 H 1506.98 -4.2274 -5.53411 0
M  V30 15672 H 1504.61 -4.87011 -5.83716 0
M  V30 15673 N 1506.18 1.52647 -0.392018 0
M  V30 15674 C 1507.6 1.59544 -0.0421007 0
M  V30 15675 C 1507.8 1.40586 1.44353 0
M  V30 15676 O 1506.86 1.22422 2.20837 0
M  V30 15677 C 1508.17 2.9614 -0.521713 0
M  V30 15678 C 1509.72 3.09325 -0.478205 0
M  V30 15679 C 1510.19 4.48374 -0.93405 0
M  V30 15680 N 1511.68 4.54566 -0.890173 0
M  V30 15681 C 1512.42 5.60395 -1.21427 0
M  V30 15682 N 1511.91 6.73858 -1.60897 0
M  V30 15683 N 1513.71 5.50515 -1.13534 0
M  V30 15684 H 1505.86 1.63219 -1.35917 0
M  V30 15685 H 1508.12 0.766913 -0.557269 0
M  V30 15686 H 1507.83 3.15238 -1.55942 0
M  V30 15687 H 1507.7 3.7712 0.0777658 0
M  V30 15688 H 1510.09 2.89921 0.550418 0
M  V30 15689 H 1510.17 2.30292 -1.11352 0
M  V30 15690 H 1509.81 4.68519 -1.96092 0
M  V30 15691 H 1509.74 5.25878 -0.275717 0
M  V30 15692 H 1512.23 3.7311 -0.599758 0
M  V30 15693 H 1512.55 7.5058 -1.83983 0
M  V30 15694 H 1510.89 6.75182 -1.64786 0
M  V30 15695 H 1514.08 4.60755 -0.825977 0
M  V30 15696 H 1514.26 6.32889 -1.39124 0
M  V30 15697 N 1507.66 0.121921 1.57128 0
M  V30 15698 C 1508.9 -0.538423 1.97181 0
M  V30 15699 C 1509.27 -1.63661 1.00394 0
M  V30 15700 O 1510.47 -2.35606 1.29396 0
M  V30 15701 C 1508.74 -1.05469 3.41484 0
M  V30 15702 S 1510.3 -1.72315 4.0355 0
M  V30 15703 H 1507.12 -0.174913 0.689149 0
M  V30 15704 H 1509.72 0.207694 1.94394 0
M  V30 15705 H 1508.42 -0.244297 4.09672 0
M  V30 15706 H 1507.95 -1.83602 3.47928 0
M  V30 15707 H 1509.97 -3.0091 3.94547 0
M  V30 15708 N 1509.14 -1.56867 -0.151857 0
M  V30 15709 C 1510.55 -1.72573 -0.712411 0
M  V30 15710 C 1510.9 -0.735557 -1.8189 0
M  V30 15711 O 1510.03 0.09888 -2.16174 0
M  V30 15712 C 1510.62 -3.12906 -1.29905 0
M  V30 15713 C 1509.18 -3.30231 -1.80623 0
M  V30 15714 C 1508.33 -2.68507 -0.692781 0
M  V30 15715 H 1511.28 -1.58528 0.0737603 0
M  V30 15716 H 1511.3 -3.12636 -2.16885 0
M  V30 15717 H 1510.81 -3.84949 -0.493509 0
M  V30 15718 H 1508.91 -2.63176 -2.6376 0
M  V30 15719 H 1509.03 -4.38141 -1.93828 0
M  V30 15720 H 1507.39 -2.28842 -1.11818 0
M  V30 15721 H 1508.17 -3.43151 0.10124 0
M  V30 15722 N 1510.62 0.421051 -1.51871 0
M  V30 15723 C 1511.86 1.17082 -1.65589 0
M  V30 15724 C 1512.2 1.90469 -0.378861 0
M  V30 15725 O 1511.47 1.84277 0.622259 0
M  V30 15726 C 1511.76 2.17483 -2.87007 0
M  V30 15727 C 1511.61 1.48071 -4.24729 0
M  V30 15728 C 1512.93 3.18288 -3.03942 0
M  V30 15729 H 1510.05 0.424284 -0.602621 0
M  V30 15730 H 1512.69 0.457998 -1.84397 0
M  V30 15731 H 1510.84 2.78273 -2.71102 0
M  V30 15732 H 1512.51 0.904926 -4.52337 0
M  V30 15733 H 1510.75 0.782814 -4.26678 0
M  V30 15734 H 1511.42 2.21272 -5.0571 0
M  V30 15735 H 1513.9 2.67565 -3.18666 0
M  V30 15736 H 1512.78 3.85815 -3.90433 0
M  V30 15737 H 1513.04 3.85333 -2.16728 0
M  V30 15738 N 1512.1 1.42293 0.677538 0
M  V30 15739 C 1513.34 1.42827 1.43973 0
M  V30 15740 C 1513.68 0.0435041 1.94151 0
M  V30 15741 O 1512.95 -0.931794 1.70727 0
M  V30 15742 C 1513.23 2.45037 2.63873 0
M  V30 15743 C 1513.09 3.92694 2.19344 0
M  V30 15744 C 1514.41 2.4427 3.66087 0
M  V30 15745 H 1511.52 0.520097 0.522176 0
M  V30 15746 H 1514.17 1.73688 0.770219 0
M  V30 15747 H 1512.32 2.18851 3.20993 0
M  V30 15748 H 1513.99 4.2985 1.67412 0
M  V30 15749 H 1512.23 4.06692 1.50944 0
M  V30 15750 H 1512.9 4.59784 3.05455 0
M  V30 15751 H 1515.38 2.67551 3.18678 0
M  V30 15752 H 1514.25 3.17769 4.47564 0
M  V30 15753 H 1514.52 1.46769 4.17027 0
M  V30 15754 N 1513.57 -0.913576 1.28419 0
M  V30 15755 C 1514.82 -1.66273 1.15584 0
M  V30 15756 C 1515.15 -1.92242 -0.295541 0
M  V30 15757 O 1514.4 -1.52104 -1.23137 0
M  V30 15758 C 1514.7 -3.02722 1.89985 0
M  V30 15759 C 1514.37 -2.96413 3.3978 0
M  V30 15760 C 1513.03 -2.94399 3.80635 0
M  V30 15761 C 1515.38 -2.86648 4.35296 0
M  V30 15762 C 1512.71 -2.80422 5.15345 0
M  V30 15763 C 1515.06 -2.74211 5.7008 0
M  V30 15764 C 1513.73 -2.70556 6.1021 0
M  V30 15765 H 1513 -0.608435 0.422951 0
M  V30 15766 H 1515.64 -1.06438 1.59196 0
M  V30 15767 H 1513.95 -3.66344 1.38923 0
M  V30 15768 H 1515.65 -3.59591 1.7747 0
M  V30 15769 H 1512.24 -2.98775 3.07297 0
M  V30 15770 H 1516.42 -2.87291 4.04695 0
M  V30 15771 H 1511.68 -2.75987 5.45565 0
M  V30 15772 H 1515.85 -2.65624 6.43752 0
M  V30 15773 H 1513.48 -2.59483 7.14544 0
M  V30 15774 N 1515.05 -1.1067 -1.12204 0
M  V30 15775 C 1516.47 -0.838988 -1.35769 0
M  V30 15776 C 1516.67 0.540345 -1.9412 0
M  V30 15777 O 1515.72 1.29274 -2.16897 0
M  V30 15778 C 1517.04 -1.94065 -2.29694 0
M  V30 15779 C 1518.59 -1.96938 -2.43279 0
M  V30 15780 C 1519.06 -3.06284 -3.4052 0
M  V30 15781 N 1520.55 -3.05607 -3.48079 0
M  V30 15782 C 1521.29 -3.86855 -4.23238 0
M  V30 15783 N 1520.78 -4.78046 -5.01442 0
M  V30 15784 N 1522.58 -3.75064 -4.18669 0
M  V30 15785 H 1514.73 -1.99575 -0.726878 0
M  V30 15786 H 1516.99 -0.867423 -0.382467 0
M  V30 15787 H 1516.7 -2.93356 -1.93997 0
M  V30 15788 H 1516.57 -1.82992 -3.29839 0
M  V30 15789 H 1518.96 -0.982774 -2.78254 0
M  V30 15790 H 1519.04 -2.12087 -1.43014 0
M  V30 15791 H 1518.68 -4.05165 -3.06273 0
M  V30 15792 H 1518.61 -2.88376 -4.40621 0
M  V30 15793 H 1521.1 -2.39531 -2.9229 0
M  V30 15794 H 1521.42 -5.36594 -5.56136 0
M  V30 15795 H 1519.76 -4.82073 -5.0063 0
M  V30 15796 H 1522.95 -3.03172 -3.56657 0
M  V30 15797 H 1523.12 -4.38618 -4.76988 0
M  V30 15798 N 1516.53 1.29665 -0.895815 0
M  V30 15799 C 1517.46 2.26842 -0.327939 0
M  V30 15800 C 1518.48 1.54151 0.523578 0
M  V30 15801 O 1519.66 1.75205 0.341367 0
M  V30 15802 C 1516.76 3.34384 0.551393 0
M  V30 15803 C 1515.94 4.36544 -0.273514 0
M  V30 15804 C 1515 5.23442 0.538031 0
M  V30 15805 O 1514.02 5.69184 -0.0431025 0
M  V30 15806 N 1515.22 5.50402 1.84493 0
M  V30 15807 H 1517.99 2.76208 -1.16315 0
M  V30 15808 H 1515.55 1.42958 -0.759903 0
M  V30 15809 H 1517.54 3.89446 1.10062 0
M  V30 15810 H 1516.11 2.84864 1.28728 0
M  V30 15811 H 1515.33 3.81196 -1.00416 0
M  V30 15812 H 1516.62 5.01842 -0.838589 0
M  V30 15813 H 1516.02 5.15041 2.33985 0
M  V30 15814 H 1514.58 6.08295 2.34137 0
M  V30 15815 N 1518.01 0.657889 1.43212 0
M  V30 15816 C 1518.92 -0.0313677 2.34579 0
M  V30 15817 C 1519.93 -0.807153 1.54146 0
M  V30 15818 O 1521.11 -0.753335 1.8678 0
M  V30 15819 C 1518.18 -0.982659 3.32483 0
M  V30 15820 C 1517.24 -0.203288 4.28818 0
M  V30 15821 C 1516.47 -1.10927 5.22045 0
M  V30 15822 O 1516.69 -2.34861 5.19804 0
M  V30 15823 O 1515.63 -0.57916 5.99107 0
M  V30 15824 H 1519.45 0.720808 2.95022 0
M  V30 15825 H 1517.04 0.418083 1.43431 0
M  V30 15826 H 1518.92 -1.52923 3.92673 0
M  V30 15827 H 1517.59 -1.71498 2.74536 0
M  V30 15828 H 1516.5 0.386982 3.72093 0
M  V30 15829 H 1517.83 0.489562 4.89759 0
M  V30 15830 N 1519.49 -1.52437 0.400108 0
M  V30 15831 C 1520.74 -2.00896 -0.179909 0
M  V30 15832 C 1521.05 -1.29046 -1.46991 0
M  V30 15833 O 1522.25 -1.68274 -2.13063 0
M  V30 15834 C 1520.71 -3.57981 -0.371169 0
M  V30 15835 C 1520.32 -4.38739 0.906213 0
M  V30 15836 C 1522.06 -4.14698 -0.906965 0
M  V30 15837 C 1519.97 -5.87447 0.682637 0
M  V30 15838 H 1518.9 -0.750649 -0.071008 0
M  V30 15839 H 1521.55 -1.75854 0.524169 0
M  V30 15840 H 1519.93 -3.79315 -1.13736 0
M  V30 15841 H 1521.11 -4.29167 1.67785 0
M  V30 15842 H 1519.42 -3.93296 1.36776 0
M  V30 15843 H 1522.02 -5.2347 -1.09012 0
M  V30 15844 H 1522.36 -3.71477 -1.87911 0
M  V30 15845 H 1522.89 -3.97297 -0.200068 0
M  V30 15846 H 1519.63 -6.35011 1.62608 0
M  V30 15847 H 1519.15 -5.99779 -0.0498716 0
M  V30 15848 H 1520.83 -6.46202 0.321331 0
M  V30 15849 N 1520.96 -0.130252 -1.57061 0
M  V30 15850 C 1521.89 0.812189 -2.18919 0
M  V30 15851 C 1522.88 1.2692 -1.13249 0
M  V30 15852 O 1524.06 1.32978 -1.41529 0
M  V30 15853 C 1521.19 2.05803 -2.79754 0
M  V30 15854 C 1520.14 1.73841 -3.91105 0
M  V30 15855 C 1519.47 3.05549 -4.38799 0
M  V30 15856 C 1520.77 0.997991 -5.12677 0
M  V30 15857 H 1522.46 0.296692 -2.97926 0
M  V30 15858 H 1520.01 0.141265 -1.43305 0
M  V30 15859 H 1521.96 2.72201 -3.21691 0
M  V30 15860 H 1520.69 2.59697 -1.98053 0
M  V30 15861 H 1519.35 1.09828 -3.49762 0
M  V30 15862 H 1518.99 3.57399 -3.53942 0
M  V30 15863 H 1518.69 2.84932 -5.13894 0
M  V30 15864 H 1520.22 3.73045 -4.83394 0
M  V30 15865 H 1521.63 1.56372 -5.51562 0
M  V30 15866 H 1520.03 0.892378 -5.93428 0
M  V30 15867 H 1521.1 -0.0132936 -4.84898 0
M  V30 15868 N 1522.44 1.56945 0.143535 0
M  V30 15869 C 1523.69 1.8381 0.856831 0
M  V30 15870 C 1524.02 0.712375 1.80662 0
M  V30 15871 O 1523.3 -0.283743 1.92419 0
M  V30 15872 C 1523.58 3.21184 1.62828 0
M  V30 15873 C 1523.43 4.44324 0.699744 0
M  V30 15874 C 1524.75 3.5582 2.58999 0
M  V30 15875 H 1521.87 0.668611 0.310046 0
M  V30 15876 H 1524.51 1.89609 0.1219 0
M  V30 15877 H 1522.66 3.16372 2.2548 0
M  V30 15878 H 1524.34 4.61224 0.0839619 0
M  V30 15879 H 1522.58 4.33799 0.0095529 0
M  V30 15880 H 1523.25 5.37058 1.27564 0
M  V30 15881 H 1525.73 3.61264 2.06464 0
M  V30 15882 H 1524.6 4.52964 3.10024 0
M  V30 15883 H 1524.86 2.81956 3.40519 0
M  V30 15884 N 1523.92 -0.412991 1.52093 0
M  V30 15885 C 1524.85 -1.52187 1.71382 0
M  V30 15886 C 1525.87 -1.51567 0.594247 0
M  V30 15887 O 1527.06 -1.55902 0.869293 0
M  V30 15888 C 1524.16 -2.91086 1.73557 0
M  V30 15889 C 1523.33 -3.15941 3.0249 0
M  V30 15890 C 1522.39 -4.34692 2.96529 0
M  V30 15891 O 1521.41 -4.3216 3.70441 0
M  V30 15892 N 1522.62 -5.39594 2.14052 0
M  V30 15893 H 1525.38 -1.36036 2.67047 0
M  V30 15894 H 1522.94 -0.602243 1.50282 0
M  V30 15895 H 1524.93 -3.68589 1.67106 0
M  V30 15896 H 1523.5 -3.00714 0.85382 0
M  V30 15897 H 1522.72 -2.26517 3.2262 0
M  V30 15898 H 1524.01 -3.29388 3.87789 0
M  V30 15899 H 1523.41 -5.44498 1.53424 0
M  V30 15900 H 1521.97 -6.15855 2.13461 0
M  V30 15901 N 1525.4 -1.4265 -0.669982 0
M  V30 15902 C 1526.65 -1.43589 -1.43213 0
M  V30 15903 C 1526.98 -0.0537998 -1.94125 0
M  V30 15904 O 1526.25 0.922727 -1.71219 0
M  V30 15905 C 1526.54 -2.46433 -2.62569 0
M  V30 15906 C 1526.39 -3.93851 -2.17258 0
M  V30 15907 C 1527.71 -2.46208 -3.64787 0
M  V30 15908 H 1524.83 -0.522859 -0.519411 0
M  V30 15909 H 1527.47 -1.74094 -0.760997 0
M  V30 15910 H 1525.62 -2.20551 -3.19828 0
M  V30 15911 H 1527.29 -4.30732 -1.6513 0
M  V30 15912 H 1525.53 -4.07487 -1.48786 0
M  V30 15913 H 1526.21 -4.61398 -3.03012 0
M  V30 15914 H 1528.68 -2.69237 -3.17255 0
M  V30 15915 H 1527.56 -3.20138 -4.45873 0
M  V30 15916 H 1527.82 -1.48979 -4.16242 0
M  V30 15917 N 1526.88 0.906753 -1.28902 0
M  V30 15918 C 1528.13 1.65119 -1.15839 0
M  V30 15919 C 1528.44 1.93426 0.290825 0
M  V30 15920 O 1529.65 2.66021 0.542678 0
M  V30 15921 C 1528.1 2.97492 -2.0255 0
M  V30 15922 C 1527.71 2.76807 -3.52253 0
M  V30 15923 C 1529.45 3.75393 -1.98192 0
M  V30 15924 C 1527.36 4.04863 -4.31091 0
M  V30 15925 H 1526.29 0.619409 -0.429939 0
M  V30 15926 H 1528.94 1.00567 -1.53488 0
M  V30 15927 H 1527.32 3.63217 -1.57763 0
M  V30 15928 H 1528.5 2.19719 -4.05044 0
M  V30 15929 H 1526.81 2.1231 -3.58209 0
M  V30 15930 H 1529.41 4.70325 -2.54358 0
M  V30 15931 H 1529.75 4.05074 -0.960267 0
M  V30 15932 H 1530.29 3.16498 -2.40985 0
M  V30 15933 H 1527.02 3.80353 -5.33865 0
M  V30 15934 H 1526.54 4.61537 -3.83072 0
M  V30 15935 H 1528.22 4.73066 -4.41381 0
M  V30 15936 N 1528.36 1.11264 1.11616 0
M  V30 15937 C 1529.6 0.858664 1.82952 0
M  V30 15938 C 1529.92 -0.617439 1.84967 0
M  V30 15939 O 1529.19 -1.44849 1.31893 0
M  V30 15940 H 1527.77 0.314671 0.677489 0
M  V30 15941 H 1530.44 1.40466 1.35113 0
M  V30 15942 H 1529.53 1.22921 2.86874 0
M  V30 15943 N 1529.83 -1.29188 0.902679 0
M  V30 15944 C 1531.06 -1.99576 0.545635 0
M  V30 15945 C 1531.48 -1.67541 -0.870372 0
M  V30 15946 O 1530.83 -0.922082 -1.57493 0
M  V30 15947 C 1530.88 -3.54013 0.731916 0
M  V30 15948 O 1530.61 -3.84914 2.09219 0
M  V30 15949 C 1532.11 -4.41666 0.38022 0
M  V30 15950 H 1529.33 -0.637593 0.209083 0
M  V30 15951 H 1531.87 -1.64652 1.21284 0
M  V30 15952 H 1530.03 -3.87239 0.111849 0
M  V30 15953 H 1530.44 -4.79581 2.12373 0
M  V30 15954 H 1531.91 -5.49138 0.561382 0
M  V30 15955 H 1532.39 -4.33858 -0.682915 0
M  V30 15956 H 1533 -4.13918 0.977354 0
M  V30 15957 N 1531.31 -0.665475 -1.42861 0
M  V30 15958 C 1532.24 0.00482845 -2.335 0
M  V30 15959 C 1533.22 0.799135 -1.50159 0
M  V30 15960 O 1534.41 0.75816 -1.78789 0
M  V30 15961 C 1531.54 0.963347 -3.33672 0
M  V30 15962 C 1530.49 0.278294 -4.27094 0
M  V30 15963 C 1529.82 1.34911 -5.174 0
M  V30 15964 C 1531.12 -0.836925 -5.15551 0
M  V30 15965 H 1532.81 -0.752129 -2.89799 0
M  V30 15966 H 1530.36 -0.363139 -1.39346 0
M  V30 15967 H 1532.31 1.44128 -3.95986 0
M  V30 15968 H 1531.03 1.75161 -2.75656 0
M  V30 15969 H 1529.69 -0.179314 -3.66161 0
M  V30 15970 H 1529.34 2.12912 -4.55716 0
M  V30 15971 H 1529.04 0.895919 -5.8073 0
M  V30 15972 H 1530.57 1.82816 -5.8259 0
M  V30 15973 H 1531.98 -0.440617 -5.71604 0
M  V30 15974 H 1530.38 -1.21533 -5.87665 0
M  V30 15975 H 1531.45 -1.6897 -4.54507 0
M  V30 15976 N 1532.79 1.52222 -0.408187 0
M  V30 15977 C 1533.7 2.30725 0.424645 0
M  V30 15978 C 1534.72 1.38412 1.05442 0
M  V30 15979 O 1535.89 1.71486 1.05614 0
M  V30 15980 C 1532.96 3.11273 1.52677 0
M  V30 15981 C 1532.02 4.19323 0.920143 0
M  V30 15982 C 1531.25 4.96021 1.96974 0
M  V30 15983 O 1531.47 4.73011 3.18774 0
M  V30 15984 O 1530.41 5.80887 1.5765 0
M  V30 15985 H 1534.23 3.02935 -0.215411 0
M  V30 15986 H 1531.82 1.48413 -0.171414 0
M  V30 15987 H 1533.7 3.61436 2.16661 0
M  V30 15988 H 1532.38 2.41857 2.15144 0
M  V30 15989 H 1531.28 3.7331 0.243037 0
M  V30 15990 H 1532.62 4.91028 0.339405 0
M  V30 15991 N 1534.27 0.138579 1.5699 0
M  V30 15992 C 1535.2 -0.800568 2.19347 0
M  V30 15993 C 1536.18 -1.26318 1.13921 0
M  V30 15994 O 1537.36 -1.32226 1.42232 0
M  V30 15995 C 1534.49 -2.04317 2.80842 0
M  V30 15996 C 1533.45 -1.71764 3.92022 0
M  V30 15997 C 1532.77 -3.03217 4.40413 0
M  V30 15998 C 1534.07 -0.970789 5.13199 0
M  V30 15999 H 1535.77 -0.280888 2.98079 0
M  V30 16000 H 1533.31 -0.133663 1.43378 0
M  V30 16001 H 1535.27 -2.70491 3.2313 0
M  V30 16002 H 1533.99 -2.58643 1.99428 0
M  V30 16003 H 1532.65 -1.07972 3.50339 0
M  V30 16004 H 1532.3 -3.55517 3.55832 0
M  V30 16005 H 1532 -2.82203 5.15398 0
M  V30 16006 H 1533.52 -3.70477 4.85365 0
M  V30 16007 H 1534.94 -1.53445 5.52384 0
M  V30 16008 H 1533.33 -0.860895 5.93893 0
M  V30 16009 H 1534.4 0.0390088 4.84884 0
M  V30 16010 N 1535.75 -1.57019 -0.13521 0
M  V30 16011 C 1536.99 -1.84262 -0.847071 0
M  V30 16012 C 1537.32 -0.721946 -1.80282 0
M  V30 16013 O 1536.6 0.273535 -1.92567 0
M  V30 16014 C 1536.88 -3.22043 -1.61123 0
M  V30 16015 C 1536.74 -4.44689 -0.67617 0
M  V30 16016 C 1538.05 -3.57188 -2.57108 0
M  V30 16017 H 1535.17 -0.670246 -0.306496 0
M  V30 16018 H 1537.82 -1.89671 -0.111843 0
M  V30 16019 H 1535.97 -3.17563 -2.23799 0
M  V30 16020 H 1537.64 -4.61262 -0.0595009 0
M  V30 16021 H 1535.88 -4.33798 0.0134526 0
M  V30 16022 H 1536.55 -5.37727 -1.24714 0
M  V30 16023 H 1539.03 -3.62354 -2.04545 0
M  V30 16024 H 1537.9 -4.54602 -3.07617 0
M  V30 16025 H 1538.16 -2.83758 -3.39019 0
M  V30 16026 N 1537.22 0.404919 -1.52309 0
M  V30 16027 C 1538.47 1.14921 -1.66246 0
M  V30 16028 C 1538.79 1.90919 -0.396868 0
M  V30 16029 O 1538.06 1.86856 0.588361 0
M  V30 16030 H 1536.64 0.427223 -0.612772 0
M  V30 16031 H 1539.31 0.461091 -1.89367 0
M  V30 16032 H 1538.4 1.86095 -2.5055 0
M  V30 16033 N 1538.7 1.43003 0.662408 0
M  V30 16034 C 1539.61 1.49876 1.80484 0
M  V30 16035 C 1540.63 0.386526 1.69653 0
M  V30 16036 O 1541.8 0.639289 1.90984 0
M  V30 16037 C 1538.87 1.41057 3.16708 0
M  V30 16038 C 1537.93 2.62875 3.39404 0
M  V30 16039 C 1537.16 2.54468 4.69129 0
M  V30 16040 O 1537.39 1.58735 5.47868 0
M  V30 16041 O 1536.32 3.44814 4.93343 0
M  V30 16042 H 1540.15 2.46327 1.77641 0
M  V30 16043 H 1537.73 1.24903 0.81973 0
M  V30 16044 H 1539.61 1.38547 3.97973 0
M  V30 16045 H 1538.29 0.477361 3.20161 0
M  V30 16046 H 1537.2 2.70958 2.57939 0
M  V30 16047 H 1538.53 3.55137 3.40791 0
M  V30 16048 N 1540.18 -0.899904 1.29381 0
M  V30 16049 C 1541.43 -1.64502 1.16713 0
M  V30 16050 C 1541.74 -1.93577 -0.280563 0
M  V30 16051 O 1542.95 -2.66305 -0.528563 0
M  V30 16052 C 1541.4 -2.96414 2.04125 0
M  V30 16053 C 1541.01 -2.74935 3.53716 0
M  V30 16054 C 1542.76 -3.74337 2.0018 0
M  V30 16055 C 1540.66 -4.02571 4.33232 0
M  V30 16056 H 1539.59 -0.617121 0.433218 0
M  V30 16057 H 1542.24 -0.997521 1.54019 0
M  V30 16058 H 1540.63 -3.62375 1.59687 0
M  V30 16059 H 1541.8 -2.17567 4.06203 0
M  V30 16060 H 1540.12 -2.10407 3.5933 0
M  V30 16061 H 1542.71 -4.6897 2.56849 0
M  V30 16062 H 1543.06 -4.04559 0.981735 0
M  V30 16063 H 1543.59 -3.15216 2.4266 0
M  V30 16064 H 1540.33 -3.77516 5.35875 0
M  V30 16065 H 1539.85 -4.59499 3.85514 0
M  V30 16066 H 1541.53 -4.70719 4.43884 0
M  V30 16067 N 1541.66 -1.11854 -1.11024 0
M  V30 16068 C 1542.57 -0.79368 -2.20767 0
M  V30 16069 C 1543.58 0.214996 -1.72667 0
M  V30 16070 O 1544.76 0.0500976 -2.01338 0
M  V30 16071 C 1541.83 -0.246375 -3.45823 0
M  V30 16072 C 1540.89 -1.31421 -4.0869 0
M  V30 16073 C 1540.12 -0.792922 -5.27777 0
M  V30 16074 O 1540.34 0.375492 -5.69163 0
M  V30 16075 O 1539.28 -1.55971 -5.8134 0
M  V30 16076 H 1543.1 -1.71011 -2.50976 0
M  V30 16077 H 1540.69 -0.894752 -1.19643 0
M  V30 16078 H 1542.57 0.0542632 -4.21365 0
M  V30 16079 H 1541.24 0.642703 -3.17255 0
M  V30 16080 H 1540.15 -1.66792 -3.3486 0
M  V30 16081 H 1541.48 -2.17683 -4.41446 0
M  V30 16082 N 1543.14 1.28707 -0.909517 0
M  V30 16083 C 1544.1 2.25692 -0.39946 0
M  V30 16084 C 1545.1 1.53721 0.471848 0
M  V30 16085 O 1546.29 1.72008 0.275504 0
M  V30 16086 C 1543.42 3.38205 0.427793 0
M  V30 16087 H 1544.61 2.72326 -1.25613 0
M  V30 16088 H 1542.17 1.40317 -0.688535 0
M  V30 16089 H 1542.9 2.96926 1.30404 0
M  V30 16090 H 1542.69 3.91606 -0.19667 0
M  V30 16091 H 1544.18 4.10334 0.775634 0
M  V30 16092 N 1544.61 0.673042 1.42506 0
M  V30 16093 C 1545.84 0.201349 2.0642 0
M  V30 16094 C 1546.26 -1.132 1.50224 0
M  V30 16095 O 1545.62 -1.70368 0.620024 0
M  V30 16096 C 1545.67 0.14505 3.60308 0
M  V30 16097 O 1544.77 -0.886953 4.02749 0
M  V30 16098 H 1544.12 0.103975 0.655809 0
M  V30 16099 H 1546.65 0.921559 1.8267 0
M  V30 16100 H 1546.66 -0.0316792 4.07988 0
M  V30 16101 H 1545.33 1.11829 4.00583 0
M  V30 16102 H 1543.91 -0.681408 3.66621 0
M  V30 16103 N 1546.09 -1.52004 0.416254 0
M  V30 16104 C 1547.32 -2.0679 -0.158937 0
M  V30 16105 C 1547.74 -1.28366 -1.37491 0
M  V30 16106 O 1547.1 -0.315815 -1.78528 0
M  V30 16107 C 1547.15 -3.57381 -0.480717 0
M  V30 16108 O 1546.25 -3.81321 -1.5706 0
M  V30 16109 H 1545.59 -0.663907 -0.0110938 0
M  V30 16110 H 1548.12 -1.95863 0.591509 0
M  V30 16111 H 1548.13 -4.01283 -0.737297 0
M  V30 16112 H 1546.81 -4.13893 0.408137 0
M  V30 16113 H 1545.39 -3.49296 -1.30563 0
M  V30 16114 N 1547.57 -0.146903 -1.56914 0
M  V30 16115 C 1548.5 0.830846 -2.12538 0
M  V30 16116 C 1549.48 1.24243 -1.04892 0
M  V30 16117 O 1550.67 1.33855 -1.32721 0
M  V30 16118 C 1547.79 2.11561 -2.64499 0
M  V30 16119 C 1546.84 1.84995 -3.8429 0
M  V30 16120 S 1547.67 1.04104 -5.25283 0
M  V30 16121 C 1548.83 2.337 -5.80633 0
M  V30 16122 H 1549.06 0.357829 -2.95139 0
M  V30 16123 H 1546.59 0.0673772 -1.54253 0
M  V30 16124 H 1548.55 2.85366 -2.95087 0
M  V30 16125 H 1547.21 2.55977 -1.82028 0
M  V30 16126 H 1546.41 2.8026 -4.18892 0
M  V30 16127 H 1546.01 1.19298 -3.54463 0
M  V30 16128 H 1548.3 3.29351 -5.92059 0
M  V30 16129 H 1549.24 2.03603 -6.78197 0
M  V30 16130 H 1549.65 2.44344 -5.08878 0
M  V30 16131 N 1549.05 1.57088 0.126881 0
M  V30 16132 C 1550.3 1.84436 0.836048 0
M  V30 16133 C 1550.62 0.730824 1.80248 0
M  V30 16134 O 1549.88 -0.278509 1.93708 0
M  V30 16135 C 1550.18 3.18225 1.62688 0
M  V30 16136 C 1549.84 4.43648 0.80545 0
M  V30 16137 C 1548.51 4.77705 0.578901 0
M  V30 16138 C 1550.86 5.20682 0.232355 0
M  V30 16139 C 1548.19 5.86245 -0.231126 0
M  V30 16140 C 1550.54 6.30073 -0.564819 0
M  V30 16141 C 1549.2 6.62667 -0.801759 0
M  V30 16142 H 1548.47 0.674898 0.305932 0
M  V30 16143 H 1551.12 1.91245 0.0987618 0
M  V30 16144 H 1549.42 3.06956 2.43485 0
M  V30 16145 H 1551.12 3.36604 2.17942 0
M  V30 16146 H 1547.71 4.16959 0.99211 0
M  V30 16147 H 1551.89 4.94729 0.394616 0
M  V30 16148 H 1547.15 6.09928 -0.423998 0
M  V30 16149 H 1551.32 6.8895 -1.01592 0
M  V30 16150 H 1548.95 7.46605 -1.43126 0
M  V30 16151 N 1550.53 -0.396836 1.52522 0
M  V30 16152 C 1551.75 -1.16857 1.71345 0
M  V30 16153 C 1552.18 -1.83178 0.427465 0
M  V30 16154 O 1551.53 -1.7051 -0.616123 0
M  V30 16155 C 1551.58 -2.19817 2.85855 0
M  V30 16156 O 1550.69 -3.26233 2.52281 0
M  V30 16157 H 1550.03 -0.340554 0.570017 0
M  V30 16158 H 1552.56 -0.463532 1.9928 0
M  V30 16159 H 1552.57 -2.63944 3.11123 0
M  V30 16160 H 1551.24 -1.70931 3.79151 0
M  V30 16161 H 1549.82 -2.87299 2.37726 0
M  V30 16162 N 1552.01 -1.43353 -0.654814 0
M  V30 16163 C 1552.94 -1.51194 -1.7794 0
M  V30 16164 C 1553.92 -0.366747 -1.66099 0
M  V30 16165 O 1555.1 -0.58375 -1.85219 0
M  V30 16166 C 1552.23 -1.43298 -3.16359 0
M  V30 16167 C 1551.19 -2.5605 -3.42961 0
M  V30 16168 C 1550.51 -2.33208 -4.81163 0
M  V30 16169 C 1551.81 -3.98303 -3.37864 0
M  V30 16170 H 1553.51 -2.4532 -1.71635 0
M  V30 16171 H 1551.05 -1.18072 -0.824319 0
M  V30 16172 H 1553 -1.47388 -3.94784 0
M  V30 16173 H 1551.73 -0.456761 -3.2339 0
M  V30 16174 H 1550.39 -2.5131 -2.66906 0
M  V30 16175 H 1550.04 -1.33833 -4.84869 0
M  V30 16176 H 1549.74 -3.08789 -4.99923 0
M  V30 16177 H 1551.26 -2.39079 -5.61848 0
M  V30 16178 H 1552.67 -4.04538 -4.06229 0
M  V30 16179 H 1551.07 -4.73897 -3.6816 0
M  V30 16180 H 1552.14 -4.23552 -2.36075 0
M  V30 16181 N 1553.48 0.89303 -1.29857 0
M  V30 16182 C 1554.72 1.65836 -1.19489 0
M  V30 16183 C 1555.09 1.90389 0.248194 0
M  V30 16184 O 1556.29 2.6457 0.474963 0
M  V30 16185 C 1554.56 2.96706 -1.9925 0
M  V30 16186 S 1556.12 3.8771 -2.05492 0
M  V30 16187 H 1552.94 0.569282 -0.425956 0
M  V30 16188 H 1555.54 1.06061 -1.64229 0
M  V30 16189 H 1554.24 2.76554 -3.03226 0
M  V30 16190 H 1553.77 3.61518 -1.55141 0
M  V30 16191 H 1555.79 4.82052 -1.17644 0
M  V30 16192 N 1554.96 1.12442 1.10429 0
M  V30 16193 C 1556.19 0.902914 1.86714 0
M  V30 16194 C 1556.61 -0.542514 1.80107 0
M  V30 16195 O 1555.97 -1.38406 1.17105 0
M  V30 16196 C 1556.02 1.38238 3.33051 0
M  V30 16197 O 1555.12 0.560877 4.08568 0
M  V30 16198 H 1554.46 0.324397 0.579364 0
M  V30 16199 H 1556.99 1.49652 1.39519 0
M  V30 16200 H 1557 1.38148 3.839 0
M  V30 16201 H 1555.68 2.43486 3.37176 0
M  V30 16202 H 1554.25 0.628771 3.67561 0
M  V30 16203 N 1556.44 -1.28223 0.91633 0
M  V30 16204 C 1557.66 -1.99523 0.566147 0
M  V30 16205 C 1558.09 -1.68 -0.846034 0
M  V30 16206 O 1557.45 -0.913838 -1.56584 0
M  V30 16207 C 1557.5 -3.51949 0.785114 0
M  V30 16208 O 1556.6 -4.1211 -0.154686 0
M  V30 16209 H 1555.94 -0.626764 0.219232 0
M  V30 16210 H 1558.47 -1.63313 1.23247 0
M  V30 16211 H 1558.48 -4.02016 0.696224 0
M  V30 16212 H 1557.16 -3.74227 1.81457 0
M  V30 16213 H 1555.73 -3.72896 -0.0168463 0
M  V30 16214 N 1557.92 -0.68059 -1.42147 0
M  V30 16215 C 1558.85 -0.0199376 -2.33491 0
M  V30 16216 C 1559.83 0.783164 -1.50999 0
M  V30 16217 O 1561.01 0.739154 -1.79583 0
M  V30 16218 C 1558.14 0.927902 -3.34675 0
M  V30 16219 C 1557.1 0.232979 -4.27365 0
M  V30 16220 C 1556.42 1.29415 -5.18802 0
M  V30 16221 C 1557.72 -0.891559 -5.14634 0
M  V30 16222 H 1559.42 -0.782823 -2.88985 0
M  V30 16223 H 1556.96 -0.377898 -1.38953 0
M  V30 16224 H 1558.92 1.3992 -3.97493 0
M  V30 16225 H 1557.64 1.72228 -2.77498 0
M  V30 16226 H 1556.3 -0.21814 -3.6595 0
M  V30 16227 H 1555.95 2.08067 -4.57949 0
M  V30 16228 H 1555.65 0.834274 -5.81647 0
M  V30 16229 H 1557.17 1.76627 -5.84496 0
M  V30 16230 H 1558.59 -0.501219 -5.71105 0
M  V30 16231 H 1556.98 -1.27759 -5.86343 0
M  V30 16232 H 1558.05 -1.73781 -4.5269 0
M  V30 16233 N 1559.4 1.51781 -0.424309 0
M  V30 16234 C 1560.62 2.06871 0.147968 0
M  V30 16235 C 1561.05 1.29093 1.36808 0
M  V30 16236 O 1560.4 0.325279 1.78358 0
M  V30 16237 C 1560.45 3.57631 0.461757 0
M  V30 16238 O 1559.56 3.82149 1.55035 0
M  V30 16239 H 1558.9 0.663957 0.00757275 0
M  V30 16240 H 1561.43 1.95547 -0.601888 0
M  V30 16241 H 1561.44 4.01668 0.716005 0
M  V30 16242 H 1560.11 4.1367 -0.430081 0
M  V30 16243 H 1558.69 3.49984 1.28709 0
M  V30 16244 N 1560.87 0.155222 1.56834 0
M  V30 16245 C 1562.12 -0.493831 1.95561 0
M  V30 16246 C 1562.44 -1.65468 1.04305 0
M  V30 16247 O 1563.64 -2.36891 1.32646 0
M  V30 16248 C 1562.1 -0.929923 3.47679 0
M  V30 16249 C 1561.71 0.204447 4.47533 0
M  V30 16250 C 1563.45 -1.5483 3.95257 0
M  V30 16251 C 1561.36 -0.250375 5.9087 0
M  V30 16252 H 1560.29 -0.188258 0.73012 0
M  V30 16253 H 1562.94 0.240883 1.81912 0
M  V30 16254 H 1561.32 -1.72014 3.56689 0
M  V30 16255 H 1562.49 0.981535 4.50225 0
M  V30 16256 H 1560.81 0.731756 4.0992 0
M  V30 16257 H 1563.41 -1.90036 4.9979 0
M  V30 16258 H 1563.75 -2.44031 3.37275 0
M  V30 16259 H 1564.28 -0.822828 3.89197 0
M  V30 16260 H 1561.02 0.606461 6.52689 0
M  V30 16261 H 1560.54 -0.993164 5.9152 0
M  V30 16262 H 1562.22 -0.699645 6.43206 0
M  V30 16263 N 1562.35 -1.57153 -0.118549 0
M  V30 16264 C 1563.58 -1.89434 -0.844355 0
M  V30 16265 C 1564 -0.747203 -1.72622 0
M  V30 16266 O 1563.36 0.302252 -1.78763 0
M  V30 16267 C 1563.41 -3.20466 -1.65331 0
M  V30 16268 O 1562.51 -3.06403 -2.76027 0
M  V30 16269 H 1561.85 -0.621601 -0.23347 0
M  V30 16270 H 1564.38 -2.04351 -0.100811 0
M  V30 16271 H 1564.39 -3.53197 -2.04245 0
M  V30 16272 H 1563.07 -4.03551 -1.00594 0
M  V30 16273 H 1561.64 -2.85139 -2.40312 0
M  V30 16274 N 1563.83 0.388742 -1.5273 0
M  V30 16275 C 1565.08 1.13375 -1.67787 0
M  V30 16276 C 1565.4 1.89957 -0.417925 0
M  V30 16277 O 1564.66 1.86286 0.599682 0
M  V30 16278 C 1564.96 2.13792 -2.86405 0
M  V30 16279 C 1564.62 1.53865 -4.23835 0
M  V30 16280 C 1563.29 1.37248 -4.61212 0
M  V30 16281 C 1565.64 1.10298 -5.09395 0
M  V30 16282 C 1562.97 0.756119 -5.81807 0
M  V30 16283 C 1565.32 0.500723 -6.30615 0
M  V30 16284 C 1563.98 0.321851 -6.66724 0
M  V30 16285 H 1563.25 0.414868 -0.613975 0
M  V30 16286 H 1565.9 0.418351 -1.86874 0
M  V30 16287 H 1564.2 2.91551 -2.61735 0
M  V30 16288 H 1565.9 2.71346 -2.95249 0
M  V30 16289 H 1562.49 1.67787 -3.94393 0
M  V30 16290 H 1566.68 1.21938 -4.81087 0
M  V30 16291 H 1561.93 0.605734 -6.08392 0
M  V30 16292 H 1566.11 0.154839 -6.96228 0
M  V30 16293 H 1563.73 -0.157836 -7.60036 0
M  V30 16294 N 1565.31 1.43698 0.647203 0
M  V30 16295 C 1566.26 1.49599 1.78109 0
M  V30 16296 C 1567.25 0.369047 1.65331 0
M  V30 16297 O 1568.46 0.543303 1.71605 0
M  V30 16298 H 1564.83 0.46911 0.587741 0
M  V30 16299 H 1566.8 2.45064 1.70253 0
M  V30 16300 C 1565.55 1.44192 3.16392 0
M  V30 16301 H 1564.87 2.30216 3.26865 0
M  V30 16302 H 1566.31 1.52382 3.95671 0
M  V30 16303 C 1564.77 0.16036 3.36518 0
M  V30 16304 O 1565.3 -0.77593 3.94135 0
M  V30 16305 N 1563.51 0.0686236 2.90519 0
M  V30 16306 H 1563.06 0.831363 2.43816 0
M  V30 16307 H 1563.01 -0.78814 3.04361 0
M  V30 16308 N 1566.79 -0.886131 1.30328 0
M  V30 16309 C 1568.01 -1.67625 1.22134 0
M  V30 16310 C 1568.44 -1.86893 -0.212712 0
M  V30 16311 O 1567.79 -1.39905 -1.1531 0
M  V30 16312 C 1567.84 -3.03068 1.95402 0
M  V30 16313 O 1566.95 -3.92022 1.28032 0
M  V30 16314 H 1566.29 -0.512246 0.422493 0
M  V30 16315 H 1568.82 -1.10602 1.72129 0
M  V30 16316 H 1568.83 -3.53119 2.04379 0
M  V30 16317 H 1567.5 -2.88363 2.99699 0
M  V30 16318 H 1566.08 -3.50461 1.27402 0
M  V30 16319 N 1568.26 -1.13026 -1.09832 0
M  V30 16320 C 1569.49 -0.912803 -1.86233 0
M  V30 16321 C 1569.91 0.532955 -1.80392 0
M  V30 16322 O 1569.27 1.37783 -1.17837 0
M  V30 16323 C 1569.32 -1.40002 -3.32313 0
M  V30 16324 O 1568.42 -0.582537 -4.08265 0
M  V30 16325 H 1567.77 -0.327464 -0.577636 0
M  V30 16326 H 1570.3 -1.5039 -1.38723 0
M  V30 16327 H 1570.31 -1.40182 -3.83162 0
M  V30 16328 H 1568.98 -2.4527 -3.3588 0
M  V30 16329 H 1567.56 -0.648255 -3.67222 0
M  V30 16330 N 1569.74 1.27735 -0.923117 0
M  V30 16331 C 1570.69 2.26997 -0.417254 0
M  V30 16332 C 1571.66 1.57968 0.513364 0
M  V30 16333 O 1572.84 1.8581 0.433521 0
M  V30 16334 C 1569.98 3.43537 0.328089 0
M  V30 16335 C 1569.1 4.27291 -0.636112 0
M  V30 16336 C 1568.23 5.31044 0.128614 0
M  V30 16337 C 1567.27 6.06466 -0.828592 0
M  V30 16338 N 1566.41 7.02033 -0.0967858 0
M  V30 16339 H 1571.25 2.69643 -1.26872 0
M  V30 16340 H 1568.79 1.32597 -0.6369 0
M  V30 16341 H 1570.74 4.0991 0.776504 0
M  V30 16342 H 1569.37 3.01855 1.14383 0
M  V30 16343 H 1568.43 3.60875 -1.20306 0
M  V30 16344 H 1569.74 4.79679 -1.36784 0
M  V30 16345 H 1568.89 6.03345 0.637159 0
M  V30 16346 H 1567.63 4.79448 0.893341 0
M  V30 16347 H 1566.64 5.33008 -1.34843 0
M  V30 16348 H 1567.86 6.60151 -1.59303 0
M  V30 16349 H 1565.81 6.52774 0.649779 0
M  V30 16350 H 1565.72 7.52087 -0.768171 0
M  V30 16351 H 1566.99 7.78517 0.391257 0
M  V30 16352 N 1571.22 0.688118 1.41784 0
M  V30 16353 C 1572.17 -0.00492036 2.27999 0
M  V30 16354 C 1573.15 -0.760299 1.41804 0
M  V30 16355 O 1574.35 -0.637019 1.6514 0
M  V30 16356 C 1571.48 -0.945951 3.3001 0
M  V30 16357 C 1570.56 -0.187213 4.23687 0
M  V30 16358 N 1570.95 0.815028 4.9919 0
M  V30 16359 C 1569.25 -0.423765 4.43982 0
M  V30 16360 C 1569.95 1.26854 5.677 0
M  V30 16361 N 1568.93 0.595901 5.40324 0
M  V30 16362 H 1572.73 0.763628 2.83806 0
M  V30 16363 H 1570.24 0.518314 1.53907 0
M  V30 16364 H 1572.24 -1.45754 3.90591 0
M  V30 16365 H 1570.9 -1.71418 2.75764 0
M  V30 16366 H 1571.91 1.19502 5.03924 0
M  V30 16367 H 1568.59 -1.17046 4.00757 0
M  V30 16368 H 1569.98 2.0998 6.38246 0
M  V30 16369 N 1572.7 -1.51554 0.432352 0
M  V30 16370 C 1573.95 -2.02044 -0.135779 0
M  V30 16371 C 1574.27 -1.31679 -1.43147 0
M  V30 16372 O 1573.53 -0.418849 -1.91165 0
M  V30 16373 C 1573.83 -3.55076 -0.406915 0
M  V30 16374 C 1573.49 -4.43704 0.802356 0
M  V30 16375 C 1572.16 -4.67647 1.134 0
M  V30 16376 C 1574.51 -4.95733 1.6093 0
M  V30 16377 C 1571.84 -5.40865 2.27335 0
M  V30 16378 C 1574.19 -5.702 2.73961 0
M  V30 16379 C 1572.85 -5.92408 3.07585 0
M  V30 16380 H 1572.12 -0.739332 -0.0496851 0
M  V30 16381 H 1574.77 -1.82552 0.578528 0
M  V30 16382 H 1573.07 -3.72872 -1.20306 0
M  V30 16383 H 1574.77 -3.91673 -0.859839 0
M  V30 16384 H 1571.36 -4.25261 0.533923 0
M  V30 16385 H 1575.54 -4.77123 1.3663 0
M  V30 16386 H 1570.8 -5.56276 2.53706 0
M  V30 16387 H 1574.97 -6.09506 3.36861 0
M  V30 16388 H 1572.6 -6.48923 3.95984 0
M  V30 16389 N 1574.18 -0.163538 -1.56749 0
M  V30 16390 C 1575.13 0.781904 -2.14173 0
M  V30 16391 C 1576.11 1.19818 -1.07389 0
M  V30 16392 O 1577.3 1.16184 -1.3353 0
M  V30 16393 C 1574.43 2.01433 -2.77992 0
M  V30 16394 C 1573.52 1.6204 -3.91923 0
M  V30 16395 N 1573.91 0.935598 -4.97072 0
M  V30 16396 C 1572.21 1.91197 -4.02939 0
M  V30 16397 C 1572.91 0.742806 -5.76938 0
M  V30 16398 N 1571.88 1.28183 -5.28271 0
M  V30 16399 H 1575.69 0.249647 -2.92838 0
M  V30 16400 H 1573.2 0.0374224 -1.62357 0
M  V30 16401 H 1575.2 2.7018 -3.17504 0
M  V30 16402 H 1573.86 2.55161 -2.00806 0
M  V30 16403 H 1574.87 0.594507 -5.14476 0
M  V30 16404 H 1571.54 2.46657 -3.36848 0
M  V30 16405 H 1572.93 0.201845 -6.71597 0
M  V30 16406 N 1575.65 1.57214 0.110213 0
M  V30 16407 C 1576.58 2.04015 1.13579 0
M  V30 16408 C 1577.57 0.926215 1.42672 0
M  V30 16409 O 1578.75 1.19651 1.52962 0
M  V30 16410 C 1575.88 2.45187 2.45969 0
M  V30 16411 C 1574.83 3.60105 2.31319 0
M  V30 16412 C 1574.16 3.87205 3.68749 0
M  V30 16413 C 1575.46 4.91526 1.76635 0
M  V30 16414 H 1577.15 2.89944 0.746496 0
M  V30 16415 H 1574.7 1.39488 0.357642 0
M  V30 16416 H 1576.65 2.76534 3.17973 0
M  V30 16417 H 1575.38 1.56238 2.86805 0
M  V30 16418 H 1574.04 3.28981 1.61762 0
M  V30 16419 H 1573.68 2.95448 4.07087 0
M  V30 16420 H 1573.38 4.64563 3.59798 0
M  V30 16421 H 1574.91 4.21013 4.42245 0
M  V30 16422 H 1576.32 5.21351 2.38465 0
M  V30 16423 H 1574.72 5.72944 1.78482 0
M  V30 16424 H 1575.79 4.79456 0.724573 0
M  V30 16425 N 1577.13 -0.380637 1.52934 0
M  V30 16426 C 1578.36 -1.14417 1.72024 0
M  V30 16427 C 1578.77 -1.83962 0.442128 0
M  V30 16428 O 1578.11 -1.73839 -0.593766 0
M  V30 16429 C 1578.18 -2.22944 2.82022 0
M  V30 16430 C 1577.84 -1.73295 4.22869 0
M  V30 16431 C 1578.84 -1.20515 5.05739 0
M  V30 16432 C 1576.52 -1.79264 4.69222 0
M  V30 16433 C 1578.52 -0.743632 6.33047 0
M  V30 16434 C 1576.2 -1.32724 5.96513 0
M  V30 16435 C 1577.2 -0.803615 6.78256 0
M  V30 16436 O 1576.89 -0.34503 8.03159 0
M  V30 16437 H 1576.62 -0.348676 0.579138 0
M  V30 16438 H 1579.17 -0.450113 2.00407 0
M  V30 16439 H 1577.4 -2.95798 2.49079 0
M  V30 16440 H 1579.09 -2.84575 2.89434 0
M  V30 16441 H 1579.86 -1.15254 4.71107 0
M  V30 16442 H 1575.74 -2.18962 4.0568 0
M  V30 16443 H 1579.28 -0.334251 6.96799 0
M  V30 16444 H 1575.18 -1.37673 6.30648 0
M  V30 16445 H 1575.95 -0.465743 8.17174 0
M  V30 16446 N 1578.61 -1.44039 -0.639573 0
M  V30 16447 C 1579.86 -1.46088 -1.39652 0
M  V30 16448 C 1580.18 -0.0914602 -1.94785 0
M  V30 16449 O 1579.45 0.875097 -1.75268 0
M  V30 16450 H 1578.03 -0.537901 -0.518335 0
M  V30 16451 H 1580.69 -1.79751 -0.753365 0
M  V30 16452 H 1579.79 -2.1814 -2.23207 0
M  V30 16453 N 1580.09 0.879207 -1.30796 0
M  V30 16454 C 1581.31 1.66975 -1.23021 0
M  V30 16455 C 1581.74 1.87004 0.202798 0
M  V30 16456 O 1581.1 1.40514 1.14566 0
M  V30 16457 C 1581.14 3.02028 -1.97007 0
M  V30 16458 O 1580.25 3.91338 -1.30109 0
M  V30 16459 H 1579.59 0.509998 -0.425204 0
M  V30 16460 H 1582.12 1.09688 -1.72713 0
M  V30 16461 H 1582.13 3.5203 -2.06249 0
M  V30 16462 H 1580.8 2.8677 -3.01224 0
M  V30 16463 H 1579.38 3.49781 -1.29258 0
M  V30 16464 N 1581.57 1.13606 1.09231 0
M  V30 16465 C 1582.52 0.810747 2.18013 0
M  V30 16466 C 1583.51 -0.207782 1.68121 0
M  V30 16467 O 1584.72 -0.0647274 1.79884 0
M  V30 16468 H 1581.09 0.244415 0.711172 0
M  V30 16469 H 1583.06 1.73632 2.42682 0
M  V30 16470 C 1581.81 0.295302 3.46444 0
M  V30 16471 H 1581.13 1.07037 3.85205 0
M  V30 16472 H 1582.57 0.106127 4.23867 0
M  V30 16473 C 1581.03 -0.979398 3.2235 0
M  V30 16474 O 1581.56 -2.05483 3.45166 0
M  V30 16475 N 1579.77 -0.911282 2.75942 0
M  V30 16476 H 1579.32 -0.035979 2.57575 0
M  V30 16477 H 1579.27 -1.76476 2.60199 0
M  V30 16478 N 1583.05 -1.27244 0.929878 0
M  V30 16479 C 1584.01 -2.25028 0.435315 0
M  V30 16480 C 1585.01 -1.54453 -0.447332 0
M  V30 16481 O 1586.2 -1.72424 -0.248105 0
M  V30 16482 C 1583.33 -3.38843 -0.373933 0
M  V30 16483 H 1584.52 -2.70293 1.2993 0
M  V30 16484 H 1582.08 -1.39204 0.710771 0
M  V30 16485 H 1582.81 -2.98963 -1.25664 0
M  V30 16486 H 1582.6 -3.91244 0.258946 0
M  V30 16487 H 1584.09 -4.11516 -0.710255 0
M  V30 16488 N 1584.52 -0.695628 -1.41417 0
M  V30 16489 C 1585.75 -0.234163 -2.06074 0
M  V30 16490 C 1586.17 1.10796 -1.52006 0
M  V30 16491 O 1585.53 1.6936 -0.64705 0
M  V30 16492 C 1585.58 -0.202353 -3.60032 0
M  V30 16493 O 1584.68 0.822767 -4.04109 0
M  V30 16494 H 1584.02 -0.114395 -0.654072 0
M  V30 16495 H 1586.55 -0.950503 -1.81181 0
M  V30 16496 H 1586.56 -0.0332321 -4.07986 0
M  V30 16497 H 1585.24 -1.18188 -3.98754 0
M  V30 16498 H 1583.82 0.622995 -3.67659 0
M  V30 16499 N 1586 1.51322 -0.440383 0
M  V30 16500 C 1586.93 2.30708 0.360013 0
M  V30 16501 C 1587.91 1.36254 1.01828 0
M  V30 16502 O 1589.1 1.65174 1.02134 0
M  V30 16503 C 1586.23 3.15132 1.45977 0
M  V30 16504 C 1585.18 4.17889 0.924825 0
M  V30 16505 C 1584.51 4.90853 2.12056 0
M  V30 16506 C 1585.81 5.22282 -0.0428362 0
M  V30 16507 H 1587.5 2.97868 -0.30248 0
M  V30 16508 H 1585.05 1.43249 -0.146914 0
M  V30 16509 H 1587 3.69449 2.02695 0
M  V30 16510 H 1585.72 2.45798 2.1506 0
M  V30 16511 H 1584.38 3.64627 0.379842 0
M  V30 16512 H 1584.03 4.1802 2.79765 0
M  V30 16513 H 1583.73 5.60339 1.769 0
M  V30 16514 H 1585.26 5.47995 2.69322 0
M  V30 16515 H 1586.67 5.71654 0.434137 0
M  V30 16516 H 1585.07 5.99314 -0.307126 0
M  V30 16517 H 1586.14 4.74923 -0.978557 0
M  V30 16518 N 1587.48 0.171848 1.5666 0
M  V30 16519 C 1588.44 -0.744316 2.16778 0
M  V30 16520 C 1589.44 -1.15769 1.11598 0
M  V30 16521 O 1590.63 -1.07456 1.37109 0
M  V30 16522 C 1587.76 -2.01319 2.75106 0
M  V30 16523 H 1588.96 -0.220952 2.99085 0
M  V30 16524 H 1586.51 -0.0777149 1.56107 0
M  V30 16525 H 1587.25 -2.57963 1.96534 0
M  V30 16526 H 1587.03 -1.72575 3.5208 0
M  V30 16527 H 1588.52 -2.667 3.21342 0
M  V30 16528 N 1588.96 -1.5727 -0.101874 0
M  V30 16529 C 1589.89 -1.98253 -1.15014 0
M  V30 16530 C 1590.9 -0.884147 -1.36699 0
M  V30 16531 O 1592.09 -1.16232 -1.35471 0
M  V30 16532 C 1589.19 -2.28043 -2.50698 0
M  V30 16533 C 1588.36 -3.59343 -2.49383 0
M  V30 16534 C 1587.42 -3.77147 -3.66943 0
M  V30 16535 O 1586.45 -4.49075 -3.49744 0
M  V30 16536 N 1587.65 -3.1721 -4.86167 0
M  V30 16537 H 1590.42 -2.88787 -0.801375 0
M  V30 16538 H 1587.98 -1.59264 -0.290941 0
M  V30 16539 H 1589.97 -2.37153 -3.27934 0
M  V30 16540 H 1588.54 -1.4355 -2.77691 0
M  V30 16541 H 1587.76 -3.61264 -1.57741 0
M  V30 16542 H 1589.05 -4.45612 -2.45576 0
M  V30 16543 H 1588.45 -2.58772 -5.03044 0
M  V30 16544 H 1587 -3.31816 -5.61018 0
M  V30 16545 N 1590.44 0.372521 -1.53134 0
M  V30 16546 C 1591.68 1.11754 -1.6923 0
M  V30 16547 C 1592.01 1.89167 -0.439265 0
M  V30 16548 O 1591.29 1.86164 0.563317 0
M  V30 16549 C 1591.57 2.08242 -2.93781 0
M  V30 16550 C 1591.43 1.34484 -4.29225 0
M  V30 16551 C 1592.74 3.08457 -3.13914 0
M  V30 16552 H 1589.86 0.404898 -0.615814 0
M  V30 16553 H 1592.51 0.399101 -1.85761 0
M  V30 16554 H 1590.66 2.69507 -2.79818 0
M  V30 16555 H 1592.33 0.76056 -4.54987 0
M  V30 16556 H 1590.57 0.646673 -4.28953 0
M  V30 16557 H 1591.24 2.05071 -5.12494 0
M  V30 16558 H 1593.72 2.57292 -3.27017 0
M  V30 16559 H 1592.59 3.73198 -4.0251 0
M  V30 16560 H 1592.85 3.78243 -2.28878 0
M  V30 16561 N 1591.91 1.44376 0.631925 0
M  V30 16562 C 1593.16 1.47335 1.39356 0
M  V30 16563 C 1593.49 0.10525 1.93915 0
M  V30 16564 O 1592.77 -0.877006 1.73605 0
M  V30 16565 C 1593.05 2.53308 2.55943 0
M  V30 16566 C 1592.9 3.99473 2.06739 0
M  V30 16567 C 1594.22 2.55794 3.58131 0
M  V30 16568 H 1591.34 0.536447 0.505365 0
M  V30 16569 H 1593.98 1.76051 0.714572 0
M  V30 16570 H 1592.13 2.28953 3.13868 0
M  V30 16571 H 1593.81 4.34958 1.53652 0
M  V30 16572 H 1592.05 4.11288 1.37929 0
M  V30 16573 H 1592.72 4.69269 2.90672 0
M  V30 16574 H 1595.2 2.77554 3.10005 0
M  V30 16575 H 1594.07 3.31847 4.37228 0
M  V30 16576 H 1594.33 1.59962 4.12146 0
M  V30 16577 N 1593.39 -0.872258 1.31261 0
M  V30 16578 C 1594.32 -1.98231 1.13047 0
M  V30 16579 C 1595.3 -1.62563 0.0345979 0
M  V30 16580 O 1596.49 -1.87534 0.190586 0
M  V30 16581 C 1593.61 -3.30809 0.726841 0
M  V30 16582 C 1592.66 -3.85461 1.82542 0
M  V30 16583 S 1593.49 -4.11197 3.43041 0
M  V30 16584 C 1594.65 -5.46776 3.0461 0
M  V30 16585 H 1594.88 -2.13377 2.07021 0
M  V30 16586 H 1592.41 -1.02217 1.1572 0
M  V30 16587 H 1594.37 -4.07435 0.500707 0
M  V30 16588 H 1593.03 -3.13502 -0.193741 0
M  V30 16589 H 1592.23 -4.81299 1.49558 0
M  V30 16590 H 1591.83 -3.1562 2.0065 0
M  V30 16591 H 1594.12 -6.28343 2.53361 0
M  V30 16592 H 1595.06 -5.84708 3.99402 0
M  V30 16593 H 1595.47 -5.09941 2.42116 0
M  V30 16594 N 1594.87 -1.14184 -1.08627 0
M  V30 16595 C 1595.82 -0.826718 -2.15486 0
M  V30 16596 C 1596.79 0.214769 -1.64706 0
M  V30 16597 O 1597.97 0.0851909 -1.9061 0
M  V30 16598 C 1595.11 -0.307888 -3.43724 0
M  V30 16599 C 1594.22 -1.40941 -4.08362 0
M  V30 16600 C 1593.36 -0.848059 -5.24387 0
M  V30 16601 C 1592.4 -1.92741 -5.80962 0
M  V30 16602 N 1591.54 -1.3834 -6.88336 0
M  V30 16603 H 1596.38 -1.74198 -2.41783 0
M  V30 16604 H 1593.91 -0.869406 -1.18658 0
M  V30 16605 H 1595.87 0.0111149 -4.17199 0
M  V30 16606 H 1594.5 0.570488 -3.17719 0
M  V30 16607 H 1593.55 -1.84485 -3.3267 0
M  V30 16608 H 1594.86 -2.22485 -4.46433 0
M  V30 16609 H 1594.02 -0.480826 -6.04792 0
M  V30 16610 H 1592.76 -0.00163783 -4.877 0
M  V30 16611 H 1591.76 -2.30362 -4.99213 0
M  V30 16612 H 1592.99 -2.77738 -6.19708 0
M  V30 16613 H 1590.93 -0.559124 -6.53613 0
M  V30 16614 H 1590.85 -2.13524 -7.2522 0
M  V30 16615 H 1592.12 -1.044 -7.72477 0
M  V30 16616 N 1596.35 1.26749 -0.936613 0
M  V30 16617 C 1597.59 1.94251 -0.582616 0
M  V30 16618 C 1597.93 1.73352 0.875361 0
M  V30 16619 O 1597.2 1.06784 1.62565 0
M  V30 16620 C 1597.49 3.48145 -0.920151 0
M  V30 16621 C 1597.34 3.78349 -2.43253 0
M  V30 16622 C 1598.66 4.37971 -0.432326 0
M  V30 16623 H 1595.78 0.705507 -0.213141 0
M  V30 16624 H 1598.42 1.49703 -1.17001 0
M  V30 16625 H 1596.57 3.8622 -0.420279 0
M  V30 16626 H 1598.24 3.50015 -3.00478 0
M  V30 16627 H 1596.48 3.24586 -2.87795 0
M  V30 16628 H 1597.15 4.85902 -2.61922 0
M  V30 16629 H 1599.63 4.07098 -0.860857 0
M  V30 16630 H 1598.51 5.44452 -0.697366 0
M  V30 16631 H 1598.77 4.37029 0.667694 0
M  V30 16632 N 1597.83 0.703118 1.41046 0
M  V30 16633 C 1599.1 0.164985 1.94903 0
M  V30 16634 C 1599.48 -1.32665 1.64205 0
M  V30 16635 O 1598.83 -2.07675 0.953058 0
M  V30 16636 C 1599.04 0.464354 3.45897 0
M  V30 16637 C 1600.39 0.396205 4.22747 0
M  V30 16638 O 1601.41 0.399698 3.5395 0
M  V30 16639 O 1600.27 0.362874 5.45294 0
M  V30 16640 H 1597.37 0.0193901 0.826773 0
M  V30 16641 H 1599.91 0.779796 1.50722 0
M  V30 16642 H 1598.68 1.49653 3.61552 0
M  V30 16643 H 1598.31 -0.18105 3.97188 0
M  V30 16644 N 1599.3 -1.51086 0.448402 0
M  V30 16645 C 1600.55 -2.02476 -0.114511 0
M  V30 16646 C 1600.88 -1.33126 -1.4139 0
M  V30 16647 O 1600.16 -0.449665 -1.89231 0
M  V30 16648 C 1600.44 -3.58659 -0.321842 0
M  V30 16649 C 1600.29 -4.38612 0.996975 0
M  V30 16650 C 1601.61 -4.26473 -1.08667 0
M  V30 16651 H 1598.73 -0.735906 -0.0401431 0
M  V30 16652 H 1601.37 -1.80622 0.589563 0
M  V30 16653 H 1599.52 -3.77411 -0.92157 0
M  V30 16654 H 1601.2 -4.31484 1.63154 0
M  V30 16655 H 1599.44 -4.03255 1.599 0
M  V30 16656 H 1600.11 -5.46087 0.805817 0
M  V30 16657 H 1602.59 -4.12058 -0.578559 0
M  V30 16658 H 1601.46 -5.35611 -1.20051 0
M  V30 16659 H 1601.72 -3.88086 -2.11758 0
M  V30 16660 N 1600.78 -0.180154 -1.56567 0
M  V30 16661 C 1602.03 0.463205 -1.97439 0
M  V30 16662 C 1602.36 1.62296 -1.06647 0
M  V30 16663 O 1601.64 1.94157 -0.115382 0
M  V30 16664 C 1601.92 0.937709 -3.47677 0
M  V30 16665 C 1601.77 -0.222835 -4.49248 0
M  V30 16666 C 1603.09 1.80836 -4.01231 0
M  V30 16667 H 1600.21 0.166899 -0.717854 0
M  V30 16668 H 1602.85 -0.268069 -1.88099 0
M  V30 16669 H 1601 1.56084 -3.55767 0
M  V30 16670 H 1602.67 -0.860155 -4.5321 0
M  V30 16671 H 1600.92 -0.876962 -4.24843 0
M  V30 16672 H 1601.59 0.151444 -5.51792 0
M  V30 16673 H 1604.06 1.28297 -3.95827 0
M  V30 16674 H 1602.94 2.10937 -5.06751 0
M  V30 16675 H 1603.2 2.75728 -3.45581 0
M  V30 16676 N 1602.26 1.57322 0.0935319 0
M  V30 16677 C 1603.49 1.90099 0.80907 0
M  V30 16678 C 1603.9 0.772198 1.72724 0
M  V30 16679 O 1603.24 -0.26468 1.81783 0
M  V30 16680 C 1603.3 3.18144 1.67405 0
M  V30 16681 C 1602.97 4.47488 0.927539 0
M  V30 16682 C 1603.96 5.19266 0.256635 0
M  V30 16683 C 1601.65 4.9415 0.901156 0
M  V30 16684 C 1603.64 6.35943 -0.430665 0
M  V30 16685 C 1601.33 6.10739 0.21007 0
M  V30 16686 C 1602.33 6.81485 -0.454661 0
M  V30 16687 O 1602.02 7.95852 -1.13466 0
M  V30 16688 H 1601.75 0.633287 0.236481 0
M  V30 16689 H 1604.3 2.05264 0.0747132 0
M  V30 16690 H 1602.53 2.99129 2.45068 0
M  V30 16691 H 1604.22 3.3674 2.2663 0
M  V30 16692 H 1604.99 4.84256 0.268468 0
M  V30 16693 H 1600.87 4.38972 1.408 0
M  V30 16694 H 1604.41 6.911 -0.950082 0
M  V30 16695 H 1600.31 6.45202 0.196089 0
M  V30 16696 H 1601.08 8.11844 -1.04172 0
M  V30 16697 N 1603.74 -0.364395 1.53329 0
M  V30 16698 C 1604.65 -1.47027 1.82812 0
M  V30 16699 C 1605.66 -1.58559 0.716598 0
M  V30 16700 O 1606.84 -1.7443 1.00678 0
M  V30 16701 C 1603.91 -2.82278 2.01295 0
M  V30 16702 C 1602.97 -2.80264 3.25193 0
M  V30 16703 C 1602.2 -4.09065 3.42785 0
M  V30 16704 O 1602.42 -5.0529 2.64648 0
M  V30 16705 O 1601.36 -4.14804 4.36144 0
M  V30 16706 H 1605.18 -1.25035 2.76767 0
M  V30 16707 H 1602.77 -0.554608 1.38724 0
M  V30 16708 H 1604.65 -3.62416 2.15017 0
M  V30 16709 H 1603.32 -3.04244 1.10531 0
M  V30 16710 H 1602.23 -1.9882 3.16893 0
M  V30 16711 H 1603.56 -2.63252 4.15884 0
M  V30 16712 N 1605.22 -1.44709 -0.62426 0
M  V30 16713 C 1606.16 -1.52104 -1.73589 0
M  V30 16714 C 1607.13 -0.368193 -1.61968 0
M  V30 16715 O 1608.32 -0.579374 -1.81791 0
M  V30 16716 C 1605.46 -1.4778 -3.11857 0
M  V30 16717 C 1604.57 -2.73491 -3.34405 0
M  V30 16718 C 1603.71 -2.60953 -4.62685 0
M  V30 16719 C 1602.75 -3.81795 -4.78434 0
M  V30 16720 N 1601.88 -3.67892 -5.97997 0
M  V30 16721 H 1606.72 -2.47077 -1.66604 0
M  V30 16722 H 1604.26 -1.22617 -0.812616 0
M  V30 16723 H 1606.22 -1.43263 -3.91831 0
M  V30 16724 H 1604.85 -0.563694 -3.1784 0
M  V30 16725 H 1603.9 -2.88166 -2.48324 0
M  V30 16726 H 1605.21 -3.6317 -3.4192 0
M  V30 16727 H 1604.37 -2.54308 -5.50829 0
M  V30 16728 H 1603.1 -1.68846 -4.57539 0
M  V30 16729 H 1602.11 -3.88817 -3.88717 0
M  V30 16730 H 1603.33 -4.74947 -4.85388 0
M  V30 16731 H 1601.28 -2.78541 -5.93928 0
M  V30 16732 H 1601.2 -4.51193 -6.06598 0
M  V30 16733 H 1602.47 -3.6515 -6.88684 0
M  V30 16734 N 1606.69 0.865285 -1.31722 0
M  V30 16735 C 1607.63 1.97919 -1.15588 0
M  V30 16736 C 1608.64 1.6253 -0.0936929 0
M  V30 16737 O 1609.83 1.752 -0.341639 0
M  V30 16738 C 1606.93 3.30614 -0.744814 0
M  V30 16739 C 1606.1 3.94314 -1.89301 0
M  V30 16740 C 1605.16 5.0533 -1.46724 0
M  V30 16741 O 1604.19 5.25898 -2.17762 0
M  V30 16742 N 1605.39 5.794 -0.357262 0
M  V30 16743 H 1608.15 2.12304 -2.11535 0
M  V30 16744 H 1605.71 1.03953 -1.24118 0
M  V30 16745 H 1607.71 4.02273 -0.442594 0
M  V30 16746 H 1606.28 3.12357 0.123186 0
M  V30 16747 H 1605.5 3.15577 -2.3623 0
M  V30 16748 H 1606.78 4.33609 -2.66196 0
M  V30 16749 H 1606.18 5.65215 0.23423 0
M  V30 16750 H 1604.74 6.51699 -0.114599 0
M  V30 16751 N 1608.17 1.14759 1.0802 0
M  V30 16752 C 1609.11 0.781719 2.14393 0
M  V30 16753 C 1610.08 -0.238743 1.60838 0
M  V30 16754 O 1611.27 -0.126879 1.88073 0
M  V30 16755 C 1608.39 0.161293 3.38316 0
M  V30 16756 C 1607.44 1.15256 4.10632 0
M  V30 16757 S 1608.27 2.69159 4.6294 0
M  V30 16758 C 1609.43 2.08517 5.90145 0
M  V30 16759 H 1609.66 1.6827 2.45097 0
M  V30 16760 H 1607.2 0.969222 1.20189 0
M  V30 16761 H 1609.15 -0.190243 4.10059 0
M  V30 16762 H 1607.81 -0.717181 3.05803 0
M  V30 16763 H 1607.01 0.666543 4.99573 0
M  V30 16764 H 1606.61 1.44829 3.4482 0
M  V30 16765 H 1608.9 1.44304 6.61954 0
M  V30 16766 H 1609.84 2.95598 6.4345 0
M  V30 16767 H 1610.25 1.53092 5.43344 0
M  V30 16768 N 1609.65 -1.26251 0.943322 0
M  V30 16769 C 1610.58 -2.28673 0.472347 0
M  V30 16770 C 1611.56 -1.63319 -0.475481 0
M  V30 16771 O 1612.75 -1.90508 -0.376875 0
M  V30 16772 C 1609.88 -3.46316 -0.261286 0
M  V30 16773 C 1608.83 -4.23771 0.600192 0
M  V30 16774 C 1608.16 -5.3405 -0.263525 0
M  V30 16775 C 1609.46 -4.87576 1.87262 0
M  V30 16776 H 1611.15 -2.68319 1.32836 0
M  V30 16777 H 1608.7 -1.28987 0.640182 0
M  V30 16778 H 1610.65 -4.1708 -0.601821 0
M  V30 16779 H 1609.37 -3.05629 -1.15146 0
M  V30 16780 H 1608.03 -3.54774 0.923651 0
M  V30 16781 H 1607.68 -4.89604 -1.15312 0
M  V30 16782 H 1607.38 -5.86784 0.309495 0
M  V30 16783 H 1608.9 -6.07652 -0.599281 0
M  V30 16784 H 1610.32 -5.50544 1.59919 0
M  V30 16785 H 1608.72 -5.50437 2.39038 0
M  V30 16786 H 1609.79 -4.10397 2.58268 0
M  V30 16787 N 1611.13 -0.710588 -1.40671 0
M  V30 16788 C 1612.36 -0.257069 -2.04994 0
M  V30 16789 C 1612.77 1.10431 -1.53628 0
M  V30 16790 O 1612.11 1.70422 -0.685726 0
M  V30 16791 C 1612.17 -0.153646 -3.59172 0
M  V30 16792 C 1611.84 -1.4495 -4.33403 0
M  V30 16793 C 1612.83 -2.39042 -4.61687 0
M  V30 16794 C 1610.52 -1.70704 -4.72404 0
M  V30 16795 C 1612.51 -3.57137 -5.27951 0
M  V30 16796 C 1610.2 -2.89082 -5.384 0
M  V30 16797 C 1611.2 -3.82121 -5.66103 0
M  V30 16798 O 1610.89 -4.98424 -6.30737 0
M  V30 16799 H 1610.62 -0.114202 -0.666284 0
M  V30 16800 H 1613.17 -0.968028 -1.81158 0
M  V30 16801 H 1611.4 0.613213 -3.81807 0
M  V30 16802 H 1613.09 0.264655 -4.05036 0
M  V30 16803 H 1613.86 -2.20407 -4.32025 0
M  V30 16804 H 1609.74 -0.99142 -4.50213 0
M  V30 16805 H 1613.28 -4.29775 -5.4949 0
M  V30 16806 H 1609.18 -3.07627 -5.67482 0
M  V30 16807 H 1609.94 -4.98436 -6.49233 0
M  V30 16808 N 1612.61 1.50847 -0.456408 0
M  V30 16809 C 1613.54 2.31077 0.335523 0
M  V30 16810 C 1614.52 1.37326 1.00377 0
M  V30 16811 O 1615.7 1.66247 1.00376 0
M  V30 16812 C 1612.83 3.16662 1.42627 0
M  V30 16813 C 1611.79 4.18846 0.88045 0
M  V30 16814 C 1611.11 4.93074 2.06838 0
M  V30 16815 C 1612.41 5.22208 -0.0982288 0
M  V30 16816 H 1614.11 2.97531 -0.334056 0
M  V30 16817 H 1611.65 1.43085 -0.162099 0
M  V30 16818 H 1613.61 3.71578 1.98765 0
M  V30 16819 H 1612.33 2.48066 2.12441 0
M  V30 16820 H 1610.99 3.65009 0.341147 0
M  V30 16821 H 1610.64 4.20963 2.75316 0
M  V30 16822 H 1610.34 5.62184 1.70947 0
M  V30 16823 H 1611.86 5.5082 2.63494 0
M  V30 16824 H 1613.28 5.72082 0.373481 0
M  V30 16825 H 1611.67 5.98954 -0.370674 0
M  V30 16826 H 1612.74 4.73859 -1.02887 0
M  V30 16827 N 1614.09 0.188454 1.56469 0
M  V30 16828 C 1615.32 -0.457182 2.01478 0
M  V30 16829 C 1615.72 -1.5619 1.06777 0
M  V30 16830 O 1615.07 -1.8359 0.063659 0
M  V30 16831 C 1615.13 -1.08002 3.42893 0
M  V30 16832 C 1614.79 -0.114858 4.56856 0
M  V30 16833 C 1615.79 0.673269 5.15522 0
M  V30 16834 C 1613.47 -0.00570411 5.023 0
M  V30 16835 C 1615.47 1.55758 6.18076 0
M  V30 16836 C 1613.16 0.882173 6.04699 0
M  V30 16837 C 1614.15 1.66239 6.6246 0
M  V30 16838 O 1613.84 2.5354 7.62871 0
M  V30 16839 H 1613.57 -0.119784 0.665303 0
M  V30 16840 H 1616.13 0.292446 2.03307 0
M  V30 16841 H 1614.36 -1.87811 3.3803 0
M  V30 16842 H 1616.05 -1.62962 3.7175 0
M  V30 16843 H 1616.81 0.599207 4.81284 0
M  V30 16844 H 1612.69 -0.602804 4.57042 0
M  V30 16845 H 1616.24 2.16701 6.63088 0
M  V30 16846 H 1612.13 0.957375 6.38361 0
M  V30 16847 H 1612.9 2.47245 7.80264 0
M  V30 16848 N 1615.56 -1.5737 -0.0851874 0
M  V30 16849 C 1616.81 -1.86864 -0.78802 0
M  V30 16850 C 1617.14 -0.778936 -1.77894 0
M  V30 16851 O 1616.42 0.212132 -1.9334 0
M  V30 16852 C 1616.7 -3.27006 -1.50795 0
M  V30 16853 C 1616.55 -4.46615 -0.534354 0
M  V30 16854 C 1617.87 -3.65187 -2.45614 0
M  V30 16855 H 1614.99 -0.679657 -0.285017 0
M  V30 16856 H 1617.63 -1.8993 -0.0514443 0
M  V30 16857 H 1615.78 -3.24522 -2.13583 0
M  V30 16858 H 1617.46 -4.61217 0.0872761 0
M  V30 16859 H 1615.7 -4.33536 0.151455 0
M  V30 16860 H 1616.37 -5.41423 -1.07544 0
M  V30 16861 H 1618.85 -3.68678 -1.92913 0
M  V30 16862 H 1617.72 -4.64158 -2.92999 0
M  V30 16863 H 1617.98 -2.944 -3.2982 0
M  V30 16864 N 1617.04 0.356258 -1.53521 0
M  V30 16865 C 1617.97 1.44271 -1.83598 0
M  V30 16866 C 1618.95 1.5547 -0.690141 0
M  V30 16867 O 1620.14 1.69886 -0.940868 0
M  V30 16868 C 1617.27 2.8149 -2.03422 0
M  V30 16869 C 1616.22 2.85108 -3.19213 0
M  V30 16870 C 1615.55 4.25091 -3.24348 0
M  V30 16871 C 1616.85 2.51788 -4.57602 0
M  V30 16872 H 1618.54 1.1935 -2.74583 0
M  V30 16873 H 1616.09 0.572707 -1.32121 0
M  V30 16874 H 1618.04 3.57531 -2.23046 0
M  V30 16875 H 1616.76 3.07819 -1.09155 0
M  V30 16876 H 1615.42 2.1152 -2.99424 0
M  V30 16877 H 1615.07 4.4851 -2.277 0
M  V30 16878 H 1614.77 4.28426 -4.0215 0
M  V30 16879 H 1616.3 5.02992 -3.46167 0
M  V30 16880 H 1617.71 3.17542 -4.77326 0
M  V30 16881 H 1616.11 2.66426 -5.37715 0
M  V30 16882 H 1617.18 1.4701 -4.62078 0
M  V30 16883 N 1618.52 1.45038 0.616577 0
M  V30 16884 C 1619.74 1.52321 1.40759 0
M  V30 16885 C 1620.17 0.15375 1.87471 0
M  V30 16886 O 1619.53 -0.859908 1.5961 0
M  V30 16887 C 1619.58 2.50464 2.59423 0
M  V30 16888 O 1618.68 2.01623 3.59753 0
M  V30 16889 H 1618.02 0.513808 0.420592 0
M  V30 16890 H 1620.55 1.90309 0.751234 0
M  V30 16891 H 1620.56 2.68977 3.06783 0
M  V30 16892 H 1619.24 3.4993 2.24771 0
M  V30 16893 H 1617.81 1.92945 3.19103 0
M  V30 16894 N 1620 -0.858287 1.32179 0
M  V30 16895 C 1621.25 -1.60902 1.2229 0
M  V30 16896 C 1621.57 -1.93797 -0.216227 0
M  V30 16897 O 1620.84 -1.59312 -1.14002 0
M  V30 16898 H 1619.42 -0.596529 0.449624 0
M  V30 16899 H 1622.08 -1.02686 1.65655 0
M  V30 16900 H 1621.17 -2.54755 1.80295 0
M  V30 16901 N 1621.48 -1.1533 -1.07409 0
M  V30 16902 C 1622.72 -0.922348 -1.79376 0
M  V30 16903 C 1623.04 0.551929 -1.87652 0
M  V30 16904 O 1624.24 0.900444 -2.56133 0
M  V30 16905 C 1622.7 -1.60081 -3.22339 0
M  V30 16906 C 1622.31 -3.11206 -3.22265 0
M  V30 16907 C 1624.05 -1.45138 -3.98917 0
M  V30 16908 C 1621.96 -3.71842 -4.59878 0
M  V30 16909 H 1620.89 -0.341438 -0.672262 0
M  V30 16910 H 1623.54 -1.38336 -1.20562 0
M  V30 16911 H 1621.92 -1.06748 -3.81341 0
M  V30 16912 H 1623.1 -3.7129 -2.72911 0
M  V30 16913 H 1621.41 -3.25903 -2.59183 0
M  V30 16914 H 1624.01 -1.87832 -5.00623 0
M  V30 16915 H 1624.35 -0.398796 -4.14385 0
M  V30 16916 H 1624.88 -1.95564 -3.46409 0
M  V30 16917 H 1621.62 -4.76998 -4.49614 0
M  V30 16918 H 1621.14 -3.16541 -5.09472 0
M  V30 16919 H 1622.82 -3.72733 -5.28847 0
M  V30 16920 N 1622.95 1.25748 -0.950004 0
M  V30 16921 C 1624.2 1.92954 -0.601104 0
M  V30 16922 C 1624.52 1.74817 0.863953 0
M  V30 16923 O 1623.79 1.10904 1.61484 0
M  V30 16924 H 1622.37 0.714077 -0.219325 0
M  V30 16925 H 1625.03 1.53009 -1.20724 0
M  V30 16926 H 1624.13 3.00959 -0.826447 0
M  V30 16927 N 1624.43 0.718038 1.40292 0
M  V30 16928 C 1625.68 0.258092 2.00445 0
M  V30 16929 C 1626 -1.15347 1.57226 0
M  V30 16930 O 1625.27 -1.78241 0.812822 0
M  V30 16931 H 1623.85 0.0924316 0.741259 0
M  V30 16932 H 1626.51 0.924216 1.71593 0
M  V30 16933 H 1625.61 0.293113 3.10721 0
M  V30 16934 N 1625.91 -1.50602 0.464402 0
M  V30 16935 C 1626.84 -2.31252 -0.323263 0
M  V30 16936 C 1627.82 -1.37856 -0.996476 0
M  V30 16937 O 1629.01 -1.66777 -0.994933 0
M  V30 16938 C 1626.14 -3.17414 -1.40945 0
M  V30 16939 C 1625.09 -4.19307 -0.858226 0
M  V30 16940 C 1624.42 -4.94164 -2.0422 0
M  V30 16941 C 1625.72 -5.22148 0.125921 0
M  V30 16942 H 1627.41 -2.97349 0.34983 0
M  V30 16943 H 1624.96 -1.42997 0.169685 0
M  V30 16944 H 1626.91 -3.72627 -1.96791 0
M  V30 16945 H 1625.63 -2.49189 -2.11122 0
M  V30 16946 H 1624.29 -3.65185 -0.321785 0
M  V30 16947 H 1623.94 -4.22417 -2.7308 0
M  V30 16948 H 1623.64 -5.63083 -1.67963 0
M  V30 16949 H 1625.16 -5.5221 -2.60569 0
M  V30 16950 H 1626.58 -5.72272 -0.343136 0
M  V30 16951 H 1624.98 -5.98749 0.402433 0
M  V30 16952 H 1626.05 -4.73307 1.05399 0
M  V30 16953 N 1627.39 -0.19675 -1.56367 0
M  V30 16954 C 1628.32 0.718607 -2.22167 0
M  V30 16955 C 1629.3 1.22002 -1.1853 0
M  V30 16956 O 1630.48 1.26856 -1.47042 0
M  V30 16957 C 1627.61 1.93753 -2.88231 0
M  V30 16958 C 1626.57 1.57096 -3.98127 0
M  V30 16959 C 1625.89 2.86663 -4.51363 0
M  V30 16960 C 1627.19 0.779649 -5.16448 0
M  V30 16961 H 1628.89 0.170064 -2.98917 0
M  V30 16962 H 1626.43 0.0803568 -1.43776 0
M  V30 16963 H 1628.39 2.58312 -3.32946 0
M  V30 16964 H 1627.11 2.51063 -2.0889 0
M  V30 16965 H 1625.77 0.948947 -3.54105 0
M  V30 16966 H 1625.42 3.42066 -3.68782 0
M  V30 16967 H 1625.12 2.6288 -5.25517 0
M  V30 16968 H 1626.64 3.52207 -4.98781 0
M  V30 16969 H 1628.06 1.32838 -5.57698 0
M  V30 16970 H 1626.45 0.639882 -5.96679 0
M  V30 16971 H 1627.52 -0.218944 -4.84405 0
M  V30 16972 N 1628.87 1.57413 0.0768405 0
M  V30 16973 C 1629.8 2.06378 1.09226 0
M  V30 16974 C 1630.78 0.956269 1.40675 0
M  V30 16975 O 1631.96 1.22868 1.5039 0
M  V30 16976 C 1629.09 2.50349 2.40712 0
M  V30 16977 C 1628.05 3.64931 2.23628 0
M  V30 16978 C 1627.37 3.9494 3.60453 0
M  V30 16979 C 1628.67 4.95162 1.66169 0
M  V30 16980 H 1630.37 2.91463 0.684827 0
M  V30 16981 H 1627.91 1.40215 0.327974 0
M  V30 16982 H 1629.87 2.83216 3.12036 0
M  V30 16983 H 1628.59 1.62287 2.83426 0
M  V30 16984 H 1627.25 3.32339 1.54747 0
M  V30 16985 H 1626.9 3.04016 4.00728 0
M  V30 16986 H 1626.6 4.72091 3.49863 0
M  V30 16987 H 1628.12 4.30299 4.33215 0
M  V30 16988 H 1629.53 5.26292 2.27353 0
M  V30 16989 H 1627.93 5.76601 1.66289 0
M  V30 16990 H 1629 4.80885 0.62271 0
M  V30 16991 N 1630.34 -0.348112 1.53707 0
M  V30 16992 C 1631.27 -1.43296 1.8436 0
M  V30 16993 C 1632.26 -1.55102 0.698376 0
M  V30 16994 O 1633.44 -1.69385 0.949864 0
M  V30 16995 C 1630.57 -2.80407 2.04912 0
M  V30 16996 C 1629.52 -2.83412 3.20721 0
M  V30 16997 C 1628.85 -4.23365 3.26597 0
M  V30 16998 C 1630.15 -2.49358 4.58931 0
M  V30 16999 H 1631.84 -1.17892 2.75212 0
M  V30 17000 H 1629.39 -0.565692 1.32423 0
M  V30 17001 H 1631.34 -3.56343 2.24939 0
M  V30 17002 H 1630.07 -3.07236 1.10786 0
M  V30 17003 H 1628.73 -2.09929 3.00542 0
M  V30 17004 H 1628.37 -4.47297 2.30076 0
M  V30 17005 H 1628.07 -4.26287 4.04417 0
M  V30 17006 H 1629.6 -5.01149 3.4883 0
M  V30 17007 H 1631.01 -3.15006 4.79003 0
M  V30 17008 H 1629.41 -2.6357 5.3912 0
M  V30 17009 H 1630.48 -1.44557 4.62851 0
M  V30 17010 N 1631.82 -1.45363 -0.608876 0
M  V30 17011 C 1632.75 -1.56778 -1.7304 0
M  V30 17012 C 1633.73 -0.419405 -1.64848 0
M  V30 17013 O 1634.92 -0.64238 -1.83268 0
M  V30 17014 C 1632.05 -1.5329 -3.1164 0
M  V30 17015 C 1631 -2.66832 -3.34641 0
M  V30 17016 C 1630.33 -2.48398 -4.735 0
M  V30 17017 C 1631.63 -4.0885 -3.25021 0
M  V30 17018 H 1633.32 -2.50656 -1.63743 0
M  V30 17019 H 1630.87 -1.20635 -0.786338 0
M  V30 17020 H 1632.82 -1.59873 -3.89895 0
M  V30 17021 H 1631.55 -0.559414 -3.21773 0
M  V30 17022 H 1630.2 -2.59675 -2.58775 0
M  V30 17023 H 1629.85 -1.49191 -4.80366 0
M  V30 17024 H 1629.55 -3.24537 -4.89846 0
M  V30 17025 H 1631.08 -2.56833 -5.53958 0
M  V30 17026 H 1632.49 -4.17257 -3.93153 0
M  V30 17027 H 1630.89 -4.85369 -3.52897 0
M  V30 17028 H 1631.96 -4.30849 -2.2248 0
M  V30 17029 N 1633.3 0.851265 -1.32632 0
M  V30 17030 C 1634.23 1.97562 -1.24465 0
M  V30 17031 C 1635.21 1.69619 -0.127777 0
M  V30 17032 O 1636.4 1.9162 -0.315509 0
M  V30 17033 C 1633.53 3.33467 -0.970423 0
M  V30 17034 C 1632.48 3.75772 -2.0489 0
M  V30 17035 C 1631.81 5.09345 -1.62702 0
M  V30 17036 C 1633.11 3.90876 -3.4643 0
M  V30 17037 H 1634.8 2.04653 -2.18535 0
M  V30 17038 H 1632.35 0.983252 -1.05205 0
M  V30 17039 H 1634.3 4.11681 -0.899825 0
M  V30 17040 H 1633.02 3.26599 0.00591373 0
M  V30 17041 H 1631.68 2.99812 -2.1097 0
M  V30 17042 H 1631.33 4.98937 -0.638039 0
M  V30 17043 H 1631.03 5.38621 -2.34864 0
M  V30 17044 H 1632.55 5.90048 -1.57085 0
M  V30 17045 H 1633.97 4.59434 -3.42919 0
M  V30 17046 H 1632.37 4.31574 -4.1697 0
M  V30 17047 H 1633.44 2.93689 -3.85843 0
M  V30 17048 N 1634.78 1.15898 1.06796 0
M  V30 17049 C 1636.03 0.931848 1.78884 0
M  V30 17050 C 1636.34 -0.54197 1.87942 0
M  V30 17051 O 1637.55 -0.886848 2.56607 0
M  V30 17052 C 1636 1.61788 3.21485 0
M  V30 17053 C 1635.61 3.12911 3.2061 0
M  V30 17054 C 1637.35 1.47252 3.98142 0
M  V30 17055 C 1635.26 3.74275 4.579 0
M  V30 17056 H 1634.19 0.344998 0.670442 0
M  V30 17057 H 1636.84 1.38974 1.19827 0
M  V30 17058 H 1635.22 1.08769 3.80769 0
M  V30 17059 H 1636.4 3.72732 2.70938 0
M  V30 17060 H 1634.71 3.27273 2.57451 0
M  V30 17061 H 1637.31 1.90484 4.9962 0
M  V30 17062 H 1637.65 0.420766 4.14168 0
M  V30 17063 H 1638.19 1.97398 3.45367 0
M  V30 17064 H 1634.93 4.79376 4.47078 0
M  V30 17065 H 1634.45 3.19238 5.07786 0
M  V30 17066 H 1636.12 3.75532 5.26863 0
M  V30 17067 N 1636.26 -1.25243 0.956659 0
M  V30 17068 C 1637.5 -1.93014 0.612538 0
M  V30 17069 C 1637.83 -1.74908 -0.85073 0
M  V30 17070 O 1637.09 -1.08896 -1.62604 0
M  V30 17071 C 1637.39 -3.4536 0.919849 0
M  V30 17072 C 1637.05 -3.83623 2.36948 0
M  V30 17073 C 1635.71 -3.93779 2.76571 0
M  V30 17074 C 1638.07 -4.02536 3.3108 0
M  V30 17075 C 1635.39 -4.20257 4.09391 0
M  V30 17076 C 1637.75 -4.30507 4.63515 0
M  V30 17077 C 1636.41 -4.3888 5.02932 0
M  V30 17078 H 1635.68 -0.706286 0.224144 0
M  V30 17079 H 1638.33 -1.48748 1.20608 0
M  V30 17080 H 1636.63 -3.9104 0.243941 0
M  V30 17081 H 1638.33 -3.95986 0.632143 0
M  V30 17082 H 1634.92 -3.76275 2.05219 0
M  V30 17083 H 1639.1 -3.94102 3.01657 0
M  V30 17084 H 1634.36 -4.24956 4.39571 0
M  V30 17085 H 1638.53 -4.44087 5.36433 0
M  V30 17086 H 1636.16 -4.59151 6.05875 0
M  V30 17087 N 1637.73 -0.725468 -1.3991 0
M  V30 17088 C 1638.98 -0.266188 -1.99936 0
M  V30 17089 C 1639.3 1.15022 -1.58207 0
M  V30 17090 O 1640.5 1.70853 -2.11001 0
M  V30 17091 C 1638.96 -0.424978 -3.57382 0
M  V30 17092 C 1638.57 -1.84866 -4.08079 0
M  V30 17093 C 1640.31 -0.0269907 -4.24491 0
M  V30 17094 C 1638.22 -1.95751 -5.58064 0
M  V30 17095 H 1637.15 -0.0957688 -0.747893 0
M  V30 17096 H 1639.8 -0.89798 -1.60027 0
M  V30 17097 H 1638.18 0.275558 -3.9504 0
M  V30 17098 H 1639.35 -2.58037 -3.81776 0
M  V30 17099 H 1637.67 -2.199 -3.536 0
M  V30 17100 H 1640.27 -0.0874638 -5.34628 0
M  V30 17101 H 1640.61 1.01639 -4.03702 0
M  V30 17102 H 1641.14 -0.678332 -3.91974 0
M  V30 17103 H 1637.88 -2.98244 -5.83721 0
M  V30 17104 H 1637.4 -1.27004 -5.862 0
M  V30 17105 H 1639.08 -1.73422 -6.23325 0
M  V30 17106 N 1639.21 1.50354 -0.472382 0
M  V30 17107 C 1640.46 2.02633 0.0822846 0
M  V30 17108 C 1640.79 1.35358 1.39254 0
M  V30 17109 O 1640.07 0.479714 1.88491 0
M  V30 17110 C 1640.35 3.59126 0.264742 0
M  V30 17111 C 1640.2 4.3697 -1.06663 0
M  V30 17112 C 1641.52 4.28148 1.01869 0
M  V30 17113 H 1638.64 0.736451 0.0284304 0
M  V30 17114 H 1641.28 1.79661 -0.618224 0
M  V30 17115 H 1639.43 3.7883 0.86141 0
M  V30 17116 H 1641.1 4.28834 -1.69997 0
M  V30 17117 H 1639.35 4.0066 -1.66295 0
M  V30 17118 H 1640.02 5.44736 -0.892592 0
M  V30 17119 H 1642.49 4.12926 0.512931 0
M  V30 17120 H 1641.37 5.37453 1.11515 0
M  V30 17121 H 1641.63 3.91406 2.05557 0
M  V30 17122 N 1640.69 0.205039 1.56261 0
M  V30 17123 C 1641.62 -0.706815 2.22545 0
M  V30 17124 C 1642.6 -1.21372 1.19176 0
M  V30 17125 O 1643.79 -1.26074 1.47712 0
M  V30 17126 C 1640.92 -1.92221 2.89255 0
M  V30 17127 C 1639.87 -1.54982 3.98954 0
M  V30 17128 C 1639.2 -2.84265 4.52877 0
M  V30 17129 C 1640.5 -0.75225 5.16854 0
M  V30 17130 H 1642.19 -0.15421 2.99003 0
M  V30 17131 H 1639.74 -0.0727309 1.43816 0
M  V30 17132 H 1641.69 -2.56542 3.34311 0
M  V30 17133 H 1640.41 -2.49952 2.10218 0
M  V30 17134 H 1639.07 -0.930155 3.54604 0
M  V30 17135 H 1638.72 -3.40105 3.70591 0
M  V30 17136 H 1638.42 -2.60089 5.26904 0
M  V30 17137 H 1639.95 -3.49557 5.00642 0
M  V30 17138 H 1641.36 -1.29878 5.58395 0
M  V30 17139 H 1639.76 -0.60823 5.9701 0
M  V30 17140 H 1640.83 0.24463 4.84283 0
M  V30 17141 N 1642.17 -1.57451 -0.0684915 0
M  V30 17142 C 1643.4 -1.91362 -0.778724 0
M  V30 17143 C 1643.81 -0.799579 -1.71474 0
M  V30 17144 O 1643.15 0.235727 -1.82181 0
M  V30 17145 C 1643.21 -3.20767 -1.62323 0
M  V30 17146 C 1642.88 -4.48907 -0.85623 0
M  V30 17147 C 1643.87 -5.19609 -0.173992 0
M  V30 17148 C 1641.56 -4.95521 -0.822427 0
M  V30 17149 C 1643.55 -6.35178 0.531784 0
M  V30 17150 C 1641.24 -6.10996 -0.11288 0
M  V30 17151 C 1642.24 -6.80675 0.563022 0
M  V30 17152 O 1641.93 -7.93946 1.26113 0
M  V30 17153 H 1641.66 -0.636969 -0.226376 0
M  V30 17154 H 1644.21 -2.05357 -0.0420481 0
M  V30 17155 H 1642.44 -3.0299 -2.40279 0
M  V30 17156 H 1644.13 -3.40303 -2.21244 0
M  V30 17157 H 1644.9 -4.84622 -0.191393 0
M  V30 17158 H 1640.78 -4.41156 -1.33798 0
M  V30 17159 H 1644.32 -6.89501 1.05991 0
M  V30 17160 H 1640.22 -6.45432 -0.0934182 0
M  V30 17161 H 1640.98 -8.10084 1.17074 0
M  V30 17162 N 1643.65 0.339955 -1.5389 0
M  V30 17163 C 1644.59 1.41765 -1.8213 0
M  V30 17164 C 1645.56 1.52109 -0.667235 0
M  V30 17165 O 1646.75 1.67591 -0.91203 0
M  V30 17166 C 1643.89 2.78366 -2.03977 0
M  V30 17167 C 1643 2.76785 -3.31684 0
M  V30 17168 C 1642.14 4.05125 -3.4358 0
M  V30 17169 C 1641.18 3.97787 -4.65223 0
M  V30 17170 N 1640.31 5.17825 -4.74133 0
M  V30 17171 H 1645.15 1.16984 -2.74078 0
M  V30 17172 H 1642.69 0.566618 -1.35749 0
M  V30 17173 H 1644.65 3.57755 -2.14633 0
M  V30 17174 H 1643.28 3.01491 -1.15338 0
M  V30 17175 H 1642.33 1.89481 -3.2985 0
M  V30 17176 H 1643.64 2.67241 -4.2117 0
M  V30 17177 H 1642.8 4.9294 -3.53688 0
M  V30 17178 H 1641.54 4.17455 -2.52157 0
M  V30 17179 H 1640.54 3.08357 -4.55188 0
M  V30 17180 H 1641.77 3.87037 -5.58014 0
M  V30 17181 H 1639.71 5.30691 -3.8562 0
M  V30 17182 H 1639.63 5.10552 -5.5756 0
M  V30 17183 H 1640.9 6.074 -4.88554 0
M  V30 17184 N 1645.13 1.45684 0.601159 0
M  V30 17185 C 1646.37 1.50258 1.362 0
M  V30 17186 C 1646.7 0.146358 1.93648 0
M  V30 17187 O 1645.98 -0.839985 1.75427 0
M  V30 17188 C 1646.26 2.5868 2.50513 0
M  V30 17189 C 1646.12 4.03769 1.98219 0
M  V30 17190 C 1647.43 2.63332 3.52624 0
M  V30 17191 H 1644.55 0.547045 0.493873 0
M  V30 17192 H 1647.2 1.77527 0.677068 0
M  V30 17193 H 1645.35 2.35559 3.08941 0
M  V30 17194 H 1647.02 4.3812 1.44391 0
M  V30 17195 H 1645.26 4.14121 1.29174 0
M  V30 17196 H 1645.93 4.75329 2.80653 0
M  V30 17197 H 1648.41 2.84067 3.04048 0
M  V30 17198 H 1647.28 3.41047 4.30091 0
M  V30 17199 H 1647.54 1.68668 4.0866 0
M  V30 17200 N 1646.6 -0.84422 1.33082 0
M  V30 17201 C 1647.85 -1.59596 1.2399 0
M  V30 17202 C 1648.17 -1.94016 -0.19566 0
M  V30 17203 O 1647.44 -1.60512 -1.12306 0
M  V30 17204 H 1646.02 -0.591727 0.455926 0
M  V30 17205 H 1648.68 -1.00924 1.66735 0
M  V30 17206 H 1647.78 -2.52829 1.82986 0
M  V30 17207 N 1648.08 -1.16463 -1.0618 0
M  V30 17208 C 1649.33 -0.946846 -1.79 0
M  V30 17209 C 1649.66 0.525259 -1.87273 0
M  V30 17210 O 1648.91 1.40584 -1.36142 0
M  V30 17211 C 1649.21 -1.52085 -3.23427 0
M  V30 17212 C 1648.88 -3.01547 -3.35232 0
M  V30 17213 C 1647.54 -3.42346 -3.38161 0
M  V30 17214 C 1649.89 -3.97543 -3.37059 0
M  V30 17215 C 1647.22 -4.77759 -3.40534 0
M  V30 17216 C 1649.57 -5.32843 -3.4097 0
M  V30 17217 C 1648.23 -5.73121 -3.42182 0
M  V30 17218 H 1647.5 -0.346475 -0.655008 0
M  V30 17219 H 1650.15 -1.45195 -1.24862 0
M  V30 17220 H 1648.46 -0.937212 -3.80426 0
M  V30 17221 H 1650.15 -1.32801 -3.78371 0
M  V30 17222 H 1646.74 -2.69017 -3.33658 0
M  V30 17223 H 1650.93 -3.67088 -3.34006 0
M  V30 17224 H 1646.18 -5.08293 -3.39777 0
M  V30 17225 H 1650.36 -6.07014 -3.41332 0
M  V30 17226 H 1647.98 -6.78029 -3.43774 0
M  V30 17227 N 1649.56 1.24734 -0.963288 0
M  V30 17228 C 1650.81 1.92686 -0.622766 0
M  V30 17229 C 1651.13 1.75357 0.841442 0
M  V30 17230 O 1650.39 1.09757 1.62025 0
M  V30 17231 C 1650.69 3.44867 -0.938151 0
M  V30 17232 C 1650.35 3.82361 -2.38979 0
M  V30 17233 C 1649.02 3.92307 -2.78655 0
M  V30 17234 C 1651.37 4.00775 -3.3321 0
M  V30 17235 C 1648.7 4.1808 -4.11614 0
M  V30 17236 C 1651.05 4.28043 -4.65792 0
M  V30 17237 C 1649.71 4.36207 -5.05252 0
M  V30 17238 H 1648.98 0.705088 -0.227886 0
M  V30 17239 H 1651.63 1.48107 -1.21395 0
M  V30 17240 H 1649.93 3.90905 -0.264676 0
M  V30 17241 H 1651.63 3.95645 -0.653134 0
M  V30 17242 H 1648.22 3.75182 -2.07212 0
M  V30 17243 H 1652.41 3.92497 -3.03743 0
M  V30 17244 H 1647.66 4.22619 -4.41818 0
M  V30 17245 H 1651.84 4.41236 -5.3878 0
M  V30 17246 H 1649.46 4.55931 -6.08301 0
M  V30 17247 N 1651.04 0.732878 1.39523 0
M  V30 17248 C 1651.98 0.0915149 2.30618 0
M  V30 17249 C 1652.95 -0.731943 1.49103 0
M  V30 17250 O 1654.14 -0.692343 1.77796 0
M  V30 17251 C 1651.28 -0.811387 3.35426 0
M  V30 17252 C 1650.39 0.0244578 4.31993 0
M  V30 17253 C 1649.53 -0.879521 5.23868 0
M  V30 17254 C 1648.57 -0.0387974 6.12088 0
M  V30 17255 N 1647.7 -0.898593 6.96326 0
M  V30 17256 H 1652.54 0.87399 2.84895 0
M  V30 17257 H 1650.08 0.442659 1.40282 0
M  V30 17258 H 1652.04 -1.3493 3.94778 0
M  V30 17259 H 1650.67 -1.55986 2.8261 0
M  V30 17260 H 1649.72 0.679762 3.74277 0
M  V30 17261 H 1651.03 0.674606 4.94217 0
M  V30 17262 H 1650.19 -1.48535 5.88237 0
M  V30 17263 H 1648.93 -1.56345 4.6196 0
M  V30 17264 H 1647.93 0.579847 5.46734 0
M  V30 17265 H 1649.16 0.641887 6.7606 0
M  V30 17266 H 1647.1 -1.56786 6.36988 0
M  V30 17267 H 1647.02 -0.304876 7.55385 0
M  V30 17268 H 1648.29 -1.49005 7.65126 0
M  V30 17269 N 1652.52 -1.50101 0.480349 0
M  V30 17270 C 1653.93 -1.59028 0.135048 0
M  V30 17271 C 1654.13 -1.48763 -1.35911 0
M  V30 17272 O 1653.19 -1.35089 -2.13324 0
M  V30 17273 C 1654.5 -2.92594 0.693483 0
M  V30 17274 C 1656.05 -3.06011 0.657737 0
M  V30 17275 C 1656.52 -4.42166 1.19388 0
M  V30 17276 N 1658.01 -4.48603 1.15368 0
M  V30 17277 C 1658.75 -5.52363 1.53893 0
M  V30 17278 N 1658.25 -6.6333 1.99911 0
M  V30 17279 N 1660.04 -5.42959 1.45438 0
M  V30 17280 H 1652.19 -1.55017 1.45202 0
M  V30 17281 H 1654.45 -0.733118 0.601034 0
M  V30 17282 H 1654.16 -3.0561 1.74056 0
M  V30 17283 H 1654.03 -3.76932 0.142238 0
M  V30 17284 H 1656.42 -2.92637 -0.38045 0
M  V30 17285 H 1656.5 -2.23408 1.24589 0
M  V30 17286 H 1656.14 -4.5629 2.23074 0
M  V30 17287 H 1656.07 -5.23376 0.58185 0
M  V30 17288 H 1658.57 -3.68979 0.816271 0
M  V30 17289 H 1658.88 -7.38576 2.27431 0
M  V30 17290 H 1657.22 -6.64426 2.03871 0
M  V30 17291 H 1660.41 -4.55156 1.09321 0
M  V30 17292 H 1660.59 -6.23701 1.75786 0
M  V30 17293 N 1653.99 -0.213323 -1.5615 0
M  V30 17294 C 1654.94 0.716708 -2.21283 0
M  V30 17295 C 1655.94 1.20599 -1.18963 0
M  V30 17296 O 1657.14 1.16677 -1.37064 0
M  V30 17297 H 1653.52 0.249524 -0.709395 0
M  V30 17298 H 1655.49 0.14385 -2.98053 0
M  V30 17299 C 1654.24 1.91775 -2.9003 0
M  V30 17300 H 1653.56 1.55036 -3.68516 0
M  V30 17301 H 1655 2.54646 -3.39016 0
M  V30 17302 C 1653.46 2.768 -1.92051 0
M  V30 17303 O 1653.99 3.75299 -1.43225 0
M  V30 17304 N 1652.19 2.42666 -1.5988 0
M  V30 17305 H 1651.74 1.62622 -1.99779 0
M  V30 17306 H 1651.7 2.99836 -0.945833 0
M  V30 17307 N 1655.47 1.57485 0.0601405 0
M  V30 17308 C 1656.4 2.07525 1.07031 0
M  V30 17309 C 1657.38 0.971136 1.39653 0
M  V30 17310 O 1658.57 1.24456 1.49078 0
M  V30 17311 C 1655.7 2.52888 2.38044 0
M  V30 17312 C 1654.65 3.67282 2.19745 0
M  V30 17313 C 1653.98 3.98741 3.56244 0
M  V30 17314 C 1655.28 4.96896 1.60908 0
M  V30 17315 H 1656.97 2.92173 0.653875 0
M  V30 17316 H 1654.52 1.40555 0.313083 0
M  V30 17317 H 1656.47 2.8651 3.09014 0
M  V30 17318 H 1655.2 1.65284 2.81689 0
M  V30 17319 H 1653.85 3.33961 1.51213 0
M  V30 17320 H 1653.5 3.08249 3.97481 0
M  V30 17321 H 1653.2 4.75775 3.44836 0
M  V30 17322 H 1654.73 4.34869 4.28627 0
M  V30 17323 H 1656.14 5.28674 2.21758 0
M  V30 17324 H 1654.54 5.78332 1.60164 0
M  V30 17325 H 1655.61 4.81518 0.571671 0
M  V30 17326 N 1656.95 -0.331789 1.54068 0
M  V30 17327 C 1657.9 -1.40798 1.82879 0
M  V30 17328 C 1658.87 -1.51753 0.675292 0
M  V30 17329 O 1660.05 -1.67105 0.920905 0
M  V30 17330 C 1657.19 -2.7728 2.0545 0
M  V30 17331 C 1656.31 -2.75022 3.33147 0
M  V30 17332 C 1655.44 -4.03297 3.45723 0
M  V30 17333 C 1654.48 -3.95314 4.67326 0
M  V30 17334 N 1653.62 -5.15303 4.76872 0
M  V30 17335 H 1658.46 -1.15529 2.74695 0
M  V30 17336 H 1655.99 -0.559411 1.36048 0
M  V30 17337 H 1657.95 -3.56611 2.16528 0
M  V30 17338 H 1656.58 -3.00875 1.16935 0
M  V30 17339 H 1655.63 -1.87729 3.30851 0
M  V30 17340 H 1656.95 -2.65003 4.22581 0
M  V30 17341 H 1656.1 -4.91057 3.56297 0
M  V30 17342 H 1654.84 -4.16112 2.54367 0
M  V30 17343 H 1653.84 -3.05939 4.56817 0
M  V30 17344 H 1655.07 -3.84072 5.60058 0
M  V30 17345 H 1653.01 -5.28639 3.88429 0
M  V30 17346 H 1652.93 -5.07588 5.60259 0
M  V30 17347 H 1654.2 -6.04801 4.91769 0
M  V30 17348 N 1658.43 -1.46001 -0.593424 0
M  V30 17349 C 1659.34 -1.58316 -1.73128 0
M  V30 17350 C 1660.35 -0.467029 -1.67615 0
M  V30 17351 O 1661.53 -0.729682 -1.87717 0
M  V30 17352 C 1658.6 -1.56007 -3.09617 0
M  V30 17353 C 1657.66 -2.78769 -3.26475 0
M  V30 17354 C 1656.89 -2.76561 -4.56453 0
M  V30 17355 O 1657.11 -1.84694 -5.39671 0
M  V30 17356 O 1656.05 -3.67959 -4.76329 0
M  V30 17357 H 1659.87 -2.54522 -1.65686 0
M  V30 17358 H 1657.46 -1.28672 -0.759204 0
M  V30 17359 H 1659.34 -1.57377 -3.9091 0
M  V30 17360 H 1658.01 -0.629571 -3.17519 0
M  V30 17361 H 1656.92 -2.82956 -2.44717 0
M  V30 17362 H 1658.25 -3.70992 -3.23459 0
M  V30 17363 N 1659.91 0.83715 -1.33527 0
M  V30 17364 C 1660.85 1.94709 -1.23924 0
M  V30 17365 C 1661.82 1.65684 -0.117494 0
M  V30 17366 O 1663.01 1.88489 -0.296057 0
M  V30 17367 C 1660.15 3.3071 -0.986146 0
M  V30 17368 C 1659.26 3.72121 -2.19432 0
M  V30 17369 C 1658.4 4.96999 -1.87524 0
M  V30 17370 C 1657.44 5.3095 -3.04563 0
M  V30 17371 N 1656.57 6.47006 -2.72632 0
M  V30 17372 H 1661.41 2.02255 -2.18854 0
M  V30 17373 H 1658.95 0.989703 -1.08827 0
M  V30 17374 H 1660.91 4.09065 -0.819834 0
M  V30 17375 H 1659.54 3.22716 -0.0735786 0
M  V30 17376 H 1658.59 2.89274 -2.47032 0
M  V30 17377 H 1659.9 3.93192 -3.06923 0
M  V30 17378 H 1659.06 5.83107 -1.67546 0
M  V30 17379 H 1657.79 4.77901 -0.972714 0
M  V30 17380 H 1656.8 4.43346 -3.25153 0
M  V30 17381 H 1658.02 5.51995 -3.95573 0
M  V30 17382 H 1655.97 6.29391 -1.8494 0
M  V30 17383 H 1655.89 6.6818 -3.53654 0
M  V30 17384 H 1657.16 7.3622 -2.56125 0
M  V30 17385 N 1661.38 1.17024 1.05561 0
M  V30 17386 C 1662.32 0.827019 2.12687 0
M  V30 17387 C 1663.3 -0.204573 1.61308 0
M  V30 17388 O 1664.48 -0.0869578 1.88299 0
M  V30 17389 C 1661.61 0.233018 3.37897 0
M  V30 17390 C 1660.65 1.2394 4.08094 0
M  V30 17391 S 1661.49 2.78918 4.57127 0
M  V30 17392 C 1662.64 2.20988 5.8559 0
M  V30 17393 H 1662.87 1.73431 2.41472 0
M  V30 17394 H 1660.41 0.994498 1.18106 0
M  V30 17395 H 1662.37 -0.103221 4.1037 0
M  V30 17396 H 1661.03 -0.652154 3.07255 0
M  V30 17397 H 1660.22 0.772359 4.98047 0
M  V30 17398 H 1659.82 1.5211 3.4167 0
M  V30 17399 H 1662.11 1.58313 6.58744 0
M  V30 17400 H 1663.06 3.0918 6.37035 0
M  V30 17401 H 1663.46 1.64583 5.39975 0
M  V30 17402 N 1662.86 -1.24221 0.969889 0
M  V30 17403 C 1663.77 -2.29001 0.509467 0
M  V30 17404 C 1664.79 -1.68587 -0.430637 0
M  V30 17405 O 1665.96 -1.99106 -0.303142 0
M  V30 17406 C 1663.03 -3.46174 -0.190906 0
M  V30 17407 C 1662.09 -4.21982 0.789296 0
M  V30 17408 C 1661.32 -5.3356 0.122252 0
M  V30 17409 O 1661.55 -5.59909 -1.08896 0
M  V30 17410 O 1660.48 -5.9635 0.815517 0
M  V30 17411 H 1664.31 -2.70506 1.38058 0
M  V30 17412 H 1661.89 -1.29955 0.737028 0
M  V30 17413 H 1663.77 -4.1733 -0.584244 0
M  V30 17414 H 1662.45 -3.06642 -1.03695 0
M  V30 17415 H 1661.36 -3.53192 1.23313 0
M  V30 17416 H 1662.69 -4.65337 1.60382 0
M  V30 17417 N 1664.34 -0.740267 -1.39132 0
M  V30 17418 C 1665.3 -0.112183 -2.28925 0
M  V30 17419 C 1666.3 0.661598 -1.46559 0
M  V30 17420 O 1667.49 0.489835 -1.67171 0
M  V30 17421 C 1664.63 0.850121 -3.3013 0
M  V30 17422 H 1665.82 -0.903339 -2.85972 0
M  V30 17423 H 1663.37 -0.506427 -1.47868 0
M  V30 17424 H 1664.11 1.66744 -2.78149 0
M  V30 17425 H 1663.89 0.297847 -3.90967 0
M  V30 17426 H 1665.38 1.28599 -3.97306 0
M  V30 17427 N 1665.82 1.49844 -0.488302 0
M  V30 17428 C 1667.07 2.02009 0.0605782 0
M  V30 17429 C 1667.39 1.37114 1.38653 0
M  V30 17430 O 1666.66 0.522182 1.88812 0
M  V30 17431 H 1665.24 0.746569 0.0253773 0
M  V30 17432 H 1667.9 1.84 -0.64265 0
M  V30 17433 H 1667 3.11461 0.199542 0
M  V30 17434 N 1667.3 0.221601 1.56034 0
M  V30 17435 C 1668.71 -0.133783 1.59038 0
M  V30 17436 C 1668.91 -1.58952 1.23841 0
M  V30 17437 O 1667.97 -2.32972 0.973677 0
M  V30 17438 C 1669.28 0.192549 3.00083 0
M  V30 17439 C 1670.83 0.134791 3.1271 0
M  V30 17440 C 1671.3 0.434799 4.55931 0
M  V30 17441 N 1672.8 0.384372 4.61602 0
M  V30 17442 C 1673.53 0.59 5.70357 0
M  V30 17443 N 1673.03 0.857405 6.87474 0
M  V30 17444 N 1674.82 0.522433 5.59667 0
M  V30 17445 H 1666.97 1.17124 1.77189 0
M  V30 17446 H 1669.23 0.46946 0.823597 0
M  V30 17447 H 1668.94 1.20292 3.30488 0
M  V30 17448 H 1668.81 -0.49243 3.73972 0
M  V30 17449 H 1671.2 -0.866221 2.821 0
M  V30 17450 H 1671.28 0.853247 2.4115 0
M  V30 17451 H 1670.93 1.43325 4.87258 0
M  V30 17452 H 1670.86 -0.304849 5.25717 0
M  V30 17453 H 1673.35 0.185389 3.77445 0
M  V30 17454 H 1673.66 1.00241 7.66271 0
M  V30 17455 H 1672 0.894599 6.89218 0
M  V30 17456 H 1675.2 0.313754 4.67047 0
M  V30 17457 H 1675.37 0.686094 6.44358 0
M  V30 17458 N 1668.77 -1.57515 -0.0517878 0
M  V30 17459 C 1670.02 -1.87843 -0.745624 0
M  V30 17460 C 1670.34 -0.816318 -1.77091 0
M  V30 17461 O 1669.61 0.152784 -1.95303 0
M  V30 17462 H 1668.19 -0.693194 -0.278372 0
M  V30 17463 H 1670.86 -1.94886 -0.0231267 0
M  V30 17464 H 1669.95 -2.86001 -1.2494 0
M  V30 17465 N 1670.25 0.323614 -1.54242 0
M  V30 17466 C 1671.5 1.06314 -1.727 0
M  V30 17467 C 1671.83 1.87674 -0.499225 0
M  V30 17468 O 1671.11 1.87862 0.503805 0
M  V30 17469 C 1671.39 1.9879 -3.00258 0
M  V30 17470 C 1671.24 1.2076 -4.33286 0
M  V30 17471 C 1672.56 2.98314 -3.23569 0
M  V30 17472 H 1669.68 0.385101 -0.628384 0
M  V30 17473 H 1672.32 0.339801 -1.86937 0
M  V30 17474 H 1670.47 2.60468 -2.88251 0
M  V30 17475 H 1672.15 0.615425 -4.57176 0
M  V30 17476 H 1670.39 0.509878 -4.30793 0
M  V30 17477 H 1671.06 1.88662 -5.18759 0
M  V30 17478 H 1673.54 2.46757 -3.35037 0
M  V30 17479 H 1672.41 3.60204 -4.14179 0
M  V30 17480 H 1672.67 3.7077 -2.40795 0
M  V30 17481 N 1671.73 1.46313 0.585673 0
M  V30 17482 C 1673.14 1.4567 1.16778 0
M  V30 17483 C 1673.49 0.195957 1.95219 0
M  V30 17484 O 1672.62 -0.701142 2.04727 0
M  V30 17485 C 1673.21 2.6392 2.12443 0
M  V30 17486 C 1671.77 2.66327 2.65983 0
M  V30 17487 C 1670.92 2.38304 1.41797 0
M  V30 17488 H 1673.87 1.54236 0.37377 0
M  V30 17489 H 1673.89 2.39268 2.95856 0
M  V30 17490 H 1673.4 3.55663 1.55324 0
M  V30 17491 H 1671.5 1.78648 3.2698 0
M  V30 17492 H 1671.62 3.66203 3.08921 0
M  V30 17493 H 1669.98 1.88302 1.71507 0
M  V30 17494 H 1670.76 3.3222 0.86514 0
M  V30 17495 N 1673.21 -0.830057 1.33969 0
M  V30 17496 C 1674.16 -1.96189 1.2495 0
M  V30 17497 C 1675.15 -1.68743 0.149047 0
M  V30 17498 O 1676.36 -1.77248 0.31357 0
M  V30 17499 H 1672.73 -0.644184 0.387983 0
M  V30 17500 H 1674.7 -2.0092 2.20621 0
M  V30 17501 C 1673.45 -3.32569 1.01456 0
M  V30 17502 H 1672.78 -3.54232 1.85363 0
M  V30 17503 H 1674.22 -4.12237 0.991786 0
M  V30 17504 C 1672.67 -3.35715 -0.282331 0
M  V30 17505 O 1673.2 -3.80556 -1.28609 0
M  V30 17506 N 1671.41 -2.8891 -0.312952 0
M  V30 17507 H 1670.96 -2.52613 0.504446 0
M  V30 17508 H 1670.92 -2.91397 -1.18047 0
M  V30 17509 N 1674.69 -1.17582 -1.04939 0
M  V30 17510 C 1675.94 -0.96387 -1.77634 0
M  V30 17511 C 1676.26 0.508548 -1.88252 0
M  V30 17512 O 1675.53 1.36913 -1.40113 0
M  V30 17513 H 1674.11 -0.353636 -0.65799 0
M  V30 17514 H 1676.77 -1.48104 -1.26693 0
M  V30 17515 H 1675.86 -1.39438 -2.79219 0
M  V30 17516 N 1676.17 1.23705 -0.976463 0
M  V30 17517 C 1677.41 1.9132 -0.638714 0
M  V30 17518 C 1677.73 1.7707 0.830993 0
M  V30 17519 O 1678.93 2.39453 1.27964 0
M  V30 17520 C 1677.39 3.42941 -1.09178 0
M  V30 17521 C 1677 3.6586 -2.58555 0
M  V30 17522 C 1678.74 4.16355 -0.827585 0
M  V30 17523 C 1676.65 5.11096 -2.97549 0
M  V30 17524 H 1675.58 0.716382 -0.235187 0
M  V30 17525 H 1678.23 1.40205 -1.18384 0
M  V30 17526 H 1676.61 3.93142 -0.474893 0
M  V30 17527 H 1677.79 3.26221 -3.25448 0
M  V30 17528 H 1676.1 3.05748 -2.82678 0
M  V30 17529 H 1678.7 5.23372 -1.09482 0
M  V30 17530 H 1679.04 4.15629 0.236282 0
M  V30 17531 H 1679.57 3.7213 -1.40586 0
M  V30 17532 H 1676.31 5.1695 -4.03042 0
M  V30 17533 H 1675.83 5.51699 -2.35346 0
M  V30 17534 H 1677.51 5.79397 -2.87937 0
M  V30 17535 N 1677.64 0.747635 1.38738 0
M  V30 17536 C 1679.05 0.369576 1.83006 0
M  V30 17537 C 1679.41 -1.10091 1.62402 0
M  V30 17538 O 1678.53 -1.85042 1.12198 0
M  V30 17539 C 1679.13 0.664018 3.32229 0
M  V30 17540 C 1677.68 0.339308 3.74868 0
M  V30 17541 C 1676.83 0.920231 2.61586 0
M  V30 17542 H 1679.78 0.944268 1.27551 0
M  V30 17543 H 1679.8 -0.0598575 3.80453 0
M  V30 17544 H 1679.32 1.73432 3.47193 0
M  V30 17545 H 1677.42 -0.724649 3.65485 0
M  V30 17546 H 1677.53 0.830699 4.71843 0
M  V30 17547 H 1675.89 0.346002 2.52339 0
M  V30 17548 H 1676.68 1.99544 2.79351 0
M  V30 17549 N 1679.12 -1.49583 0.496242 0
M  V30 17550 C 1680.08 -2.27561 -0.273642 0
M  V30 17551 C 1681.08 -1.33375 -0.8982 0
M  V30 17552 O 1682.27 -1.56578 -0.76347 0
M  V30 17553 C 1679.41 -3.11178 -1.39216 0
M  V30 17554 H 1680.6 -2.97077 0.410543 0
M  V30 17555 H 1678.15 -1.54271 0.251058 0
M  V30 17556 H 1678.89 -2.46217 -2.11064 0
M  V30 17557 H 1678.67 -3.80422 -0.949829 0
M  V30 17558 H 1680.16 -3.70085 -1.93459 0
M  V30 17559 N 1680.6 -0.229873 -1.55915 0
M  V30 17560 C 1681.51 0.687953 -2.24286 0
M  V30 17561 C 1682.53 1.20705 -1.25325 0
M  V30 17562 O 1683.7 1.2469 -1.58159 0
M  V30 17563 C 1680.77 1.87563 -2.91584 0
M  V30 17564 C 1679.83 1.39769 -4.0591 0
M  V30 17565 C 1679.06 2.52876 -4.69989 0
M  V30 17566 O 1679.28 3.71208 -4.33083 0
M  V30 17567 O 1678.22 2.23603 -5.58825 0
M  V30 17568 H 1682.04 0.135464 -3.03398 0
M  V30 17569 H 1679.63 0.000925172 -1.494 0
M  V30 17570 H 1681.51 2.56907 -3.34031 0
M  V30 17571 H 1680.19 2.41606 -2.15426 0
M  V30 17572 H 1679.09 0.672029 -3.68014 0
M  V30 17573 H 1680.43 0.903543 -4.83836 0
M  V30 17574 N 1682.08 1.5754 0.0434337 0
M  V30 17575 C 1683.35 1.79733 0.771713 0
M  V30 17576 C 1683.73 0.82446 1.94334 0
M  V30 17577 O 1683.08 -0.136485 2.28092 0
M  V30 17578 C 1683.29 3.27049 1.2182 0
M  V30 17579 C 1684.64 3.91648 1.64002 0
M  V30 17580 O 1685.66 3.31111 1.31315 0
M  V30 17581 O 1684.52 4.98206 2.24618 0
M  V30 17582 H 1681.62 0.73861 0.372001 0
M  V30 17583 H 1684.16 1.69687 0.0213187 0
M  V30 17584 H 1682.94 3.89439 0.381158 0
M  V30 17585 H 1682.56 3.41929 2.02905 0
M  V30 17586 N 1683.56 -0.31543 1.54411 0
M  V30 17587 C 1684.78 -1.0761 1.77299 0
M  V30 17588 C 1685.21 -1.80655 0.523963 0
M  V30 17589 O 1684.56 -1.73536 -0.524874 0
M  V30 17590 C 1684.61 -2.04355 2.97105 0
M  V30 17591 O 1683.72 -3.12401 2.69219 0
M  V30 17592 H 1683.06 -0.30986 0.587267 0
M  V30 17593 H 1685.59 -0.357246 2.01457 0
M  V30 17594 H 1685.6 -2.47081 3.24677 0
M  V30 17595 H 1684.27 -1.50592 3.87679 0
M  V30 17596 H 1682.85 -2.74294 2.52621 0
M  V30 17597 N 1685.03 -1.46622 -0.577906 0
M  V30 17598 C 1685.94 -1.60143 -1.71439 0
M  V30 17599 C 1686.96 -0.484781 -1.6711 0
M  V30 17600 O 1688.14 -0.749551 -1.86932 0
M  V30 17601 C 1685.2 -1.59282 -3.07945 0
M  V30 17602 C 1684.26 -2.82216 -3.235 0
M  V30 17603 C 1683.5 -2.81387 -4.53495 0
M  V30 17604 O 1683.72 -1.90407 -5.37681 0
M  V30 17605 O 1682.65 -3.72991 -4.724 0
M  V30 17606 H 1686.48 -2.56265 -1.62978 0
M  V30 17607 H 1684.06 -1.2947 -0.745514 0
M  V30 17608 H 1685.95 -1.61515 -3.89218 0
M  V30 17609 H 1684.62 -0.663212 -3.16833 0
M  V30 17610 H 1683.53 -2.85536 -2.41702 0
M  V30 17611 H 1684.86 -3.74402 -3.19506 0
M  V30 17612 N 1686.51 0.822941 -1.34408 0
M  V30 17613 C 1687.44 1.94142 -1.21826 0
M  V30 17614 C 1688.46 1.6215 -0.145353 0
M  V30 17615 O 1689.65 1.74025 -0.397205 0
M  V30 17616 C 1686.75 3.28077 -0.849619 0
M  V30 17617 C 1685.92 3.88092 -2.0175 0
M  V30 17618 C 1684.98 5.00406 -1.62726 0
M  V30 17619 O 1684 5.18703 -2.34383 0
M  V30 17620 N 1685.21 5.7797 -0.541413 0
M  V30 17621 H 1687.97 2.05467 -2.18182 0
M  V30 17622 H 1685.53 0.999521 -1.27362 0
M  V30 17623 H 1687.52 4.00661 -0.57035 0
M  V30 17624 H 1686.09 3.12591 0.0237499 0
M  V30 17625 H 1685.31 3.07902 -2.46151 0
M  V30 17626 H 1686.6 4.24921 -2.79856 0
M  V30 17627 H 1686 5.65674 0.0542929 0
M  V30 17628 H 1684.56 6.51005 -0.321874 0
M  V30 17629 N 1687.99 1.18137 1.04314 0
M  V30 17630 C 1688.92 0.929593 2.14198 0
M  V30 17631 C 1689.9 -0.131766 1.69589 0
M  V30 17632 O 1691.09 0.0203104 1.94189 0
M  V30 17633 C 1688.22 0.451799 3.44349 0
M  V30 17634 C 1687.17 1.45336 4.02569 0
M  V30 17635 C 1686.5 0.833176 5.28169 0
M  V30 17636 C 1687.8 2.8293 4.39031 0
M  V30 17637 H 1689.49 1.84856 2.35518 0
M  V30 17638 H 1687.04 0.890217 1.13186 0
M  V30 17639 H 1688.99 0.26303 4.20578 0
M  V30 17640 H 1687.71 -0.502725 3.22708 0
M  V30 17641 H 1686.37 1.62902 3.28418 0
M  V30 17642 H 1686.02 -0.128459 5.02836 0
M  V30 17643 H 1685.72 1.50185 5.68083 0
M  V30 17644 H 1687.24 0.654881 6.07078 0
M  V30 17645 H 1688.66 2.6903 5.06257 0
M  V30 17646 H 1687.06 3.46458 4.89987 0
M  V30 17647 H 1688.13 3.3667 3.48972 0
M  V30 17648 N 1689.47 -1.23186 0.98301 0
M  V30 17649 C 1690.43 -2.22979 0.530366 0
M  V30 17650 C 1691.43 -1.56211 -0.381421 0
M  V30 17651 O 1692.62 -1.73321 -0.17475 0
M  V30 17652 C 1689.75 -3.40124 -0.229882 0
M  V30 17653 H 1690.95 -2.64539 1.41277 0
M  V30 17654 H 1688.5 -1.36064 0.769172 0
M  V30 17655 H 1689.23 -3.04024 -1.12871 0
M  V30 17656 H 1689.02 -3.89794 0.424653 0
M  V30 17657 H 1690.51 -4.14158 -0.535078 0
M  V30 17658 N 1690.95 -0.754982 -1.38339 0
M  V30 17659 C 1692.17 -0.321355 -2.04895 0
M  V30 17660 C 1692.6 1.04249 -1.56569 0
M  V30 17661 O 1691.95 1.66464 -0.718299 0
M  V30 17662 C 1692 -0.354873 -3.5885 0
M  V30 17663 O 1691.11 0.65063 -4.07235 0
M  V30 17664 H 1690.45 -0.142033 -0.648631 0
M  V30 17665 H 1692.98 -1.02649 -1.76987 0
M  V30 17666 H 1692.99 -0.206243 -4.07478 0
M  V30 17667 H 1691.66 -1.34994 -3.93382 0
M  V30 17668 H 1690.24 0.466498 -3.69971 0
M  V30 17669 N 1692.42 1.49318 -0.504168 0
M  V30 17670 C 1693.67 2.02062 0.039149 0
M  V30 17671 C 1693.99 1.38577 1.37191 0
M  V30 17672 O 1693.26 0.542179 1.88248 0
M  V30 17673 H 1691.84 0.746796 0.0174575 0
M  V30 17674 H 1694.51 1.83308 -0.66213 0
M  V30 17675 H 1693.6 3.11656 0.166496 0
M  V30 17676 N 1693.9 0.238138 1.5579 0
M  V30 17677 C 1694.83 -0.697701 2.18323 0
M  V30 17678 C 1695.85 -1.1453 1.15701 0
M  V30 17679 O 1697.04 -1.07359 1.42605 0
M  V30 17680 C 1694.14 -1.95895 2.76547 0
M  V30 17681 C 1693.31 -1.66422 4.04503 0
M  V30 17682 C 1692.37 -2.77419 4.4713 0
M  V30 17683 O 1691.39 -2.45179 5.13689 0
M  V30 17684 N 1692.6 -4.06731 4.14187 0
M  V30 17685 H 1695.36 -0.162705 2.99258 0
M  V30 17686 H 1692.92 0.0577602 1.61797 0
M  V30 17687 H 1694.91 -2.69374 3.02026 0
M  V30 17688 H 1693.48 -2.40398 1.99819 0
M  V30 17689 H 1692.7 -0.76505 3.86705 0
M  V30 17690 H 1693.99 -1.44183 4.87943 0
M  V30 17691 H 1693.39 -4.3576 3.60735 0
M  V30 17692 H 1691.95 -4.76701 4.44521 0
M  V30 17693 N 1695.38 -1.57561 -0.0350783 0
M  V30 17694 C 1696.29 -2.09558 -1.05464 0
M  V30 17695 C 1697.31 -1.03288 -1.40027 0
M  V30 17696 O 1698.48 -1.34987 -1.49467 0
M  V30 17697 C 1695.55 -2.55966 -2.33842 0
M  V30 17698 C 1694.61 -3.76693 -2.05915 0
M  V30 17699 C 1693.84 -4.20878 -3.28172 0
M  V30 17700 O 1694.06 -3.64634 -4.38632 0
M  V30 17701 O 1693 -5.13367 -3.14225 0
M  V30 17702 H 1696.82 -2.9682 -0.642771 0
M  V30 17703 H 1694.41 -1.47265 -0.251668 0
M  V30 17704 H 1696.29 -2.86173 -3.09327 0
M  V30 17705 H 1694.97 -1.71818 -2.74336 0
M  V30 17706 H 1693.87 -3.51514 -1.28018 0
M  V30 17707 H 1695.21 -4.61807 -1.70281 0
M  V30 17708 N 1696.86 0.307236 -1.54576 0
M  V30 17709 C 1697.82 1.36178 -1.84359 0
M  V30 17710 C 1698.82 1.43971 -0.716163 0
M  V30 17711 O 1700.01 1.43715 -0.98446 0
M  V30 17712 C 1697.14 2.74733 -2.01828 0
M  V30 17713 H 1698.34 1.11017 -2.78595 0
M  V30 17714 H 1695.89 0.543582 -1.46543 0
M  V30 17715 H 1696.62 3.05126 -1.09858 0
M  V30 17716 H 1696.41 2.70468 -2.83883 0
M  V30 17717 H 1697.9 3.50992 -2.26261 0
M  V30 17718 N 1698.34 1.46926 0.570122 0
M  V30 17719 C 1699.58 1.52585 1.32523 0
M  V30 17720 C 1699.91 0.184291 1.94127 0
M  V30 17721 O 1699.18 -0.790478 1.79244 0
M  V30 17722 H 1697.76 0.562019 0.492081 0
M  V30 17723 H 1700.42 1.83141 0.666746 0
M  V30 17724 H 1699.51 2.28541 2.12545 0
M  V30 17725 N 1699.82 -0.815801 1.34842 0
M  V30 17726 C 1701.09 -1.55867 1.18173 0
M  V30 17727 C 1701.47 -2.09698 -0.242848 0
M  V30 17728 O 1700.82 -1.91594 -1.24514 0
M  V30 17729 C 1701.03 -2.67445 2.24219 0
M  V30 17730 C 1702.38 -3.36027 2.59559 0
M  V30 17731 O 1703.4 -2.77708 2.23062 0
M  V30 17732 O 1702.26 -4.4136 3.22279 0
M  V30 17733 H 1699.36 -0.688242 0.458533 0
M  V30 17734 H 1701.9 -0.856558 1.46496 0
M  V30 17735 H 1700.67 -2.25473 3.19809 0
M  V30 17736 H 1700.3 -3.453 1.97113 0
M  V30 17737 N 1701.29 -1.18689 -1.03686 0
M  V30 17738 C 1702.7 -0.988182 -1.58404 0
M  V30 17739 C 1703.06 0.461107 -1.90705 0
M  V30 17740 O 1702.18 1.33912 -1.6999 0
M  V30 17741 C 1702.78 -1.78748 -2.8781 0
M  V30 17742 C 1701.33 -1.63301 -3.39131 0
M  V30 17743 C 1700.48 -1.77954 -2.12668 0
M  V30 17744 H 1703.43 -1.33177 -0.863112 0
M  V30 17745 H 1703.45 -1.27882 -3.58366 0
M  V30 17746 H 1702.97 -2.84224 -2.6427 0
M  V30 17747 H 1701.07 -0.603777 -3.67676 0
M  V30 17748 H 1701.18 -2.43342 -4.127 0
M  V30 17749 H 1699.54 -1.20937 -2.24157 0
M  V30 17750 H 1700.33 -2.84873 -1.91579 0
M  V30 17751 N 1702.77 1.22662 -0.989529 0
M  V30 17752 C 1704.02 1.90944 -0.662187 0
M  V30 17753 C 1704.34 1.77477 0.807899 0
M  V30 17754 O 1703.61 1.15985 1.57874 0
M  V30 17755 H 1702.19 0.706738 -0.241932 0
M  V30 17756 H 1704.85 1.49091 -1.25531 0
M  V30 17757 H 1703.95 2.98177 -0.921777 0
M  V30 17758 N 1704.25 0.762308 1.37937 0
M  V30 17759 C 1705.49 0.327411 2.01761 0
M  V30 17760 C 1705.85 -1.07319 1.59206 0
M  V30 17761 O 1707.05 -1.60769 2.15423 0
M  V30 17762 C 1705.33 0.455779 3.54482 0
M  V30 17763 S 1706.88 0.104752 4.38675 0
M  V30 17764 H 1703.7 0.126503 0.699656 0
M  V30 17765 H 1706.3 0.994846 1.68295 0
M  V30 17766 H 1705.01 1.47593 3.82942 0
M  V30 17767 H 1704.54 -0.228536 3.92736 0
M  V30 17768 H 1706.55 -1.10282 4.83789 0
M  V30 17769 N 1705.73 -1.49049 0.51208 0
M  V30 17770 C 1706.66 -2.32163 -0.249529 0
M  V30 17771 C 1707.64 -1.40957 -0.952114 0
M  V30 17772 O 1708.82 -1.69858 -0.94137 0
M  V30 17773 C 1705.95 -3.21737 -1.30776 0
M  V30 17774 C 1704.91 -4.21825 -0.724392 0
M  V30 17775 C 1704.23 -5.00411 -1.88396 0
M  V30 17776 C 1705.53 -5.21483 0.291975 0
M  V30 17777 H 1707.23 -2.96086 0.444253 0
M  V30 17778 H 1704.77 -1.42385 0.215093 0
M  V30 17779 H 1706.73 -3.78699 -1.84837 0
M  V30 17780 H 1705.45 -2.55779 -2.03088 0
M  V30 17781 H 1704.11 -3.66024 -0.205441 0
M  V30 17782 H 1703.76 -4.30891 -2.59502 0
M  V30 17783 H 1703.46 -5.68141 -1.49964 0
M  V30 17784 H 1704.98 -5.6022 -2.42869 0
M  V30 17785 H 1706.4 -5.73074 -0.160899 0
M  V30 17786 H 1704.79 -5.97166 0.592717 0
M  V30 17787 H 1705.86 -4.69714 1.20404 0
M  V30 17788 N 1707.21 -0.246397 -1.55662 0
M  V30 17789 C 1708.15 0.653368 -2.21359 0
M  V30 17790 C 1709.12 1.1717 -1.1773 0
M  V30 17791 O 1710.31 1.22626 -1.46176 0
M  V30 17792 C 1707.45 1.84484 -2.9165 0
M  V30 17793 C 1706.56 1.36308 -4.09932 0
M  V30 17794 C 1705.7 2.51407 -4.6794 0
M  V30 17795 C 1704.73 2.0009 -5.78472 0
M  V30 17796 N 1703.87 3.08555 -6.30665 0
M  V30 17797 H 1708.71 0.0864458 -2.97875 0
M  V30 17798 H 1706.25 0.0309074 -1.47068 0
M  V30 17799 H 1708.21 2.54476 -3.30602 0
M  V30 17800 H 1706.84 2.38425 -2.17609 0
M  V30 17801 H 1705.89 0.557224 -3.76297 0
M  V30 17802 H 1707.2 0.946988 -4.89728 0
M  V30 17803 H 1706.35 3.29442 -5.09463 0
M  V30 17804 H 1705.09 2.96318 -3.87359 0
M  V30 17805 H 1704.1 1.20526 -5.36427 0
M  V30 17806 H 1705.32 1.5615 -6.60904 0
M  V30 17807 H 1703.27 3.529 -5.52989 0
M  V30 17808 H 1703.19 2.71274 -7.05653 0
M  V30 17809 H 1704.45 3.8665 -6.76847 0
M  V30 17810 N 1708.68 1.57577 0.026722 0
M  V30 17811 C 1710.09 1.77689 0.573022 0
M  V30 17812 C 1710.45 0.877771 1.7547 0
M  V30 17813 O 1709.57 0.0732156 2.16276 0
M  V30 17814 C 1710.17 3.22239 1.0463 0
M  V30 17815 C 1708.72 3.4354 1.5381 0
M  V30 17816 C 1707.87 2.73163 0.47722 0
M  V30 17817 H 1710.82 1.57441 -0.199502 0
M  V30 17818 H 1710.84 3.28882 1.91355 0
M  V30 17819 H 1710.36 3.87654 0.186047 0
M  V30 17820 H 1708.46 2.83304 2.42012 0
M  V30 17821 H 1708.57 4.52158 1.58398 0
M  V30 17822 H 1706.93 2.37004 0.932793 0
M  V30 17823 H 1707.72 3.41261 -0.373605 0
M  V30 17824 N 1710.16 -0.299034 1.54737 0
M  V30 17825 C 1711.09 -1.37358 1.88826 0
M  V30 17826 C 1712.07 -1.52802 0.747367 0
M  V30 17827 O 1713.26 -1.66277 1.00327 0
M  V30 17828 C 1710.39 -2.73746 2.13729 0
M  V30 17829 C 1709.34 -2.73065 3.29575 0
M  V30 17830 C 1708.67 -4.12761 3.39901 0
M  V30 17831 C 1709.97 -2.34631 4.66632 0
M  V30 17832 H 1711.66 -1.09077 2.78824 0
M  V30 17833 H 1709.21 -0.523276 1.34156 0
M  V30 17834 H 1711.16 -3.49006 2.36162 0
M  V30 17835 H 1709.88 -3.03556 1.20504 0
M  V30 17836 H 1708.54 -2.00261 3.07068 0
M  V30 17837 H 1708.19 -4.39751 2.44189 0
M  V30 17838 H 1707.89 -4.13205 4.17774 0
M  V30 17839 H 1709.42 -4.89797 3.64597 0
M  V30 17840 H 1710.83 -2.99608 4.88782 0
M  V30 17841 H 1709.23 -2.46285 5.47233 0
M  V30 17842 H 1710.3 -1.29759 4.67216 0
M  V30 17843 N 1711.64 -1.47227 -0.562322 0
M  V30 17844 C 1712.59 -1.55739 -1.66521 0
M  V30 17845 C 1713.57 -0.416678 -1.55411 0
M  V30 17846 O 1714.77 -0.666302 -1.6398 0
M  V30 17847 C 1711.89 -1.5699 -3.05302 0
M  V30 17848 C 1710.98 -2.76427 -3.21634 0
M  V30 17849 N 1711.37 -4.01172 -3.0805 0
M  V30 17850 C 1709.67 -2.73081 -3.52623 0
M  V30 17851 C 1710.37 -4.81132 -3.26936 0
M  V30 17852 N 1709.35 -4.13362 -3.53034 0
M  V30 17853 H 1713.15 -2.49965 -1.5458 0
M  V30 17854 H 1710.66 -1.4315 -0.766937 0
M  V30 17855 H 1712.66 -1.61178 -3.84483 0
M  V30 17856 H 1711.32 -0.638563 -3.18359 0
M  V30 17857 H 1712.33 -4.3211 -2.85485 0
M  V30 17858 H 1709.01 -1.89062 -3.72239 0
M  V30 17859 H 1710.4 -5.9002 -3.21444 0
M  V30 17860 N 1713.12 0.808639 -1.35273 0
M  V30 17861 C 1714.03 1.95198 -1.30134 0
M  V30 17862 C 1715.04 1.72769 -0.206587 0
M  V30 17863 O 1716.22 1.96633 -0.4356 0
M  V30 17864 C 1713.28 3.29747 -1.07087 0
M  V30 17865 C 1712.35 3.65086 -2.25855 0
M  V30 17866 C 1711.58 4.93215 -2.03898 0
M  V30 17867 O 1711.8 5.61487 -1.00439 0
M  V30 17868 O 1710.74 5.26765 -2.91208 0
M  V30 17869 H 1714.56 2.0248 -2.26353 0
M  V30 17870 H 1712.15 0.946124 -1.15624 0
M  V30 17871 H 1714.03 4.10302 -0.960734 0
M  V30 17872 H 1712.7 3.23401 -0.139177 0
M  V30 17873 H 1711.61 2.84917 -2.42432 0
M  V30 17874 H 1712.94 3.76135 -3.17464 0
M  V30 17875 N 1714.6 1.19237 1.03055 0
M  V30 17876 C 1715.54 0.928588 2.11296 0
M  V30 17877 C 1716.51 -0.135941 1.65543 0
M  V30 17878 O 1717.7 0.00584847 1.90799 0
M  V30 17879 C 1714.84 0.471532 3.41863 0
M  V30 17880 C 1713.95 1.60264 4.01173 0
M  V30 17881 C 1713.09 1.09729 5.19743 0
M  V30 17882 C 1712.13 2.2024 5.71105 0
M  V30 17883 N 1711.26 1.71024 6.80952 0
M  V30 17884 H 1716.1 1.85536 2.33196 0
M  V30 17885 H 1713.64 0.925029 1.14375 0
M  V30 17886 H 1715.6 0.187949 4.16776 0
M  V30 17887 H 1714.23 -0.41825 3.20079 0
M  V30 17888 H 1713.28 2.00147 3.23489 0
M  V30 17889 H 1714.59 2.43531 4.35309 0
M  V30 17890 H 1713.75 0.768832 6.01809 0
M  V30 17891 H 1712.48 0.234324 4.87137 0
M  V30 17892 H 1711.49 2.53918 4.87653 0
M  V30 17893 H 1712.71 3.06989 6.05751 0
M  V30 17894 H 1710.66 0.870334 6.50201 0
M  V30 17895 H 1710.58 2.47882 7.14206 0
M  V30 17896 H 1711.85 1.41137 7.66616 0
M  V30 17897 N 1716.07 -1.22136 0.99602 0
M  V30 17898 C 1717.35 -1.86506 0.589466 0
M  V30 17899 C 1717.73 -1.89355 -0.933159 0
M  V30 17900 O 1717.08 -1.38634 -1.8164 0
M  V30 17901 C 1717.29 -3.27224 1.21349 0
M  V30 17902 C 1718.64 -4.03692 1.31597 0
M  V30 17903 O 1719.66 -3.36502 1.16812 0
M  V30 17904 O 1718.52 -5.23973 1.55289 0
M  V30 17905 H 1715.61 -0.802279 0.200692 0
M  V30 17906 H 1718.16 -1.2989 1.0921 0
M  V30 17907 H 1716.93 -3.19802 2.25483 0
M  V30 17908 H 1716.56 -3.91449 0.696645 0
M  V30 17909 N 1717.55 -0.769612 -1.37531 0
M  V30 17910 C 1718.78 -0.343069 -2.04543 0
M  V30 17911 C 1719.2 1.02583 -1.57665 0
M  V30 17912 O 1718.56 1.65692 -0.735915 0
M  V30 17913 C 1718.61 -0.392914 -3.58453 0
M  V30 17914 O 1717.71 0.607401 -4.07902 0
M  V30 17915 H 1717.05 -0.148905 -0.647088 0
M  V30 17916 H 1719.58 -1.04521 -1.75888 0
M  V30 17917 H 1719.59 -0.24945 -4.07237 0
M  V30 17918 H 1718.27 -1.39159 -3.91928 0
M  V30 17919 H 1716.85 0.427231 -3.70445 0
M  V30 17920 N 1719.03 1.48775 -0.519977 0
M  V30 17921 C 1719.94 2.33239 0.252329 0
M  V30 17922 C 1720.96 1.45852 0.948849 0
M  V30 17923 O 1722.13 1.78848 0.92603 0
M  V30 17924 C 1719.2 3.2174 1.29166 0
M  V30 17925 C 1718.26 4.24993 0.606564 0
M  V30 17926 C 1717.49 5.09266 1.59638 0
M  V30 17927 O 1717.71 4.95353 2.82809 0
M  V30 17928 O 1716.65 5.90981 1.14127 0
M  V30 17929 H 1720.47 3.00503 -0.439527 0
M  V30 17930 H 1718.06 1.46733 -0.281032 0
M  V30 17931 H 1719.94 3.76512 1.89254 0
M  V30 17932 H 1718.62 2.5715 1.96611 0
M  V30 17933 H 1717.52 3.74084 -0.0345447 0
M  V30 17934 H 1718.86 4.92193 -0.0257627 0
M  V30 17935 N 1720.51 0.254649 1.55529 0
M  V30 17936 C 1721.73 -0.374795 2.03985 0
M  V30 17937 C 1722.16 -1.50188 1.13249 0
M  V30 17938 O 1721.52 -1.80855 0.126963 0
M  V30 17939 C 1721.56 -0.852635 3.50375 0
M  V30 17940 O 1720.67 -1.9616 3.6276 0
M  V30 17941 H 1720.01 -0.0806157 0.659088 0
M  V30 17942 H 1722.54 0.38297 2.00984 0
M  V30 17943 H 1722.55 -1.15381 3.91345 0
M  V30 17944 H 1721.22 -0.0279044 4.15891 0
M  V30 17945 H 1719.8 -1.66453 3.33688 0
M  V30 17946 N 1721.99 -1.57589 -0.0183649 0
M  V30 17947 C 1723.23 -1.89382 -0.705612 0
M  V30 17948 C 1723.56 -0.853698 -1.7532 0
M  V30 17949 O 1722.83 0.111322 -1.95583 0
M  V30 17950 H 1721.41 -0.698943 -0.263605 0
M  V30 17951 H 1724.07 -1.94891 0.0182168 0
M  V30 17952 H 1723.16 -2.88587 -1.18845 0
M  V30 17953 N 1723.46 0.290824 -1.54893 0
M  V30 17954 C 1724.71 1.02272 -1.74312 0
M  V30 17955 C 1725.03 1.87449 -0.537393 0
M  V30 17956 O 1724.3 1.90705 0.448135 0
M  V30 17957 H 1722.88 0.380592 -0.642774 0
M  V30 17958 H 1725.55 0.319353 -1.92266 0
M  V30 17959 H 1724.64 1.66997 -2.63663 0
M  V30 17960 N 1724.94 1.47523 0.554506 0
M  V30 17961 C 1726.19 1.53982 1.30897 0
M  V30 17962 C 1726.51 0.20487 1.93921 0
M  V30 17963 O 1725.78 -0.771422 1.80072 0
M  V30 17964 H 1724.36 0.567206 0.486092 0
M  V30 17965 H 1727.02 1.83838 0.647284 0
M  V30 17966 H 1726.12 2.30783 2.10109 0
M  V30 17967 N 1726.42 -0.801453 1.357 0
M  V30 17968 C 1727.37 -1.91355 1.29043 0
M  V30 17969 C 1728.34 -1.65314 0.161381 0
M  V30 17970 O 1729.52 -1.87638 0.345928 0
M  V30 17971 C 1726.66 -3.27979 1.07348 0
M  V30 17972 C 1725.78 -3.66172 2.29221 0
M  V30 17973 C 1724.91 -4.91853 2.00635 0
M  V30 17974 C 1723.95 -5.22688 3.18533 0
M  V30 17975 N 1723.09 -6.3955 2.8969 0
M  V30 17976 H 1727.93 -1.96381 2.24139 0
M  V30 17977 H 1725.46 -0.960502 1.11413 0
M  V30 17978 H 1727.42 -4.06748 0.928002 0
M  V30 17979 H 1726.05 -3.22408 0.159115 0
M  V30 17980 H 1725.1 -2.82623 2.54615 0
M  V30 17981 H 1726.42 -3.84916 3.1724 0
M  V30 17982 H 1725.57 -5.78459 1.82947 0
M  V30 17983 H 1724.31 -4.75154 1.09908 0
M  V30 17984 H 1723.31 -4.34569 3.36793 0
M  V30 17985 H 1724.54 -5.41313 4.10069 0
M  V30 17986 H 1722.48 -6.24266 2.01562 0
M  V30 17987 H 1722.4 -6.58569 3.71245 0
M  V30 17988 H 1723.67 -7.29171 2.75555 0
M  V30 17989 N 1727.9 -1.19782 -1.02421 0
M  V30 17990 C 1729.18 -0.912541 -1.73009 0
M  V30 17991 C 1729.56 0.58061 -2.02958 0
M  V30 17992 O 1728.9 1.54013 -1.68797 0
M  V30 17993 C 1729.11 -1.77745 -3.00346 0
M  V30 17994 C 1730.46 -2.01462 -3.73762 0
M  V30 17995 O 1731.49 -1.74935 -3.10284 0
M  V30 17996 O 1730.34 -2.46219 -4.87892 0
M  V30 17997 H 1727.44 -0.340513 -0.753644 0
M  V30 17998 H 1729.98 -1.30618 -1.08338 0
M  V30 17999 H 1728.76 -2.78887 -2.74477 0
M  V30 18000 H 1728.38 -1.38339 -3.72757 0
M  V30 18001 O 1729.42 1.1536 -1.13023 0
M  V30 18002 H 1730.11 1.74318 -0.844559 0
M  V30 END ATOM
M  V30 BEGIN BOND
M  V30 END BOND
M  V30 END CTAB
M  END
$$$$
