drugbank_target|O95819 Mitogen-activated protein kinase kinase kinase kinase 4 (DB12010)
 OpenBabel12092121163D

  0  0  0     0  0            999 V3000
M  V30 BEGIN CTAB
M  V30 COUNTS 19873 20070 0 0 0
M  V30 BEGIN ATOM
M  V30 1 H -0.908 1.98254 -0.117106 0
M  V30 2 N 0 1.576 0 0
M  V30 3 C 0.933 2.03868 1.02534 0
M  V30 4 C 1.911 0.928543 1.3348 0
M  V30 5 O 3.095 1.19667 1.45644 0
M  V30 6 C 0.222 2.43627 2.35294 0
M  V30 7 C -0.732 3.65373 2.2001 0
M  V30 8 S 0.101 5.13292 1.52614 0
M  V30 9 C 1.257 5.56322 2.86805 0
M  V30 10 H 1.49 2.90518 0.631377 0
M  V30 11 H -0.977 1.52953 0.210867 0
M  V30 12 H 0.981 2.67203 3.11629 0
M  V30 13 H -0.358 1.57376 2.7183 0
M  V30 14 H -1.165 3.90944 3.18086 0
M  V30 15 H -1.563 3.418 1.51819 0
M  V30 16 H 0.729 5.58782 3.83104 0
M  V30 17 H 1.672 6.56266 2.65933 0
M  V30 18 H 2.08 4.83886 2.90714 0
M  V30 19 N 1.4781 -0.272755 1.55222 0
M  V30 20 C 2.4411 -1.32041 1.87344 0
M  V30 21 C 3.4411 -1.42342 0.74803 0
M  V30 22 O 4.6311 -1.41488 1.0162 0
M  V30 23 C 1.7631 -2.70173 2.07893 0
M  V30 24 H 2.9561 -1.04789 2.80997 0
M  V30 25 H 0.5091 -0.51083 1.47717 0
M  V30 26 H 1.2441 -3.02605 1.16622 0
M  V30 27 H 1.0291 -2.64082 2.89833 0
M  V30 28 H 2.5191 -3.45869 2.34017 0
M  V30 29 N 2.9562 -1.48159 -0.537278 0
M  V30 30 C 3.9042 -1.62573 -1.66352 0
M  V30 31 C 4.8982 -0.492366 -1.62087 0
M  V30 32 O 6.1042 -0.670847 -1.67032 0
M  V30 33 H 2.4792 -0.511992 -0.550789 0
M  V30 34 H 4.4502 -2.57176 -1.51337 0
M  V30 35 C 3.1992 -1.67583 -3.04649 0
M  V30 36 H 2.5222 -2.54151 -3.08622 0
M  V30 37 H 3.9622 -1.81713 -3.83088 0
M  V30 38 C 2.4212 -0.413039 -3.34358 0
M  V30 39 O 2.9512 0.477259 -3.98855 0
M  V30 40 N 1.1572 -0.286961 -2.8918 0
M  V30 41 H 0.7042 -1.01241 -2.36871 0
M  V30 42 H 0.6622 0.556963 -3.09427 0
M  V30 43 N 4.4343 0.785586 -1.36625 0
M  V30 44 C 5.7113 1.53198 -1.21613 0
M  V30 45 C 6.0913 2.10187 0.196113 0
M  V30 46 O 5.4393 1.94318 1.20219 0
M  V30 47 C 5.6493 2.62388 -2.30116 0
M  V30 48 C 6.9973 3.30167 -2.66974 0
M  V30 49 O 8.0213 2.72674 -2.29188 0
M  V30 50 O 6.8803 4.34077 -3.32023 0
M  V30 51 H 3.9743 0.677865 -0.473738 0
M  V30 52 H 6.5203 0.823739 -1.48367 0
M  V30 53 H 5.2923 2.18299 -3.24748 0
M  V30 54 H 4.9153 3.40827 -2.0475 0
M  V30 55 N 5.9124 1.20967 1.01018 0
M  V30 56 C 7.1374 1.0503 1.78839 0
M  V30 57 C 7.5624 -0.395752 1.8389 0
M  V30 58 O 6.9204 -1.28529 1.27867 0
M  V30 59 C 6.9684 1.64602 3.2084 0
M  V30 60 O 6.0724 0.887988 4.02726 0
M  V30 61 H 5.4134 0.369987 0.551367 0
M  V30 62 H 7.9434 1.60399 1.27018 0
M  V30 63 H 7.9534 1.68607 3.71532 0
M  V30 64 H 6.6284 2.69841 3.16479 0
M  V30 65 H 5.2054 0.922648 3.61305 0
M  V30 66 N 7.3905 -1.2043 1.01659 0
M  V30 67 C 8.8015 -1.71517 0.737482 0
M  V30 68 C 9.1525 -1.81547 -0.743973 0
M  V30 69 O 8.2775 -1.47803 -1.58061 0
M  V30 70 C 8.8725 -3.11515 1.33206 0
M  V30 71 C 7.4315 -3.59912 1.10183 0
M  V30 72 C 6.5785 -2.37116 1.43776 0
M  V30 73 H 9.5295 -1.05444 1.18606 0
M  V30 74 H 9.5505 -3.73575 0.722636 0
M  V30 75 H 9.0625 -3.04182 2.41028 0
M  V30 76 H 7.1635 -3.72577 0.0412756 0
M  V30 77 H 7.2765 -4.44731 1.78188 0
M  V30 78 H 5.6405 -2.39857 0.856778 0
M  V30 79 H 6.4235 -2.32424 2.52654 0
M  V30 80 N 8.8686 -0.792821 -1.36206 0
M  V30 81 C 9.8316 -0.199459 -2.2833 0
M  V30 82 C 10.8316 0.605189 -1.48977 0
M  V30 83 O 12.0216 0.425685 -1.68919 0
M  V30 84 C 9.1536 0.723523 -3.33134 0
M  V30 85 H 10.3466 -1.01181 -2.82316 0
M  V30 86 H 7.8996 -0.562485 -1.45828 0
M  V30 87 H 8.6346 1.56008 -2.84309 0
M  V30 88 H 8.4196 0.148436 -3.91819 0
M  V30 89 H 9.9096 1.13344 -4.01924 0
M  V30 90 N 10.3467 1.47872 -0.545128 0
M  V30 91 C 11.2937 2.29849 0.2093 0
M  V30 92 C 12.2637 1.38313 0.919707 0
M  V30 93 O 13.4487 1.67277 0.917772 0
M  V30 94 C 10.5887 3.22019 1.24088 0
M  V30 95 C 9.7017 4.2864 0.537778 0
M  V30 96 C 8.8367 5.07973 1.5536 0
M  V30 97 C 7.8757 6.06381 0.8348 0
M  V30 98 N 7.0127 6.78717 1.79688 0
M  V30 99 H 11.8527 2.93845 -0.49591 0
M  V30 100 H 9.3897 1.44848 -0.256389 0
M  V30 101 H 11.3477 3.73868 1.85144 0
M  V30 102 H 9.9777 2.59914 1.91428 0
M  V30 103 H 9.0297 3.7994 -0.187046 0
M  V30 104 H 10.3417 4.98793 -0.0258907 0
M  V30 105 H 9.4957 5.63912 2.23803 0
M  V30 106 H 8.2347 4.37693 2.15118 0
M  V30 107 H 7.2397 5.49631 0.136388 0
M  V30 108 H 8.4647 6.78665 0.24313 0
M  V30 109 H 6.4107 6.11177 2.38326 0
M  V30 110 H 6.3277 7.44998 1.28505 0
M  V30 111 H 7.5957 7.39237 2.47282 0
M  V30 112 N 11.8248 0.280983 1.55075 0
M  V30 113 C 13.0498 -0.340154 2.04592 0
M  V30 114 C 13.4748 -1.48246 1.15779 0
M  V30 115 O 12.8328 -1.80614 0.15761 0
M  V30 116 C 12.8808 -0.793104 3.5177 0
M  V30 117 O 11.9848 -1.89981 3.66034 0
M  V30 118 H 11.3258 -0.0694289 0.66036 0
M  V30 119 H 13.8558 0.416993 2.00306 0
M  V30 120 H 13.8658 -1.08729 3.93245 0
M  V30 121 H 12.5408 0.0426163 4.15878 0
M  V30 122 H 11.1178 -1.60771 3.36463 0
M  V30 123 N 13.3029 -1.57598 0.00835791 0
M  V30 124 C 14.2329 -2.1198 -0.979113 0
M  V30 125 C 15.2139 -1.03091 -1.35301 0
M  V30 126 O 16.3989 -1.30818 -1.43528 0
M  V30 127 C 13.5289 -2.62995 -2.26828 0
M  V30 128 C 12.4829 -3.76485 -2.03576 0
M  V30 129 C 11.8089 -4.13846 -3.38579 0
M  V30 130 C 13.1089 -5.0342 -1.39161 0
M  V30 131 H 14.8029 -2.94738 -0.526281 0
M  V30 132 H 12.3489 -1.41783 -0.251704 0
M  V30 133 H 14.3019 -2.99669 -2.96271 0
M  V30 134 H 13.0259 -1.7737 -2.7424 0
M  V30 135 H 11.6849 -3.40217 -1.36557 0
M  V30 136 H 11.3329 -3.25232 -3.83709 0
M  V30 137 H 11.0329 -4.90312 -3.23834 0
M  V30 138 H 12.5569 -4.53086 -4.09323 0
M  V30 139 H 13.9709 -5.37812 -1.98573 0
M  V30 140 H 12.3679 -5.84746 -1.34878 0
M  V30 141 H 13.4379 -4.83548 -0.361868 0
M  V30 142 N 14.781 0.264519 -1.55364 0
M  V30 143 C 16.027 0.99646 -1.76631 0
M  V30 144 C 16.36 1.85632 -0.570478 0
M  V30 145 O 15.635 1.89647 0.43175 0
M  V30 146 C 15.918 1.87187 -3.07625 0
M  V30 147 C 15.771 1.04138 -4.37579 0
M  V30 148 C 17.09 2.85749 -3.34717 0
M  V30 149 H 14.209 0.360841 -0.642622 0
M  V30 150 H 16.851 0.268218 -1.88097 0
M  V30 151 H 15.001 2.49279 -2.9798 0
M  V30 152 H 16.673 0.440517 -4.59192 0
M  V30 153 H 14.916 0.345115 -4.32425 0
M  V30 154 H 15.587 1.68729 -5.2558 0
M  V30 155 H 18.063 2.33793 -3.4421 0
M  V30 156 H 16.939 3.44136 -4.27623 0
M  V30 157 H 17.2 3.61311 -2.54768 0
M  V30 158 N 16.2591 1.48442 0.529413 0
M  V30 159 C 17.5361 1.46978 1.29062 0
M  V30 160 C 17.9161 0.181769 2.10316 0
M  V30 161 O 17.2641 -0.836481 2.12639 0
M  V30 162 C 17.4741 2.7321 2.17157 0
M  V30 163 C 18.8221 3.21562 2.77278 0
M  V30 164 O 19.8461 2.74131 2.27444 0
M  V30 165 O 18.7051 4.04094 3.67927 0
M  V30 166 H 15.7991 0.587003 0.582543 0
M  V30 167 H 18.3451 1.60676 0.546021 0
M  V30 168 H 17.1171 3.58465 1.56903 0
M  V30 169 H 16.7401 2.62235 2.98862 0
M  V30 170 N 17.7372 -0.778329 1.37039 0
M  V30 171 C 18.9862 -1.53189 1.3121 0
M  V30 172 C 19.2992 -1.95328 -0.103095 0
M  V30 173 O 20.5052 -2.70012 -0.283826 0
M  V30 174 C 18.9612 -2.76591 2.30272 0
M  V30 175 C 18.5692 -2.41577 3.77286 0
M  V30 176 C 20.3132 -3.5455 2.33441 0
M  V30 177 C 18.2202 -3.61441 4.68096 0
M  V30 178 H 17.1502 -0.5751 0.487622 0
M  V30 179 H 19.8012 -0.853101 1.62464 0
M  V30 180 H 18.1832 -3.46326 1.92027 0
M  V30 181 H 19.3572 -1.79668 4.2433 0
M  V30 182 H 17.6722 -1.76806 3.76999 0
M  V30 183 H 20.2692 -4.43628 2.98493 0
M  V30 184 H 20.6122 -3.93936 1.34611 0
M  V30 185 H 21.1452 -2.91805 2.7036 0
M  V30 186 H 17.8842 -3.27142 5.6803 0
M  V30 187 H 17.4042 -4.22478 4.25761 0
M  V30 188 H 19.0832 -4.28335 4.8491 0
M  V30 189 N 19.2153 -1.21501 -1.00376 0
M  V30 190 C 20.4923 -0.941745 -1.71437 0
M  V30 191 C 20.8723 0.546114 -2.03914 0
M  V30 192 O 20.2203 1.51128 -1.71384 0
M  V30 193 C 20.4303 -1.82812 -2.97289 0
M  V30 194 C 21.7783 -2.07771 -3.70292 0
M  V30 195 O 22.8023 -1.80171 -3.07273 0
M  V30 196 O 21.6613 -2.54456 -4.83647 0
M  V30 197 H 18.7553 -0.353243 -0.747762 0
M  V30 198 H 21.3013 -1.32436 -1.06108 0
M  V30 199 H 20.0733 -2.83501 -2.69709 0
M  V30 200 H 19.6963 -1.4464 -3.70358 0
M  V30 201 N 20.6934 1.19889 -1.02296 0
M  V30 202 C 21.6234 2.25141 -0.619174 0
M  V30 203 C 22.6044 1.66051 0.368915 0
M  V30 204 O 23.7894 1.92546 0.252941 0
M  V30 205 C 20.9194 3.4728 0.0368783 0
M  V30 206 C 19.8734 4.19005 -0.872865 0
M  V30 207 C 19.1994 5.34637 -0.0822402 0
M  V30 208 C 20.4994 4.74452 -2.18387 0
M  V30 209 H 22.1934 2.59171 -1.49903 0
M  V30 210 H 19.7394 1.24579 -0.722222 0
M  V30 211 H 21.6924 4.20098 0.330958 0
M  V30 212 H 20.4164 3.12433 0.95149 0
M  V30 213 H 19.0754 3.48061 -1.15105 0
M  V30 214 H 18.7234 4.96034 0.83422 0
M  V30 215 H 18.4234 5.83557 -0.688149 0
M  V30 216 H 19.9474 6.10255 0.205238 0
M  V30 217 H 21.3614 5.39055 -1.95172 0
M  V30 218 H 19.7584 5.33834 -2.74119 0
M  V30 219 H 20.8284 3.92844 -2.84257 0
M  V30 220 N 22.1715 0.800033 1.35784 0
M  V30 221 C 23.3965 0.388511 2.03729 0
M  V30 222 C 23.8215 -0.990481 1.5991 0
M  V30 223 O 23.1795 -1.64013 0.772612 0
M  V30 224 C 23.2275 0.4726 3.5749 0
M  V30 225 O 22.3315 -0.51646 4.09153 0
M  V30 226 H 21.6725 0.163271 0.643614 0
M  V30 227 H 24.2025 1.0841 1.73518 0
M  V30 228 H 24.2125 0.34003 4.06581 0
M  V30 229 H 22.8875 1.47848 3.88734 0
M  V30 230 H 21.4645 -0.344673 3.71304 0
M  V30 231 N 23.6496 -1.47581 0.552962 0
M  V30 232 C 24.8746 -2.07378 0.0300593 0
M  V30 233 C 25.2996 -1.40355 -1.25229 0
M  V30 234 O 24.6576 -0.477099 -1.7491 0
M  V30 235 C 24.7056 -3.60274 -0.153231 0
M  V30 236 O 23.8096 -3.94041 -1.21678 0
M  V30 237 H 23.1506 -0.662158 0.0494182 0
M  V30 238 H 25.6806 -1.89662 0.767434 0
M  V30 239 H 25.6906 -4.0633 -0.368761 0
M  V30 240 H 24.3656 -4.08455 0.783397 0
M  V30 241 H 22.9426 -3.59735 -0.982079 0
M  V30 242 N 25.1277 -0.289203 -1.54924 0
M  V30 243 C 26.0577 0.58549 -2.2604 0
M  V30 244 C 27.0387 1.14753 -1.25562 0
M  V30 245 O 28.2237 1.17906 -1.54311 0
M  V30 246 C 25.3537 1.76305 -2.99222 0
M  V30 247 C 24.3077 1.33191 -4.06748 0
M  V30 248 C 23.6337 2.5937 -4.6758 0
M  V30 249 C 24.9337 0.471775 -5.20165 0
M  V30 250 H 26.6277 -0.00763532 -2.99399 0
M  V30 251 H 24.1737 -0.00511229 -1.43999 0
M  V30 252 H 26.1267 2.38097 -3.47689 0
M  V30 253 H 24.8507 2.38223 -2.23422 0
M  V30 254 H 23.5097 0.737121 -3.59113 0
M  V30 255 H 23.1577 3.19576 -3.88433 0
M  V30 256 H 22.8577 2.31228 -5.40192 0
M  V30 257 H 24.3817 3.21985 -5.18804 0
M  V30 258 H 25.7957 0.995056 -5.64599 0
M  V30 259 H 24.1927 0.284639 -5.99425 0
M  V30 260 H 25.2627 -0.506041 -4.82252 0
M  V30 261 N 26.6058 1.57591 -0.0167156 0
M  V30 262 C 28.0218 1.55946 0.339557 0
M  V30 263 C 28.2218 1.02109 1.73713 0
M  V30 264 O 27.2778 0.662303 2.43659 0
M  V30 265 C 28.5908 3.00037 0.199499 0
M  V30 266 C 30.1388 3.11805 0.273193 0
M  V30 267 C 30.6138 4.57713 0.162068 0
M  V30 268 N 32.1048 4.6268 0.219444 0
M  V30 269 C 32.8398 5.73185 0.157054 0
M  V30 270 N 32.3358 6.92786 0.0442936 0
M  V30 271 N 34.1288 5.61707 0.21014 0
M  V30 272 H 26.2798 1.90921 -0.930758 0
M  V30 273 H 28.5428 0.877674 -0.358319 0
M  V30 274 H 28.2488 3.4333 -0.76273 0
M  V30 275 H 28.1228 3.64387 0.974786 0
M  V30 276 H 30.5098 2.68433 1.22587 0
M  V30 277 H 30.5908 2.50201 -0.532256 0
M  V30 278 H 30.2348 5.01763 -0.78714 0
M  V30 279 H 30.1648 5.17283 0.986222 0
M  V30 280 H 32.6558 3.76649 0.307246 0
M  V30 281 H 32.9688 7.728 0.00304069 0
M  V30 282 H 31.3138 6.94999 0.00968457 0
M  V30 283 H 34.5048 4.6716 0.296546 0
M  V30 284 H 34.6778 6.47807 0.158054 0
M  V30 285 N 28.0839 -0.256276 1.55502 0
M  V30 286 C 29.3609 -1.00789 1.67633 0
M  V30 287 C 29.7409 -2.03706 0.553826 0
M  V30 288 O 29.0889 -2.24145 -0.443969 0
M  V30 289 C 29.2989 -1.64968 3.07549 0
M  V30 290 C 30.6469 -2.15505 3.65845 0
M  V30 291 O 31.6709 -1.74925 3.1029 0
M  V30 292 O 30.5299 -2.89986 4.63217 0
M  V30 293 H 27.6239 -0.468553 0.681459 0
M  V30 294 H 30.1699 -0.250806 1.67836 0
M  V30 295 H 28.9419 -0.904785 3.80696 0
M  V30 296 H 28.5649 -2.47321 3.11317 0
M  V30 297 N 29.562 -1.4872 -0.521534 0
M  V30 298 C 30.973 -1.50607 -1.10337 0
M  V30 299 C 31.324 -0.280612 -1.94183 0
M  V30 300 O 30.449 0.611507 -2.0758 0
M  V30 301 C 31.044 -2.72903 -2.00772 0
M  V30 302 C 29.603 -2.77634 -2.54158 0
M  V30 303 C 28.75 -2.44241 -1.31307 0
M  V30 304 H 31.701 -1.55714 -0.306388 0
M  V30 305 H 31.722 -2.519 -2.85178 0
M  V30 306 H 31.234 -3.62077 -1.39721 0
M  V30 307 H 29.335 -1.92689 -3.18907 0
M  V30 308 H 29.448 -3.79283 -2.92714 0
M  V30 309 H 27.812 -1.95577 -1.63161 0
M  V30 310 H 28.595 -3.35666 -0.719943 0
M  V30 311 N 31.0401 0.771051 -1.3745 0
M  V30 312 C 32.0031 1.86598 -1.33093 0
M  V30 313 C 33.0031 1.59076 -0.234845 0
M  V30 314 O 34.1931 1.67145 -0.490732 0
M  V30 315 C 31.3251 3.23747 -1.06773 0
M  V30 316 H 32.5181 1.91873 -2.30488 0
M  V30 317 H 30.0711 0.970876 -1.2249 0
M  V30 318 H 30.8061 3.24148 -0.099129 0
M  V30 319 H 30.5911 3.45115 -1.86112 0
M  V30 320 H 32.0811 4.03824 -1.06377 0
M  V30 321 N 32.5182 1.22032 0.997298 0
M  V30 322 C 33.7662 1.04016 1.73278 0
M  V30 323 C 34.0872 -0.426255 1.90284 0
M  V30 324 O 33.3572 -1.30694 1.45931 0
M  V30 325 H 31.9372 0.381897 0.642 0
M  V30 326 H 34.5992 1.5347 1.20137 0
M  V30 327 H 33.6952 1.51441 2.72896 0
M  V30 328 N 33.9963 -1.19345 1.0293 0
M  V30 329 C 35.2453 -1.88363 0.721256 0
M  V30 330 C 35.5583 -1.80514 -0.753254 0
M  V30 331 O 36.7643 -2.44788 -1.17436 0
M  V30 332 C 35.2203 -3.37872 1.23978 0
M  V30 333 C 34.8283 -3.54278 2.74211 0
M  V30 334 C 36.5723 -4.12365 1.00775 0
M  V30 335 C 34.4793 -4.97682 3.19479 0
M  V30 336 H 33.4093 -0.705484 0.266098 0
M  V30 337 H 36.0603 -1.34928 1.24365 0
M  V30 338 H 34.4423 -3.90707 0.6453 0
M  V30 339 H 35.6163 -3.11769 3.39318 0
M  V30 340 H 33.9313 -2.93174 2.95699 0
M  V30 341 H 36.5283 -5.18119 1.32123 0
M  V30 342 H 36.8713 -4.16263 -0.0554308 0
M  V30 343 H 37.4043 -3.65668 1.56625 0
M  V30 344 H 34.1433 -4.98945 4.25128 0
M  V30 345 H 33.6633 -5.4095 2.591 0
M  V30 346 H 35.3423 -5.66337 3.12845 0
M  V30 347 N 35.4744 -0.807222 -1.35358 0
M  V30 348 C 36.7214 -0.387888 -1.9875 0
M  V30 349 C 37.0494 1.04509 -1.64037 0
M  V30 350 O 36.3044 1.73986 -0.895946 0
M  V30 351 C 36.6034 -0.519036 -3.53611 0
M  V30 352 C 36.2694 -1.91542 -4.08194 0
M  V30 353 C 34.9314 -2.29745 -4.22813 0
M  V30 354 C 37.2834 -2.82896 -4.37744 0
M  V30 355 C 34.6114 -3.58668 -4.643 0
M  V30 356 C 36.9634 -4.11265 -4.8067 0
M  V30 357 C 35.6274 -4.49466 -4.93494 0
M  V30 358 H 34.8974 -0.141938 -0.727279 0
M  V30 359 H 37.5444 -1.02814 -1.6156 0
M  V30 360 H 35.8494 0.204658 -3.91265 0
M  V30 361 H 37.5464 -0.175345 -4.00616 0
M  V30 362 H 34.1364 -1.60862 -3.97268 0
M  V30 363 H 38.3204 -2.54629 -4.26002 0
M  V30 364 H 33.5764 -3.88113 -4.72418 0
M  V30 365 H 37.7504 -4.82153 -5.02496 0
M  V30 366 H 35.3774 -5.49418 -5.25399 0
M  V30 367 N 36.9525 1.47285 -0.560781 0
M  V30 368 C 37.8625 2.33846 0.187954 0
M  V30 369 C 38.8785 1.48412 0.908293 0
M  V30 370 O 40.0545 1.81332 0.876388 0
M  V30 371 C 37.1195 3.25178 1.2025 0
M  V30 372 C 36.1805 4.26504 0.489208 0
M  V30 373 C 35.4135 5.13472 1.45542 0
M  V30 374 O 35.6365 5.02959 2.6905 0
M  V30 375 O 34.5705 5.93902 0.977963 0
M  V30 376 H 38.3965 2.99177 -0.522177 0
M  V30 377 H 35.9815 1.45903 -0.321364 0
M  V30 378 H 37.8635 3.81584 1.78805 0
M  V30 379 H 36.5385 2.6247 1.89449 0
M  V30 380 H 35.4455 3.73847 -0.137627 0
M  V30 381 H 36.7785 4.91935 -0.161399 0
M  V30 382 N 38.4306 0.297415 1.54768 0
M  V30 383 C 39.3606 -0.573494 2.26348 0
M  V30 384 C 40.3416 -1.14085 1.26169 0
M  V30 385 O 41.5266 -1.17086 1.54934 0
M  V30 386 C 38.6566 -1.74716 3.00153 0
M  V30 387 C 37.6106 -1.31032 4.07449 0
M  V30 388 C 36.9366 -2.56887 4.68949 0
M  V30 389 C 38.2366 -0.444183 5.20408 0
M  V30 390 H 39.9306 0.0235131 2.99391 0
M  V30 391 H 37.4766 0.0127488 1.43994 0
M  V30 392 H 39.4296 -2.3625 3.48947 0
M  V30 393 H 38.1536 -2.37035 2.24682 0
M  V30 394 H 36.8126 -0.718066 3.59499 0
M  V30 395 H 36.4606 -3.17512 3.90122 0
M  V30 396 H 36.1606 -2.2836 5.41411 0
M  V30 397 H 37.6846 -3.19229 5.20505 0
M  V30 398 H 39.0986 -0.9651 5.65118 0
M  V30 399 H 37.4956 -0.252846 5.99567 0
M  V30 400 H 38.5656 0.531609 4.81977 0
M  V30 401 N 39.9087 -1.5758 0.0250728 0
M  V30 402 C 41.1547 -1.91917 -0.655413 0
M  V30 403 C 41.4877 -0.901433 -1.72011 0
M  V30 404 O 40.7627 0.0764069 -1.9435 0
M  V30 405 C 41.0457 -3.36751 -1.27558 0
M  V30 406 C 40.8987 -4.49258 -0.220719 0
M  V30 407 C 42.2177 -3.81469 -2.19475 0
M  V30 408 H 39.3367 -0.697925 -0.23679 0
M  V30 409 H 41.9787 -1.89825 0.0815036 0
M  V30 410 H 40.1287 -3.38664 -1.90365 0
M  V30 411 H 41.8007 -4.59478 0.409601 0
M  V30 412 H 40.0437 -4.31415 0.454264 0
M  V30 413 H 40.7147 -5.47618 -0.694175 0
M  V30 414 H 43.1907 -3.81266 -1.66659 0
M  V30 415 H 42.0667 -4.83512 -2.59822 0
M  V30 416 H 42.3277 -3.16744 -3.08424 0
M  V30 417 N 41.3868 0.248026 -1.55636 0
M  V30 418 C 42.2968 1.32859 -1.93354 0
M  V30 419 C 43.3128 1.52719 -0.833838 0
M  V30 420 O 44.4888 1.66363 -1.13513 0
M  V30 421 C 41.5538 2.66337 -2.21958 0
M  V30 422 C 40.6148 2.55008 -3.45354 0
M  V30 423 C 39.8478 3.82121 -3.72584 0
M  V30 424 O 40.0708 4.83951 -3.01907 0
M  V30 425 O 39.0048 3.80822 -4.6611 0
M  V30 426 H 42.8308 1.03862 -2.85388 0
M  V30 427 H 40.4158 0.448686 -1.42503 0
M  V30 428 H 42.2978 3.45216 -2.4167 0
M  V30 429 H 40.9728 2.95068 -1.33103 0
M  V30 430 H 39.8798 1.7442 -3.30951 0
M  V30 431 H 41.2128 2.31222 -4.34508 0
M  V30 432 N 42.8649 1.48995 0.513639 0
M  V30 433 C 44.1109 1.58076 1.27042 0
M  V30 434 C 44.4439 0.261026 1.92438 0
M  V30 435 O 43.7189 -0.734393 1.80103 0
M  V30 436 C 44.0019 2.73091 2.34719 0
M  V30 437 C 43.8549 4.14821 1.73907 0
M  V30 438 C 45.1739 2.83796 3.36375 0
M  V30 439 H 42.2929 0.575391 0.460536 0
M  V30 440 H 44.9349 1.81232 0.570516 0
M  V30 441 H 43.0849 2.53479 2.94416 0
M  V30 442 H 44.7569 4.45917 1.18135 0
M  V30 443 H 42.9999 4.21058 1.0437 0
M  V30 444 H 43.6709 4.91147 2.51949 0
M  V30 445 H 46.1469 3.01611 2.86653 0
M  V30 446 H 45.0229 3.65971 4.09093 0
M  V30 447 H 45.2839 1.92624 3.9793 0
M  V30 448 N 44.343 -0.763751 1.37857 0
M  V30 449 C 45.589 -1.52483 1.33704 0
M  V30 450 C 45.922 -1.94051 -0.0759612 0
M  V30 451 O 45.197 -1.64675 -1.03501 0
M  V30 452 C 45.48 -2.78441 2.28348 0
M  V30 453 C 45.333 -2.43075 3.78463 0
M  V30 454 C 46.652 -3.80415 2.21298 0
M  V30 455 H 43.771 -0.553169 0.487005 0
M  V30 456 H 46.413 -0.875562 1.68624 0
M  V30 457 H 44.563 -3.33842 1.987 0
M  V30 458 H 46.235 -1.93527 4.18742 0
M  V30 459 H 44.478 -1.75666 3.96641 0
M  V30 460 H 45.149 -3.33149 4.40132 0
M  V30 461 H 47.625 -3.34527 2.47449 0
M  V30 462 H 46.501 -4.66257 2.89647 0
M  V30 463 H 46.762 -4.25262 1.20849 0
M  V30 464 N 45.8211 -1.22559 -0.990812 0
M  V30 465 C 47.0691 -1.04933 -1.72724 0
M  V30 466 C 47.3901 0.416158 -1.90508 0
M  V30 467 O 46.6601 1.29918 -1.46622 0
M  V30 468 H 45.2401 -0.385296 -0.639965 0
M  V30 469 H 47.9021 -1.54105 -1.19322 0
M  V30 470 H 46.9981 -1.52886 -2.72089 0
M  V30 471 N 47.2992 1.18797 -1.03562 0
M  V30 472 C 48.2472 2.24297 -0.615905 0
M  V30 473 C 49.2412 1.65643 0.354808 0
M  V30 474 O 50.4472 1.78618 0.22265 0
M  V30 475 H 46.8222 0.729909 -0.180934 0
M  V30 476 H 48.7932 2.5701 -1.5162 0
M  V30 477 C 47.5422 3.47698 0.0104735 0
M  V30 478 H 46.8652 3.93125 -0.727509 0
M  V30 479 H 48.3052 4.23159 0.266995 0
M  V30 480 C 46.7642 3.12489 1.25905 0
M  V30 481 O 47.2942 3.25761 2.35038 0
M  V30 482 N 45.5002 2.6686 1.15039 0
M  V30 483 H 45.0472 2.56261 0.262328 0
M  V30 484 H 45.0052 2.43674 1.98672 0
M  V30 485 N 48.7773 0.814389 1.34928 0
M  V30 486 C 50.0253 0.397636 1.9815 0
M  V30 487 C 50.3463 -1.04069 1.64908 0
M  V30 488 O 49.6163 -1.72121 0.93548 0
M  V30 489 H 48.1963 0.144043 0.732981 0
M  V30 490 H 50.8583 1.04195 1.6471 0
M  V30 491 H 49.9543 0.509688 3.0791 0
M  V30 492 N 50.2554 -1.46986 0.568584 0
M  V30 493 C 51.4834 -2.0683 0.0539956 0
M  V30 494 C 51.8984 -1.41953 -1.24478 0
M  V30 495 O 51.2554 -0.519933 -1.74937 0
M  V30 496 C 51.3064 -3.61254 -0.133362 0
M  V30 497 O 51.0274 -4.237 1.11399 0
M  V30 498 C 52.5284 -4.37992 -0.683927 0
M  V30 499 H 49.7484 -0.669058 0.0510141 0
M  V30 500 H 52.2924 -1.88824 0.785234 0
M  V30 501 H 50.4474 -3.78735 -0.81477 0
M  V30 502 H 50.8614 -5.16388 0.91888 0
M  V30 503 H 52.3354 -5.46684 -0.764263 0
M  V30 504 H 52.8124 -4.05058 -1.69778 0
M  V30 505 H 53.4184 -4.25283 -0.0378494 0
M  V30 506 N 51.7335 -0.305618 -1.54608 0
M  V30 507 C 52.9635 0.304333 -2.04346 0
M  V30 508 C 53.3715 1.47715 -1.18224 0
M  V30 509 O 52.7145 1.82591 -0.201577 0
M  V30 510 C 52.7765 0.819031 -3.50046 0
M  V30 511 C 52.4405 -0.22912 -4.56425 0
M  V30 512 C 53.4375 -1.05914 -5.08997 0
M  V30 513 C 51.1225 -0.372148 -5.0092 0
M  V30 514 C 53.1165 -2.01809 -6.04609 0
M  V30 515 C 50.8035 -1.33454 -5.9635 0
M  V30 516 C 51.8015 -2.15599 -6.48079 0
M  V30 517 O 51.4895 -3.10205 -7.41639 0
M  V30 518 H 51.2215 0.0693996 -0.672428 0
M  V30 519 H 53.7755 -0.444548 -2.00532 0
M  V30 520 H 52.0055 1.61852 -3.51199 0
M  V30 521 H 53.6945 1.34537 -3.82955 0
M  V30 522 H 54.4605 -0.959538 -4.75413 0
M  V30 523 H 50.3395 0.257304 -4.60281 0
M  V30 524 H 53.8835 -2.65966 -6.44909 0
M  V30 525 H 49.7805 -1.43485 -6.29351 0
M  V30 526 H 50.5485 -3.05237 -7.59455 0
M  V30 527 N 53.2116 1.57565 -0.0334293 0
M  V30 528 C 54.4596 1.91598 0.642999 0
M  V30 529 C 54.7806 0.910847 1.7242 0
M  V30 530 O 54.0506 -0.0469931 1.95844 0
M  V30 531 H 52.6306 0.707228 0.240496 0
M  V30 532 H 55.2926 1.94726 -0.0822488 0
M  V30 533 H 54.3886 2.92336 1.09298 0
M  V30 534 N 54.6897 -0.239769 1.55765 0
M  V30 535 C 55.6217 -1.32001 1.87372 0
M  V30 536 C 56.6347 -1.43944 0.760522 0
M  V30 537 O 57.8237 -1.45167 1.0387 0
M  V30 538 C 54.9237 -2.69779 2.05115 0
M  V30 539 C 54.0967 -2.80014 3.36022 0
M  V30 540 C 53.1557 -3.98684 3.4342 0
M  V30 541 O 52.1817 -3.87877 4.16582 0
M  V30 542 N 53.3837 -5.12176 2.73232 0
M  V30 543 H 56.1487 -1.0522 2.80622 0
M  V30 544 H 53.7097 -0.429857 1.56089 0
M  V30 545 H 55.7017 -3.47517 2.07399 0
M  V30 546 H 54.2717 -2.89237 1.18577 0
M  V30 547 H 53.4917 -1.88896 3.45994 0
M  V30 548 H 54.7797 -2.83808 4.22292 0
M  V30 549 H 54.1777 -5.2385 2.13536 0
M  V30 550 H 52.7347 -5.88022 2.81199 0
M  V30 551 N 56.1678 -1.49265 -0.50573 0
M  V30 552 C 57.4138 -1.58748 -1.26202 0
M  V30 553 C 57.7468 -0.271227 -1.92297 0
M  V30 554 O 57.0218 0.724831 -1.80489 0
M  V30 555 C 57.3048 -2.74332 -2.33268 0
M  V30 556 C 57.1578 -4.15737 -1.71705 0
M  V30 557 C 58.4768 -2.85576 -3.34865 0
M  V30 558 H 55.5958 -0.577826 -0.457478 0
M  V30 559 H 58.2378 -1.81532 -0.560897 0
M  V30 560 H 56.3878 -2.55036 -2.93068 0
M  V30 561 H 58.0598 -4.46537 -1.15769 0
M  V30 562 H 56.3028 -4.21605 -1.02135 0
M  V30 563 H 56.9738 -4.92477 -2.49341 0
M  V30 564 H 59.4498 -3.03127 -2.8505 0
M  V30 565 H 58.3258 -3.68135 -4.07146 0
M  V30 566 H 58.5868 -1.94732 -3.96903 0
M  V30 567 N 57.6459 0.756429 -1.3826 0
M  V30 568 C 58.8759 1.54341 -1.3734 0
M  V30 569 C 59.2839 1.89159 0.0393917 0
M  V30 570 O 58.6269 1.5307 1.01565 0
M  V30 571 C 58.6889 2.87238 -2.16182 0
M  V30 572 C 58.3529 2.74973 -3.65019 0
M  V30 573 C 59.3499 2.44962 -4.58574 0
M  V30 574 C 57.0349 2.92515 -4.08338 0
M  V30 575 C 59.0289 2.32642 -5.93428 0
M  V30 576 C 56.7159 2.79815 -5.43274 0
M  V30 577 C 57.7139 2.49921 -6.35632 0
M  V30 578 O 57.4019 2.37275 -7.68086 0
M  V30 579 H 57.1339 0.484281 -0.471643 0
M  V30 580 H 59.6879 0.944152 -1.82414 0
M  V30 581 H 57.9179 3.49342 -1.65822 0
M  V30 582 H 59.6069 3.48731 -2.07705 0
M  V30 583 H 60.3729 2.31081 -4.26412 0
M  V30 584 H 56.2519 3.14781 -3.368 0
M  V30 585 H 59.7959 2.0923 -6.65484 0
M  V30 586 H 55.6929 2.93269 -5.75034 0
M  V30 587 H 56.4609 2.52509 -7.78577 0
M  V30 588 N 59.124 1.23083 0.984299 0
M  V30 589 C 60.071 1.00854 2.07598 0
M  V30 590 C 61.041 -0.0726709 1.65941 0
M  V30 591 O 62.226 0.0786535 1.90638 0
M  V30 592 C 59.366 0.601645 3.39815 0
M  V30 593 C 58.479 1.75456 3.94765 0
M  V30 594 C 57.614 1.29482 5.15177 0
M  V30 595 C 56.653 2.41873 5.62284 0
M  V30 596 N 55.79 1.96885 6.73929 0
M  V30 597 H 60.63 1.943 2.25946 0
M  V30 598 H 58.167 0.968001 1.10762 0
M  V30 599 H 60.125 0.346854 4.15756 0
M  V30 600 H 58.755 -0.295803 3.21442 0
M  V30 601 H 57.807 2.12346 3.15616 0
M  V30 602 H 59.119 2.59965 4.25699 0
M  V30 603 H 58.273 0.997923 5.98437 0
M  V30 604 H 57.012 0.420046 4.85888 0
M  V30 605 H 56.017 2.72342 4.77608 0
M  V30 606 H 57.242 3.29881 5.93595 0
M  V30 607 H 55.188 1.11782 6.46406 0
M  V30 608 H 55.105 2.74956 7.04227 0
M  V30 609 H 56.373 1.70289 7.60672 0
M  V30 610 N 60.6021 -1.18246 1.0419 0
M  V30 611 C 61.8501 -1.87886 0.744543 0
M  V30 612 C 62.1711 -1.8082 -0.730006 0
M  V30 613 O 61.4411 -1.22736 -1.52685 0
M  V30 614 H 60.0211 -0.695556 0.272417 0
M  V30 615 H 62.6831 -1.43494 1.31892 0
M  V30 616 H 61.7791 -2.9389 1.05049 0
M  V30 617 N 62.0802 -0.821533 -1.34494 0
M  V30 618 C 63.4962 -0.507117 -1.51329 0
M  V30 619 C 63.6962 0.968964 -1.76673 0
M  V30 620 O 62.7522 1.75348 -1.81685 0
M  V30 621 C 64.0652 -1.36544 -2.67911 0
M  V30 622 C 65.6132 -1.36242 -2.81793 0
M  V30 623 C 66.0882 -2.2052 -4.01416 0
M  V30 624 N 67.5792 -2.18136 -4.08621 0
M  V30 625 C 68.3142 -2.80095 -5.00334 0
M  V30 626 N 67.8102 -3.51039 -5.9728 0
M  V30 627 N 69.6032 -2.69656 -4.93196 0
M  V30 628 H 61.7542 -1.77729 -1.16302 0
M  V30 629 H 64.0172 -0.757291 -0.570276 0
M  V30 630 H 63.7232 -2.41361 -2.55808 0
M  V30 631 H 63.5972 -1.02917 -3.62888 0
M  V30 632 H 65.9842 -0.322041 -2.93338 0
M  V30 633 H 66.0652 -1.73866 -1.87628 0
M  V30 634 H 65.7092 -3.24607 -3.90631 0
M  V30 635 H 65.6392 -1.80247 -4.94791 0
M  V30 636 H 68.1302 -1.6653 -3.39229 0
M  V30 637 H 68.4432 -3.95565 -6.63889 0
M  V30 638 H 66.7882 -3.55145 -5.97409 0
M  V30 639 H 69.9792 -2.13808 -4.16418 0
M  V30 640 H 70.1522 -3.1823 -5.64476 0
M  V30 641 N 63.5583 1.46682 -0.576371 0
M  V30 642 C 64.5083 2.27278 0.181288 0
M  V30 643 C 65.4923 1.35497 0.867721 0
M  V30 644 O 66.6843 1.59717 0.762863 0
M  V30 645 C 63.8133 3.21703 1.19841 0
M  V30 646 C 62.8993 4.20969 0.51442 0
M  V30 647 N 63.2903 5.03999 -0.426407 0
M  V30 648 C 61.5883 4.39373 0.765963 0
M  V30 649 C 62.2893 5.75812 -0.825565 0
M  V30 650 N 61.2653 5.43315 -0.176116 0
M  V30 651 H 65.0673 2.88863 -0.541785 0
M  V30 652 H 62.5813 1.57455 -0.397697 0
M  V30 653 H 64.5783 3.78145 1.75533 0
M  V30 654 H 63.2383 2.61677 1.92238 0
M  V30 655 H 64.2493 5.11659 -0.8016 0
M  V30 656 H 60.9263 3.90502 1.47698 0
M  V30 657 H 62.3163 6.52577 -1.59976 0
M  V30 658 N 65.0364 0.313813 1.54444 0
M  V30 659 C 66.2824 -0.292108 2.00685 0
M  V30 660 C 66.6154 -1.52548 1.20177 0
M  V30 661 O 65.8904 -1.92452 0.281531 0
M  V30 662 C 66.1734 -0.635968 3.5444 0
M  V30 663 C 66.0264 0.607437 4.4568 0
M  V30 664 C 67.3454 -1.45747 4.15266 0
M  V30 665 H 64.4644 -0.104697 0.729526 0
M  V30 666 H 67.1064 0.428457 1.85106 0
M  V30 667 H 65.2564 -1.24986 3.67846 0
M  V30 668 H 66.9284 1.24581 4.44159 0
M  V30 669 H 65.1714 1.23822 4.15753 0
M  V30 670 H 65.8424 0.322515 5.51057 0
M  V30 671 H 68.3184 -0.938645 4.05375 0
M  V30 672 H 67.1944 -1.66683 5.2298 0
M  V30 673 H 67.4554 -2.45063 3.67963 0
M  V30 674 N 66.5145 -1.57545 0.0417849 0
M  V30 675 C 67.4615 -2.10977 -0.935805 0
M  V30 676 C 68.4315 -1.01486 -1.31491 0
M  V30 677 O 69.6165 -1.2898 -1.40602 0
M  V30 678 C 66.7565 -2.65169 -2.2086 0
M  V30 679 C 65.8695 -3.88714 -1.88482 0
M  V30 680 C 65.0045 -4.31254 -3.1015 0
M  V30 681 C 64.0435 -5.47524 -2.7365 0
M  V30 682 N 63.1805 -5.85162 -3.87982 0
M  V30 683 H 68.0205 -2.94218 -0.473249 0
M  V30 684 H 65.5575 -1.45415 -0.221981 0
M  V30 685 H 67.5155 -2.94685 -2.95325 0
M  V30 686 H 66.1455 -1.8474 -2.64709 0
M  V30 687 H 65.1975 -3.65849 -1.04205 0
M  V30 688 H 66.5095 -4.73245 -1.57608 0
M  V30 689 H 65.6635 -4.62273 -3.92923 0
M  V30 690 H 64.4025 -3.45516 -3.44195 0
M  V30 691 H 63.4075 -5.16187 -1.89291 0
M  V30 692 H 64.6325 -6.34971 -2.40807 0
M  V30 693 H 62.5785 -5.02377 -4.21846 0
M  V30 694 H 62.4955 -6.64362 -3.60775 0
M  V30 695 H 63.7635 -6.20791 -4.71422 0
M  V30 696 N 67.9926 0.231505 -1.5589 0
M  V30 697 C 69.2206 0.974505 -1.82513 0
M  V30 698 C 69.6356 1.78344 -0.619591 0
M  V30 699 O 68.9926 1.77792 0.411848 0
M  V30 700 C 69.0436 1.90007 -3.07538 0
M  V30 701 O 68.7646 1.12385 -4.2344 0
M  V30 702 C 70.2656 2.75779 -3.47075 0
M  V30 703 H 67.4856 0.286065 -0.606966 0
M  V30 704 H 70.0296 0.249739 -2.02969 0
M  V30 705 H 68.1846 2.57891 -2.89086 0
M  V30 706 H 68.5986 1.75125 -4.944 0
M  V30 707 H 70.0726 3.36443 -4.37619 0
M  V30 708 H 70.5496 3.47672 -2.68367 0
M  V30 709 H 71.1556 2.13323 -3.67931 0
M  V30 710 N 69.4707 1.49531 0.497807 0
M  V30 711 C 70.7187 1.58865 1.24926 0
M  V30 712 C 71.0397 0.278721 1.92998 0
M  V30 713 O 70.3097 -0.702144 1.82885 0
M  V30 714 H 68.8897 0.585343 0.464094 0
M  V30 715 H 71.5517 1.86174 0.57666 0
M  V30 716 H 70.6477 2.38633 2.01149 0
M  V30 717 N 70.9488 -0.749086 1.3866 0
M  V30 718 C 71.8808 -1.87273 1.32142 0
M  V30 719 C 72.8938 -1.61127 0.232787 0
M  V30 720 O 74.0828 -1.71623 0.49069 0
M  V30 721 C 71.1828 -3.23005 1.02571 0
M  V30 722 C 70.3558 -3.7662 2.22433 0
M  V30 723 C 69.4148 -4.90879 1.89537 0
M  V30 724 O 68.4408 -5.05276 2.62078 0
M  V30 725 N 69.6428 -5.74198 0.853031 0
M  V30 726 H 72.4078 -1.93373 2.28969 0
M  V30 727 H 69.9688 -0.929216 1.32579 0
M  V30 728 H 71.9608 -3.96992 0.786085 0
M  V30 729 H 70.5308 -3.12262 0.145249 0
M  V30 730 H 69.7508 -2.94147 2.62434 0
M  V30 731 H 71.0388 -4.09173 3.02415 0
M  V30 732 H 70.4368 -5.6514 0.25155 0
M  V30 733 H 68.9938 -6.48313 0.67329 0
M  V30 734 N 72.4269 -1.23603 -0.977757 0
M  V30 735 C 73.3569 -1.04401 -2.0886 0
M  V30 736 C 74.3379 0.0399052 -1.70053 0
M  V30 737 O 75.5229 -0.125246 -1.93796 0
M  V30 738 C 72.6529 -0.637269 -3.41403 0
M  V30 739 C 71.6069 -1.66883 -3.94124 0
M  V30 740 C 70.9329 -1.11745 -5.22893 0
M  V30 741 C 72.2329 -3.06247 -4.23096 0
M  V30 742 H 73.9269 -1.97316 -2.25182 0
M  V30 743 H 71.4729 -0.950096 -1.08209 0
M  V30 744 H 73.4259 -0.48998 -4.18542 0
M  V30 745 H 72.1499 0.327557 -3.24953 0
M  V30 746 H 70.8089 -1.80416 -3.19133 0
M  V30 747 H 70.4569 -0.143527 -5.02795 0
M  V30 748 H 70.1569 -1.80672 -5.59134 0
M  V30 749 H 71.6809 -0.982067 -6.02651 0
M  V30 750 H 73.0949 -2.96001 -4.90975 0
M  V30 751 H 71.4919 -3.72436 -4.70544 0
M  V30 752 H 72.5619 -3.55041 -3.30263 0
M  V30 753 N 73.905 1.17692 -1.04816 0
M  V30 754 C 74.868 2.19787 -0.650117 0
M  V30 755 C 75.868 1.58044 0.296427 0
M  V30 756 O 77.058 1.74012 0.0808097 0
M  V30 757 C 74.19 3.40869 0.0456987 0
M  V30 758 H 75.383 2.56516 -1.5537 0
M  V30 759 H 72.936 1.31708 -0.841594 0
M  V30 760 H 73.671 3.09681 0.962726 0
M  V30 761 H 73.456 3.86928 -0.634727 0
M  V30 762 H 74.946 4.16445 0.310432 0
M  V30 763 N 75.3831 0.828654 1.34056 0
M  V30 764 C 76.3461 0.259927 2.27721 0
M  V30 765 C 77.3461 -0.565478 1.50529 0
M  V30 766 O 78.5361 -0.38075 1.69988 0
M  V30 767 C 75.6681 -0.634944 3.34935 0
M  V30 768 H 76.8611 1.0863 2.79534 0
M  V30 769 H 74.4141 0.600951 1.44285 0
M  V30 770 H 75.1491 -1.48416 2.88346 0
M  V30 771 H 74.9341 -0.0444999 3.92075 0
M  V30 772 H 76.4241 -1.02648 4.04788 0
M  V30 773 N 76.8612 -1.46375 0.584142 0
M  V30 774 C 78.1102 -2.01585 0.0679741 0
M  V30 775 C 78.4232 -1.46109 -1.30045 0
M  V30 776 O 79.6292 -1.93148 -1.90804 0
M  V30 777 C 78.0852 -3.5983 0.0709207 0
M  V30 778 C 77.6932 -4.24303 1.43775 0
M  V30 779 C 79.4372 -4.22693 -0.391228 0
M  V30 780 C 77.3442 -5.74631 1.39834 0
M  V30 781 H 76.2742 -0.753689 0.0216421 0
M  V30 782 H 78.9252 -1.68093 0.736001 0
M  V30 783 H 77.3072 -3.90405 -0.663299 0
M  V30 784 H 78.4812 -4.05335 2.19181 0
M  V30 785 H 76.7962 -3.73539 1.84004 0
M  V30 786 H 79.3932 -5.3289 -0.439524 0
M  V30 787 H 79.7362 -3.91728 -1.40906 0
M  V30 788 H 80.2692 -3.96749 0.288974 0
M  V30 789 H 77.0082 -6.10258 2.39303 0
M  V30 790 H 76.5282 -5.95858 0.686505 0
M  V30 791 H 78.2072 -6.37375 1.11187 0
M  V30 792 N 78.3393 -0.321999 -1.54275 0
M  V30 793 C 79.2863 0.544664 -2.24281 0
M  V30 794 C 80.2563 1.1129 -1.23303 0
M  V30 795 O 81.4413 1.15354 -1.51981 0
M  V30 796 C 78.5813 1.70045 -3.00298 0
M  V30 797 C 77.6943 1.16159 -4.1609 0
M  V30 798 C 76.8293 2.28293 -4.79641 0
M  V30 799 C 75.8683 1.71648 -5.8754 0
M  V30 800 N 75.0053 2.77438 -6.44959 0
M  V30 801 H 79.8453 -0.0588907 -2.97942 0
M  V30 802 H 77.3823 -0.0408345 -1.47043 0
M  V30 803 H 79.3403 2.38054 -3.42616 0
M  V30 804 H 77.9703 2.27531 -2.28975 0
M  V30 805 H 77.0223 0.373092 -3.78566 0
M  V30 806 H 78.3343 0.707087 -4.93763 0
M  V30 807 H 77.4883 3.0421 -5.2492 0
M  V30 808 H 76.2273 2.77079 -4.01346 0
M  V30 809 H 75.2323 0.942282 -5.41665 0
M  V30 810 H 76.4573 1.23741 -6.67731 0
M  V30 811 H 74.4033 3.25519 -5.69538 0
M  V30 812 H 74.3203 2.36547 -7.1804 0
M  V30 813 H 75.5883 3.53189 -6.94894 0
M  V30 814 N 79.8174 1.5752 -0.0501392 0
M  V30 815 C 81.0634 1.92936 0.624798 0
M  V30 816 C 81.3964 0.928685 1.70555 0
M  V30 817 O 80.6714 -0.0454779 1.94447 0
M  V30 818 C 80.9544 3.38737 1.22185 0
M  V30 819 C 80.8074 4.49552 0.149218 0
M  V30 820 C 82.1264 3.84913 2.13378 0
M  V30 821 H 79.2454 0.701604 0.225657 0
M  V30 822 H 81.8874 1.89671 -0.111693 0
M  V30 823 H 80.0374 3.4165 1.84953 0
M  V30 824 H 81.7094 4.58768 -0.482648 0
M  V30 825 H 79.9524 4.30638 -0.522841 0
M  V30 826 H 80.6234 5.48653 0.606966 0
M  V30 827 H 83.0994 3.8387 1.60572 0
M  V30 828 H 81.9754 4.87584 2.52097 0
M  V30 829 H 82.2364 3.21611 3.03346 0
M  V30 830 N 81.2955 -0.223234 1.56011 0
M  V30 831 C 82.2285 -1.30377 1.87289 0
M  V30 832 C 83.2065 -1.45286 0.730112 0
M  V30 833 O 84.3905 -1.61126 0.978302 0
M  V30 834 C 81.5175 -2.67431 2.07843 0
M  V30 835 C 80.5635 -2.69546 3.30526 0
M  V30 836 S 81.3965 -2.23781 4.865 0
M  V30 837 C 82.5525 -3.62714 5.10088 0
M  V30 838 H 82.7855 -1.03652 2.78646 0
M  V30 839 H 80.3185 -0.425393 1.48424 0
M  V30 840 H 82.2765 -3.46336 2.20368 0
M  V30 841 H 80.9375 -2.91381 1.17285 0
M  V30 842 H 80.1305 -3.70255 3.41947 0
M  V30 843 H 79.7325 -1.98703 3.16849 0
M  V30 844 H 82.0245 -4.58391 4.98883 0
M  V30 845 H 82.9675 -3.5621 6.11981 0
M  V30 846 H 83.3755 -3.56323 4.37829 0
M  V30 847 N 82.7736 -1.49793 -0.48987 0
M  V30 848 C 84.0506 -1.50348 -1.25119 0
M  V30 849 C 84.4306 -0.237466 -2.0976 0
M  V30 850 O 83.7786 0.77981 -2.14782 0
M  V30 851 C 83.9886 -2.78872 -2.09837 0
M  V30 852 C 85.3366 -3.288 -2.68655 0
M  V30 853 O 86.3606 -2.80065 -2.20096 0
M  V30 854 O 85.2196 -4.13707 -3.57083 0
M  V30 855 H 82.3136 -0.602242 -0.566775 0
M  V30 856 H 84.8596 -1.62067 -0.503229 0
M  V30 857 H 83.6316 -3.62499 -1.47343 0
M  V30 858 H 83.2546 -2.70066 -2.91805 0
M  V30 859 N 84.2517 0.741722 -1.39055 0
M  V30 860 C 85.4977 1.50336 -1.36113 0
M  V30 861 C 85.8307 1.94148 0.0450796 0
M  V30 862 O 85.1057 1.66301 1.00868 0
M  V30 863 C 85.3887 2.74773 -2.32749 0
M  V30 864 C 85.2417 2.37023 -3.82283 0
M  V30 865 C 86.5607 3.76846 -2.27322 0
M  V30 866 H 83.6797 0.545351 -0.495743 0
M  V30 867 H 86.3217 0.848624 -1.69995 0
M  V30 868 H 84.4717 3.30639 -2.03986 0
M  V30 869 H 86.1437 1.8684 -4.21768 0
M  V30 870 H 84.3867 1.69334 -3.99385 0
M  V30 871 H 85.0577 3.26104 -4.45376 0
M  V30 872 H 87.5337 3.30548 -2.5274 0
M  V30 873 H 86.4097 4.6159 -2.97028 0
M  V30 874 H 86.6707 4.23286 -1.27599 0
M  V30 875 N 85.7298 1.2412 0.971189 0
M  V30 876 C 86.9578 1.10575 1.74874 0
M  V30 877 C 87.3728 -0.342017 1.85676 0
M  V30 878 O 86.7298 -1.23617 1.34258 0
M  V30 879 C 86.7808 1.73579 3.171 0
M  V30 880 O 86.5018 3.12695 3.06844 0
M  V30 881 C 88.0028 1.65598 4.11208 0
M  V30 882 H 85.2228 0.386504 0.548503 0
M  V30 883 H 87.7668 1.64156 1.21955 0
M  V30 884 H 85.9218 1.24009 3.67016 0
M  V30 885 H 86.3358 3.43412 3.96445 0
M  V30 886 H 87.8098 2.1437 5.08674 0
M  V30 887 H 88.2868 0.616532 4.34851 0
M  V30 888 H 88.8928 2.14578 3.67201 0
M  V30 889 N 87.2079 -1.17134 1.05439 0
M  V30 890 C 88.1179 -2.24878 0.668365 0
M  V30 891 C 89.1339 -1.71186 -0.311687 0
M  V30 892 O 90.3099 -2.00738 -0.163161 0
M  V30 893 C 87.3749 -3.46662 0.051648 0
M  V30 894 C 86.4359 -4.15429 1.08246 0
M  V30 895 C 85.6689 -5.31399 0.495082 0
M  V30 896 O 85.8919 -5.66153 -0.694743 0
M  V30 897 O 84.8259 -5.89187 1.23056 0
M  V30 898 H 88.6519 -2.60189 1.56637 0
M  V30 899 H 86.2369 -1.24482 0.826104 0
M  V30 900 H 88.1189 -4.20394 -0.290966 0
M  V30 901 H 86.7939 -3.13142 -0.819971 0
M  V30 902 H 85.7009 -3.43704 1.47711 0
M  V30 903 H 87.0339 -4.52982 1.92532 0
M  V30 904 N 88.686 -0.835752 -1.33615 0
M  V30 905 C 89.963 -0.352017 -1.92406 0
M  V30 906 C 90.343 1.16225 -1.76224 0
M  V30 907 O 89.691 1.97526 -1.14873 0
M  V30 908 C 89.901 -0.795485 -3.39813 0
M  V30 909 C 91.249 -0.801703 -4.16963 0
M  V30 910 O 92.273 -0.738889 -3.48452 0
M  V30 911 O 91.132 -0.886607 -5.3926 0
M  V30 912 H 88.226 -0.0989641 -0.821057 0
M  V30 913 H 90.772 -0.921397 -1.42507 0
M  V30 914 H 89.544 -1.83795 -3.45449 0
M  V30 915 H 89.167 -0.202505 -3.97084 0
M  V30 916 N 90.1641 1.46063 -0.591896 0
M  V30 917 C 91.0741 2.34192 0.13831 0
M  V30 918 C 92.0901 1.50305 0.876608 0
M  V30 919 O 93.2661 1.8315 0.837728 0
M  V30 920 C 90.3311 3.27656 1.13326 0
M  V30 921 C 89.3921 4.27445 0.39863 0
M  V30 922 C 88.6251 5.16443 1.34618 0
M  V30 923 O 88.8481 5.08553 2.58321 0
M  V30 924 O 87.7821 5.95843 0.851768 0
M  V30 925 H 91.6081 2.98002 -0.58552 0
M  V30 926 H 89.1931 1.45188 -0.352239 0
M  V30 927 H 91.0751 3.85291 1.70671 0
M  V30 928 H 89.7501 2.6643 1.83839 0
M  V30 929 H 88.6571 3.73471 -0.216895 0
M  V30 930 H 89.9901 4.91482 -0.265709 0
M  V30 931 N 91.6422 0.330177 1.54103 0
M  V30 932 C 92.5522 -0.541534 2.28264 0
M  V30 933 C 93.5682 -1.12351 1.32866 0
M  V30 934 O 94.7442 -1.14206 1.65888 0
M  V30 935 C 91.8092 -1.68322 3.03098 0
M  V30 936 C 90.8702 -1.13238 4.14096 0
M  V30 937 C 90.1032 -2.21966 4.85352 0
M  V30 938 O 90.3262 -3.42437 4.56172 0
M  V30 939 O 89.2602 -1.87013 5.7211 0
M  V30 940 H 93.0862 0.060938 3.03639 0
M  V30 941 H 90.6712 0.09565 1.49093 0
M  V30 942 H 92.5532 -2.34777 3.49939 0
M  V30 943 H 91.2282 -2.27176 2.30593 0
M  V30 944 H 90.1352 -0.432736 3.71589 0
M  V30 945 H 91.4682 -0.588898 4.88664 0
M  V30 946 N 93.1203 -1.57491 0.0584922 0
M  V30 947 C 94.0303 -2.15448 -0.928414 0
M  V30 948 C 95.0463 -1.11416 -1.3365 0
M  V30 949 O 96.2223 -1.4362 -1.41193 0
M  V30 950 C 93.2873 -2.69393 -2.18239 0
M  V30 951 C 92.3483 -3.88249 -1.83196 0
M  V30 952 C 91.5813 -4.39613 -3.02616 0
M  V30 953 O 91.8043 -3.90023 -4.16219 0
M  V30 954 O 90.7383 -5.31111 -2.83204 0
M  V30 955 H 94.5643 -3.00112 -0.465483 0
M  V30 956 H 92.1493 -1.48499 -0.163826 0
M  V30 957 H 94.0313 -3.04026 -2.91798 0
M  V30 958 H 92.7063 -1.87796 -2.63656 0
M  V30 959 H 91.6133 -3.58492 -1.06931 0
M  V30 960 H 92.9463 -4.71098 -1.42573 0
M  V30 961 N 94.5984 0.214957 -1.56127 0
M  V30 962 C 95.5084 1.28727 -1.96129 0
M  V30 963 C 96.5244 1.50916 -0.866044 0
M  V30 964 O 97.7004 1.63918 -1.17016 0
M  V30 965 C 94.7654 2.61569 -2.27558 0
M  V30 966 C 93.8264 2.47625 -3.50685 0
M  V30 967 C 93.0594 3.74132 -3.80606 0
M  V30 968 O 93.2824 4.77438 -3.12104 0
M  V30 969 O 92.2164 3.70849 -4.74083 0
M  V30 970 H 96.0424 0.977855 -2.87527 0
M  V30 971 H 93.6274 0.418358 -1.43423 0
M  V30 972 H 95.5094 3.40012 -2.48938 0
M  V30 973 H 94.1844 2.92178 -1.39332 0
M  V30 974 H 93.0914 1.67361 -3.34576 0
M  V30 975 H 94.4244 2.21954 -4.39315 0
M  V30 976 N 96.0765 1.50051 0.48192 0
M  V30 977 C 97.3255 1.59741 1.23149 0
M  V30 978 C 97.6385 0.298163 1.93314 0
M  V30 979 O 98.8445 0.273835 2.70116 0
M  V30 980 C 97.3005 2.81926 2.23708 0
M  V30 981 C 96.9085 4.18685 1.59396 0
M  V30 982 C 98.6525 3.00956 2.99375 0
M  V30 983 C 96.5595 5.3207 2.58178 0
M  V30 984 H 95.4895 0.594838 0.46334 0
M  V30 985 H 98.1405 1.76467 0.503169 0
M  V30 986 H 96.5225 2.58736 2.99786 0
M  V30 987 H 97.6965 4.52088 0.891811 0
M  V30 988 H 96.0115 4.05171 0.960503 0
M  V30 989 H 98.6085 3.82836 3.73283 0
M  V30 990 H 98.9515 2.12258 3.58123 0
M  V30 991 H 99.4845 3.24277 2.30411 0
M  V30 992 H 96.2235 6.22888 2.04184 0
M  V30 993 H 95.7435 5.03098 3.26577 0
M  V30 994 H 97.4225 5.62196 3.20225 0
M  V30 995 N 97.5546 -0.734337 1.39446 0
M  V30 996 C 98.5016 -1.84835 1.38219 0
M  V30 997 C 99.4716 -1.64331 0.24179 0
M  V30 998 O 100.657 -1.85728 0.437002 0
M  V30 999 C 97.7966 -3.22355 1.23212 0
M  V30 1000 C 96.9096 -3.5456 2.46801 0
M  V30 1001 C 96.0446 -4.81485 2.24377 0
M  V30 1002 C 95.0836 -5.06536 3.43639 0
M  V30 1003 N 94.2206 -6.24665 3.20528 0
M  V30 1004 H 99.0606 -1.85219 2.33448 0
M  V30 1005 H 96.5976 -0.905039 1.15963 0
M  V30 1006 H 98.5556 -4.0174 1.12522 0
M  V30 1007 H 97.1856 -3.21248 0.316121 0
M  V30 1008 H 96.2376 -2.69872 2.68092 0
M  V30 1009 H 97.5496 -3.6899 3.3563 0
M  V30 1010 H 96.7036 -5.68852 2.10933 0
M  V30 1011 H 95.4426 -4.6923 1.32944 0
M  V30 1012 H 94.4476 -4.17632 3.5758 0
M  V30 1013 H 95.6726 -5.20676 4.35974 0
M  V30 1014 H 93.6186 -6.13696 2.3176 0
M  V30 1015 H 93.5356 -6.39685 4.02913 0
M  V30 1016 H 94.8036 -7.14868 3.10779 0
M  V30 1017 N 99.0327 -1.24633 -0.964593 0
M  V30 1018 C 99.9627 -1.06611 -2.07741 0
M  V30 1019 C 100.944 0.0218666 -1.70086 0
M  V30 1020 O 102.129 -0.145793 -1.93652 0
M  V30 1021 C 99.2587 -0.673444 -3.40708 0
M  V30 1022 C 98.2127 -1.71054 -3.92332 0
M  V30 1023 C 97.5387 -1.17285 -5.21678 0
M  V30 1024 C 98.8387 -3.10718 -4.19824 0
M  V30 1025 H 100.533 -1.99693 -2.23076 0
M  V30 1026 H 98.0787 -0.96152 -1.07195 0
M  V30 1027 H 100.032 -0.534345 -4.17998 0
M  V30 1028 H 98.7557 0.293073 -3.25282 0
M  V30 1029 H 97.4147 -1.83791 -3.17201 0
M  V30 1030 H 97.0627 -0.196847 -5.02615 0
M  V30 1031 H 96.7627 -1.86592 -5.57187 0
M  V30 1032 H 98.2867 -1.04593 -6.01575 0
M  V30 1033 H 99.7007 -3.01192 -4.87808 0
M  V30 1034 H 98.0977 -3.77406 -4.66567 0
M  V30 1035 H 99.1677 -3.58524 -3.26479 0
M  V30 1036 N 100.511 1.16574 -1.06058 0
M  V30 1037 C 101.421 2.2452 -0.680282 0
M  V30 1038 C 102.437 1.71348 0.302604 0
M  V30 1039 O 103.613 2.00822 0.152513 0
M  V30 1040 C 100.678 3.46629 -0.0700315 0
M  V30 1041 C 99.7388 4.14849 -1.10448 0
M  V30 1042 C 98.9718 5.31129 -0.523256 0
M  V30 1043 O 99.1948 5.66514 0.664709 0
M  V30 1044 O 98.1288 5.88526 -1.26179 0
M  V30 1045 H 101.955 2.59355 -1.58015 0
M  V30 1046 H 99.5398 1.24043 -0.832694 0
M  V30 1047 H 101.422 4.20543 0.268667 0
M  V30 1048 H 100.097 3.13573 0.803353 0
M  V30 1049 H 99.0038 3.42916 -1.49532 0
M  V30 1050 H 100.337 4.51954 -1.94931 0
M  V30 1051 N 101.989 0.842826 1.3317 0
M  V30 1052 C 103.238 0.436738 1.96915 0
M  V30 1053 C 103.551 -1.01025 1.67491 0
M  V30 1054 O 104.757 -1.5212 2.24881 0
M  V30 1055 C 103.213 0.730021 3.52418 0
M  V30 1056 C 102.821 2.19195 3.90714 0
M  V30 1057 C 104.565 0.391076 4.22695 0
M  V30 1058 C 102.472 2.42907 5.39212 0
M  V30 1059 H 101.402 0.15958 0.736919 0
M  V30 1060 H 104.053 1.03196 1.51733 0
M  V30 1061 H 102.435 0.0643755 3.95948 0
M  V30 1062 H 103.609 2.8984 3.58231 0
M  V30 1063 H 101.924 2.49425 3.33431 0
M  V30 1064 H 104.521 0.545817 5.31907 0
M  V30 1065 H 104.864 -0.666294 4.10933 0
M  V30 1066 H 105.397 1.01212 3.84709 0
M  V30 1067 H 102.136 3.47224 5.55982 0
M  V30 1068 H 101.656 1.76827 5.73142 0
M  V30 1069 H 103.335 2.2626 6.06148 0
M  V30 1070 N 103.467 -1.45747 0.599634 0
M  V30 1071 C 104.415 -2.322 -0.136426 0
M  V30 1072 C 105.409 -1.45497 -0.867583 0
M  V30 1073 O 106.615 -1.62027 -0.78405 0
M  V30 1074 H 102.99 -0.749368 -0.0628588 0
M  V30 1075 H 104.961 -2.92072 0.611281 0
M  V30 1076 C 103.71 -3.28974 -1.12567 0
M  V30 1077 H 103.033 -3.9568 -0.572484 0
M  V30 1078 H 104.473 -3.92212 -1.61077 0
M  V30 1079 C 102.932 -2.55561 -2.19523 0
M  V30 1080 O 103.462 -2.33111 -3.27143 0
M  V30 1081 N 101.668 -2.15832 -1.94589 0
M  V30 1082 H 101.215 -2.3429 -1.07078 0
M  V30 1083 H 101.173 -1.67034 -2.66359 0
M  V30 1084 N 104.945 -0.338344 -1.53925 0
M  V30 1085 C 105.878 0.563758 -2.21127 0
M  V30 1086 C 106.856 1.10433 -1.19345 0
M  V30 1087 O 108.04 1.16557 -1.48144 0
M  V30 1088 C 105.167 1.77505 -2.88461 0
M  V30 1089 C 104.213 1.3644 -4.04087 0
M  V30 1090 S 105.046 0.388593 -5.34088 0
M  V30 1091 C 106.202 1.60683 -6.04923 0
M  V30 1092 H 106.435 -0.00704546 -2.97299 0
M  V30 1093 H 103.968 -0.122418 -1.53914 0
M  V30 1094 H 105.926 2.46999 -3.27875 0
M  V30 1095 H 104.587 2.31706 -2.12064 0
M  V30 1096 H 103.78 2.26739 -4.50117 0
M  V30 1097 H 103.382 0.748998 -3.66423 0
M  V30 1098 H 105.674 2.54209 -6.28 0
M  V30 1099 H 106.617 1.18842 -6.98056 0
M  V30 1100 H 107.025 1.80052 -5.35015 0
M  V30 1101 N 106.423 1.57458 -0.0668435 0
M  V30 1102 C 107.353 2.15468 0.899764 0
M  V30 1103 C 108.334 1.08042 1.31381 0
M  V30 1104 O 109.519 1.36054 1.38574 0
M  V30 1105 C 106.649 2.71232 2.16911 0
M  V30 1106 C 105.603 3.83781 1.89463 0
M  V30 1107 C 104.929 4.26127 3.22986 0
M  V30 1108 C 106.229 5.08238 1.20381 0
M  V30 1109 H 107.923 2.96488 0.416529 0
M  V30 1110 H 105.469 1.4262 0.198908 0
M  V30 1111 H 107.422 3.10458 2.84945 0
M  V30 1112 H 106.146 1.87426 2.67468 0
M  V30 1113 H 104.805 3.45051 1.23836 0
M  V30 1114 H 104.453 3.39249 3.71374 0
M  V30 1115 H 104.153 5.01993 3.05413 0
M  V30 1116 H 105.677 4.67966 3.92225 0
M  V30 1117 H 107.091 5.44811 1.78475 0
M  V30 1118 H 105.488 5.89349 1.13083 0
M  V30 1119 H 106.558 4.84558 0.182153 0
M  V30 1120 N 107.901 -0.206675 1.56239 0
M  V30 1121 C 108.848 -1.25617 1.93621 0
M  V30 1122 C 109.818 -1.45824 0.795274 0
M  V30 1123 O 111.003 -1.59148 1.05245 0
M  V30 1124 C 108.143 -2.59839 2.27107 0
M  V30 1125 C 107.256 -2.47308 3.54207 0
M  V30 1126 C 106.391 -3.74155 3.7707 0
M  V30 1127 C 105.43 -3.56407 4.97635 0
M  V30 1128 N 104.567 -4.75238 5.1681 0
M  V30 1129 H 109.407 -0.930383 2.83104 0
M  V30 1130 H 106.944 -0.448065 1.4011 0
M  V30 1131 H 108.902 -3.38021 2.44535 0
M  V30 1132 H 107.532 -2.90485 1.40778 0
M  V30 1133 H 106.584 -1.60483 3.4489 0
M  V30 1134 H 107.896 -2.30122 4.42544 0
M  V30 1135 H 107.05 -4.60778 3.94675 0
M  V30 1136 H 105.789 -3.94282 2.87042 0
M  V30 1137 H 104.794 -2.68168 4.79964 0
M  V30 1138 H 106.019 -3.37736 5.89161 0
M  V30 1139 H 103.965 -4.95651 4.29728 0
M  V30 1140 H 103.882 -4.60835 5.99306 0
M  V30 1141 H 105.15 -5.63246 5.38864 0
M  V30 1142 N 109.379 -1.50304 -0.473955 0
M  V30 1143 C 110.326 -1.68959 -1.57231 0
M  V30 1144 C 111.296 -0.530899 -1.57387 0
M  V30 1145 O 112.481 -0.761133 -1.74961 0
M  V30 1146 C 109.621 -1.7871 -2.95223 0
M  V30 1147 C 108.734 -3.06061 -3.04878 0
M  V30 1148 C 107.869 -3.06626 -4.33767 0
M  V30 1149 C 106.908 -4.28443 -4.37154 0
M  V30 1150 N 106.045 -4.26763 -5.5751 0
M  V30 1151 H 110.885 -2.6273 -1.40631 0
M  V30 1152 H 108.422 -1.30241 -0.683789 0
M  V30 1153 H 110.38 -1.82344 -3.75242 0
M  V30 1154 H 109.01 -0.883806 -3.10465 0
M  V30 1155 H 108.062 -3.11911 -2.17751 0
M  V30 1156 H 109.374 -3.96039 -3.0324 0
M  V30 1157 H 108.528 -3.08973 -5.22131 0
M  V30 1158 H 107.267 -2.14473 -4.3801 0
M  V30 1159 H 106.272 -4.2631 -3.47188 0
M  V30 1160 H 107.497 -5.2182 -4.34605 0
M  V30 1161 H 105.443 -3.37462 -5.62544 0
M  V30 1162 H 105.36 -5.10507 -5.57601 0
M  V30 1163 H 106.628 -4.33253 -6.48006 0
M  V30 1164 N 110.857 0.726932 -1.39834 0
M  V30 1165 C 112.087 1.51393 -1.40583 0
M  V30 1166 C 112.495 1.892 -0.000740625 0
M  V30 1167 O 111.838 1.55189 0.982951 0
M  V30 1168 C 111.9 2.82588 -2.22226 0
M  V30 1169 C 111.564 2.67169 -3.70769 0
M  V30 1170 C 112.561 2.3518 -4.63666 0
M  V30 1171 C 110.246 2.83788 -4.14451 0
M  V30 1172 C 112.24 2.20002 -5.98229 0
M  V30 1173 C 109.927 2.68229 -5.49087 0
M  V30 1174 C 110.925 2.36382 -6.4079 0
M  V30 1175 O 110.613 2.2093 -7.72946 0
M  V30 1176 H 110.345 0.474168 -0.48181 0
M  V30 1177 H 112.899 0.905247 -1.84376 0
M  V30 1178 H 111.129 3.45746 -1.73195 0
M  V30 1179 H 112.818 3.44247 -2.15055 0
M  V30 1180 H 113.584 2.21984 -4.31217 0
M  V30 1181 H 109.463 3.07566 -3.43401 0
M  V30 1182 H 113.007 1.95067 -6.69772 0
M  V30 1183 H 108.904 2.81006 -5.81125 0
M  V30 1184 H 109.672 2.35937 -7.83757 0
M  V30 1185 N 112.336 1.25143 0.95797 0
M  V30 1186 C 113.561 1.12521 1.74223 0
M  V30 1187 C 113.986 -0.317402 1.85403 0
M  V30 1188 O 113.344 -1.2299 1.33204 0
M  V30 1189 C 113.392 1.78062 3.1357 0
M  V30 1190 O 112.496 1.058 3.98598 0
M  V30 1191 H 111.837 0.39304 0.535178 0
M  V30 1192 H 114.367 1.65641 1.201 0
M  V30 1193 H 114.377 1.84213 3.64046 0
M  V30 1194 H 113.052 2.83021 3.04749 0
M  V30 1195 H 111.629 1.07506 3.57067 0
M  V30 1196 N 113.814 -1.1601 1.06675 0
M  V30 1197 C 114.764 -2.18512 0.650888 0
M  V30 1198 C 115.748 -1.57677 -0.320441 0
M  V30 1199 O 116.94 -1.76482 -0.135266 0
M  V30 1200 C 114.069 -3.43273 0.0429255 0
M  V30 1201 C 113.155 -4.11176 1.03898 0
M  V30 1202 N 113.546 -4.54672 2.216 0
M  V30 1203 C 111.844 -4.37417 0.870779 0
M  V30 1204 C 112.545 -5.07248 2.84736 0
M  V30 1205 N 111.521 -5.0037 2.12441 0
M  V30 1206 H 115.323 -2.49863 1.54745 0
M  V30 1207 H 112.837 -1.32503 0.938975 0
M  V30 1208 H 114.834 -4.16006 -0.272857 0
M  V30 1209 H 113.494 -3.13408 -0.84884 0
M  V30 1210 H 114.505 -4.4828 2.59356 0
M  V30 1211 H 111.182 -4.17488 0.0313293 0
M  V30 1212 H 112.572 -5.50912 3.84636 0
M  V30 1213 N 115.292 -0.849877 -1.32721 0
M  V30 1214 C 116.242 -0.262892 -2.26479 0
M  V30 1215 C 117.226 0.588493 -1.49752 0
M  V30 1216 O 118.418 0.438659 -1.71478 0
M  V30 1217 C 115.547 0.551818 -3.38836 0
M  V30 1218 C 114.633 -0.311689 -4.22953 0
M  V30 1219 N 115.024 -1.39567 -4.86163 0
M  V30 1220 C 113.322 -0.100611 -4.45887 0
M  V30 1221 C 114.023 -1.92651 -5.48872 0
M  V30 1222 N 112.999 -1.22637 -5.29586 0
M  V30 1223 H 116.801 -1.09166 -2.72873 0
M  V30 1224 H 114.315 -0.695486 -1.46754 0
M  V30 1225 H 116.312 0.988713 -4.05006 0
M  V30 1226 H 114.972 1.37844 -2.93988 0
M  V30 1227 H 115.983 -1.77859 -4.86402 0
M  V30 1228 H 112.66 0.691681 -4.11731 0
M  V30 1229 H 114.05 -2.83487 -6.09167 0
M  V30 1230 N 116.77 1.45427 -0.607355 0
M  V30 1231 C 118.186 1.57283 -0.270985 0
M  V30 1232 C 118.386 1.59875 1.22647 0
M  V30 1233 O 117.442 1.52893 2.00948 0
M  V30 1234 C 118.755 2.85566 -0.941952 0
M  V30 1235 C 120.303 2.9924 -0.917849 0
M  V30 1236 C 120.778 4.30293 -1.56882 0
M  V30 1237 N 122.269 4.37051 -1.5343 0
M  V30 1238 C 123.004 5.37123 -2.00715 0
M  V30 1239 N 122.5 6.43734 -2.56084 0
M  V30 1240 N 124.293 5.28479 -1.91484 0
M  V30 1241 H 116.444 1.41988 -1.57966 0
M  V30 1242 H 118.707 0.67885 -0.661715 0
M  V30 1243 H 118.413 2.8955 -1.99633 0
M  V30 1244 H 118.287 3.74322 -0.465096 0
M  V30 1245 H 120.674 2.94822 0.127984 0
M  V30 1246 H 120.755 2.11895 -1.43297 0
M  V30 1247 H 120.399 4.35469 -2.61398 0
M  V30 1248 H 120.329 5.16454 -1.02873 0
M  V30 1249 H 122.82 3.60615 -1.12982 0
M  V30 1250 H 123.133 7.16341 -2.89958 0
M  V30 1251 H 121.478 6.44485 -2.60122 0
M  V30 1252 H 124.669 4.44098 -1.47967 0
M  V30 1253 H 124.842 6.0632 -2.28648 0
M  V30 1254 N 118.248 0.346503 1.53744 0
M  V30 1255 C 119.196 -0.52422 2.26616 0
M  V30 1256 C 120.19 -1.09948 1.28871 0
M  V30 1257 O 121.396 -1.04488 1.46568 0
M  V30 1258 H 117.771 -0.187743 0.728187 0
M  V30 1259 H 119.742 0.11239 2.98188 0
M  V30 1260 C 118.491 -1.66186 3.05414 0
M  V30 1261 H 117.814 -1.22848 3.80458 0
M  V30 1262 H 119.254 -2.24622 3.59612 0
M  V30 1263 C 117.713 -2.59302 2.1509 0
M  V30 1264 O 118.243 -3.61628 1.74895 0
M  V30 1265 N 116.449 -2.28055 1.8011 0
M  V30 1266 H 115.996 -1.44883 2.12994 0
M  V30 1267 H 115.954 -2.90615 1.19958 0
M  V30 1268 N 119.726 -1.57421 0.075193 0
M  V30 1269 C 120.975 -1.92794 -0.592731 0
M  V30 1270 C 121.288 -0.957478 -1.70563 0
M  V30 1271 O 122.494 -1.20417 -2.43335 0
M  V30 1272 C 120.95 -3.42495 -1.10569 0
M  V30 1273 C 120.558 -4.47994 -0.0236121 0
M  V30 1274 C 122.302 -3.86864 -1.74748 0
M  V30 1275 C 120.209 -5.88829 -0.550803 0
M  V30 1276 H 119.139 -0.719591 -0.225177 0
M  V30 1277 H 121.79 -1.82902 0.147978 0
M  V30 1278 H 120.172 -3.47471 -1.89947 0
M  V30 1279 H 121.346 -4.54637 0.751099 0
M  V30 1280 H 119.661 -4.13113 0.522159 0
M  V30 1281 H 122.258 -4.8947 -2.15229 0
M  V30 1282 H 122.601 -3.24417 -2.60882 0
M  V30 1283 H 123.134 -3.84504 -1.01986 0
M  V30 1284 H 119.873 -6.54929 0.273457 0
M  V30 1285 H 119.393 -5.85698 -1.29296 0
M  V30 1286 H 121.072 -6.38811 -1.02613 0
M  V30 1287 N 121.204 0.198386 -1.56346 0
M  V30 1288 C 122.167 1.22952 -1.93431 0
M  V30 1289 C 123.167 1.38611 -0.815092 0
M  V30 1290 O 124.357 1.36479 -1.08255 0
M  V30 1291 C 121.489 2.59946 -2.20546 0
M  V30 1292 H 122.682 0.912626 -2.85677 0
M  V30 1293 H 120.235 0.43977 -1.49986 0
M  V30 1294 H 120.97 2.96696 -1.30927 0
M  V30 1295 H 120.755 2.49953 -3.02102 0
M  V30 1296 H 122.245 3.3431 -2.50253 0
M  V30 1297 N 122.682 1.50554 0.465978 0
M  V30 1298 C 123.91 1.65563 1.24083 0
M  V30 1299 C 124.325 0.341051 1.85694 0
M  V30 1300 O 123.682 -0.677543 1.69457 0
M  V30 1301 C 123.733 2.75051 2.34583 0
M  V30 1302 O 123.454 4.01413 1.75497 0
M  V30 1303 C 124.955 3.01078 3.25372 0
M  V30 1304 H 122.175 0.55638 0.375077 0
M  V30 1305 H 124.719 1.96807 0.555624 0
M  V30 1306 H 122.874 2.46486 2.9887 0
M  V30 1307 H 123.288 4.62002 2.48303 0
M  V30 1308 H 124.762 3.81339 3.99105 0
M  V30 1309 H 125.239 2.12349 3.84453 0
M  V30 1310 H 125.845 3.31194 2.66816 0
M  V30 1311 N 124.16 -0.719506 1.40217 0
M  V30 1312 C 125.39 -1.50646 1.41384 0
M  V30 1313 C 125.798 -1.89197 0.0107743 0
M  V30 1314 O 125.141 -1.55709 -0.974708 0
M  V30 1315 C 125.203 -2.81405 2.23722 0
M  V30 1316 C 124.867 -2.65199 3.72181 0
M  V30 1317 C 125.864 -2.32717 4.64907 0
M  V30 1318 C 123.549 -2.81586 4.1595 0
M  V30 1319 C 125.543 -2.16827 5.99387 0
M  V30 1320 C 123.23 -2.65313 5.50502 0
M  V30 1321 C 124.228 -2.32981 6.42035 0
M  V30 1322 O 123.916 -2.16827 7.74107 0
M  V30 1323 H 123.648 -0.471606 0.484318 0
M  V30 1324 H 126.202 -0.895456 1.84853 0
M  V30 1325 H 124.432 -3.44823 1.75026 0
M  V30 1326 H 126.121 -3.43102 2.16878 0
M  V30 1327 H 126.887 -2.19694 4.32388 0
M  V30 1328 H 122.766 -3.0574 3.45027 0
M  V30 1329 H 126.31 -1.91513 6.70797 0
M  V30 1330 H 122.207 -2.7792 5.82607 0
M  V30 1331 H 122.975 -2.31778 7.84998 0
M  V30 1332 N 125.638 -1.25649 -0.95132 0
M  V30 1333 C 126.868 -1.13179 -1.72841 0
M  V30 1334 C 127.276 0.316827 -1.86528 0
M  V30 1335 O 126.619 1.22948 -1.3649 0
M  V30 1336 C 126.681 -1.71644 -3.15878 0
M  V30 1337 C 126.345 -3.20667 -3.25609 0
M  V30 1338 C 127.342 -4.17616 -3.09666 0
M  V30 1339 C 125.027 -3.6094 -3.49324 0
M  V30 1340 C 127.021 -5.52817 -3.17289 0
M  V30 1341 C 124.708 -4.96278 -3.56584 0
M  V30 1342 C 125.706 -5.92025 -3.40581 0
M  V30 1343 O 125.394 -7.24899 -3.47528 0
M  V30 1344 H 125.126 -0.395389 -0.54831 0
M  V30 1345 H 127.68 -1.66566 -1.20187 0
M  V30 1346 H 125.91 -1.12707 -3.69911 0
M  V30 1347 H 127.599 -1.54225 -3.75459 0
M  V30 1348 H 128.365 -3.87842 -2.91211 0
M  V30 1349 H 124.244 -2.86907 -3.6084 0
M  V30 1350 H 127.788 -6.2753 -3.04716 0
M  V30 1351 H 123.685 -5.25716 -3.74556 0
M  V30 1352 H 124.453 -7.33039 -3.64138 0
M  V30 1353 N 127.117 1.15442 -1.07289 0
M  V30 1354 C 128.365 1.85845 -0.794096 0
M  V30 1355 C 128.686 1.82692 0.681809 0
M  V30 1356 O 127.956 1.26741 1.49377 0
M  V30 1357 H 126.536 0.688089 -0.290763 0
M  V30 1358 H 129.198 1.39947 -1.3565 0
M  V30 1359 H 128.294 2.91001 -1.12804 0
M  V30 1360 N 128.595 0.856903 1.32268 0
M  V30 1361 C 129.558 0.308171 2.27119 0
M  V30 1362 C 130.558 -0.533421 1.51695 0
M  V30 1363 O 131.748 -0.344607 1.70757 0
M  V30 1364 C 128.88 -0.563757 3.36206 0
M  V30 1365 H 130.073 1.14535 2.77167 0
M  V30 1366 H 127.626 0.631421 1.42978 0
M  V30 1367 H 128.361 -1.42266 2.91429 0
M  V30 1368 H 128.146 0.0386749 3.92081 0
M  V30 1369 H 129.636 -0.940386 4.06874 0
M  V30 1370 N 130.073 -1.45103 0.615059 0
M  V30 1371 C 131.32 -2.02183 0.113179 0
M  V30 1372 C 131.648 -1.48249 -1.25906 0
M  V30 1373 O 130.903 -0.650265 -1.84581 0
M  V30 1374 C 131.202 -3.57386 0.0318797 0
M  V30 1375 C 130.868 -4.30505 1.34077 0
M  V30 1376 C 129.53 -4.50197 1.69929 0
M  V30 1377 C 131.882 -4.72238 2.20546 0
M  V30 1378 C 129.21 -5.08881 2.91988 0
M  V30 1379 C 131.562 -5.32272 3.41861 0
M  V30 1380 C 130.226 -5.50187 3.77956 0
M  V30 1381 H 129.496 -0.739842 0.0414151 0
M  V30 1382 H 132.143 -1.74073 0.798168 0
M  V30 1383 H 130.448 -3.84817 -0.736409 0
M  V30 1384 H 132.145 -3.99264 -0.372712 0
M  V30 1385 H 128.735 -4.15496 1.05173 0
M  V30 1386 H 132.919 -4.56751 1.94146 0
M  V30 1387 H 128.175 -5.20939 3.2005 0
M  V30 1388 H 132.349 -5.63563 4.09109 0
M  V30 1389 H 129.976 -5.95427 4.72622 0
M  V30 1390 N 131.551 -0.354651 -1.53558 0
M  V30 1391 C 132.8 0.239504 -2.00273 0
M  V30 1392 C 133.113 1.50759 -1.24623 0
M  V30 1393 O 134.319 2.17968 -1.61871 0
M  V30 1394 C 132.775 0.477341 -3.5672 0
M  V30 1395 C 132.383 -0.775488 -4.41237 0
M  V30 1396 C 134.127 1.02975 -4.11821 0
M  V30 1397 C 132.034 -0.507838 -5.89216 0
M  V30 1398 H 130.964 0.0932743 -0.748208 0
M  V30 1399 H 133.615 -0.471701 -1.77334 0
M  V30 1400 H 131.997 1.24953 -3.7577 0
M  V30 1401 H 133.171 -1.54963 -4.33962 0
M  V30 1402 H 131.486 -1.25033 -3.97185 0
M  V30 1403 H 134.083 1.24513 -5.2 0
M  V30 1404 H 134.426 1.98862 -3.65731 0
M  V30 1405 H 134.959 0.317994 -3.96527 0
M  V30 1406 H 131.698 -1.43674 -6.39561 0
M  V30 1407 H 131.218 0.228011 -5.99366 0
M  V30 1408 H 132.897 -0.129238 -6.46871 0
M  V30 1409 N 133.029 1.57378 -0.0835403 0
M  V30 1410 C 133.976 2.13384 0.879539 0
M  V30 1411 C 134.946 1.04936 1.28754 0
M  V30 1412 O 136.131 1.32662 1.37133 0
M  V30 1413 C 133.271 2.70932 2.13752 0
M  V30 1414 C 132.384 3.93575 1.7811 0
M  V30 1415 C 131.519 4.39326 2.98607 0
M  V30 1416 C 130.558 5.54587 2.59037 0
M  V30 1417 N 129.695 5.95243 3.72331 0
M  V30 1418 H 134.535 2.9537 0.395076 0
M  V30 1419 H 132.072 1.45953 0.183349 0
M  V30 1420 H 134.03 3.02411 2.87408 0
M  V30 1421 H 132.66 1.91693 2.59718 0
M  V30 1422 H 131.712 3.68483 0.94469 0
M  V30 1423 H 133.024 4.77258 1.45005 0
M  V30 1424 H 132.178 4.72528 3.80529 0
M  V30 1425 H 130.917 3.5452 3.34913 0
M  V30 1426 H 129.922 5.21024 1.75539 0
M  V30 1427 H 131.147 6.41133 2.23887 0
M  V30 1428 H 129.093 5.13385 4.08378 0
M  V30 1429 H 129.01 6.73694 3.43034 0
M  V30 1430 H 130.278 6.33072 4.54797 0
M  V30 1431 N 134.507 -0.190092 1.56449 0
M  V30 1432 C 135.454 -1.23557 1.94942 0
M  V30 1433 C 136.424 -1.44972 0.810696 0
M  V30 1434 O 137.609 -1.58023 1.06927 0
M  V30 1435 C 134.749 -2.57416 2.2985 0
M  V30 1436 C 133.862 -2.43537 3.5681 0
M  V30 1437 C 132.997 -3.70134 3.81017 0
M  V30 1438 C 132.036 -3.51109 5.01387 0
M  V30 1439 N 131.173 -4.6973 5.21822 0
M  V30 1440 H 136.013 -0.900304 2.84075 0
M  V30 1441 H 133.55 -0.43318 1.40577 0
M  V30 1442 H 135.508 -3.35409 2.48106 0
M  V30 1443 H 134.138 -2.88975 1.43852 0
M  V30 1444 H 133.19 -1.56816 3.46573 0
M  V30 1445 H 134.502 -2.25415 4.4496 0
M  V30 1446 H 133.656 -4.56566 3.9954 0
M  V30 1447 H 132.395 -3.91215 2.91207 0
M  V30 1448 H 131.4 -2.63063 4.82782 0
M  V30 1449 H 132.625 -3.31468 5.9271 0
M  V30 1450 H 130.571 -4.91065 4.34961 0
M  V30 1451 H 130.488 -4.54452 6.0416 0
M  V30 1452 H 131.756 -5.57499 5.44808 0
M  V30 1453 N 135.985 -1.50799 -0.457987 0
M  V30 1454 C 137.21 -1.66496 -1.23668 0
M  V30 1455 C 137.635 -0.353288 -1.84752 0
M  V30 1456 O 136.993 0.684346 -1.67888 0
M  V30 1457 C 137.041 -2.76763 -2.3116 0
M  V30 1458 O 136.145 -2.38928 -3.36136 0
M  V30 1459 H 135.486 -0.555828 -0.363252 0
M  V30 1460 H 138.016 -1.9725 -0.543474 0
M  V30 1461 H 138.026 -3.00232 -2.76269 0
M  V30 1462 H 136.701 -3.71954 -1.86073 0
M  V30 1463 H 135.278 -2.25953 -2.96647 0
M  V30 1464 N 137.463 0.71206 -1.40597 0
M  V30 1465 C 138.874 1.29135 -1.34837 0
M  V30 1466 C 139.225 1.96186 -0.0235395 0
M  V30 1467 O 138.35 1.97768 0.878444 0
M  V30 1468 C 138.945 2.34827 -2.44217 0
M  V30 1469 C 137.504 2.88371 -2.41907 0
M  V30 1470 C 136.651 1.62202 -2.24913 0
M  V30 1471 H 139.602 0.507944 -1.50352 0
M  V30 1472 H 139.623 3.15749 -2.12327 0
M  V30 1473 H 139.135 1.85996 -3.40627 0
M  V30 1474 H 137.236 3.41422 -1.49204 0
M  V30 1475 H 137.349 3.39925 -3.37621 0
M  V30 1476 H 135.713 1.874 -1.72492 0
M  V30 1477 H 136.496 1.15391 -3.23326 0
M  V30 1478 N 138.941 1.26152 0.944643 0
M  V30 1479 C 140.352 1.10454 1.50522 0
M  V30 1480 C 140.703 -0.31635 1.93633 0
M  V30 1481 O 139.828 -1.20746 1.79581 0
M  V30 1482 C 140.423 1.99891 2.73549 0
M  V30 1483 C 138.982 1.88348 3.25886 0
M  V30 1484 C 138.129 1.93447 1.9868 0
M  V30 1485 H 141.08 1.39292 0.760489 0
M  V30 1486 H 141.101 1.54477 3.47732 0
M  V30 1487 H 140.613 3.03297 2.42141 0
M  V30 1488 H 138.714 0.878636 3.62092 0
M  V30 1489 H 138.827 2.73696 3.93227 0
M  V30 1490 H 137.191 1.37456 2.14425 0
M  V30 1491 H 137.974 2.98476 1.69607 0
M  V30 1492 N 140.419 -1.14872 1.07899 0
M  V30 1493 C 141.667 -1.85422 0.803941 0
M  V30 1494 C 141.988 -1.83051 -0.67211 0
M  V30 1495 O 141.258 -1.27532 -1.48703 0
M  V30 1496 H 139.838 -0.686537 0.294408 0
M  V30 1497 H 142.5 -1.39226 1.3639 0
M  V30 1498 H 141.596 -2.90399 1.14346 0
M  V30 1499 N 141.898 -0.863906 -1.31812 0
M  V30 1500 C 142.848 -0.286898 -2.26188 0
M  V30 1501 C 143.832 0.572577 -1.50367 0
M  V30 1502 O 145.024 0.420447 -1.71934 0
M  V30 1503 C 142.153 0.515849 -3.39402 0
M  V30 1504 C 141.239 -0.356531 -4.22599 0
M  V30 1505 N 141.63 -1.44716 -4.84656 0
M  V30 1506 C 139.928 -0.147898 -4.45755 0
M  V30 1507 C 140.629 -1.98462 -5.46798 0
M  V30 1508 N 139.605 -1.28247 -5.28255 0
M  V30 1509 H 143.407 -1.12055 -2.717 0
M  V30 1510 H 140.921 -0.711012 -1.46008 0
M  V30 1511 H 142.918 0.945701 -4.06032 0
M  V30 1512 H 141.578 1.34718 -2.95434 0
M  V30 1513 H 142.589 -1.83008 -4.84488 0
M  V30 1514 H 139.266 0.647973 -4.12441 0
M  V30 1515 H 140.656 -2.89932 -6.06126 0
M  V30 1516 N 143.376 1.44774 -0.622745 0
M  V30 1517 C 144.653 1.95522 -0.0551974 0
M  V30 1518 C 145.033 1.5649 1.41683 0
M  V30 1519 O 144.381 0.834848 2.12703 0
M  V30 1520 C 144.591 3.4796 -0.269242 0
M  V30 1521 C 145.939 4.24306 -0.158014 0
M  V30 1522 O 146.963 3.55637 -0.200162 0
M  V30 1523 O 145.822 5.46471 -0.0558693 0
M  V30 1524 H 142.916 0.826556 0.0271015 0
M  V30 1525 H 145.462 1.54866 -0.693864 0
M  V30 1526 H 144.234 3.6939 -1.29099 0
M  V30 1527 H 143.857 3.95543 0.403966 0
M  V30 1528 N 144.854 0.36279 1.53368 0
M  V30 1529 C 146.131 -0.284021 1.93527 0
M  V30 1530 C 146.511 -1.66628 1.29608 0
M  V30 1531 O 145.859 -2.23942 0.45413 0
M  V30 1532 C 146.069 -0.337028 3.47369 0
M  V30 1533 C 147.417 -0.578708 4.20638 0
M  V30 1534 O 148.441 -0.418352 3.53735 0
M  V30 1535 O 147.3 -0.89074 5.39192 0
M  V30 1536 H 144.394 -0.169743 0.809393 0
M  V30 1537 H 146.94 0.41537 1.64538 0
M  V30 1538 H 145.712 0.632217 3.86159 0
M  V30 1539 H 145.335 -1.08243 3.82582 0
M  V30 1540 N 146.332 -1.57332 0.0918853 0
M  V30 1541 C 147.264 -2.10869 -0.898168 0
M  V30 1542 C 148.277 -1.04521 -1.24817 0
M  V30 1543 O 149.466 -1.31977 -1.20184 0
M  V30 1544 C 146.566 -2.57083 -2.2082 0
M  V30 1545 C 145.739 -3.87229 -2.03402 0
M  V30 1546 C 144.798 -4.19324 -3.17889 0
M  V30 1547 O 143.824 -4.88598 -2.91994 0
M  V30 1548 N 145.026 -3.74471 -4.43567 0
M  V30 1549 H 147.791 -2.96439 -0.440943 0
M  V30 1550 H 145.352 -1.61631 -0.0933064 0
M  V30 1551 H 147.344 -2.75602 -2.96354 0
M  V30 1552 H 145.914 -1.76541 -2.57977 0
M  V30 1553 H 145.134 -3.7789 -1.12218 0
M  V30 1554 H 146.422 -4.72379 -1.89038 0
M  V30 1555 H 145.82 -3.18546 -4.67488 0
M  V30 1556 H 144.377 -3.98151 -5.16061 0
M  V30 1557 N 147.81 0.181792 -1.56548 0
M  V30 1558 C 148.74 1.22765 -1.98623 0
M  V30 1559 C 149.721 1.46747 -0.860189 0
M  V30 1560 O 150.906 1.58259 -1.12551 0
M  V30 1561 C 148.036 2.56894 -2.33715 0
M  V30 1562 C 146.99 2.475 -3.49182 0
M  V30 1563 C 146.316 3.86023 -3.69986 0
M  V30 1564 C 147.616 1.98866 -4.82959 0
M  V30 1565 H 149.31 0.877942 -2.86239 0
M  V30 1566 H 146.856 0.42088 -1.37712 0
M  V30 1567 H 148.809 3.30253 -2.61746 0
M  V30 1568 H 147.533 2.93632 -1.42997 0
M  V30 1569 H 146.192 1.76596 -3.21262 0
M  V30 1570 H 145.84 4.20136 -2.76576 0
M  V30 1571 H 145.54 3.80609 -4.47672 0
M  V30 1572 H 147.064 4.60984 -4.00407 0
M  V30 1573 H 148.478 2.61992 -5.09934 0
M  V30 1574 H 146.875 2.04424 -5.64208 0
M  V30 1575 H 147.945 0.942465 -4.75653 0
M  V30 1576 N 149.288 1.51039 0.449983 0
M  V30 1577 C 150.534 1.64287 1.19923 0
M  V30 1578 C 150.889 0.348701 1.89214 0
M  V30 1579 O 150.182 -0.654751 1.80065 0
M  V30 1580 C 150.376 2.77556 2.25161 0
M  V30 1581 C 150.205 4.17862 1.66198 0
M  V30 1582 C 148.975 4.83976 1.45243 0
M  V30 1583 C 151.173 5.01388 1.14519 0
M  V30 1584 N 149.155 6.08433 0.817437 0
M  V30 1585 C 150.526 6.16743 0.634705 0
M  V30 1586 C 152.581 4.87008 1.03574 0
M  V30 1587 C 151.284 7.19295 0.0255452 0
M  V30 1588 C 153.31 5.89757 0.440489 0
M  V30 1589 C 152.672 7.04375 -0.0595112 0
M  V30 1590 H 148.771 0.655161 0.426952 0
M  V30 1591 H 151.355 1.88228 0.49781 0
M  V30 1592 H 149.526 2.553 2.92706 0
M  V30 1593 H 151.258 2.80049 2.92155 0
M  V30 1594 H 148.013 4.41627 1.71063 0
M  V30 1595 H 148.437 6.75017 0.517747 0
M  V30 1596 H 153.079 3.9866 1.4082 0
M  V30 1597 H 150.797 8.07302 -0.359071 0
M  V30 1598 H 154.383 5.80698 0.35788 0
M  V30 1599 H 153.263 7.82521 -0.512882 0
M  V30 1600 N 150.766 -0.704594 1.40972 0
M  V30 1601 C 151.696 -1.83124 1.44872 0
M  V30 1602 C 152.677 -1.67281 0.30838 0
M  V30 1603 O 153.862 -1.87149 0.518556 0
M  V30 1604 C 150.992 -3.21181 1.32136 0
M  V30 1605 C 149.946 -3.51714 2.43888 0
M  V30 1606 C 149.272 -4.89032 2.16222 0
M  V30 1607 C 150.572 -3.516 3.86232 0
M  V30 1608 H 152.266 -1.80117 2.39161 0
M  V30 1609 H 149.812 -0.865145 1.15114 0
M  V30 1610 H 151.765 -3.99702 1.33479 0
M  V30 1611 H 150.489 -3.24791 0.343279 0
M  V30 1612 H 149.148 -2.75539 2.41813 0
M  V30 1613 H 148.796 -4.89256 1.16778 0
M  V30 1614 H 148.496 -5.10426 2.911 0
M  V30 1615 H 150.02 -5.69873 2.19265 0
M  V30 1616 H 151.434 -4.2014 3.9007 0
M  V30 1617 H 149.831 -3.84523 4.60719 0
M  V30 1618 H 150.901 -2.50757 4.15029 0
M  V30 1619 N 152.244 -1.26651 -0.937939 0
M  V30 1620 C 153.49 -1.12553 -1.687 0
M  V30 1621 C 153.823 0.329782 -1.91379 0
M  V30 1622 O 153.098 1.24202 -1.4968 0
M  V30 1623 C 153.381 -1.89862 -3.05981 0
M  V30 1624 C 153.234 -3.43318 -2.90607 0
M  V30 1625 C 154.553 -1.69499 -4.0615 0
M  V30 1626 H 151.672 -0.410257 -0.612257 0
M  V30 1627 H 154.314 -1.55685 -1.08913 0
M  V30 1628 H 152.464 -1.53204 -3.57017 0
M  V30 1629 H 154.136 -3.89747 -2.46769 0
M  V30 1630 H 152.379 -3.70179 -2.26164 0
M  V30 1631 H 153.05 -3.92642 -3.8799 0
M  V30 1632 H 155.526 -2.01442 -3.64088 0
M  V30 1633 H 154.402 -2.26002 -5.00214 0
M  V30 1634 H 154.663 -0.640365 -4.37438 0
M  V30 1635 N 153.722 1.14298 -1.08507 0
M  V30 1636 C 154.655 2.18447 -0.660004 0
M  V30 1637 C 155.633 1.59242 0.328749 0
M  V30 1638 O 156.817 1.87062 0.232367 0
M  V30 1639 C 153.944 3.38688 0.0290807 0
M  V30 1640 C 152.99 4.1646 -0.919982 0
M  V30 1641 S 153.823 4.77334 -2.42718 0
M  V30 1642 C 154.979 6.00931 -1.75024 0
M  V30 1643 H 155.212 2.54166 -1.54231 0
M  V30 1644 H 152.745 1.25446 -0.900149 0
M  V30 1645 H 154.703 4.08342 0.420378 0
M  V30 1646 H 153.364 3.01289 0.887895 0
M  V30 1647 H 152.557 5.02529 -0.384751 0
M  V30 1648 H 152.159 3.52414 -1.25223 0
M  V30 1649 H 154.451 6.69017 -1.06877 0
M  V30 1650 H 155.394 6.59044 -2.58971 0
M  V30 1651 H 155.802 5.51089 -1.22317 0
M  V30 1652 N 155.201 0.870884 1.31352 0
M  V30 1653 C 156.111 0.330783 2.32256 0
M  V30 1654 C 157.127 -0.559767 1.6475 0
M  V30 1655 O 158.303 -0.456263 1.96164 0
M  V30 1656 C 155.368 -0.458137 3.4366 0
M  V30 1657 C 154.429 0.460482 4.26823 0
M  V30 1658 C 153.662 -0.290881 5.32907 0
M  V30 1659 O 153.885 -1.51885 5.49806 0
M  V30 1660 O 152.819 0.351732 6.00871 0
M  V30 1661 H 156.645 1.16718 2.80376 0
M  V30 1662 H 154.23 0.634285 1.35267 0
M  V30 1663 H 156.112 -0.905343 4.1156 0
M  V30 1664 H 154.787 -1.27106 2.97701 0
M  V30 1665 H 153.694 0.956207 3.61673 0
M  V30 1666 H 155.027 1.23903 4.7635 0
M  V30 1667 N 156.679 -1.44442 0.630414 0
M  V30 1668 C 157.926 -2.02052 0.134617 0
M  V30 1669 C 158.254 -1.49576 -1.24327 0
M  V30 1670 O 157.509 -0.669806 -1.83881 0
M  V30 1671 C 157.808 -3.57332 0.0697835 0
M  V30 1672 C 157.474 -4.29058 1.38635 0
M  V30 1673 C 156.136 -4.4837 1.74694 0
M  V30 1674 C 158.488 -4.69872 2.25543 0
M  V30 1675 C 155.816 -5.05756 2.97369 0
M  V30 1676 C 158.168 -5.28616 3.47487 0
M  V30 1677 C 156.832 -5.46147 3.8377 0
M  V30 1678 H 156.102 -0.739361 0.0492598 0
M  V30 1679 H 158.749 -1.73217 0.816586 0
M  V30 1680 H 157.054 -3.85577 -0.695553 0
M  V30 1681 H 158.751 -3.99637 -0.330344 0
M  V30 1682 H 155.341 -4.14357 1.09574 0
M  V30 1683 H 159.525 -4.54666 1.98979 0
M  V30 1684 H 154.781 -5.17515 3.25558 0
M  V30 1685 H 158.955 -5.59192 4.15063 0
M  V30 1686 H 156.582 -5.9038 4.7891 0
M  V30 1687 N 158.157 -0.370918 -1.53173 0
M  V30 1688 C 159.397 0.217106 -2.03244 0
M  V30 1689 C 159.761 1.45558 -1.25207 0
M  V30 1690 O 160.962 2.11957 -1.65311 0
M  V30 1691 C 159.233 0.496664 -3.53932 0
M  V30 1692 S 160.792 1.0576 -4.25864 0
M  V30 1693 H 157.61 0.0627827 -0.708223 0
M  V30 1694 H 160.212 -0.515019 -1.88594 0
M  V30 1695 H 158.916 -0.412096 -4.08326 0
M  V30 1696 H 158.447 1.25772 -3.72753 0
M  V30 1697 H 160.462 2.34145 -4.37482 0
M  V30 1698 N 159.635 1.57281 -0.100228 0
M  V30 1699 C 160.883 1.94153 0.561157 0
M  V30 1700 C 161.204 0.983157 1.68401 0
M  V30 1701 O 160.474 0.0361132 1.95867 0
M  V30 1702 H 159.054 0.716791 0.210283 0
M  V30 1703 H 161.716 1.94202 -0.164765 0
M  V30 1704 H 160.812 2.96709 0.968008 0
M  V30 1705 N 161.113 -0.173488 1.56642 0
M  V30 1706 C 162.076 -1.19859 1.95362 0
M  V30 1707 C 163.076 -1.37296 0.83704 0
M  V30 1708 O 164.266 -1.34739 1.10413 0
M  V30 1709 C 161.398 -2.56405 2.24654 0
M  V30 1710 H 162.591 -0.867062 2.87092 0
M  V30 1711 H 160.144 -0.415853 1.50666 0
M  V30 1712 H 160.879 -2.94576 1.35631 0
M  V30 1713 H 160.664 -2.45115 3.06041 0
M  V30 1714 H 162.154 -3.30287 2.5554 0
M  V30 1715 N 162.591 -1.51276 -0.441967 0
M  V30 1716 C 163.839 -1.63392 -1.18943 0
M  V30 1717 C 164.16 -0.350159 -1.9183 0
M  V30 1718 O 163.43 0.633784 -1.85364 0
M  V30 1719 H 162.01 -0.602164 -0.442049 0
M  V30 1720 H 164.672 -1.88186 -0.507165 0
M  V30 1721 H 163.768 -2.45934 -1.92154 0
M  V30 1722 N 164.069 0.697108 -1.41344 0
M  V30 1723 C 165.294 1.49096 -1.44171 0
M  V30 1724 C 165.719 1.88038 -0.0481568 0
M  V30 1725 O 165.077 1.54525 0.948243 0
M  V30 1726 C 165.125 2.73088 -2.3549 0
M  V30 1727 O 164.229 3.70514 -1.81088 0
M  V30 1728 H 163.57 0.448801 -0.489361 0
M  V30 1729 H 166.1 0.856992 -1.85787 0
M  V30 1730 H 166.11 3.21413 -2.51312 0
M  V30 1731 H 164.785 2.44081 -3.36745 0
M  V30 1732 H 163.362 3.29441 -1.74708 0
M  V30 1733 N 165.547 1.27147 0.931209 0
M  V30 1734 C 166.796 1.12664 1.67302 0
M  V30 1735 C 167.109 -0.327718 1.92835 0
M  V30 1736 O 168.315 -0.593392 2.64936 0
M  V30 1737 C 166.771 1.9683 3.01307 0
M  V30 1738 C 166.379 3.46901 2.83485 0
M  V30 1739 C 168.123 1.90985 3.79111 0
M  V30 1740 C 166.03 4.23279 4.13024 0
M  V30 1741 H 164.96 0.41803 0.627509 0
M  V30 1742 H 167.611 1.51539 1.03481 0
M  V30 1743 H 165.993 1.50797 3.66164 0
M  V30 1744 H 167.167 4.00773 2.27415 0
M  V30 1745 H 165.482 3.54088 2.19113 0
M  V30 1746 H 168.079 2.45328 4.75098 0
M  V30 1747 H 168.422 0.882718 4.06834 0
M  V30 1748 H 168.955 2.34895 3.21044 0
M  V30 1749 H 165.694 5.26503 3.90481 0
M  V30 1750 H 165.214 3.74186 4.6877 0
M  V30 1751 H 166.893 4.32265 4.81411 0
M  V30 1752 N 167.025 -1.13721 1.09112 0
M  V30 1753 C 168.253 -1.88773 0.846899 0
M  V30 1754 C 168.668 -1.7896 -0.601572 0
M  V30 1755 O 168.025 -1.15394 -1.41388 0
M  V30 1756 C 168.076 -3.3849 1.26913 0
M  V30 1757 O 167.797 -3.48043 2.66079 0
M  V30 1758 C 169.298 -4.30518 1.05682 0
M  V30 1759 H 166.518 -0.59772 0.304914 0
M  V30 1760 H 169.062 -1.43977 1.45227 0
M  V30 1761 H 167.217 -3.80881 0.707723 0
M  V30 1762 H 167.631 -4.4109 2.83795 0
M  V30 1763 H 169.105 -5.3391 1.40156 0
M  V30 1764 H 169.582 -4.392 -0.00563416 0
M  V30 1765 H 170.188 -3.93893 1.60402 0
M  V30 1766 N 168.503 -0.877838 -1.30888 0
M  V30 1767 C 169.78 -0.413052 -1.91189 0
M  V30 1768 C 170.16 1.1056 -1.79832 0
M  V30 1769 O 169.508 1.93771 -1.21099 0
M  V30 1770 C 169.718 -0.903191 -3.3711 0
M  V30 1771 C 171.066 -0.93395 -4.14201 0
M  V30 1772 O 172.09 -0.849373 -3.45925 0
M  V30 1773 O 170.949 -1.05772 -5.36167 0
M  V30 1774 H 168.043 -0.125035 -0.817493 0
M  V30 1775 H 170.589 -0.966269 -1.39504 0
M  V30 1776 H 169.361 -1.94692 -3.39427 0
M  V30 1777 H 168.984 -0.328732 -3.96239 0
M  V30 1778 N 169.982 1.44106 -0.638065 0
M  V30 1779 C 170.912 2.33448 0.0494287 0
M  V30 1780 C 171.893 1.48606 0.827672 0
M  V30 1781 O 173.078 1.77308 0.792173 0
M  V30 1782 C 170.208 3.31771 1.02691 0
M  V30 1783 C 169.162 4.26485 0.359823 0
M  V30 1784 C 168.488 5.14729 1.44769 0
M  V30 1785 C 169.788 5.17056 -0.738296 0
M  V30 1786 H 171.482 2.91183 -0.696636 0
M  V30 1787 H 169.028 1.40014 -0.336456 0
M  V30 1788 H 170.981 3.93161 1.51666 0
M  V30 1789 H 169.705 2.7226 1.80395 0
M  V30 1790 H 168.364 3.66437 -0.10934 0
M  V30 1791 H 168.012 4.51566 2.21578 0
M  V30 1792 H 167.712 5.78913 1.00668 0
M  V30 1793 H 169.236 5.78991 1.93911 0
M  V30 1794 H 170.65 5.72342 -0.331354 0
M  V30 1795 H 169.047 5.89879 -1.10286 0
M  V30 1796 H 170.117 4.57652 -1.60258 0
M  V30 1797 N 171.46 0.379036 1.52974 0
M  V30 1798 C 172.706 -0.206727 2.01744 0
M  V30 1799 C 173.039 -1.47314 1.26539 0
M  V30 1800 O 172.314 -1.91084 0.362903 0
M  V30 1801 C 172.597 -0.485066 3.56818 0
M  V30 1802 C 172.45 0.795919 4.42702 0
M  V30 1803 C 173.769 -1.28003 4.21074 0
M  V30 1804 H 170.888 -0.0736607 0.73331 0
M  V30 1805 H 173.53 0.506581 1.83122 0
M  V30 1806 H 171.68 -1.09272 3.72816 0
M  V30 1807 H 173.352 1.43307 4.38476 0
M  V30 1808 H 171.595 1.41344 4.10127 0
M  V30 1809 H 172.266 0.555947 5.49193 0
M  V30 1810 H 174.742 -0.765867 4.08991 0
M  V30 1811 H 173.618 -1.44352 5.29579 0
M  V30 1812 H 173.879 -2.29236 3.78026 0
M  V30 1813 N 172.938 -1.57226 0.108567 0
M  V30 1814 C 173.885 -2.14756 -0.845481 0
M  V30 1815 C 174.855 -1.06971 -1.27068 0
M  V30 1816 O 176.04 -1.34827 -1.35005 0
M  V30 1817 C 173.18 -2.74298 -2.09415 0
M  V30 1818 C 172.293 -3.96358 -1.71826 0
M  V30 1819 C 171.428 -4.44021 -2.9158 0
M  V30 1820 C 170.467 -5.58637 -2.50181 0
M  V30 1821 N 169.604 -6.01091 -3.62814 0
M  V30 1822 H 174.444 -2.95961 -0.348035 0
M  V30 1823 H 171.981 -1.46226 -0.160106 0
M  V30 1824 H 173.939 -3.06945 -2.82561 0
M  V30 1825 H 172.569 -1.95801 -2.56636 0
M  V30 1826 H 171.621 -3.69939 -0.885947 0
M  V30 1827 H 172.933 -4.79504 -1.37394 0
M  V30 1828 H 172.087 -4.78522 -3.72963 0
M  V30 1829 H 170.826 -3.59803 -3.29231 0
M  V30 1830 H 169.831 -5.23751 -1.67228 0
M  V30 1831 H 171.056 -6.44613 -2.13659 0
M  V30 1832 H 169.002 -5.19817 -4.00158 0
M  V30 1833 H 168.919 -6.79066 -3.32273 0
M  V30 1834 H 170.187 -6.40227 -4.44668 0
M  V30 1835 N 174.416 0.165178 -1.56732 0
M  V30 1836 C 175.364 1.22369 -1.97809 0
M  V30 1837 C 176.358 1.45488 -0.867741 0
M  V30 1838 O 177.564 1.45995 -1.05288 0
M  V30 1839 H 173.939 0.411486 -0.629431 0
M  V30 1840 H 175.91 0.850425 -2.86025 0
M  V30 1841 C 174.659 2.55403 -2.35934 0
M  V30 1842 H 173.982 2.38438 -3.20916 0
M  V30 1843 H 175.422 3.2814 -2.68514 0
M  V30 1844 C 173.881 3.14611 -1.20506 0
M  V30 1845 O 174.411 3.98626 -0.496016 0
M  V30 1846 N 172.617 2.7379 -0.97403 0
M  V30 1847 H 172.164 2.0557 -1.55238 0
M  V30 1848 H 172.122 3.1374 -0.203573 0
M  V30 1849 N 175.894 1.51508 0.433938 0
M  V30 1850 C 177.122 1.68157 1.20543 0
M  V30 1851 C 177.537 0.380362 1.84929 0
M  V30 1852 O 176.894 -0.641446 1.70856 0
M  V30 1853 C 176.945 2.79965 2.28696 0
M  V30 1854 O 176.666 4.05045 1.66943 0
M  V30 1855 C 178.167 3.07912 3.18912 0
M  V30 1856 H 175.387 0.56421 0.363191 0
M  V30 1857 H 177.931 1.97941 0.513754 0
M  V30 1858 H 176.086 2.5277 2.93574 0
M  V30 1859 H 176.5 4.67165 2.38448 0
M  V30 1860 H 177.974 3.89719 3.90926 0
M  V30 1861 H 178.451 2.20456 3.79863 0
M  V30 1862 H 179.057 3.36779 2.59731 0
M  V30 1863 N 177.372 -0.689602 1.41712 0
M  V30 1864 C 178.319 -1.80345 1.44029 0
M  V30 1865 C 179.289 -1.63478 0.293948 0
M  V30 1866 O 180.474 -1.84244 0.495869 0
M  V30 1867 C 177.614 -3.18272 1.33405 0
M  V30 1868 C 176.727 -3.46529 2.57956 0
M  V30 1869 C 175.862 -4.74103 2.39582 0
M  V30 1870 C 174.901 -4.95347 3.5958 0
M  V30 1871 N 174.038 -6.14151 3.40239 0
M  V30 1872 H 178.878 -1.77698 2.39222 0
M  V30 1873 H 176.415 -0.867688 1.18784 0
M  V30 1874 H 178.373 -3.97956 1.25246 0
M  V30 1875 H 177.003 -3.2008 0.418164 0
M  V30 1876 H 176.055 -2.61207 2.76542 0
M  V30 1877 H 177.367 -3.58126 3.47199 0
M  V30 1878 H 176.521 -5.61853 2.28924 0
M  V30 1879 H 175.26 -4.64763 1.47805 0
M  V30 1880 H 174.265 -4.06044 3.70686 0
M  V30 1881 H 175.49 -5.06542 4.52318 0
M  V30 1882 H 173.436 -6.06013 2.51167 0
M  V30 1883 H 173.353 -6.26543 4.23061 0
M  V30 1884 H 174.621 -7.04619 3.33365 0
M  V30 1885 N 178.85 -1.27639 -0.924453 0
M  V30 1886 C 180.098 -1.13941 -1.66918 0
M  V30 1887 C 180.419 0.314589 -1.92446 0
M  V30 1888 O 179.689 1.21964 -1.53303 0
M  V30 1889 H 178.269 -0.418678 -0.618642 0
M  V30 1890 H 180.931 -1.60213 -1.10985 0
M  V30 1891 H 180.027 -1.67094 -2.63602 0
M  V30 1892 N 180.328 1.1314 -1.09713 0
M  V30 1893 C 181.276 2.20717 -0.733934 0
M  V30 1894 C 182.27 1.6729 0.266506 0
M  V30 1895 O 183.476 1.79547 0.127656 0
M  V30 1896 H 179.851 0.719292 -0.21937 0
M  V30 1897 H 181.822 2.48611 -1.6503 0
M  V30 1898 C 180.571 3.47265 -0.173849 0
M  V30 1899 H 179.894 3.88716 -0.934873 0
M  V30 1900 H 181.334 4.23979 0.0423126 0
M  V30 1901 C 179.793 3.18724 1.09164 0
M  V30 1902 O 180.323 3.37762 2.17439 0
M  V30 1903 N 178.529 2.72583 1.00732 0
M  V30 1904 H 178.076 2.57291 0.126121 0
M  V30 1905 H 178.034 2.53862 1.85476 0
M  V30 1906 N 181.806 0.884767 1.30421 0
M  V30 1907 C 183.034 0.518044 2.0031 0
M  V30 1908 C 183.449 -0.893408 1.66324 0
M  V30 1909 O 182.806 -1.5875 0.900262 0
M  V30 1910 C 182.857 0.682997 3.54989 0
M  V30 1911 O 182.578 2.03888 3.87764 0
M  V30 1912 C 184.079 0.31924 4.42149 0
M  V30 1913 H 181.299 0.200265 0.640418 0
M  V30 1914 H 183.843 1.19001 1.6631 0
M  V30 1915 H 181.998 0.0584052 3.87356 0
M  V30 1916 H 182.412 2.05735 4.82466 0
M  V30 1917 H 183.886 0.485555 5.4986 0
M  V30 1918 H 184.363 -0.742717 4.32875 0
M  V30 1919 H 184.969 0.920147 4.15227 0
M  V30 1920 N 183.284 -1.43765 0.645699 0
M  V30 1921 C 184.214 -2.33471 -0.0370477 0
M  V30 1922 C 185.195 -1.49042 -0.819779 0
M  V30 1923 O 186.38 -1.77726 -0.782758 0
M  V30 1924 C 183.51 -3.32311 -1.0093 0
M  V30 1925 C 182.464 -4.2667 -0.337201 0
M  V30 1926 C 181.79 -5.1549 -1.42037 0
M  V30 1927 C 183.09 -5.16657 0.765706 0
M  V30 1928 H 184.784 -2.90809 0.712069 0
M  V30 1929 H 182.33 -1.39834 0.343876 0
M  V30 1930 H 184.283 -3.9396 -1.49578 0
M  V30 1931 H 183.007 -2.73213 -1.78948 0
M  V30 1932 H 181.666 -3.66374 0.128771 0
M  V30 1933 H 181.314 -4.52735 -2.1918 0
M  V30 1934 H 181.014 -5.79438 -0.975966 0
M  V30 1935 H 182.538 -5.80012 -1.90838 0
M  V30 1936 H 183.952 -5.72158 0.361702 0
M  V30 1937 H 182.349 -5.89286 1.13413 0
M  V30 1938 H 183.419 -4.56796 1.62683 0
M  V30 1939 N 184.763 -0.387143 -1.52771 0
M  V30 1940 C 185.71 0.449048 -2.26389 0
M  V30 1941 C 186.68 1.05961 -1.27912 0
M  V30 1942 O 187.865 1.08804 -1.56737 0
M  V30 1943 C 185.005 1.57155 -3.0724 0
M  V30 1944 C 184.118 0.984066 -4.20643 0
M  V30 1945 C 183.253 2.07745 -4.88892 0
M  V30 1946 C 182.292 1.46574 -5.94292 0
M  V30 1947 N 181.429 2.49834 -6.56146 0
M  V30 1948 H 186.269 -0.185205 -2.97424 0
M  V30 1949 H 183.806 -0.103164 -1.46738 0
M  V30 1950 H 185.764 2.23309 -3.52405 0
M  V30 1951 H 184.394 2.17615 -2.38419 0
M  V30 1952 H 183.446 0.212193 -3.79808 0
M  V30 1953 H 184.758 0.497029 -4.96318 0
M  V30 1954 H 183.912 2.81673 -5.3735 0
M  V30 1955 H 182.651 2.59807 -4.12737 0
M  V30 1956 H 181.656 0.711696 -5.45174 0
M  V30 1957 H 182.881 0.953088 -6.72379 0
M  V30 1958 H 180.827 3.0107 -5.82832 0
M  V30 1959 H 180.744 2.05879 -7.27427 0
M  V30 1960 H 182.012 3.23399 -7.09249 0
M  V30 1961 N 186.241 1.57166 -0.116904 0
M  V30 1962 C 187.151 2.18745 0.847812 0
M  V30 1963 C 188.167 1.163 1.29423 0
M  V30 1964 O 189.343 1.48761 1.35765 0
M  V30 1965 C 186.408 2.77307 2.0809 0
M  V30 1966 C 185.469 3.94781 1.68661 0
M  V30 1967 C 184.702 4.50541 2.86091 0
M  V30 1968 O 184.925 4.05202 4.01456 0
M  V30 1969 O 183.859 5.41256 2.63298 0
M  V30 1970 H 187.685 3.01632 0.353778 0
M  V30 1971 H 185.27 1.49005 0.108599 0
M  V30 1972 H 187.152 3.14647 2.80313 0
M  V30 1973 H 185.827 1.97452 2.56504 0
M  V30 1974 H 184.734 3.62214 0.935518 0
M  V30 1975 H 186.067 4.76065 1.24991 0
M  V30 1976 N 187.719 -0.156864 1.56817 0
M  V30 1977 C 188.996 -0.899244 1.73704 0
M  V30 1978 C 189.376 -1.99771 0.682254 0
M  V30 1979 O 188.724 -2.26515 -0.300522 0
M  V30 1980 C 188.934 -1.45075 3.17418 0
M  V30 1981 C 190.282 -1.91802 3.7881 0
M  V30 1982 O 191.306 -1.54838 3.20786 0
M  V30 1983 O 190.165 -2.5994 4.80722 0
M  V30 1984 H 187.259 -0.424267 0.709878 0
M  V30 1985 H 189.805 -0.143561 1.69092 0
M  V30 1986 H 188.577 -0.660846 3.85679 0
M  V30 1987 H 188.2 -2.27021 3.26416 0
M  V30 1988 N 189.197 -1.51736 -0.425897 0
M  V30 1989 C 190.443 -1.66174 -1.17294 0
M  V30 1990 C 190.798 -0.37876 -1.88635 0
M  V30 1991 O 190.091 0.626021 -1.81084 0
M  V30 1992 C 190.285 -2.81103 -2.20717 0
M  V30 1993 C 190.114 -4.20453 -1.59529 0
M  V30 1994 C 188.884 -4.86225 -1.37525 0
M  V30 1995 C 191.082 -5.03146 -1.06528 0
M  V30 1996 N 189.064 -6.09657 -0.720537 0
M  V30 1997 C 190.435 -6.17674 -0.536506 0
M  V30 1998 C 192.49 -4.88594 -0.958127 0
M  V30 1999 C 191.193 -7.19245 0.0888917 0
M  V30 2000 C 193.219 -5.90383 -0.346608 0
M  V30 2001 C 192.581 -7.04191 0.171564 0
M  V30 2002 H 188.68 -0.661871 -0.416475 0
M  V30 2003 H 191.264 -1.88997 -0.467801 0
M  V30 2004 H 189.435 -2.59924 -2.88607 0
M  V30 2005 H 191.167 -2.84662 -2.87663 0
M  V30 2006 H 187.922 -4.44293 -1.64015 0
M  V30 2007 H 188.346 -6.75756 -0.410292 0
M  V30 2008 H 192.988 -4.0085 -1.34459 0
M  V30 2009 H 190.706 -8.06628 0.48746 0
M  V30 2010 H 194.292 -5.81194 -0.265451 0
M  V30 2011 H 193.172 -7.81606 0.637309 0
M  V30 2012 N 190.675 0.682077 -1.42076 0
M  V30 2013 C 191.924 1.43786 -1.41451 0
M  V30 2014 C 192.237 1.95574 -0.0317074 0
M  V30 2015 O 193.443 2.71326 0.0971462 0
M  V30 2016 C 191.899 2.60071 -2.48779 0
M  V30 2017 C 191.507 2.15013 -3.93031 0
M  V30 2018 C 193.251 3.37626 -2.57311 0
M  V30 2019 C 191.158 3.28336 -4.91883 0
M  V30 2020 H 190.088 0.540143 -0.526082 0
M  V30 2021 H 192.739 0.739157 -1.67955 0
M  V30 2022 H 191.121 3.32275 -2.15429 0
M  V30 2023 H 192.295 1.5001 -4.35699 0
M  V30 2024 H 190.61 1.50416 -3.88284 0
M  V30 2025 H 193.207 4.22012 -3.28345 0
M  V30 2026 H 193.55 3.83727 -1.61429 0
M  V30 2027 H 194.083 2.72488 -2.89819 0
M  V30 2028 H 190.822 2.87234 -5.89217 0
M  V30 2029 H 190.342 3.92145 -4.53853 0
M  V30 2030 H 192.021 3.93913 -5.13265 0
M  V30 2031 N 192.153 1.28127 0.917671 0
M  V30 2032 C 193.116 1.11744 2.00115 0
M  V30 2033 C 194.116 0.0583052 1.60694 0
M  V30 2034 O 195.306 0.303755 1.71531 0
M  V30 2035 C 192.438 0.704862 3.33533 0
M  V30 2036 H 193.631 2.07966 2.16079 0
M  V30 2037 H 191.184 1.11058 1.09981 0
M  V30 2038 H 191.919 -0.258299 3.2327 0
M  V30 2039 H 191.704 1.4699 3.63505 0
M  V30 2040 H 193.194 0.612768 4.1308 0
M  V30 2041 N 193.631 -1.12557 1.10312 0
M  V30 2042 C 194.861 -1.87592 0.865617 0
M  V30 2043 C 195.269 -1.79851 -0.587389 0
M  V30 2044 O 194.612 -1.16949 -1.41664 0
M  V30 2045 C 194.674 -3.37665 1.23381 0
M  V30 2046 C 194.338 -3.69181 2.69359 0
M  V30 2047 C 195.335 -3.67652 3.67597 0
M  V30 2048 C 193.02 -3.98555 3.05711 0
M  V30 2049 C 195.014 -3.95053 5.00212 0
M  V30 2050 C 192.701 -4.25616 4.38514 0
M  V30 2051 C 193.699 -4.23851 5.35574 0
M  V30 2052 O 193.387 -4.50242 6.65986 0
M  V30 2053 H 193.119 -0.600442 0.310557 0
M  V30 2054 H 195.673 -1.4335 1.47105 0
M  V30 2055 H 193.903 -3.82454 0.571467 0
M  V30 2056 H 195.592 -3.94041 0.973994 0
M  V30 2057 H 196.358 -3.45024 3.40857 0
M  V30 2058 H 192.237 -3.99071 2.30789 0
M  V30 2059 H 195.781 -3.93591 5.75962 0
M  V30 2060 H 191.678 -4.47718 4.64994 0
M  V30 2061 H 192.446 -4.67867 6.71597 0
M  V30 2062 N 195.109 -0.891671 -1.2995 0
M  V30 2063 C 196.358 -0.509521 -1.95158 0
M  V30 2064 C 196.671 0.947388 -1.71125 0
M  V30 2065 O 197.877 1.43669 -2.30372 0
M  V30 2066 C 196.333 -0.860315 -3.49466 0
M  V30 2067 C 195.941 -2.33545 -3.8231 0
M  V30 2068 C 197.685 -0.547687 -4.20952 0
M  V30 2069 C 195.592 -2.62752 -5.29826 0
M  V30 2070 H 194.522 -0.18682 -0.730489 0
M  V30 2071 H 197.173 -1.08756 -1.47798 0
M  V30 2072 H 195.555 -0.211285 -3.95436 0
M  V30 2073 H 196.729 -3.02936 -3.47227 0
M  V30 2074 H 195.044 -2.61629 -3.23944 0
M  V30 2075 H 197.641 -0.742854 -5.29515 0
M  V30 2076 H 197.984 0.51332 -4.13123 0
M  V30 2077 H 198.517 -1.1542 -3.80688 0
M  V30 2078 H 195.256 -3.6762 -5.42712 0
M  V30 2079 H 194.776 -1.97977 -5.66185 0
M  V30 2080 H 196.455 -2.48601 -5.97333 0
M  V30 2081 N 196.587 1.43421 -0.653314 0
M  V30 2082 C 197.812 2.06678 -0.172846 0
M  V30 2083 C 198.237 1.48648 1.15262 0
M  V30 2084 O 197.595 0.596457 1.71208 0
M  V30 2085 C 197.643 3.60474 -0.0953184 0
M  V30 2086 O 196.747 4.01487 0.942442 0
M  V30 2087 H 196.088 0.657181 -0.0949155 0
M  V30 2088 H 198.618 1.83925 -0.896265 0
M  V30 2089 H 198.628 4.07905 0.0879728 0
M  V30 2090 H 197.303 4.02088 -1.06291 0
M  V30 2091 H 195.88 3.65646 0.731932 0
M  V30 2092 N 198.065 0.39524 1.52563 0
M  V30 2093 C 199.481 0.0454682 1.59535 0
M  V30 2094 C 199.681 -1.44056 1.4089 0
M  V30 2095 O 198.737 -2.20579 1.22888 0
M  V30 2096 C 200.05 0.527963 2.96029 0
M  V30 2097 C 201.598 0.484733 3.09224 0
M  V30 2098 C 202.073 0.943512 4.48176 0
M  V30 2099 N 203.564 0.899765 4.54377 0
M  V30 2100 C 204.299 1.22609 5.60138 0
M  V30 2101 N 203.795 1.62319 6.73516 0
M  V30 2102 N 205.588 1.14696 5.50274 0
M  V30 2103 H 197.739 1.36261 1.62931 0
M  V30 2104 H 200.002 0.558887 0.765735 0
M  V30 2105 H 199.708 1.56607 3.14908 0
M  V30 2106 H 199.582 -0.0698056 3.77135 0
M  V30 2107 H 201.969 -0.544298 2.90037 0
M  V30 2108 H 202.05 1.11838 2.30056 0
M  V30 2109 H 201.694 1.9708 4.68104 0
M  V30 2110 H 201.624 0.286817 5.25818 0
M  V30 2111 H 204.115 0.607632 3.72983 0
M  V30 2112 H 204.428 1.85567 7.5019 0
M  V30 2113 H 202.773 1.66211 6.74833 0
M  V30 2114 H 205.964 0.835701 4.6058 0
M  V30 2115 H 206.137 1.40459 6.32594 0
M  V30 2116 N 199.544 -1.57102 0.125237 0
M  V30 2117 C 200.454 -2.19191 -0.8362 0
M  V30 2118 C 201.47 -1.16985 -1.28805 0
M  V30 2119 O 202.646 -1.49479 -1.34974 0
M  V30 2120 C 199.711 -2.78407 -2.06617 0
M  V30 2121 C 198.772 -3.9567 -1.66565 0
M  V30 2122 C 198.005 -4.52052 -2.83698 0
M  V30 2123 O 198.228 -4.07326 -3.99302 0
M  V30 2124 O 197.162 -5.42645 -2.60423 0
M  V30 2125 H 200.988 -3.01816 -0.337776 0
M  V30 2126 H 198.573 -1.4906 -0.100695 0
M  V30 2127 H 200.455 -3.16129 -2.7864 0
M  V30 2128 H 199.13 -1.9881 -2.55453 0
M  V30 2129 H 198.037 -3.62705 -0.916296 0
M  V30 2130 H 199.37 -4.76722 -1.22464 0
M  V30 2131 N 201.022 0.148545 -1.56898 0
M  V30 2132 C 202.271 0.85984 -1.82454 0
M  V30 2133 C 202.584 1.82406 -0.706229 0
M  V30 2134 O 203.79 2.57938 -0.847349 0
M  V30 2135 C 202.246 1.57967 -3.2338 0
M  V30 2136 C 201.854 0.65794 -4.43142 0
M  V30 2137 C 203.598 2.27784 -3.58211 0
M  V30 2138 C 201.505 1.3793 -5.75091 0
M  V30 2139 H 200.435 0.324834 -0.68044 0
M  V30 2140 H 203.086 0.112588 -1.83154 0
M  V30 2141 H 201.468 2.37249 -3.17063 0
M  V30 2142 H 202.642 -0.0995497 -4.60692 0
M  V30 2143 H 200.957 0.0682643 -4.16344 0
M  V30 2144 H 203.554 2.8239 -4.54048 0
M  V30 2145 H 203.897 3.04204 -2.84193 0
M  V30 2146 H 204.43 1.55421 -3.66182 0
M  V30 2147 H 201.169 0.656982 -6.52199 0
M  V30 2148 H 200.689 2.10954 -5.61479 0
M  V30 2149 H 202.368 1.92063 -6.17835 0
M  V30 2150 N 202.5 1.5196 0.417844 0
M  V30 2151 C 203.43 1.77634 1.51554 0
M  V30 2152 C 204.411 0.626918 1.58126 0
M  V30 2153 O 205.596 0.871632 1.7354 0
M  V30 2154 C 202.726 1.91911 2.8946 0
M  V30 2155 C 201.68 3.07463 2.97743 0
M  V30 2156 C 201.006 3.06951 4.37819 0
M  V30 2157 C 202.306 4.47082 2.70027 0
M  V30 2158 H 204 2.6955 1.3032 0
M  V30 2159 H 201.546 1.29706 0.625492 0
M  V30 2160 H 203.499 2.08455 3.6623 0
M  V30 2161 H 202.223 0.966598 3.11969 0
M  V30 2162 H 200.882 2.90656 2.23416 0
M  V30 2163 H 200.53 2.09438 4.57323 0
M  V30 2164 H 200.23 3.84556 4.44286 0
M  V30 2165 H 201.754 3.25613 5.16535 0
M  V30 2166 H 203.168 4.6414 3.36522 0
M  V30 2167 H 201.565 5.2654 2.87881 0
M  V30 2168 H 202.635 4.55777 1.65514 0
M  V30 2169 N 203.978 -0.674533 1.42435 0
M  V30 2170 C 205.394 -0.98769 1.25367 0
M  V30 2171 C 205.594 -2.00879 0.158044 0
M  V30 2172 O 204.65 -2.48075 -0.470633 0
M  V30 2173 C 205.963 -1.49224 2.6106 0
M  V30 2174 C 207.511 -1.61 2.68417 0
M  V30 2175 C 207.986 -2.14852 4.04478 0
M  V30 2176 N 209.477 -2.22185 4.06434 0
M  V30 2177 C 210.212 -2.64928 5.08528 0
M  V30 2178 N 209.708 -3.07121 6.21006 0
M  V30 2179 N 211.501 -2.64679 4.95885 0
M  V30 2180 H 203.652 0.00152503 2.124 0
M  V30 2181 H 205.915 -0.0618434 0.945981 0
M  V30 2182 H 205.621 -0.816453 3.42092 0
M  V30 2183 H 205.495 -2.47094 2.84999 0
M  V30 2184 H 207.882 -2.27686 1.87732 0
M  V30 2185 H 207.963 -0.616195 2.48267 0
M  V30 2186 H 207.607 -1.48775 4.85622 0
M  V30 2187 H 207.537 -3.15024 4.2198 0
M  V30 2188 H 210.028 -1.92435 3.25234 0
M  V30 2189 H 210.341 -3.38423 6.94759 0
M  V30 2190 H 208.686 -3.04978 6.24511 0
M  V30 2191 H 211.877 -2.31078 4.07088 0
M  V30 2192 H 212.05 -2.9767 5.75584 0
M  V30 2193 N 205.456 -1.28612 -0.910864 0
M  V30 2194 C 206.704 -1.15705 -1.65701 0
M  V30 2195 C 207.025 0.29416 -1.92769 0
M  V30 2196 O 206.295 1.20331 -1.54588 0
M  V30 2197 H 204.875 -0.425216 -0.614167 0
M  V30 2198 H 207.537 -1.61381 -1.0928 0
M  V30 2199 H 206.633 -1.6988 -2.61815 0
M  V30 2200 N 206.934 1.1197 -1.10907 0
M  V30 2201 C 207.864 2.19928 -0.784473 0
M  V30 2202 C 208.845 1.6833 0.244726 0
M  V30 2203 O 210.03 1.93892 0.109418 0
M  V30 2204 C 207.16 3.46597 -0.220827 0
M  V30 2205 C 206.114 4.11376 -1.18127 0
M  V30 2206 C 205.44 5.32554 -0.478594 0
M  V30 2207 C 206.74 4.56945 -2.52979 0
M  V30 2208 H 208.434 2.47337 -1.68715 0
M  V30 2209 H 205.98 1.18879 -0.812642 0
M  V30 2210 H 207.933 4.21396 0.0184278 0
M  V30 2211 H 206.657 3.1863 0.717113 0
M  V30 2212 H 205.316 3.38564 -1.40606 0
M  V30 2213 H 204.964 5.00856 0.463976 0
M  V30 2214 H 204.664 5.76844 -1.11912 0
M  V30 2215 H 206.188 6.10096 -0.248 0
M  V30 2216 H 207.602 5.23093 -2.3462 0
M  V30 2217 H 205.999 5.1203 -3.12962 0
M  V30 2218 H 207.069 3.70676 -3.12614 0
M  V30 2219 N 208.412 0.89855 1.29475 0
M  V30 2220 C 209.375 0.380272 2.26023 0
M  V30 2221 C 210.375 -0.484891 1.53315 0
M  V30 2222 O 211.565 -0.290108 1.71767 0
M  V30 2223 C 208.697 -0.45651 3.3783 0
M  V30 2224 H 209.89 1.23295 2.73383 0
M  V30 2225 H 207.443 0.676589 1.40897 0
M  V30 2226 H 208.178 -1.32922 2.95808 0
M  V30 2227 H 207.963 0.163393 3.91759 0
M  V30 2228 H 209.453 -0.810466 4.0966 0
M  V30 2229 N 209.89 -1.43072 0.660911 0
M  V30 2230 C 210.84 -2.27948 -0.04847 0
M  V30 2231 C 211.824 -1.40325 -0.787246 0
M  V30 2232 O 213.016 -1.63893 -0.668446 0
M  V30 2233 C 210.145 -3.28143 -1.00881 0
M  V30 2234 C 209.231 -4.23252 -0.268108 0
M  V30 2235 N 209.622 -5.00656 0.719528 0
M  V30 2236 C 207.92 -4.43092 -0.508493 0
M  V30 2237 C 208.621 -5.70019 1.15988 0
M  V30 2238 N 207.597 -5.41364 0.492584 0
M  V30 2239 H 211.399 -2.85213 0.709279 0
M  V30 2240 H 208.913 -1.54869 0.488822 0
M  V30 2241 H 210.91 -3.87736 -1.53188 0
M  V30 2242 H 209.57 -2.7244 -1.76654 0
M  V30 2243 H 210.581 -5.06115 1.09855 0
M  V30 2244 H 207.258 -3.98449 -1.24679 0
M  V30 2245 H 208.648 -6.4214 1.97751 0
M  V30 2246 N 211.368 -0.403325 -1.52352 0
M  V30 2247 C 212.298 0.416205 -2.29761 0
M  V30 2248 C 213.279 1.05123 -1.33728 0
M  V30 2249 O 214.464 1.06134 -1.62632 0
M  V30 2250 C 211.594 1.53624 -3.11475 0
M  V30 2251 C 210.548 1.02653 -4.15507 0
M  V30 2252 C 209.874 2.23971 -4.85532 0
M  V30 2253 C 211.174 0.08463 -5.22231 0
M  V30 2254 H 212.868 -0.229701 -2.98518 0
M  V30 2255 H 210.414 -0.111913 -1.43564 0
M  V30 2256 H 212.367 2.1165 -3.64393 0
M  V30 2257 H 211.091 2.20994 -2.40477 0
M  V30 2258 H 209.75 0.46871 -3.63591 0
M  V30 2259 H 209.398 2.89883 -4.11068 0
M  V30 2260 H 209.098 1.90521 -5.55856 0
M  V30 2261 H 210.622 2.82614 -5.41259 0
M  V30 2262 H 212.036 0.573509 -5.70424 0
M  V30 2263 H 210.433 -0.160783 -5.99885 0
M  V30 2264 H 211.503 -0.86237 -4.7717 0
M  V30 2265 N 212.846 1.57033 -0.133567 0
M  V30 2266 C 213.796 2.12641 0.822671 0
M  V30 2267 C 214.78 1.05081 1.21847 0
M  V30 2268 O 215.972 1.31287 1.18713 0
M  V30 2269 C 213.101 2.74094 2.06706 0
M  V30 2270 C 212.187 3.88757 1.69497 0
M  V30 2271 N 212.578 4.95194 1.03037 0
M  V30 2272 C 210.876 3.99213 1.98859 0
M  V30 2273 C 211.577 5.75414 0.852873 0
M  V30 2274 N 210.553 5.25726 1.3825 0
M  V30 2275 H 214.355 2.92308 0.305537 0
M  V30 2276 H 211.869 1.62256 0.0684276 0
M  V30 2277 H 213.866 3.12285 2.76195 0
M  V30 2278 H 212.526 1.95896 2.5895 0
M  V30 2279 H 213.537 5.13247 0.692669 0
M  V30 2280 H 210.214 3.32075 2.53047 0
M  V30 2281 H 211.604 6.71089 0.330091 0
M  V30 2282 N 214.325 -0.140222 1.56975 0
M  V30 2283 C 215.574 -0.850152 1.82908 0
M  V30 2284 C 215.887 -1.82028 0.715892 0
M  V30 2285 O 217.093 -2.57485 0.861016 0
M  V30 2286 C 215.549 -1.5625 3.24213 0
M  V30 2287 C 215.157 -0.63443 4.43485 0
M  V30 2288 C 216.901 -2.25881 3.59413 0
M  V30 2289 C 214.808 -1.34879 5.75814 0
M  V30 2290 H 213.738 -0.321221 0.682153 0
M  V30 2291 H 216.389 -0.102874 1.83211 0
M  V30 2292 H 214.771 -2.35565 3.18316 0
M  V30 2293 H 215.945 0.12398 4.60633 0
M  V30 2294 H 214.26 -0.0461836 4.16374 0
M  V30 2295 H 216.857 -2.79978 4.5554 0
M  V30 2296 H 217.2 -3.02693 2.85802 0
M  V30 2297 H 217.733 -1.53477 3.67001 0
M  V30 2298 H 214.472 -0.622385 6.52539 0
M  V30 2299 H 213.992 -2.07974 5.6259 0
M  V30 2300 H 215.671 -1.88784 6.18845 0
M  V30 2301 N 215.803 -1.52179 -0.40978 0
M  V30 2302 C 216.753 -1.71857 -1.49831 0
M  V30 2303 C 217.737 -0.572469 -1.50372 0
M  V30 2304 O 218.929 -0.829509 -1.56359 0
M  V30 2305 C 216.058 -1.87206 -2.87765 0
M  V30 2306 C 215.144 -3.07685 -2.91875 0
M  V30 2307 N 215.535 -4.30403 -2.65683 0
M  V30 2308 C 213.833 -3.07505 -3.23043 0
M  V30 2309 C 214.534 -5.11868 -2.76344 0
M  V30 2310 N 213.51 -4.47101 -3.09195 0
M  V30 2311 H 217.312 -2.64381 -1.28375 0
M  V30 2312 H 214.826 -1.50203 -0.617479 0
M  V30 2313 H 216.823 -1.99419 -3.66111 0
M  V30 2314 H 215.483 -0.958814 -3.10221 0
M  V30 2315 H 216.494 -4.58887 -2.4009 0
M  V30 2316 H 213.171 -2.25915 -3.51096 0
M  V30 2317 H 214.561 -6.19634 -2.59814 0
M  V30 2318 N 217.281 0.66697 -1.42791 0
M  V30 2319 C 218.231 1.77313 -1.43332 0
M  V30 2320 C 219.215 1.5801 -0.303586 0
M  V30 2321 O 220.407 1.68356 -0.546385 0
M  V30 2322 C 217.536 3.15822 -1.34578 0
M  V30 2323 C 216.622 3.40721 -2.52528 0
M  V30 2324 N 217.013 3.36162 -3.77927 0
M  V30 2325 C 215.311 3.71387 -2.46956 0
M  V30 2326 C 216.012 3.60762 -4.56318 0
M  V30 2327 N 214.988 3.81908 -3.86843 0
M  V30 2328 H 218.79 1.72193 -2.38174 0
M  V30 2329 H 216.304 0.868114 -1.3725 0
M  V30 2330 H 218.301 3.951 -1.33048 0
M  V30 2331 H 216.961 3.22133 -0.407453 0
M  V30 2332 H 217.972 3.15885 -4.10411 0
M  V30 2333 H 214.649 3.84897 -1.61743 0
M  V30 2334 H 216.039 3.63132 -5.65318 0
M  V30 2335 N 218.759 1.29093 0.90403 0
M  V30 2336 C 220.005 1.16986 1.65656 0
M  V30 2337 C 220.338 -0.278925 1.92186 0
M  V30 2338 O 219.613 -1.2019 1.5292 0
M  V30 2339 C 219.896 1.97908 3.0084 0
M  V30 2340 C 219.749 3.50903 2.81403 0
M  V30 2341 C 221.068 1.80208 4.01513 0
M  V30 2342 H 218.187 0.426346 0.601164 0
M  V30 2343 H 220.829 1.58518 1.04747 0
M  V30 2344 H 218.979 1.62616 3.52829 0
M  V30 2345 H 220.651 3.96153 2.36348 0
M  V30 2346 H 218.894 3.76045 2.1627 0
M  V30 2347 H 219.565 4.02791 3.77443 0
M  V30 2348 H 222.041 2.11025 3.58619 0
M  V30 2349 H 220.917 2.39184 4.94047 0
M  V30 2350 H 221.178 0.756119 4.35586 0
M  V30 2351 N 220.237 -1.11381 1.11499 0
M  V30 2352 C 221.486 -1.82494 0.858993 0
M  V30 2353 C 221.799 -1.85605 -0.617278 0
M  V30 2354 O 223.005 -2.52824 -0.989552 0
M  V30 2355 C 221.461 -3.27745 1.48699 0
M  V30 2356 C 221.069 -3.32961 2.99735 0
M  V30 2357 C 222.813 -4.03754 1.31085 0
M  V30 2358 C 220.72 -4.72612 3.55516 0
M  V30 2359 H 219.65 -0.683802 0.317696 0
M  V30 2360 H 222.301 -1.25331 1.34031 0
M  V30 2361 H 220.683 -3.84844 0.933339 0
M  V30 2362 H 221.857 -2.85741 3.61509 0
M  V30 2363 H 220.172 -2.70433 3.16631 0
M  V30 2364 H 222.769 -5.06891 1.70192 0
M  V30 2365 H 223.112 -4.15527 0.253496 0
M  V30 2366 H 223.645 -3.53043 1.83318 0
M  V30 2367 H 220.384 -4.66036 4.60967 0
M  V30 2368 H 219.904 -5.2024 2.98513 0
M  V30 2369 H 221.583 -5.4157 3.53992 0
M  V30 2370 N 221.715 -0.905404 -1.28997 0
M  V30 2371 C 222.665 -0.358713 -2.25161 0
M  V30 2372 C 223.649 0.524449 -1.52113 0
M  V30 2373 O 224.841 0.365534 -1.73184 0
M  V30 2374 C 221.97 0.407609 -3.40872 0
M  V30 2375 C 221.056 -0.490797 -4.21251 0
M  V30 2376 N 221.447 -1.60061 -4.79806 0
M  V30 2377 C 219.745 -0.289636 -4.45059 0
M  V30 2378 C 220.446 -2.15757 -5.40207 0
M  V30 2379 N 219.422 -1.44988 -5.23908 0
M  V30 2380 H 223.224 -1.20642 -2.67998 0
M  V30 2381 H 220.738 -0.757103 -1.43672 0
M  V30 2382 H 222.735 0.816046 -4.08835 0
M  V30 2383 H 221.395 1.25251 -2.9957 0
M  V30 2384 H 222.406 -1.98329 -4.7842 0
M  V30 2385 H 219.083 0.51643 -4.14294 0
M  V30 2386 H 220.473 -3.09069 -5.96595 0
M  V30 2387 N 223.193 1.4272 -0.668489 0
M  V30 2388 C 224.609 1.55992 -0.33745 0
M  V30 2389 C 224.809 1.64933 1.15756 0
M  V30 2390 O 223.865 1.61278 1.94282 0
M  V30 2391 C 225.178 2.81314 -1.06222 0
M  V30 2392 C 226.726 2.95078 -1.04394 0
M  V30 2393 C 227.201 4.23252 -1.74991 0
M  V30 2394 N 228.692 4.3015 -1.71829 0
M  V30 2395 C 229.427 5.28127 -2.23315 0
M  V30 2396 N 228.923 6.32293 -2.83156 0
M  V30 2397 N 230.716 5.19882 -2.13726 0
M  V30 2398 H 222.867 1.3516 -1.63846 0
M  V30 2399 H 225.13 0.650174 -0.689912 0
M  V30 2400 H 224.836 2.80823 -2.11734 0
M  V30 2401 H 224.71 3.72012 -0.62344 0
M  V30 2402 H 227.097 2.951 0.0028244 0
M  V30 2403 H 227.178 2.05627 -1.52155 0
M  V30 2404 H 226.822 4.2399 -2.79633 0
M  V30 2405 H 226.752 5.11626 -1.24685 0
M  V30 2406 H 229.243 3.55499 -1.28175 0
M  V30 2407 H 229.556 7.03398 -3.20079 0
M  V30 2408 H 227.901 6.32873 -2.87223 0
M  V30 2409 H 231.092 4.37423 -1.66669 0
M  V30 2410 H 231.265 5.96077 -2.54158 0
M  V30 2411 N 224.671 0.411399 1.52136 0
M  V30 2412 C 225.948 -0.222308 1.94333 0
M  V30 2413 C 226.328 -1.6242 1.34844 0
M  V30 2414 O 225.676 -2.22384 0.525145 0
M  V30 2415 C 225.886 -0.226345 3.48265 0
M  V30 2416 C 227.234 -0.444592 4.22266 0
M  V30 2417 O 228.258 -0.305602 3.54887 0
M  V30 2418 O 227.117 -0.718749 5.41753 0
M  V30 2419 H 224.211 -0.143907 0.814383 0
M  V30 2420 H 226.757 0.467506 1.63133 0
M  V30 2421 H 225.529 0.75475 3.83952 0
M  V30 2422 H 225.152 -0.960163 3.85832 0
M  V30 2423 N 226.149 -1.5696 0.141893 0
M  V30 2424 C 227.398 -1.95135 -0.510427 0
M  V30 2425 C 227.711 -1.02896 -1.66348 0
M  V30 2426 O 228.917 -1.30629 -2.38009 0
M  V30 2427 C 227.373 -3.46876 -0.959427 0
M  V30 2428 C 226.981 -4.47691 0.166419 0
M  V30 2429 C 228.725 -3.93927 -1.58183 0
M  V30 2430 C 226.632 -5.90636 -0.300565 0
M  V30 2431 H 225.562 -0.728494 -0.194454 0
M  V30 2432 H 228.213 -1.8211 0.22542 0
M  V30 2433 H 226.595 -3.55215 -1.75038 0
M  V30 2434 H 227.769 -4.51043 0.94325 0
M  V30 2435 H 226.084 -4.10527 0.696905 0
M  V30 2436 H 228.681 -4.98158 -1.94275 0
M  V30 2437 H 229.024 -3.3519 -2.46888 0
M  V30 2438 H 229.557 -3.88484 -0.855863 0
M  V30 2439 H 226.296 -6.5318 0.550989 0
M  V30 2440 H 225.816 -5.90655 -1.04338 0
M  V30 2441 H 227.495 -6.42588 -0.754265 0
M  V30 2442 N 227.627 0.131896 -1.57047 0
M  V30 2443 C 228.574 1.16236 -1.99393 0
M  V30 2444 C 229.544 1.41863 -0.863943 0
M  V30 2445 O 230.729 1.53946 -1.12718 0
M  V30 2446 C 227.869 2.48708 -2.39245 0
M  V30 2447 C 226.982 2.30127 -3.65603 0
M  V30 2448 C 226.117 3.55738 -3.94492 0
M  V30 2449 C 225.156 3.32259 -5.14073 0
M  V30 2450 N 224.293 4.50039 -5.38896 0
M  V30 2451 H 229.133 0.794251 -2.87221 0
M  V30 2452 H 226.67 0.380707 -1.42088 0
M  V30 2453 H 228.628 3.25969 -2.60384 0
M  V30 2454 H 227.258 2.83437 -1.54478 0
M  V30 2455 H 226.31 1.43845 -3.52154 0
M  V30 2456 H 227.622 2.08746 -4.5302 0
M  V30 2457 H 226.776 4.41423 -4.1621 0
M  V30 2458 H 225.515 3.80138 -3.05526 0
M  V30 2459 H 224.52 2.44963 -4.92212 0
M  V30 2460 H 225.745 3.09242 -6.04604 0
M  V30 2461 H 223.691 4.74584 -4.52886 0
M  V30 2462 H 223.608 4.31716 -6.2061 0
M  V30 2463 H 224.876 5.36895 -5.65123 0
M  V30 2464 N 229.106 1.52395 0.401703 0
M  V30 2465 C 230.354 1.66488 1.14569 0
M  V30 2466 C 230.675 0.400897 1.90835 0
M  V30 2467 O 229.945 -0.584415 1.8698 0
M  V30 2468 H 228.525 0.613672 0.425929 0
M  V30 2469 H 231.187 1.89464 0.457093 0
M  V30 2470 H 230.283 2.50942 1.85566 0
M  V30 2471 N 230.584 -0.659388 1.43143 0
M  V30 2472 C 231.516 -1.7849 1.43784 0
M  V30 2473 C 232.529 -1.5932 0.334787 0
M  V30 2474 O 233.718 -1.68155 0.598842 0
M  V30 2475 C 230.818 -3.15828 1.22906 0
M  V30 2476 C 229.991 -3.61711 2.45934 0
M  V30 2477 C 229.05 -4.77831 2.20371 0
M  V30 2478 O 228.076 -4.87586 2.93681 0
M  V30 2479 N 229.278 -5.67611 1.21647 0
M  V30 2480 H 232.043 -1.7842 2.40803 0
M  V30 2481 H 229.604 -0.84302 1.3822 0
M  V30 2482 H 231.596 -3.91189 1.03697 0
M  V30 2483 H 230.166 -3.10707 0.343542 0
M  V30 2484 H 229.386 -2.76861 2.80609 0
M  V30 2485 H 230.674 -3.89112 3.27825 0
M  V30 2486 H 230.072 -5.62397 0.610449 0
M  V30 2487 H 228.629 -6.42719 1.08423 0
M  V30 2488 N 232.062 -1.29571 -0.897171 0
M  V30 2489 C 233.01 -1.14802 -2.02295 0
M  V30 2490 C 234.004 -0.0629637 -1.69283 0
M  V30 2491 O 235.21 -0.222945 -1.78614 0
M  V30 2492 H 231.585 -0.354692 -0.663097 0
M  V30 2493 H 233.556 -2.10108 -2.11889 0
M  V30 2494 C 232.305 -0.843966 -3.37302 0
M  V30 2495 H 231.628 -1.67093 -3.63208 0
M  V30 2496 H 233.068 -0.780672 -4.16751 0
M  V30 2497 C 231.527 0.452843 -3.33843 0
M  V30 2498 O 232.057 1.47813 -3.73516 0
M  V30 2499 N 230.263 0.459601 -2.86943 0
M  V30 2500 H 229.81 -0.375213 -2.54853 0
M  V30 2501 H 229.768 1.32726 -2.85011 0
M  V30 2502 N 233.54 1.10788 -1.12088 0
M  V30 2503 C 234.786 1.82942 -0.875226 0
M  V30 2504 C 235.119 1.84779 0.597538 0
M  V30 2505 O 234.394 1.30578 1.44152 0
M  V30 2506 C 234.677 3.29789 -1.44606 0
M  V30 2507 C 234.53 3.36307 -2.98693 0
M  V30 2508 C 235.849 4.26064 -1.10261 0
M  V30 2509 H 232.968 0.664195 -0.319397 0
M  V30 2510 H 235.61 1.29867 -1.38689 0
M  V30 2511 H 233.76 3.75118 -1.01089 0
M  V30 2512 H 235.432 2.99487 -3.50864 0
M  V30 2513 H 233.675 2.76318 -3.34411 0
M  V30 2514 H 234.346 4.39694 -3.33726 0
M  V30 2515 H 236.822 3.88951 -1.4784 0
M  V30 2516 H 235.698 5.27183 -1.52869 0
M  V30 2517 H 235.959 4.42098 -0.0142953 0
M  V30 2518 N 235.018 0.912232 1.28515 0
M  V30 2519 C 235.948 0.416403 2.29757 0
M  V30 2520 C 236.929 -0.515194 1.6211 0
M  V30 2521 O 238.114 -0.423253 1.89532 0
M  V30 2522 C 235.244 -0.34572 3.45575 0
M  V30 2523 C 234.198 0.496599 4.25109 0
M  V30 2524 C 233.524 -0.393771 5.33248 0
M  V30 2525 C 234.824 1.75307 4.92001 0
M  V30 2526 H 236.518 1.26249 2.7148 0
M  V30 2527 H 234.064 0.608515 1.30511 0
M  V30 2528 H 236.017 -0.703422 4.15488 0
M  V30 2529 H 234.741 -1.2257 3.02728 0
M  V30 2530 H 233.4 0.8368 3.56922 0
M  V30 2531 H 233.048 -1.27225 4.86644 0
M  V30 2532 H 232.748 0.166209 5.87365 0
M  V30 2533 H 234.272 -0.747389 6.06009 0
M  V30 2534 H 235.686 1.46437 5.54283 0
M  V30 2535 H 234.083 2.25534 5.56106 0
M  V30 2536 H 235.153 2.48176 4.16577 0
M  V30 2537 N 236.496 -1.42363 0.676048 0
M  V30 2538 C 237.426 -2.33497 0.0124832 0
M  V30 2539 C 238.407 -1.50748 -0.787981 0
M  V30 2540 O 239.592 -1.79346 -0.744884 0
M  V30 2541 C 236.722 -3.34377 -0.938582 0
M  V30 2542 C 235.676 -4.27289 -0.246622 0
M  V30 2543 C 235.002 -5.18386 -1.31071 0
M  V30 2544 C 236.302 -5.14916 0.875125 0
M  V30 2545 H 237.996 -2.89233 0.773593 0
M  V30 2546 H 235.542 -1.39073 0.37346 0
M  V30 2547 H 237.495 -3.97044 -1.41188 0
M  V30 2548 H 236.219 -2.76947 -1.73113 0
M  V30 2549 H 234.878 -3.66018 0.206456 0
M  V30 2550 H 234.526 -4.57282 -2.09528 0
M  V30 2551 H 234.226 -5.81378 -0.852839 0
M  V30 2552 H 235.75 -5.83929 -1.78492 0
M  V30 2553 H 237.164 -5.71262 0.482983 0
M  V30 2554 H 235.561 -5.86747 1.25887 0
M  V30 2555 H 236.631 -4.53242 1.72335 0
M  V30 2556 N 237.974 -0.419461 -1.51915 0
M  V30 2557 C 239.202 0.152136 -2.0634 0
M  V30 2558 C 239.617 1.37988 -1.28859 0
M  V30 2559 O 238.974 1.79243 -0.343232 0
M  V30 2560 C 239.025 0.492266 -3.58133 0
M  V30 2561 O 238.746 -0.686736 -4.32684 0
M  V30 2562 C 240.247 1.11648 -4.2901 0
M  V30 2563 H 237.467 0.0158325 -0.670813 0
M  V30 2564 H 240.011 -0.593394 -1.95702 0
M  V30 2565 H 238.166 1.18769 -3.68745 0
M  V30 2566 H 238.58 -0.400341 -5.2297 0
M  V30 2567 H 240.054 1.3046 -5.36362 0
M  V30 2568 H 240.531 2.09251 -3.86148 0
M  V30 2569 H 241.137 0.460958 -4.22795 0
M  V30 2570 N 239.452 1.56882 -0.150215 0
M  V30 2571 C 240.362 2.20494 0.801222 0
M  V30 2572 C 241.378 1.19019 1.26927 0
M  V30 2573 O 242.554 1.51607 1.32579 0
M  V30 2574 C 239.619 2.81659 2.02161 0
M  V30 2575 C 238.68 3.9827 1.60249 0
M  V30 2576 C 237.913 4.56508 2.7647 0
M  V30 2577 O 238.136 4.13627 3.92771 0
M  V30 2578 O 237.07 5.46719 2.51757 0
M  V30 2579 H 240.896 3.02315 0.289717 0
M  V30 2580 H 238.481 1.49202 0.0769684 0
M  V30 2581 H 240.363 3.20522 2.73576 0
M  V30 2582 H 239.038 2.02849 2.52258 0
M  V30 2583 H 237.945 3.64117 0.858477 0
M  V30 2584 H 239.278 4.78609 1.14864 0
M  V30 2585 N 240.93 -0.123565 1.57115 0
M  V30 2586 C 241.878 -1.17082 2.00984 0
M  V30 2587 C 242.872 -1.43136 0.906009 0
M  V30 2588 O 244.078 -1.43152 1.09121 0
M  V30 2589 H 240.453 -0.394653 0.64012 0
M  V30 2590 H 242.424 -0.774292 2.88179 0
M  V30 2591 C 241.173 -2.49057 2.42623 0
M  V30 2592 H 240.496 -2.29846 3.27125 0
M  V30 2593 H 241.936 -3.20906 2.7712 0
M  V30 2594 C 240.395 -3.11305 1.28805 0
M  V30 2595 O 240.925 -3.97171 0.60153 0
M  V30 2596 N 239.131 -2.71111 1.04628 0
M  V30 2597 H 238.678 -2.01382 1.60634 0
M  V30 2598 H 238.636 -3.1309 0.286685 0
M  V30 2599 N 242.408 -1.52605 -0.393616 0
M  V30 2600 C 243.371 -1.76415 -1.46323 0
M  V30 2601 C 244.371 -0.634126 -1.47768 0
M  V30 2602 O 245.561 -0.902142 -1.4902 0
M  V30 2603 C 242.693 -1.8607 -2.85641 0
M  V30 2604 H 243.886 -2.71916 -1.26498 0
M  V30 2605 H 241.439 -1.43257 -0.625073 0
M  V30 2606 H 242.174 -0.925378 -3.10817 0
M  V30 2607 H 241.959 -2.68235 -2.85993 0
M  V30 2608 H 243.449 -2.06179 -3.63153 0
M  V30 2609 N 243.887 0.651787 -1.4349 0
M  V30 2610 C 244.797 1.79368 -1.5121 0
M  V30 2611 C 245.813 1.69361 -0.399093 0
M  V30 2612 O 246.989 1.90505 -0.653431 0
M  V30 2613 C 244.054 3.15653 -1.43401 0
M  V30 2614 C 243.115 3.37446 -2.65384 0
M  V30 2615 C 242.348 4.67229 -2.57939 0
M  V30 2616 O 242.571 5.46676 -1.62792 0
M  V30 2617 O 241.505 4.90773 -3.48462 0
M  V30 2618 H 245.331 1.7581 -2.47638 0
M  V30 2619 H 242.916 0.810447 -1.25507 0
M  V30 2620 H 244.798 3.96935 -1.41494 0
M  V30 2621 H 243.473 3.19798 -0.501085 0
M  V30 2622 H 242.38 2.55923 -2.72863 0
M  V30 2623 H 243.713 3.38148 -3.57654 0
M  V30 2624 N 245.365 1.30045 0.890287 0
M  V30 2625 C 246.611 1.18737 1.64406 0
M  V30 2626 C 246.944 -0.258525 1.92472 0
M  V30 2627 O 246.219 -1.18562 1.54186 0
M  V30 2628 C 246.502 2.01087 2.98724 0
M  V30 2629 C 246.355 3.53867 2.77665 0
M  V30 2630 C 247.674 1.84457 3.9958 0
M  V30 2631 H 244.793 0.432698 0.596608 0
M  V30 2632 H 247.435 1.5962 1.0306 0
M  V30 2633 H 245.585 1.66349 3.51084 0
M  V30 2634 H 247.257 3.98637 2.32133 0
M  V30 2635 H 245.5 3.78318 2.12269 0
M  V30 2636 H 246.171 4.06772 3.7315 0
M  V30 2637 H 248.647 2.14817 3.56361 0
M  V30 2638 H 247.523 2.44411 4.91482 0
M  V30 2639 H 247.784 0.802276 4.3476 0
M  V30 2640 N 246.843 -1.10192 1.12674 0
M  V30 2641 C 247.79 -2.16606 0.796906 0
M  V30 2642 C 248.76 -1.64394 -0.237476 0
M  V30 2643 O 249.945 -1.90474 -0.111484 0
M  V30 2644 C 247.085 -3.44116 0.26043 0
M  V30 2645 C 246.198 -4.10268 1.35293 0
M  V30 2646 C 245.333 -5.25507 0.775621 0
M  V30 2647 C 244.372 -5.83567 1.84706 0
M  V30 2648 N 243.509 -6.90179 1.28829 0
M  V30 2649 H 248.349 -2.44163 1.70846 0
M  V30 2650 H 245.886 -1.19846 0.85295 0
M  V30 2651 H 247.844 -4.17143 -0.0686814 0
M  V30 2652 H 246.474 -3.16901 -0.614274 0
M  V30 2653 H 245.526 -3.35184 1.79877 0
M  V30 2654 H 246.838 -4.4946 2.16303 0
M  V30 2655 H 245.992 -6.05398 0.397327 0
M  V30 2656 H 244.731 -4.87656 -0.0656581 0
M  V30 2657 H 243.736 -5.02344 2.23452 0
M  V30 2658 H 244.961 -6.23482 2.69161 0
M  V30 2659 H 242.907 -6.54322 0.468881 0
M  V30 2660 H 242.824 -7.28097 2.03497 0
M  V30 2661 H 244.092 -7.73844 0.937311 0
M  V30 2662 N 248.321 -0.919034 -1.28029 0
M  V30 2663 C 249.251 -0.428581 -2.29533 0
M  V30 2664 C 250.232 0.50659 -1.62381 0
M  V30 2665 O 251.417 0.413195 -1.89753 0
M  V30 2666 C 248.547 0.327388 -3.45753 0
M  V30 2667 C 247.501 -0.519137 -4.2484 0
M  V30 2668 C 246.827 0.365486 -5.33449 0
M  V30 2669 C 248.127 -1.77914 -4.91064 0
M  V30 2670 H 249.821 -1.27687 -2.70807 0
M  V30 2671 H 247.367 -0.615428 -1.30186 0
M  V30 2672 H 249.32 0.681378 -4.15855 0
M  V30 2673 H 248.044 1.20963 -3.03374 0
M  V30 2674 H 246.703 -0.855717 -3.56473 0
M  V30 2675 H 246.351 1.24642 -4.87312 0
M  V30 2676 H 246.051 -0.197356 -5.87268 0
M  V30 2677 H 247.575 0.715241 -6.06396 0
M  V30 2678 H 248.989 -1.49374 -5.53498 0
M  V30 2679 H 247.386 -2.2848 -5.54903 0
M  V30 2680 H 248.456 -2.50382 -4.15255 0
M  V30 2681 N 249.799 1.42003 -0.683588 0
M  V30 2682 C 251.045 2.01712 -0.209825 0
M  V30 2683 C 251.378 1.53968 1.18353 0
M  V30 2684 O 250.653 0.745661 1.79639 0
M  V30 2685 C 250.936 3.59202 -0.254197 0
M  V30 2686 C 250.789 4.17102 -1.68363 0
M  V30 2687 C 252.108 4.38344 0.392709 0
M  V30 2688 H 249.227 0.732891 -0.0777189 0
M  V30 2689 H 251.869 1.68909 -0.87004 0
M  V30 2690 H 250.019 3.87278 0.307954 0
M  V30 2691 H 251.691 3.99946 -2.29871 0
M  V30 2692 H 249.934 3.72597 -2.22157 0
M  V30 2693 H 250.605 5.26249 -1.6663 0
M  V30 2694 H 253.081 4.16011 -0.0859162 0
M  V30 2695 H 251.957 5.47901 0.331063 0
M  V30 2696 H 252.218 4.16887 1.47164 0
M  V30 2697 N 251.277 0.427512 1.51691 0
M  V30 2698 C 252.554 -0.201684 1.94557 0
M  V30 2699 C 252.934 -1.60981 1.36559 0
M  V30 2700 O 252.282 -2.21814 0.548702 0
M  V30 2701 C 252.492 -0.189394 3.48486 0
M  V30 2702 C 253.84 -0.39978 4.22714 0
M  V30 2703 O 254.864 -0.267945 3.55191 0
M  V30 2704 O 253.723 -0.661249 5.42485 0
M  V30 2705 H 250.817 -0.135261 0.815864 0
M  V30 2706 H 253.363 0.484782 1.62628 0
M  V30 2707 H 252.135 0.795431 3.8313 0
M  V30 2708 H 251.758 -0.919187 3.86829 0
M  V30 2709 N 252.755 -1.56801 0.158532 0
M  V30 2710 C 254.002 -1.9649 -0.489679 0
M  V30 2711 C 254.33 -1.04394 -1.6411 0
M  V30 2712 O 253.585 -0.0754401 -1.95555 0
M  V30 2713 C 253.884 -3.4235 -1.02623 0
M  V30 2714 C 253.55 -4.50899 0.00794526 0
M  V30 2715 C 252.212 -4.80312 0.292207 0
M  V30 2716 C 254.564 -5.16333 0.710584 0
M  V30 2717 C 251.892 -5.72461 1.28472 0
M  V30 2718 C 254.244 -6.09553 1.69199 0
M  V30 2719 C 252.908 -6.37339 1.98383 0
M  V30 2720 H 252.178 -0.719009 -0.179186 0
M  V30 2721 H 254.825 -1.8989 0.247798 0
M  V30 2722 H 253.13 -3.45838 -1.84128 0
M  V30 2723 H 254.827 -3.70393 -1.53656 0
M  V30 2724 H 251.417 -4.28015 -0.22379 0
M  V30 2725 H 255.601 -4.93732 0.504174 0
M  V30 2726 H 250.857 -5.92278 1.51714 0
M  V30 2727 H 255.031 -6.59327 2.24189 0
M  V30 2728 H 252.658 -7.08546 2.7544 0
M  V30 2729 N 254.233 0.115231 -1.57178 0
M  V30 2730 C 255.481 0.820727 -1.84685 0
M  V30 2731 C 255.802 1.80237 -0.744279 0
M  V30 2732 O 255.072 1.94529 0.231375 0
M  V30 2733 H 253.652 0.306084 -0.681411 0
M  V30 2734 H 256.314 0.101656 -1.94635 0
M  V30 2735 H 255.41 1.36366 -2.80733 0
M  V30 2736 N 255.711 1.52812 0.385517 0
M  V30 2737 C 256.957 1.68275 1.13188 0
M  V30 2738 C 257.29 0.423179 1.89533 0
M  V30 2739 O 256.565 -0.579113 1.85679 0
M  V30 2740 C 256.848 2.92001 2.1073 0
M  V30 2741 C 256.701 4.28067 1.38125 0
M  V30 2742 C 258.02 3.11283 3.11113 0
M  V30 2743 H 255.139 0.612352 0.410115 0
M  V30 2744 H 257.781 1.85415 0.414869 0
M  V30 2745 H 255.931 2.77519 2.71874 0
M  V30 2746 H 257.603 4.54324 0.799187 0
M  V30 2747 H 255.846 4.28388 0.683092 0
M  V30 2748 H 256.517 5.10733 2.09417 0
M  V30 2749 H 258.993 3.2482 2.6006 0
M  V30 2750 H 257.869 3.99325 3.76605 0
M  V30 2751 H 258.13 2.25656 3.80173 0
M  V30 2752 N 257.189 -0.644168 1.43834 0
M  V30 2753 C 258.414 -1.43642 1.49605 0
M  V30 2754 C 258.839 -1.8773 0.117913 0
M  V30 2755 O 258.197 -1.57938 -0.890239 0
M  V30 2756 C 258.245 -2.6416 2.45463 0
M  V30 2757 O 257.349 -3.63538 1.94714 0
M  V30 2758 H 256.69 -0.430329 0.50568 0
M  V30 2759 H 259.22 -0.787448 1.8884 0
M  V30 2760 H 259.23 -3.11864 2.63068 0
M  V30 2761 H 257.905 -2.31414 3.45572 0
M  V30 2762 H 256.482 -3.2273 1.86814 0
M  V30 2763 N 258.668 -1.30515 -0.883378 0
M  V30 2764 C 259.631 -1.1701 -1.97082 0
M  V30 2765 C 260.631 -0.10089 -1.60483 0
M  V30 2766 O 261.821 -0.349127 -1.70666 0
M  V30 2767 C 258.953 -0.793045 -3.31547 0
M  V30 2768 H 260.146 -2.13622 -2.10489 0
M  V30 2769 H 257.699 -1.13935 -1.06998 0
M  V30 2770 H 258.434 0.172499 -3.23841 0
M  V30 2771 H 258.219 -1.56576 -3.5948 0
M  V30 2772 H 259.709 -0.722073 -4.1131 0
M  V30 2773 N 260.146 1.09593 -1.13257 0
M  V30 2774 C 261.078 2.16015 -0.766167 0
M  V30 2775 C 262.091 1.61423 0.211303 0
M  V30 2776 O 263.28 1.78498 -0.00863946 0
M  V30 2777 C 260.38 3.38706 -0.114662 0
M  V30 2778 C 259.553 4.22717 -1.12379 0
M  V30 2779 C 258.612 5.23835 -0.498301 0
M  V30 2780 O 257.638 5.573 -1.15781 0
M  V30 2781 N 258.84 5.75886 0.730417 0
M  V30 2782 H 261.605 2.48055 -1.68193 0
M  V30 2783 H 259.166 1.25292 -1.02535 0
M  V30 2784 H 261.158 4.03464 0.315991 0
M  V30 2785 H 259.728 3.04569 0.704011 0
M  V30 2786 H 258.948 3.54122 -1.73179 0
M  V30 2787 H 260.236 4.75673 -1.80589 0
M  V30 2788 H 259.634 5.50911 1.28504 0
M  V30 2789 H 258.191 6.42387 1.10376 0
M  V30 2790 N 261.624 0.925811 1.2754 0
M  V30 2791 C 262.554 0.440748 2.29303 0
M  V30 2792 C 263.535 -0.497971 1.62648 0
M  V30 2793 O 264.72 -0.403126 1.8997 0
M  V30 2794 C 261.85 -0.309048 3.45922 0
M  V30 2795 C 260.804 0.54166 4.24559 0
M  V30 2796 C 260.13 -0.337191 5.33636 0
M  V30 2797 C 261.43 1.80516 4.90114 0
M  V30 2798 H 263.124 1.29121 2.70126 0
M  V30 2799 H 260.67 0.622323 1.29858 0
M  V30 2800 H 262.623 -0.659315 4.1621 0
M  V30 2801 H 261.347 -1.19352 3.04011 0
M  V30 2802 H 260.006 0.874609 3.56014 0
M  V30 2803 H 259.654 -1.22056 4.87966 0
M  V30 2804 H 259.354 0.228497 5.87156 0
M  V30 2805 H 260.878 -0.683072 6.06767 0
M  V30 2806 H 262.292 1.52307 5.52698 0
M  V30 2807 H 260.689 2.3142 5.53683 0
M  V30 2808 H 261.759 2.52581 4.13921 0
M  V30 2809 N 263.102 -1.41638 0.69111 0
M  V30 2810 C 264.379 -1.95036 0.148421 0
M  V30 2811 C 264.759 -1.63072 -1.34055 0
M  V30 2812 O 264.107 -0.93538 -2.08478 0
M  V30 2813 C 264.317 -3.46279 0.434951 0
M  V30 2814 C 265.665 -4.23069 0.360275 0
M  V30 2815 O 266.689 -3.54277 0.369613 0
M  V30 2816 O 265.548 -5.45583 0.316534 0
M  V30 2817 H 262.642 -0.826908 0.0123654 0
M  V30 2818 H 265.188 -1.5138 0.766963 0
M  V30 2819 H 263.96 -3.6281 1.46576 0
M  V30 2820 H 263.583 -3.97019 -0.214787 0
M  V30 2821 N 264.58 -0.43555 -1.51462 0
M  V30 2822 C 265.996 -0.0877501 -1.59359 0
M  V30 2823 C 266.196 1.4027 -1.4466 0
M  V30 2824 O 265.252 2.17243 -1.28693 0
M  V30 2825 C 266.565 -0.606264 -2.94525 0
M  V30 2826 C 268.113 -0.566548 -3.0783 0
M  V30 2827 C 268.588 -1.06201 -4.45517 0
M  V30 2828 N 270.079 -1.01992 -4.51832 0
M  V30 2829 C 270.814 -1.37417 -5.5669 0
M  V30 2830 N 270.31 -1.80119 -6.68976 0
M  V30 2831 N 272.103 -1.29245 -5.47039 0
M  V30 2832 H 264.254 -1.40533 -1.59261 0
M  V30 2833 H 266.517 -0.578992 -0.750648 0
M  V30 2834 H 266.223 -1.64901 -3.10645 0
M  V30 2835 H 266.097 -0.0302097 -3.77188 0
M  V30 2836 H 268.484 0.467208 -2.91378 0
M  V30 2837 H 268.565 -1.17898 -2.2701 0
M  V30 2838 H 268.209 -2.09422 -4.62715 0
M  V30 2839 H 268.139 -0.426127 -5.24873 0
M  V30 2840 H 270.63 -0.706308 -3.71241 0
M  V30 2841 H 270.943 -2.05392 -7.45006 0
M  V30 2842 H 269.288 -1.84044 -6.70189 0
M  V30 2843 H 272.479 -0.957522 -4.58202 0
M  V30 2844 H 272.652 -1.57182 -6.28648 0
M  V30 2845 N 266.058 1.56714 -0.166846 0
M  V30 2846 C 267.286 2.0112 0.485644 0
M  V30 2847 C 267.701 1.04705 1.57106 0
M  V30 2848 O 267.058 0.0471923 1.82439 0
M  V30 2849 C 267.109 3.45361 1.06808 0
M  V30 2850 O 266.83 4.38092 0.0259995 0
M  V30 2851 C 268.331 4.05145 1.79924 0
M  V30 2852 H 265.551 0.65931 0.124704 0
M  V30 2853 H 268.095 2.02746 -0.267262 0
M  V30 2854 H 266.25 3.44524 1.7715 0
M  V30 2855 H 266.664 5.22519 0.455398 0
M  V30 2856 H 268.138 5.08009 2.15942 0
M  V30 2857 H 268.615 3.46982 2.69258 0
M  V30 2858 H 269.221 4.09672 1.14234 0
M  V30 2859 N 267.536 -0.106894 1.57237 0
M  V30 2860 C 268.782 -0.81373 1.85759 0
M  V30 2861 C 269.115 -1.78952 0.754315 0
M  V30 2862 O 268.39 -1.93029 -0.23879 0
M  V30 2863 C 268.673 -1.55293 3.24894 0
M  V30 2864 C 268.526 -0.595929 4.45835 0
M  V30 2865 C 269.845 -2.5063 3.61763 0
M  V30 2866 H 266.964 -0.294369 0.67566 0
M  V30 2867 H 269.606 -0.0776472 1.89841 0
M  V30 2868 H 267.756 -2.1804 3.21544 0
M  V30 2869 H 269.428 0.0236262 4.61294 0
M  V30 2870 H 267.671 0.0916191 4.33703 0
M  V30 2871 H 268.342 -1.15004 5.39887 0
M  V30 2872 H 270.818 -1.97982 3.65981 0
M  V30 2873 H 269.694 -2.99376 4.60071 0
M  V30 2874 H 269.955 -3.3385 2.89821 0
M  V30 2875 N 269.014 -1.53014 -0.377408 0
M  V30 2876 C 270.262 -1.6829 -1.11906 0
M  V30 2877 C 270.583 -0.431206 -1.90173 0
M  V30 2878 O 269.853 0.554595 -1.87886 0
M  V30 2879 H 268.433 -0.620371 -0.416112 0
M  V30 2880 H 271.095 -1.90167 -0.426893 0
M  V30 2881 H 270.191 -2.53862 -1.8155 0
M  V30 2882 N 270.492 0.636531 -1.44174 0
M  V30 2883 C 271.908 0.954104 -1.27941 0
M  V30 2884 C 272.108 2.0039 -0.211248 0
M  V30 2885 O 271.164 2.49236 0.404695 0
M  V30 2886 C 272.477 1.4225 -2.64925 0
M  V30 2887 C 274.025 1.53827 -2.72592 0
M  V30 2888 C 274.5 2.04053 -4.10032 0
M  V30 2889 N 275.991 2.11331 -4.12182 0
M  V30 2890 C 276.726 2.51352 -5.15374 0
M  V30 2891 N 276.222 2.90549 -6.2893 0
M  V30 2892 N 278.015 2.51438 -5.02728 0
M  V30 2893 H 270.166 -0.0578386 -2.12321 0
M  V30 2894 H 272.429 0.0367406 -0.947288 0
M  V30 2895 H 272.135 0.725466 -3.44136 0
M  V30 2896 H 272.009 2.39451 -2.9145 0
M  V30 2897 H 274.396 2.22628 -1.93702 0
M  V30 2898 H 274.477 0.550154 -2.49814 0
M  V30 2899 H 274.121 1.35848 -4.89395 0
M  V30 2900 H 274.051 3.03726 -4.30184 0
M  V30 2901 H 276.542 1.83745 -3.30222 0
M  V30 2902 H 276.855 3.19884 -7.03487 0
M  V30 2903 H 275.2 2.88313 -6.32377 0
M  V30 2904 H 278.391 2.20203 -4.13072 0
M  V30 2905 H 278.564 2.82304 -5.83274 0
M  V30 2906 N 271.97 1.30982 0.876444 0
M  V30 2907 C 273.386 1.09498 1.16113 0
M  V30 2908 C 273.586 -0.13875 2.01022 0
M  V30 2909 O 272.642 -0.829935 2.38471 0
M  V30 2910 C 273.955 2.36308 1.85954 0
M  V30 2911 C 275.503 2.41856 1.98683 0
M  V30 2912 C 275.978 3.6853 2.71937 0
M  V30 2913 N 277.469 3.69387 2.79477 0
M  V30 2914 C 278.204 4.64096 3.36753 0
M  V30 2915 N 277.7 5.69155 3.95012 0
M  V30 2916 N 279.493 4.51626 3.3465 0
M  V30 2917 H 271.644 2.10118 0.310494 0
M  V30 2918 H 273.907 0.926634 0.200131 0
M  V30 2919 H 273.613 3.26388 1.31011 0
M  V30 2920 H 273.487 2.4561 2.86278 0
M  V30 2921 H 275.874 1.52249 2.52793 0
M  V30 2922 H 275.955 2.36523 0.9742 0
M  V30 2923 H 275.599 4.58499 2.18496 0
M  V30 2924 H 275.529 3.71127 3.73593 0
M  V30 2925 H 278.02 2.93438 2.38123 0
M  V30 2926 H 278.333 6.3751 4.36808 0
M  V30 2927 H 276.678 5.72937 3.93406 0
M  V30 2928 H 279.869 3.68728 2.8837 0
M  V30 2929 H 280.042 5.25614 3.7899 0
M  V30 2930 N 273.449 -1.08991 1.13837 0
M  V30 2931 C 274.397 -2.17841 0.815347 0
M  V30 2932 C 275.391 -1.68164 -0.204233 0
M  V30 2933 O 276.597 -1.79897 -0.0609304 0
M  V30 2934 H 272.972 -0.710654 0.245915 0
M  V30 2935 H 274.943 -2.42315 1.74143 0
M  V30 2936 C 273.692 -3.46381 0.302614 0
M  V30 2937 H 273.015 -3.84979 1.0785 0
M  V30 2938 H 274.455 -4.23844 0.115074 0
M  V30 2939 C 272.914 -3.22556 -0.972591 0
M  V30 2940 O 273.444 -3.45599 -2.04754 0
M  V30 2941 N 271.65 -2.76134 -0.905455 0
M  V30 2942 H 271.197 -2.57582 -0.0305421 0
M  V30 2943 H 271.155 -2.60571 -1.75926 0
M  V30 2944 N 274.927 -0.932562 -1.27047 0
M  V30 2945 C 276.155 -0.592031 -1.98249 0
M  V30 2946 C 276.57 0.831062 -1.69525 0
M  V30 2947 O 275.927 1.55299 -0.958561 0
M  V30 2948 C 275.978 -0.814279 -3.5221 0
M  V30 2949 O 275.699 -2.18139 -3.7993 0
M  V30 2950 C 277.2 -0.483121 -4.4066 0
M  V30 2951 H 274.42 -0.223896 -0.632544 0
M  V30 2952 H 276.964 -1.25091 -1.61779 0
M  V30 2953 H 275.119 -0.20213 -3.86872 0
M  V30 2954 H 275.533 -2.235 -4.74498 0
M  V30 2955 H 277.007 -0.689298 -5.47679 0
M  V30 2956 H 277.484 0.581546 -4.35333 0
M  V30 2957 H 278.09 -1.07362 -4.11526 0
M  V30 2958 N 276.405 1.4127 -0.698611 0
M  V30 2959 C 277.652 2.0118 -0.230865 0
M  V30 2960 C 277.98 1.55338 1.17049 0
M  V30 2961 O 277.235 0.756775 1.80475 0
M  V30 2962 C 277.534 3.56592 -0.240192 0
M  V30 2963 C 277.2 4.21955 -1.58948 0
M  V30 2964 C 275.862 4.39524 -1.95887 0
M  V30 2965 C 278.214 4.58576 -2.47704 0
M  V30 2966 C 275.542 4.90992 -3.2116 0
M  V30 2967 C 277.894 5.11435 -3.72313 0
M  V30 2968 C 276.558 5.27215 -4.0939 0
M  V30 2969 H 275.828 0.736169 -0.0844796 0
M  V30 2970 H 278.475 1.69124 -0.8983 0
M  V30 2971 H 276.78 3.88456 0.510797 0
M  V30 2972 H 278.477 4.00758 0.139296 0
M  V30 2973 H 275.067 4.08657 -1.29219 0
M  V30 2974 H 279.251 4.44654 -2.20445 0
M  V30 2975 H 274.507 5.01393 -3.49878 0
M  V30 2976 H 278.681 5.38752 -4.4127 0
M  V30 2977 H 276.308 5.66859 -5.06533 0
M  V30 2978 N 277.883 0.443576 1.51229 0
M  V30 2979 C 279.132 -0.122332 2.01329 0
M  V30 2980 C 279.445 -1.43237 1.33201 0
M  V30 2981 O 280.651 -2.0816 1.74304 0
M  V30 2982 C 279.107 -0.268551 3.58897 0
M  V30 2983 C 278.715 1.03142 4.35965 0
M  V30 2984 C 280.459 -0.787894 4.17124 0
M  V30 2985 C 278.366 0.850504 5.85252 0
M  V30 2986 H 277.296 -0.0494929 0.752374 0
M  V30 2987 H 279.947 0.574289 1.74282 0
M  V30 2988 H 278.329 -1.02832 3.82415 0
M  V30 2989 H 279.503 1.80001 4.24189 0
M  V30 2990 H 277.818 1.47977 3.89219 0
M  V30 2991 H 280.415 -0.939841 5.26375 0
M  V30 2992 H 280.758 -1.77201 3.76703 0
M  V30 2993 H 281.291 -0.0862669 3.97706 0
M  V30 2994 H 278.03 1.80718 6.30096 0
M  V30 2995 H 277.55 0.121825 5.99676 0
M  V30 2996 H 279.229 0.506163 6.45017 0
M  V30 2997 N 279.361 -1.56624 0.175154 0
M  V30 2998 C 280.609 -1.96609 -0.467885 0
M  V30 2999 C 280.93 -1.06238 -1.63519 0
M  V30 3000 O 280.2 -0.129523 -1.95471 0
M  V30 3001 H 278.78 -0.726008 -0.175845 0
M  V30 3002 H 281.442 -1.93195 0.257234 0
M  V30 3003 H 280.538 -3.00989 -0.825342 0
M  V30 3004 N 280.839 0.0985539 -1.57292 0
M  V30 3005 C 282.067 0.816318 -1.90115 0
M  V30 3006 C 282.482 1.72451 -0.768509 0
M  V30 3007 O 281.839 1.80643 0.259687 0
M  V30 3008 C 281.89 1.63259 -3.22535 0
M  V30 3009 O 281.611 0.760934 -4.31441 0
M  V30 3010 C 283.112 2.45372 -3.69199 0
M  V30 3011 H 280.332 0.233595 -0.629027 0
M  V30 3012 H 282.876 0.0768229 -2.04356 0
M  V30 3013 H 281.031 2.32463 -3.09903 0
M  V30 3014 H 281.445 1.32595 -5.07463 0
M  V30 3015 H 282.919 2.98144 -4.64558 0
M  V30 3016 H 283.396 3.23677 -2.96867 0
M  V30 3017 H 284.002 1.81373 -3.84687 0
M  V30 3018 N 282.317 1.53212 0.369288 0
M  V30 3019 C 283.728 1.60943 0.946276 0
M  V30 3020 C 284.079 0.47452 1.90375 0
M  V30 3021 O 283.204 -0.399597 2.12679 0
M  V30 3022 C 283.799 2.91715 1.72302 0
M  V30 3023 C 282.358 3.01792 2.24941 0
M  V30 3024 C 281.505 2.56211 1.06072 0
M  V30 3025 H 284.456 1.58007 0.148198 0
M  V30 3026 H 284.477 2.79309 2.58393 0
M  V30 3027 H 283.989 3.74295 1.0259 0
M  V30 3028 H 282.09 2.23791 2.97906 0
M  V30 3029 H 282.203 4.06803 2.53077 0
M  V30 3030 H 280.567 2.10998 1.4266 0
M  V30 3031 H 281.35 3.41206 0.378639 0
M  V30 3032 N 283.795 -0.628877 1.44509 0
M  V30 3033 C 285.025 -1.41349 1.50678 0
M  V30 3034 C 285.433 -1.88745 0.131075 0
M  V30 3035 O 284.776 -1.61592 -0.87371 0
M  V30 3036 C 284.838 -2.66608 2.41165 0
M  V30 3037 C 284.502 -2.40993 3.88293 0
M  V30 3038 C 285.499 -2.0268 4.78766 0
M  V30 3039 C 283.184 -2.54563 4.33016 0
M  V30 3040 C 285.178 -1.78269 6.11963 0
M  V30 3041 C 282.865 -2.29766 5.6626 0
M  V30 3042 C 283.863 -1.91678 6.55552 0
M  V30 3043 O 283.551 -1.67158 7.86329 0
M  V30 3044 H 283.283 -0.439851 0.51333 0
M  V30 3045 H 285.837 -0.776084 1.90174 0
M  V30 3046 H 284.067 -3.32994 1.96601 0
M  V30 3047 H 285.756 -3.28615 2.38259 0
M  V30 3048 H 286.522 -1.91751 4.45485 0
M  V30 3049 H 282.401 -2.83179 3.63773 0
M  V30 3050 H 285.945 -1.48465 6.81619 0
M  V30 3051 H 281.842 -2.40306 5.99102 0
M  V30 3052 H 282.61 -1.81386 7.98149 0
M  V30 3053 N 285.273 -1.31445 -0.869486 0
M  V30 3054 C 286.519 -1.22347 -1.62489 0
M  V30 3055 C 286.874 0.216204 -1.91181 0
M  V30 3056 O 286.167 1.14977 -1.53268 0
M  V30 3057 C 286.361 -2.00145 -2.96102 0
M  V30 3058 C 286.19 -3.51531 -2.80456 0
M  V30 3059 C 284.96 -4.20882 -2.79618 0
M  V30 3060 C 287.158 -4.46471 -2.5528 0
M  V30 3061 N 285.14 -5.58421 -2.55027 0
M  V30 3062 C 286.511 -5.71682 -2.39957 0
M  V30 3063 C 288.566 -4.35892 -2.40629 0
M  V30 3064 C 287.269 -6.87511 -2.11472 0
M  V30 3065 C 289.295 -5.51505 -2.13532 0
M  V30 3066 C 288.657 -6.75707 -1.98998 0
M  V30 3067 H 284.756 -0.502815 -0.598917 0
M  V30 3068 H 287.34 -1.65639 -1.02332 0
M  V30 3069 H 285.511 -1.59221 -3.54264 0
M  V30 3070 H 287.243 -1.83063 -3.60929 0
M  V30 3071 H 283.998 -3.72857 -2.92018 0
M  V30 3072 H 284.422 -6.30841 -2.45701 0
M  V30 3073 H 289.064 -3.40533 -2.50593 0
M  V30 3074 H 286.782 -7.82897 -2.00245 0
M  V30 3075 H 290.368 -5.45238 -2.02995 0
M  V30 3076 H 289.248 -7.63655 -1.78326 0
M  V30 3077 N 286.751 1.08385 -1.14413 0
M  V30 3078 C 287.684 2.14642 -0.774871 0
M  V30 3079 C 288.662 1.60761 0.243876 0
M  V30 3080 O 289.846 1.88031 0.132883 0
M  V30 3081 C 286.973 3.38366 -0.150491 0
M  V30 3082 C 286.019 4.10997 -1.13945 0
M  V30 3083 S 286.852 4.63797 -2.67679 0
M  V30 3084 C 288.008 5.90808 -2.06631 0
M  V30 3085 H 288.241 2.45633 -1.67487 0
M  V30 3086 H 285.774 1.20498 -0.96538 0
M  V30 3087 H 287.732 4.09996 0.203334 0
M  V30 3088 H 286.393 3.05572 0.72694 0
M  V30 3089 H 285.586 4.99783 -0.65059 0
M  V30 3090 H 285.188 3.4528 -1.43727 0
M  V30 3091 H 287.48 6.62411 -1.4219 0
M  V30 3092 H 288.423 6.4439 -2.93542 0
M  V30 3093 H 288.831 5.4383 -1.51357 0
M  V30 3094 N 288.23 0.939286 1.26551 0
M  V30 3095 C 289.193 0.451987 2.24699 0
M  V30 3096 C 290.193 -0.435869 1.5478 0
M  V30 3097 O 291.383 -0.235314 1.72603 0
M  V30 3098 C 288.515 -0.348801 3.39111 0
M  V30 3099 H 289.708 1.3193 2.69322 0
M  V30 3100 H 287.261 0.721072 1.38673 0
M  V30 3101 H 287.996 -1.23444 2.99887 0
M  V30 3102 H 287.781 0.287945 3.91041 0
M  V30 3103 H 289.271 -0.679726 4.12031 0
M  V30 3104 N 289.708 -1.40897 0.706093 0
M  V30 3105 C 291.119 -1.84023 0.315052 0
M  V30 3106 C 291.47 -1.5906 -1.14866 0
M  V30 3107 O 290.595 -1.06651 -1.88293 0
M  V30 3108 C 291.19 -3.34055 0.565038 0
M  V30 3109 C 289.749 -3.7571 0.227806 0
M  V30 3110 C 288.896 -2.64204 0.842122 0
M  V30 3111 H 291.847 -1.303 0.905963 0
M  V30 3112 H 291.868 -3.80107 -0.172843 0
M  V30 3113 H 291.38 -3.52192 1.63042 0
M  V30 3114 H 289.481 -3.63172 -0.832895 0
M  V30 3115 H 289.594 -4.74103 0.690174 0
M  V30 3116 H 287.958 -2.53255 0.270893 0
M  V30 3117 H 288.741 -2.85155 1.91158 0
M  V30 3118 N 291.186 -0.45159 -1.50991 0
M  V30 3119 C 292.096 0.358431 -2.31846 0
M  V30 3120 C 293.112 1.01438 -1.41373 0
M  V30 3121 O 294.288 1.00663 -1.74439 0
M  V30 3122 C 291.353 1.43704 -3.15515 0
M  V30 3123 C 290.414 0.799742 -4.21785 0
M  V30 3124 C 289.647 1.82696 -5.01456 0
M  V30 3125 O 289.87 3.05105 -4.81941 0
M  V30 3126 O 288.804 1.40958 -5.85162 0
M  V30 3127 H 292.63 -0.302032 -3.02194 0
M  V30 3128 H 290.215 -0.213825 -1.47862 0
M  V30 3129 H 292.097 2.06227 -3.67489 0
M  V30 3130 H 290.772 2.08133 -2.47916 0
M  V30 3131 H 289.679 0.136084 -3.73852 0
M  V30 3132 H 291.012 0.198718 -4.91799 0
M  V30 3133 N 292.664 1.56529 -0.183458 0
M  V30 3134 C 293.91 1.97537 0.459036 0
M  V30 3135 C 294.243 1.06989 1.62071 0
M  V30 3136 O 293.518 0.11948 1.94133 0
M  V30 3137 C 293.801 3.47874 0.930368 0
M  V30 3138 C 293.654 4.492 -0.232317 0
M  V30 3139 C 294.973 4.01612 1.79989 0
M  V30 3140 H 292.092 0.718204 0.165383 0
M  V30 3141 H 294.734 1.88042 -0.272038 0
M  V30 3142 H 292.884 3.56095 1.55333 0
M  V30 3143 H 294.556 4.53027 -0.86972 0
M  V30 3144 H 292.799 4.24657 -0.885928 0
M  V30 3145 H 293.47 5.51823 0.139796 0
M  V30 3146 H 295.946 3.96097 1.27461 0
M  V30 3147 H 294.822 5.07195 2.09867 0
M  V30 3148 H 295.083 3.46163 2.74998 0
M  V30 3149 N 294.142 -0.090211 1.57342 0
M  V30 3150 C 295.391 -0.791531 1.8552 0
M  V30 3151 C 295.704 -1.79659 0.773441 0
M  V30 3152 O 296.91 -2.54616 0.942497 0
M  V30 3153 C 295.366 -1.45856 3.2902 0
M  V30 3154 C 294.974 -0.493017 4.45279 0
M  V30 3155 C 296.718 -2.14332 3.66418 0
M  V30 3156 C 294.625 -1.16491 5.79814 0
M  V30 3157 H 293.555 -0.299356 0.692027 0
M  V30 3158 H 296.206 -0.0445343 1.83446 0
M  V30 3159 H 294.588 -2.25318 3.2565 0
M  V30 3160 H 295.762 0.270464 4.60006 0
M  V30 3161 H 294.077 0.0863061 4.16311 0
M  V30 3162 H 296.674 -2.65344 4.64216 0
M  V30 3163 H 297.017 -2.93447 2.95287 0
M  V30 3164 H 297.55 -1.41724 3.71698 0
M  V30 3165 H 294.289 -0.41447 6.54188 0
M  V30 3166 H 293.809 -1.8997 5.68921 0
M  V30 3167 H 295.488 -1.69001 6.24538 0
M  V30 3168 N 295.62 -1.53406 -0.361157 0
M  V30 3169 C 296.583 -1.79479 -1.42548 0
M  V30 3170 C 297.583 -0.665327 -1.4639 0
M  V30 3171 O 298.773 -0.933549 -1.47073 0
M  V30 3172 C 295.905 -1.92087 -2.8163 0
M  V30 3173 H 297.098 -2.74538 -1.20701 0
M  V30 3174 H 294.651 -1.4455 -0.594546 0
M  V30 3175 H 295.386 -0.991099 -3.08784 0
M  V30 3176 H 295.171 -2.74241 -2.80239 0
M  V30 3177 H 296.661 -2.13836 -3.58697 0
M  V30 3178 N 297.098 0.621204 -1.44841 0
M  V30 3179 C 298.338 1.39201 -1.49674 0
M  V30 3180 C 298.702 1.91561 -0.129764 0
M  V30 3181 O 299.903 2.68748 -0.0527814 0
M  V30 3182 C 298.174 2.519 -2.53537 0
M  V30 3183 S 299.733 3.39916 -2.77494 0
M  V30 3184 H 296.551 0.474758 -0.529269 0
M  V30 3185 H 299.153 0.718171 -1.81831 0
M  V30 3186 H 297.857 2.11761 -3.51547 0
M  V30 3187 H 297.388 3.241 -2.22986 0
M  V30 3188 H 299.403 4.49646 -2.0984 0
M  V30 3189 N 298.576 1.31904 0.862503 0
M  V30 3190 C 299.853 1.12644 1.59908 0
M  V30 3191 C 300.233 -0.316104 2.0872 0
M  V30 3192 O 299.581 -1.31145 1.87118 0
M  V30 3193 C 299.791 2.1472 2.7513 0
M  V30 3194 C 301.139 2.47637 3.44907 0
M  V30 3195 O 302.163 2.13205 2.85346 0
M  V30 3196 O 301.022 3.06632 4.52371 0
M  V30 3197 H 298.116 0.43416 0.703871 0
M  V30 3198 H 300.662 1.43408 0.907314 0
M  V30 3199 H 299.434 3.1172 2.3653 0
M  V30 3200 H 299.057 1.84905 3.51989 0
M  V30 3201 N 300.054 -1.07777 1.14986 0
M  V30 3202 C 300.964 -2.18404 0.856546 0
M  V30 3203 C 301.98 -1.73211 -0.165485 0
M  V30 3204 O 303.156 -2.01399 0.00755219 0
M  V30 3205 C 300.221 -3.44977 0.34526 0
M  V30 3206 C 299.282 -4.0476 1.43065 0
M  V30 3207 C 298.515 -5.25291 0.943663 0
M  V30 3208 O 298.738 -5.70004 -0.212426 0
M  V30 3209 O 297.672 -5.76638 1.72547 0
M  V30 3210 H 301.498 -2.45978 1.78125 0
M  V30 3211 H 299.083 -1.17033 0.928631 0
M  V30 3212 H 300.965 -4.21348 0.0663671 0
M  V30 3213 H 299.64 -3.18965 -0.551631 0
M  V30 3214 H 298.547 -3.29949 1.76309 0
M  V30 3215 H 299.88 -4.35035 2.30229 0
M  V30 3216 N 301.532 -0.945985 -1.26051 0
M  V30 3217 C 302.48 -0.450259 -2.282 0
M  V30 3218 C 303.474 0.47497 -1.62605 0
M  V30 3219 O 304.68 0.352653 -1.76512 0
M  V30 3220 H 301.055 -0.127081 -0.741184 0
M  V30 3221 H 303.026 -1.32422 -2.67408 0
M  V30 3222 C 301.775 0.26467 -3.46691 0
M  V30 3223 H 301.098 -0.438123 -3.97392 0
M  V30 3224 H 302.538 0.575678 -4.20074 0
M  V30 3225 C 300.997 1.48416 -3.02447 0
M  V30 3226 O 301.527 2.58227 -3.07704 0
M  V30 3227 N 299.733 1.34243 -2.57735 0
M  V30 3228 H 299.28 0.448994 -2.53657 0
M  V30 3229 H 299.238 2.15957 -2.28495 0
M  V30 3230 N 303.011 1.40521 -0.713556 0
M  V30 3231 C 304.422 1.83853 -0.324807 0
M  V30 3232 C 304.773 1.59667 1.14021 0
M  V30 3233 O 303.898 1.07649 1.87725 0
M  V30 3234 C 304.493 3.33751 -0.582746 0
M  V30 3235 C 303.052 3.75584 -0.247727 0
M  V30 3236 C 302.199 2.63753 -0.856121 0
M  V30 3237 H 305.15 1.29817 -0.91286 0
M  V30 3238 H 305.171 3.80194 0.152682 0
M  V30 3239 H 304.683 3.51322 -1.64908 0
M  V30 3240 H 302.784 3.63608 0.813624 0
M  V30 3241 H 302.897 4.7373 -0.715307 0
M  V30 3242 H 301.261 2.53108 -0.28432 0
M  V30 3243 H 302.044 2.84137 -1.92668 0
M  V30 3244 N 304.489 0.459591 1.5075 0
M  V30 3245 C 305.766 -0.160371 1.94941 0
M  V30 3246 C 306.146 -1.58048 1.39943 0
M  V30 3247 O 305.494 -2.206 0.595629 0
M  V30 3248 C 305.704 -0.115432 3.48809 0
M  V30 3249 C 307.052 -0.310026 4.23467 0
M  V30 3250 O 308.076 -0.192543 3.55679 0
M  V30 3251 O 306.935 -0.546031 5.43765 0
M  V30 3252 H 304.029 -0.117925 0.818549 0
M  V30 3253 H 306.575 0.519169 1.61563 0
M  V30 3254 H 305.347 0.87652 3.81357 0
M  V30 3255 H 304.97 -0.836928 3.88692 0
M  V30 3256 N 305.967 -1.56429 0.191757 0
M  V30 3257 C 306.93 -2.17707 -0.716688 0
M  V30 3258 C 307.93 -1.13061 -1.14341 0
M  V30 3259 O 309.12 -1.38464 -1.05704 0
M  V30 3260 C 306.252 -2.77644 -1.97804 0
M  V30 3261 H 307.445 -2.99342 -0.1829 0
M  V30 3262 H 304.998 -1.56193 -0.0578566 0
M  V30 3263 H 305.733 -1.99799 -2.55443 0
M  V30 3264 H 305.518 -3.54246 -1.68083 0
M  V30 3265 H 307.008 -3.24708 -2.62592 0
M  V30 3266 N 307.445 0.0818655 -1.57387 0
M  V30 3267 C 308.673 0.796108 -1.9097 0
M  V30 3268 C 309.088 1.71626 -0.786757 0
M  V30 3269 O 308.445 1.80908 0.240513 0
M  V30 3270 C 308.496 1.59829 -3.24248 0
M  V30 3271 O 308.217 0.715131 -4.32224 0
M  V30 3272 C 309.718 2.41442 -3.7178 0
M  V30 3273 H 306.938 0.22691 -0.631469 0
M  V30 3274 H 309.482 0.0551439 -2.04426 0
M  V30 3275 H 307.637 2.29163 -3.12351 0
M  V30 3276 H 308.051 1.27205 -5.08841 0
M  V30 3277 H 309.525 2.932 -4.67694 0
M  V30 3278 H 310.002 3.2051 -3.00283 0
M  V30 3279 H 310.608 1.77283 -3.86589 0
M  V30 3280 N 308.923 1.53595 0.353017 0
M  V30 3281 C 310.153 1.74058 1.11299 0
M  V30 3282 C 310.561 0.475205 1.83135 0
M  V30 3283 O 309.904 -0.562344 1.74881 0
M  V30 3284 C 309.966 2.85994 2.17825 0
M  V30 3285 C 309.63 4.25923 1.65647 0
M  V30 3286 C 310.627 5.07829 1.11383 0
M  V30 3287 C 308.312 4.72377 1.7078 0
M  V30 3288 C 310.306 6.34285 0.629439 0
M  V30 3289 C 307.993 5.98808 1.21953 0
M  V30 3290 C 308.991 6.79594 0.681265 0
M  V30 3291 O 308.679 8.03651 0.200248 0
M  V30 3292 H 308.411 0.585327 0.338183 0
M  V30 3293 H 310.965 2.01186 0.413927 0
M  V30 3294 H 309.195 2.54368 2.91262 0
M  V30 3295 H 310.884 2.94515 2.79313 0
M  V30 3296 H 311.65 4.73107 1.06746 0
M  V30 3297 H 307.529 4.0956 2.11617 0
M  V30 3298 H 311.073 6.97288 0.208636 0
M  V30 3299 H 306.97 6.33026 1.26287 0
M  V30 3300 H 307.738 8.1788 0.318416 0
M  V30 3301 N 310.401 -0.613514 1.45168 0
M  V30 3302 C 311.678 -1.37263 1.39349 0
M  V30 3303 C 312.058 -2.11012 0.0610848 0
M  V30 3304 O 311.406 -2.07502 -0.956825 0
M  V30 3305 C 311.616 -2.3244 2.60332 0
M  V30 3306 C 312.964 -2.9523 3.05163 0
M  V30 3307 O 313.988 -2.42762 2.60663 0
M  V30 3308 O 312.847 -3.90454 3.82372 0
M  V30 3309 H 309.941 -0.615188 0.552696 0
M  V30 3310 H 312.487 -0.637097 1.57287 0
M  V30 3311 H 311.259 -1.77164 3.48896 0
M  V30 3312 H 310.882 -3.13383 2.44698 0
M  V30 3313 N 311.879 -1.3236 -0.855495 0
M  V30 3314 C 313.109 -1.25688 -1.6397 0
M  V30 3315 C 313.517 0.177592 -1.88365 0
M  V30 3316 O 312.86 1.12485 -1.45234 0
M  V30 3317 C 312.922 -1.94602 -3.02275 0
M  V30 3318 C 312.586 -3.43937 -3.00926 0
M  V30 3319 C 313.583 -4.39435 -2.77835 0
M  V30 3320 C 311.268 -3.85858 -3.21588 0
M  V30 3321 C 313.262 -5.74829 -2.75409 0
M  V30 3322 C 310.949 -5.21361 -3.18789 0
M  V30 3323 C 311.947 -6.15658 -2.95727 0
M  V30 3324 O 311.635 -7.48681 -2.928 0
M  V30 3325 H 311.367 -0.434972 -0.51747 0
M  V30 3326 H 313.921 -1.75023 -1.075 0
M  V30 3327 H 312.151 -1.39836 -3.60531 0
M  V30 3328 H 313.84 -1.81651 -3.62985 0
M  V30 3329 H 314.606 -4.08374 -2.6164 0
M  V30 3330 H 310.485 -3.12883 -3.38564 0
M  V30 3331 H 314.029 -6.48404 -2.57328 0
M  V30 3332 H 309.926 -5.52052 -3.34528 0
M  V30 3333 H 310.694 -7.5803 -3.0876 0
M  V30 3334 N 313.357 1.07166 -1.15556 0
M  V30 3335 C 314.773 1.31899 -0.898603 0
M  V30 3336 C 314.973 1.96333 0.453383 0
M  V30 3337 O 314.029 2.22438 1.19489 0
M  V30 3338 C 315.342 2.20826 -2.04099 0
M  V30 3339 C 316.89 2.34269 -2.07574 0
M  V30 3340 C 317.365 3.26546 -3.21141 0
M  V30 3341 N 318.856 3.34127 -3.20801 0
M  V30 3342 C 319.591 4.05595 -4.05315 0
M  V30 3343 N 319.087 4.79661 -4.99897 0
M  V30 3344 N 320.88 4.01555 -3.93332 0
M  V30 3345 H 313.031 0.637302 -2.02613 0
M  V30 3346 H 315.294 0.343468 -0.883591 0
M  V30 3347 H 315 1.80744 -3.01703 0
M  V30 3348 H 314.874 3.21364 -1.97496 0
M  V30 3349 H 317.261 2.73603 -1.10568 0
M  V30 3350 H 317.342 1.33429 -2.18244 0
M  V30 3351 H 316.986 2.87931 -4.184 0
M  V30 3352 H 316.916 4.27345 -3.07708 0
M  V30 3353 H 319.407 2.81336 -2.52306 0
M  V30 3354 H 319.72 5.31694 -5.60822 0
M  V30 3355 H 318.065 4.78671 -5.03884 0
M  V30 3356 H 321.256 3.42806 -3.18751 0
M  V30 3357 H 321.429 4.56987 -4.5942 0
M  V30 3358 N 314.835 0.952656 1.25548 0
M  V30 3359 C 316.06 0.623025 1.97821 0
M  V30 3360 C 316.485 -0.7976 1.70352 0
M  V30 3361 O 315.843 -1.53905 0.958283 0
M  V30 3362 C 315.891 0.885532 3.49558 0
M  V30 3363 O 314.995 -0.0366641 4.12384 0
M  V30 3364 H 314.336 0.237082 0.620232 0
M  V30 3365 H 316.866 1.27871 1.59719 0
M  V30 3366 H 316.876 0.811009 3.99858 0
M  V30 3367 H 315.551 1.92094 3.6888 0
M  V30 3368 H 314.128 0.0898954 3.72792 0
M  V30 3369 N 316.313 -1.40141 0.720998 0
M  V30 3370 C 317.59 -1.94677 0.189757 0
M  V30 3371 C 317.97 -1.65879 -1.30566 0
M  V30 3372 O 317.318 -0.979391 -2.06447 0
M  V30 3373 C 317.528 -3.45279 0.508304 0
M  V30 3374 C 318.876 -4.22209 0.449934 0
M  V30 3375 O 319.9 -3.53413 0.444677 0
M  V30 3376 O 318.759 -5.44788 0.432189 0
M  V30 3377 H 315.853 -0.826459 0.0299026 0
M  V30 3378 H 318.399 -1.49719 0.7989 0
M  V30 3379 H 317.171 -3.59619 1.54239 0
M  V30 3380 H 316.794 -3.97386 -0.130525 0
M  V30 3381 N 317.792 -0.46758 -1.50504 0
M  V30 3382 C 318.722 0.318381 -2.31319 0
M  V30 3383 C 319.703 0.993564 -1.38066 0
M  V30 3384 O 320.888 0.991411 -1.66987 0
M  V30 3385 C 318.018 1.40275 -3.17711 0
M  V30 3386 C 316.972 0.849373 -4.19487 0
M  V30 3387 C 316.298 2.03177 -4.94594 0
M  V30 3388 C 317.598 -0.136942 -5.2212 0
M  V30 3389 H 319.292 -0.356106 -2.97275 0
M  V30 3390 H 316.838 -0.172703 -1.42961 0
M  V30 3391 H 318.791 1.96004 -3.73042 0
M  V30 3392 H 317.515 2.10596 -2.49634 0
M  V30 3393 H 316.174 0.314076 -3.65252 0
M  V30 3394 H 315.822 2.72187 -4.22993 0
M  V30 3395 H 315.522 1.66774 -5.63436 0
M  V30 3396 H 317.046 2.59403 -5.52759 0
M  V30 3397 H 318.46 0.331056 -5.72343 0
M  V30 3398 H 316.857 -0.41507 -5.98663 0
M  V30 3399 H 317.927 -1.06398 -4.73083 0
M  V30 3400 N 319.27 1.56325 -0.20005 0
M  V30 3401 C 320.516 1.98772 0.431408 0
M  V30 3402 C 320.871 1.0849 1.58895 0
M  V30 3403 O 320.164 0.130331 1.91156 0
M  V30 3404 C 320.358 3.4495 0.935103 0
M  V30 3405 C 320.187 4.49371 -0.172096 0
M  V30 3406 C 318.957 5.0134 -0.631377 0
M  V30 3407 C 321.155 5.04822 -0.982806 0
M  V30 3408 N 319.137 5.89433 -1.71588 0
M  V30 3409 C 320.508 5.89632 -1.91661 0
M  V30 3410 C 322.563 4.87242 -1.02467 0
M  V30 3411 C 321.266 6.58741 -2.88881 0
M  V30 3412 C 323.292 5.57094 -1.98494 0
M  V30 3413 C 322.654 6.41655 -2.90617 0
M  V30 3414 H 318.753 0.771922 0.125144 0
M  V30 3415 H 321.337 1.92266 -0.306883 0
M  V30 3416 H 319.508 3.51946 1.64282 0
M  V30 3417 H 321.24 3.74354 1.53758 0
M  V30 3418 H 317.995 4.73071 -0.223827 0
M  V30 3419 H 318.419 6.38182 -2.25948 0
M  V30 3420 H 323.061 4.21538 -0.326408 0
M  V30 3421 H 320.779 7.23641 -3.5968 0
M  V30 3422 H 324.365 5.45466 -2.0238 0
M  V30 3423 H 323.245 6.94755 -3.63711 0
M  V30 3424 N 320.748 -0.0735177 1.57428 0
M  V30 3425 C 321.973 -0.789787 1.91774 0
M  V30 3426 C 322.398 -1.70413 0.796306 0
M  V30 3427 O 321.756 -1.79555 -0.250961 0
M  V30 3428 C 321.804 -1.5609 3.25067 0
M  V30 3429 O 320.908 -2.67144 3.14178 0
M  V30 3430 H 320.249 -0.215582 0.628029 0
M  V30 3431 H 322.779 -0.0422781 2.04556 0
M  V30 3432 H 322.789 -1.94052 3.58898 0
M  V30 3433 H 321.464 -0.890015 4.06265 0
M  V30 3434 H 320.041 -2.32052 2.91901 0
M  V30 3435 N 322.226 -1.5378 -0.344866 0
M  V30 3436 C 323.466 -1.72677 -1.09371 0
M  V30 3437 C 323.83 -0.479084 -1.85927 0
M  V30 3438 O 325.031 -0.54505 -2.63216 0
M  V30 3439 C 323.302 -2.95457 -2.01097 0
M  V30 3440 S 324.861 -3.35158 -2.83222 0
M  V30 3441 H 321.679 -0.607402 -0.369573 0
M  V30 3442 H 324.281 -1.91922 -0.372307 0
M  V30 3443 H 322.985 -3.84437 -1.43655 0
M  V30 3444 H 322.516 -2.78673 -2.77678 0
M  V30 3445 H 324.531 -2.88789 -4.03504 0
M  V30 3446 N 323.704 0.605807 -1.45491 0
M  V30 3447 C 324.952 1.36207 -1.49305 0
M  V30 3448 C 325.273 1.94519 -0.136863 0
M  V30 3449 O 324.543 1.77261 0.833983 0
M  V30 3450 H 323.123 0.50565 -0.549843 0
M  V30 3451 H 325.785 0.711239 -1.81459 0
M  V30 3452 H 324.881 2.18058 -2.23287 0
M  V30 3453 N 325.182 1.32811 0.848464 0
M  V30 3454 C 326.431 1.23075 1.59798 0
M  V30 3455 C 326.744 -0.204419 1.94529 0
M  V30 3456 O 327.95 -0.423701 2.68173 0
M  V30 3457 C 326.406 2.15594 2.88179 0
M  V30 3458 C 326.014 3.64228 2.60849 0
M  V30 3459 C 327.758 2.14709 3.66197 0
M  V30 3460 C 325.665 4.48689 3.85269 0
M  V30 3461 H 324.595 0.457091 0.599653 0
M  V30 3462 H 327.246 1.57813 0.936342 0
M  V30 3463 H 325.628 1.73778 3.55833 0
M  V30 3464 H 326.802 4.14424 2.01467 0
M  V30 3465 H 325.117 3.67306 1.96151 0
M  V30 3466 H 327.714 2.75046 4.58534 0
M  V30 3467 H 328.057 1.13966 4.00397 0
M  V30 3468 H 328.59 2.54837 3.05455 0
M  V30 3469 H 325.329 5.5027 3.56207 0
M  V30 3470 H 324.849 4.03241 4.44024 0
M  V30 3471 H 326.528 4.62006 4.52946 0
M  V30 3472 N 326.66 -1.06551 1.16123 0
M  V30 3473 C 327.888 -1.83005 0.965237 0
M  V30 3474 C 328.303 -1.82423 -0.486542 0
M  V30 3475 O 327.66 -1.24152 -1.33763 0
M  V30 3476 C 327.711 -3.29733 1.48183 0
M  V30 3477 O 327.432 -3.30416 2.87674 0
M  V30 3478 C 328.933 -4.22926 1.32848 0
M  V30 3479 H 326.153 -0.577118 0.342309 0
M  V30 3480 H 328.697 -1.3445 1.54089 0
M  V30 3481 H 326.852 -3.75609 0.948517 0
M  V30 3482 H 327.266 -4.22149 3.11272 0
M  V30 3483 H 328.74 -5.23916 1.73827 0
M  V30 3484 H 329.217 -4.38346 0.273692 0
M  V30 3485 H 329.823 -3.82894 1.85127 0
M  V30 3486 N 328.138 -0.959301 -1.25041 0
M  V30 3487 C 329.101 -0.487677 -2.23952 0
M  V30 3488 C 330.101 0.41119 -1.55454 0
M  V30 3489 O 331.291 0.207825 -1.72956 0
M  V30 3490 C 328.423 0.294807 -3.39623 0
M  V30 3491 H 329.616 -1.36198 -2.67189 0
M  V30 3492 H 327.169 -0.743042 -1.37508 0
M  V30 3493 H 327.904 1.18658 -3.01813 0
M  V30 3494 H 327.689 -0.35012 -3.90534 0
M  V30 3495 H 329.179 0.614089 -4.1306 0
M  V30 3496 N 329.616 1.39756 -0.72842 0
M  V30 3497 C 330.865 1.99879 -0.270407 0
M  V30 3498 C 331.178 1.58449 1.14688 0
M  V30 3499 O 332.384 2.11362 1.70407 0
M  V30 3500 C 330.84 3.57292 -0.43252 0
M  V30 3501 C 330.448 4.07688 -1.85727 0
M  V30 3502 C 332.192 4.24485 -0.0359507 0
M  V30 3503 C 330.099 5.5765 -1.96928 0
M  V30 3504 H 329.029 0.747689 -0.0973472 0
M  V30 3505 H 331.68 1.59837 -0.901355 0
M  V30 3506 H 330.062 3.95097 0.267219 0
M  V30 3507 H 331.236 3.81231 -2.58843 0
M  V30 3508 H 329.551 3.53135 -2.20646 0
M  V30 3509 H 332.148 5.34609 -0.0987484 0
M  V30 3510 H 332.491 4.03915 1.00787 0
M  V30 3511 H 333.024 3.9183 -0.686604 0
M  V30 3512 H 329.763 5.8309 -2.99476 0
M  V30 3513 H 329.283 5.8593 -1.28241 0
M  V30 3514 H 330.962 6.22957 -1.74737 0
M  V30 3515 N 331.094 0.475555 1.50254 0
M  V30 3516 C 332.004 -0.321501 2.32387 0
M  V30 3517 C 333.02 -0.991755 1.42969 0
M  V30 3518 O 334.196 -0.978747 1.76018 0
M  V30 3519 C 331.261 -1.38667 3.17762 0
M  V30 3520 C 330.322 -0.732538 4.23004 0
M  V30 3521 C 329.555 -1.74695 5.04299 0
M  V30 3522 O 329.778 -2.97399 4.86734 0
M  V30 3523 O 328.712 -1.31631 5.8733 0
M  V30 3524 H 332.538 0.350071 3.01676 0
M  V30 3525 H 330.123 0.237321 1.47503 0
M  V30 3526 H 332.005 -2.00354 3.70724 0
M  V30 3527 H 330.68 -2.04163 2.51196 0
M  V30 3528 H 329.587 -0.0765902 3.74022 0
M  V30 3529 H 330.92 -0.120452 4.92053 0
M  V30 3530 N 332.573 -1.56217 0.208337 0
M  V30 3531 C 333.506 -2.15633 -0.746842 0
M  V30 3532 C 334.484 -1.09685 -1.20034 0
M  V30 3533 O 335.668 -1.3787 -1.28547 0
M  V30 3534 C 332.795 -2.72594 -2.01023 0
M  V30 3535 C 331.841 -3.91251 -1.69779 0
M  V30 3536 S 332.674 -5.28962 -0.834209 0
M  V30 3537 C 333.83 -5.89353 -2.10745 0
M  V30 3538 H 334.063 -2.96315 -0.241789 0
M  V30 3539 H 331.596 -1.54398 -0.00682183 0
M  V30 3540 H 333.554 -3.06053 -2.73572 0
M  V30 3541 H 332.215 -1.91929 -2.48641 0
M  V30 3542 H 331.408 -4.29562 -2.63614 0
M  V30 3543 H 331.01 -3.58869 -1.05303 0
M  V30 3544 H 333.302 -6.04522 -3.05875 0
M  V30 3545 H 334.245 -6.85661 -1.76845 0
M  V30 3546 H 334.653 -5.1807 -2.24196 0
M  V30 3547 N 334.051 0.0651679 -1.57465 0
M  V30 3548 C 335.014 1.06117 -2.03155 0
M  V30 3549 C 336.014 1.31204 -0.929632 0
M  V30 3550 O 337.204 1.26813 -1.19432 0
M  V30 3551 C 334.336 2.4032 -2.41783 0
M  V30 3552 H 335.529 0.667231 -2.92383 0
M  V30 3553 H 333.082 0.311075 -1.53173 0
M  V30 3554 H 333.817 2.84532 -1.55601 0
M  V30 3555 H 333.602 2.23451 -3.22199 0
M  V30 3556 H 335.092 3.11898 -2.77685 0
M  V30 3557 N 335.529 1.53961 0.336706 0
M  V30 3558 C 336.439 1.85432 1.43708 0
M  V30 3559 C 337.455 0.745053 1.57242 0
M  V30 3560 O 338.631 1.03804 1.72588 0
M  V30 3561 C 335.696 2.06349 2.78605 0
M  V30 3562 C 334.757 3.30191 2.74358 0
M  V30 3563 C 333.99 3.50101 4.02822 0
M  V30 3564 O 334.213 2.7371 5.00439 0
M  V30 3565 O 333.147 4.43547 4.06878 0
M  V30 3566 H 336.973 2.78975 1.20028 0
M  V30 3567 H 334.558 1.39701 0.52952 0
M  V30 3568 H 336.44 2.21513 3.58483 0
M  V30 3569 H 335.115 1.15995 3.02203 0
M  V30 3570 H 334.022 3.20425 1.93078 0
M  V30 3571 H 335.355 4.2056 2.55715 0
M  V30 3572 N 337.007 -0.598083 1.45811 0
M  V30 3573 C 338.255 -1.35413 1.50026 0
M  V30 3574 C 338.576 -1.94444 0.147177 0
M  V30 3575 O 337.846 -1.77701 -0.824571 0
M  V30 3576 H 336.426 -0.502727 0.552517 0
M  V30 3577 H 339.088 -0.701606 1.81834 0
M  V30 3578 H 338.184 -2.16871 2.2444 0
M  V30 3579 N 338.485 -1.33259 -0.841409 0
M  V30 3580 C 339.448 -1.23221 -1.9326 0
M  V30 3581 C 340.448 -0.151895 -1.60081 0
M  V30 3582 O 341.638 -0.403246 -1.69468 0
M  V30 3583 C 338.77 -0.898123 -3.28856 0
M  V30 3584 H 339.963 -2.2021 -2.03587 0
M  V30 3585 H 337.516 -1.17281 -1.03319 0
M  V30 3586 H 338.251 0.0693841 -3.24226 0
M  V30 3587 H 338.036 -1.67934 -3.54317 0
M  V30 3588 H 339.526 -0.852563 -4.08805 0
M  V30 3589 N 339.963 1.05934 -1.16686 0
M  V30 3590 C 341.374 1.60263 -0.957745 0
M  V30 3591 C 341.725 1.89789 0.49745 0
M  V30 3592 O 340.85 1.67401 1.37135 0
M  V30 3593 C 341.445 2.91172 -1.73218 0
M  V30 3594 C 340.004 3.42188 -1.56794 0
M  V30 3595 C 339.151 2.16028 -1.73859 0
M  V30 3596 H 342.102 0.888392 -1.31504 0
M  V30 3597 H 342.123 3.60744 -1.21014 0
M  V30 3598 H 341.635 2.6965 -2.79124 0
M  V30 3599 H 339.736 3.68762 -0.533437 0
M  V30 3600 H 339.849 4.17273 -2.35414 0
M  V30 3601 H 338.213 2.26426 -1.16633 0
M  V30 3602 H 338.996 1.96985 -2.81161 0
M  V30 3603 N 341.441 0.965919 1.2453 0
M  V30 3604 C 342.852 0.665929 1.7442 0
M  V30 3605 C 343.203 -0.818407 1.78316 0
M  V30 3606 O 342.328 -1.64037 1.41141 0
M  V30 3607 C 342.923 1.20211 3.16757 0
M  V30 3608 C 341.482 0.952059 3.6416 0
M  V30 3609 C 340.629 1.33848 2.42858 0
M  V30 3610 H 343.58 1.14144 1.10258 0
M  V30 3611 H 343.601 0.567544 3.76244 0
M  V30 3612 H 343.113 2.28244 3.13889 0
M  V30 3613 H 341.214 -0.112821 3.72429 0
M  V30 3614 H 341.327 1.59645 4.51719 0
M  V30 3615 H 339.691 0.756864 2.43195 0
M  V30 3616 H 340.474 2.42827 2.42673 0
M  V30 3617 N 342.919 -1.39368 0.735821 0
M  V30 3618 C 343.849 -2.33234 0.111506 0
M  V30 3619 C 344.83 -1.53954 -0.723334 0
M  V30 3620 O 346.015 -1.82344 -0.668147 0
M  V30 3621 C 343.145 -3.38057 -0.795917 0
M  V30 3622 C 342.099 -4.2795 -0.065172 0
M  V30 3623 C 341.425 -5.23479 -1.08967 0
M  V30 3624 C 342.725 -5.10741 1.09273 0
M  V30 3625 H 344.419 -2.85692 0.895571 0
M  V30 3626 H 341.965 -1.37364 0.432109 0
M  V30 3627 H 343.918 -4.02675 -1.24221 0
M  V30 3628 H 342.642 -2.8404 -1.61211 0
M  V30 3629 H 341.301 -3.64813 0.361511 0
M  V30 3630 H 340.949 -4.65758 -1.89944 0
M  V30 3631 H 340.649 -5.84472 -0.605489 0
M  V30 3632 H 342.173 -5.90974 -1.53565 0
M  V30 3633 H 343.587 -5.68699 0.724841 0
M  V30 3634 H 341.984 -5.8088 1.50659 0
M  V30 3635 H 343.054 -4.45525 1.91404 0
M  V30 3636 N 344.397 -0.483516 -1.5 0
M  V30 3637 C 345.637 0.0657469 -2.04294 0
M  V30 3638 C 346.001 1.35869 -1.35659 0
M  V30 3639 O 347.202 1.99111 -1.80578 0
M  V30 3640 C 345.473 0.232758 -3.56641 0
M  V30 3641 S 347.032 0.738788 -4.32536 0
M  V30 3642 H 343.85 0.0100755 -0.710929 0
M  V30 3643 H 346.452 -0.653494 -1.84254 0
M  V30 3644 H 345.156 -0.713847 -4.04144 0
M  V30 3645 H 344.687 0.977751 -3.81056 0
M  V30 3646 H 346.702 2.01048 -4.53645 0
M  V30 3647 N 345.875 1.56104 -0.216619 0
M  V30 3648 C 347.152 1.89988 0.465165 0
M  V30 3649 C 347.532 1.13326 1.78102 0
M  V30 3650 O 346.88 0.241033 2.27225 0
M  V30 3651 C 347.09 3.42646 0.662939 0
M  V30 3652 C 348.438 4.13311 0.972602 0
M  V30 3653 O 349.462 3.48217 0.749901 0
M  V30 3654 O 348.321 5.28396 1.39499 0
M  V30 3655 H 345.415 0.78979 0.245276 0
M  V30 3656 H 347.961 1.67721 -0.258436 0
M  V30 3657 H 346.733 3.90399 -0.26543 0
M  V30 3658 H 346.356 3.70677 1.43821 0
M  V30 3659 N 347.353 -0.0568162 1.57498 0
M  V30 3660 C 348.286 -1.09817 2.00039 0
M  V30 3661 C 349.264 -1.3674 0.879819 0
M  V30 3662 O 350.448 -1.49863 1.14338 0
M  V30 3663 C 347.575 -2.43924 2.34986 0
M  V30 3664 C 346.621 -2.33039 3.57204 0
M  V30 3665 S 347.454 -1.7102 5.07457 0
M  V30 3666 C 348.61 -3.06674 5.45621 0
M  V30 3667 H 348.843 -0.735701 2.88053 0
M  V30 3668 H 346.376 -0.265871 1.52094 0
M  V30 3669 H 348.334 -3.2106 2.55795 0
M  V30 3670 H 346.995 -2.77327 1.47474 0
M  V30 3671 H 346.188 -3.31973 3.79223 0
M  V30 3672 H 345.79 -1.64043 3.36104 0
M  V30 3673 H 348.082 -4.03 5.44608 0
M  V30 3674 H 349.025 -2.8942 6.46252 0
M  V30 3675 H 349.433 -3.07969 4.73091 0
M  V30 3676 N 348.832 -1.54138 -0.328536 0
M  V30 3677 C 349.782 -1.79557 -1.4051 0
M  V30 3678 C 350.766 -0.651373 -1.47126 0
M  V30 3679 O 351.958 -0.911226 -1.51742 0
M  V30 3680 C 349.087 -2.02196 -2.77438 0
M  V30 3681 C 348.173 -3.22724 -2.75155 0
M  V30 3682 N 348.564 -4.43881 -2.42494 0
M  V30 3683 C 346.862 -3.24196 -3.06289 0
M  V30 3684 C 347.563 -5.25797 -2.48822 0
M  V30 3685 N 346.539 -4.62862 -2.8506 0
M  V30 3686 H 350.341 -2.70814 -1.1418 0
M  V30 3687 H 347.855 -1.53265 -0.536991 0
M  V30 3688 H 349.852 -2.18546 -3.55026 0
M  V30 3689 H 348.512 -1.12191 -3.04702 0
M  V30 3690 H 349.523 -4.70969 -2.15428 0
M  V30 3691 H 346.2 -2.44208 -3.38627 0
M  V30 3692 H 347.59 -6.32535 -2.26603 0
M  V30 3693 N 350.31 0.590341 -1.46126 0
M  V30 3694 C 351.721 1.17243 -1.45296 0
M  V30 3695 C 352.072 1.95281 -0.189723 0
M  V30 3696 O 351.197 2.04502 0.707674 0
M  V30 3697 C 351.792 2.13284 -2.6324 0
M  V30 3698 C 350.351 2.66832 -2.65476 0
M  V30 3699 C 349.498 1.42557 -2.3785 0
M  V30 3700 H 352.449 0.378692 -1.54116 0
M  V30 3701 H 352.47 2.96619 -2.38323 0
M  V30 3702 H 351.982 1.56459 -3.55165 0
M  V30 3703 H 350.083 3.27548 -1.77603 0
M  V30 3704 H 350.196 3.10088 -3.65215 0
M  V30 3705 H 348.56 1.72107 -1.87753 0
M  V30 3706 H 349.343 0.875741 -3.31942 0
M  V30 3707 N 351.788 1.33704 0.83433 0
M  V30 3708 C 352.721 1.18675 1.94914 0
M  V30 3709 C 353.699 0.0811145 1.62398 0
M  V30 3710 O 354.883 0.244186 1.86912 0
M  V30 3711 C 352.01 0.821231 3.28593 0
M  V30 3712 C 351.056 1.93501 3.80079 0
M  V30 3713 S 351.889 3.54671 4.01209 0
M  V30 3714 C 353.045 3.20136 5.37833 0
M  V30 3715 H 353.278 2.13043 2.07364 0
M  V30 3716 H 350.811 1.18598 0.988624 0
M  V30 3717 H 352.769 0.617123 4.05835 0
M  V30 3718 H 351.43 -0.103927 3.13928 0
M  V30 3719 H 350.623 1.63273 4.76821 0
M  V30 3720 H 350.225 2.09601 3.09747 0
M  V30 3721 H 352.517 2.71242 6.20833 0
M  V30 3722 H 353.46 4.15975 5.73036 0
M  V30 3723 H 353.868 2.56613 5.02802 0
M  V30 3724 N 353.266 -1.05314 1.17247 0
M  V30 3725 C 354.682 -1.30452 0.919473 0
M  V30 3726 C 354.882 -1.9703 -0.42209 0
M  V30 3727 O 353.938 -2.24311 -1.15935 0
M  V30 3728 C 355.251 -2.17551 2.07586 0
M  V30 3729 C 356.799 -2.30937 2.11275 0
M  V30 3730 C 357.274 -3.21396 3.26296 0
M  V30 3731 N 358.765 -3.28981 3.26076 0
M  V30 3732 C 359.5 -3.99095 4.11716 0
M  V30 3733 N 358.996 -4.71648 5.07465 0
M  V30 3734 N 360.789 -3.95247 3.9967 0
M  V30 3735 H 352.94 -0.604988 2.03602 0
M  V30 3736 H 355.203 -0.329368 0.888944 0
M  V30 3737 H 354.909 -1.75921 3.0454 0
M  V30 3738 H 354.783 -3.18182 2.02584 0
M  V30 3739 H 357.17 -2.71809 1.14907 0
M  V30 3740 H 357.251 -1.2994 2.20339 0
M  V30 3741 H 356.895 -2.81238 4.22927 0
M  V30 3742 H 356.825 -4.22395 3.14467 0
M  V30 3743 H 359.316 -2.77286 2.5675 0
M  V30 3744 H 359.629 -5.22705 5.6921 0
M  V30 3745 H 357.974 -4.70594 5.11435 0
M  V30 3746 H 361.165 -3.37691 3.24164 0
M  V30 3747 H 361.338 -4.4962 4.66632 0
M  V30 3748 N 354.744 -0.972509 -1.24016 0
M  V30 3749 C 355.707 -0.511403 -2.23422 0
M  V30 3750 C 356.707 0.394679 -1.55881 0
M  V30 3751 O 357.897 0.189469 -1.73167 0
M  V30 3752 C 355.029 0.258769 -3.39916 0
M  V30 3753 H 356.222 -1.39024 -2.6573 0
M  V30 3754 H 353.775 -0.757585 -1.36713 0
M  V30 3755 H 354.51 1.1545 -3.03054 0
M  V30 3756 H 354.295 -0.391522 -3.9014 0
M  V30 3757 H 355.785 0.570244 -4.13688 0
M  V30 3758 N 356.222 1.38976 -0.743202 0
M  V30 3759 C 357.152 2.33171 -0.123873 0
M  V30 3760 C 358.133 1.54336 0.71516 0
M  V30 3761 O 359.318 1.82696 0.658467 0
M  V30 3762 C 356.448 3.38474 0.777978 0
M  V30 3763 C 355.402 4.27979 0.0424758 0
M  V30 3764 C 354.728 5.2405 1.06189 0
M  V30 3765 C 356.028 5.10155 -1.1198 0
M  V30 3766 H 357.722 2.85213 -0.910709 0
M  V30 3767 H 355.268 1.37133 -0.439388 0
M  V30 3768 H 357.221 4.03328 1.22084 0
M  V30 3769 H 355.945 2.84891 1.59702 0
M  V30 3770 H 354.604 3.64616 -0.380853 0
M  V30 3771 H 354.252 4.66758 1.87472 0
M  V30 3772 H 353.952 5.84785 0.574485 0
M  V30 3773 H 355.476 5.9178 1.50428 0
M  V30 3774 H 356.89 5.68307 -0.75499 0
M  V30 3775 H 355.287 5.80073 -1.53738 0
M  V30 3776 H 356.357 4.44504 -1.93764 0
M  V30 3777 N 357.7 0.491464 1.49741 0
M  V30 3778 C 358.947 -0.0564256 2.02421 0
M  V30 3779 C 359.275 -1.37872 1.37192 0
M  V30 3780 O 358.53 -1.89375 0.493508 0
M  V30 3781 C 358.829 -0.267329 3.56399 0
M  V30 3782 C 358.495 0.975775 4.40215 0
M  V30 3783 C 357.157 1.31655 4.62839 0
M  V30 3784 C 359.509 1.80251 4.89039 0
M  V30 3785 C 356.837 2.48375 5.31532 0
M  V30 3786 C 359.189 2.96116 5.59015 0
M  V30 3787 C 357.853 3.30585 5.79888 0
M  V30 3788 H 357.123 -0.0206476 0.740712 0
M  V30 3789 H 359.77 0.649686 1.80143 0
M  V30 3790 H 358.075 -1.05588 3.77304 0
M  V30 3791 H 359.772 -0.705549 3.94744 0
M  V30 3792 H 356.362 0.700315 4.2284 0
M  V30 3793 H 360.546 1.55239 4.71396 0
M  V30 3794 H 355.802 2.7533 5.45897 0
M  V30 3795 H 359.976 3.60509 5.95824 0
M  V30 3796 H 357.603 4.21132 6.32892 0
M  V30 3797 N 359.178 -1.55987 0.224894 0
M  V30 3798 C 360.108 -2.23426 -0.678457 0
M  V30 3799 C 361.089 -1.20709 -1.19847 0
M  V30 3800 O 362.274 -1.49304 -1.24186 0
M  V30 3801 C 359.404 -2.91676 -1.88527 0
M  V30 3802 C 358.358 -4.00893 -1.49896 0
M  V30 3803 C 357.684 -4.56455 -2.78483 0
M  V30 3804 C 358.984 -5.17769 -0.686461 0
M  V30 3805 H 360.678 -2.99175 -0.116173 0
M  V30 3806 H 358.224 -1.43897 -0.054436 0
M  V30 3807 H 360.177 -3.37547 -2.5227 0
M  V30 3808 H 358.901 -2.1338 -2.47258 0
M  V30 3809 H 357.56 -3.55758 -0.884985 0
M  V30 3810 H 357.208 -3.74886 -3.35365 0
M  V30 3811 H 356.908 -5.30169 -2.53368 0
M  V30 3812 H 358.432 -5.05047 -3.43162 0
M  V30 3813 H 359.846 -5.60001 -1.22767 0
M  V30 3814 H 358.243 -5.97735 -0.532259 0
M  V30 3815 H 359.313 -4.83932 0.306196 0
M  V30 3816 N 360.656 0.0484629 -1.57525 0
M  V30 3817 C 361.905 0.742065 -1.87553 0
M  V30 3818 C 362.218 1.77545 -0.820802 0
M  V30 3819 O 363.424 2.52027 -1.00967 0
M  V30 3820 C 361.88 1.37081 -3.32771 0
M  V30 3821 C 361.488 0.374786 -4.4643 0
M  V30 3822 C 363.232 2.04542 -3.71972 0
M  V30 3823 C 361.139 1.01077 -5.82698 0
M  V30 3824 H 360.069 0.280903 -0.699721 0
M  V30 3825 H 362.72 -0.00411877 -1.835 0
M  V30 3826 H 361.102 2.16605 -3.31509 0
M  V30 3827 H 362.276 -0.392331 -4.59127 0
M  V30 3828 H 360.591 -0.196653 -4.15935 0
M  V30 3829 H 363.188 2.52943 -4.71088 0
M  V30 3830 H 363.531 2.85515 -3.02964 0
M  V30 3831 H 364.064 1.31819 -3.75325 0
M  V30 3832 H 360.803 0.240878 -6.55057 0
M  V30 3833 H 360.323 1.74819 -5.73758 0
M  V30 3834 H 362.002 1.52383 -6.28799 0
M  V30 3835 N 362.134 1.5431 0.320358 0
M  V30 3836 C 363.545 1.63872 0.894594 0
M  V30 3837 C 363.896 0.534847 1.88769 0
M  V30 3838 O 363.021 -0.331732 2.13842 0
M  V30 3839 C 363.616 2.97049 1.62934 0
M  V30 3840 C 362.175 3.08796 2.15226 0
M  V30 3841 C 361.322 2.59456 0.978671 0
M  V30 3842 H 364.273 1.58398 0.0978544 0
M  V30 3843 H 364.294 2.87388 2.49376 0
M  V30 3844 H 363.806 3.7737 0.906302 0
M  V30 3845 H 361.907 2.33156 2.90636 0
M  V30 3846 H 362.02 4.14649 2.40006 0
M  V30 3847 H 360.384 2.1543 1.35875 0
M  V30 3848 H 361.167 3.42237 0.269895 0
M  V30 3849 N 363.613 -0.582584 1.46437 0
M  V30 3850 C 365.029 -0.905962 1.31394 0
M  V30 3851 C 365.229 -1.99468 0.285476 0
M  V30 3852 O 364.285 -2.50566 -0.311914 0
M  V30 3853 C 365.598 -1.3232 2.70022 0
M  V30 3854 C 367.146 -1.43604 2.78113 0
M  V30 3855 C 367.621 -1.88694 4.17323 0
M  V30 3856 N 369.112 -1.95887 4.19741 0
M  V30 3857 C 369.847 -2.32051 5.24347 0
M  V30 3858 N 369.343 -2.67006 6.39281 0
M  V30 3859 N 371.136 -2.32606 5.11713 0
M  V30 3860 H 363.287 0.1366 2.1196 0
M  V30 3861 H 365.55 -0.00155736 0.947999 0
M  V30 3862 H 365.256 -0.597242 3.46592 0
M  V30 3863 H 365.13 -2.28469 3.00136 0
M  V30 3864 H 367.517 -2.15286 2.01832 0
M  V30 3865 H 367.598 -0.457059 2.51684 0
M  V30 3866 H 367.242 -1.1759 4.941 0
M  V30 3867 H 367.172 -2.8755 4.4116 0
M  V30 3868 H 369.663 -1.71362 3.36814 0
M  V30 3869 H 369.976 -2.93554 7.14875 0
M  V30 3870 H 368.321 -2.64644 6.42642 0
M  V30 3871 H 371.512 -2.04721 4.2096 0
M  V30 3872 H 371.685 -2.60462 5.93349 0
M  V30 3873 N 365.091 -1.34144 -0.827227 0
M  V30 3874 C 366.039 -1.25364 -1.95925 0
M  V30 3875 C 367.033 -0.152608 -1.68711 0
M  V30 3876 O 368.239 -0.317311 -1.77181 0
M  V30 3877 H 364.614 -0.389342 -0.643364 0
M  V30 3878 H 366.585 -2.21045 -2.00454 0
M  V30 3879 C 365.334 -1.02158 -3.32354 0
M  V30 3880 H 364.657 -1.86111 -3.5384 0
M  V30 3881 H 366.097 -1.00048 -4.12027 0
M  V30 3882 C 364.556 0.275244 -3.35774 0
M  V30 3883 O 365.086 1.27806 -3.80826 0
M  V30 3884 N 363.292 0.306853 -2.88975 0
M  V30 3885 H 362.839 -0.509777 -2.52506 0
M  V30 3886 H 362.797 1.17432 -2.91646 0
M  V30 3887 N 366.569 1.04691 -1.17803 0
M  V30 3888 C 367.98 1.59238 -0.974689 0
M  V30 3889 C 368.331 1.90306 0.477292 0
M  V30 3890 O 367.456 1.68846 1.35352 0
M  V30 3891 C 368.051 2.89318 -1.76296 0
M  V30 3892 C 366.61 3.40506 -1.60414 0
M  V30 3893 C 365.757 2.14172 -1.76141 0
M  V30 3894 H 368.708 0.874395 -1.32439 0
M  V30 3895 H 368.729 3.5944 -1.24833 0
M  V30 3896 H 368.241 2.66675 -2.81968 0
M  V30 3897 H 366.342 3.68175 -0.572519 0
M  V30 3898 H 366.455 4.14753 -2.39827 0
M  V30 3899 H 364.819 2.25176 -1.19028 0
M  V30 3900 H 365.602 1.93992 -2.83235 0
M  V30 3901 N 368.047 0.979072 1.23499 0
M  V30 3902 C 369.458 0.684391 1.73704 0
M  V30 3903 C 369.809 -0.799448 1.79174 0
M  V30 3904 O 368.934 -1.62531 1.42873 0
M  V30 3905 C 369.529 1.23564 3.15464 0
M  V30 3906 C 368.088 0.99063 3.6313 0
M  V30 3907 C 367.235 1.36416 2.41425 0
M  V30 3908 H 370.186 1.15307 1.09041 0
M  V30 3909 H 370.207 0.607417 3.7562 0
M  V30 3910 H 369.719 2.31561 3.1145 0
M  V30 3911 H 367.82 -0.0733136 3.72528 0
M  V30 3912 H 367.933 1.64427 4.5 0
M  V30 3913 H 366.297 0.782616 2.42378 0
M  V30 3914 H 367.08 2.45387 2.40083 0
M  V30 3915 N 369.525 -1.3858 0.750561 0
M  V30 3916 C 370.936 -1.82927 0.373438 0
M  V30 3917 C 371.287 -1.62634 -1.09748 0
M  V30 3918 O 370.412 -1.12588 -1.84805 0
M  V30 3919 C 371.007 -3.32088 0.671029 0
M  V30 3920 C 369.566 -3.74795 0.34722 0
M  V30 3921 C 368.713 -2.61391 0.92575 0
M  V30 3922 H 371.664 -1.27351 0.946958 0
M  V30 3923 H 371.685 -3.80465 -0.0518269 0
M  V30 3924 H 371.197 -3.46826 1.74164 0
M  V30 3925 H 369.298 -3.65638 -0.716933 0
M  V30 3926 H 369.411 -4.71667 0.840656 0
M  V30 3927 H 367.775 -2.52265 0.351327 0
M  V30 3928 H 368.558 -2.78929 2.00133 0
M  V30 3929 N 371.003 -0.499398 -1.49478 0
M  V30 3930 C 372.419 -0.155261 -1.58843 0
M  V30 3931 C 372.619 1.34008 -1.50479 0
M  V30 3932 O 371.675 2.11589 -1.37791 0
M  V30 3933 C 372.988 -0.730636 -2.91689 0
M  V30 3934 C 374.536 -0.696599 -3.0515 0
M  V30 3935 C 375.011 -1.25001 -4.40612 0
M  V30 3936 N 376.502 -1.21064 -4.47099 0
M  V30 3937 C 377.237 -1.60905 -5.50361 0
M  V30 3938 N 376.733 -2.08331 -6.60735 0
M  V30 3939 N 378.526 -1.52331 -5.41065 0
M  V30 3940 H 370.677 -1.47162 -1.53158 0
M  V30 3941 H 372.94 -0.610309 -0.725415 0
M  V30 3942 H 372.646 -1.77928 -3.03372 0
M  V30 3943 H 372.52 -0.190161 -3.7672 0
M  V30 3944 H 374.907 0.343204 -2.93097 0
M  V30 3945 H 374.988 -1.2742 -2.21806 0
M  V30 3946 H 374.632 -2.28859 -4.53416 0
M  V30 3947 H 374.562 -0.64836 -5.22593 0
M  V30 3948 H 377.053 -0.863128 -3.67911 0
M  V30 3949 H 377.366 -2.36805 -7.35624 0
M  V30 3950 H 375.711 -2.12304 -6.6178 0
M  V30 3951 H 378.902 -1.151 -4.53729 0
M  V30 3952 H 379.075 -1.83704 -6.21415 0
M  V30 3953 N 372.481 1.55866 -0.233164 0
M  V30 3954 C 373.411 2.23783 0.666599 0
M  V30 3955 C 374.392 1.21343 1.19205 0
M  V30 3956 O 375.577 1.4996 1.23392 0
M  V30 3957 C 372.707 2.92671 1.86978 0
M  V30 3958 C 371.661 4.01682 1.47768 0
M  V30 3959 C 370.987 4.57926 2.76058 0
M  V30 3960 C 372.287 5.18126 0.658993 0
M  V30 3961 H 373.981 2.99232 0.100306 0
M  V30 3962 H 371.527 1.43924 0.046804 0
M  V30 3963 H 373.48 3.3888 2.50476 0
M  V30 3964 H 372.204 2.14688 2.46123 0
M  V30 3965 H 370.863 3.56222 0.866106 0
M  V30 3966 H 370.511 3.76659 3.33372 0
M  V30 3967 H 370.211 5.31505 2.50552 0
M  V30 3968 H 371.735 5.06859 3.40479 0
M  V30 3969 H 373.149 5.60644 1.19795 0
M  V30 3970 H 371.546 5.98009 0.500552 0
M  V30 3971 H 372.616 4.83763 -0.331856 0
M  V30 3972 N 373.959 -0.0401083 1.57549 0
M  V30 3973 C 374.906 -1.04413 2.05831 0
M  V30 3974 C 375.876 -1.36585 0.945184 0
M  V30 3975 O 377.061 -1.47112 1.21502 0
M  V30 3976 C 374.201 -2.34336 2.53339 0
M  V30 3977 C 373.314 -2.08419 3.78398 0
M  V30 3978 C 372.449 -3.32133 4.14561 0
M  V30 3979 C 371.488 -3.01721 5.3257 0
M  V30 3980 N 370.625 -4.17855 5.64218 0
M  V30 3981 H 375.465 -0.625442 2.91363 0
M  V30 3982 H 373.002 -0.297218 1.44066 0
M  V30 3983 H 374.96 -3.10234 2.78946 0
M  V30 3984 H 373.59 -2.73948 1.7074 0
M  V30 3985 H 372.642 -1.23069 3.59942 0
M  V30 3986 H 373.954 -1.81978 4.64419 0
M  V30 3987 H 373.108 -4.16406 4.41238 0
M  V30 3988 H 371.847 -3.61678 3.2717 0
M  V30 3989 H 370.852 -2.15849 5.05657 0
M  V30 3990 H 372.077 -2.73466 6.21605 0
M  V30 3991 H 370.023 -4.47372 4.79786 0
M  V30 3992 H 369.94 -3.94798 6.44725 0
M  V30 3993 H 371.208 -5.03033 5.95465 0
M  V30 3994 N 375.437 -1.54477 -0.31217 0
M  V30 3995 C 376.662 -1.77526 -1.07235 0
M  V30 3996 C 377.087 -0.527775 -1.80544 0
M  V30 3997 O 376.445 0.52121 -1.73646 0
M  V30 3998 C 376.493 -2.97535 -2.03728 0
M  V30 3999 O 375.597 -2.69878 -3.11833 0
M  V30 4000 H 374.938 -0.58792 -0.30862 0
M  V30 4001 H 377.468 -2.01532 -0.352993 0
M  V30 4002 H 377.478 -3.25198 -2.46395 0
M  V30 4003 H 376.153 -3.87996 -1.49774 0
M  V30 4004 H 374.73 -2.53199 -2.7376 0
M  V30 4005 N 376.915 0.57481 -1.46744 0
M  V30 4006 C 377.862 1.68329 -1.57905 0
M  V30 4007 C 378.832 1.60625 -0.422927 0
M  V30 4008 O 380.017 1.79721 -0.640711 0
M  V30 4009 C 377.157 3.06665 -1.58274 0
M  V30 4010 C 376.27 3.24935 -2.84678 0
M  V30 4011 C 375.405 4.53566 -2.76499 0
M  V30 4012 C 374.444 4.65207 -3.97806 0
M  V30 4013 N 373.581 5.85172 -3.87967 0
M  V30 4014 H 378.421 1.58127 -2.52587 0
M  V30 4015 H 375.958 0.770552 -1.25303 0
M  V30 4016 H 377.916 3.86745 -1.56473 0
M  V30 4017 H 376.546 3.15745 -0.671194 0
M  V30 4018 H 375.598 2.38405 -2.96424 0
M  V30 4019 H 376.91 3.29403 -3.7456 0
M  V30 4020 H 376.064 5.41885 -2.72848 0
M  V30 4021 H 374.803 4.51548 -1.8427 0
M  V30 4022 H 373.808 3.75304 -4.0178 0
M  V30 4023 H 375.033 4.68997 -4.9114 0
M  V30 4024 H 372.979 5.84137 -2.98529 0
M  V30 4025 H 372.896 5.90943 -4.71511 0
M  V30 4026 H 374.164 6.759 -3.88303 0
M  V30 4027 N 378.394 1.34581 0.820102 0
M  V30 4028 C 379.341 1.2639 1.93117 0
M  V30 4029 C 380.311 0.138554 1.65521 0
M  V30 4030 O 381.496 0.320004 1.88097 0
M  V30 4031 C 378.636 1.02812 3.29429 0
M  V30 4032 C 377.749 2.24146 3.693 0
M  V30 4033 C 376.884 1.93829 4.94574 0
M  V30 4034 C 375.923 3.1129 5.27034 0
M  V30 4035 N 375.06 2.80838 6.43486 0
M  V30 4036 H 379.9 2.21408 1.99455 0
M  V30 4037 H 377.437 1.10077 0.975784 0
M  V30 4038 H 379.395 0.871788 4.0799 0
M  V30 4039 H 378.025 0.114612 3.22596 0
M  V30 4040 H 377.077 2.50691 2.86109 0
M  V30 4041 H 378.389 3.11899 3.89257 0
M  V30 4042 H 377.543 1.74948 5.80929 0
M  V30 4043 H 376.282 1.03341 4.76626 0
M  V30 4044 H 375.287 3.30764 4.39175 0
M  V30 4045 H 376.512 4.02561 5.4692 0
M  V30 4046 H 374.458 1.92929 6.26988 0
M  V30 4047 H 374.375 3.62123 6.63629 0
M  V30 4048 H 375.643 2.65467 7.32903 0
M  V30 4049 N 379.872 -1.04064 1.18357 0
M  V30 4050 C 381.118 -1.77658 0.990412 0
M  V30 4051 C 381.473 -1.86446 -0.474944 0
M  V30 4052 O 380.766 -1.36153 -1.34807 0
M  V30 4053 C 380.96 -3.20634 1.57888 0
M  V30 4054 C 380.789 -3.25782 3.09994 0
M  V30 4055 C 379.559 -3.34411 3.7881 0
M  V30 4056 C 381.757 -3.13791 4.0748 0
M  V30 4057 N 379.739 -3.28809 5.18418 0
M  V30 4058 C 381.11 -3.15689 5.33611 0
M  V30 4059 C 383.165 -2.97833 3.98998 0
M  V30 4060 C 381.868 -3.03268 6.52243 0
M  V30 4061 C 383.894 -2.86759 5.17227 0
M  V30 4062 C 383.256 -2.893 6.4225 0
M  V30 4063 H 379.355 -0.661901 0.416427 0
M  V30 4064 H 381.939 -1.23968 1.50133 0
M  V30 4065 H 380.11 -3.7267 1.09414 0
M  V30 4066 H 381.842 -3.82525 1.32124 0
M  V30 4067 H 378.597 -3.40144 3.29543 0
M  V30 4068 H 379.021 -3.29448 5.91433 0
M  V30 4069 H 383.663 -2.94698 3.03171 0
M  V30 4070 H 381.381 -3.05156 7.48268 0
M  V30 4071 H 384.967 -2.75465 5.12455 0
M  V30 4072 H 383.847 -2.80818 7.32196 0
M  V30 4073 N 381.35 -0.985608 -1.22978 0
M  V30 4074 C 382.575 -0.675254 -1.961 0
M  V30 4075 C 383 0.752154 -1.72407 0
M  V30 4076 O 382.358 1.5131 -0.998751 0
M  V30 4077 C 382.406 -0.977899 -3.47087 0
M  V30 4078 O 381.51 -0.072685 -4.12336 0
M  V30 4079 H 380.851 -0.253443 -0.613728 0
M  V30 4080 H 383.381 -1.32061 -1.56272 0
M  V30 4081 H 383.391 -0.916739 -3.97567 0
M  V30 4082 H 382.066 -2.01807 -3.63657 0
M  V30 4083 H 380.643 -0.188703 -3.72422 0
M  V30 4084 N 382.828 1.3818 -0.7579 0
M  V30 4085 C 383.775 2.30416 -0.133057 0
M  V30 4086 C 384.745 1.50398 0.704957 0
M  V30 4087 O 385.93 1.79014 0.660192 0
M  V30 4088 C 383.07 3.36834 0.750813 0
M  V30 4089 C 382.183 4.31879 -0.102297 0
M  V30 4090 C 381.318 5.25368 0.784979 0
M  V30 4091 C 380.357 6.12058 -0.0715046 0
M  V30 4092 N 379.494 6.97832 0.772972 0
M  V30 4093 H 384.334 2.83274 -0.925186 0
M  V30 4094 H 381.871 1.39461 -0.467866 0
M  V30 4095 H 383.829 3.97145 1.27794 0
M  V30 4096 H 382.459 2.85374 1.50868 0
M  V30 4097 H 381.511 3.72991 -0.747095 0
M  V30 4098 H 382.823 4.92921 -0.763552 0
M  V30 4099 H 381.977 5.90818 1.37911 0
M  V30 4100 H 380.716 4.64703 1.47996 0
M  V30 4101 H 379.721 5.456 -0.678272 0
M  V30 4102 H 380.946 6.74793 -0.763606 0
M  V30 4103 H 378.892 6.3971 1.45282 0
M  V30 4104 H 378.809 7.55812 0.168709 0
M  V30 4105 H 380.077 7.67687 1.35194 0
M  V30 4106 N 384.306 0.507319 1.49211 0
M  V30 4107 C 385.253 -0.267728 2.29242 0
M  V30 4108 C 386.223 -0.954609 1.35928 0
M  V30 4109 O 387.408 -0.960046 1.64887 0
M  V30 4110 C 384.548 -1.32243 3.18756 0
M  V30 4111 C 383.661 -0.64669 4.27132 0
M  V30 4112 C 382.796 -1.68238 5.03855 0
M  V30 4113 C 381.835 -0.98885 6.0406 0
M  V30 4114 N 380.972 -1.96903 6.73924 0
M  V30 4115 H 385.812 0.420968 2.95012 0
M  V30 4116 H 383.349 0.219443 1.45454 0
M  V30 4117 H 385.307 -1.94599 3.69036 0
M  V30 4118 H 383.937 -1.97981 2.54958 0
M  V30 4119 H 382.989 0.0902926 3.80293 0
M  V30 4120 H 384.301 -0.101058 4.98698 0
M  V30 4121 H 383.455 -2.38081 5.58034 0
M  V30 4122 H 382.194 -2.26187 4.32077 0
M  V30 4123 H 381.199 -0.276222 5.49106 0
M  V30 4124 H 382.424 -0.415767 6.77826 0
M  V30 4125 H 380.37 -2.53803 6.04913 0
M  V30 4126 H 380.287 -1.47423 7.41487 0
M  V30 4127 H 381.555 -2.66015 7.32705 0
M  V30 4128 N 385.784 -1.5574 0.241426 0
M  V30 4129 C 387.031 -1.9881 -0.384836 0
M  V30 4130 C 387.359 -1.12947 -1.58346 0
M  V30 4131 O 386.614 -0.178993 -1.9488 0
M  V30 4132 C 386.913 -3.47308 -0.843317 0
M  V30 4133 C 386.579 -4.50223 0.246946 0
M  V30 4134 C 385.241 -4.78088 0.546399 0
M  V30 4135 C 387.593 -5.11841 0.983282 0
M  V30 4136 C 384.921 -5.64846 1.58636 0
M  V30 4137 C 387.273 -5.99727 2.01272 0
M  V30 4138 C 385.937 -6.25927 2.31888 0
M  V30 4139 H 385.207 -0.727496 -0.140821 0
M  V30 4140 H 387.854 -1.8831 0.348106 0
M  V30 4141 H 386.159 -3.55112 -1.65537 0
M  V30 4142 H 387.856 -3.78017 -1.33806 0
M  V30 4143 H 384.446 -4.286 0.00340639 0
M  V30 4144 H 388.63 -4.90366 0.765182 0
M  V30 4145 H 383.886 -5.83403 1.82896 0
M  V30 4146 H 388.06 -6.46517 2.58823 0
M  V30 4147 H 385.687 -6.92949 3.12611 0
M  V30 4148 N 387.262 0.0317525 -1.57568 0
M  V30 4149 C 388.509 0.723104 -1.89149 0
M  V30 4150 C 388.837 1.75504 -0.838377 0
M  V30 4151 O 388.092 1.95037 0.160982 0
M  V30 4152 C 388.391 1.43167 -3.27472 0
M  V30 4153 C 388.057 0.535972 -4.47703 0
M  V30 4154 C 386.719 0.289262 -4.8033 0
M  V30 4155 C 389.071 -0.0826125 -5.21135 0
M  V30 4156 C 386.399 -0.584853 -5.83778 0
M  V30 4157 C 388.751 -0.944414 -6.25511 0
M  V30 4158 C 387.415 -1.20061 -6.56614 0
M  V30 4159 H 386.685 0.264602 -0.692146 0
M  V30 4160 H 389.332 -0.0169496 -1.91492 0
M  V30 4161 H 387.637 2.24497 -3.21105 0
M  V30 4162 H 389.334 1.97209 -3.49155 0
M  V30 4163 H 385.924 0.738414 -4.22191 0
M  V30 4164 H 390.108 0.0950302 -4.96209 0
M  V30 4165 H 385.364 -0.79168 -6.06253 0
M  V30 4166 H 389.538 -1.43026 -6.81554 0
M  V30 4167 H 387.165 -1.87967 -7.36595 0
M  V30 4168 N 388.74 1.54641 0.303973 0
M  V30 4169 C 389.965 1.78092 1.06292 0
M  V30 4170 C 390.39 0.537342 1.80262 0
M  V30 4171 O 389.748 -0.511993 1.7392 0
M  V30 4172 C 389.796 2.98612 2.02147 0
M  V30 4173 O 388.9 2.71528 3.10397 0
M  V30 4174 H 388.241 0.589548 0.305497 0
M  V30 4175 H 390.771 2.01716 0.3423 0
M  V30 4176 H 390.781 3.265 2.44667 0
M  V30 4177 H 389.456 3.88785 1.47714 0
M  V30 4178 H 388.033 2.54648 2.72413 0
M  V30 4179 N 390.218 -0.567019 1.47046 0
M  V30 4180 C 391.465 -1.32462 1.53167 0
M  V30 4181 C 391.793 -1.93571 0.189841 0
M  V30 4182 O 391.048 -1.77865 -0.816243 0
M  V30 4183 C 391.347 -2.4623 2.59047 0
M  V30 4184 C 391.013 -2.03014 4.02612 0
M  V30 4185 C 389.675 -1.90944 4.41694 0
M  V30 4186 C 392.027 -1.69895 4.92732 0
M  V30 4187 C 389.355 -1.44035 5.68745 0
M  V30 4188 C 391.707 -1.2446 6.20236 0
M  V30 4189 C 390.371 -1.10979 6.5821 0
M  V30 4190 H 389.641 -0.484713 0.560477 0
M  V30 4191 H 392.288 -0.636888 1.80599 0
M  V30 4192 H 390.593 -3.20517 2.25335 0
M  V30 4193 H 392.29 -3.04427 2.61008 0
M  V30 4194 H 388.88 -2.13348 3.71726 0
M  V30 4195 H 393.064 -1.78098 4.63244 0
M  V30 4196 H 388.32 -1.32254 5.96925 0
M  V30 4197 H 392.494 -0.978924 6.89485 0
M  V30 4198 H 390.121 -0.744078 7.5655 0
M  V30 4199 N 391.696 -1.35014 -0.812953 0
M  V30 4200 C 392.945 -1.27269 -1.56479 0
M  V30 4201 C 393.258 0.152771 -1.95002 0
M  V30 4202 O 394.464 0.352451 -2.69203 0
M  V30 4203 C 392.92 -2.23159 -2.82362 0
M  V30 4204 C 392.528 -3.71016 -2.511 0
M  V30 4205 C 394.272 -2.24342 -3.60376 0
M  V30 4206 C 392.179 -4.58746 -3.73237 0
M  V30 4207 H 391.109 -0.472829 -0.587324 0
M  V30 4208 H 393.76 -1.6024 -0.894171 0
M  V30 4209 H 392.142 -1.83151 -3.51101 0
M  V30 4210 H 393.316 -4.1962 -1.90409 0
M  V30 4211 H 391.631 -3.72378 -1.86343 0
M  V30 4212 H 394.228 -2.87107 -4.51081 0
M  V30 4213 H 394.571 -1.24542 -3.97234 0
M  V30 4214 H 395.104 -2.62846 -2.98591 0
M  V30 4215 H 391.843 -5.59521 -3.41492 0
M  V30 4216 H 391.363 -4.14871 -4.33176 0
M  V30 4217 H 393.042 -4.73852 -4.40537 0
M  V30 4218 N 393.175 1.03435 -1.18907 0
M  V30 4219 C 394.085 2.15075 -0.937015 0
M  V30 4220 C 395.101 1.73706 0.101085 0
M  V30 4221 O 396.277 2.01232 -0.0822948 0
M  V30 4222 C 393.342 3.43458 -0.473057 0
M  V30 4223 C 392.403 3.99172 -1.57989 0
M  V30 4224 C 391.636 5.21427 -1.13797 0
M  V30 4225 O 391.859 5.704 0.000725941 0
M  V30 4226 O 390.793 5.69837 -1.9383 0
M  V30 4227 H 394.619 2.39198 -1.87131 0
M  V30 4228 H 392.204 1.13506 -0.971427 0
M  V30 4229 H 394.086 4.20811 -0.222702 0
M  V30 4230 H 392.761 3.20793 0.432869 0
M  V30 4231 H 391.668 3.23178 -1.88433 0
M  V30 4232 H 393.001 4.2619 -2.46217 0
M  V30 4233 N 394.653 0.992116 1.22453 0
M  V30 4234 C 395.901 0.666215 1.90804 0
M  V30 4235 C 396.222 -0.804152 1.77647 0
M  V30 4236 O 395.492 -1.57629 1.16318 0
M  V30 4237 H 394.072 0.243423 0.706225 0
M  V30 4238 H 396.734 1.25845 1.48825 0
M  V30 4239 H 395.83 0.928069 2.97982 0
M  V30 4240 N 396.131 -1.37776 0.765217 0
M  V30 4241 C 397.371 -2.01691 0.331669 0
M  V30 4242 C 397.735 -1.59432 -1.06983 0
M  V30 4243 O 398.936 -2.15761 -1.60314 0
M  V30 4244 C 397.207 -3.54385 0.463261 0
M  V30 4245 S 398.766 -4.38652 0.114011 0
M  V30 4246 H 395.584 -0.699387 0.127979 0
M  V30 4247 H 398.186 -1.68084 0.998396 0
M  V30 4248 H 396.89 -3.82629 1.48401 0
M  V30 4249 H 396.421 -3.92783 -0.220246 0
M  V30 4250 H 398.436 -4.84021 -1.09261 0
M  V30 4251 N 397.609 -0.515225 -1.4894 0
M  V30 4252 C 398.539 0.244628 -2.32215 0
M  V30 4253 C 399.52 0.949136 -1.41157 0
M  V30 4254 O 400.705 0.937783 -1.70057 0
M  V30 4255 C 397.835 1.30096 -3.22013 0
M  V30 4256 C 396.789 0.715486 -4.21977 0
M  V30 4257 C 396.115 1.87339 -5.00808 0
M  V30 4258 C 397.415 -0.302982 -5.2142 0
M  V30 4259 H 399.109 -0.450501 -2.95991 0
M  V30 4260 H 396.655 -0.218098 -1.42339 0
M  V30 4261 H 398.608 1.84037 -3.79089 0
M  V30 4262 H 397.332 2.02547 -2.56207 0
M  V30 4263 H 395.991 0.197715 -3.66066 0
M  V30 4264 H 395.639 2.58592 -4.31438 0
M  V30 4265 H 395.339 1.48764 -5.68457 0
M  V30 4266 H 396.863 2.41686 -5.60732 0
M  V30 4267 H 398.277 0.148802 -5.73107 0
M  V30 4268 H 396.674 -0.60532 -5.97039 0
M  V30 4269 H 397.744 -1.21395 -4.69459 0
M  V30 4270 N 399.087 1.5561 -0.249682 0
M  V30 4271 C 400.333 1.99306 0.374841 0
M  V30 4272 C 400.666 1.13767 1.57387 0
M  V30 4273 O 399.941 0.201711 1.93451 0
M  V30 4274 C 400.224 3.51507 0.781986 0
M  V30 4275 C 400.077 4.4781 -0.422629 0
M  V30 4276 C 401.396 4.08884 1.62793 0
M  V30 4277 H 398.515 0.724572 0.134773 0
M  V30 4278 H 401.157 1.86719 -0.351549 0
M  V30 4279 H 399.307 3.62363 1.4009 0
M  V30 4280 H 400.979 4.48931 -1.06108 0
M  V30 4281 H 399.222 4.20518 -1.06524 0
M  V30 4282 H 399.893 5.51919 -0.0943766 0
M  V30 4283 H 402.369 4.01147 1.10547 0
M  V30 4284 H 401.245 5.1564 1.88166 0
M  V30 4285 H 401.506 3.57515 2.60068 0
M  V30 4286 N 400.565 -0.0233959 1.57583 0
M  V30 4287 C 401.512 -1.02224 2.06927 0
M  V30 4288 C 402.482 -1.35575 0.959617 0
M  V30 4289 O 403.667 -1.45815 1.23055 0
M  V30 4290 C 400.807 -2.31636 2.5581 0
M  V30 4291 C 399.92 -2.04394 3.80588 0
M  V30 4292 C 399.055 -3.27717 4.18061 0
M  V30 4293 C 398.094 -2.96056 5.3574 0
M  V30 4294 N 397.231 -4.11847 5.68618 0
M  V30 4295 H 402.071 -0.594504 2.9201 0
M  V30 4296 H 399.608 -0.281921 1.44373 0
M  V30 4297 H 401.566 -3.07258 2.82221 0
M  V30 4298 H 400.196 -2.72122 1.73636 0
M  V30 4299 H 399.248 -1.19244 3.61227 0
M  V30 4300 H 400.56 -1.77042 4.66323 0
M  V30 4301 H 399.714 -4.11702 4.4563 0
M  V30 4302 H 398.453 -3.58188 3.30988 0
M  V30 4303 H 397.458 -2.10474 5.07918 0
M  V30 4304 H 398.683 -2.66857 6.24471 0
M  V30 4305 H 396.629 -4.42258 4.84504 0
M  V30 4306 H 396.546 -3.87938 6.48876 0
M  V30 4307 H 397.814 -4.96689 6.00766 0
M  V30 4308 N 402.043 -1.548 -0.295768 0
M  V30 4309 C 402.991 -1.86874 -1.38495 0
M  V30 4310 C 403.985 -0.742938 -1.52239 0
M  V30 4311 O 405.191 -0.926999 -1.54294 0
M  V30 4312 H 401.566 -0.592786 -0.462719 0
M  V30 4313 H 403.537 -2.77904 -1.08682 0
M  V30 4314 C 402.286 -2.13732 -2.74252 0
M  V30 4315 H 401.609 -2.99835 -2.64459 0
M  V30 4316 H 403.049 -2.4011 -3.49461 0
M  V30 4317 C 401.508 -0.937539 -3.23592 0
M  V30 4318 O 402.038 -0.160665 -4.01379 0
M  V30 4319 N 400.244 -0.741478 -2.80981 0
M  V30 4320 H 399.791 -1.37489 -2.1784 0
M  V30 4321 H 399.749 0.0597103 -3.14343 0
M  V30 4322 N 403.521 0.559213 -1.47345 0
M  V30 4323 C 404.751 1.33999 -1.57251 0
M  V30 4324 C 405.159 1.87905 -0.220978 0
M  V30 4325 O 404.502 1.65577 0.795617 0
M  V30 4326 C 404.564 2.54798 -2.53611 0
M  V30 4327 C 404.228 2.22192 -3.99349 0
M  V30 4328 C 405.225 1.79607 -4.87891 0
M  V30 4329 C 402.91 2.33613 -4.44669 0
M  V30 4330 C 404.904 1.48868 -6.19772 0
M  V30 4331 C 402.591 2.02487 -5.76578 0
M  V30 4332 C 403.589 1.60183 -6.63951 0
M  V30 4333 O 403.277 1.29451 -7.93409 0
M  V30 4334 H 403.009 0.414858 -0.533731 0
M  V30 4335 H 405.563 0.684465 -1.9366 0
M  V30 4336 H 403.793 3.23235 -2.12265 0
M  V30 4337 H 405.482 3.16873 -2.53666 0
M  V30 4338 H 406.248 1.70278 -4.54126 0
M  V30 4339 H 402.127 2.65501 -3.76869 0
M  V30 4340 H 405.671 1.15775 -6.87926 0
M  V30 4341 H 401.568 2.11448 -6.09885 0
M  V30 4342 H 402.336 1.43098 -8.05894 0
M  V30 4343 N 404.999 1.35443 0.805782 0
M  V30 4344 C 405.932 1.22783 1.92353 0
M  V30 4345 C 406.91 0.115543 1.62189 0
M  V30 4346 O 408.094 0.283778 1.86352 0
M  V30 4347 C 405.221 0.890746 3.26777 0
M  V30 4348 C 404.267 2.01519 3.75889 0
M  V30 4349 S 405.1 3.63101 3.93596 0
M  V30 4350 C 406.256 3.31472 5.30921 0
M  V30 4351 H 406.489 2.17394 2.02798 0
M  V30 4352 H 404.022 1.20669 0.963245 0
M  V30 4353 H 405.98 0.703068 4.04434 0
M  V30 4354 H 404.641 -0.0373152 3.14078 0
M  V30 4355 H 403.834 1.7335 4.7325 0
M  V30 4356 H 403.436 2.16124 3.05231 0
M  V30 4357 H 405.728 2.8435 6.1494 0
M  V30 4358 H 406.671 4.28036 5.64084 0
M  V30 4359 H 407.079 2.67221 4.97246 0
M  V30 4360 N 406.477 -1.02803 1.19454 0
M  V30 4361 C 407.409 -2.11181 0.890807 0
M  V30 4362 C 408.422 -1.6238 -0.116829 0
M  V30 4363 O 409.611 -1.78144 0.112694 0
M  V30 4364 C 406.711 -3.37461 0.311942 0
M  V30 4365 C 405.884 -4.15446 1.36834 0
M  V30 4366 C 404.943 -5.20039 0.802864 0
M  V30 4367 O 403.969 -5.49602 1.48077 0
M  V30 4368 N 405.171 -5.79165 -0.393417 0
M  V30 4369 H 407.936 -2.37827 1.82369 0
M  V30 4370 H 405.497 -1.19101 1.09666 0
M  V30 4371 H 407.489 -4.0462 -0.0802225 0
M  V30 4372 H 406.059 -3.08156 -0.52524 0
M  V30 4373 H 405.279 -3.43423 1.93531 0
M  V30 4374 H 406.567 -4.64335 2.08015 0
M  V30 4375 H 405.965 -5.57466 -0.961658 0
M  V30 4376 H 404.522 -6.47729 -0.727351 0
M  V30 4377 N 407.956 -0.998596 -1.21925 0
M  V30 4378 C 409.372 -0.710303 -1.42923 0
M  V30 4379 C 409.572 0.716933 -1.88314 0
M  V30 4380 O 408.628 1.48712 -2.04062 0
M  V30 4381 C 409.941 -1.72072 -2.466 0
M  V30 4382 C 411.489 -1.73681 -2.60392 0
M  V30 4383 C 411.964 -2.73601 -3.67296 0
M  V30 4384 N 413.455 -2.7223 -3.7476 0
M  V30 4385 C 414.19 -3.46206 -4.57087 0
M  V30 4386 N 413.686 -4.29802 -5.43362 0
M  V30 4387 N 415.479 -3.34886 -4.51451 0
M  V30 4388 H 407.63 -1.92028 -0.9077 0
M  V30 4389 H 409.893 -0.828487 -0.460775 0
M  V30 4390 H 409.599 -2.74231 -2.20206 0
M  V30 4391 H 409.473 -1.51818 -3.45299 0
M  V30 4392 H 411.86 -0.722173 -2.86127 0
M  V30 4393 H 411.941 -1.98005 -1.61949 0
M  V30 4394 H 411.585 -3.75217 -3.42307 0
M  V30 4395 H 411.515 -2.46545 -4.65321 0
M  V30 4396 H 414.006 -2.11576 -3.1312 0
M  V30 4397 H 414.319 -4.83061 -6.03218 0
M  V30 4398 H 412.664 -4.33887 -5.42925 0
M  V30 4399 H 415.855 -2.69015 -3.83078 0
M  V30 4400 H 416.028 -3.92796 -5.15379 0
M  V30 4401 N 409.434 1.37368 -0.772513 0
M  V30 4402 C 410.845 1.8231 -0.402493 0
M  V30 4403 C 411.196 1.6436 1.07146 0
M  V30 4404 O 410.321 1.15514 1.82991 0
M  V30 4405 C 410.916 3.30979 -0.723776 0
M  V30 4406 C 409.475 3.74195 -0.406802 0
M  V30 4407 C 408.622 2.59885 -0.967218 0
M  V30 4408 H 411.573 1.25829 -0.967099 0
M  V30 4409 H 411.594 3.80499 -0.00870832 0
M  V30 4410 H 411.106 3.44011 -1.7966 0
M  V30 4411 H 409.207 3.66732 0.658673 0
M  V30 4412 H 409.32 4.7027 -0.915588 0
M  V30 4413 H 407.684 2.51674 -0.391416 0
M  V30 4414 H 408.467 2.7571 -2.04546 0
M  V30 4415 N 410.912 0.523116 1.48665 0
M  V30 4416 C 412.137 -0.0117284 2.07397 0
M  V30 4417 C 412.562 -1.28031 1.37803 0
M  V30 4418 O 411.92 -1.75836 0.441762 0
M  V30 4419 C 411.968 -0.225786 3.59892 0
M  V30 4420 O 411.072 -1.29592 3.91509 0
M  V30 4421 H 410.413 0.0360673 0.66302 0
M  V30 4422 H 412.943 0.729066 1.9117 0
M  V30 4423 H 412.953 -0.450552 4.05505 0
M  V30 4424 H 411.628 0.700944 4.09951 0
M  V30 4425 H 410.205 -1.05436 3.57684 0
M  V30 4426 N 412.39 -1.55475 0.257931 0
M  V30 4427 C 413.618 -2.03609 -0.367559 0
M  V30 4428 C 414.033 -1.13687 -1.50734 0
M  V30 4429 O 413.39 -0.153479 -1.81853 0
M  V30 4430 C 413.441 -3.51001 -0.864908 0
M  V30 4431 O 413.162 -4.37499 0.229465 0
M  V30 4432 C 414.663 -4.14946 -1.55997 0
M  V30 4433 H 411.883 -0.665459 -0.0860521 0
M  V30 4434 H 414.427 -2.00843 0.385014 0
M  V30 4435 H 412.582 -3.54266 -1.56762 0
M  V30 4436 H 412.996 -5.24286 -0.14998 0
M  V30 4437 H 414.47 -5.19735 -1.85956 0
M  V30 4438 H 414.947 -3.6209 -2.4857 0
M  V30 4439 H 415.553 -4.15635 -0.901543 0
M  V30 4440 N 413.868 0.0150385 -1.57593 0
M  V30 4441 C 414.778 1.02791 -2.10882 0
M  V30 4442 C 415.794 1.38702 -1.0506 0
M  V30 4443 O 416.97 1.47739 -1.36877 0
M  V30 4444 C 414.035 2.30568 -2.58919 0
M  V30 4445 C 413.096 2.01108 -3.79281 0
M  V30 4446 C 412.329 3.22794 -4.25018 0
M  V30 4447 O 412.552 4.33959 -3.70183 0
M  V30 4448 O 411.486 3.07672 -5.17322 0
M  V30 4449 H 415.312 0.604973 -2.97613 0
M  V30 4450 H 412.897 0.23292 -1.47573 0
M  V30 4451 H 414.779 3.05662 -2.90084 0
M  V30 4452 H 413.454 2.72129 -1.75293 0
M  V30 4453 H 412.361 1.23537 -3.53114 0
M  V30 4454 H 413.694 1.64394 -4.63935 0
M  V30 4455 N 415.346 1.54954 0.287554 0
M  V30 4456 C 416.278 1.83224 1.37701 0
M  V30 4457 C 417.291 0.715898 1.46215 0
M  V30 4458 O 418.48 0.993565 1.48292 0
M  V30 4459 C 415.58 1.96723 2.75959 0
M  V30 4460 C 414.753 3.27253 2.90215 0
M  V30 4461 C 413.812 3.30998 4.09056 0
M  V30 4462 O 412.838 4.04457 4.00503 0
M  V30 4463 N 414.04 2.57353 5.20336 0
M  V30 4464 H 416.805 2.77254 1.138 0
M  V30 4465 H 414.366 1.54694 0.477652 0
M  V30 4466 H 416.358 1.96615 3.5373 0
M  V30 4467 H 414.928 1.09626 2.92747 0
M  V30 4468 H 414.148 3.40022 1.99447 0
M  V30 4469 H 415.436 4.13365 2.96659 0
M  V30 4470 H 414.834 1.97327 5.30169 0
M  V30 4471 H 413.391 2.62984 5.96391 0
M  V30 4472 N 416.824 -0.551391 1.4764 0
M  V30 4473 C 417.754 -1.66757 1.63445 0
M  V30 4474 C 418.735 -1.63077 0.483742 0
M  V30 4475 O 419.92 -1.80607 0.71377 0
M  V30 4476 C 417.05 -3.05387 1.65396 0
M  V30 4477 C 416.004 -3.23918 2.79752 0
M  V30 4478 C 415.33 -4.63393 2.66779 0
M  V30 4479 C 416.63 -3.08735 4.21284 0
M  V30 4480 H 418.324 -1.53786 2.56886 0
M  V30 4481 H 415.87 -0.738415 1.23626 0
M  V30 4482 H 417.823 -3.83325 1.75043 0
M  V30 4483 H 416.547 -3.19332 0.685195 0
M  V30 4484 H 415.206 -2.48391 2.69625 0
M  V30 4485 H 414.854 -4.74144 1.67918 0
M  V30 4486 H 414.554 -4.7674 3.43501 0
M  V30 4487 H 416.078 -5.43458 2.78364 0
M  V30 4488 H 417.492 -3.76484 4.32357 0
M  V30 4489 H 415.889 -3.33588 4.98838 0
M  V30 4490 H 416.959 -2.0541 4.39243 0
M  V30 4491 N 418.302 -1.35869 -0.798587 0
M  V30 4492 C 419.232 -1.32118 -1.92528 0
M  V30 4493 C 420.213 -0.194209 -1.68988 0
M  V30 4494 O 421.398 -0.390426 -1.90235 0
M  V30 4495 C 418.528 -1.10047 -3.29404 0
M  V30 4496 C 417.482 -2.19471 -3.67446 0
M  V30 4497 C 416.808 -1.82555 -5.02571 0
M  V30 4498 C 418.108 -3.61495 -3.76987 0
M  V30 4499 H 419.802 -2.26394 -1.95924 0
M  V30 4500 H 417.348 -1.08981 -0.94123 0
M  V30 4501 H 419.301 -1.06061 -4.07835 0
M  V30 4502 H 418.025 -0.122195 -3.26371 0
M  V30 4503 H 416.684 -2.22568 -2.91306 0
M  V30 4504 H 416.332 -0.833249 -4.9605 0
M  V30 4505 H 416.032 -2.5581 -5.28995 0
M  V30 4506 H 417.556 -1.80108 -5.83432 0
M  V30 4507 H 418.97 -3.60676 -4.4563 0
M  V30 4508 H 417.367 -4.33577 -4.14887 0
M  V30 4509 H 418.437 -3.97065 -2.78329 0
M  V30 4510 N 419.78 1.02168 -1.19998 0
M  V30 4511 C 420.727 2.10601 -0.944228 0
M  V30 4512 C 421.697 1.65639 0.123664 0
M  V30 4513 O 422.882 1.9079 -0.0199941 0
M  V30 4514 C 420.022 3.41504 -0.496865 0
M  V30 4515 C 419.135 3.99973 -1.63234 0
M  V30 4516 C 418.27 5.18915 -1.13579 0
M  V30 4517 C 417.309 5.69456 -2.24468 0
M  V30 4518 N 416.446 6.79665 -1.76068 0
M  V30 4519 H 421.286 2.31814 -1.8726 0
M  V30 4520 H 418.823 1.13686 -0.933483 0
M  V30 4521 H 420.781 4.16626 -0.218843 0
M  V30 4522 H 419.411 3.2038 0.394508 0
M  V30 4523 H 418.463 3.21997 -2.0254 0
M  V30 4524 H 419.775 4.33492 -2.46752 0
M  V30 4525 H 418.929 6.01222 -0.813429 0
M  V30 4526 H 417.668 4.8695 -0.270434 0
M  V30 4527 H 416.673 4.85757 -2.57526 0
M  V30 4528 H 417.898 6.03459 -3.11472 0
M  V30 4529 H 415.844 6.49538 -0.918516 0
M  V30 4530 H 415.761 7.12349 -2.5317 0
M  V30 4531 H 417.029 7.65549 -1.46817 0
M  V30 4532 N 421.258 1.00505 1.21394 0
M  V30 4533 C 422.208 0.536503 2.21598 0
M  V30 4534 C 423.192 -0.401914 1.55799 0
M  V30 4535 O 424.384 -0.226757 1.75541 0
M  V30 4536 C 421.513 -0.135446 3.43033 0
M  V30 4537 C 420.599 0.823992 4.16018 0
M  V30 4538 N 420.99 1.97683 4.6557 0
M  V30 4539 C 419.288 0.642387 4.4135 0
M  V30 4540 C 419.989 2.58003 5.21354 0
M  V30 4541 N 418.965 1.86162 5.1073 0
M  V30 4542 H 422.767 1.41557 2.57563 0
M  V30 4543 H 420.281 0.868878 1.37202 0
M  V30 4544 H 422.278 -0.488584 4.14027 0
M  V30 4545 H 420.938 -1.01049 3.08576 0
M  V30 4546 H 421.949 2.3572 4.61147 0
M  V30 4547 H 418.626 -0.185578 4.17087 0
M  V30 4548 H 420.016 3.555 5.70149 0
M  V30 4549 N 422.737 -1.36956 0.779787 0
M  V30 4550 C 424.148 -1.82094 0.412156 0
M  V30 4551 C 424.499 -1.64926 -1.06273 0
M  V30 4552 O 423.624 -1.16483 -1.82375 0
M  V30 4553 C 424.219 -3.3059 0.741319 0
M  V30 4554 C 422.778 -3.73974 0.426641 0
M  V30 4555 C 421.925 -2.59368 0.980987 0
M  V30 4556 H 424.876 -1.25314 0.973758 0
M  V30 4557 H 424.897 -3.80489 0.028887 0
M  V30 4558 H 424.409 -3.43054 1.81482 0
M  V30 4559 H 422.51 -3.67076 -0.639215 0
M  V30 4560 H 422.623 -4.69778 0.940515 0
M  V30 4561 H 420.987 -2.51463 0.404757 0
M  V30 4562 H 421.77 -2.74621 2.06005 0
M  V30 4563 N 424.215 -0.530993 -1.48385 0
M  V30 4564 C 425.462 0.0027373 -2.025 0
M  V30 4565 C 425.79 1.34186 -1.40799 0
M  V30 4566 O 425.045 1.88 -0.543544 0
M  V30 4567 C 425.344 0.172742 -3.56982 0
M  V30 4568 C 425.01 -1.09215 -4.37473 0
M  V30 4569 C 423.672 -1.43881 -4.59186 0
M  V30 4570 C 426.024 -1.93153 -4.84088 0
M  V30 4571 C 423.352 -2.62381 -5.2476 0
M  V30 4572 C 425.704 -3.10833 -5.50968 0
M  V30 4573 C 424.368 -3.45843 -5.70919 0
M  V30 4574 H 423.638 0.00100165 -0.740999 0
M  V30 4575 H 426.285 -0.697219 -1.78357 0
M  V30 4576 H 424.59 0.955473 -3.79971 0
M  V30 4577 H 426.287 0.600642 -3.96476 0
M  V30 4578 H 422.877 -0.812177 -4.20834 0
M  V30 4579 H 427.061 -1.67683 -4.67115 0
M  V30 4580 H 422.317 -2.89707 -5.38405 0
M  V30 4581 H 426.491 -3.7618 -5.86056 0
M  V30 4582 H 424.118 -4.37764 -6.21503 0
M  V30 4583 N 425.693 1.55336 -0.266172 0
M  V30 4584 C 426.942 1.98574 0.353749 0
M  V30 4585 C 427.255 1.15789 1.57646 0
M  V30 4586 O 428.461 1.49129 2.26876 0
M  V30 4587 C 426.917 3.53403 0.680747 0
M  V30 4588 C 426.525 4.44953 -0.52165 0
M  V30 4589 C 428.269 4.05251 1.26379 0
M  V30 4590 C 426.176 5.91156 -0.169736 0
M  V30 4591 H 425.106 0.741643 0.135949 0
M  V30 4592 H 427.757 1.79743 -0.369421 0
M  V30 4593 H 426.139 3.68001 1.46257 0
M  V30 4594 H 427.313 4.42121 -1.29869 0
M  V30 4595 H 425.628 4.03691 -1.02093 0
M  V30 4596 H 428.225 5.12021 1.54074 0
M  V30 4597 H 428.568 3.53749 2.19471 0
M  V30 4598 H 429.101 3.94057 0.544447 0
M  V30 4599 H 425.84 6.46736 -1.0683 0
M  V30 4600 H 425.36 5.97079 0.570717 0
M  V30 4601 H 427.039 6.4655 0.241245 0
M  V30 4602 N 427.171 -0.0066808 1.57599 0
M  V30 4603 C 428.587 -0.36267 1.55425 0
M  V30 4604 C 428.787 -1.75209 0.995187 0
M  V30 4605 O 427.843 -2.44616 0.626058 0
M  V30 4606 C 429.156 -0.244017 2.99708 0
M  V30 4607 C 430.704 -0.319451 3.11366 0
M  V30 4608 C 431.179 -0.229998 4.57422 0
M  V30 4609 N 432.67 -0.288105 4.62303 0
M  V30 4610 C 433.405 -0.242127 5.72889 0
M  V30 4611 N 432.901 -0.147133 6.92644 0
M  V30 4612 N 434.694 -0.293502 5.61333 0
M  V30 4613 H 426.845 0.902314 1.92281 0
M  V30 4614 H 429.108 0.34525 0.882896 0
M  V30 4615 H 428.814 0.711678 3.44424 0
M  V30 4616 H 428.688 -1.02877 3.629 0
M  V30 4617 H 431.075 -1.26559 2.66584 0
M  V30 4618 H 431.156 0.495055 2.50964 0
M  V30 4619 H 430.8 0.712566 5.02877 0
M  V30 4620 H 430.73 -1.0629 5.15761 0
M  V30 4621 H 433.221 -0.363126 3.76151 0
M  V30 4622 H 433.534 -0.117763 7.7271 0
M  V30 4623 H 431.879 -0.112857 6.94908 0
M  V30 4624 H 435.07 -0.365864 4.66668 0
M  V30 4625 H 435.243 -0.254204 6.47501 0
M  V30 4626 N 428.649 -1.55105 -0.279332 0
M  V30 4627 C 429.926 -1.66119 -1.03267 0
M  V30 4628 C 430.306 -0.523525 -2.04505 0
M  V30 4629 O 429.654 0.477194 -2.23462 0
M  V30 4630 C 429.864 -3.05067 -1.69515 0
M  V30 4631 C 431.212 -3.62606 -2.20912 0
M  V30 4632 O 432.236 -3.07659 -1.79512 0
M  V30 4633 O 431.095 -4.58861 -2.96831 0
M  V30 4634 H 428.189 -0.674429 -0.478618 0
M  V30 4635 H 430.735 -1.67446 -0.275694 0
M  V30 4636 H 429.507 -3.79311 -0.9612 0
M  V30 4637 H 429.13 -3.07611 -2.51915 0
M  V30 4638 N 430.127 0.543554 -1.4793 0
M  V30 4639 C 431.059 1.665 -1.57513 0
M  V30 4640 C 432.072 1.56156 -0.460333 0
M  V30 4641 O 433.261 1.62865 -0.730573 0
M  V30 4642 C 430.361 3.05063 -1.47614 0
M  V30 4643 C 429.534 3.41024 -2.739 0
M  V30 4644 C 428.593 4.58809 -2.57645 0
M  V30 4645 O 427.619 4.62707 -3.31498 0
M  V30 4646 N 428.821 5.56149 -1.66368 0
M  V30 4647 H 431.586 1.5872 -2.5422 0
M  V30 4648 H 429.147 0.730517 -1.44482 0
M  V30 4649 H 431.139 3.81712 -1.34455 0
M  V30 4650 H 429.709 3.06994 -0.589359 0
M  V30 4651 H 428.929 2.53687 -3.01723 0
M  V30 4652 H 430.217 3.61831 -3.57709 0
M  V30 4653 H 429.615 5.55767 -1.05543 0
M  V30 4654 H 428.172 6.32071 -1.59154 0
M  V30 4655 N 431.605 1.3629 0.791371 0
M  V30 4656 C 433.016 1.27225 1.36641 0
M  V30 4657 C 433.367 -0.0887968 1.95999 0
M  V30 4658 O 432.492 -0.990207 1.92416 0
M  V30 4659 C 433.087 2.30375 2.48421 0
M  V30 4660 C 431.646 2.25004 3.01746 0
M  V30 4661 C 430.793 2.15259 1.7481 0
M  V30 4662 H 433.744 1.47198 0.593173 0
M  V30 4663 H 433.765 1.93905 3.27385 0
M  V30 4664 H 433.277 3.29422 2.05189 0
M  V30 4665 H 431.378 1.29417 3.49403 0
M  V30 4666 H 431.491 3.1761 3.58693 0
M  V30 4667 H 429.855 1.61482 1.96966 0
M  V30 4668 H 430.638 3.16191 1.33709 0
M  V30 4669 N 433.083 -1.0153 1.20538 0
M  V30 4670 C 434.031 -2.12215 0.952235 0
M  V30 4671 C 435.025 -1.69123 -0.0968735 0
M  V30 4672 O 436.231 -1.7992 0.0536006 0
M  V30 4673 H 432.606 -0.693576 0.290613 0
M  V30 4674 H 434.577 -2.3075 1.89201 0
M  V30 4675 C 433.326 -3.43755 0.522287 0
M  V30 4676 H 432.649 -3.7734 1.32115 0
M  V30 4677 H 434.089 -4.22254 0.384389 0
M  V30 4678 C 432.548 -3.28088 -0.765489 0
M  V30 4679 O 433.078 -3.57921 -1.8236 0
M  V30 4680 N 431.284 -2.81333 -0.728011 0
M  V30 4681 H 430.831 -2.57255 0.133332 0
M  V30 4682 H 430.789 -2.71232 -1.58999 0
M  V30 4683 N 434.561 -1.01147 -1.20859 0
M  V30 4684 C 435.471 -0.58686 -2.27141 0
M  V30 4685 C 436.487 0.373198 -1.69951 0
M  V30 4686 O 437.663 0.235423 -2.00019 0
M  V30 4687 C 434.728 0.0733602 -3.46622 0
M  V30 4688 C 433.789 -0.931995 -4.19061 0
M  V30 4689 C 433.022 -0.303186 -5.32838 0
M  V30 4690 O 433.245 0.898395 -5.63281 0
M  V30 4691 O 432.179 -1.01735 -5.9324 0
M  V30 4692 H 436.005 -1.47155 -2.65667 0
M  V30 4693 H 433.59 -0.780689 -1.2738 0
M  V30 4694 H 435.472 0.442333 -4.19072 0
M  V30 4695 H 434.147 0.932329 -3.09983 0
M  V30 4696 H 433.054 -1.35224 -3.48805 0
M  V30 4697 H 434.387 -1.76076 -4.59628 0
M  V30 4698 N 436.039 1.36541 -0.78704 0
M  V30 4699 C 437.455 1.52571 -0.46844 0
M  V30 4700 C 437.655 1.7415 1.01361 0
M  V30 4701 O 436.711 1.77163 1.79915 0
M  V30 4702 C 438.024 2.71299 -1.29682 0
M  V30 4703 C 439.572 2.85169 -1.29027 0
M  V30 4704 C 440.047 4.06898 -2.10233 0
M  V30 4705 N 441.538 4.1404 -2.07666 0
M  V30 4706 C 442.273 5.07301 -2.67271 0
M  V30 4707 N 441.769 6.06021 -3.35724 0
M  V30 4708 N 443.562 4.99898 -2.57018 0
M  V30 4709 H 435.713 1.20788 -1.74711 0
M  V30 4710 H 437.976 0.589364 -0.742532 0
M  V30 4711 H 437.682 2.61868 -2.34773 0
M  V30 4712 H 437.556 3.6539 -0.936479 0
M  V30 4713 H 439.943 2.94062 -0.247284 0
M  V30 4714 H 440.024 1.91992 -1.69035 0
M  V30 4715 H 439.668 3.98766 -3.1456 0
M  V30 4716 H 439.598 4.99218 -1.67597 0
M  V30 4717 H 442.089 3.43357 -1.57843 0
M  V30 4718 H 442.402 6.73741 -3.78541 0
M  V30 4719 H 440.747 6.06253 -3.39826 0
M  V30 4720 H 443.938 4.21724 -2.03142 0
M  V30 4721 H 444.111 5.72392 -3.03761 0
M  V30 4722 N 437.518 0.538854 1.48102 0
M  V30 4723 C 438.45 -0.256278 2.27763 0
M  V30 4724 C 439.463 -0.89633 1.35904 0
M  V30 4725 O 440.652 -0.773275 1.60881 0
M  V30 4726 C 437.752 -1.37896 3.09577 0
M  V30 4727 C 436.925 -0.839159 4.29275 0
M  V30 4728 C 435.984 -1.84405 4.9283 0
M  V30 4729 O 435.01 -1.39746 5.51779 0
M  V30 4730 N 436.212 -3.17666 4.85869 0
M  V30 4731 H 438.977 0.426968 2.96643 0
M  V30 4732 H 436.538 0.373747 1.57527 0
M  V30 4733 H 438.53 -2.04955 3.48963 0
M  V30 4734 H 437.1 -1.96572 2.4306 0
M  V30 4735 H 436.32 0.00769287 3.94199 0
M  V30 4736 H 437.608 -0.457548 5.06739 0
M  V30 4737 H 437.006 -3.56609 4.39143 0
M  V30 4738 H 435.563 -3.80334 5.29329 0
M  V30 4739 N 438.996 -1.55193 0.274407 0
M  V30 4740 C 440.242 -1.99877 -0.343086 0
M  V30 4741 C 440.575 -1.16256 -1.55558 0
M  V30 4742 O 439.85 -0.232462 -1.93106 0
M  V30 4743 C 440.133 -3.52706 -0.725965 0
M  V30 4744 C 439.986 -4.47081 0.493818 0
M  V30 4745 C 441.305 -4.11422 -1.56268 0
M  V30 4746 H 438.424 -0.726625 -0.123229 0
M  V30 4747 H 441.066 -1.86136 0.38121 0
M  V30 4748 H 439.216 -3.64546 -1.34307 0
M  V30 4749 H 440.888 -4.47186 1.13237 0
M  V30 4750 H 439.131 -4.1877 1.13201 0
M  V30 4751 H 439.802 -5.51699 0.18217 0
M  V30 4752 H 442.278 -4.02855 -1.04151 0
M  V30 4753 H 441.154 -5.18568 -1.79939 0
M  V30 4754 H 441.415 -3.61607 -2.54348 0
M  V30 4755 N 440.474 -0.00167713 -1.576 0
M  V30 4756 C 441.89 0.354422 -1.55615 0
M  V30 4757 C 442.09 1.74679 -1.00447 0
M  V30 4758 O 441.146 2.4428 -0.639022 0
M  V30 4759 C 442.459 0.22812 -2.99833 0
M  V30 4760 C 444.007 0.302934 -3.11531 0
M  V30 4761 C 444.482 0.205737 -4.57538 0
M  V30 4762 N 445.973 0.263584 -4.62449 0
M  V30 4763 C 446.708 0.211742 -5.73009 0
M  V30 4764 N 446.204 0.110399 -6.92712 0
M  V30 4765 N 447.997 0.263729 -5.61481 0
M  V30 4766 H 440.148 -0.912498 -1.918 0
M  V30 4767 H 442.411 -0.349928 -0.881053 0
M  V30 4768 H 442.117 -0.729934 -3.44042 0
M  V30 4769 H 441.991 1.00951 -3.6344 0
M  V30 4770 H 444.378 1.25143 -2.67251 0
M  V30 4771 H 444.459 -0.508357 -2.50698 0
M  V30 4772 H 444.103 -0.739225 -5.02492 0
M  V30 4773 H 444.033 1.03554 -5.16318 0
M  V30 4774 H 446.524 0.343173 -3.76339 0
M  V30 4775 H 446.837 0.0767828 -7.72762 0
M  V30 4776 H 445.182 0.0760025 -6.94958 0
M  V30 4777 H 448.373 0.34111 -4.66855 0
M  V30 4778 H 448.546 0.219862 -6.47627 0
M  V30 4779 N 441.952 1.55251 0.271103 0
M  V30 4780 C 443.201 1.75151 1.00025 0
M  V30 4781 C 443.514 0.561041 1.87381 0
M  V30 4782 O 444.72 0.642506 2.63788 0
M  V30 4783 C 443.176 3.09999 1.82835 0
M  V30 4784 C 442.784 4.3662 1.00336 0
M  V30 4785 C 444.528 3.39249 2.55168 0
M  V30 4786 C 442.435 5.62506 1.82595 0
M  V30 4787 H 441.365 0.652877 0.377183 0
M  V30 4788 H 444.016 1.81708 0.255843 0
M  V30 4789 H 442.398 2.97485 2.61378 0
M  V30 4790 H 443.572 4.60055 0.261959 0
M  V30 4791 H 441.887 4.14527 0.394486 0
M  V30 4792 H 444.484 4.3051 3.1712 0
M  V30 4793 H 444.827 2.59467 3.2555 0
M  V30 4794 H 445.36 3.52869 1.83653 0
M  V30 4795 H 442.099 6.45041 1.16631 0
M  V30 4796 H 441.619 5.43211 2.54327 0
M  V30 4797 H 443.298 6.00875 2.39913 0
M  V30 4798 N 443.43 -0.535701 1.48216 0
M  V30 4799 C 444.362 -1.65662 1.58394 0
M  V30 4800 C 445.375 -1.5591 0.468607 0
M  V30 4801 O 446.564 -1.62475 0.7392 0
M  V30 4802 C 443.664 -3.04276 1.4923 0
M  V30 4803 C 442.837 -3.39567 2.75705 0
M  V30 4804 C 441.896 -4.57436 2.60075 0
M  V30 4805 O 440.922 -4.60942 3.33948 0
M  V30 4806 N 442.124 -5.55259 1.69315 0
M  V30 4807 H 444.889 -1.5737 2.55058 0
M  V30 4808 H 442.45 -0.722845 1.44867 0
M  V30 4809 H 444.442 -3.80994 1.36477 0
M  V30 4810 H 443.012 -3.06677 0.605632 0
M  V30 4811 H 442.232 -2.52083 3.03064 0
M  V30 4812 H 443.52 -3.59929 3.59623 0
M  V30 4813 H 442.918 -5.552 1.08489 0
M  V30 4814 H 441.475 -6.31218 1.62504 0
M  V30 4815 N 444.908 -1.36708 -0.784132 0
M  V30 4816 C 445.838 -1.34153 -1.91116 0
M  V30 4817 C 446.819 -0.212121 -1.68772 0
M  V30 4818 O 448.004 -0.410581 -1.8981 0
M  V30 4819 C 445.134 -1.13535 -3.28218 0
M  V30 4820 C 444.088 -2.23356 -3.65097 0
M  V30 4821 C 443.414 -1.87875 -5.00607 0
M  V30 4822 C 444.714 -3.65473 -3.73131 0
M  V30 4823 H 446.408 -2.28459 -1.93512 0
M  V30 4824 H 443.954 -1.09973 -0.929618 0
M  V30 4825 H 445.907 -1.10381 -4.06687 0
M  V30 4826 H 444.631 -0.156804 -3.26223 0
M  V30 4827 H 443.29 -2.25645 -2.88929 0
M  V30 4828 H 442.938 -0.885814 -4.95139 0
M  V30 4829 H 442.638 -2.61406 -5.26252 0
M  V30 4830 H 444.162 -1.86286 -5.81489 0
M  V30 4831 H 445.576 -3.65382 -4.41779 0
M  V30 4832 H 443.973 -4.37953 -4.10265 0
M  V30 4833 H 445.043 -3.99995 -2.74102 0
M  V30 4834 N 446.386 1.0089 -1.21074 0
M  V30 4835 C 447.333 2.09588 -0.966512 0
M  V30 4836 C 448.303 1.65761 0.106089 0
M  V30 4837 O 449.488 1.90758 -0.0402287 0
M  V30 4838 C 446.628 3.40958 -0.533058 0
M  V30 4839 C 445.741 3.9822 -1.67467 0
M  V30 4840 C 444.876 5.17682 -1.19076 0
M  V30 4841 C 443.915 5.67043 -2.30496 0
M  V30 4842 N 443.052 6.77759 -1.83267 0
M  V30 4843 H 447.892 2.29815 -1.89708 0
M  V30 4844 H 445.429 1.12689 -0.945489 0
M  V30 4845 H 447.387 4.1637 -0.263019 0
M  V30 4846 H 446.017 3.20781 0.360505 0
M  V30 4847 H 445.069 3.1983 -2.05944 0
M  V30 4848 H 446.381 4.3085 -2.51336 0
M  V30 4849 H 445.535 6.00326 -0.877151 0
M  V30 4850 H 444.274 4.86635 -0.322066 0
M  V30 4851 H 443.279 4.82999 -2.62664 0
M  V30 4852 H 444.504 6.00121 -3.17855 0
M  V30 4853 H 442.45 6.48527 -0.987356 0
M  V30 4854 H 442.367 7.09624 -2.60711 0
M  V30 4855 H 443.635 7.63949 -1.54928 0
M  V30 4856 N 447.864 1.01787 1.20321 0
M  V30 4857 C 449.141 0.622978 1.85414 0
M  V30 4858 C 449.521 -0.898887 1.91006 0
M  V30 4859 O 448.869 -1.79112 1.41884 0
M  V30 4860 C 449.079 1.27226 3.24984 0
M  V30 4861 C 450.427 1.3885 4.01255 0
M  V30 4862 O 451.451 1.22857 3.34342 0
M  V30 4863 O 450.31 1.64705 5.2109 0
M  V30 4864 H 447.404 0.215116 0.798533 0
M  V30 4865 H 449.95 1.11533 1.27901 0
M  V30 4866 H 448.722 2.31209 3.15687 0
M  V30 4867 H 448.345 0.767069 3.90131 0
M  V30 4868 N 449.342 -1.36122 0.79427 0
M  V30 4869 C 450.292 -2.27373 0.169017 0
M  V30 4870 C 451.276 -1.4719 -0.649913 0
M  V30 4871 O 452.468 -1.69518 -0.50919 0
M  V30 4872 C 449.597 -3.36264 -0.691455 0
M  V30 4873 C 448.683 -4.2388 0.13653 0
M  V30 4874 N 449.074 -4.91519 1.19345 0
M  V30 4875 C 447.372 -4.45921 -0.0838499 0
M  V30 4876 C 448.073 -5.56369 1.6979 0
M  V30 4877 N 447.049 -5.34204 1.00634 0
M  V30 4878 H 450.851 -2.77154 0.977897 0
M  V30 4879 H 448.365 -1.49504 0.634208 0
M  V30 4880 H 450.362 -4.00572 -1.15534 0
M  V30 4881 H 449.022 -2.88037 -1.49883 0
M  V30 4882 H 450.033 -4.9334 1.57594 0
M  V30 4883 H 446.71 -4.08518 -0.861341 0
M  V30 4884 H 448.1 -6.20368 2.58055 0
M  V30 4885 N 450.82 -0.546701 -1.47814 0
M  V30 4886 C 452.069 -0.0166497 -2.01693 0
M  V30 4887 C 452.382 1.33721 -1.42752 0
M  V30 4888 O 453.588 1.95658 -1.8823 0
M  V30 4889 C 452.044 0.0206769 -3.59894 0
M  V30 4890 C 451.652 -1.3293 -4.27824 0
M  V30 4891 C 453.396 0.498674 -4.21561 0
M  V30 4892 C 451.303 -1.25165 -5.78003 0
M  V30 4893 H 450.233 -0.0024541 -0.753996 0
M  V30 4894 H 452.884 -0.692984 -1.69912 0
M  V30 4895 H 451.266 0.76244 -3.88591 0
M  V30 4896 H 452.44 -2.08795 -4.10781 0
M  V30 4897 H 450.755 -1.74438 -3.78101 0
M  V30 4898 H 453.352 0.575 -5.31599 0
M  V30 4899 H 453.695 1.5083 -3.88016 0
M  V30 4900 H 454.228 -0.18791 -3.97356 0
M  V30 4901 H 450.967 -2.23695 -6.1615 0
M  V30 4902 H 450.487 -0.53464 -5.97412 0
M  V30 4903 H 452.166 -0.949299 -6.39998 0
M  V30 4904 N 452.299 1.55045 -0.282633 0
M  V30 4905 C 453.576 1.9179 0.384166 0
M  V30 4906 C 453.956 1.20778 1.73136 0
M  V30 4907 O 453.304 0.33719 2.25998 0
M  V30 4908 C 453.514 3.45149 0.517014 0
M  V30 4909 C 454.862 4.17064 0.796427 0
M  V30 4910 O 455.886 3.51084 0.601535 0
M  V30 4911 O 454.745 5.33837 1.16962 0
M  V30 4912 H 451.839 0.799483 0.211558 0
M  V30 4913 H 454.385 1.66474 -0.32934 0
M  V30 4914 H 453.157 3.88922 -0.430772 0
M  V30 4915 H 452.78 3.76443 1.2797 0
M  V30 4916 N 453.777 0.010035 1.57597 0
M  V30 4917 C 455.193 -0.346164 1.55801 0
M  V30 4918 C 455.393 -1.74144 1.01371 0
M  V30 4919 O 454.449 -2.43938 0.651968 0
M  V30 4920 C 455.762 -0.212216 2.9995 0
M  V30 4921 C 457.31 -0.286409 3.11687 0
M  V30 4922 C 457.785 -0.18147 4.5764 0
M  V30 4923 N 459.276 -0.239056 4.62583 0
M  V30 4924 C 460.011 -0.181351 5.73113 0
M  V30 4925 N 459.507 -0.073661 6.92761 0
M  V30 4926 N 461.3 -0.233949 5.61613 0
M  V30 4927 H 453.451 0.922657 1.91313 0
M  V30 4928 H 455.714 0.354595 0.879185 0
M  V30 4929 H 455.42 0.748169 3.4365 0
M  V30 4930 H 455.294 -0.990224 3.6397 0
M  V30 4931 H 457.681 -1.23724 2.67911 0
M  V30 4932 H 457.762 0.521645 2.50425 0
M  V30 4933 H 457.406 0.765863 5.02093 0
M  V30 4934 H 457.336 -1.00814 5.1686 0
M  V30 4935 H 459.827 -0.32321 3.76515 0
M  V30 4936 H 460.14 -0.0358003 7.72792 0
M  V30 4937 H 458.485 -0.0391461 6.94989 0
M  V30 4938 H 461.676 -0.316347 4.6703 0
M  V30 4939 H 461.849 -0.185514 6.47734 0
M  V30 4940 N 455.255 -1.55392 -0.262866 0
M  V30 4941 C 456.483 -1.80513 -1.01108 0
M  V30 4942 C 456.898 -0.583533 -1.79556 0
M  V30 4943 O 456.255 0.447585 -1.76926 0
M  V30 4944 C 456.306 -3.03648 -1.96164 0
M  V30 4945 O 456.027 -4.2109 -1.20893 0
M  V30 4946 C 457.528 -3.41448 -2.82715 0
M  V30 4947 H 454.748 -0.601079 -0.298236 0
M  V30 4948 H 457.292 -2.02425 -0.290582 0
M  V30 4949 H 455.447 -2.83832 -2.63663 0
M  V30 4950 H 455.861 -4.90771 -1.85051 0
M  V30 4951 H 457.335 -4.30751 -3.45192 0
M  V30 4952 H 457.812 -2.61308 -3.53008 0
M  V30 4953 H 458.418 -3.63559 -2.20693 0
M  V30 4954 N 456.733 0.527833 -1.48498 0
M  V30 4955 C 458.149 0.856571 -1.34666 0
M  V30 4956 C 458.349 1.98271 -0.35931 0
M  V30 4957 O 457.405 2.51551 0.218703 0
M  V30 4958 C 458.718 1.22207 -2.74747 0
M  V30 4959 C 460.266 1.33183 -2.83251 0
M  V30 4960 C 460.741 1.73075 -4.24039 0
M  V30 4961 N 462.232 1.80174 -4.26722 0
M  V30 4962 C 462.967 2.1243 -5.32598 0
M  V30 4963 N 462.463 2.43096 -6.4875 0
M  V30 4964 N 464.256 2.13454 -5.19994 0
M  V30 4965 H 456.407 -0.215174 -2.11307 0
M  V30 4966 H 458.67 -0.0336281 -0.947403 0
M  V30 4967 H 458.376 0.468195 -3.4857 0
M  V30 4968 H 458.25 2.17173 -3.08409 0
M  V30 4969 H 460.637 2.07647 -2.09683 0
M  V30 4970 H 460.718 0.363333 -2.53206 0
M  V30 4971 H 460.362 0.991712 -4.98124 0
M  V30 4972 H 460.292 2.70979 -4.51529 0
M  V30 4973 H 462.783 1.58744 -3.42942 0
M  V30 4974 H 463.096 2.6682 -7.25277 0
M  V30 4975 H 461.441 2.40611 -6.52021 0
M  V30 4976 H 464.632 1.88956 -4.28268 0
M  V30 4977 H 464.805 2.38261 -6.02608 0
M  V30 4978 N 458.211 1.37122 0.776871 0
M  V30 4979 C 459.158 1.3247 1.88998 0
M  V30 4980 C 460.128 0.191143 1.64997 0
M  V30 4981 O 461.313 0.379683 1.86984 0
M  V30 4982 C 458.453 1.13241 3.25992 0
M  V30 4983 C 457.566 2.35782 3.61982 0
M  V30 4984 C 456.701 2.09465 4.88158 0
M  V30 4985 C 455.74 3.279 5.16864 0
M  V30 4986 N 454.877 3.01167 6.34226 0
M  V30 4987 H 459.717 2.27642 1.9231 0
M  V30 4988 H 457.254 1.13125 0.94027 0
M  V30 4989 H 459.212 1.00115 4.0501 0
M  V30 4990 H 457.842 0.217186 3.22069 0
M  V30 4991 H 456.894 2.59666 2.77989 0
M  V30 4992 H 458.206 3.24125 3.79137 0
M  V30 4993 H 457.36 1.93341 5.75069 0
M  V30 4994 H 456.099 1.18452 4.73097 0
M  V30 4995 H 455.104 3.44569 4.2843 0
M  V30 4996 H 456.329 4.19757 5.33836 0
M  V30 4997 H 454.275 2.12779 6.20533 0
M  V30 4998 H 454.192 3.83052 6.51772 0
M  V30 4999 H 455.46 2.88649 7.24087 0
M  V30 5000 N 459.689 -1.00246 1.21608 0
M  V30 5001 C 460.636 -2.09073 0.977613 0
M  V30 5002 C 461.606 -1.65815 -0.097297 0
M  V30 5003 O 462.791 -1.90734 0.0503445 0
M  V30 5004 C 459.931 -3.40671 0.551133 0
M  V30 5005 C 459.044 -3.97326 1.69576 0
M  V30 5006 C 458.179 -5.17043 1.2182 0
M  V30 5007 C 457.218 -5.65813 2.335 0
M  V30 5008 N 456.355 -6.76778 1.86859 0
M  V30 5009 H 461.195 -2.28806 1.90924 0
M  V30 5010 H 458.732 -1.12186 0.951452 0
M  V30 5011 H 460.69 -4.16225 0.285097 0
M  V30 5012 H 459.32 -3.20967 -0.343489 0
M  V30 5013 H 458.372 -3.18734 2.07637 0
M  V30 5014 H 459.684 -4.29511 2.53617 0
M  V30 5015 H 458.838 -5.99852 0.908975 0
M  V30 5016 H 457.577 -4.86458 0.347869 0
M  V30 5017 H 456.582 -4.81599 2.65222 0
M  V30 5018 H 457.807 -5.98427 3.21033 0
M  V30 5019 H 455.753 -6.47994 1.02174 0
M  V30 5020 H 455.67 -7.08231 2.64471 0
M  V30 5021 H 456.938 -7.63116 1.58978 0
M  V30 5022 N 461.167 -1.02423 -1.1978 0
M  V30 5023 C 462.583 -0.740459 -1.41384 0
M  V30 5024 C 462.783 0.676827 -1.89793 0
M  V30 5025 O 461.839 1.4435 -2.0717 0
M  V30 5026 C 463.152 -1.77264 -2.42895 0
M  V30 5027 C 464.7 -1.79165 -2.56649 0
M  V30 5028 C 465.175 -2.8133 -3.6141 0
M  V30 5029 N 466.666 -2.80118 -3.68901 0
M  V30 5030 C 467.401 -3.55824 -4.49641 0
M  V30 5031 N 466.897 -4.41231 -5.34123 0
M  V30 5032 N 468.69 -3.44387 -4.44246 0
M  V30 5033 H 460.841 -1.9391 -0.866764 0
M  V30 5034 H 463.104 -0.838074 -0.443098 0
M  V30 5035 H 462.81 -2.7884 -2.14339 0
M  V30 5036 H 462.684 -1.59108 -3.42001 0
M  V30 5037 H 465.071 -0.782702 -2.84531 0
M  V30 5038 H 465.152 -2.01396 -1.57713 0
M  V30 5039 H 464.796 -3.82394 -3.34271 0
M  V30 5040 H 464.726 -2.56359 -4.59986 0
M  V30 5041 H 467.217 -2.1817 -3.08562 0
M  V30 5042 H 467.53 -4.95747 -5.92836 0
M  V30 5043 H 465.875 -4.45306 -5.33599 0
M  V30 5044 H 469.066 -2.7708 -3.77285 0
M  V30 5045 H 469.239 -4.0364 -5.06931 0
M  V30 5046 N 462.645 1.35699 -0.801477 0
M  V30 5047 C 463.893 1.9852 -0.37871 0
M  V30 5048 C 464.214 1.63907 1.05638 0
M  V30 5049 O 463.484 0.919013 1.73006 0
M  V30 5050 H 462.064 0.734322 -0.137042 0
M  V30 5051 H 464.726 1.65697 -1.02619 0
M  V30 5052 H 463.822 3.08382 -0.480284 0
M  V30 5053 N 464.123 0.554532 1.47522 0
M  V30 5054 C 465.033 -0.197865 2.33764 0
M  V30 5055 C 466.049 -0.914576 1.48025 0
M  V30 5056 O 467.225 -0.884067 1.80959 0
M  V30 5057 C 464.29 -1.21628 3.24665 0
M  V30 5058 C 463.351 -0.507283 4.26292 0
M  V30 5059 C 462.584 -1.47718 5.1285 0
M  V30 5060 O 462.807 -2.7118 5.01814 0
M  V30 5061 O 461.741 -1.00313 5.93482 0
M  V30 5062 H 465.567 0.50949 2.99396 0
M  V30 5063 H 463.152 0.315176 1.46038 0
M  V30 5064 H 465.034 -1.80421 3.80823 0
M  V30 5065 H 463.709 -1.9056 2.61665 0
M  V30 5066 H 462.616 0.121778 3.73902 0
M  V30 5067 H 463.949 0.140544 4.91999 0
M  V30 5068 N 465.601 -1.54893 0.290851 0
M  V30 5069 C 466.548 -2.23138 -0.58974 0
M  V30 5070 C 467.518 -1.21036 -1.13752 0
M  V30 5071 O 468.703 -1.49626 -1.18392 0
M  V30 5072 C 465.843 -2.96811 -1.76061 0
M  V30 5073 C 464.956 -4.13665 -1.24519 0
M  V30 5074 C 464.091 -4.74944 -2.3791 0
M  V30 5075 C 463.13 -5.83963 -1.83451 0
M  V30 5076 N 462.267 -6.39239 -2.90376 0
M  V30 5077 H 467.107 -2.98 -0.00114915 0
M  V30 5078 H 464.644 -1.47096 0.0112006 0
M  V30 5079 H 466.602 -3.37751 -2.44909 0
M  V30 5080 H 465.232 -2.24344 -2.32098 0
M  V30 5081 H 464.284 -3.77737 -0.449288 0
M  V30 5082 H 465.596 -4.92238 -0.806424 0
M  V30 5083 H 464.75 -5.18684 -3.14724 0
M  V30 5084 H 463.489 -3.95682 -2.85109 0
M  V30 5085 H 462.494 -5.39657 -1.05122 0
M  V30 5086 H 463.719 -6.65103 -1.37169 0
M  V30 5087 H 461.665 -5.62864 -3.36927 0
M  V30 5088 H 461.582 -7.13129 -2.50965 0
M  V30 5089 H 462.85 -6.87637 -3.67118 0
M  V30 5090 N 467.08 -0.0183926 -1.57589 0
M  V30 5091 C 468.357 0.700621 -1.82622 0
M  V30 5092 C 468.737 1.90951 -0.90005 0
M  V30 5093 O 468.085 2.28452 0.0469145 0
M  V30 5094 C 468.295 1.08899 -3.31575 0
M  V30 5095 C 469.643 1.48514 -3.9778 0
M  V30 5096 O 470.667 1.18227 -3.36007 0
M  V30 5097 O 469.526 2.04903 -5.06633 0
M  V30 5098 H 466.62 0.342743 -0.752633 0
M  V30 5099 H 469.166 -0.0452548 -1.6964 0
M  V30 5100 H 467.938 0.228113 -3.90635 0
M  V30 5101 H 467.561 1.89338 -3.49624 0
M  V30 5102 N 468.558 1.5553 0.254621 0
M  V30 5103 C 469.468 1.92789 1.33677 0
M  V30 5104 C 470.484 0.827356 1.53071 0
M  V30 5105 O 471.66 1.12807 1.66843 0
M  V30 5106 C 468.725 2.20827 2.67275 0
M  V30 5107 C 467.786 3.4427 2.5647 0
M  V30 5108 C 467.019 3.70961 3.83697 0
M  V30 5109 O 467.242 2.99852 4.85227 0
M  V30 5110 O 466.176 4.64491 3.82794 0
M  V30 5111 H 470.002 2.84945 1.05071 0
M  V30 5112 H 467.587 1.42312 0.454723 0
M  V30 5113 H 469.469 2.40204 3.46237 0
M  V30 5114 H 468.144 1.31851 2.9563 0
M  V30 5115 H 467.051 3.30209 1.75821 0
M  V30 5116 H 468.384 4.33524 2.33062 0
M  V30 5117 N 470.036 -0.519951 1.48776 0
M  V30 5118 C 471.264 -1.29971 1.60982 0
M  V30 5119 C 471.679 -1.86803 0.273885 0
M  V30 5120 O 471.036 -1.66904 -0.738193 0
M  V30 5121 C 471.087 -2.44346 2.66415 0
M  V30 5122 O 470.808 -1.89855 3.94825 0
M  V30 5123 C 472.309 -3.36014 2.89153 0
M  V30 5124 H 469.529 -0.394891 0.542496 0
M  V30 5125 H 472.073 -0.626214 1.94676 0
M  V30 5126 H 470.228 -3.07562 2.35552 0
M  V30 5127 H 470.642 -2.64798 4.5275 0
M  V30 5128 H 472.116 -4.12593 3.66703 0
M  V30 5129 H 472.593 -3.91859 1.98351 0
M  V30 5130 H 473.199 -2.78582 3.21359 0
M  V30 5131 N 471.514 -1.37532 -0.769588 0
M  V30 5132 C 472.424 -1.35668 -1.91393 0
M  V30 5133 C 473.44 -0.255954 -1.72107 0
M  V30 5134 O 474.616 -0.491704 -1.95305 0
M  V30 5135 C 471.681 -1.16481 -3.26547 0
M  V30 5136 C 470.742 -2.36212 -3.58472 0
M  V30 5137 C 469.975 -2.17932 -4.87177 0
M  V30 5138 O 470.198 -1.1647 -5.58382 0
M  V30 5139 O 469.132 -3.06167 -5.18214 0
M  V30 5140 H 472.958 -2.32055 -1.95918 0
M  V30 5141 H 470.543 -1.18284 -0.912641 0
M  V30 5142 H 472.425 -1.07778 -4.07384 0
M  V30 5143 H 471.1 -0.231687 -3.2287 0
M  V30 5144 H 470.007 -2.50488 -2.77861 0
M  V30 5145 H 471.34 -3.281 -3.66894 0
M  V30 5146 N 472.992 0.995999 -1.22138 0
M  V30 5147 C 474.222 1.76809 -1.06874 0
M  V30 5148 C 474.63 1.85265 0.383866 0
M  V30 5149 O 473.973 1.31969 1.27789 0
M  V30 5150 C 474.035 3.2186 -1.60144 0
M  V30 5151 C 473.699 3.36958 -3.0872 0
M  V30 5152 C 474.696 3.2452 -4.0618 0
M  V30 5153 C 472.381 3.62109 -3.48112 0
M  V30 5154 C 474.375 3.37013 -5.41019 0
M  V30 5155 C 472.062 3.74243 -4.831 0
M  V30 5156 C 473.06 3.61702 -5.79362 0
M  V30 5157 O 472.748 3.73436 -7.119 0
M  V30 5158 H 472.48 0.562207 -0.375365 0
M  V30 5159 H 475.034 1.26113 -1.62125 0
M  V30 5160 H 473.264 3.73734 -0.992981 0
M  V30 5161 H 474.953 3.80775 -1.40589 0
M  V30 5162 H 475.719 3.05004 -3.77091 0
M  V30 5163 H 471.598 3.70949 -2.73712 0
M  V30 5164 H 475.142 3.27141 -6.16137 0
M  V30 5165 H 471.039 3.93266 -5.11872 0
M  V30 5166 H 471.807 3.90328 -7.19435 0
M  V30 5167 N 474.47 1.03057 1.19235 0
M  V30 5168 C 475.38 0.622922 2.26179 0
M  V30 5169 C 476.396 -0.346113 1.70523 0
M  V30 5170 O 477.572 -0.203572 2.00369 0
M  V30 5171 C 474.637 -0.0182063 3.46695 0
M  V30 5172 C 473.698 0.998546 4.17526 0
M  V30 5173 C 472.931 0.387917 5.32288 0
M  V30 5174 O 473.154 -0.808668 5.64639 0
M  V30 5175 O 472.088 1.1116 5.91546 0
M  V30 5176 H 475.914 1.51363 2.63292 0
M  V30 5177 H 473.499 0.800856 1.26122 0
M  V30 5178 H 475.381 -0.375606 4.19723 0
M  V30 5179 H 474.056 -0.882895 3.11427 0
M  V30 5180 H 472.963 1.40756 3.4661 0
M  V30 5181 H 474.296 1.83366 4.56769 0
M  V30 5182 N 475.948 -1.35272 0.808662 0
M  V30 5183 C 477.178 -2.02652 0.401953 0
M  V30 5184 C 477.586 -1.6108 -0.992462 0
M  V30 5185 O 476.929 -0.804984 -1.65123 0
M  V30 5186 C 476.991 -3.57174 0.408246 0
M  V30 5187 C 476.655 -4.22019 1.75353 0
M  V30 5188 C 477.652 -4.43552 2.71215 0
M  V30 5189 C 475.337 -4.59093 2.03811 0
M  V30 5190 C 477.331 -5.01264 3.93717 0
M  V30 5191 C 475.018 -5.16519 3.26576 0
M  V30 5192 C 476.016 -5.37546 4.21347 0
M  V30 5193 O 475.704 -5.93761 5.41944 0
M  V30 5194 H 475.436 -0.656495 0.161216 0
M  V30 5195 H 477.99 -1.73829 1.0942 0
M  V30 5196 H 476.22 -3.85197 -0.340608 0
M  V30 5197 H 477.909 -4.05893 0.0235623 0
M  V30 5198 H 478.675 -4.15288 2.50522 0
M  V30 5199 H 474.554 -4.42039 1.30854 0
M  V30 5200 H 478.098 -5.17592 4.67701 0
M  V30 5201 H 473.995 -5.4421 3.47139 0
M  V30 5202 H 474.763 -6.1221 5.43269 0
M  V30 5203 N 477.426 -0.562348 -1.47226 0
M  V30 5204 C 478.651 -0.0432632 -2.07355 0
M  V30 5205 C 479.076 1.24332 -1.41149 0
M  V30 5206 O 478.434 1.74603 -0.488226 0
M  V30 5207 C 478.482 0.130288 -3.60365 0
M  V30 5208 O 477.586 1.19166 -3.94808 0
M  V30 5209 H 476.927 -0.0536334 -0.66183 0
M  V30 5210 H 479.457 -0.779495 -1.89169 0
M  V30 5211 H 479.467 0.342881 -4.06557 0
M  V30 5212 H 478.142 -0.809389 -4.07948 0
M  V30 5213 H 476.719 0.959153 -3.60354 0
M  V30 5214 N 478.904 1.54736 -0.299062 0
M  V30 5215 C 480.152 1.99706 0.31017 0
M  V30 5216 C 480.473 1.18896 1.54559 0
M  V30 5217 O 479.743 0.284445 1.93824 0
M  V30 5218 H 478.323 0.737686 0.117596 0
M  V30 5219 H 480.985 1.9054 -0.409943 0
M  V30 5220 H 480.081 3.06596 0.58355 0
M  V30 5221 N 480.382 0.0267497 1.57577 0
M  V30 5222 C 481.607 -0.666227 1.96408 0
M  V30 5223 C 482.032 -1.65004 0.903071 0
M  V30 5224 O 481.39 -1.80787 -0.136263 0
M  V30 5225 C 481.438 -1.35101 3.34335 0
M  V30 5226 O 480.542 -2.46623 3.30531 0
M  V30 5227 H 479.883 -0.175206 0.640468 0
M  V30 5228 H 482.413 0.0878977 2.04411 0
M  V30 5229 H 482.423 -1.70834 3.70513 0
M  V30 5230 H 481.098 -0.629844 4.11103 0
M  V30 5231 H 479.675 -2.13019 3.06068 0
M  V30 5232 N 481.861 -1.55662 -0.24637 0
M  V30 5233 C 482.771 -1.93495 -1.32653 0
M  V30 5234 C 483.787 -0.835462 -1.5263 0
M  V30 5235 O 484.963 -1.1369 -1.66242 0
M  V30 5236 C 482.028 -2.22242 -2.66101 0
M  V30 5237 C 481.089 -3.45625 -2.54641 0
M  V30 5238 C 480.322 -3.72991 -3.81724 0
M  V30 5239 O 480.545 -3.02421 -4.8363 0
M  V30 5240 O 479.479 -4.66515 -3.80325 0
M  V30 5241 H 483.305 -2.85498 -1.03559 0
M  V30 5242 H 480.89 -1.42551 -0.44717 0
M  V30 5243 H 482.772 -2.42037 -3.44958 0
M  V30 5244 H 481.447 -1.33417 -2.94926 0
M  V30 5245 H 480.354 -3.31136 -1.74067 0
M  V30 5246 H 481.687 -4.34754 -2.3076 0
M  V30 5247 N 483.339 0.512053 -1.4905 0
M  V30 5248 C 484.249 1.64139 -1.67617 0
M  V30 5249 C 485.265 1.64786 -0.558701 0
M  V30 5250 O 486.441 1.8341 -0.832034 0
M  V30 5251 C 483.506 3.00548 -1.72835 0
M  V30 5252 C 482.567 3.10615 -2.96339 0
M  V30 5253 C 481.8 4.40517 -3.01298 0
M  V30 5254 O 482.023 5.28671 -2.14157 0
M  V30 5255 O 480.957 4.55325 -3.93653 0
M  V30 5256 H 484.783 1.51407 -2.63267 0
M  V30 5257 H 482.368 0.687131 -1.32661 0
M  V30 5258 H 484.25 3.81641 -1.78683 0
M  V30 5259 H 482.925 3.13566 -0.803616 0
M  V30 5260 H 481.832 2.2875 -2.96014 0
M  V30 5261 H 483.165 3.0252 -3.88256 0
M  V30 5262 N 484.817 1.37938 0.762283 0
M  V30 5263 C 485.727 1.36681 1.90671 0
M  V30 5264 C 486.743 0.265078 1.71969 0
M  V30 5265 O 487.919 0.502055 1.95042 0
M  V30 5266 C 484.984 1.18211 3.25925 0
M  V30 5267 C 484.045 2.3811 3.57214 0
M  V30 5268 C 483.278 2.20512 4.86014 0
M  V30 5269 O 483.501 1.19429 5.57757 0
M  V30 5270 O 482.435 3.08911 5.16583 0
M  V30 5271 H 486.261 2.33091 1.94685 0
M  V30 5272 H 483.846 1.18767 0.906356 0
M  V30 5273 H 485.728 1.09937 4.06807 0
M  V30 5274 H 484.403 0.248807 3.22742 0
M  V30 5275 H 483.31 2.51958 2.76529 0
M  V30 5276 H 484.643 3.30041 3.65149 0
M  V30 5277 N 486.295 -0.989507 1.22664 0
M  V30 5278 C 487.205 -2.11449 1.01619 0
M  V30 5279 C 488.221 -1.73962 -0.036545 0
M  V30 5280 O 489.397 -2.00788 0.156924 0
M  V30 5281 C 486.462 -3.41465 0.600204 0
M  V30 5282 C 485.523 -3.93033 1.72695 0
M  V30 5283 C 484.756 -5.16844 1.33071 0
M  V30 5284 O 484.979 -5.7001 0.210975 0
M  V30 5285 O 483.913 -5.6225 2.14845 0
M  V30 5286 H 487.739 -2.32088 1.9588 0
M  V30 5287 H 485.324 -1.09823 1.01289 0
M  V30 5288 H 487.206 -4.19695 0.37873 0
M  V30 5289 H 485.881 -3.22178 -0.313511 0
M  V30 5290 H 484.788 -3.15961 2.00298 0
M  V30 5291 H 486.121 -4.16758 2.61865 0
M  V30 5292 N 487.773 -1.03688 -1.18687 0
M  V30 5293 C 488.683 -0.634908 -2.25845 0
M  V30 5294 C 489.699 0.337065 -1.70704 0
M  V30 5295 O 490.875 0.192943 -2.00474 0
M  V30 5296 C 487.94 -0.000180054 -3.467 0
M  V30 5297 C 487.001 -1.02067 -4.1699 0
M  V30 5298 C 486.234 -0.41614 -5.32075 0
M  V30 5299 O 486.457 0.778712 -5.65059 0
M  V30 5300 O 485.391 -1.14296 -5.90948 0
M  V30 5301 H 489.217 -1.52757 -2.62486 0
M  V30 5302 H 486.802 -0.807533 -1.25695 0
M  V30 5303 H 488.684 0.353342 -4.19916 0
M  V30 5304 H 487.359 0.866367 -3.11891 0
M  V30 5305 H 486.266 -1.42592 -3.45859 0
M  V30 5306 H 487.599 -1.85786 -4.5579 0
M  V30 5307 N 489.251 1.34841 -0.815825 0
M  V30 5308 C 490.161 2.33425 -0.234462 0
M  V30 5309 C 491.177 1.62295 0.627413 0
M  V30 5310 O 492.353 1.94109 0.536987 0
M  V30 5311 C 489.418 3.41471 0.599849 0
M  V30 5312 C 488.479 4.28362 -0.283596 0
M  V30 5313 C 487.712 5.31248 0.51099 0
M  V30 5314 O 487.935 5.43056 1.7449 0
M  V30 5315 O 486.869 6.01812 -0.10297 0
M  V30 5316 H 490.695 2.84962 -1.05024 0
M  V30 5317 H 488.28 1.37774 -0.577809 0
M  V30 5318 H 490.162 4.07464 1.07475 0
M  V30 5319 H 488.837 2.9219 1.39308 0
M  V30 5320 H 487.744 3.65318 -0.805836 0
M  V30 5321 H 489.077 4.81066 -1.041 0
M  V30 5322 N 490.729 0.570148 1.46925 0
M  V30 5323 C 491.975 0.0510284 2.02736 0
M  V30 5324 C 492.308 -1.3006 1.44215 0
M  V30 5325 O 491.583 -1.84932 0.602521 0
M  V30 5326 C 491.866 -0.028215 3.60089 0
M  V30 5327 C 491.719 1.35142 4.29018 0
M  V30 5328 C 493.038 -0.735181 4.33916 0
M  V30 5329 H 490.157 0.0200178 0.736728 0
M  V30 5330 H 492.799 0.73493 1.75211 0
M  V30 5331 H 490.949 -0.610648 3.83671 0
M  V30 5332 H 492.621 1.97806 4.16738 0
M  V30 5333 H 490.864 1.9226 3.88868 0
M  V30 5334 H 491.535 1.24857 5.37694 0
M  V30 5335 H 494.011 -0.240519 4.15404 0
M  V30 5336 H 492.887 -0.759622 5.43618 0
M  V30 5337 H 493.148 -1.79397 4.04066 0
M  V30 5338 N 492.207 -1.54576 0.307264 0
M  V30 5339 C 493.618 -1.8579 -0.184121 0
M  V30 5340 C 493.969 -1.22914 -1.52927 0
M  V30 5341 O 493.094 -0.529126 -2.09831 0
M  V30 5342 C 493.689 -3.37081 -0.340862 0
M  V30 5343 C 492.248 -3.68304 -0.776465 0
M  V30 5344 C 491.395 -2.77076 0.111503 0
M  V30 5345 H 494.346 -1.49656 0.528078 0
M  V30 5346 H 494.367 -3.61922 -1.17443 0
M  V30 5347 H 493.879 -3.82815 0.638309 0
M  V30 5348 H 491.98 -3.28092 -1.76596 0
M  V30 5349 H 492.093 -4.75434 -0.591512 0
M  V30 5350 H 490.457 -2.51374 -0.410256 0
M  V30 5351 H 491.24 -3.25632 1.08714 0
M  V30 5352 N 493.685 -0.035106 -1.57561 0
M  V30 5353 C 494.595 0.960295 -2.14046 0
M  V30 5354 C 495.611 1.3529 -1.0942 0
M  V30 5355 O 496.787 1.43309 -1.41508 0
M  V30 5356 C 493.852 2.22214 -2.66124 0
M  V30 5357 C 492.913 1.8894 -3.85487 0
M  V30 5358 C 492.146 3.09109 -4.35072 0
M  V30 5359 O 492.369 4.21963 -3.83802 0
M  V30 5360 O 491.303 2.91058 -5.26848 0
M  V30 5361 H 495.129 0.509983 -2.99387 0
M  V30 5362 H 492.714 0.185853 -1.48239 0
M  V30 5363 H 494.596 2.96279 -2.99661 0
M  V30 5364 H 493.271 2.66414 -1.83862 0
M  V30 5365 H 492.178 1.12241 -3.56865 0
M  V30 5366 H 493.511 1.49551 -4.6893 0
M  V30 5367 N 495.163 1.55791 0.238111 0
M  V30 5368 C 496.095 1.87513 1.31802 0
M  V30 5369 C 497.108 0.762053 1.43863 0
M  V30 5370 O 498.297 1.04024 1.45056 0
M  V30 5371 C 495.397 2.05402 2.69561 0
M  V30 5372 C 494.57 3.3632 2.79656 0
M  V30 5373 C 493.629 3.43844 3.98319 0
M  V30 5374 O 492.655 4.16994 3.87433 0
M  V30 5375 N 493.857 2.73777 5.11885 0
M  V30 5376 H 496.622 2.80734 1.04922 0
M  V30 5377 H 494.183 1.56135 0.428196 0
M  V30 5378 H 496.175 2.07769 3.47296 0
M  V30 5379 H 494.745 1.18884 2.89111 0
M  V30 5380 H 493.965 3.46195 1.88528 0
M  V30 5381 H 495.253 4.22594 2.83358 0
M  V30 5382 H 494.651 2.14094 5.23622 0
M  V30 5383 H 493.208 2.81825 5.87723 0
M  V30 5384 N 496.642 -0.504142 1.49319 0
M  V30 5385 C 497.552 -1.63248 1.68486 0
M  V30 5386 C 498.568 -1.64488 0.567432 0
M  V30 5387 O 499.744 -1.82966 0.841749 0
M  V30 5388 C 496.809 -2.99627 1.74426 0
M  V30 5389 C 495.87 -3.09039 2.97982 0
M  V30 5390 C 495.103 -4.38913 3.0363 0
M  V30 5391 O 495.326 -5.27528 2.16958 0
M  V30 5392 O 494.26 -4.53231 3.96062 0
M  V30 5393 H 498.086 -1.50008 2.64067 0
M  V30 5394 H 495.671 -0.680086 1.33023 0
M  V30 5395 H 497.553 -3.80689 1.80705 0
M  V30 5396 H 496.228 -3.13136 0.820233 0
M  V30 5397 H 495.135 -2.27177 2.97223 0
M  V30 5398 H 496.468 -3.00456 3.89855 0
M  V30 5399 N 498.12 -1.38341 -0.754957 0
M  V30 5400 C 499.368 -1.34208 -1.51105 0
M  V30 5401 C 499.689 0.0677634 -1.94882 0
M  V30 5402 O 498.959 1.01517 -1.67544 0
M  V30 5403 H 497.539 -0.493819 -0.560493 0
M  V30 5404 H 500.201 -1.73005 -0.897507 0
M  V30 5405 H 499.297 -1.99203 -2.4026 0
M  V30 5406 N 499.598 0.982988 -1.23187 0
M  V30 5407 C 500.508 2.10907 -1.02739 0
M  V30 5408 C 501.524 1.73979 0.0273188 0
M  V30 5409 O 502.7 2.00702 -0.16757 0
M  V30 5410 C 499.765 3.41142 -0.618304 0
M  V30 5411 C 498.826 3.92112 -1.74777 0
M  V30 5412 C 498.059 5.16131 -1.3581 0
M  V30 5413 O 498.282 5.6989 -0.241201 0
M  V30 5414 O 497.216 5.61103 -2.17824 0
M  V30 5415 H 501.042 2.31046 -1.97108 0
M  V30 5416 H 498.627 1.09284 -1.01869 0
M  V30 5417 H 500.509 4.19488 -0.400982 0
M  V30 5418 H 499.184 3.2234 0.296421 0
M  V30 5419 H 498.091 3.14895 -2.0197 0
M  V30 5420 H 499.424 4.15364 -2.64071 0
M  V30 5421 N 501.076 1.04316 1.18135 0
M  V30 5422 C 502.487 0.775505 1.69832 0
M  V30 5423 C 502.838 -0.703348 1.8316 0
M  V30 5424 O 501.963 -1.54729 1.51287 0
M  V30 5425 C 502.558 1.40112 3.0847 0
M  V30 5426 C 501.117 1.18172 3.57368 0
M  V30 5427 C 500.264 1.49022 2.33854 0
M  V30 5428 H 503.215 1.20925 1.02775 0
M  V30 5429 H 503.236 0.805672 3.71873 0
M  V30 5430 H 502.748 2.47744 2.98738 0
M  V30 5431 H 500.849 0.124258 3.72393 0
M  V30 5432 H 500.962 1.8805 4.40652 0
M  V30 5433 H 499.326 0.909995 2.37889 0
M  V30 5434 H 500.109 2.57768 2.26738 0
M  V30 5435 N 502.554 -1.34406 0.822964 0
M  V30 5436 C 503.779 -2.0304 0.423034 0
M  V30 5437 C 504.204 -1.61568 -0.963196 0
M  V30 5438 O 503.562 -0.800339 -1.62678 0
M  V30 5439 C 503.61 -3.56636 0.53321 0
M  V30 5440 O 502.714 -4.09971 -0.446939 0
M  V30 5441 H 502.055 -0.64075 0.174171 0
M  V30 5442 H 504.585 -1.71653 1.11339 0
M  V30 5443 H 504.595 -4.05945 0.408991 0
M  V30 5444 H 503.27 -3.86168 1.54425 0
M  V30 5445 H 501.847 -3.71835 -0.281601 0
M  V30 5446 N 504.032 -0.577932 -1.46621 0
M  V30 5447 C 505.257 -0.0652536 -2.07297 0
M  V30 5448 C 505.682 1.22828 -1.4246 0
M  V30 5449 O 505.04 1.74075 -0.506718 0
M  V30 5450 C 505.088 0.0920589 -3.60482 0
M  V30 5451 O 504.192 1.14972 -3.96049 0
M  V30 5452 H 503.533 -0.06065 -0.661224 0
M  V30 5453 H 506.063 -0.799515 -1.88332 0
M  V30 5454 H 506.073 0.299741 -4.06897 0
M  V30 5455 H 504.748 -0.852612 -4.07067 0
M  V30 5456 H 503.325 0.920879 -3.61351 0
M  V30 5457 N 505.51 1.54411 -0.315457 0
M  V30 5458 C 506.759 1.99599 0.290395 0
M  V30 5459 C 507.072 1.20746 1.53882 0
M  V30 5460 O 508.278 1.56272 2.22017 0
M  V30 5461 C 506.734 3.5539 0.56797 0
M  V30 5462 C 506.342 4.43068 -0.662945 0
M  V30 5463 C 508.086 4.09067 1.13422 0
M  V30 5464 C 505.993 5.90317 -0.357722 0
M  V30 5465 H 504.923 0.745592 0.112286 0
M  V30 5466 H 507.574 1.78477 -0.426418 0
M  V30 5467 H 505.956 3.72468 1.34476 0
M  V30 5468 H 507.13 4.37765 -1.43869 0
M  V30 5469 H 505.445 4.00238 -1.14884 0
M  V30 5470 H 508.042 5.16663 1.37707 0
M  V30 5471 H 508.385 3.60552 2.08106 0
M  V30 5472 H 508.918 3.95589 0.418805 0
M  V30 5473 H 505.657 6.4301 -1.27351 0
M  V30 5474 H 505.177 5.98592 0.380472 0
M  V30 5475 H 506.856 6.4699 0.0354284 0
M  V30 5476 N 506.988 0.0434614 1.5754 0
M  V30 5477 C 508.234 -0.632971 1.92669 0
M  V30 5478 C 508.567 -1.70947 0.921446 0
M  V30 5479 O 507.842 -1.94426 -0.0537202 0
M  V30 5480 C 508.125 -1.23619 3.38216 0
M  V30 5481 C 507.978 -0.168274 4.49485 0
M  V30 5482 C 509.297 -2.15008 3.84005 0
M  V30 5483 H 506.416 -0.228629 0.700641 0
M  V30 5484 H 509.058 0.103651 1.89717 0
M  V30 5485 H 507.208 -1.864 3.40863 0
M  V30 5486 H 508.88 0.463196 4.58969 0
M  V30 5487 H 507.123 0.504581 4.30855 0
M  V30 5488 H 507.794 -0.630218 5.48391 0
M  V30 5489 H 510.27 -1.62198 3.83185 0
M  V30 5490 H 509.146 -2.54161 4.86511 0
M  V30 5491 H 509.407 -3.04707 3.20322 0
M  V30 5492 N 508.466 -1.55915 -0.229846 0
M  V30 5493 C 509.414 -1.9258 -1.30444 0
M  V30 5494 C 510.408 -0.806839 -1.48951 0
M  V30 5495 O 511.614 -0.991606 -1.50224 0
M  V30 5496 H 507.989 -0.611878 -0.437161 0
M  V30 5497 H 509.96 -2.82264 -0.96797 0
M  V30 5498 C 508.709 -2.25171 -2.6494 0
M  V30 5499 H 508.032 -3.10782 -2.51504 0
M  V30 5500 H 509.472 -2.54716 -3.38963 0
M  V30 5501 C 507.931 -1.07394 -3.19324 0
M  V30 5502 O 508.461 -0.330759 -4.00336 0
M  V30 5503 N 506.667 -0.859984 -2.77584 0
M  V30 5504 H 506.214 -1.46605 -2.11813 0
M  V30 5505 H 506.172 -0.0736671 -3.14314 0
M  V30 5506 N 509.944 0.496216 -1.49584 0
M  V30 5507 C 511.19 1.25189 -1.59548 0
M  V30 5508 C 511.523 1.9212 -0.283466 0
M  V30 5509 O 510.798 1.80947 0.713324 0
M  V30 5510 C 511.081 2.31516 -2.75812 0
M  V30 5511 C 510.934 1.69054 -4.16822 0
M  V30 5512 C 512.253 3.3304 -2.87702 0
M  V30 5513 H 509.372 0.45379 -0.580727 0
M  V30 5514 H 512.014 0.549327 -1.81886 0
M  V30 5515 H 510.164 2.91438 -2.56897 0
M  V30 5516 H 511.836 1.12923 -4.47265 0
M  V30 5517 H 510.079 0.994485 -4.22247 0
M  V30 5518 H 510.75 2.462 -4.94054 0
M  V30 5519 H 513.226 2.83114 -3.04936 0
M  V30 5520 H 512.102 4.04794 -3.7072 0
M  V30 5521 H 512.363 3.95655 -1.97255 0
M  V30 5522 N 511.423 1.38739 0.74761 0
M  V30 5523 C 512.834 1.31507 1.32524 0
M  V30 5524 C 513.185 -0.0263963 1.96182 0
M  V30 5525 O 512.31 -0.92849 1.95469 0
M  V30 5526 C 512.905 2.38162 2.40966 0
M  V30 5527 C 511.464 2.34489 2.94434 0
M  V30 5528 C 510.611 2.20712 1.67873 0
M  V30 5529 H 513.562 1.4901 0.546043 0
M  V30 5530 H 513.583 2.04222 3.21051 0
M  V30 5531 H 513.095 3.35783 1.94605 0
M  V30 5532 H 511.196 1.40467 3.45108 0
M  V30 5533 H 511.309 3.28861 3.48407 0
M  V30 5534 H 509.673 1.67667 1.91729 0
M  V30 5535 H 510.456 3.20285 1.23582 0
M  V30 5536 N 512.901 -0.976442 1.23707 0
M  V30 5537 C 514.149 -1.71487 1.06942 0
M  V30 5538 C 514.47 -1.9098 -0.393897 0
M  V30 5539 O 513.74 -1.48128 -1.28198 0
M  V30 5540 H 512.32 -0.635425 0.392739 0
M  V30 5541 H 514.982 -1.17515 1.55487 0
M  V30 5542 H 514.078 -2.70286 1.56051 0
M  V30 5543 N 514.379 -1.04941 -1.1758 0
M  V30 5544 C 515.289 -0.658826 -2.25159 0
M  V30 5545 C 516.305 0.318941 -1.71052 0
M  V30 5546 O 517.481 0.171669 -2.00667 0
M  V30 5547 C 514.546 -0.0369522 -3.4668 0
M  V30 5548 C 513.607 -1.06484 -4.15884 0
M  V30 5549 C 512.84 -0.472551 -5.31604 0
M  V30 5550 O 513.063 0.718736 -5.65854 0
M  V30 5551 O 511.997 -1.20557 -5.89703 0
M  V30 5552 H 515.823 -1.55533 -2.60851 0
M  V30 5553 H 513.408 -0.820819 -1.24832 0
M  V30 5554 H 515.29 0.308784 -4.20267 0
M  V30 5555 H 513.965 0.833238 -3.12792 0
M  V30 5556 H 512.872 -1.46253 -3.44327 0
M  V30 5557 H 514.205 -1.9061 -4.53794 0
M  V30 5558 N 515.857 1.33968 -0.830081 0
M  V30 5559 C 517.082 2.02813 -0.433796 0
M  V30 5560 C 517.507 1.62076 0.954614 0
M  V30 5561 O 516.865 0.808955 1.62252 0
M  V30 5562 C 516.913 3.56348 -0.552115 0
M  V30 5563 O 516.017 4.10202 0.425191 0
M  V30 5564 H 515.358 0.639817 -0.177567 0
M  V30 5565 H 517.888 1.7106 -1.12248 0
M  V30 5566 H 517.898 4.05722 -0.430513 0
M  V30 5567 H 516.573 3.85344 -1.56471 0
M  V30 5568 H 515.15 3.71979 0.261878 0
M  V30 5569 N 517.335 0.585699 1.46312 0
M  V30 5570 C 518.563 0.0781299 2.06752 0
M  V30 5571 C 518.978 -1.22812 1.43396 0
M  V30 5572 O 518.335 -1.74318 0.540314 0
M  V30 5573 C 518.386 -0.0911927 3.61385 0
M  V30 5574 O 518.107 1.16336 4.22371 0
M  V30 5575 C 519.608 -0.632765 4.38761 0
M  V30 5576 H 516.828 0.0588188 0.668417 0
M  V30 5577 H 519.372 0.807218 1.87894 0
M  V30 5578 H 517.527 -0.770514 3.7966 0
M  V30 5579 H 517.941 0.979082 5.15281 0
M  V30 5580 H 519.415 -0.70041 5.47538 0
M  V30 5581 H 519.892 -1.65039 4.07012 0
M  V30 5582 H 520.498 0.0117856 4.25298 0
M  V30 5583 N 518.813 -1.54241 0.323641 0
M  V30 5584 C 519.743 -2.27289 -0.534993 0
M  V30 5585 C 520.724 -1.28087 -1.11927 0
M  V30 5586 O 521.909 -1.56899 -1.14439 0
M  V30 5587 C 519.039 -3.03075 -1.69596 0
M  V30 5588 C 517.993 -4.09614 -1.24098 0
M  V30 5589 C 517.319 -4.73242 -2.4889 0
M  V30 5590 C 518.619 -5.21087 -0.355789 0
M  V30 5591 H 520.313 -2.99308 0.0743257 0
M  V30 5592 H 517.859 -1.43952 0.0371874 0
M  V30 5593 H 519.812 -3.52907 -2.30293 0
M  V30 5594 H 518.536 -2.28673 -2.33187 0
M  V30 5595 H 517.195 -3.60666 -0.656945 0
M  V30 5596 H 516.843 -3.95455 -3.10845 0
M  V30 5597 H 516.543 -5.45209 -2.19138 0
M  V30 5598 H 518.067 -5.25848 -3.10348 0
M  V30 5599 H 519.481 -5.66675 -0.869042 0
M  V30 5600 H 517.878 -5.9991 -0.151045 0
M  V30 5601 H 518.948 -4.81005 0.613339 0
M  V30 5602 N 520.291 -0.0518155 -1.57515 0
M  V30 5603 C 521.707 0.304735 -1.56664 0
M  V30 5604 C 521.907 1.71395 -1.05953 0
M  V30 5605 O 520.963 2.42123 -0.716414 0
M  V30 5606 C 522.276 0.132614 -3.00407 0
M  V30 5607 C 523.824 0.20367 -3.12337 0
M  V30 5608 C 524.299 0.0600706 -4.57961 0
M  V30 5609 N 525.79 0.116326 -4.63054 0
M  V30 5610 C 526.525 0.0293363 -5.73392 0
M  V30 5611 N 526.021 -0.110038 -6.92713 0
M  V30 5612 N 527.814 0.0849651 -5.62036 0
M  V30 5613 H 519.965 -0.973056 -1.888 0
M  V30 5614 H 522.228 -0.377781 -0.869474 0
M  V30 5615 H 521.934 -0.839019 -3.41546 0
M  V30 5616 H 521.808 0.893376 -3.66468 0
M  V30 5617 H 524.195 1.16578 -2.71097 0
M  V30 5618 H 524.276 -0.587857 -2.48954 0
M  V30 5619 H 523.92 -0.898715 -4.99886 0
M  V30 5620 H 523.85 0.87075 -5.19351 0
M  V30 5621 H 526.341 0.22327 -3.7724 0
M  V30 5622 H 526.654 -0.169104 -7.72615 0
M  V30 5623 H 524.999 -0.145132 -6.94848 0
M  V30 5624 H 528.19 0.192411 -4.67704 0
M  V30 5625 H 528.363 0.0137131 -6.47999 0
M  V30 5626 N 521.769 1.56035 0.221574 0
M  V30 5627 C 523.185 1.49026 0.571271 0
M  V30 5628 C 523.385 0.746912 1.87146 0
M  V30 5629 O 522.441 0.286566 2.50869 0
M  V30 5630 C 523.754 2.93579 0.650522 0
M  V30 5631 C 525.302 3.04099 0.741151 0
M  V30 5632 C 525.777 4.5001 0.851747 0
M  V30 5633 N 527.268 4.54053 0.915968 0
M  V30 5634 C 528.003 5.64232 1.02125 0
M  V30 5635 N 527.499 6.84164 1.09049 0
M  V30 5636 N 529.292 5.52084 1.05639 0
M  V30 5637 H 521.443 2.02791 -0.63162 0
M  V30 5638 H 523.706 0.921736 -0.221602 0
M  V30 5639 H 523.412 3.50912 -0.235253 0
M  V30 5640 H 523.286 3.45476 1.51413 0
M  V30 5641 H 525.673 2.4683 1.61737 0
M  V30 5642 H 525.754 2.55371 -0.148128 0
M  V30 5643 H 525.398 5.07896 -0.0200117 0
M  V30 5644 H 525.328 4.96444 1.75644 0
M  V30 5645 H 527.819 3.67683 0.872782 0
M  V30 5646 H 528.132 7.63883 1.1706 0
M  V30 5647 H 526.477 6.86875 1.05962 0
M  V30 5648 H 529.668 4.57317 0.998953 0
M  V30 5649 H 529.841 6.37983 1.13498 0
M  V30 5650 N 523.247 -0.488276 1.49845 0
M  V30 5651 C 524.524 -1.24959 1.50481 0
M  V30 5652 C 524.904 -2.09735 0.239698 0
M  V30 5653 O 524.252 -2.14865 -0.777524 0
M  V30 5654 C 524.462 -2.0954 2.79095 0
M  V30 5655 C 525.81 -2.68305 3.29086 0
M  V30 5656 O 526.834 -2.19797 2.80299 0
M  V30 5657 O 525.693 -3.56643 4.14087 0
M  V30 5658 H 522.787 -0.566133 0.602845 0
M  V30 5659 H 525.333 -0.501504 1.6212 0
M  V30 5660 H 524.105 -1.46958 3.62656 0
M  V30 5661 H 523.728 -2.91517 2.70377 0
M  V30 5662 N 524.725 -1.39134 -0.740242 0
M  V30 5663 C 525.972 -1.36071 -1.49969 0
M  V30 5664 C 526.3 0.0450245 -1.94448 0
M  V30 5665 O 525.555 1.02482 -1.66721 0
M  V30 5666 C 525.854 -2.27457 -2.75678 0
M  V30 5667 C 525.52 -3.75185 -2.50094 0
M  V30 5668 C 524.182 -4.15439 -2.42825 0
M  V30 5669 C 526.534 -4.68643 -2.28086 0
M  V30 5670 C 523.862 -5.4722 -2.11584 0
M  V30 5671 C 526.214 -6.00695 -1.98363 0
M  V30 5672 C 524.878 -6.40018 -1.8956 0
M  V30 5673 H 524.148 -0.497921 -0.548777 0
M  V30 5674 H 526.795 -1.71599 -0.85007 0
M  V30 5675 H 525.1 -1.8503 -3.45356 0
M  V30 5676 H 526.797 -2.22384 -3.33686 0
M  V30 5677 H 523.387 -3.43279 -2.56627 0
M  V30 5678 H 527.571 -4.3838 -2.32672 0
M  V30 5679 H 522.827 -5.76615 -2.03287 0
M  V30 5680 H 527.001 -6.72644 -1.80341 0
M  V30 5681 H 524.628 -7.42051 -1.65117 0
M  V30 5682 N 526.204 0.969867 -1.24223 0
M  V30 5683 C 527.134 2.08191 -1.05729 0
M  V30 5684 C 528.115 1.70075 0.0290765 0
M  V30 5685 O 529.3 1.93712 -0.137583 0
M  V30 5686 C 526.43 3.40991 -0.658995 0
M  V30 5687 C 525.384 3.93054 -1.69389 0
M  V30 5688 C 524.71 5.22171 -1.15072 0
M  V30 5689 C 526.01 4.21137 -3.08935 0
M  V30 5690 H 527.704 2.23921 -1.98746 0
M  V30 5691 H 525.25 1.07602 -0.956967 0
M  V30 5692 H 527.203 4.18221 -0.51662 0
M  V30 5693 H 525.927 3.25155 0.30686 0
M  V30 5694 H 524.586 3.17977 -1.82444 0
M  V30 5695 H 524.234 5.02694 -0.175539 0
M  V30 5696 H 523.934 5.57973 -1.84229 0
M  V30 5697 H 525.458 6.02013 -1.02042 0
M  V30 5698 H 526.872 4.8908 -2.99121 0
M  V30 5699 H 525.269 4.68163 -3.75425 0
M  V30 5700 H 526.339 3.27996 -3.57137 0
M  V30 5701 N 527.682 1.05563 1.17022 0
M  V30 5702 C 529.098 0.777684 1.39371 0
M  V30 5703 C 529.298 -0.626269 1.91521 0
M  V30 5704 O 528.354 -1.38806 2.10924 0
M  V30 5705 C 529.667 1.83642 2.3811 0
M  V30 5706 C 531.215 1.85907 2.51809 0
M  V30 5707 C 531.69 2.90813 3.53824 0
M  V30 5708 N 533.181 2.898 3.61345 0
M  V30 5709 C 533.916 3.6762 4.40049 0
M  V30 5710 N 533.412 4.55237 5.22237 0
M  V30 5711 N 535.205 3.56044 4.34959 0
M  V30 5712 H 527.356 1.9614 0.815047 0
M  V30 5713 H 529.619 0.849527 0.420722 0
M  V30 5714 H 529.325 2.84425 2.06871 0
M  V30 5715 H 529.199 1.6812 3.37662 0
M  V30 5716 H 531.586 0.857865 2.82356 0
M  V30 5717 H 531.667 2.05506 1.52318 0
M  V30 5718 H 531.311 3.91122 3.24015 0
M  V30 5719 H 531.241 2.68465 4.53028 0
M  V30 5720 H 533.732 2.26274 3.02669 0
M  V30 5721 H 534.045 5.11291 5.79484 0
M  V30 5722 H 532.39 4.59296 5.21605 0
M  V30 5723 H 535.581 2.86986 3.69806 0
M  V30 5724 H 535.754 4.16938 4.96051 0
M  V30 5725 N 529.16 -1.33526 0.837174 0
M  V30 5726 C 530.09 -2.31764 0.284206 0
M  V30 5727 C 531.071 -1.58896 -0.607142 0
M  V30 5728 O 532.256 -1.86798 -0.531047 0
M  V30 5729 C 529.386 -3.43029 -0.542962 0
M  V30 5730 C 528.34 -4.27255 0.252451 0
M  V30 5731 C 527.666 -5.3012 -0.69836 0
M  V30 5732 C 528.966 -5.01229 1.46858 0
M  V30 5733 H 530.66 -2.78262 1.10502 0
M  V30 5734 H 528.206 -1.3378 0.532812 0
M  V30 5735 H 530.159 -4.1078 -0.940096 0
M  V30 5736 H 528.883 -2.95216 -1.39697 0
M  V30 5737 H 527.542 -3.61127 0.631124 0
M  V30 5738 H 527.19 -4.78564 -1.54872 0
M  V30 5739 H 526.89 -5.87353 -0.170274 0
M  V30 5740 H 528.414 -6.00737 -1.09305 0
M  V30 5741 H 529.828 -5.61756 1.14469 0
M  V30 5742 H 528.225 -5.68104 1.93333 0
M  V30 5743 H 529.295 -4.301 2.23924 0
M  V30 5744 N 530.638 -0.59345 -1.46 0
M  V30 5745 C 531.57 0.171569 -2.28557 0
M  V30 5746 C 532.583 0.845273 -1.39137 0
M  V30 5747 O 533.772 0.713033 -1.6364 0
M  V30 5748 C 530.872 1.26311 -3.14482 0
M  V30 5749 C 530.045 0.679258 -4.32094 0
M  V30 5750 C 529.104 1.65987 -4.99334 0
M  V30 5751 O 528.13 1.19171 -5.56585 0
M  V30 5752 N 529.332 2.99414 -4.97324 0
M  V30 5753 H 532.097 -0.536771 -2.94854 0
M  V30 5754 H 529.658 -0.431954 -1.56031 0
M  V30 5755 H 531.65 1.91863 -3.5633 0
M  V30 5756 H 530.22 1.87416 -2.50188 0
M  V30 5757 H 529.44 -0.153992 -3.93899 0
M  V30 5758 H 530.728 0.26916 -5.08088 0
M  V30 5759 H 530.126 3.40064 -4.52076 0
M  V30 5760 H 528.683 3.60426 -5.4308 0
M  V30 5761 N 532.116 1.54067 -0.331816 0
M  V30 5762 C 533.048 2.22139 0.564538 0
M  V30 5763 C 534.061 1.22408 1.07332 0
M  V30 5764 O 535.25 1.4883 0.985481 0
M  V30 5765 C 532.35 2.87876 1.78831 0
M  V30 5766 C 531.523 4.13817 1.41682 0
M  V30 5767 C 530.582 4.63072 2.49901 0
M  V30 5768 O 529.608 5.27562 2.13699 0
M  V30 5769 N 530.81 4.38001 3.80967 0
M  V30 5770 H 533.575 2.99694 -0.0183736 0
M  V30 5771 H 531.136 1.61153 -0.155396 0
M  V30 5772 H 533.128 3.17747 2.50637 0
M  V30 5773 H 531.698 2.13977 2.27887 0
M  V30 5774 H 530.918 3.9062 0.530044 0
M  V30 5775 H 532.206 4.95762 1.14443 0
M  V30 5776 H 531.604 3.864 4.13173 0
M  V30 5777 H 530.161 4.72507 4.48977 0
M  V30 5778 N 533.594 0.0601682 1.57485 0
M  V30 5779 C 534.504 -0.926121 2.15546 0
M  V30 5780 C 535.52 -1.33532 1.11558 0
M  V30 5781 O 536.696 -1.4104 1.4377 0
M  V30 5782 C 533.761 -2.17952 2.69625 0
M  V30 5783 C 532.822 -1.82783 3.88444 0
M  V30 5784 C 532.055 -3.02148 4.39935 0
M  V30 5785 O 532.278 -4.15803 3.90466 0
M  V30 5786 O 531.212 -2.82639 5.31412 0
M  V30 5787 H 535.038 -0.462289 3.00161 0
M  V30 5788 H 532.623 -0.162246 1.48516 0
M  V30 5789 H 534.505 -2.91474 3.04337 0
M  V30 5790 H 533.18 -2.63456 1.88077 0
M  V30 5791 H 532.087 -1.06549 3.58606 0
M  V30 5792 H 533.42 -1.42072 4.7125 0
M  V30 5793 N 535.072 -1.5615 -0.213296 0
M  V30 5794 C 536.02 -1.93953 -1.28394 0
M  V30 5795 C 537.014 -0.822592 -1.48087 0
M  V30 5796 O 538.22 -1.00748 -1.49164 0
M  V30 5797 H 534.595 -0.61648 -0.430646 0
M  V30 5798 H 536.566 -2.83275 -0.937977 0
M  V30 5799 C 535.315 -2.27969 -2.62537 0
M  V30 5800 H 534.638 -3.13432 -2.48194 0
M  V30 5801 H 536.078 -2.58297 -3.36242 0
M  V30 5802 C 534.537 -1.10775 -3.18167 0
M  V30 5803 O 535.067 -0.373201 -3.99963 0
M  V30 5804 N 533.273 -0.889377 -2.76656 0
M  V30 5805 H 532.82 -1.48843 -2.10246 0
M  V30 5806 H 532.778 -0.107 -3.14218 0
M  V30 5807 N 536.55 0.480323 -1.50102 0
M  V30 5808 C 537.497 1.57946 -1.6829 0
M  V30 5809 C 538.467 1.57611 -0.524223 0
M  V30 5810 O 539.652 1.75282 -0.753709 0
M  V30 5811 C 536.792 2.95978 -1.77457 0
M  V30 5812 C 535.905 3.06173 -3.04766 0
M  V30 5813 C 535.04 4.35063 -3.04784 0
M  V30 5814 C 534.079 4.38966 -4.26586 0
M  V30 5815 N 533.216 5.59314 -4.24396 0
M  V30 5816 H 538.056 1.41743 -2.62131 0
M  V30 5817 H 535.593 0.689304 -1.2995 0
M  V30 5818 H 537.551 3.76011 -1.80752 0
M  V30 5819 H 536.181 3.10837 -0.870637 0
M  V30 5820 H 535.233 2.19071 -3.10986 0
M  V30 5821 H 536.545 3.04916 -3.9475 0
M  V30 5822 H 535.699 5.23436 -3.06757 0
M  V30 5823 H 534.438 4.38915 -2.12614 0
M  V30 5824 H 533.443 3.48992 -4.24835 0
M  V30 5825 H 534.668 4.36813 -5.19972 0
M  V30 5826 H 532.614 5.63969 -3.35074 0
M  V30 5827 H 532.531 5.5976 -5.08138 0
M  V30 5828 H 533.799 6.49837 -4.30502 0
M  V30 5829 N 538.028 1.39524 0.732853 0
M  V30 5830 C 538.938 1.40695 1.87729 0
M  V30 5831 C 539.954 0.301496 1.71368 0
M  V30 5832 O 541.13 0.543313 1.93933 0
M  V30 5833 C 538.195 1.25098 3.23344 0
M  V30 5834 C 537.256 2.45634 3.52083 0
M  V30 5835 C 536.489 2.30772 4.81228 0
M  V30 5836 O 536.712 1.31233 5.55098 0
M  V30 5837 O 535.646 3.19799 5.09914 0
M  V30 5838 H 539.472 2.37168 1.89697 0
M  V30 5839 H 537.057 1.20663 0.880959 0
M  V30 5840 H 538.939 1.18541 4.04383 0
M  V30 5841 H 537.614 0.317209 3.22142 0
M  V30 5842 H 536.521 2.57767 2.71122 0
M  V30 5843 H 537.854 3.37712 3.58066 0
M  V30 5844 N 539.506 -0.963266 1.24736 0
M  V30 5845 C 540.922 -1.23273 1.01371 0
M  V30 5846 C 541.122 -1.99618 -0.274776 0
M  V30 5847 O 540.178 -2.32293 -0.989769 0
M  V30 5848 C 541.491 -2.01554 2.23152 0
M  V30 5849 C 543.039 -2.14629 2.27823 0
M  V30 5850 C 543.514 -2.96307 3.49237 0
M  V30 5851 N 545.005 -3.03887 3.49581 0
M  V30 5852 C 545.74 -3.67456 4.40186 0
M  V30 5853 N 545.236 -4.32706 5.41052 0
M  V30 5854 N 547.029 -3.64511 4.27888 0
M  V30 5855 H 539.18 -0.452294 2.07528 0
M  V30 5856 H 541.443 -0.262521 0.910926 0
M  V30 5857 H 541.149 -1.52847 3.1675 0
M  V30 5858 H 541.023 -3.02278 2.25628 0
M  V30 5859 H 543.41 -2.62537 1.34753 0
M  V30 5860 H 543.491 -1.13238 2.2937 0
M  V30 5861 H 543.135 -2.49091 4.42624 0
M  V30 5862 H 543.065 -3.97905 3.44933 0
M  V30 5863 H 545.556 -2.57477 2.76611 0
M  V30 5864 H 545.869 -4.79042 6.06415 0
M  V30 5865 H 544.214 -4.31361 5.44934 0
M  V30 5866 H 547.405 -3.12715 3.4832 0
M  V30 5867 H 547.578 -4.13768 4.98698 0
M  V30 5868 N 540.985 -1.06182 -1.16461 0
M  V30 5869 C 542.21 -0.798599 -1.91408 0
M  V30 5870 C 542.635 0.640987 -1.76842 0
M  V30 5871 O 541.993 1.44652 -1.09296 0
M  V30 5872 C 542.041 -1.19665 -3.40165 0
M  V30 5873 O 541.145 -0.334768 -4.11039 0
M  V30 5874 H 540.486 -0.291961 -0.596368 0
M  V30 5875 H 543.016 -1.41732 -1.47557 0
M  V30 5876 H 543.026 -1.16772 -3.90933 0
M  V30 5877 H 541.701 -2.24526 -3.50087 0
M  V30 5878 H 540.278 -0.425168 -3.70468 0
M  V30 5879 N 542.463 1.3308 -0.844243 0
M  V30 5880 C 543.373 2.32876 -0.283922 0
M  V30 5881 C 544.389 1.63589 0.592846 0
M  V30 5882 O 545.565 1.95205 0.495693 0
M  V30 5883 C 542.63 3.42667 0.527283 0
M  V30 5884 C 541.691 4.27664 -0.374394 0
M  V30 5885 C 540.924 5.32212 0.39819 0
M  V30 5886 O 541.147 5.46635 1.62932 0
M  V30 5887 O 540.081 6.01458 -0.2306 0
M  V30 5888 H 543.907 2.82671 -1.11045 0
M  V30 5889 H 541.492 1.36518 -0.606903 0
M  V30 5890 H 543.374 4.09652 0.988078 0
M  V30 5891 H 542.049 2.95079 1.33078 0
M  V30 5892 H 540.956 3.63526 -0.883144 0
M  V30 5893 H 542.289 4.78749 -1.1428 0
M  V30 5894 N 543.941 0.601185 1.45683 0
M  V30 5895 C 544.904 -0.111398 2.28929 0
M  V30 5896 C 545.904 -0.801246 1.39416 0
M  V30 5897 O 547.094 -0.650383 1.61603 0
M  V30 5898 C 544.226 -1.16773 3.20276 0
M  V30 5899 H 545.419 0.620412 2.93413 0
M  V30 5900 H 542.972 0.359946 1.52099 0
M  V30 5901 H 543.707 -1.93051 2.60579 0
M  V30 5902 H 543.492 -0.677358 3.86205 0
M  V30 5903 H 544.982 -1.66698 3.82886 0
M  V30 5904 N 545.419 -1.53889 0.339982 0
M  V30 5905 C 546.349 -2.27843 -0.510856 0
M  V30 5906 C 547.33 -1.29267 -1.10563 0
M  V30 5907 O 548.515 -1.58104 -1.12768 0
M  V30 5908 C 545.645 -3.04857 -1.66372 0
M  V30 5909 C 544.599 -4.10907 -1.19746 0
M  V30 5910 C 543.925 -4.75855 -2.43857 0
M  V30 5911 C 545.225 -5.21435 -0.300501 0
M  V30 5912 H 546.919 -2.99212 0.106067 0
M  V30 5913 H 544.465 -1.43904 0.0524533 0
M  V30 5914 H 546.418 -3.5533 -2.26537 0
M  V30 5915 H 545.142 -2.31133 -2.30749 0
M  V30 5916 H 543.801 -3.61342 -0.618654 0
M  V30 5917 H 543.449 -3.9873 -3.06633 0
M  V30 5918 H 543.149 -5.47502 -2.13343 0
M  V30 5919 H 544.673 -5.2911 -3.04754 0
M  V30 5920 H 546.087 -5.67565 -0.80889 0
M  V30 5921 H 544.484 -6.00036 -0.0874076 0
M  V30 5922 H 545.554 -4.80328 0.664321 0
M  V30 5923 N 546.897 -0.0685191 -1.57451 0
M  V30 5924 C 548.313 0.288101 -1.56978 0
M  V30 5925 C 548.513 1.70262 -1.07765 0
M  V30 5926 O 547.569 2.4135 -0.742054 0
M  V30 5927 C 548.882 0.100745 -3.00531 0
M  V30 5928 C 550.43 0.170531 -3.12535 0
M  V30 5929 C 550.905 0.0114944 -4.57999 0
M  V30 5930 N 552.396 0.0672065 -4.63151 0
M  V30 5931 C 553.131 -0.0314813 -5.73391 0
M  V30 5932 N 552.627 -0.183503 -6.92557 0
M  V30 5933 N 554.42 0.0253489 -5.62094 0
M  V30 5934 H 546.571 -0.993026 -1.87757 0
M  V30 5935 H 548.834 -0.386981 -0.865419 0
M  V30 5936 H 548.54 -0.875197 -3.40636 0
M  V30 5937 H 548.414 0.854457 -3.67395 0
M  V30 5938 H 550.801 1.13696 -2.72318 0
M  V30 5939 H 550.882 -0.614229 -2.48316 0
M  V30 5940 H 550.526 -0.951684 -4.98904 0
M  V30 5941 H 550.456 0.815617 -5.20245 0
M  V30 5942 H 552.947 0.183246 -3.77455 0
M  V30 5943 H 553.26 -0.251041 -7.72392 0
M  V30 5944 H 551.605 -0.218822 -6.94655 0
M  V30 5945 H 554.796 0.142794 -4.67882 0
M  V30 5946 H 554.969 -0.0550166 -6.47977 0
M  V30 5947 N 548.375 1.56261 0.205012 0
M  V30 5948 C 549.791 1.49623 0.555433 0
M  V30 5949 C 549.991 0.766719 1.86343 0
M  V30 5950 O 549.047 0.313158 2.50551 0
M  V30 5951 C 550.36 2.94253 0.619347 0
M  V30 5952 C 551.908 3.04868 0.708855 0
M  V30 5953 C 552.383 4.50888 0.803969 0
M  V30 5954 N 553.874 4.54999 0.867758 0
M  V30 5955 C 554.609 5.65284 0.96135 0
M  V30 5956 N 554.105 6.85282 1.01786 0
M  V30 5957 N 555.898 5.53174 0.997771 0
M  V30 5958 H 548.049 2.0211 -0.653094 0
M  V30 5959 H 550.312 0.919333 -0.231366 0
M  V30 5960 H 550.018 3.50643 -0.272458 0
M  V30 5961 H 549.892 3.47063 1.47741 0
M  V30 5962 H 552.279 2.48532 1.5911 0
M  V30 5963 H 552.36 2.55199 -0.175205 0
M  V30 5964 H 552.004 5.07846 -0.0738798 0
M  V30 5965 H 551.934 4.98279 1.70369 0
M  V30 5966 H 554.425 3.68588 0.833735 0
M  V30 5967 H 554.738 7.65081 1.08951 0
M  V30 5968 H 553.083 6.8796 0.986706 0
M  V30 5969 H 556.274 4.5835 0.950392 0
M  V30 5970 H 556.447 6.39151 1.06725 0
M  V30 5971 N 549.853 -0.472356 1.50355 0
M  V30 5972 C 550.785 -1.58795 1.65278 0
M  V30 5973 C 551.798 -1.53782 0.534313 0
M  V30 5974 O 552.987 -1.59193 0.807446 0
M  V30 5975 C 550.087 -2.97672 1.62001 0
M  V30 5976 C 549.26 -3.27568 2.89859 0
M  V30 5977 C 548.319 -4.45993 2.79242 0
M  V30 5978 O 547.345 -4.46364 3.53197 0
M  V30 5979 N 548.547 -5.47578 1.92713 0
M  V30 5980 H 551.312 -1.46411 2.61503 0
M  V30 5981 H 548.873 -0.660751 1.47803 0
M  V30 5982 H 550.865 -3.74862 1.52513 0
M  V30 5983 H 549.435 -3.03832 0.735159 0
M  V30 5984 H 548.655 -2.39003 3.13483 0
M  V30 5985 H 549.943 -3.44352 3.74565 0
M  V30 5986 H 549.341 -5.50099 1.31939 0
M  V30 5987 H 547.898 -6.23757 1.8913 0
M  V30 5988 N 551.331 -1.39911 -0.725443 0
M  V30 5989 C 552.263 -1.35301 -1.85003 0
M  V30 5990 C 553.276 -0.260102 -1.60709 0
M  V30 5991 O 554.465 -0.519749 -1.70766 0
M  V30 5992 C 551.565 -1.08039 -3.21218 0
M  V30 5993 C 550.738 -2.28793 -3.7279 0
M  V30 5994 C 549.797 -1.97841 -4.87591 0
M  V30 5995 O 548.823 -2.70616 -5.00755 0
M  V30 5996 N 550.025 -0.950367 -5.72668 0
M  V30 5997 H 552.79 -2.32218 -1.89459 0
M  V30 5998 H 550.351 -1.34137 -0.90658 0
M  V30 5999 H 552.343 -0.853354 -3.95601 0
M  V30 6000 H 550.913 -0.198229 -3.11971 0
M  V30 6001 H 550.133 -2.67388 -2.8965 0
M  V30 6002 H 551.421 -3.09317 -4.03981 0
M  V30 6003 H 550.819 -0.347436 -5.64632 0
M  V30 6004 H 549.376 -0.783232 -6.47077 0
M  V30 6005 N 552.809 0.956637 -1.25245 0
M  V30 6006 C 553.739 2.07058 -1.07931 0
M  V30 6007 C 554.72 1.70096 0.0110361 0
M  V30 6008 O 555.905 1.93555 -0.158121 0
M  V30 6009 C 553.035 3.40272 -0.695124 0
M  V30 6010 C 551.989 3.91235 -1.73549 0
M  V30 6011 C 551.315 5.20921 -1.20604 0
M  V30 6012 C 552.615 4.17837 -3.13385 0
M  V30 6013 H 554.309 2.218 -2.01109 0
M  V30 6014 H 551.855 1.06581 -0.968326 0
M  V30 6015 H 553.808 4.1765 -0.560949 0
M  V30 6016 H 552.532 3.25462 0.272355 0
M  V30 6017 H 551.191 3.16025 -1.85807 0
M  V30 6018 H 550.839 5.02479 -0.228846 0
M  V30 6019 H 550.539 5.55987 -1.90136 0
M  V30 6020 H 552.063 6.00897 -1.08421 0
M  V30 6021 H 553.477 4.8588 -3.04292 0
M  V30 6022 H 551.874 4.64154 -3.80369 0
M  V30 6023 H 552.944 3.2419 -3.60595 0
M  V30 6024 N 554.287 1.06798 1.15896 0
M  V30 6025 C 555.217 0.704677 2.22613 0
M  V30 6026 C 556.198 -0.305252 1.67339 0
M  V30 6027 O 557.383 -0.179247 1.93371 0
M  V30 6028 C 554.513 0.0957325 3.47168 0
M  V30 6029 C 553.467 1.0322 4.15367 0
M  V30 6030 C 552.793 0.286293 5.33933 0
M  V30 6031 C 554.093 2.36341 4.65768 0
M  V30 6032 H 555.787 1.59688 2.53259 0
M  V30 6033 H 553.333 0.769257 1.21731 0
M  V30 6034 H 555.286 -0.170333 4.21056 0
M  V30 6035 H 554.01 -0.831516 3.15838 0
M  V30 6036 H 552.669 1.28309 3.43413 0
M  V30 6037 H 552.317 -0.644237 4.98857 0
M  V30 6038 H 552.017 0.910436 5.80504 0
M  V30 6039 H 553.541 0.0278938 6.10594 0
M  V30 6040 H 554.955 2.1561 5.31211 0
M  V30 6041 H 553.352 2.94299 5.2298 0
M  V30 6042 H 554.422 2.99047 3.81705 0
M  V30 6043 N 555.766 -1.3263 0.851289 0
M  V30 6044 C 556.698 -2.27824 0.250757 0
M  V30 6045 C 557.711 -1.52285 -0.575598 0
M  V30 6046 O 558.9 -1.73946 -0.400638 0
M  V30 6047 C 556 -3.3232 -0.664571 0
M  V30 6048 C 555.173 -4.37221 0.125187 0
M  V30 6049 C 554.232 -5.21314 -0.715385 0
M  V30 6050 O 553.258 -5.69002 -0.150111 0
M  V30 6051 N 554.46 -5.43823 -2.03069 0
M  V30 6052 H 557.225 -2.79997 1.06873 0
M  V30 6053 H 554.786 -1.45455 0.710943 0
M  V30 6054 H 556.778 -3.85486 -1.23216 0
M  V30 6055 H 555.348 -2.80331 -1.38323 0
M  V30 6056 H 554.568 -3.84384 0.874199 0
M  V30 6057 H 555.856 -5.04399 0.667774 0
M  V30 6058 H 555.254 -5.06803 -2.51332 0
M  V30 6059 H 553.811 -5.99998 -2.54648 0
M  V30 6060 N 557.244 -0.608902 -1.45362 0
M  V30 6061 C 558.154 0.110969 -2.34337 0
M  V30 6062 C 559.17 0.859007 -1.51318 0
M  V30 6063 O 560.346 0.816296 -1.84116 0
M  V30 6064 C 557.411 1.09494 -3.28956 0
M  V30 6065 C 556.472 0.348718 -4.27881 0
M  V30 6066 C 555.705 1.28582 -5.17979 0
M  V30 6067 O 555.928 2.52369 -5.11533 0
M  V30 6068 O 554.862 0.782172 -5.96796 0
M  V30 6069 H 558.688 -0.620258 -2.97299 0
M  V30 6070 H 556.273 -0.36916 -1.44767 0
M  V30 6071 H 558.155 1.66163 -3.87257 0
M  V30 6072 H 556.83 1.80717 -2.68557 0
M  V30 6073 H 555.737 -0.260465 -3.73192 0
M  V30 6074 H 557.07 -0.323049 -4.91139 0
M  V30 6075 N 558.722 1.53707 -0.348139 0
M  V30 6076 C 559.654 2.22725 0.540946 0
M  V30 6077 C 560.667 1.2354 1.06027 0
M  V30 6078 O 561.856 1.49867 0.96964 0
M  V30 6079 C 558.956 2.89756 1.75768 0
M  V30 6080 C 558.129 4.15297 1.37285 0
M  V30 6081 C 557.188 4.65697 2.44976 0
M  V30 6082 O 556.214 5.29798 2.08092 0
M  V30 6083 N 557.416 4.42017 3.763 0
M  V30 6084 H 560.181 2.99658 -0.0501592 0
M  V30 6085 H 557.742 1.60979 -0.17248 0
M  V30 6086 H 559.734 3.20388 2.47252 0
M  V30 6087 H 558.304 2.16382 2.25605 0
M  V30 6088 H 557.524 3.9116 0.488584 0
M  V30 6089 H 558.812 4.96948 1.09179 0
M  V30 6090 H 558.21 3.9076 4.09051 0
M  V30 6091 H 556.767 4.77242 4.4394 0
M  V30 6092 N 560.2 0.0768682 1.57412 0
M  V30 6093 C 561.132 -0.918248 2.10002 0
M  V30 6094 C 562.145 -1.25808 1.03325 0
M  V30 6095 O 563.334 -1.21438 1.30824 0
M  V30 6096 C 560.434 -2.23263 2.54964 0
M  V30 6097 C 559.607 -2.07088 3.8527 0
M  V30 6098 C 558.666 -3.21876 4.16272 0
M  V30 6099 O 557.692 -2.96643 4.8579 0
M  V30 6100 N 558.894 -4.4712 3.70221 0
M  V30 6101 H 561.659 -0.469209 2.96004 0
M  V30 6102 H 559.22 -0.108725 1.61535 0
M  V30 6103 H 561.212 -2.9897 2.72762 0
M  V30 6104 H 559.782 -2.59649 1.74072 0
M  V30 6105 H 559.002 -1.15818 3.76802 0
M  V30 6106 H 560.29 -1.93537 4.70554 0
M  V30 6107 H 559.688 -4.70506 3.1407 0
M  V30 6108 H 558.245 -5.19837 3.93209 0
M  V30 6109 N 561.678 -1.56367 -0.196722 0
M  V30 6110 C 562.608 -1.97442 -1.24655 0
M  V30 6111 C 563.589 -0.846147 -1.47561 0
M  V30 6112 O 564.774 -1.11035 -1.59326 0
M  V30 6113 C 561.904 -2.31253 -2.59112 0
M  V30 6114 C 560.858 -3.46804 -2.50821 0
M  V30 6115 C 560.184 -3.66286 -3.89536 0
M  V30 6116 C 561.484 -4.8104 -2.03465 0
M  V30 6117 H 563.178 -2.85388 -0.905216 0
M  V30 6118 H 560.724 -1.37304 -0.434002 0
M  V30 6119 H 562.677 -2.58583 -3.32736 0
M  V30 6120 H 561.401 -1.40188 -2.94983 0
M  V30 6121 H 560.06 -3.19563 -1.79653 0
M  V30 6122 H 559.708 -2.72555 -4.22756 0
M  V30 6123 H 559.408 -4.4402 -3.84864 0
M  V30 6124 H 560.932 -3.9599 -4.64784 0
M  V30 6125 H 562.346 -5.07411 -2.66846 0
M  V30 6126 H 560.743 -5.62232 -2.09798 0
M  V30 6127 H 561.813 -4.74732 -0.98781 0
M  V30 6128 N 563.156 0.464375 -1.50603 0
M  V30 6129 C 564.572 0.798684 -1.38178 0
M  V30 6130 C 564.772 1.96568 -0.44308 0
M  V30 6131 O 563.828 2.52252 0.111814 0
M  V30 6132 C 565.141 1.10444 -2.79683 0
M  V30 6133 C 566.689 1.2105 -2.88645 0
M  V30 6134 C 567.164 1.54934 -4.30998 0
M  V30 6135 N 568.655 1.61913 -4.3398 0
M  V30 6136 C 569.39 1.8965 -5.41129 0
M  V30 6137 N 568.886 2.15361 -6.58477 0
M  V30 6138 N 570.679 1.91207 -5.28579 0
M  V30 6139 H 562.83 -0.304603 -2.10204 0
M  V30 6140 H 565.093 -0.0737804 -0.945125 0
M  V30 6141 H 564.799 0.319934 -3.50242 0
M  V30 6142 H 564.673 2.03896 -3.17342 0
M  V30 6143 H 567.06 1.98567 -2.18301 0
M  V30 6144 H 567.141 0.255613 -2.5452 0
M  V30 6145 H 566.785 0.779549 -5.01882 0
M  V30 6146 H 566.715 2.51584 -4.62615 0
M  V30 6147 H 569.206 1.44055 -3.49366 0
M  V30 6148 H 569.519 2.35818 -7.35941 0
M  V30 6149 H 567.864 2.1274 -6.6164 0
M  V30 6150 H 571.055 1.70622 -4.35897 0
M  V30 6151 H 571.228 2.12488 -6.12171 0
M  V30 6152 N 564.634 1.40294 0.718013 0
M  V30 6153 C 565.544 1.42678 1.86226 0
M  V30 6154 C 566.56 0.319655 1.71039 0
M  V30 6155 O 567.736 0.563852 1.93346 0
M  V30 6156 C 564.801 1.2852 3.21999 0
M  V30 6157 C 563.862 2.49354 3.49458 0
M  V30 6158 C 563.095 2.35863 4.78753 0
M  V30 6159 O 563.318 1.37114 5.53675 0
M  V30 6160 O 562.252 3.25189 5.06494 0
M  V30 6161 H 566.078 2.39167 1.87171 0
M  V30 6162 H 563.663 1.2159 0.868112 0
M  V30 6163 H 565.545 1.22824 4.03103 0
M  V30 6164 H 564.22 0.351359 3.21787 0
M  V30 6165 H 563.127 2.60628 2.68373 0
M  V30 6166 H 564.46 3.41491 3.54464 0
M  V30 6167 N 566.112 -0.949982 1.2575 0
M  V30 6168 C 567.044 -2.05088 1.02331 0
M  V30 6169 C 568.057 -1.62795 -0.0133247 0
M  V30 6170 O 569.246 -1.77067 0.225759 0
M  V30 6171 C 566.346 -3.34794 0.525924 0
M  V30 6172 C 565.519 -4.05903 1.62978 0
M  V30 6173 C 564.578 -5.1388 1.13196 0
M  V30 6174 O 563.604 -5.39072 1.82729 0
M  V30 6175 N 564.806 -5.80495 -0.0242926 0
M  V30 6176 H 567.571 -2.25747 1.97125 0
M  V30 6177 H 565.132 -1.11886 1.17018 0
M  V30 6178 H 567.124 -4.04312 0.177263 0
M  V30 6179 H 565.694 -3.10872 -0.328202 0
M  V30 6180 H 564.914 -3.3042 2.1498 0
M  V30 6181 H 566.202 -4.50166 2.37124 0
M  V30 6182 H 565.6 -5.62454 -0.605184 0
M  V30 6183 H 564.157 -6.51043 -0.313947 0
M  V30 6184 N 567.59 -1.07411 -1.15328 0
M  V30 6185 C 568.5 -0.706438 -2.23711 0
M  V30 6186 C 569.516 0.282586 -1.7169 0
M  V30 6187 O 570.692 0.129066 -2.00986 0
M  V30 6188 C 567.757 -0.11048 -3.46524 0
M  V30 6189 C 566.818 -1.15282 -4.13532 0
M  V30 6190 C 566.051 -0.585205 -5.30482 0
M  V30 6191 O 566.274 0.598549 -5.67251 0
M  V30 6192 O 565.208 -1.33039 -5.87013 0
M  V30 6193 H 569.034 -1.61031 -2.57493 0
M  V30 6194 H 566.619 -0.847113 -1.23062 0
M  V30 6195 H 568.501 0.21957 -4.20828 0
M  V30 6196 H 567.176 0.766703 -3.14489 0
M  V30 6197 H 566.083 -1.53523 -3.41147 0
M  V30 6198 H 567.416 -2.00192 -4.49649 0
M  V30 6199 N 569.068 1.32177 -0.85831 0
M  V30 6200 C 569.978 2.32561 -0.308606 0
M  V30 6201 C 570.994 1.64209 0.575462 0
M  V30 6202 O 572.17 1.95719 0.474961 0
M  V30 6203 C 569.235 3.43207 0.490909 0
M  V30 6204 C 568.296 4.27243 -0.419733 0
M  V30 6205 C 567.529 5.32605 0.341719 0
M  V30 6206 O 567.752 5.48332 1.57125 0
M  V30 6207 O 566.686 6.0118 -0.294379 0
M  V30 6208 H 570.512 2.81477 -1.14037 0
M  V30 6209 H 568.097 1.35866 -0.621349 0
M  V30 6210 H 569.979 4.10677 0.944574 0
M  V30 6211 H 568.654 2.96474 1.29941 0
M  V30 6212 H 567.561 3.62569 -0.921652 0
M  V30 6213 H 568.894 4.7751 -1.19352 0
M  V30 6214 N 570.547 0.616602 1.45037 0
M  V30 6215 C 571.777 0.121791 2.06241 0
M  V30 6216 C 572.185 -1.20289 1.46038 0
M  V30 6217 O 571.528 -1.7456 0.572242 0
M  V30 6218 C 571.59 -0.0827345 3.59405 0
M  V30 6219 C 571.254 1.16153 4.41993 0
M  V30 6220 C 572.251 2.08183 4.76399 0
M  V30 6221 C 569.936 1.39288 4.82601 0
M  V30 6222 C 571.93 3.21668 5.5028 0
M  V30 6223 C 569.617 2.53073 5.56235 0
M  V30 6224 C 570.615 3.44091 5.89992 0
M  V30 6225 O 570.303 4.55894 6.6213 0
M  V30 6226 H 570.035 0.0701667 0.672349 0
M  V30 6227 H 572.589 0.846877 1.87129 0
M  V30 6228 H 570.819 -0.862812 3.76952 0
M  V30 6229 H 572.508 -0.530273 4.02421 0
M  V30 6230 H 573.274 1.91538 4.45576 0
M  V30 6231 H 569.153 0.693396 4.55755 0
M  V30 6232 H 572.697 3.92733 5.76547 0
M  V30 6233 H 568.594 2.69667 5.86472 0
M  V30 6234 H 569.362 4.5469 6.80587 0
M  V30 6235 N 572.025 -1.5352 0.356285 0
M  V30 6236 C 572.972 -2.25439 -0.494569 0
M  V30 6237 C 573.942 -1.25752 -1.08516 0
M  V30 6238 O 575.127 -1.54513 -1.1194 0
M  V30 6239 C 572.267 -3.04011 -1.63313 0
M  V30 6240 C 571.38 -4.18574 -1.06862 0
M  V30 6241 C 570.515 -4.84607 -2.17552 0
M  V30 6242 C 569.554 -5.91218 -1.58518 0
M  V30 6243 N 568.691 -6.50979 -2.63003 0
M  V30 6244 H 573.531 -2.97737 0.125244 0
M  V30 6245 H 571.068 -1.46916 0.0735789 0
M  V30 6246 H 573.026 -3.47834 -2.30363 0
M  V30 6247 H 571.656 -2.33986 -2.22374 0
M  V30 6248 H 570.708 -3.79303 -0.288672 0
M  V30 6249 H 572.02 -4.95215 -0.596924 0
M  V30 6250 H 571.174 -5.31566 -2.92442 0
M  V30 6251 H 569.913 -4.07418 -2.6807 0
M  V30 6252 H 568.918 -5.4363 -0.821391 0
M  V30 6253 H 570.143 -6.70322 -1.08836 0
M  V30 6254 H 568.089 -5.76648 -3.12751 0
M  V30 6255 H 568.006 -7.23131 -2.20493 0
M  V30 6256 H 569.274 -7.02589 -3.37623 0
M  V30 6257 N 573.503 -0.0852151 -1.57369 0
M  V30 6258 C 574.919 0.271436 -1.57275 0
M  V30 6259 C 575.119 1.69109 -1.09565 0
M  V30 6260 O 574.175 2.40549 -0.767611 0
M  V30 6261 C 575.488 0.0688638 -3.00621 0
M  V30 6262 C 577.036 0.137373 -3.12698 0
M  V30 6263 C 577.511 -0.0370832 -4.57985 0
M  V30 6264 N 579.002 0.0180794 -4.63196 0
M  V30 6265 C 579.737 -0.0922953 -5.73326 0
M  V30 6266 N 579.233 -0.256948 -6.92323 0
M  V30 6267 N 581.026 -0.0342702 -5.6209 0
M  V30 6268 H 573.177 -1.01288 -1.86693 0
M  V30 6269 H 575.44 -0.396138 -0.861266 0
M  V30 6270 H 575.146 -0.911277 -3.39689 0
M  V30 6271 H 575.02 0.815442 -3.6828 0
M  V30 6272 H 577.407 1.10801 -2.73509 0
M  V30 6273 H 577.488 -0.640532 -2.47651 0
M  V30 6274 H 577.132 -1.00455 -4.97867 0
M  V30 6275 H 577.062 0.760392 -5.21081 0
M  V30 6276 H 579.553 0.143202 -3.77629 0
M  V30 6277 H 579.866 -0.332949 -7.72082 0
M  V30 6278 H 578.211 -0.292487 -6.94384 0
M  V30 6279 H 581.402 0.0931605 -4.68007 0
M  V30 6280 H 581.575 -0.12374 -6.47882 0
M  V30 6281 N 574.981 1.5647 0.188427 0
M  V30 6282 C 575.913 1.91611 1.25769 0
M  V30 6283 C 576.926 0.807436 1.41366 0
M  V30 6284 O 578.115 1.08586 1.41673 0
M  V30 6285 C 575.215 2.13874 2.6289 0
M  V30 6286 C 574.388 3.45047 2.68815 0
M  V30 6287 C 573.447 3.56342 3.87178 0
M  V30 6288 O 572.473 4.29109 3.73971 0
M  V30 6289 N 573.675 2.89924 5.02916 0
M  V30 6290 H 576.44 2.8393 0.959373 0
M  V30 6291 H 574.001 1.57418 0.378306 0
M  V30 6292 H 575.993 2.18713 3.4051 0
M  V30 6293 H 574.563 1.28022 2.85183 0
M  V30 6294 H 573.783 3.52017 1.77419 0
M  V30 6295 H 575.071 4.31395 2.6977 0
M  V30 6296 H 574.469 2.30644 5.16546 0
M  V30 6297 H 573.026 3.0038 5.78459 0
M  V30 6298 N 576.459 -0.456382 1.50847 0
M  V30 6299 C 577.389 -1.56025 1.73719 0
M  V30 6300 C 578.37 -1.5967 0.586473 0
M  V30 6301 O 579.555 -1.75702 0.827185 0
M  V30 6302 C 576.685 -2.94251 1.84483 0
M  V30 6303 C 575.639 -3.05471 2.99786 0
M  V30 6304 C 574.965 -4.45489 2.95709 0
M  V30 6305 C 576.265 -2.81318 4.40065 0
M  V30 6306 H 577.959 -1.37138 2.66146 0
M  V30 6307 H 575.505 -0.658299 1.28072 0
M  V30 6308 H 577.458 -3.71417 1.99067 0
M  V30 6309 H 576.182 -3.14328 0.886891 0
M  V30 6310 H 574.841 -2.30741 2.84876 0
M  V30 6311 H 574.489 -4.62505 1.97732 0
M  V30 6312 H 574.189 -4.53929 3.73125 0
M  V30 6313 H 575.713 -5.24655 3.12362 0
M  V30 6314 H 577.127 -3.48226 4.55425 0
M  V30 6315 H 575.524 -3.01188 5.19043 0
M  V30 6316 H 576.594 -1.7706 4.51418 0
M  V30 6317 N 577.937 -1.40673 -0.710563 0
M  V30 6318 C 578.867 -1.44095 -1.83736 0
M  V30 6319 C 579.848 -0.301286 -1.67411 0
M  V30 6320 O 581.033 -0.510618 -1.87367 0
M  V30 6321 C 578.163 -1.30773 -3.21738 0
M  V30 6322 C 577.117 -2.42395 -3.52745 0
M  V30 6323 C 576.443 -2.14147 -4.89944 0
M  V30 6324 C 577.743 -3.84738 -3.53234 0
M  V30 6325 H 579.437 -2.38396 -1.81129 0
M  V30 6326 H 576.983 -1.14746 -0.870017 0
M  V30 6327 H 578.936 -1.31783 -4.00264 0
M  V30 6328 H 577.66 -0.329507 -3.24934 0
M  V30 6329 H 576.319 -2.40643 -2.76562 0
M  V30 6330 H 575.967 -1.14703 -4.89747 0
M  V30 6331 H 575.667 -2.88934 -5.11655 0
M  V30 6332 H 577.191 -2.16848 -5.70797 0
M  V30 6333 H 578.605 -3.88286 -4.2179 0
M  V30 6334 H 577.002 -4.59085 -3.86473 0
M  V30 6335 H 578.072 -4.13962 -2.52514 0
M  V30 6336 N 579.415 0.9433 -1.26252 0
M  V30 6337 C 580.378 2.02326 -1.07689 0
M  V30 6338 C 581.378 1.60779 -0.0259174 0
M  V30 6339 O 582.568 1.72108 -0.269134 0
M  V30 6340 C 579.7 3.34886 -0.63752 0
M  V30 6341 H 580.893 2.20225 -2.0357 0
M  V30 6342 H 578.446 1.12197 -1.08819 0
M  V30 6343 H 579.181 3.22684 0.323377 0
M  V30 6344 H 578.966 3.66393 -1.39637 0
M  V30 6345 H 580.456 4.14231 -0.529418 0
M  V30 6346 N 580.893 1.08022 1.14757 0
M  V30 6347 C 581.803 0.718292 2.23333 0
M  V30 6348 C 582.819 -0.273477 1.71837 0
M  V30 6349 O 583.995 -0.118406 2.01052 0
M  V30 6350 C 581.06 0.128855 3.4646 0
M  V30 6351 C 580.121 1.17473 4.12915 0
M  V30 6352 C 579.354 0.61333 5.30164 0
M  V30 6353 O 579.577 -0.568458 5.6756 0
M  V30 6354 O 578.511 1.3615 5.86299 0
M  V30 6355 H 582.337 1.62394 2.56636 0
M  V30 6356 H 579.922 0.853628 1.22611 0
M  V30 6357 H 581.804 -0.197249 4.20938 0
M  V30 6358 H 580.479 -0.750014 3.14891 0
M  V30 6359 H 579.386 1.5533 3.40328 0
M  V30 6360 H 580.719 2.02574 4.48581 0
M  V30 6361 N 582.371 -1.3172 0.865308 0
M  V30 6362 C 583.787 -1.4958 0.556596 0
M  V30 6363 C 583.987 -1.79763 -0.910353 0
M  V30 6364 O 583.043 -1.87351 -1.6928 0
M  V30 6365 C 584.356 -2.63277 1.45279 0
M  V30 6366 C 585.904 -2.77161 1.45433 0
M  V30 6367 C 586.379 -3.93949 2.33598 0
M  V30 6368 N 587.87 -4.01228 2.31453 0
M  V30 6369 C 588.605 -4.90855 2.96393 0
M  V30 6370 N 588.101 -5.85416 3.70486 0
M  V30 6371 N 589.894 -4.84063 2.85726 0
M  V30 6372 H 582.045 -1.10396 1.81456 0
M  V30 6373 H 584.308 -0.54507 0.775631 0
M  V30 6374 H 584.014 -2.47734 2.49641 0
M  V30 6375 H 583.888 -3.59309 1.14792 0
M  V30 6376 H 586.275 -2.9212 0.41831 0
M  V30 6377 H 586.356 -1.8181 1.79941 0
M  V30 6378 H 586 -3.79748 3.37274 0
M  V30 6379 H 585.93 -4.88598 1.96417 0
M  V30 6380 H 588.421 -3.3357 1.77593 0
M  V30 6381 H 588.734 -6.50525 4.17178 0
M  V30 6382 H 587.079 -5.85409 3.74594 0
M  V30 6383 H 590.27 -4.09163 2.27384 0
M  V30 6384 H 590.443 -5.53708 3.36617 0
M  V30 6385 N 583.85 -0.624285 -1.44708 0
M  V30 6386 C 584.782 0.12305 -2.28869 0
M  V30 6387 C 585.795 0.81557 -1.40898 0
M  V30 6388 O 586.984 0.678162 -1.65116 0
M  V30 6389 C 584.084 1.19612 -3.1709 0
M  V30 6390 C 583.257 0.587452 -4.33437 0
M  V30 6391 C 582.316 1.55358 -5.02743 0
M  V30 6392 O 581.341 1.07338 -5.58988 0
M  V30 6393 N 582.543 2.88798 -5.03563 0
M  V30 6394 H 585.308 -0.599193 -2.93649 0
M  V30 6395 H 582.87 -0.464954 -1.5508 0
M  V30 6396 H 584.861 1.84261 -3.60319 0
M  V30 6397 H 583.432 1.82067 -2.54107 0
M  V30 6398 H 582.652 -0.237509 -3.93484 0
M  V30 6399 H 583.94 0.161326 -5.08544 0
M  V30 6400 H 583.338 3.30399 -4.59188 0
M  V30 6401 H 581.894 3.48826 -5.50603 0
M  V30 6402 N 585.328 1.53329 -0.364422 0
M  V30 6403 C 586.275 2.25698 0.482607 0
M  V30 6404 C 587.245 1.26325 1.07848 0
M  V30 6405 O 588.43 1.55104 1.11119 0
M  V30 6406 C 585.57 3.04873 1.61699 0
M  V30 6407 C 584.683 4.19135 1.0464 0
M  V30 6408 C 583.818 4.85754 2.14979 0
M  V30 6409 C 582.857 5.9205 1.5538 0
M  V30 6410 N 581.994 6.52365 2.59547 0
M  V30 6411 H 586.834 2.97666 -0.141032 0
M  V30 6412 H 584.371 1.46875 -0.0813692 0
M  V30 6413 H 586.329 3.49051 2.28516 0
M  V30 6414 H 584.959 2.35162 2.2113 0
M  V30 6415 H 584.011 3.79451 0.268553 0
M  V30 6416 H 585.323 4.95525 0.570653 0
M  V30 6417 H 584.477 5.3311 2.89619 0
M  V30 6418 H 583.216 4.08834 2.65906 0
M  V30 6419 H 582.221 5.44058 0.792549 0
M  V30 6420 H 583.446 6.7089 1.0528 0
M  V30 6421 H 581.392 5.78298 3.09689 0
M  V30 6422 H 581.309 7.2429 2.16655 0
M  V30 6423 H 582.577 7.0437 3.33892 0
M  V30 6424 N 586.806 0.0935595 1.57322 0
M  V30 6425 C 588.222 -0.263091 1.57417 0
M  V30 6426 C 588.422 -1.68526 1.1046 0
M  V30 6427 O 587.478 -2.40139 0.780357 0
M  V30 6428 C 588.791 -0.0529201 3.00653 0
M  V30 6429 C 590.339 -0.120788 3.12767 0
M  V30 6430 C 590.814 0.0613707 4.57959 0
M  V30 6431 N 592.305 0.00648534 4.632 0
M  V30 6432 C 593.04 0.122699 5.73269 0
M  V30 6433 N 592.536 0.29366 6.92177 0
M  V30 6434 N 594.329 0.0640787 5.62063 0
M  V30 6435 H 586.48 1.02277 1.86154 0
M  V30 6436 H 588.743 0.4007 0.859153 0
M  V30 6437 H 588.449 0.929279 3.39201 0
M  V30 6438 H 588.323 -0.795899 3.68708 0
M  V30 6439 H 590.71 -1.09349 2.74093 0
M  V30 6440 H 590.791 0.653656 2.47307 0
M  V30 6441 H 590.435 1.03093 4.97327 0
M  V30 6442 H 590.365 -0.732748 5.21477 0
M  V30 6443 H 592.856 -0.123173 3.77699 0
M  V30 6444 H 593.169 0.37389 7.71895 0
M  V30 6445 H 591.514 0.329307 6.94219 0
M  V30 6446 H 594.705 -0.0683396 4.6805 0
M  V30 6447 H 594.878 0.158097 6.47807 0
M  V30 6448 N 588.284 -1.56567 -0.180126 0
M  V30 6449 C 589.533 -1.80685 -0.896426 0
M  V30 6450 C 589.846 -0.669335 -1.83791 0
M  V30 6451 O 591.052 -0.795209 -2.59593 0
M  V30 6452 C 589.508 -3.20132 -1.6445 0
M  V30 6453 C 589.116 -4.41727 -0.747088 0
M  V30 6454 C 590.86 -3.53549 -2.34955 0
M  V30 6455 C 588.767 -5.72195 -1.49489 0
M  V30 6456 H 587.697 -0.673758 -0.338477 0
M  V30 6457 H 590.348 -1.8289 -0.149467 0
M  V30 6458 H 588.73 -3.12218 -2.43589 0
M  V30 6459 H 589.904 -4.608 0.00671129 0
M  V30 6460 H 588.219 -4.16122 -0.152134 0
M  V30 6461 H 590.816 -4.48267 -2.91481 0
M  V30 6462 H 591.159 -2.78006 -3.09868 0
M  V30 6463 H 591.692 -3.62976 -1.62768 0
M  V30 6464 H 588.431 -6.50743 -0.788251 0
M  V30 6465 H 587.951 -5.57115 -2.22224 0
M  V30 6466 H 589.63 -6.1384 -2.04472 0
M  V30 6467 N 589.762 0.448376 -1.51087 0
M  V30 6468 C 590.672 1.56882 -1.74428 0
M  V30 6469 C 591.688 1.62268 -0.62809 0
M  V30 6470 O 592.864 1.79716 -0.909075 0
M  V30 6471 C 589.929 2.92947 -1.85426 0
M  V30 6472 C 588.99 2.97766 -3.09247 0
M  V30 6473 C 588.223 4.27341 -3.19711 0
M  V30 6474 O 588.446 5.19112 -2.36387 0
M  V30 6475 O 587.38 4.38219 -4.12611 0
M  V30 6476 H 591.206 1.40104 -2.69452 0
M  V30 6477 H 588.791 0.630247 -1.35456 0
M  V30 6478 H 590.673 3.73719 -1.94709 0
M  V30 6479 H 589.348 3.09876 -0.935887 0
M  V30 6480 H 588.255 2.15989 -3.0545 0
M  V30 6481 H 589.588 2.8578 -4.00738 0
M  V30 6482 N 591.24 1.41047 0.703093 0
M  V30 6483 C 592.172 1.38228 1.82827 0
M  V30 6484 C 593.185 0.285637 1.60275 0
M  V30 6485 O 594.374 0.54685 1.69917 0
M  V30 6486 C 591.474 1.13136 3.19458 0
M  V30 6487 C 590.647 2.34695 3.69103 0
M  V30 6488 C 589.706 2.05574 4.84382 0
M  V30 6489 O 588.732 2.78549 4.96386 0
M  V30 6490 N 589.934 1.04135 5.71083 0
M  V30 6491 H 592.699 2.35203 1.85741 0
M  V30 6492 H 590.26 1.35562 0.885125 0
M  V30 6493 H 592.252 0.916183 3.94193 0
M  V30 6494 H 590.822 0.247836 3.11616 0
M  V30 6495 H 590.042 2.71963 2.85359 0
M  V30 6496 H 591.33 3.15705 3.99009 0
M  V30 6497 H 590.728 0.43722 5.64008 0
M  V30 6498 H 589.285 0.886078 6.45749 0
M  V30 6499 N 592.718 -0.936591 1.26751 0
M  V30 6500 C 593.65 -2.03991 1.045 0
M  V30 6501 C 594.663 -1.628 0.00394261 0
M  V30 6502 O 595.852 -1.76817 0.244526 0
M  V30 6503 C 592.952 -3.34218 0.561403 0
M  V30 6504 C 592.125 -4.04151 1.67274 0
M  V30 6505 C 591.184 -5.12651 1.1864 0
M  V30 6506 O 590.21 -5.37104 1.88437 0
M  V30 6507 N 591.412 -5.80488 0.037278 0
M  V30 6508 H 594.177 -2.23644 1.99508 0
M  V30 6509 H 591.738 -1.10638 1.18198 0
M  V30 6510 H 593.73 -4.04101 0.220136 0
M  V30 6511 H 592.3 -3.11203 -0.295211 0
M  V30 6512 H 591.52 -3.28121 2.18472 0
M  V30 6513 H 592.808 -4.47626 2.41885 0
M  V30 6514 H 592.206 -5.63064 -0.545494 0
M  V30 6515 H 590.763 -6.5134 -0.244877 0
M  V30 6516 N 594.196 -1.08629 -1.14182 0
M  V30 6517 C 595.143 -0.718299 -2.19338 0
M  V30 6518 C 596.113 0.296587 -1.63431 0
M  V30 6519 O 597.298 0.180079 -1.89948 0
M  V30 6520 C 594.438 -0.136203 -3.44831 0
M  V30 6521 C 593.551 -1.20414 -4.14879 0
M  V30 6522 C 592.686 -0.585666 -5.27962 0
M  V30 6523 C 591.725 -1.63548 -5.89846 0
M  V30 6524 N 590.862 -1.03864 -6.94375 0
M  V30 6525 H 595.702 -1.61932 -2.50164 0
M  V30 6526 H 593.239 -0.80919 -1.22844 0
M  V30 6527 H 595.197 0.219021 -4.16625 0
M  V30 6528 H 593.827 0.728121 -3.14481 0
M  V30 6529 H 592.879 -1.67676 -3.41451 0
M  V30 6530 H 594.191 -1.99959 -4.56966 0
M  V30 6531 H 593.345 -0.178818 -6.06436 0
M  V30 6532 H 592.084 0.24142 -4.87102 0
M  V30 6533 H 591.089 -2.05197 -5.10073 0
M  V30 6534 H 592.314 -2.46509 -6.3278 0
M  V30 6535 H 590.26 -0.232687 -6.55587 0
M  V30 6536 H 590.177 -1.77116 -7.3496 0
M  V30 6537 H 591.445 -0.657724 -7.7672 0
M  V30 6538 N 595.674 1.31259 -0.872281 0
M  V30 6539 C 596.584 2.32221 -0.333255 0
M  V30 6540 C 597.6 1.6481 0.558013 0
M  V30 6541 O 598.776 1.96212 0.454175 0
M  V30 6542 C 595.841 3.43708 0.454479 0
M  V30 6543 C 594.902 4.26774 -0.465024 0
M  V30 6544 C 594.135 5.32937 0.28521 0
M  V30 6545 O 594.358 5.49968 1.513 0
M  V30 6546 O 593.292 6.00834 -0.358126 0
M  V30 6547 H 597.118 2.80252 -1.17016 0
M  V30 6548 H 594.703 1.352 -0.635724 0
M  V30 6549 H 596.585 4.11656 0.900963 0
M  V30 6550 H 595.26 2.97836 1.26789 0
M  V30 6551 H 594.167 3.61571 -0.960055 0
M  V30 6552 H 595.5 4.76217 -1.2441 0
M  V30 6553 N 597.152 0.631951 1.44375 0
M  V30 6554 C 598.084 -0.110911 2.28931 0
M  V30 6555 C 599.097 -0.808086 1.41329 0
M  V30 6556 O 600.286 -0.669396 1.65473 0
M  V30 6557 C 597.386 -1.17928 3.1772 0
M  V30 6558 C 596.559 -0.564458 4.33743 0
M  V30 6559 C 595.618 -1.5269 5.0356 0
M  V30 6560 O 594.644 -1.04372 5.59549 0
M  V30 6561 N 595.846 -2.86123 5.05088 0
M  V30 6562 H 598.611 0.614758 2.93327 0
M  V30 6563 H 596.172 0.473171 1.54831 0
M  V30 6564 H 598.164 -1.82348 3.61291 0
M  V30 6565 H 596.734 -1.80717 2.55069 0
M  V30 6566 H 595.954 0.258373 3.93352 0
M  V30 6567 H 597.242 -0.134355 5.08623 0
M  V30 6568 H 596.64 -3.27959 4.60933 0
M  V30 6569 H 595.197 -3.45901 5.52445 0
M  V30 6570 N 598.631 -1.53133 0.372548 0
M  V30 6571 C 600.047 -1.59585 0.02178 0
M  V30 6572 C 600.247 -1.38736 -1.46132 0
M  V30 6573 O 599.303 -1.19599 -2.22379 0
M  V30 6574 C 600.616 -2.9678 0.483959 0
M  V30 6575 C 602.164 -3.09909 0.438775 0
M  V30 6576 C 602.639 -4.49527 0.876876 0
M  V30 6577 N 604.13 -4.55663 0.832214 0
M  V30 6578 C 604.865 -5.61896 1.14281 0
M  V30 6579 N 604.361 -6.75852 1.52303 0
M  V30 6580 N 606.154 -5.51916 1.06515 0
M  V30 6581 H 598.305 -1.64936 1.33827 0
M  V30 6582 H 600.568 -0.773947 0.547458 0
M  V30 6583 H 600.274 -3.17198 1.51915 0
M  V30 6584 H 600.148 -3.7699 -0.125784 0
M  V30 6585 H 602.535 -2.89197 -0.587294 0
M  V30 6586 H 602.616 -2.31691 1.0841 0
M  V30 6587 H 602.26 -4.70979 1.90109 0
M  V30 6588 H 602.19 -5.26186 0.208727 0
M  V30 6589 H 604.681 -3.73844 0.552195 0
M  V30 6590 H 604.994 -7.52862 1.7441 0
M  V30 6591 H 603.339 -6.77226 1.56175 0
M  V30 6592 H 606.53 -4.6177 0.767235 0
M  V30 6593 H 606.703 -6.34609 1.31053 0
M  V30 6594 N 600.109 -0.101901 -1.5727 0
M  V30 6595 C 601.525 0.254739 -1.57554 0
M  V30 6596 C 601.725 1.67937 -1.11352 0
M  V30 6597 O 600.781 2.39722 -0.793081 0
M  V30 6598 C 602.094 0.036975 -3.00677 0
M  V30 6599 C 603.642 0.104199 -3.12827 0
M  V30 6600 C 604.117 -0.0856565 -4.5792 0
M  V30 6601 N 605.608 -0.0310498 -4.6319 0
M  V30 6602 C 606.343 -0.153099 -5.73196 0
M  V30 6603 N 605.839 -0.330364 -6.92012 0
M  V30 6604 N 607.632 -0.0938854 -5.62022 0
M  V30 6605 H 599.783 -1.03263 -1.85609 0
M  V30 6606 H 602.046 -0.405251 -0.857016 0
M  V30 6607 H 601.752 -0.947254 -3.38703 0
M  V30 6608 H 601.626 0.776335 -3.69124 0
M  V30 6609 H 604.013 1.07894 -2.74669 0
M  V30 6610 H 604.094 -0.666762 -2.46957 0
M  V30 6611 H 603.738 -1.05729 -4.96773 0
M  V30 6612 H 603.668 0.705082 -5.21858 0
M  V30 6613 H 606.159 0.103141 -3.77759 0
M  V30 6614 H 606.472 -0.41482 -7.71686 0
M  V30 6615 H 604.817 -0.366119 -6.94035 0
M  V30 6616 H 608.008 0.0435168 -4.6808 0
M  V30 6617 H 608.181 -0.19245 -6.47714 0
M  V30 6618 N 601.587 1.56661 0.17182 0
M  V30 6619 C 603.003 1.50768 0.52357 0
M  V30 6620 C 603.203 0.806072 1.84675 0
M  V30 6621 O 602.259 0.366233 2.4983 0
M  V30 6622 C 603.572 2.955 0.556793 0
M  V30 6623 C 605.12 3.06303 0.644029 0
M  V30 6624 C 605.595 4.52492 0.708148 0
M  V30 6625 N 607.086 4.56737 0.771051 0
M  V30 6626 C 607.821 5.67196 0.841229 0
M  V30 6627 N 607.317 6.87287 0.872272 0
M  V30 6628 N 609.11 5.55165 0.88021 0
M  V30 6629 H 601.261 2.00679 -0.695817 0
M  V30 6630 H 603.524 0.914219 -0.250814 0
M  V30 6631 H 603.23 3.49986 -0.346774 0
M  V30 6632 H 603.104 3.50119 1.40346 0
M  V30 6633 H 605.491 2.51851 1.53802 0
M  V30 6634 H 605.572 2.5477 -0.229297 0
M  V30 6635 H 605.216 5.07575 -0.181585 0
M  V30 6636 H 605.146 5.01781 1.59761 0
M  V30 6637 H 607.637 3.70274 0.755364 0
M  V30 6638 H 607.95 7.6722 0.92698 0
M  V30 6639 H 606.295 6.89898 0.840557 0
M  V30 6640 H 609.486 4.60263 0.852956 0
M  V30 6641 H 609.659 6.41271 0.931439 0
M  V30 6642 N 603.065 -0.440357 1.51323 0
M  V30 6643 C 603.995 -1.54174 1.75364 0
M  V30 6644 C 604.976 -1.59039 0.603375 0
M  V30 6645 O 606.161 -1.74815 0.845774 0
M  V30 6646 C 603.291 -2.92277 1.87593 0
M  V30 6647 C 602.245 -3.02274 3.03009 0
M  V30 6648 C 601.571 -4.42327 3.00418 0
M  V30 6649 C 602.871 -2.76634 4.43024 0
M  V30 6650 H 604.565 -1.34307 2.67585 0
M  V30 6651 H 602.111 -0.644678 1.28763 0
M  V30 6652 H 604.064 -3.69284 2.02995 0
M  V30 6653 H 602.788 -3.13369 0.920179 0
M  V30 6654 H 601.447 -2.27706 2.87307 0
M  V30 6655 H 601.095 -4.60382 2.02626 0
M  V30 6656 H 600.795 -4.49946 3.77918 0
M  V30 6657 H 602.319 -5.21312 3.17909 0
M  V30 6658 H 603.733 -3.43376 4.59093 0
M  V30 6659 H 602.13 -2.95666 5.22208 0
M  V30 6660 H 603.2 -1.72262 4.5327 0
M  V30 6661 N 604.543 -1.41418 -0.695603 0
M  V30 6662 C 605.453 -1.45622 -1.83933 0
M  V30 6663 C 606.469 -0.346825 -1.70508 0
M  V30 6664 O 607.645 -0.59454 -1.92424 0
M  V30 6665 C 604.71 -1.33627 -3.19914 0
M  V30 6666 C 603.771 -2.54882 -3.45447 0
M  V30 6667 C 603.004 -2.43449 -4.7494 0
M  V30 6668 O 603.227 -1.45905 -5.51424 0
M  V30 6669 O 602.161 -3.33206 -5.01256 0
M  V30 6670 H 605.987 -2.42114 -1.83342 0
M  V30 6671 H 603.572 -1.22956 -0.848658 0
M  V30 6672 H 605.454 -1.29221 -4.01098 0
M  V30 6673 H 604.129 -0.402508 -3.21188 0
M  V30 6674 H 603.036 -2.64865 -2.64192 0
M  V30 6675 H 604.369 -3.47087 -3.48987 0
M  V30 6676 N 606.021 0.929856 -1.27246 0
M  V30 6677 C 606.931 2.0636 -1.11592 0
M  V30 6678 C 607.947 1.73938 -0.046496 0
M  V30 6679 O 609.123 1.9981 -0.252544 0
M  V30 6680 C 606.188 3.38213 -0.762437 0
M  V30 6681 C 605.249 3.84346 -1.9125 0
M  V30 6682 C 604.482 5.09906 -1.57579 0
M  V30 6683 O 604.705 5.68354 -0.482694 0
M  V30 6684 O 603.639 5.51359 -2.41426 0
M  V30 6685 H 607.465 2.22478 -2.0673 0
M  V30 6686 H 605.05 1.04865 -1.06413 0
M  V30 6687 H 606.932 4.1741 -0.57854 0
M  V30 6688 H 605.607 3.23307 0.159439 0
M  V30 6689 H 604.514 3.06045 -2.15144 0
M  V30 6690 H 605.847 4.0379 -2.81451 0
M  V30 6691 N 607.499 1.09233 1.13605 0
M  V30 6692 C 608.431 0.687794 2.18637 0
M  V30 6693 C 609.444 -0.26936 1.60556 0
M  V30 6694 O 610.633 -0.0557162 1.78413 0
M  V30 6695 C 607.733 -0.00751901 3.38899 0
M  V30 6696 C 606.906 0.97067 4.26494 0
M  V30 6697 C 605.965 0.309129 5.25291 0
M  V30 6698 O 604.991 0.956149 5.61112 0
M  V30 6699 N 606.193 -0.937555 5.72879 0
M  V30 6700 H 608.958 1.59141 2.53957 0
M  V30 6701 H 606.519 0.979515 1.28907 0
M  V30 6702 H 608.511 -0.461238 4.02063 0
M  V30 6703 H 607.081 -0.813353 3.01833 0
M  V30 6704 H 606.301 1.603 3.60135 0
M  V30 6705 H 607.589 1.63323 4.81875 0
M  V30 6706 H 606.987 -1.48281 5.4592 0
M  V30 6707 H 605.544 -1.33463 6.3799 0
M  V30 6708 N 608.977 -1.30795 0.87923 0
M  V30 6709 C 609.909 -2.27241 0.299025 0
M  V30 6710 C 610.922 -1.53472 -0.543166 0
M  V30 6711 O 612.111 -1.74756 -0.363651 0
M  V30 6712 C 609.211 -3.33655 -0.593931 0
M  V30 6713 C 608.384 -4.36857 0.2179 0
M  V30 6714 C 607.443 -5.22715 -0.604646 0
M  V30 6715 O 606.469 -5.69192 -0.0293838 0
M  V30 6716 N 607.671 -5.48008 -1.91488 0
M  V30 6717 H 610.436 -2.77667 1.12788 0
M  V30 6718 H 607.997 -1.43914 0.741637 0
M  V30 6719 H 609.989 -3.88013 -1.15012 0
M  V30 6720 H 608.559 -2.83202 -1.32346 0
M  V30 6721 H 607.779 -3.82444 0.955536 0
M  V30 6722 H 609.067 -5.02869 0.774614 0
M  V30 6723 H 608.465 -5.1202 -2.40525 0
M  V30 6724 H 607.022 -6.05264 -2.41864 0
M  V30 6725 N 610.455 -0.639598 -1.44038 0
M  V30 6726 C 611.871 -0.305953 -1.5664 0
M  V30 6727 C 612.071 1.19055 -1.62567 0
M  V30 6728 O 611.127 1.97492 -1.57331 0
M  V30 6729 C 612.44 -1.00533 -2.83397 0
M  V30 6730 C 613.988 -0.984278 -2.97121 0
M  V30 6731 C 614.463 -1.66428 -4.26691 0
M  V30 6732 N 615.954 -1.63127 -4.33525 0
M  V30 6733 C 616.689 -2.12629 -5.32519 0
M  V30 6734 N 616.185 -2.70359 -6.3787 0
M  V30 6735 N 617.978 -2.03208 -5.24083 0
M  V30 6736 H 610.129 -1.6109 -1.38434 0
M  V30 6737 H 612.392 -0.676672 -0.663942 0
M  V30 6738 H 612.098 -2.06034 -2.85032 0
M  V30 6739 H 611.972 -0.548362 -3.73193 0
M  V30 6740 H 614.359 0.0622792 -2.95034 0
M  V30 6741 H 614.44 -1.47981 -2.08651 0
M  V30 6742 H 614.084 -2.71034 -4.29538 0
M  V30 6743 H 614.014 -1.14351 -5.14034 0
M  V30 6744 H 616.505 -1.20987 -3.58009 0
M  V30 6745 H 616.818 -3.05842 -7.09704 0
M  V30 6746 H 615.163 -2.74414 -6.38531 0
M  V30 6747 H 618.354 -1.57823 -4.40692 0
M  V30 6748 H 618.527 -2.42097 -6.01077 0
M  V30 6749 N 611.933 1.52934 -0.380664 0
M  V30 6750 C 613.349 1.59571 -0.0302429 0
M  V30 6751 C 613.549 1.39509 1.45394 0
M  V30 6752 O 612.605 1.20777 2.21741 0
M  V30 6753 C 613.918 2.96519 -0.499691 0
M  V30 6754 C 615.466 3.09672 -0.455204 0
M  V30 6755 C 615.941 4.49056 -0.900703 0
M  V30 6756 N 617.432 4.55215 -0.856367 0
M  V30 6757 C 618.167 5.61282 -1.17259 0
M  V30 6758 N 617.663 6.75035 -1.55885 0
M  V30 6759 N 619.456 5.51343 -1.0944 0
M  V30 6760 H 611.607 1.64224 -1.347 0
M  V30 6761 H 613.87 0.771033 -0.551554 0
M  V30 6762 H 613.576 3.16388 -1.53595 0
M  V30 6763 H 613.45 3.77052 0.105789 0
M  V30 6764 H 615.837 2.89504 0.571949 0
M  V30 6765 H 615.918 2.31113 -1.09638 0
M  V30 6766 H 615.562 4.69964 -1.92604 0
M  V30 6767 H 615.492 5.26068 -0.236629 0
M  V30 6768 H 617.983 3.73546 -0.572013 0
M  V30 6769 H 618.296 7.51926 -1.784 0
M  V30 6770 H 616.641 6.76388 -1.59764 0
M  V30 6771 H 619.832 4.61356 -0.791713 0
M  V30 6772 H 620.005 6.33905 -1.34417 0
M  V30 6773 N 613.412 0.11024 1.57214 0
M  V30 6774 C 614.322 -0.857077 2.18383 0
M  V30 6775 C 615.338 -1.29915 1.1575 0
M  V30 6776 O 616.514 -1.36394 1.48184 0
M  V30 6777 C 613.579 -2.09264 2.76423 0
M  V30 6778 C 612.64 -1.70333 3.94063 0
M  V30 6779 C 611.873 -2.87999 4.49324 0
M  V30 6780 O 612.096 -4.0317 4.03497 0
M  V30 6781 O 611.03 -2.6559 5.40135 0
M  V30 6782 H 614.856 -0.366561 3.0148 0
M  V30 6783 H 612.441 -0.114914 1.48957 0
M  V30 6784 H 614.323 -2.81644 3.13456 0
M  V30 6785 H 612.998 -2.57339 1.96363 0
M  V30 6786 H 611.905 -0.950864 3.61814 0
M  V30 6787 H 613.238 -1.27007 4.75531 0
M  V30 6788 N 614.89 -1.56749 -0.16351 0
M  V30 6789 C 616.306 -1.51043 -0.515567 0
M  V30 6790 C 616.506 -0.815855 -1.84245 0
M  V30 6791 O 615.562 -0.379477 -2.49632 0
M  V30 6792 C 616.875 -2.95791 -0.541114 0
M  V30 6793 C 618.423 -3.0664 -0.627776 0
M  V30 6794 C 618.898 -4.52861 -0.684141 0
M  V30 6795 N 620.389 -4.5714 -0.746818 0
M  V30 6796 C 621.124 -5.67634 -0.811137 0
M  V30 6797 N 620.62 -6.8774 -0.835811 0
M  V30 6798 N 622.413 -5.55624 -0.850756 0
M  V30 6799 H 614.564 -2.00307 0.70645 0
M  V30 6800 H 616.827 -0.912876 0.255659 0
M  V30 6801 H 616.533 -3.49797 0.365329 0
M  V30 6802 H 616.407 -3.50858 -1.38487 0
M  V30 6803 H 618.794 -2.52663 -1.52464 0
M  V30 6804 H 618.875 -2.54645 0.242805 0
M  V30 6805 H 618.519 -5.07472 0.2085 0
M  V30 6806 H 618.449 -5.02621 -1.57098 0
M  V30 6807 H 620.94 -3.70669 -0.735717 0
M  V30 6808 H 621.253 -7.67701 -0.886279 0
M  V30 6809 H 619.598 -6.90334 -0.803958 0
M  V30 6810 H 622.789 -4.60709 -0.828535 0
M  V30 6811 H 622.962 -6.41756 -0.897418 0
M  V30 6812 N 616.368 0.432326 -1.51554 0
M  V30 6813 C 617.278 1.55023 -1.76082 0
M  V30 6814 C 618.294 1.61593 -0.645265 0
M  V30 6815 O 619.47 1.78742 -0.928086 0
M  V30 6816 C 616.535 2.90964 -1.88523 0
M  V30 6817 C 615.596 2.9447 -3.12388 0
M  V30 6818 C 614.829 4.23926 -3.24225 0
M  V30 6819 O 615.052 5.16576 -2.4188 0
M  V30 6820 O 613.986 4.33818 -4.17235 0
M  V30 6821 H 617.812 1.37238 -2.70923 0
M  V30 6822 H 615.397 0.615845 -1.36117 0
M  V30 6823 H 617.279 3.71633 -1.98662 0
M  V30 6824 H 615.954 3.08865 -0.9687 0
M  V30 6825 H 614.861 2.12737 -3.07723 0
M  V30 6826 H 616.194 2.81514 -4.03746 0
M  V30 6827 N 617.846 1.41785 0.688094 0
M  V30 6828 C 618.809 1.43936 1.78368 0
M  V30 6829 C 619.809 0.328866 1.57401 0
M  V30 6830 O 620.999 0.589093 1.63937 0
M  V30 6831 C 618.131 1.25804 3.16838 0
M  V30 6832 H 619.324 2.41472 1.77852 0
M  V30 6833 H 616.877 1.28037 0.896448 0
M  V30 6834 H 617.612 0.291386 3.22988 0
M  V30 6835 H 617.397 2.06272 3.33458 0
M  V30 6836 H 618.887 1.30162 3.96797 0
M  V30 6837 N 619.324 -0.923095 1.27737 0
M  V30 6838 C 620.74 -1.19985 1.05241 0
M  V30 6839 C 620.94 -2.00391 -0.21113 0
M  V30 6840 O 619.996 -2.35324 -0.915366 0
M  V30 6841 C 621.309 -1.94352 2.29451 0
M  V30 6842 C 622.857 -2.07273 2.34536 0
M  V30 6843 C 623.332 -2.85046 3.58487 0
M  V30 6844 N 624.823 -2.92612 3.59072 0
M  V30 6845 C 625.558 -3.53266 4.51654 0
M  V30 6846 N 625.054 -4.15274 5.54545 0
M  V30 6847 N 626.847 -3.50714 4.39268 0
M  V30 6848 H 618.998 -0.386042 2.08862 0
M  V30 6849 H 621.261 -0.233407 0.918817 0
M  V30 6850 H 620.967 -1.42692 3.21453 0
M  V30 6851 H 620.841 -2.94947 2.3513 0
M  V30 6852 H 623.228 -2.58117 1.43037 0
M  V30 6853 H 623.309 -1.05884 2.32857 0
M  V30 6854 H 622.953 -2.34884 4.50324 0
M  V30 6855 H 622.883 -3.8673 3.57418 0
M  V30 6856 H 625.374 -2.48547 2.84663 0
M  V30 6857 H 625.687 -4.59507 6.21348 0
M  V30 6858 H 624.032 -4.13806 5.58382 0
M  V30 6859 H 627.223 -3.01475 3.58093 0
M  V30 6860 H 627.396 -3.97693 5.1161 0
M  V30 6861 N 620.802 -1.09834 -1.13024 0
M  V30 6862 C 622.218 -0.828875 -1.36388 0
M  V30 6863 C 622.418 0.554756 -1.93713 0
M  V30 6864 O 621.474 1.30882 -2.15931 0
M  V30 6865 C 622.787 -1.92352 -2.3113 0
M  V30 6866 C 624.335 -1.95124 -2.44735 0
M  V30 6867 C 624.81 -3.03745 -3.42787 0
M  V30 6868 N 626.301 -3.03012 -3.5034 0
M  V30 6869 C 627.036 -3.83699 -4.26101 0
M  V30 6870 N 626.532 -4.74306 -5.04981 0
M  V30 6871 N 628.325 -3.71942 -4.21445 0
M  V30 6872 H 620.476 -1.99029 -0.74169 0
M  V30 6873 H 622.739 -0.864557 -0.388903 0
M  V30 6874 H 622.445 -2.91906 -1.96172 0
M  V30 6875 H 622.319 -1.80536 -3.3119 0
M  V30 6876 H 624.706 -0.962069 -2.78977 0
M  V30 6877 H 624.787 -2.11018 -1.44586 0
M  V30 6878 H 624.431 -4.02878 -3.09276 0
M  V30 6879 H 624.361 -2.85094 -4.42752 0
M  V30 6880 H 626.852 -2.37352 -2.94062 0
M  V30 6881 H 627.165 -5.32446 -5.60108 0
M  V30 6882 H 625.51 -4.78339 -5.04199 0
M  V30 6883 H 628.701 -3.00513 -3.589 0
M  V30 6884 H 628.874 -4.35062 -4.80235 0
M  V30 6885 N 622.28 1.30327 -0.886154 0
M  V30 6886 C 623.212 2.27079 -0.311072 0
M  V30 6887 C 624.225 1.53758 0.53502 0
M  V30 6888 O 625.414 1.74947 0.354378 0
M  V30 6889 C 622.514 3.33965 0.576228 0
M  V30 6890 C 621.687 4.36735 -0.241064 0
M  V30 6891 C 620.746 5.23028 0.576916 0
M  V30 6892 O 619.772 5.692 -0.000802231 0
M  V30 6893 N 620.974 5.49016 1.88579 0
M  V30 6894 H 623.739 2.77065 -1.14259 0
M  V30 6895 H 621.3 1.43519 -0.749258 0
M  V30 6896 H 623.292 3.88618 1.12953 0
M  V30 6897 H 621.862 2.839 1.30842 0
M  V30 6898 H 621.082 3.81932 -0.975805 0
M  V30 6899 H 622.37 5.02451 -0.801272 0
M  V30 6900 H 621.768 5.13288 2.37806 0
M  V30 6901 H 620.325 6.06539 2.38651 0
M  V30 6902 N 623.758 0.647228 1.43697 0
M  V30 6903 C 624.69 -0.0866232 2.29036 0
M  V30 6904 C 625.703 -0.793051 1.42178 0
M  V30 6905 O 626.892 -0.651807 1.66174 0
M  V30 6906 C 623.992 -1.14552 3.18953 0
M  V30 6907 C 623.165 -0.518422 4.34317 0
M  V30 6908 C 622.224 -1.4734 5.05151 0
M  V30 6909 O 621.25 -0.984312 5.60625 0
M  V30 6910 N 622.452 -2.8075 5.08094 0
M  V30 6911 H 625.217 0.645834 2.92659 0
M  V30 6912 H 622.778 0.489567 1.54321 0
M  V30 6913 H 624.77 -1.78505 3.63205 0
M  V30 6914 H 623.34 -1.78001 2.56971 0
M  V30 6915 H 622.56 0.300079 3.93056 0
M  V30 6916 H 623.848 -0.080401 5.08736 0
M  V30 6917 H 623.246 -3.23052 4.64386 0
M  V30 6918 H 621.803 -3.40022 5.56083 0
M  V30 6919 N 625.236 -1.5273 0.388769 0
M  V30 6920 C 626.146 -2.30165 -0.453993 0
M  V30 6921 C 627.162 -1.37058 -1.07197 0
M  V30 6922 O 628.338 -1.70127 -1.0779 0
M  V30 6923 C 625.403 -3.09303 -1.56628 0
M  V30 6924 C 624.464 -4.18117 -0.973467 0
M  V30 6925 C 623.697 -4.93472 -2.03275 0
M  V30 6926 O 623.92 -4.68913 -3.24772 0
M  V30 6927 O 622.854 -5.78833 -1.65034 0
M  V30 6928 H 626.68 -3.03185 0.176816 0
M  V30 6929 H 624.265 -1.4862 0.152501 0
M  V30 6930 H 626.147 -3.58648 -2.21246 0
M  V30 6931 H 624.822 -2.39098 -2.18206 0
M  V30 6932 H 623.729 -3.7297 -0.290556 0
M  V30 6933 H 625.062 -4.90556 -0.401908 0
M  V30 6934 N 626.714 -0.118576 -1.57153 0
M  V30 6935 C 628.13 0.238014 -1.57815 0
M  V30 6936 C 628.33 1.66747 -1.13127 0
M  V30 6937 O 627.386 2.38867 -0.818462 0
M  V30 6938 C 628.699 0.00508207 -3.007 0
M  V30 6939 C 630.247 0.0710139 -3.12919 0
M  V30 6940 C 630.722 -0.13422 -4.57803 0
M  V30 6941 N 632.213 -0.0801755 -4.63131 0
M  V30 6942 C 632.948 -0.213885 -5.73001 0
M  V30 6943 N 632.444 -0.403742 -6.91623 0
M  V30 6944 N 634.237 -0.15349 -5.6189 0
M  V30 6945 H 626.388 -1.05226 -1.84503 0
M  V30 6946 H 628.651 -0.414318 -0.852669 0
M  V30 6947 H 628.357 -0.983125 -3.3768 0
M  V30 6948 H 628.231 0.73714 -3.69927 0
M  V30 6949 H 630.618 1.04975 -2.75798 0
M  V30 6950 H 630.699 -0.692918 -2.46236 0
M  V30 6951 H 630.343 -1.10992 -4.95624 0
M  V30 6952 H 630.273 0.649692 -5.22577 0
M  V30 6953 H 632.764 0.0630689 -3.77847 0
M  V30 6954 H 633.077 -0.496645 -7.71202 0
M  V30 6955 H 631.422 -0.43971 -6.93608 0
M  V30 6956 H 634.613 -0.00613174 -4.681 0
M  V30 6957 H 634.786 -0.261138 -6.47474 0
M  V30 6958 N 628.193 1.56834 0.155195 0
M  V30 6959 C 629.103 2.009 1.21146 0
M  V30 6960 C 630.119 0.923029 1.475 0
M  V30 6961 O 631.295 1.23189 1.59331 0
M  V30 6962 C 628.36 2.37378 2.52691 0
M  V30 6963 C 627.421 3.59883 2.34057 0
M  V30 6964 C 626.654 3.94612 3.59329 0
M  V30 6965 O 626.877 3.30104 4.65175 0
M  V30 6966 O 625.811 4.87895 3.52479 0
M  V30 6967 H 629.637 2.9105 0.867371 0
M  V30 6968 H 627.222 1.44916 0.363298 0
M  V30 6969 H 629.104 2.61737 3.3026 0
M  V30 6970 H 627.779 1.50385 2.86646 0
M  V30 6971 H 626.686 3.40722 1.54465 0
M  V30 6972 H 628.019 4.47468 2.0502 0
M  V30 6973 N 629.671 -0.424282 1.51781 0
M  V30 6974 C 630.603 -1.53457 1.70246 0
M  V30 6975 C 631.616 -1.52004 0.582967 0
M  V30 6976 O 632.805 -1.56544 0.857683 0
M  V30 6977 C 629.905 -2.92368 1.71389 0
M  V30 6978 C 629.078 -3.1818 3.00133 0
M  V30 6979 C 628.137 -4.36884 2.9329 0
M  V30 6980 O 627.163 -4.34901 3.67219 0
M  V30 6981 N 628.365 -5.4117 2.10036 0
M  V30 6982 H 631.13 -1.38017 2.66029 0
M  V30 6983 H 628.691 -0.613394 1.4983 0
M  V30 6984 H 630.683 -3.6982 1.64362 0
M  V30 6985 H 629.253 -3.0134 0.831449 0
M  V30 6986 H 628.473 -2.28908 3.20928 0
M  V30 6987 H 629.761 -3.32261 3.85331 0
M  V30 6988 H 629.159 -5.45623 1.49373 0
M  V30 6989 H 627.716 -6.17425 2.08878 0
M  V30 6990 N 631.149 -1.42148 -0.680565 0
M  V30 6991 C 632.565 -1.24947 -0.992995 0
M  V30 6992 C 632.765 -0.149527 -2.00944 0
M  V30 6993 O 631.821 0.481145 -2.47873 0
M  V30 6994 C 633.134 -2.60426 -1.5033 0
M  V30 6995 C 634.682 -2.67733 -1.62137 0
M  V30 6996 C 635.157 -4.03564 -2.16565 0
M  V30 6997 N 636.648 -4.05488 -2.23905 0
M  V30 6998 C 637.383 -5.07401 -2.67081 0
M  V30 6999 N 636.879 -6.19698 -3.09751 0
M  V30 7000 N 638.672 -4.94758 -2.66778 0
M  V30 7001 H 630.823 -2.12399 -0.0074788 0
M  V30 7002 H 633.086 -0.94571 -0.0658529 0
M  V30 7003 H 632.792 -3.41743 -0.830947 0
M  V30 7004 H 632.666 -2.83949 -2.483 0
M  V30 7005 H 635.053 -1.86765 -2.2848 0
M  V30 7006 H 635.134 -2.48004 -0.626713 0
M  V30 7007 H 634.778 -4.84987 -1.50833 0
M  V30 7008 H 634.708 -4.20641 -3.1681 0
M  V30 7009 H 637.199 -3.24415 -1.93812 0
M  V30 7010 H 637.512 -6.93318 -3.41365 0
M  V30 7011 H 635.857 -6.23212 -3.07623 0
M  V30 7012 H 639.048 -4.06105 -2.32801 0
M  V30 7013 H 639.221 -5.74317 -3.00107 0
M  V30 7014 N 632.627 0.916307 -1.28225 0
M  V30 7015 C 634.043 1.19425 -1.05876 0
M  V30 7016 C 634.243 2.005 0.2005 0
M  V30 7017 O 633.299 2.35806 0.902873 0
M  V30 7018 C 634.612 1.93133 -2.30478 0
M  V30 7019 C 636.16 2.06026 -2.35632 0
M  V30 7020 C 636.635 2.83141 -3.59994 0
M  V30 7021 N 638.126 2.90704 -3.60618 0
M  V30 7022 C 638.861 3.50865 -4.53521 0
M  V30 7023 N 638.357 4.12327 -5.56739 0
M  V30 7024 N 640.15 3.48379 -4.41122 0
M  V30 7025 H 632.301 0.37496 -2.09064 0
M  V30 7026 H 634.564 0.228531 -0.920042 0
M  V30 7027 H 634.27 1.40985 -3.22205 0
M  V30 7028 H 634.144 2.93696 -2.36691 0
M  V30 7029 H 636.531 2.57355 -1.44404 0
M  V30 7030 H 636.612 1.04647 -2.33415 0
M  V30 7031 H 636.256 2.32492 -4.51564 0
M  V30 7032 H 636.186 3.84829 -3.59464 0
M  V30 7033 H 638.677 2.47034 -2.85977 0
M  V30 7034 H 638.99 4.56205 -6.23776 0
M  V30 7035 H 637.335 4.10839 -5.60568 0
M  V30 7036 H 640.526 2.99572 -3.59686 0
M  V30 7037 H 640.699 3.94974 -5.13712 0
M  V30 7038 N 634.105 1.10431 1.1244 0
M  V30 7039 C 635.521 0.836096 1.35947 0
M  V30 7040 C 635.721 -0.544475 1.94004 0
M  V30 7041 O 634.777 -1.29735 2.16622 0
M  V30 7042 C 636.09 1.93575 2.30107 0
M  V30 7043 C 637.638 1.9642 2.43697 0
M  V30 7044 C 638.113 3.05559 3.41171 0
M  V30 7045 N 639.604 3.04865 3.48728 0
M  V30 7046 C 640.339 3.85954 4.24061 0
M  V30 7047 N 639.835 4.76977 5.02458 0
M  V30 7048 N 641.628 3.74172 4.19466 0
M  V30 7049 H 633.779 1.9942 0.731124 0
M  V30 7050 H 636.042 0.866607 0.384312 0
M  V30 7051 H 635.748 2.92943 1.94621 0
M  V30 7052 H 635.622 1.8229 3.30227 0
M  V30 7053 H 638.009 0.97685 2.78463 0
M  V30 7054 H 638.09 2.11782 1.43465 0
M  V30 7055 H 637.734 4.04513 3.07135 0
M  V30 7056 H 637.664 2.87438 4.41234 0
M  V30 7057 H 640.155 2.38908 2.92799 0
M  V30 7058 H 640.468 5.35409 5.57277 0
M  V30 7059 H 638.813 4.81006 5.01655 0
M  V30 7060 H 642.004 3.02412 3.57302 0
M  V30 7061 H 642.177 4.37602 4.77921 0
M  V30 7062 N 635.583 -1.29855 0.893053 0
M  V30 7063 C 636.493 -2.31661 0.370157 0
M  V30 7064 C 637.509 -1.65677 -0.531723 0
M  V30 7065 O 638.685 -1.9691 -0.422902 0
M  V30 7066 C 635.75 -3.44388 -0.399741 0
M  V30 7067 C 634.811 -4.2598 0.532861 0
M  V30 7068 C 634.044 -5.33324 -0.200388 0
M  V30 7069 O 634.267 -5.52305 -1.42531 0
M  V30 7070 O 633.201 -6.00188 0.453668 0
M  V30 7071 H 637.027 -2.78354 1.2146 0
M  V30 7072 H 634.612 -1.34171 0.657153 0
M  V30 7073 H 636.494 -4.13037 -0.835358 0
M  V30 7074 H 635.169 -2.99815 -1.22035 0
M  V30 7075 H 634.076 -3.59998 1.01746 0
M  V30 7076 H 635.409 -4.74178 1.3197 0
M  V30 7077 N 637.061 -0.65484 -1.43351 0
M  V30 7078 C 637.993 0.0744757 -2.29079 0
M  V30 7079 C 639.006 0.7855 -1.42596 0
M  V30 7080 O 640.195 0.642986 -1.66517 0
M  V30 7081 C 637.295 1.12859 -3.19556 0
M  V30 7082 C 636.468 0.495381 -4.34586 0
M  V30 7083 C 635.527 1.44659 -5.05925 0
M  V30 7084 O 634.553 0.954567 -5.61139 0
M  V30 7085 N 635.755 2.78051 -5.09576 0
M  V30 7086 H 638.52 -0.661346 -2.92312 0
M  V30 7087 H 636.081 -0.497744 -1.54059 0
M  V30 7088 H 638.073 1.76577 -3.64147 0
M  V30 7089 H 636.643 1.76636 -2.57912 0
M  V30 7090 H 635.863 -0.32092 -3.92892 0
M  V30 7091 H 637.151 0.0534203 -5.08772 0
M  V30 7092 H 636.549 3.20584 -4.66093 0
M  V30 7093 H 635.106 3.37068 -5.57878 0
M  V30 7094 N 638.539 1.52521 -0.396863 0
M  V30 7095 C 639.449 2.30403 0.44178 0
M  V30 7096 C 640.465 1.37625 1.06468 0
M  V30 7097 O 641.641 1.70697 1.06886 0
M  V30 7098 C 638.706 3.1013 1.54986 0
M  V30 7099 C 637.767 4.18628 0.951279 0
M  V30 7100 C 637 4.94543 2.00655 0
M  V30 7101 O 637.223 4.70629 3.22281 0
M  V30 7102 O 636.157 5.797 1.61962 0
M  V30 7103 H 639.983 3.03087 -0.192892 0
M  V30 7104 H 637.568 1.48537 -0.16038 0
M  V30 7105 H 639.45 3.59816 2.19341 0
M  V30 7106 H 638.125 2.40251 2.16935 0
M  V30 7107 H 637.032 3.73119 0.270773 0
M  V30 7108 H 638.365 4.90763 0.375887 0
M  V30 7109 N 640.017 0.126909 1.57088 0
M  V30 7110 C 640.927 -0.833867 2.1928 0
M  V30 7111 C 641.943 -1.2868 1.17122 0
M  V30 7112 O 643.119 -1.34815 1.49622 0
M  V30 7113 C 640.184 -2.0632 2.78627 0
M  V30 7114 C 639.245 -1.66143 3.95847 0
M  V30 7115 C 638.478 -2.83217 4.52354 0
M  V30 7116 O 638.701 -3.98868 4.0775 0
M  V30 7117 O 637.635 -2.59846 5.42922 0
M  V30 7118 H 641.461 -0.334564 3.01852 0
M  V30 7119 H 639.046 -0.0991091 1.49071 0
M  V30 7120 H 640.928 -2.78304 3.16425 0
M  V30 7121 H 639.603 -2.55242 1.99082 0
M  V30 7122 H 638.51 -0.912435 3.62802 0
M  V30 7123 H 639.843 -1.21957 4.76852 0
M  V30 7124 N 641.495 -1.56914 -0.146875 0
M  V30 7125 C 642.442 -1.98275 -1.18134 0
M  V30 7126 C 643.412 -0.850367 -1.42681 0
M  V30 7127 O 644.597 -1.11244 -1.55014 0
M  V30 7128 C 641.737 -2.36861 -2.5098 0
M  V30 7129 C 640.85 -3.63391 -2.33605 0
M  V30 7130 C 639.985 -3.91079 -3.59486 0
M  V30 7131 C 639.024 -5.10879 -3.37149 0
M  V30 7132 N 638.161 -5.34577 -4.55161 0
M  V30 7133 H 643.001 -2.8645 -0.821622 0
M  V30 7134 H 640.538 -1.41718 -0.394248 0
M  V30 7135 H 642.496 -2.57262 -3.28439 0
M  V30 7136 H 641.126 -1.51766 -2.84898 0
M  V30 7137 H 640.178 -3.50766 -1.47199 0
M  V30 7138 H 641.49 -4.51007 -2.13059 0
M  V30 7139 H 640.644 -4.11979 -4.45374 0
M  V30 7140 H 639.383 -3.01885 -3.83036 0
M  V30 7141 H 638.388 -4.89853 -2.49649 0
M  V30 7142 H 639.613 -6.01626 -3.14997 0
M  V30 7143 H 637.559 -4.48337 -4.78884 0
M  V30 7144 H 637.476 -6.16463 -4.37618 0
M  V30 7145 H 638.744 -5.59975 -5.42263 0
M  V30 7146 N 642.974 0.416227 -1.52004 0
M  V30 7147 C 644.39 0.754319 -1.40649 0
M  V30 7148 C 644.59 1.95059 -0.505392 0
M  V30 7149 O 643.646 2.5248 0.0315057 0
M  V30 7150 C 644.959 1.0149 -2.83055 0
M  V30 7151 C 646.507 1.11805 -2.9235 0
M  V30 7152 C 646.982 1.41144 -4.35709 0
M  V30 7153 N 648.473 1.48024 -4.38911 0
M  V30 7154 C 649.208 1.72338 -5.46889 0
M  V30 7155 N 648.704 1.94303 -6.64995 0
M  V30 7156 N 650.497 1.74294 -5.34395 0
M  V30 7157 H 642.648 -0.371324 -2.09129 0
M  V30 7158 H 644.911 -0.103811 -0.942299 0
M  V30 7159 H 644.617 0.208345 -3.51082 0
M  V30 7160 H 644.491 1.93697 -3.23668 0
M  V30 7161 H 646.878 1.91521 -2.24508 0
M  V30 7162 H 646.959 0.17451 -2.55204 0
M  V30 7163 H 646.603 0.619484 -5.04108 0
M  V30 7164 H 646.533 2.36739 -4.70385 0
M  V30 7165 H 649.024 1.32868 -3.53772 0
M  V30 7166 H 649.337 2.12286 -7.43071 0
M  V30 7167 H 647.682 1.91582 -6.68073 0
M  V30 7168 H 650.873 1.56667 -4.41104 0
M  V30 7169 H 651.046 1.92904 -6.18621 0
M  V30 7170 N 644.452 1.42507 0.673017 0
M  V30 7171 C 645.868 1.25472 0.986355 0
M  V30 7172 C 646.068 0.160181 2.00862 0
M  V30 7173 O 645.124 -0.467993 2.48125 0
M  V30 7174 C 646.437 2.61219 1.48947 0
M  V30 7175 C 647.985 2.68589 1.60715 0
M  V30 7176 C 648.46 4.04707 2.14422 0
M  V30 7177 N 649.951 4.0667 2.21752 0
M  V30 7178 C 650.686 5.0881 2.64386 0
M  V30 7179 N 650.182 6.21332 3.0646 0
M  V30 7180 N 651.975 4.96166 2.64151 0
M  V30 7181 H 644.126 2.124 -0.00378532 0
M  V30 7182 H 646.389 0.946046 0.0608367 0
M  V30 7183 H 646.095 3.42179 0.812812 0
M  V30 7184 H 645.969 2.85261 2.46791 0
M  V30 7185 H 648.356 1.87974 2.27486 0
M  V30 7186 H 648.437 2.48333 0.613552 0
M  V30 7187 H 648.081 4.8578 1.48258 0
M  V30 7188 H 648.011 4.22315 3.14575 0
M  V30 7189 H 650.502 3.25438 1.92089 0
M  V30 7190 H 650.815 6.95118 3.37684 0
M  V30 7191 H 649.16 6.24835 3.04313 0
M  V30 7192 H 652.351 4.07334 2.30644 0
M  V30 7193 H 652.524 5.759 2.97057 0
M  V30 7194 N 645.93 -0.909495 1.28709 0
M  V30 7195 C 646.86 -2.0291 1.15542 0
M  V30 7196 C 647.841 -1.7002 0.0521017 0
M  V30 7197 O 649.026 -1.92835 0.229849 0
M  V30 7198 C 646.156 -3.37458 0.820935 0
M  V30 7199 C 645.11 -3.84524 1.87949 0
M  V30 7200 C 644.436 -5.16086 1.39854 0
M  V30 7201 C 645.736 -4.05918 3.28676 0
M  V30 7202 H 647.43 -2.14183 2.09203 0
M  V30 7203 H 644.976 -1.02913 1.00722 0
M  V30 7204 H 646.929 -4.1528 0.715571 0
M  V30 7205 H 645.653 -3.26249 -0.151374 0
M  V30 7206 H 644.312 -3.08911 1.97408 0
M  V30 7207 H 643.96 -5.01284 0.41518 0
M  V30 7208 H 643.66 -5.48547 2.1064 0
M  V30 7209 H 645.184 -5.96459 1.30649 0
M  V30 7210 H 646.598 -4.74252 3.22115 0
M  V30 7211 H 644.995 -4.49717 3.97334 0
M  V30 7212 H 646.065 -3.10583 3.72379 0
M  V30 7213 N 647.408 -1.11026 -1.11852 0
M  V30 7214 C 648.318 -0.777252 -2.2135 0
M  V30 7215 C 649.334 0.227821 -1.72502 0
M  V30 7216 O 650.51 0.0650587 -2.01295 0
M  V30 7217 C 647.575 -0.220668 -3.45997 0
M  V30 7218 C 646.636 -1.2838 -4.09655 0
M  V30 7219 C 645.869 -0.753678 -5.28352 0
M  V30 7220 O 646.092 0.417779 -5.68868 0
M  V30 7221 O 645.026 -1.51647 -5.82483 0
M  V30 7222 H 648.852 -1.69141 -2.5224 0
M  V30 7223 H 646.437 -0.885836 -1.20305 0
M  V30 7224 H 648.319 0.0855756 -4.21313 0
M  V30 7225 H 646.994 0.666262 -3.16769 0
M  V30 7226 H 645.901 -1.64299 -3.3609 0
M  V30 7227 H 647.234 -2.14396 -4.43052 0
M  V30 7228 N 648.886 1.2938 -0.899927 0
M  V30 7229 C 649.796 2.31462 -0.382437 0
M  V30 7230 C 650.812 1.65956 0.522929 0
M  V30 7231 O 651.988 1.97131 0.412454 0
M  V30 7232 C 649.053 3.44595 0.381472 0
M  V30 7233 C 648.114 4.25692 -0.555444 0
M  V30 7234 C 647.347 5.33422 0.172102 0
M  V30 7235 O 647.57 5.53053 1.396 0
M  V30 7236 O 646.504 5.99939 -0.485491 0
M  V30 7237 H 650.33 2.77706 -1.22934 0
M  V30 7238 H 647.915 1.33821 -0.664259 0
M  V30 7239 H 649.797 4.13474 0.813442 0
M  V30 7240 H 648.472 3.00458 1.20443 0
M  V30 7241 H 647.379 3.59453 -1.03653 0
M  V30 7242 H 648.712 4.73471 -1.34483 0
M  V30 7243 N 650.364 0.662433 1.43002 0
M  V30 7244 C 651.294 -0.00979809 2.33498 0
M  V30 7245 C 652.275 -0.802329 1.49989 0
M  V30 7246 O 653.46 -0.761964 1.78627 0
M  V30 7247 C 650.59 -0.970446 3.33466 0
M  V30 7248 C 649.544 -0.287383 4.27034 0
M  V30 7249 C 648.87 -1.36012 5.17112 0
M  V30 7250 C 650.17 0.82595 5.15728 0
M  V30 7251 H 651.864 0.745959 2.89958 0
M  V30 7252 H 649.41 0.360172 1.39423 0
M  V30 7253 H 651.363 -1.44971 3.95679 0
M  V30 7254 H 650.087 -1.75748 2.75282 0
M  V30 7255 H 648.746 0.17152 3.66199 0
M  V30 7256 H 648.394 -2.13882 4.55262 0
M  V30 7257 H 648.094 -0.908276 5.80538 0
M  V30 7258 H 649.618 -1.84056 5.82199 0
M  V30 7259 H 651.032 0.42845 5.71697 0
M  V30 7260 H 649.429 1.20282 5.87922 0
M  V30 7261 H 650.499 1.68003 4.54866 0
M  V30 7262 N 651.842 -1.52309 0.404946 0
M  V30 7263 C 652.752 -2.30634 -0.429555 0
M  V30 7264 C 653.768 -1.38187 -1.05737 0
M  V30 7265 O 654.944 -1.71261 -1.05979 0
M  V30 7266 C 652.009 -3.10947 -1.53339 0
M  V30 7267 C 651.07 -4.19126 -0.929065 0
M  V30 7268 C 650.303 -4.95601 -1.9803 0
M  V30 7269 O 650.526 -4.72331 -3.1978 0
M  V30 7270 O 649.46 -5.80551 -1.58886 0
M  V30 7271 H 653.286 -3.0298 0.208963 0
M  V30 7272 H 650.871 -1.4845 0.168255 0
M  V30 7273 H 652.753 -3.60974 -2.1743 0
M  V30 7274 H 651.428 -2.41399 -2.15658 0
M  V30 7275 H 650.335 -3.73257 -0.250982 0
M  V30 7276 H 651.668 -4.90955 -0.349855 0
M  V30 7277 N 653.32 -0.135238 -1.57019 0
M  V30 7278 C 654.736 0.221262 -1.58059 0
M  V30 7279 C 654.936 1.65538 -1.14889 0
M  V30 7280 O 653.992 2.37985 -0.843751 0
M  V30 7281 C 655.305 -0.0268114 -3.00688 0
M  V30 7282 C 656.853 0.0378206 -3.12977 0
M  V30 7283 C 657.328 -0.182769 -4.57635 0
M  V30 7284 N 658.819 -0.129292 -4.6302 0
M  V30 7285 C 659.554 -0.274648 -5.72742 0
M  V30 7286 N 659.05 -0.477075 -6.91155 0
M  V30 7287 N 660.843 -0.213077 -5.61696 0
M  V30 7288 H 652.994 -1.07177 -1.83376 0
M  V30 7289 H 655.257 -0.423338 -0.848227 0
M  V30 7290 H 654.963 -1.01889 -3.36618 0
M  V30 7291 H 654.837 0.697863 -3.70688 0
M  V30 7292 H 657.224 1.02043 -2.76896 0
M  V30 7293 H 657.305 -0.718996 -2.45487 0
M  V30 7294 H 656.949 -1.16243 -4.94419 0
M  V30 7295 H 656.879 0.59423 -5.23237 0
M  V30 7296 H 659.37 0.0229896 -3.77893 0
M  V30 7297 H 659.683 -0.578413 -7.70632 0
M  V30 7298 H 658.028 -0.513252 -6.93102 0
M  V30 7299 H 661.219 -0.0557796 -4.68067 0
M  V30 7300 H 661.392 -0.329796 -6.4716 0
M  V30 7301 N 654.798 1.5699 0.138552 0
M  V30 7302 C 656.214 1.51844 0.491472 0
M  V30 7303 C 656.414 0.845063 1.82923 0
M  V30 7304 O 655.47 0.419143 2.48997 0
M  V30 7305 C 656.783 2.96615 0.493987 0
M  V30 7306 C 658.331 3.076 0.578913 0
M  V30 7307 C 658.806 4.53893 0.612009 0
M  V30 7308 N 660.297 4.5827 0.673997 0
M  V30 7309 C 661.032 5.68852 0.720729 0
M  V30 7310 N 660.528 6.88982 0.726292 0
M  V30 7311 N 662.321 5.56908 0.762253 0
M  V30 7312 H 654.472 1.99158 -0.738228 0
M  V30 7313 H 656.735 0.908693 -0.270149 0
M  V30 7314 H 656.441 3.49172 -0.420933 0
M  V30 7315 H 656.315 3.53017 1.32887 0
M  V30 7316 H 658.702 2.55057 1.48425 0
M  V30 7317 H 658.783 2.54227 -0.283286 0
M  V30 7318 H 658.427 5.07076 -0.289208 0
M  V30 7319 H 658.357 5.05057 1.49082 0
M  V30 7320 H 660.848 3.71793 0.676654 0
M  V30 7321 H 661.161 7.69014 0.764032 0
M  V30 7322 H 659.506 6.91526 0.69403 0
M  V30 7323 H 662.697 4.61969 0.755135 0
M  V30 7324 H 662.87 6.43102 0.795207 0
M  V30 7325 N 656.276 -0.40816 1.52223 0
M  V30 7326 C 657.692 -0.74685 1.41047 0
M  V30 7327 C 657.892 -1.94788 0.51573 0
M  V30 7328 O 656.948 -2.52494 -0.0181156 0
M  V30 7329 C 658.261 -0.999878 2.83589 0
M  V30 7330 C 659.809 -1.10253 2.92939 0
M  V30 7331 C 660.284 -1.38832 4.36451 0
M  V30 7332 N 661.775 -1.45694 4.3969 0
M  V30 7333 C 662.51 -1.69435 5.47795 0
M  V30 7334 N 662.006 -1.90774 6.66016 0
M  V30 7335 N 663.799 -1.71458 5.35312 0
M  V30 7336 H 655.95 0.382409 2.08929 0
M  V30 7337 H 658.213 0.108807 0.941735 0
M  V30 7338 H 657.919 -0.189723 3.51188 0
M  V30 7339 H 657.793 -1.91978 3.24691 0
M  V30 7340 H 660.18 -1.90328 2.2552 0
M  V30 7341 H 660.261 -0.160973 2.55293 0
M  V30 7342 H 659.905 -0.592741 5.04429 0
M  V30 7343 H 659.835 -2.34241 4.71634 0
M  V30 7344 H 662.326 -1.3099 3.54472 0
M  V30 7345 H 662.639 -2.08342 7.44186 0
M  V30 7346 H 660.984 -1.88037 6.69079 0
M  V30 7347 H 664.175 -1.54326 4.41929 0
M  V30 7348 H 664.348 -1.89621 6.19635 0
M  V30 7349 N 657.755 -1.42862 -0.66545 0
M  V30 7350 C 658.702 -1.4707 -1.77874 0
M  V30 7351 C 659.672 -0.321654 -1.62956 0
M  V30 7352 O 660.857 -0.52707 -1.83376 0
M  V30 7353 C 657.997 -1.38788 -3.15962 0
M  V30 7354 C 657.11 -2.63801 -3.42101 0
M  V30 7355 C 656.245 -2.47594 -4.69969 0
M  V30 7356 C 655.284 -3.67936 -4.89172 0
M  V30 7357 N 654.421 -3.50614 -6.08288 0
M  V30 7358 H 659.261 -2.42204 -1.73613 0
M  V30 7359 H 656.798 -1.20239 -0.847401 0
M  V30 7360 H 658.756 -1.31982 -3.95773 0
M  V30 7361 H 657.386 -0.472431 -3.19324 0
M  V30 7362 H 656.438 -2.80935 -2.56475 0
M  V30 7363 H 657.75 -3.53228 -3.52181 0
M  V30 7364 H 656.904 -2.38427 -5.57886 0
M  V30 7365 H 655.643 -1.55672 -4.62188 0
M  V30 7366 H 654.648 -3.77525 -3.99694 0
M  V30 7367 H 655.873 -4.60851 -4.98792 0
M  V30 7368 H 653.819 -2.61417 -6.01662 0
M  V30 7369 H 653.736 -4.33634 -6.19272 0
M  V30 7370 H 655.004 -3.45276 -6.98859 0
M  V30 7371 N 659.233 0.902656 -1.29189 0
M  V30 7372 C 660.143 2.03946 -1.15944 0
M  V30 7373 C 661.159 1.738 -0.0833803 0
M  V30 7374 O 662.335 1.9923 -0.29487 0
M  V30 7375 C 659.4 3.36519 -0.834006 0
M  V30 7376 C 658.461 3.80203 -1.9936 0
M  V30 7377 C 657.694 5.06449 -1.68359 0
M  V30 7378 O 657.917 5.67202 -0.603141 0
M  V30 7379 O 656.851 5.46114 -2.53067 0
M  V30 7380 H 660.677 2.18043 -2.11403 0
M  V30 7381 H 658.262 1.02584 -1.08613 0
M  V30 7382 H 660.144 4.16089 -0.666949 0
M  V30 7383 H 658.819 3.23573 0.0908245 0
M  V30 7384 H 657.726 3.01413 -2.21588 0
M  V30 7385 H 659.059 3.97729 -2.89952 0
M  V30 7386 N 660.711 1.11618 1.11262 0
M  V30 7387 C 661.621 0.78898 2.20935 0
M  V30 7388 C 662.637 -0.21867 1.7262 0
M  V30 7389 O 663.813 -0.0543826 2.01327 0
M  V30 7390 C 660.878 0.239014 3.45875 0
M  V30 7391 C 659.939 1.3055 4.08968 0
M  V30 7392 C 659.172 0.781687 5.27944 0
M  V30 7393 O 659.395 -0.387605 5.69082 0
M  V30 7394 O 658.329 1.54734 5.81671 0
M  V30 7395 H 662.155 1.70477 2.51339 0
M  V30 7396 H 659.74 0.892203 1.19834 0
M  V30 7397 H 661.622 -0.0632312 4.21353 0
M  V30 7398 H 660.297 -0.649454 3.17118 0
M  V30 7399 H 659.204 1.66079 3.35214 0
M  V30 7400 H 660.537 2.16743 4.41909 0
M  V30 7401 N 662.189 -1.289 0.906776 0
M  V30 7402 C 663.099 -2.31256 0.394707 0
M  V30 7403 C 664.115 -1.66231 -0.514121 0
M  V30 7404 O 665.291 -1.97347 -0.401994 0
M  V30 7405 C 662.356 -3.44792 -0.363191 0
M  V30 7406 C 661.417 -4.25391 0.578012 0
M  V30 7407 C 660.65 -5.33506 -0.143811 0
M  V30 7408 O 660.873 -5.53786 -1.36665 0
M  V30 7409 O 659.807 -5.99673 0.5173 0
M  V30 7410 H 663.633 -2.77051 1.24405 0
M  V30 7411 H 661.218 -1.33466 0.671346 0
M  V30 7412 H 663.1 -4.139 -0.791503 0
M  V30 7413 H 661.775 -3.01093 -1.18848 0
M  V30 7414 H 660.682 -3.58899 1.05558 0
M  V30 7415 H 662.015 -4.72752 1.36992 0
M  V30 7416 N 663.667 -0.670007 -1.42649 0
M  V30 7417 C 664.577 0.0114788 -2.34597 0
M  V30 7418 C 665.593 0.794055 -1.54825 0
M  V30 7419 O 666.769 0.737472 -1.87412 0
M  V30 7420 C 663.834 0.954436 -3.33304 0
M  V30 7421 C 662.895 0.166925 -4.28975 0
M  V30 7422 C 662.128 1.06497 -5.22967 0
M  V30 7423 O 662.351 2.30446 -5.21777 0
M  V30 7424 O 661.285 0.528347 -5.99577 0
M  V30 7425 H 665.111 -0.745794 -2.944 0
M  V30 7426 H 662.696 -0.430228 -1.43071 0
M  V30 7427 H 664.578 1.49589 -3.93956 0
M  V30 7428 H 663.253 1.69164 -2.7598 0
M  V30 7429 H 662.16 -0.418515 -3.71752 0
M  V30 7430 H 663.493 -0.531067 -4.89327 0
M  V30 7431 N 665.145 1.52092 -0.413018 0
M  V30 7432 C 666.561 1.59471 -0.0640836 0
M  V30 7433 C 666.761 1.42562 1.42402 0
M  V30 7434 O 665.817 1.25453 2.19129 0
M  V30 7435 C 667.13 2.95392 -0.562474 0
M  V30 7436 C 668.678 3.08637 -0.520788 0
M  V30 7437 C 669.153 4.47044 -0.995752 0
M  V30 7438 N 670.644 4.53296 -0.952732 0
M  V30 7439 C 671.379 5.58669 -1.29138 0
M  V30 7440 N 670.875 6.71576 -1.70168 0
M  V30 7441 N 672.668 5.48898 -1.2111 0
M  V30 7442 H 664.819 1.6133 -1.38153 0
M  V30 7443 H 667.082 0.75916 -0.567785 0
M  V30 7444 H 666.788 3.13059 -1.60271 0
M  V30 7445 H 666.662 3.77191 0.0257875 0
M  V30 7446 H 669.049 2.90652 0.510412 0
M  V30 7447 H 669.13 2.28735 -1.14515 0
M  V30 7448 H 668.774 4.65773 -2.0253 0
M  V30 7449 H 668.704 5.25448 -0.348162 0
M  V30 7450 H 671.195 3.72248 -0.651119 0
M  V30 7451 H 671.508 7.47973 -1.9431 0
M  V30 7452 H 669.853 6.72847 -1.74075 0
M  V30 7453 H 673.044 4.59573 -0.889396 0
M  V30 7454 H 673.217 6.30912 -1.47833 0
M  V30 7455 N 666.623 0.143563 1.56945 0
M  V30 7456 C 668.039 -0.212877 1.58174 0
M  V30 7457 C 668.239 -1.64926 1.15766 0
M  V30 7458 O 667.295 -2.37535 0.856361 0
M  V30 7459 C 668.608 0.0427573 3.0067 0
M  V30 7460 C 670.156 -0.0212221 3.12993 0
M  V30 7461 C 670.631 0.207036 4.57532 0
M  V30 7462 N 672.122 0.153845 4.62944 0
M  V30 7463 C 672.857 0.305018 5.72588 0
M  V30 7464 N 672.353 0.513722 6.90893 0
M  V30 7465 N 674.146 0.242862 5.61575 0
M  V30 7466 H 666.297 1.08148 1.82805 0
M  V30 7467 H 668.56 0.427831 0.84597 0
M  V30 7468 H 668.266 1.03672 3.36073 0
M  V30 7469 H 668.14 -0.678195 3.71053 0
M  V30 7470 H 670.527 -1.00574 2.77433 0
M  V30 7471 H 670.608 0.732004 2.45103 0
M  V30 7472 H 670.252 1.18863 4.93795 0
M  V30 7473 H 670.182 -0.566473 5.23544 0
M  V30 7474 H 672.673 -0.00294866 3.779 0
M  V30 7475 H 672.986 0.619273 7.70315 0
M  V30 7476 H 671.331 0.550001 6.9282 0
M  V30 7477 H 674.522 0.0806015 4.68031 0
M  V30 7478 H 674.695 0.364112 6.46976 0
M  V30 7479 N 668.101 -1.57061 -0.130224 0
M  V30 7480 C 669.517 -1.52103 -0.483413 0
M  V30 7481 C 669.717 -0.854752 -1.82473 0
M  V30 7482 O 668.773 -0.432342 -2.48771 0
M  V30 7483 C 670.086 -2.96872 -0.47825 0
M  V30 7484 C 671.634 -3.07902 -0.562592 0
M  V30 7485 C 672.109 -4.54211 -0.587929 0
M  V30 7486 N 673.6 -4.58621 -0.649684 0
M  V30 7487 C 674.335 -5.69227 -0.690551 0
M  V30 7488 N 673.831 -6.89358 -0.689743 0
M  V30 7489 N 675.624 -5.57304 -0.732708 0
M  V30 7490 H 667.775 -1.98764 0.748779 0
M  V30 7491 H 670.038 -0.907248 0.274965 0
M  V30 7492 H 669.744 -3.48944 0.439444 0
M  V30 7493 H 669.618 -3.53716 -1.31013 0
M  V30 7494 H 672.005 -2.5584 -1.47071 0
M  V30 7495 H 672.086 -2.54073 0.296764 0
M  V30 7496 H 671.73 -5.06915 0.316096 0
M  V30 7497 H 671.66 -5.0584 -1.46401 0
M  V30 7498 H 674.151 -3.72146 -0.656927 0
M  V30 7499 H 674.464 -7.69408 -0.723239 0
M  V30 7500 H 672.809 -6.91884 -0.657347 0
M  V30 7501 H 676 -4.62363 -0.730625 0
M  V30 7502 H 676.173 -6.43515 -0.76109 0
M  V30 7503 N 669.579 0.400081 -1.52437 0
M  V30 7504 C 670.542 1.4707 -1.75793 0
M  V30 7505 C 671.542 1.48036 -0.627856 0
M  V30 7506 O 672.732 1.49401 -0.895817 0
M  V30 7507 C 669.864 2.86427 -1.84858 0
M  V30 7508 H 671.057 1.27649 -2.71377 0
M  V30 7509 H 668.61 0.631141 -1.42991 0
M  V30 7510 H 669.345 3.11207 -0.912194 0
M  V30 7511 H 669.13 2.87128 -2.6702 0
M  V30 7512 H 670.62 3.64023 -2.04638 0
M  V30 7513 N 671.057 1.43213 0.657864 0
M  V30 7514 C 671.967 1.50448 1.80007 0
M  V30 7515 C 672.983 0.39191 1.69529 0
M  V30 7516 O 674.159 0.645349 1.90781 0
M  V30 7517 C 671.224 1.42062 3.16258 0
M  V30 7518 C 670.285 2.63951 3.38568 0
M  V30 7519 C 669.518 2.55956 4.68318 0
M  V30 7520 O 669.741 1.60473 5.47361 0
M  V30 7521 O 668.675 3.46378 4.92245 0
M  V30 7522 H 672.501 2.4689 1.76858 0
M  V30 7523 H 670.086 1.25163 0.81576 0
M  V30 7524 H 671.968 1.3981 3.97531 0
M  V30 7525 H 670.643 0.487524 3.20008 0
M  V30 7526 H 669.55 2.71776 2.57077 0
M  V30 7527 H 670.883 3.56217 3.39662 0
M  V30 7528 N 672.536 -0.895792 1.29666 0
M  V30 7529 C 673.446 -2.03329 1.17024 0
M  V30 7530 C 674.462 -1.73753 0.0925962 0
M  V30 7531 O 675.638 -1.99071 0.305431 0
M  V30 7532 C 672.703 -3.36072 0.851841 0
M  V30 7533 C 671.764 -3.7914 2.01373 0
M  V30 7534 C 670.997 -5.05549 1.71043 0
M  V30 7535 O 671.22 -5.66874 0.633213 0
M  V30 7536 O 670.154 -5.44764 2.5596 0
M  V30 7537 H 673.98 -2.16918 2.12556 0
M  V30 7538 H 671.565 -1.02007 1.09156 0
M  V30 7539 H 673.447 -4.15729 0.689006 0
M  V30 7540 H 672.122 -3.23616 -0.0736634 0
M  V30 7541 H 671.029 -3.00233 2.23183 0
M  V30 7542 H 672.362 -3.96186 2.92058 0
M  V30 7543 N 674.014 -1.12206 -1.10668 0
M  V30 7544 C 674.924 -0.800686 -2.20513 0
M  V30 7545 C 675.94 0.209512 -1.72734 0
M  V30 7546 O 677.116 0.043705 -2.01353 0
M  V30 7547 C 674.181 -0.257353 -3.45744 0
M  V30 7548 C 673.242 -1.32718 -4.0827 0
M  V30 7549 C 672.475 -0.809674 -5.27522 0
M  V30 7550 O 672.698 0.35742 -5.69279 0
M  V30 7551 O 671.632 -1.57816 -5.80842 0
M  V30 7552 H 675.458 -1.71807 -2.50432 0
M  V30 7553 H 673.043 -0.898546 -1.19359 0
M  V30 7554 H 674.925 0.0408849 -4.2138 0
M  V30 7555 H 673.6 0.632627 -3.17458 0
M  V30 7556 H 672.507 -1.67855 -3.34329 0
M  V30 7557 H 673.84 -2.19083 -4.40753 0
M  V30 7558 N 675.492 1.28418 -0.913599 0
M  V30 7559 C 676.439 2.27301 -0.400373 0
M  V30 7560 C 677.409 1.57582 0.52509 0
M  V30 7561 O 678.594 1.85482 0.447318 0
M  V30 7562 C 675.734 3.43284 0.35361 0
M  V30 7563 C 674.847 4.27752 -0.604341 0
M  V30 7564 C 673.982 5.30934 0.168075 0
M  V30 7565 C 673.021 6.07065 -0.783499 0
M  V30 7566 N 672.158 7.02086 -0.0446112 0
M  V30 7567 H 676.998 2.70579 -1.24865 0
M  V30 7568 H 674.535 1.33067 -0.627028 0
M  V30 7569 H 676.493 4.09322 0.806945 0
M  V30 7570 H 675.123 3.00997 1.16623 0
M  V30 7571 H 674.175 3.61759 -1.17621 0
M  V30 7572 H 675.487 4.80682 -1.33216 0
M  V30 7573 H 674.641 6.02855 0.681979 0
M  V30 7574 H 673.38 4.78771 0.928947 0
M  V30 7575 H 672.385 5.33995 -1.30878 0
M  V30 7576 H 673.61 6.61317 -1.54392 0
M  V30 7577 H 671.556 6.52273 0.698272 0
M  V30 7578 H 671.473 7.52637 -0.712258 0
M  V30 7579 H 672.741 7.78205 0.449102 0
M  V30 7580 N 676.97 0.677563 1.42291 0
M  V30 7581 C 678.386 0.347376 1.55774 0
M  V30 7582 C 678.586 -1.14703 1.65667 0
M  V30 7583 O 677.642 -1.93252 1.62512 0
M  V30 7584 C 678.955 1.08011 2.80631 0
M  V30 7585 C 680.503 1.06271 2.94407 0
M  V30 7586 C 680.978 1.77683 4.22129 0
M  V30 7587 N 682.469 1.74564 4.29047 0
M  V30 7588 C 683.204 2.26673 5.26694 0
M  V30 7589 N 682.7 2.87176 6.30477 0
M  V30 7590 N 684.493 2.17032 5.18511 0
M  V30 7591 H 676.644 1.64703 1.34114 0
M  V30 7592 H 678.907 0.694038 0.645768 0
M  V30 7593 H 678.613 2.13518 2.79469 0
M  V30 7594 H 678.487 0.647115 3.71608 0
M  V30 7595 H 680.874 0.0159658 2.95096 0
M  V30 7596 H 680.955 1.53461 2.04654 0
M  V30 7597 H 680.599 2.82327 4.22201 0
M  V30 7598 H 680.529 1.2794 5.10822 0
M  V30 7599 H 683.02 1.30436 3.54676 0
M  V30 7600 H 683.333 3.24551 7.01346 0
M  V30 7601 H 681.678 2.91247 6.31031 0
M  V30 7602 H 684.869 1.69451 4.36353 0
M  V30 7603 H 685.042 2.57948 5.94446 0
M  V30 7604 N 678.448 -1.51871 0.421078 0
M  V30 7605 C 679.864 -1.59435 0.0725398 0
M  V30 7606 C 680.064 -1.43315 -1.41644 0
M  V30 7607 O 679.12 -1.26614 -2.18461 0
M  V30 7608 C 680.433 -2.9509 0.578132 0
M  V30 7609 C 681.981 -3.08356 0.537149 0
M  V30 7610 C 682.456 -4.4651 1.01945 0
M  V30 7611 N 683.947 -4.52784 0.976758 0
M  V30 7612 C 684.682 -5.57976 1.32099 0
M  V30 7613 N 684.178 -6.70664 1.73727 0
M  V30 7614 N 685.971 -5.48248 1.2402 0
M  V30 7615 H 678.122 -1.60595 1.39007 0
M  V30 7616 H 680.385 -0.756138 0.571803 0
M  V30 7617 H 680.091 -3.12205 1.61929 0
M  V30 7618 H 679.965 -3.772 -0.00578374 0
M  V30 7619 H 682.352 -2.90919 -0.494991 0
M  V30 7620 H 682.433 -2.28125 1.15727 0
M  V30 7621 H 682.077 -4.64692 2.04997 0
M  V30 7622 H 682.007 -5.25256 0.376023 0
M  V30 7623 H 684.498 -3.71898 0.670851 0
M  V30 7624 H 684.811 -7.46932 1.98274 0
M  V30 7625 H 683.156 -6.71914 1.77641 0
M  V30 7626 H 686.347 -4.59095 0.913756 0
M  V30 7627 H 686.52 -6.30119 1.51176 0
M  V30 7628 N 679.926 -0.151884 -1.56866 0
M  V30 7629 C 681.172 0.498742 -1.96572 0
M  V30 7630 C 681.505 1.64194 -1.03702 0
M  V30 7631 O 680.78 1.94334 -0.0803432 0
M  V30 7632 C 681.063 1.00027 -3.45929 0
M  V30 7633 C 680.916 -0.141767 -4.49577 0
M  V30 7634 C 682.235 1.88044 -3.97904 0
M  V30 7635 H 679.354 0.17982 -0.714726 0
M  V30 7636 H 681.996 -0.234097 -1.88552 0
M  V30 7637 H 680.146 1.62476 -3.52894 0
M  V30 7638 H 681.818 -0.778269 -4.54687 0
M  V30 7639 H 680.061 -0.80019 -4.26356 0
M  V30 7640 H 680.732 0.250947 -5.51429 0
M  V30 7641 H 683.208 1.35416 -3.93449 0
M  V30 7642 H 682.084 2.20043 -5.02864 0
M  V30 7643 H 682.345 2.81916 -3.40552 0
M  V30 7644 N 681.404 1.57128 0.121893 0
M  V30 7645 C 682.314 2.03425 1.16857 0
M  V30 7646 C 683.33 0.954108 1.45509 0
M  V30 7647 O 684.506 1.26541 1.56682 0
M  V30 7648 C 681.571 2.42685 2.47599 0
M  V30 7649 C 680.632 3.64767 2.2637 0
M  V30 7650 C 679.865 4.02145 3.50878 0
M  V30 7651 O 680.088 3.39897 4.58068 0
M  V30 7652 O 679.022 4.95262 3.42051 0
M  V30 7653 H 682.848 2.92825 0.80544 0
M  V30 7654 H 680.433 1.45654 0.332477 0
M  V30 7655 H 682.315 2.68684 3.24634 0
M  V30 7656 H 680.99 1.56432 2.83392 0
M  V30 7657 H 679.897 3.43922 1.47203 0
M  V30 7658 H 681.23 4.51716 1.95482 0
M  V30 7659 N 682.882 -0.391992 1.52647 0
M  V30 7660 C 684.298 -0.731848 1.41831 0
M  V30 7661 C 684.498 -1.9423 0.536361 0
M  V30 7662 O 683.554 -2.52499 0.00866571 0
M  V30 7663 C 684.867 -0.969743 2.84634 0
M  V30 7664 C 686.415 -1.0714 2.94092 0
M  V30 7665 C 686.89 -1.34195 4.37899 0
M  V30 7666 N 688.381 -1.41023 4.41211 0
M  V30 7667 C 689.116 -1.63616 5.49561 0
M  V30 7668 N 688.612 -1.83699 6.68002 0
M  V30 7669 N 690.405 -1.65771 5.371 0
M  V30 7670 H 682.556 0.404547 2.08512 0
M  V30 7671 H 684.819 0.11879 0.940528 0
M  V30 7672 H 684.525 -0.152465 3.51369 0
M  V30 7673 H 684.399 -1.88523 3.26709 0
M  V30 7674 H 686.786 -1.87925 2.27526 0
M  V30 7675 H 686.867 -0.133887 2.55449 0
M  V30 7676 H 686.511 -0.539207 5.0503 0
M  V30 7677 H 686.441 -2.29226 4.74092 0
M  V30 7678 H 688.932 -1.27223 3.55841 0
M  V30 7679 H 689.245 -2.00437 7.46354 0
M  V30 7680 H 687.59 -1.8093 6.71036 0
M  V30 7681 H 690.781 -1.4963 4.43541 0
M  V30 7682 H 690.954 -1.83038 6.21612 0
M  V30 7683 N 684.36 -1.4356 -0.65026 0
M  V30 7684 C 685.27 -1.514 -1.79207 0
M  V30 7685 C 686.286 -0.400895 -1.69319 0
M  V30 7686 O 687.462 -0.655458 -1.90436 0
M  V30 7687 C 684.527 -1.43737 -3.155 0
M  V30 7688 C 683.588 -2.65743 -3.37163 0
M  V30 7689 C 682.821 -2.58436 -4.66954 0
M  V30 7690 O 683.044 -1.63374 -5.46503 0
M  V30 7691 O 681.978 -3.48984 -4.90402 0
M  V30 7692 H 685.804 -2.47825 -1.75547 0
M  V30 7693 H 683.389 -1.25594 -0.809111 0
M  V30 7694 H 685.271 -1.41916 -3.96784 0
M  V30 7695 H 683.946 -0.504488 -3.19745 0
M  V30 7696 H 682.853 -2.73136 -2.55632 0
M  V30 7697 H 684.186 -3.58014 -3.37768 0
M  V30 7698 N 685.838 0.888903 -1.30139 0
M  V30 7699 C 686.77 1.99972 -1.11999 0
M  V30 7700 C 687.783 1.62673 -0.0643619 0
M  V30 7701 O 688.972 1.75788 -0.309983 0
M  V30 7702 C 686.072 3.31904 -0.685059 0
M  V30 7703 C 685.245 3.97665 -1.82158 0
M  V30 7704 C 684.304 5.07894 -1.37585 0
M  V30 7705 O 683.33 5.2974 -2.08241 0
M  V30 7706 N 684.532 5.7995 -0.252697 0
M  V30 7707 H 687.297 2.16085 -2.07671 0
M  V30 7708 H 684.858 1.06175 -1.22223 0
M  V30 7709 H 686.85 4.03005 -0.369964 0
M  V30 7710 H 685.42 3.12084 0.179507 0
M  V30 7711 H 684.64 3.19787 -2.305 0
M  V30 7712 H 685.928 4.3834 -2.58332 0
M  V30 7713 H 685.326 5.647 0.336141 0
M  V30 7714 H 683.883 6.518 0.00296813 0
M  V30 7715 N 687.317 1.12792 1.10072 0
M  V30 7716 C 688.227 0.812369 2.20086 0
M  V30 7717 C 689.243 -0.200349 1.72843 0
M  V30 7718 O 690.419 -0.0330262 2.01373 0
M  V30 7719 C 687.484 0.275685 3.45602 0
M  V30 7720 C 686.545 1.34881 4.07561 0
M  V30 7721 C 685.778 0.837639 5.27086 0
M  V30 7722 O 686.001 -0.327224 5.69461 0
M  V30 7723 O 684.935 1.60894 5.79997 0
M  V30 7724 H 688.761 1.73133 2.49517 0
M  V30 7725 H 686.346 0.904863 1.18881 0
M  V30 7726 H 688.228 -0.0185375 4.21396 0
M  V30 7727 H 686.903 -0.615783 3.17789 0
M  V30 7728 H 685.81 1.69625 3.33434 0
M  V30 7729 H 687.143 2.21418 4.39585 0
M  V30 7730 N 688.795 -1.27931 0.920396 0
M  V30 7731 C 690.025 -1.98516 0.572256 0
M  V30 7732 C 690.433 -1.68912 -0.852375 0
M  V30 7733 O 689.776 -0.94203 -1.57707 0
M  V30 7734 C 689.838 -3.5243 0.709485 0
M  V30 7735 C 689.502 -4.0564 2.10489 0
M  V30 7736 C 690.499 -4.1897 3.07831 0
M  V30 7737 C 688.184 -4.40168 2.41986 0
M  V30 7738 C 690.178 -4.66093 4.34783 0
M  V30 7739 C 687.865 -4.86983 3.69176 0
M  V30 7740 C 688.863 -4.99903 4.65388 0
M  V30 7741 O 688.551 -5.45694 5.90316 0
M  V30 7742 H 688.283 -0.64047 0.216274 0
M  V30 7743 H 690.837 -1.6393 1.23758 0
M  V30 7744 H 689.067 -3.86698 -0.0129263 0
M  V30 7745 H 690.756 -4.04233 0.367474 0
M  V30 7746 H 691.522 -3.92562 2.84816 0
M  V30 7747 H 687.401 -4.29358 1.67846 0
M  V30 7748 H 690.945 -4.76092 5.09884 0
M  V30 7749 H 686.842 -5.12832 3.92012 0
M  V30 7750 H 687.61 -5.63965 5.932 0
M  V30 7751 N 690.273 -0.685099 -1.4193 0
M  V30 7752 C 691.522 -0.208816 -2.00616 0
M  V30 7753 C 691.835 1.19506 -1.54847 0
M  V30 7754 O 693.041 1.76826 -2.06021 0
M  V30 7755 C 691.497 -0.322446 -3.58453 0
M  V30 7756 C 691.105 -1.73102 -4.13206 0
M  V30 7757 C 692.849 0.0945979 -4.24395 0
M  V30 7758 C 690.756 -1.79687 -5.63442 0
M  V30 7759 H 689.686 -0.0743092 -0.750329 0
M  V30 7760 H 692.337 -0.851778 -1.62533 0
M  V30 7761 H 690.719 0.388588 -3.94089 0
M  V30 7762 H 691.893 -2.46997 -3.8901 0
M  V30 7763 H 690.208 -2.09682 -3.59753 0
M  V30 7764 H 692.805 0.0656937 -5.3466 0
M  V30 7765 H 693.148 1.1316 -4.00625 0
M  V30 7766 H 693.681 -0.56579 -3.93756 0
M  V30 7767 H 690.42 -2.81404 -5.92024 0
M  V30 7768 H 689.94 -1.10162 -5.89597 0
M  V30 7769 H 691.619 -1.55498 -6.28036 0
M  V30 7770 N 691.751 1.51645 -0.429126 0
M  V30 7771 C 693.167 1.59394 -0.080994 0
M  V30 7772 C 693.367 1.44064 1.40882 0
M  V30 7773 O 692.423 1.27771 2.17786 0
M  V30 7774 C 693.736 2.94779 -0.593773 0
M  V30 7775 C 695.284 3.08067 -0.553494 0
M  V30 7776 C 695.759 4.45963 -1.04311 0
M  V30 7777 N 697.25 4.5226 -1.00076 0
M  V30 7778 C 697.985 5.57268 -1.35056 0
M  V30 7779 N 697.481 6.69734 -1.77282 0
M  V30 7780 N 699.274 5.47582 -1.26925 0
M  V30 7781 H 691.425 1.59856 -1.39857 0
M  V30 7782 H 693.688 0.753095 -0.575805 0
M  V30 7783 H 693.394 3.11342 -1.63583 0
M  V30 7784 H 693.268 3.77197 -0.0142202 0
M  V30 7785 H 695.655 2.91177 0.479556 0
M  V30 7786 H 695.736 2.27508 -1.16935 0
M  V30 7787 H 695.38 4.63598 -2.07459 0
M  V30 7788 H 695.31 5.25049 -0.403873 0
M  V30 7789 H 697.801 3.71537 -0.690564 0
M  V30 7790 H 698.114 7.4587 -2.02232 0
M  V30 7791 H 696.459 6.70963 -1.81202 0
M  V30 7792 H 699.65 4.58604 -0.93809 0
M  V30 7793 H 699.823 6.29308 -1.54516 0
M  V30 7794 N 693.229 0.160201 1.56784 0
M  V30 7795 C 694.645 -0.196089 1.58391 0
M  V30 7796 C 694.845 -1.63689 1.17508 0
M  V30 7797 O 693.901 -2.36613 0.881506 0
M  V30 7798 C 695.214 0.0746449 3.00607 0
M  V30 7799 C 696.762 0.0119762 3.12998 0
M  V30 7800 C 697.237 0.255551 4.57286 0
M  V30 7801 N 698.728 0.202938 4.62755 0
M  V30 7802 C 699.463 0.365731 5.72232 0
M  V30 7803 N 698.959 0.586972 6.90309 0
M  V30 7804 N 700.752 0.302411 5.61286 0
M  V30 7805 H 692.903 1.1008 1.81648 0
M  V30 7806 H 695.166 0.436779 0.841384 0
M  V30 7807 H 694.872 1.07231 3.34954 0
M  V30 7808 H 694.746 -0.638802 3.71751 0
M  V30 7809 H 697.133 -0.976254 2.78484 0
M  V30 7810 H 697.214 0.75796 2.44313 0
M  V30 7811 H 696.858 1.24094 4.92507 0
M  V30 7812 H 696.788 -0.510912 5.24116 0
M  V30 7813 H 699.279 0.0371328 3.77882 0
M  V30 7814 H 699.592 0.700941 7.69615 0
M  V30 7815 H 697.937 0.623453 6.92198 0
M  V30 7816 H 701.128 0.130238 4.67919 0
M  V30 7817 H 701.301 0.432712 6.46554 0
M  V30 7818 N 694.707 -1.5719 -0.113559 0
M  V30 7819 C 695.639 -1.97393 -1.16484 0
M  V30 7820 C 696.652 -0.873964 -1.37352 0
M  V30 7821 O 697.841 -1.15222 -1.36331 0
M  V30 7822 C 694.941 -2.26174 -2.52386 0
M  V30 7823 C 694.114 -3.57479 -2.52046 0
M  V30 7824 C 693.173 -3.74409 -3.69735 0
M  V30 7825 O 692.199 -4.46463 -3.53071 0
M  V30 7826 N 693.401 -3.13588 -4.88511 0
M  V30 7827 H 696.166 -2.88184 -0.822814 0
M  V30 7828 H 693.727 -1.59044 -0.302769 0
M  V30 7829 H 695.719 -2.3471 -3.29687 0
M  V30 7830 H 694.289 -1.41483 -2.7875 0
M  V30 7831 H 693.509 -3.60081 -1.60421 0
M  V30 7832 H 694.797 -4.43775 -2.48881 0
M  V30 7833 H 694.195 -2.55026 -5.04953 0
M  V30 7834 H 692.752 -3.27637 -5.63469 0
M  V30 7835 N 696.185 0.383891 -1.52853 0
M  V30 7836 C 697.115 1.47559 -1.80965 0
M  V30 7837 C 698.096 1.5669 -0.661986 0
M  V30 7838 O 699.281 1.71556 -0.910072 0
M  V30 7839 C 696.411 2.85114 -1.98312 0
M  V30 7840 C 695.365 2.9082 -3.14019 0
M  V30 7841 C 694.691 4.30873 -3.16627 0
M  V30 7842 C 695.991 2.60001 -4.52986 0
M  V30 7843 H 697.685 1.24283 -2.72386 0
M  V30 7844 H 695.231 0.596445 -1.31067 0
M  V30 7845 H 697.184 3.61496 -2.16561 0
M  V30 7846 H 695.908 3.09738 -1.03585 0
M  V30 7847 H 694.567 2.16886 -2.9556 0
M  V30 7848 H 694.215 4.52545 -2.19573 0
M  V30 7849 H 693.915 4.3561 -3.94357 0
M  V30 7850 H 695.439 5.09154 -3.37038 0
M  V30 7851 H 696.853 3.261 -4.71521 0
M  V30 7852 H 695.25 2.76081 -5.32822 0
M  V30 7853 H 696.32 1.5532 -4.59351 0
M  V30 7854 N 697.663 1.43903 0.642637 0
M  V30 7855 C 698.573 1.52349 1.78401 0
M  V30 7856 C 699.589 0.409869 1.69104 0
M  V30 7857 O 700.765 0.665548 1.90085 0
M  V30 7858 C 697.83 1.45408 3.14734 0
M  V30 7859 C 696.891 2.67528 3.35749 0
M  V30 7860 C 696.124 2.60909 4.65577 0
M  V30 7861 O 696.347 1.6627 5.45628 0
M  V30 7862 O 695.281 3.5158 4.88544 0
M  V30 7863 H 699.107 2.48752 1.7423 0
M  V30 7864 H 696.692 1.26021 0.802439 0
M  V30 7865 H 698.574 1.44019 3.96026 0
M  V30 7866 H 697.249 0.521437 3.19473 0
M  V30 7867 H 696.156 2.74487 2.5418 0
M  V30 7868 H 697.489 3.598 3.35864 0
M  V30 7869 N 699.141 -0.881989 1.30609 0
M  V30 7870 C 700.051 -2.02076 1.19174 0
M  V30 7871 C 701.067 -1.73645 0.11102 0
M  V30 7872 O 702.243 -1.98735 0.326528 0
M  V30 7873 C 699.308 -3.3515 0.887438 0
M  V30 7874 C 698.369 -3.76983 2.05383 0
M  V30 7875 C 697.602 -5.03707 1.76395 0
M  V30 7876 O 697.825 -5.66171 0.693302 0
M  V30 7877 O 696.759 -5.42019 2.61723 0
M  V30 7878 H 700.585 -2.14652 2.14845 0
M  V30 7879 H 698.17 -1.00843 1.10232 0
M  V30 7880 H 700.052 -4.14975 0.73306 0
M  V30 7881 H 698.727 -3.23676 -0.0393354 0
M  V30 7882 H 697.634 -2.97849 2.26355 0
M  V30 7883 H 698.967 -3.93066 2.96243 0
M  V30 7884 N 700.619 -1.13374 -1.09472 0
M  V30 7885 C 701.529 -0.824029 -2.19652 0
M  V30 7886 C 702.545 0.19118 -1.72947 0
M  V30 7887 O 703.721 0.0223464 -2.01388 0
M  V30 7888 C 700.786 -0.294009 -3.45451 0
M  V30 7889 C 699.847 -1.3704 -4.0684 0
M  V30 7890 C 699.08 -0.86558 -5.26634 0
M  V30 7891 O 699.303 0.29702 -5.69626 0
M  V30 7892 O 698.237 -1.63968 -5.79136 0
M  V30 7893 H 702.063 -1.74454 -2.48595 0
M  V30 7894 H 699.648 -0.911155 -1.18399 0
M  V30 7895 H 701.53 -0.00381039 -4.214 0
M  V30 7896 H 700.205 0.598921 -3.18111 0
M  V30 7897 H 699.112 -1.71391 -3.3253 0
M  V30 7898 H 700.445 -2.23746 -4.38405 0
M  V30 7899 N 702.098 1.27442 -0.927168 0
M  V30 7900 C 703.03 2.25975 -0.383158 0
M  V30 7901 C 704.043 1.55382 0.485832 0
M  V30 7902 O 705.232 1.75986 0.298541 0
M  V30 7903 C 702.332 3.35629 0.469688 0
M  V30 7904 C 701.505 4.35747 -0.379886 0
M  V30 7905 C 700.564 5.24598 0.410227 0
M  V30 7906 O 699.59 5.68909 -0.181888 0
M  V30 7907 N 700.792 5.54737 1.71017 0
M  V30 7908 H 703.557 2.7329 -1.23015 0
M  V30 7909 H 701.118 1.41063 -0.794539 0
M  V30 7910 H 703.11 3.92015 1.00532 0
M  V30 7911 H 701.68 2.87919 1.21744 0
M  V30 7912 H 700.9 3.78634 -1.09682 0
M  V30 7913 H 702.188 4.99648 -0.960717 0
M  V30 7914 H 701.586 5.20594 2.21356 0
M  V30 7915 H 700.143 6.13824 2.19234 0
M  V30 7916 N 703.576 0.692616 1.41565 0
M  V30 7917 C 704.992 0.363878 1.55397 0
M  V30 7918 C 705.192 -1.1294 1.66874 0
M  V30 7919 O 704.248 -1.91517 1.64552 0
M  V30 7920 C 705.561 1.10982 2.7947 0
M  V30 7921 C 707.109 1.09387 2.93263 0
M  V30 7922 C 707.584 1.8215 4.20221 0
M  V30 7923 N 709.075 1.79105 4.27172 0
M  V30 7924 C 709.81 2.32247 5.2426 0
M  V30 7925 N 709.306 2.93847 6.27396 0
M  V30 7926 N 711.099 2.22519 5.1618 0
M  V30 7927 H 703.25 1.66116 1.3236 0
M  V30 7928 H 705.513 0.700848 0.63837 0
M  V30 7929 H 705.219 2.1647 2.77188 0
M  V30 7930 H 705.093 0.686492 3.709 0
M  V30 7931 H 707.48 0.0472638 2.95062 0
M  V30 7932 H 707.561 1.55623 2.03015 0
M  V30 7933 H 707.205 2.86789 4.19183 0
M  V30 7934 H 707.135 1.33351 5.09436 0
M  V30 7935 H 709.626 1.34191 3.53272 0
M  V30 7936 H 709.939 3.31972 6.97864 0
M  V30 7937 H 708.284 2.97924 6.27906 0
M  V30 7938 H 711.475 1.7407 4.34531 0
M  V30 7939 H 711.648 2.64239 5.91677 0
M  V30 7940 N 705.054 -1.51416 0.437162 0
M  V30 7941 C 706.004 -2.24599 -0.392311 0
M  V30 7942 C 706.988 -1.2682 -0.990221 0
M  V30 7943 O 708.18 -1.51912 -0.908391 0
M  V30 7944 C 705.309 -3.09134 -1.49301 0
M  V30 7945 C 704.395 -4.14342 -0.904503 0
M  V30 7946 N 704.786 -5.0578 -0.0451511 0
M  V30 7947 C 703.084 -4.30323 -1.1721 0
M  V30 7948 C 703.785 -5.81 0.285344 0
M  V30 7949 N 702.761 -5.42591 -0.330993 0
M  V30 7950 H 706.563 -2.92655 0.270221 0
M  V30 7951 H 704.077 -1.60476 0.249226 0
M  V30 7952 H 706.074 -3.6014 -2.10011 0
M  V30 7953 H 704.734 -2.42622 -2.15788 0
M  V30 7954 H 705.745 -5.16903 0.321271 0
M  V30 7955 H 702.422 -3.75037 -1.83448 0
M  V30 7956 H 703.812 -6.64646 0.984626 0
M  V30 7957 N 706.532 -0.168513 -1.56696 0
M  V30 7958 C 707.462 0.758563 -2.20835 0
M  V30 7959 C 708.443 1.24121 -1.1631 0
M  V30 7960 O 709.628 1.29487 -1.4473 0
M  V30 7961 C 706.758 1.9892 -2.8469 0
M  V30 7962 C 705.712 1.64252 -3.95228 0
M  V30 7963 C 705.038 2.94757 -4.46119 0
M  V30 7964 C 706.338 0.872675 -5.14958 0
M  V30 7965 H 708.032 0.223953 -2.98561 0
M  V30 7966 H 705.578 0.106277 -1.43607 0
M  V30 7967 H 707.531 2.64275 -3.28233 0
M  V30 7968 H 706.255 2.5479 -2.04327 0
M  V30 7969 H 704.914 1.01266 -3.52336 0
M  V30 7970 H 704.562 3.48662 -3.62552 0
M  V30 7971 H 704.262 2.72316 -5.2069 0
M  V30 7972 H 705.786 3.61147 -4.92347 0
M  V30 7973 H 707.2 1.42875 -5.55211 0
M  V30 7974 H 705.597 0.747402 -5.95428 0
M  V30 7975 H 706.667 -0.131535 -4.84722 0
M  V30 7976 N 708.01 1.57248 0.105221 0
M  V30 7977 C 708.92 2.04653 1.14693 0
M  V30 7978 C 709.936 0.969488 1.44489 0
M  V30 7979 O 711.112 1.28196 1.55331 0
M  V30 7980 C 708.177 2.45297 2.45011 0
M  V30 7981 C 707.238 3.67148 2.22489 0
M  V30 7982 C 706.471 4.05844 3.46592 0
M  V30 7983 O 706.694 3.44736 4.54437 0
M  V30 7984 O 705.628 4.98862 3.36779 0
M  V30 7985 H 709.454 2.93663 0.774336 0
M  V30 7986 H 707.039 1.45998 0.31701 0
M  V30 7987 H 708.921 2.72112 3.21766 0
M  V30 7988 H 707.596 1.59429 2.81717 0
M  V30 7989 H 706.503 3.45463 1.43547 0
M  V30 7990 H 707.836 4.53764 1.9068 0
M  V30 7991 N 709.488 -0.375779 1.53054 0
M  V30 7992 C 710.734 -1.12114 1.68992 0
M  V30 7993 C 711.067 -1.8926 0.435238 0
M  V30 7994 O 710.342 -1.86044 -0.567278 0
M  V30 7995 C 710.625 -2.08867 2.93337 0
M  V30 7996 C 710.478 -1.35397 4.28938 0
M  V30 7997 C 711.797 -3.09124 3.13257 0
M  V30 7998 H 708.916 -0.406207 0.614951 0
M  V30 7999 H 711.558 -0.403054 1.85676 0
M  V30 8000 H 709.708 -2.70102 2.79244 0
M  V30 8001 H 711.38 -0.770242 4.54824 0
M  V30 8002 H 709.623 -0.655801 4.28814 0
M  V30 8003 H 710.294 -2.06161 5.12056 0
M  V30 8004 H 712.77 -2.57987 3.26469 0
M  V30 8005 H 711.646 -3.74054 4.01715 0
M  V30 8006 H 711.907 -3.78729 2.28072 0
M  V30 8007 N 710.966 -1.44241 -0.634997 0
M  V30 8008 C 711.896 -1.53632 -1.7584 0
M  V30 8009 C 712.877 -0.389603 -1.65578 0
M  V30 8010 O 714.062 -0.609219 -1.84397 0
M  V30 8011 C 711.192 -1.47644 -3.14354 0
M  V30 8012 C 710.146 -2.60752 -3.394 0
M  V30 8013 C 709.472 -2.39817 -4.77904 0
M  V30 8014 C 710.772 -4.02921 -3.32343 0
M  V30 8015 H 712.466 -2.47662 -1.68238 0
M  V30 8016 H 710.012 -1.19197 -0.807969 0
M  V30 8017 H 711.965 -1.52815 -3.92716 0
M  V30 8018 H 710.689 -0.501284 -3.2273 0
M  V30 8019 H 709.348 -2.54965 -2.63417 0
M  V30 8020 H 708.996 -1.40502 -4.82978 0
M  V30 8021 H 708.696 -3.15649 -4.9562 0
M  V30 8022 H 710.22 -2.46799 -5.585 0
M  V30 8023 H 711.634 -4.10098 -4.00615 0
M  V30 8024 H 710.031 -4.78925 -3.61595 0
M  V30 8025 H 711.101 -4.26766 -2.30215 0
M  V30 8026 N 712.444 0.87505 -1.31075 0
M  V30 8027 C 713.376 1.98773 -1.14114 0
M  V30 8028 C 714.389 1.62595 -0.0816119 0
M  V30 8029 O 715.578 1.75449 -0.32861 0
M  V30 8030 C 712.678 3.31159 -0.720224 0
M  V30 8031 C 711.851 3.9571 -1.86366 0
M  V30 8032 C 710.91 5.06407 -1.42965 0
M  V30 8033 O 709.936 5.27501 -2.13848 0
M  V30 8034 N 711.138 5.79649 -0.314194 0
M  V30 8035 H 713.903 2.1387 -2.09951 0
M  V30 8036 H 711.464 1.04873 -1.23342 0
M  V30 8037 H 713.456 4.0259 -0.412687 0
M  V30 8038 H 712.026 3.12257 0.146396 0
M  V30 8039 H 711.246 3.17324 -2.33879 0
M  V30 8040 H 712.534 4.35576 -2.62966 0
M  V30 8041 H 711.932 5.65025 0.276228 0
M  V30 8042 H 710.489 6.51766 -0.0661641 0
M  V30 8043 N 713.922 1.13953 1.08869 0
M  V30 8044 C 714.854 0.779906 2.15523 0
M  V30 8045 C 715.867 -0.20102 1.61554 0
M  V30 8046 O 717.056 0.0200049 1.78489 0
M  V30 8047 C 714.156 0.136226 3.38626 0
M  V30 8048 C 713.329 1.15069 4.21993 0
M  V30 8049 C 712.388 0.531645 5.23507 0
M  V30 8050 O 711.414 1.19327 5.56552 0
M  V30 8051 N 712.616 -0.693734 5.7634 0
M  V30 8052 H 715.381 1.69769 2.46979 0
M  V30 8053 H 712.942 1.03331 1.24637 0
M  V30 8054 H 714.934 -0.290295 4.03658 0
M  V30 8055 H 713.504 -0.684603 3.05011 0
M  V30 8056 H 712.724 1.75431 3.53012 0
M  V30 8057 H 714.012 1.83614 4.74514 0
M  V30 8058 H 713.41 -1.24994 5.51718 0
M  V30 8059 H 711.967 -1.06283 6.43076 0
M  V30 8060 N 715.4 -1.26948 0.933913 0
M  V30 8061 C 716.332 -2.25768 0.395137 0
M  V30 8062 C 717.345 -1.55637 -0.477585 0
M  V30 8063 O 718.534 -1.76142 -0.289204 0
M  V30 8064 C 715.634 -3.35874 -0.451882 0
M  V30 8065 C 714.807 -4.3554 0.40299 0
M  V30 8066 C 713.866 -5.24809 -0.3824 0
M  V30 8067 O 712.892 -5.68805 0.212057 0
M  V30 8068 N 714.094 -5.55636 -1.68072 0
M  V30 8069 H 716.859 -2.72634 1.24463 0
M  V30 8070 H 714.42 -1.40639 0.802008 0
M  V30 8071 H 716.412 -3.92542 -0.984516 0
M  V30 8072 H 714.982 -2.8856 -1.20215 0
M  V30 8073 H 714.202 -3.78047 1.11688 0
M  V30 8074 H 715.49 -4.99131 0.987201 0
M  V30 8075 H 714.888 -5.2176 -2.18592 0
M  V30 8076 H 713.445 -6.14978 -2.15975 0
M  V30 8077 N 716.879 -0.700114 -1.41195 0
M  V30 8078 C 717.809 -0.0521132 -2.33442 0
M  V30 8079 C 718.79 0.76228 -1.52063 0
M  V30 8080 O 719.975 0.714336 -1.80585 0
M  V30 8081 C 717.105 0.881693 -3.35922 0
M  V30 8082 C 716.059 0.174062 -4.27646 0
M  V30 8083 C 715.385 1.22254 -5.20536 0
M  V30 8084 C 716.685 -0.962396 -5.13357 0
M  V30 8085 H 718.379 -0.822574 -2.87879 0
M  V30 8086 H 715.925 -0.397011 -1.38419 0
M  V30 8087 H 717.878 1.34429 -3.99383 0
M  V30 8088 H 716.602 1.68387 -2.79845 0
M  V30 8089 H 715.261 -0.268551 -3.65615 0
M  V30 8090 H 714.909 2.01736 -4.60773 0
M  V30 8091 H 714.609 0.754038 -5.82742 0
M  V30 8092 H 716.133 1.68555 -5.86874 0
M  V30 8093 H 717.547 -0.579875 -5.7036 0
M  V30 8094 H 715.944 -1.35828 -5.84526 0
M  V30 8095 H 717.014 -1.80003 -4.50252 0
M  V30 8096 N 718.357 1.51182 -0.445186 0
M  V30 8097 C 719.287 2.30821 0.352686 0
M  V30 8098 C 720.268 1.36576 1.01395 0
M  V30 8099 O 721.453 1.65497 1.01609 0
M  V30 8100 C 718.583 3.15593 1.44976 0
M  V30 8101 C 717.537 4.1818 0.911553 0
M  V30 8102 C 716.863 4.91523 2.10497 0
M  V30 8103 C 718.163 5.22266 -0.059418 0
M  V30 8104 H 719.857 2.97771 -0.311936 0
M  V30 8105 H 717.403 1.43201 -0.151461 0
M  V30 8106 H 719.356 3.70091 2.01521 0
M  V30 8107 H 718.08 2.4648 2.14278 0
M  V30 8108 H 716.739 3.64746 0.368264 0
M  V30 8109 H 716.387 4.18906 2.78437 0
M  V30 8110 H 716.087 5.60898 1.7512 0
M  V30 8111 H 717.611 5.48847 2.6758 0
M  V30 8112 H 719.025 5.71789 0.415985 0
M  V30 8113 H 717.422 5.99213 -0.326152 0
M  V30 8114 H 718.492 4.7461 -0.993631 0
M  V30 8115 N 719.835 0.176821 1.56605 0
M  V30 8116 C 720.767 -0.782836 2.15417 0
M  V30 8117 C 721.78 -1.18982 1.11117 0
M  V30 8118 O 722.969 -1.12872 1.38283 0
M  V30 8119 C 720.069 -2.06596 2.68647 0
M  V30 8120 C 719.242 -1.82167 3.9766 0
M  V30 8121 C 718.301 -2.94751 4.35899 0
M  V30 8122 O 717.327 -2.65148 5.03672 0
M  V30 8123 N 718.529 -4.2267 3.97907 0
M  V30 8124 H 721.294 -0.280012 2.98389 0
M  V30 8125 H 718.855 -0.00577529 1.61899 0
M  V30 8126 H 720.847 -2.81018 2.91223 0
M  V30 8127 H 719.417 -2.48054 1.90232 0
M  V30 8128 H 718.637 -0.916208 3.83405 0
M  V30 8129 H 719.925 -1.6322 4.81909 0
M  V30 8130 H 719.323 -4.4958 3.43357 0
M  V30 8131 H 717.88 -4.93778 4.25472 0
M  V30 8132 N 721.313 -1.57302 -0.09688 0
M  V30 8133 C 722.223 -2.05258 -1.13606 0
M  V30 8134 C 723.239 -0.977137 -1.43972 0
M  V30 8135 O 724.415 -1.29018 -1.54649 0
M  V30 8136 C 721.48 -2.46593 -2.43706 0
M  V30 8137 C 720.541 -3.68322 -2.20538 0
M  V30 8138 C 719.774 -4.07676 -3.44435 0
M  V30 8139 O 719.997 -3.47141 -4.52603 0
M  V30 8140 O 718.931 -5.00641 -3.34129 0
M  V30 8141 H 722.757 -2.94069 -0.758752 0
M  V30 8142 H 720.342 -1.46164 -0.309263 0
M  V30 8143 H 722.224 -2.73814 -3.20318 0
M  V30 8144 H 720.899 -1.6092 -2.80867 0
M  V30 8145 H 719.806 -3.4622 -1.41713 0
M  V30 8146 H 721.139 -4.54769 -1.88271 0
M  V30 8147 N 722.791 0.367657 -1.53252 0
M  V30 8148 C 723.723 1.47032 -1.75824 0
M  V30 8149 C 724.736 1.49736 -0.63898 0
M  V30 8150 O 725.925 1.53253 -0.915193 0
M  V30 8151 C 723.025 2.85805 -1.82122 0
M  V30 8152 C 722.198 3.06822 -3.11736 0
M  V30 8153 C 721.257 4.25698 -3.09302 0
M  V30 8154 O 720.283 4.20972 -3.83107 0
M  V30 8155 N 721.485 5.33002 -2.29977 0
M  V30 8156 H 724.25 1.28048 -2.70968 0
M  V30 8157 H 721.811 0.557363 -1.52004 0
M  V30 8158 H 723.803 3.63465 -1.77975 0
M  V30 8159 H 722.373 2.98046 -0.942716 0
M  V30 8160 H 721.593 2.1684 -3.29202 0
M  V30 8161 H 722.881 3.17731 -3.97397 0
M  V30 8162 H 722.279 5.39703 -1.69521 0
M  V30 8163 H 720.836 6.09247 -2.3165 0
M  V30 8164 N 724.269 1.44576 0.627338 0
M  V30 8165 C 725.232 1.51372 1.72102 0
M  V30 8166 C 726.232 0.395329 1.55865 0
M  V30 8167 O 727.422 0.658094 1.61291 0
M  V30 8168 C 724.554 1.39129 3.11217 0
M  V30 8169 H 725.747 2.48798 1.6745 0
M  V30 8170 H 723.3 1.31724 0.841336 0
M  V30 8171 H 724.035 0.428114 3.21462 0
M  V30 8172 H 723.82 2.20229 3.24409 0
M  V30 8173 H 725.31 1.46874 3.90919 0
M  V30 8174 N 725.747 -0.868086 1.31537 0
M  V30 8175 C 726.68 -1.97871 1.13676 0
M  V30 8176 C 727.658 -1.62551 0.0397589 0
M  V30 8177 O 728.842 -1.87473 0.196539 0
M  V30 8178 C 725.969 -3.30577 0.73734 0
M  V30 8179 C 725.015 -3.8488 1.83765 0
M  V30 8180 S 725.848 -4.10106 3.44345 0
M  V30 8181 C 727.004 -5.45806 3.06344 0
M  V30 8182 H 727.237 -2.12719 2.07697 0
M  V30 8183 H 724.77 -1.01849 1.16044 0
M  V30 8184 H 726.728 -4.07274 0.513641 0
M  V30 8185 H 725.389 -3.13562 -0.183787 0
M  V30 8186 H 724.582 -4.80821 1.51085 0
M  V30 8187 H 724.184 -3.14981 2.01651 0
M  V30 8188 H 726.476 -6.27535 2.55354 0
M  V30 8189 H 727.419 -5.83437 4.01257 0
M  V30 8190 H 727.827 -5.0917 2.43734 0
M  V30 8191 N 727.225 -1.14528 -1.08264 0
M  V30 8192 C 728.155 -0.856356 -2.1723 0
M  V30 8193 C 729.136 0.189251 -1.69044 0
M  V30 8194 O 730.321 0.0456119 -1.94146 0
M  V30 8195 C 727.451 -0.334662 -3.45684 0
M  V30 8196 C 726.405 -1.31588 -4.0727 0
M  V30 8197 C 725.731 -0.653428 -5.30692 0
M  V30 8198 C 727.031 -2.67866 -4.48381 0
M  V30 8199 H 728.725 -1.76755 -2.41657 0
M  V30 8200 H 726.271 -0.851287 -1.16143 0
M  V30 8201 H 728.224 -0.120128 -4.21229 0
M  V30 8202 H 726.948 0.611967 -3.20815 0
M  V30 8203 H 725.607 -1.51661 -3.33758 0
M  V30 8204 H 725.255 0.299054 -5.0211 0
M  V30 8205 H 724.955 -1.30817 -5.72853 0
M  V30 8206 H 726.479 -0.448453 -6.08951 0
M  V30 8207 H 727.893 -2.51692 -5.15096 0
M  V30 8208 H 726.29 -3.29627 -5.01464 0
M  V30 8209 H 727.36 -3.24632 -3.60198 0
M  V30 8210 N 728.703 1.26451 -0.940633 0
M  V30 8211 C 729.633 2.28773 -0.467479 0
M  V30 8212 C 730.614 1.63218 0.478955 0
M  V30 8213 O 731.799 1.90427 0.380929 0
M  V30 8214 C 728.929 3.46259 0.268656 0
M  V30 8215 C 727.883 4.23898 -0.591171 0
M  V30 8216 C 727.209 5.33993 0.274891 0
M  V30 8217 C 728.509 4.87974 -1.86223 0
M  V30 8218 H 730.203 2.68601 -1.32265 0
M  V30 8219 H 727.749 1.29123 -0.637436 0
M  V30 8220 H 729.702 4.16951 0.610696 0
M  V30 8221 H 728.426 3.05383 1.15796 0
M  V30 8222 H 727.085 3.54969 -0.916098 0
M  V30 8223 H 726.733 4.89358 1.16353 0
M  V30 8224 H 726.433 5.86849 -0.297006 0
M  V30 8225 H 727.957 6.07523 0.612213 0
M  V30 8226 H 729.371 5.50883 -1.58747 0
M  V30 8227 H 727.768 5.50945 -2.37866 0
M  V30 8228 H 728.838 4.10945 -2.57394 0
M  V30 8229 N 730.181 0.707592 1.40822 0
M  V30 8230 C 731.091 0.0507246 2.34545 0
M  V30 8231 C 732.107 -0.752727 1.56876 0
M  V30 8232 O 733.283 -0.687524 1.89302 0
M  V30 8233 C 730.348 -0.865731 3.35717 0
M  V30 8234 C 729.409 -0.0531313 4.29267 0
M  V30 8235 C 728.642 -0.925939 5.25606 0
M  V30 8236 O 728.865 -2.16531 5.27703 0
M  V30 8237 O 727.799 -0.369194 6.00767 0
M  V30 8238 H 731.625 0.823587 2.9232 0
M  V30 8239 H 729.21 0.46801 1.4188 0
M  V30 8240 H 731.092 -1.39091 3.97783 0
M  V30 8241 H 729.767 -1.61788 2.80368 0
M  V30 8242 H 728.674 0.516931 3.70511 0
M  V30 8243 H 730.007 0.660617 4.87747 0
M  V30 8244 N 731.66 -1.50943 0.453197 0
M  V30 8245 C 732.9 -2.0412 -0.106894 0
M  V30 8246 C 733.264 -1.32895 -1.38575 0
M  V30 8247 O 734.465 -1.76529 -2.02709 0
M  V30 8248 C 732.736 -3.561 -0.304565 0
M  V30 8249 S 734.295 -4.3096 -0.825784 0
M  V30 8250 H 731.113 -0.710581 -0.0243969 0
M  V30 8251 H 733.715 -1.85534 0.616239 0
M  V30 8252 H 732.419 -4.055 0.632277 0
M  V30 8253 H 731.95 -3.79009 -1.05433 0
M  V30 8254 H 733.965 -4.49503 -2.10147 0
M  V30 8255 N 733.138 -0.185124 -1.56509 0
M  V30 8256 C 734.554 0.170865 -1.58683 0
M  V30 8257 C 734.754 1.61799 -1.20098 0
M  V30 8258 O 733.81 2.35181 -0.919038 0
M  V30 8259 C 735.123 -0.122459 -3.00451 0
M  V30 8260 C 736.671 -0.0617699 -3.12939 0
M  V30 8261 C 737.146 -0.328269 -4.56822 0
M  V30 8262 N 738.637 -0.276533 -4.62374 0
M  V30 8263 C 739.372 -0.456722 -5.71578 0
M  V30 8264 N 738.868 -0.69672 -6.89288 0
M  V30 8265 N 740.661 -0.391669 -5.60734 0
M  V30 8266 H 732.812 -1.12956 -1.79874 0
M  V30 8267 H 735.075 -0.45011 -0.834329 0
M  V30 8268 H 734.781 -1.12546 -3.33206 0
M  V30 8269 H 734.655 0.579578 -3.72721 0
M  V30 8270 H 737.042 0.931826 -2.80002 0
M  V30 8271 H 737.123 -0.796732 -2.43076 0
M  V30 8272 H 736.767 -1.31914 -4.9047 0
M  V30 8273 H 736.697 0.427465 -5.24862 0
M  V30 8274 H 739.188 -0.0972458 -3.77775 0
M  V30 8275 H 739.501 -0.823291 -7.68402 0
M  V30 8276 H 737.846 -0.733497 -6.91119 0
M  V30 8277 H 741.037 -0.204663 -4.67652 0
M  V30 8278 H 741.21 -0.535518 -6.45783 0
M  V30 8279 N 734.616 1.57351 0.0885366 0
M  V30 8280 C 735.862 1.87564 0.786842 0
M  V30 8281 C 736.217 0.776774 1.76023 0
M  V30 8282 O 735.51 -0.220637 1.90325 0
M  V30 8283 C 735.704 3.22098 1.5488 0
M  V30 8284 C 735.533 4.44967 0.650706 0
M  V30 8285 C 734.303 5.04444 0.293957 0
M  V30 8286 C 736.501 5.1428 -0.0452187 0
M  V30 8287 N 734.483 6.10846 -0.611609 0
M  V30 8288 C 735.854 6.14704 -0.808603 0
M  V30 8289 C 737.909 4.97759 -0.118451 0
M  V30 8290 C 736.612 7.00392 -1.63839 0
M  V30 8291 C 738.638 5.8396 -0.935157 0
M  V30 8292 C 738 6.83909 -1.68664 0
M  V30 8293 H 734.099 0.73613 0.263887 0
M  V30 8294 H 736.683 1.94638 0.049074 0
M  V30 8295 H 734.854 3.16064 2.2574 0
M  V30 8296 H 736.586 3.40015 2.19481 0
M  V30 8297 H 733.341 4.69214 0.643086 0
M  V30 8298 H 733.765 6.68695 -1.05714 0
M  V30 8299 H 738.407 4.20418 0.448202 0
M  V30 8300 H 736.125 7.7712 -2.21608 0
M  V30 8301 H 739.711 5.73236 -0.994579 0
M  V30 8302 H 738.591 7.49454 -2.30842 0
M  V30 8303 N 736.094 -0.359525 1.53444 0
M  V30 8304 C 737.51 -0.701599 1.43352 0
M  V30 8305 C 737.71 -1.93049 0.577439 0
M  V30 8306 O 736.766 -2.52423 0.0622224 0
M  V30 8307 C 738.079 -0.90915 2.86627 0
M  V30 8308 C 739.627 -1.00878 2.96298 0
M  V30 8309 C 740.102 -1.24876 4.40647 0
M  V30 8310 N 741.593 -1.31632 4.44103 0
M  V30 8311 C 742.328 -1.51922 5.52908 0
M  V30 8312 N 741.824 -1.69489 6.71748 0
M  V30 8313 N 743.617 -1.54341 5.40496 0
M  V30 8314 H 735.768 0.448685 2.07607 0
M  V30 8315 H 738.031 0.138713 0.937797 0
M  V30 8316 H 737.737 -0.0778997 3.51614 0
M  V30 8317 H 737.611 -1.81551 3.30634 0
M  V30 8318 H 739.998 -1.83057 2.31461 0
M  V30 8319 H 740.079 -0.0796721 2.55676 0
M  V30 8320 H 739.723 -0.431961 5.0606 0
M  V30 8321 H 739.653 -2.19118 4.78848 0
M  V30 8322 H 742.144 -1.19646 3.5846 0
M  V30 8323 H 742.457 -1.84561 7.50438 0
M  V30 8324 H 740.802 -1.66655 6.74723 0
M  V30 8325 H 743.993 -1.40188 4.46615 0
M  V30 8326 H 744.166 -1.69812 6.25354 0
M  V30 8327 N 737.572 -1.44907 -0.619662 0
M  V30 8328 C 738.482 -1.55168 -1.75955 0
M  V30 8329 C 739.498 -0.43672 -1.6843 0
M  V30 8330 O 740.674 -0.695704 -1.89002 0
M  V30 8331 C 737.739 -1.50397 -3.12381 0
M  V30 8332 C 736.8 -2.72835 -3.31451 0
M  V30 8333 C 736.033 -2.68283 -4.61368 0
M  V30 8334 O 736.256 -1.74929 -5.42914 0
M  V30 8335 O 735.19 -3.59308 -4.82889 0
M  V30 8336 H 739.016 -2.51493 -1.7025 0
M  V30 8337 H 736.601 -1.27282 -0.782289 0
M  V30 8338 H 738.483 -1.50301 -3.93685 0
M  V30 8339 H 737.158 -0.572197 -3.18603 0
M  V30 8340 H 736.065 -2.78496 -2.49781 0
M  V30 8341 H 737.398 -3.65098 -3.30098 0
M  V30 8342 N 739.05 0.861098 -1.31996 0
M  V30 8343 C 739.983 1.97266 -1.14724 0
M  V30 8344 C 740.961 1.62528 -0.0483789 0
M  V30 8345 O 742.145 1.87366 -0.206478 0
M  V30 8346 C 739.272 3.30181 -0.754861 0
M  V30 8347 C 738.318 3.839 -1.85804 0
M  V30 8348 S 739.151 4.08274 -3.46515 0
M  V30 8349 C 740.307 5.44174 -3.09235 0
M  V30 8350 H 740.54 2.11614 -2.08822 0
M  V30 8351 H 738.073 1.01232 -1.16582 0
M  V30 8352 H 740.031 4.06996 -0.535232 0
M  V30 8353 H 738.692 3.13655 0.167155 0
M  V30 8354 H 737.885 4.80013 -1.53633 0
M  V30 8355 H 737.487 3.13907 -2.03318 0
M  V30 8356 H 739.779 6.26172 -2.58679 0
M  V30 8357 H 740.722 5.81301 -4.04345 0
M  V30 8358 H 741.13 5.0787 -2.46431 0
M  V30 8359 N 740.528 1.15101 1.07655 0
M  V30 8360 C 741.438 0.858869 2.18313 0
M  V30 8361 C 742.454 -0.163641 1.73229 0
M  V30 8362 O 743.63 0.00969541 2.01398 0
M  V30 8363 C 740.695 0.34893 3.4494 0
M  V30 8364 C 739.756 1.43495 4.04608 0
M  V30 8365 C 738.989 0.949253 5.2519 0
M  V30 8366 O 739.212 -0.20636 5.70027 0
M  V30 8367 O 738.146 1.73161 5.76454 0
M  V30 8368 H 741.972 1.78386 2.45788 0
M  V30 8369 H 739.557 0.929876 1.16934 0
M  V30 8370 H 741.439 0.070851 4.2134 0
M  V30 8371 H 740.114 -0.548237 3.19024 0
M  V30 8372 H 739.021 1.7666 3.29761 0
M  V30 8373 H 740.354 2.30692 4.3479 0
M  V30 8374 N 742.006 -1.2595 0.947325 0
M  V30 8375 C 742.916 -2.29883 0.468079 0
M  V30 8376 C 743.932 -1.67783 -0.460975 0
M  V30 8377 O 745.108 -1.98526 -0.339006 0
M  V30 8378 C 742.173 -3.45773 -0.253315 0
M  V30 8379 C 741.234 -4.23337 0.713054 0
M  V30 8380 C 740.467 -5.33694 0.025993 0
M  V30 8381 O 740.69 -5.57853 -1.18978 0
M  V30 8382 O 739.624 -5.97724 0.70782 0
M  V30 8383 H 743.45 -2.72952 1.33156 0
M  V30 8384 H 741.035 -1.31263 0.713468 0
M  V30 8385 H 742.917 -4.16209 -0.659423 0
M  V30 8386 H 741.592 -3.04721 -1.09209 0
M  V30 8387 H 740.499 -3.55359 1.16923 0
M  V30 8388 H 741.832 -4.68154 1.51963 0
M  V30 8389 N 743.484 -0.715051 -1.40445 0
M  V30 8390 C 744.434 -0.038591 -2.27967 0
M  V30 8391 C 745.418 0.733099 -1.43229 0
M  V30 8392 O 746.61 0.605388 -1.66325 0
M  V30 8393 C 743.739 0.882801 -3.31755 0
M  V30 8394 C 742.825 0.106325 -4.23967 0
M  V30 8395 N 743.216 -0.910143 -4.97544 0
M  V30 8396 C 741.514 0.33896 -4.4471 0
M  V30 8397 C 742.215 -1.37665 -5.65175 0
M  V30 8398 N 741.191 -0.698905 -5.39088 0
M  V30 8399 H 744.993 -0.81765 -2.82297 0
M  V30 8400 H 742.507 -0.547591 -1.5289 0
M  V30 8401 H 744.504 1.38273 -3.93302 0
M  V30 8402 H 743.164 1.66124 -2.78985 0
M  V30 8403 H 744.175 -1.29097 -5.01552 0
M  V30 8404 H 740.852 1.09377 -4.02918 0
M  V30 8405 H 742.242 -2.22122 -6.34123 0
M  V30 8406 N 744.962 1.50701 -0.461195 0
M  V30 8407 C 746.378 1.59187 -0.114786 0
M  V30 8408 C 746.578 1.4702 1.37794 0
M  V30 8409 O 745.634 1.32361 2.15027 0
M  V30 8410 C 746.947 2.93453 -0.656167 0
M  V30 8411 C 748.495 3.06824 -0.618715 0
M  V30 8412 C 748.97 4.4365 -1.13747 0
M  V30 8413 N 750.461 4.50035 -1.09646 0
M  V30 8414 C 751.196 5.54278 -1.46846 0
M  V30 8415 N 750.692 6.65822 -1.91448 0
M  V30 8416 N 752.485 5.44767 -1.38512 0
M  V30 8417 H 744.636 1.56853 -1.43216 0
M  V30 8418 H 746.899 0.740712 -0.59165 0
M  V30 8419 H 746.605 3.07802 -1.7015 0
M  V30 8420 H 746.479 3.77082 -0.0942261 0
M  V30 8421 H 748.866 2.92129 0.417685 0
M  V30 8422 H 748.947 2.24976 -1.21734 0
M  V30 8423 H 748.591 4.59093 -2.17245 0
M  V30 8424 H 748.521 5.24074 -0.515153 0
M  V30 8425 H 751.012 3.69988 -0.769217 0
M  V30 8426 H 751.325 7.41413 -2.18007 0
M  V30 8427 H 749.67 6.66968 -1.95393 0
M  V30 8428 H 752.861 4.56511 -1.03516 0
M  V30 8429 H 753.034 6.25889 -1.6783 0
M  V30 8430 N 746.441 0.193421 1.56409 0
M  V30 8431 C 747.373 -0.759944 2.16235 0
M  V30 8432 C 748.386 -1.17797 1.12373 0
M  V30 8433 O 749.575 -1.11399 1.39472 0
M  V30 8434 C 746.675 -2.03735 2.70823 0
M  V30 8435 C 745.848 -1.77939 3.9957 0
M  V30 8436 C 744.907 -2.90111 4.39001 0
M  V30 8437 O 743.933 -2.59791 5.06456 0
M  V30 8438 N 745.135 -4.18426 4.02368 0
M  V30 8439 H 747.9 -0.248348 2.98669 0
M  V30 8440 H 745.461 0.0113966 1.61896 0
M  V30 8441 H 747.453 -2.77914 2.94187 0
M  V30 8442 H 746.023 -2.46022 1.92852 0
M  V30 8443 H 745.243 -0.875491 3.84355 0
M  V30 8444 H 746.531 -1.58099 4.83614 0
M  V30 8445 H 745.929 -4.45913 3.48106 0
M  V30 8446 H 744.486 -4.89237 4.30686 0
M  V30 8447 N 747.919 -1.57396 -0.0801906 0
M  V30 8448 C 748.882 -2.02133 -1.0805 0
M  V30 8449 C 749.882 -0.91707 -1.32085 0
M  V30 8450 O 751.072 -1.18217 -1.27947 0
M  V30 8451 C 748.204 -2.39479 -2.42616 0
M  V30 8452 H 749.397 -2.91733 -0.6951 0
M  V30 8453 H 746.95 -1.52869 -0.325677 0
M  V30 8454 H 747.685 -1.52879 -2.86004 0
M  V30 8455 H 747.47 -3.20052 -2.26515 0
M  V30 8456 H 748.96 -2.74697 -3.14534 0
M  V30 8457 N 749.397 0.351382 -1.53633 0
M  V30 8458 C 750.307 1.45471 -1.84052 0
M  V30 8459 C 751.323 1.57945 -0.730015 0
M  V30 8460 O 752.499 1.73571 -1.02153 0
M  V30 8461 C 749.564 2.80562 -2.03681 0
M  V30 8462 C 748.625 2.77497 -3.27558 0
M  V30 8463 C 747.858 4.06144 -3.46241 0
M  V30 8464 O 748.081 5.03028 -2.68922 0
M  V30 8465 O 747.015 4.11092 -4.39645 0
M  V30 8466 H 750.841 1.22684 -2.77817 0
M  V30 8467 H 748.426 0.542827 -1.3919 0
M  V30 8468 H 750.308 3.6058 -2.18082 0
M  V30 8469 H 748.983 3.03296 -1.13106 0
M  V30 8470 H 747.89 1.96126 -3.18568 0
M  V30 8471 H 749.223 2.59716 -4.18101 0
M  V30 8472 N 750.875 1.45233 0.611969 0
M  V30 8473 C 752.291 1.29542 0.932251 0
M  V30 8474 C 752.491 0.24523 2.00002 0
M  V30 8475 O 751.547 -0.362333 2.49887 0
M  V30 8476 C 752.86 2.67301 1.37733 0
M  V30 8477 C 754.408 2.75163 1.49178 0
M  V30 8478 C 754.883 4.13437 1.97064 0
M  V30 8479 N 756.374 4.15709 2.04304 0
M  V30 8480 C 757.109 5.19566 2.42568 0
M  V30 8481 N 756.605 6.33771 2.79832 0
M  V30 8482 N 758.398 5.06923 2.42869 0
M  V30 8483 H 750.549 2.12192 -0.0938679 0
M  V30 8484 H 752.812 0.947775 0.0206569 0
M  V30 8485 H 752.518 3.45318 0.666951 0
M  V30 8486 H 752.392 2.95472 2.3447 0
M  V30 8487 H 754.779 1.97453 2.19309 0
M  V30 8488 H 754.86 2.50712 0.507674 0
M  V30 8489 H 754.504 4.91631 1.27521 0
M  V30 8490 H 754.434 4.35277 2.9638 0
M  V30 8491 H 756.925 3.33293 1.78113 0
M  V30 8492 H 757.238 7.08815 3.07898 0
M  V30 8493 H 755.583 6.37179 2.77538 0
M  V30 8494 H 758.774 4.1675 2.1316 0
M  V30 8495 H 758.947 5.87981 2.72364 0
M  V30 8496 N 752.353 -0.854086 1.3245 0
M  V30 8497 C 753.283 -1.97827 1.24044 0
M  V30 8498 C 754.264 -1.69646 0.124166 0
M  V30 8499 O 755.449 -1.91687 0.31143 0
M  V30 8500 C 752.579 -3.33673 0.963324 0
M  V30 8501 C 751.533 -3.76207 2.04089 0
M  V30 8502 C 750.859 -5.0969 1.61618 0
M  V30 8503 C 752.159 -3.91612 3.45597 0
M  V30 8504 H 753.853 -2.05118 2.18099 0
M  V30 8505 H 751.399 -0.985489 1.04996 0
M  V30 8506 H 753.352 -4.11871 0.891061 0
M  V30 8507 H 752.076 -3.26597 -0.0128649 0
M  V30 8508 H 750.735 -3.0026 2.10332 0
M  V30 8509 H 750.383 -4.99072 0.627418 0
M  V30 8510 H 750.083 -5.3912 2.33717 0
M  V30 8511 H 751.607 -5.90381 1.55829 0
M  V30 8512 H 753.021 -4.60163 3.4194 0
M  V30 8513 H 751.418 -4.3246 4.16051 0
M  V30 8514 H 752.488 -2.9451 3.85217 0
M  V30 8515 N 753.831 -1.1567 -1.07043 0
M  V30 8516 C 754.763 -0.814095 -2.14255 0
M  V30 8517 C 755.776 0.175293 -1.61854 0
M  V30 8518 O 756.965 -0.0483984 -1.78434 0
M  V30 8519 C 754.065 -0.190082 -3.38367 0
M  V30 8520 C 753.238 -1.21768 -4.20109 0
M  V30 8521 C 752.297 -0.614863 -5.22595 0
M  V30 8522 O 751.323 -1.28167 -5.54583 0
M  V30 8523 N 752.525 0.601955 -5.77371 0
M  V30 8524 H 755.29 -1.73677 -2.44247 0
M  V30 8525 H 752.851 -1.05301 -1.22977 0
M  V30 8526 H 754.843 0.22604 -4.04068 0
M  V30 8527 H 753.413 0.635992 -3.06062 0
M  V30 8528 H 752.633 -1.81025 -3.50177 0
M  V30 8529 H 753.921 -1.9114 -4.71533 0
M  V30 8530 H 753.319 1.162 -5.53637 0
M  V30 8531 H 751.876 0.96039 -6.44686 0
M  V30 8532 N 755.309 1.25446 -0.953992 0
M  V30 8533 C 756.725 1.4539 -0.658316 0
M  V30 8534 C 756.925 1.85607 0.784356 0
M  V30 8535 O 755.981 1.98568 1.55972 0
M  V30 8536 C 757.294 2.52643 -1.6307 0
M  V30 8537 C 758.842 2.66484 -1.64181 0
M  V30 8538 C 759.317 3.76921 -2.60182 0
M  V30 8539 N 760.808 3.84331 -2.58542 0
M  V30 8540 C 761.543 4.69271 -3.29503 0
M  V30 8541 N 761.039 5.58503 -4.09934 0
M  V30 8542 N 762.832 4.6323 -3.18393 0
M  V30 8543 H 754.983 0.976337 -1.8863 0
M  V30 8544 H 757.246 0.490343 -0.811337 0
M  V30 8545 H 756.952 2.29949 -2.66114 0
M  V30 8546 H 756.826 3.50547 -1.39271 0
M  V30 8547 H 759.213 2.88545 -0.618552 0
M  V30 8548 H 759.294 1.68982 -1.92038 0
M  V30 8549 H 758.938 3.55612 -3.62633 0
M  V30 8550 H 758.868 4.73906 -2.29609 0
M  V30 8551 H 761.359 3.20544 -2.0015 0
M  V30 8552 H 761.672 6.20241 -4.61 0
M  V30 8553 H 760.017 5.58214 -4.14032 0
M  V30 8554 H 763.208 3.92527 -2.5503 0
M  V30 8555 H 763.381 5.29204 -3.73961 0
M  V30 8556 N 756.787 0.722489 1.40064 0
M  V30 8557 C 757.719 0.0349057 2.29173 0
M  V30 8558 C 758.732 -0.716571 1.46182 0
M  V30 8559 O 759.921 -0.562806 1.69395 0
M  V30 8560 C 757.021 -0.974839 3.24577 0
M  V30 8561 C 756.194 -0.287471 4.36454 0
M  V30 8562 C 755.253 -1.20356 5.12251 0
M  V30 8563 O 754.279 -0.685753 5.65054 0
M  V30 8564 N 755.481 -2.53422 5.22262 0
M  V30 8565 H 758.246 0.800058 2.88824 0
M  V30 8566 H 755.807 0.57068 1.51509 0
M  V30 8567 H 757.799 -1.59002 3.72157 0
M  V30 8568 H 756.369 -1.6413 2.66046 0
M  V30 8569 H 755.589 0.508008 3.90913 0
M  V30 8570 H 756.877 0.189382 5.08447 0
M  V30 8571 H 756.275 -2.97981 4.80857 0
M  V30 8572 H 754.832 -3.10067 5.73325 0
M  V30 8573 N 758.265 -1.50454 0.469181 0
M  V30 8574 C 759.195 -2.31353 -0.31592 0
M  V30 8575 C 760.176 -1.38172 -0.992094 0
M  V30 8576 O 761.361 -1.67093 -0.989633 0
M  V30 8577 C 758.491 -3.1786 -1.39937 0
M  V30 8578 C 757.445 -4.19578 -0.844909 0
M  V30 8579 C 756.771 -4.9481 -2.0265 0
M  V30 8580 C 758.071 -5.22106 0.142499 0
M  V30 8581 H 759.765 -2.97237 0.359269 0
M  V30 8582 H 757.311 -1.42942 0.174224 0
M  V30 8583 H 759.264 -3.7325 -1.95607 0
M  V30 8584 H 757.988 -2.49858 -2.1033 0
M  V30 8585 H 756.647 -3.65285 -0.310189 0
M  V30 8586 H 756.295 -4.23282 -2.71737 0
M  V30 8587 H 755.995 -5.63613 -1.66174 0
M  V30 8588 H 757.519 -5.53035 -2.58815 0
M  V30 8589 H 758.933 -5.72378 -0.324966 0
M  V30 8590 H 757.33 -5.98618 0.421441 0
M  V30 8591 H 758.4 -4.7297 1.06901 0
M  V30 8592 N 759.743 -0.201713 -1.56304 0
M  V30 8593 C 760.675 0.748466 -2.16635 0
M  V30 8594 C 761.688 1.172 -1.12996 0
M  V30 8595 O 762.877 1.10658 -1.40061 0
M  V30 8596 C 759.977 2.02296 -2.719 0
M  V30 8597 C 759.15 1.75818 -4.00508 0
M  V30 8598 C 758.209 2.87779 -4.40533 0
M  V30 8599 O 757.235 2.57101 -5.07826 0
M  V30 8600 N 758.437 4.16287 -4.04581 0
M  V30 8601 H 761.202 0.232505 -2.98797 0
M  V30 8602 H 758.763 -0.0199822 -1.61888 0
M  V30 8603 H 760.755 2.7635 -2.95657 0
M  V30 8604 H 759.325 2.44996 -1.94154 0
M  V30 8605 H 758.545 0.855095 -3.84814 0
M  V30 8606 H 759.833 1.55532 -4.84445 0
M  V30 8607 H 759.231 4.44061 -3.50466 0
M  V30 8608 H 757.788 4.86946 -4.33274 0
M  V30 8609 N 761.222 1.57436 0.0718424 0
M  V30 8610 C 762.154 2.00412 1.1121 0
M  V30 8611 C 763.167 0.910074 1.34987 0
M  V30 8612 O 764.356 1.18796 1.33228 0
M  V30 8613 C 761.456 2.32786 2.46301 0
M  V30 8614 C 760.629 3.64036 2.4248 0
M  V30 8615 C 759.688 3.8408 3.59679 0
M  V30 8616 O 758.714 4.55667 3.4111 0
M  V30 8617 N 759.916 3.2643 4.80025 0
M  V30 8618 H 762.681 2.90264 0.746118 0
M  V30 8619 H 760.242 1.59791 0.260495 0
M  V30 8620 H 762.234 2.43368 3.23348 0
M  V30 8621 H 760.804 1.48824 2.74901 0
M  V30 8622 H 760.024 3.64208 1.50818 0
M  V30 8623 H 761.312 4.50217 2.37027 0
M  V30 8624 H 760.71 2.68325 4.98014 0
M  V30 8625 H 759.267 3.42461 5.54584 0
M  V30 8626 N 762.7 -0.34323 1.53817 0
M  V30 8627 C 763.61 -1.44493 1.84821 0
M  V30 8628 C 764.626 -1.57556 0.738381 0
M  V30 8629 O 765.802 -1.73026 1.03072 0
M  V30 8630 C 762.867 -2.79478 2.05166 0
M  V30 8631 C 761.928 -2.75756 3.29025 0
M  V30 8632 C 761.161 -4.04302 3.4839 0
M  V30 8633 O 761.384 -5.01595 2.71586 0
M  V30 8634 O 760.318 -4.08754 4.41819 0
M  V30 8635 H 764.144 -1.21209 2.78464 0
M  V30 8636 H 761.729 -0.535437 1.39476 0
M  V30 8637 H 763.611 -3.59419 2.19991 0
M  V30 8638 H 762.286 -3.02692 1.14713 0
M  V30 8639 H 761.193 -1.94434 3.19603 0
M  V30 8640 H 762.526 -2.57495 4.19472 0
M  V30 8641 N 764.178 -1.45556 -0.604258 0
M  V30 8642 C 765.11 -1.50494 -1.72871 0
M  V30 8643 C 766.123 -0.395368 -1.57926 0
M  V30 8644 O 767.312 -0.662603 -1.65746 0
M  V30 8645 C 764.412 -1.34874 -3.10906 0
M  V30 8646 C 763.585 -2.59564 -3.52058 0
M  V30 8647 C 762.644 -2.38453 -4.6907 0
M  V30 8648 O 761.67 -3.12082 -4.76018 0
M  V30 8649 N 762.872 -1.43229 -5.62553 0
M  V30 8650 H 765.637 -2.4744 -1.69097 0
M  V30 8651 H 763.198 -1.41338 -0.789636 0
M  V30 8652 H 765.19 -1.18556 -3.86945 0
M  V30 8653 H 763.76 -0.461913 -3.09168 0
M  V30 8654 H 762.98 -2.90974 -2.65946 0
M  V30 8655 H 764.268 -3.42441 -3.76313 0
M  V30 8656 H 763.666 -0.824714 -5.59656 0
M  V30 8657 H 762.223 -1.32882 -6.38111 0
M  V30 8658 N 765.656 0.84705 -1.32902 0
M  V30 8659 C 766.619 1.9378 -1.224 0
M  V30 8660 C 767.619 1.60144 -0.145108 0
M  V30 8661 O 768.809 1.69638 -0.396058 0
M  V30 8662 C 765.941 3.29234 -0.884174 0
M  V30 8663 H 767.134 2.04518 -2.19345 0
M  V30 8664 H 764.687 1.03816 -1.16842 0
M  V30 8665 H 765.422 3.24193 0.0831277 0
M  V30 8666 H 765.207 3.55026 -1.6643 0
M  V30 8667 H 766.697 4.09162 -0.835226 0
M  V30 8668 N 767.134 1.16236 1.06428 0
M  V30 8669 C 768.364 0.965782 1.82637 0
M  V30 8670 C 768.772 -0.489284 1.82764 0
M  V30 8671 O 768.115 -1.35133 1.24438 0
M  V30 8672 C 768.177 1.41458 3.30499 0
M  V30 8673 C 767.841 2.88926 3.54077 0
M  V30 8674 C 768.838 3.86939 3.47238 0
M  V30 8675 C 766.523 3.26814 3.81442 0
M  V30 8676 C 768.517 5.20841 3.67428 0
M  V30 8677 C 766.204 4.60886 4.01282 0
M  V30 8678 C 767.202 5.57708 3.94272 0
M  V30 8679 O 766.89 6.89357 4.13573 0
M  V30 8680 H 766.622 0.342569 0.582772 0
M  V30 8681 H 769.176 1.54641 1.35187 0
M  V30 8682 H 767.406 0.777426 3.78805 0
M  V30 8683 H 769.095 1.18563 3.88198 0
M  V30 8684 H 769.861 3.59014 3.26089 0
M  V30 8685 H 765.74 2.5203 3.86008 0
M  V30 8686 H 769.284 5.96401 3.61873 0
M  V30 8687 H 765.181 4.88522 4.21921 0
M  V30 8688 H 765.949 6.95913 4.30869 0
M  V30 8689 N 768.612 -1.24939 0.960631 0
M  V30 8690 C 769.542 -2.28 0.503815 0
M  V30 8691 C 770.523 -1.63959 -0.452928 0
M  V30 8692 O 771.708 -1.91009 -0.350585 0
M  V30 8693 C 768.838 -3.46643 -0.213535 0
M  V30 8694 C 767.792 -4.22903 0.658535 0
M  V30 8695 C 767.118 -5.34363 -0.189902 0
M  V30 8696 C 768.418 -4.84949 1.93963 0
M  V30 8697 H 770.112 -2.66462 1.36521 0
M  V30 8698 H 767.658 -1.28093 0.657897 0
M  V30 8699 H 769.611 -4.1787 -0.544286 0
M  V30 8700 H 768.335 -3.07187 -1.10923 0
M  V30 8701 H 766.994 -3.53467 0.972455 0
M  V30 8702 H 766.642 -4.91147 -1.08553 0
M  V30 8703 H 766.342 -5.86302 0.390331 0
M  V30 8704 H 767.866 -6.0842 -0.515484 0
M  V30 8705 H 769.28 -5.48288 1.67491 0
M  V30 8706 H 767.677 -5.47091 2.46601 0
M  V30 8707 H 768.747 -4.06799 2.639 0
M  V30 8708 N 770.09 -0.729906 -1.39679 0
M  V30 8709 C 771.02 -0.101618 -2.33279 0
M  V30 8710 C 772.001 0.729854 -1.53646 0
M  V30 8711 O 773.186 0.67587 -1.82059 0
M  V30 8712 C 770.316 0.81024 -3.37716 0
M  V30 8713 C 769.27 0.0833126 -4.27919 0
M  V30 8714 C 768.596 1.11185 -5.23012 0
M  V30 8715 C 769.896 -1.07107 -5.112 0
M  V30 8716 H 771.59 -0.883452 -2.86069 0
M  V30 8717 H 769.136 -0.426283 -1.37546 0
M  V30 8718 H 771.089 1.25927 -4.02145 0
M  V30 8719 H 769.813 1.62413 -2.83354 0
M  V30 8720 H 768.472 -0.346043 -3.64963 0
M  V30 8721 H 768.12 1.91917 -4.64948 0
M  V30 8722 H 767.82 0.63026 -5.8421 0
M  V30 8723 H 769.344 1.56068 -5.90318 0
M  V30 8724 H 770.758 -0.700726 -5.69002 0
M  V30 8725 H 769.155 -1.48196 -5.81514 0
M  V30 8726 H 770.225 -1.89513 -4.46332 0
M  V30 8727 N 771.568 1.50203 -0.477153 0
M  V30 8728 C 772.793 2.07263 0.0754986 0
M  V30 8729 C 773.218 1.33801 1.32208 0
M  V30 8730 O 772.576 0.387482 1.77111 0
M  V30 8731 C 772.624 3.59028 0.336348 0
M  V30 8732 O 771.728 3.87339 1.4157 0
M  V30 8733 H 771.069 0.663815 -0.015662 0
M  V30 8734 H 773.599 1.93321 -0.669936 0
M  V30 8735 H 773.609 4.03927 0.575034 0
M  V30 8736 H 772.284 4.11912 -0.574551 0
M  V30 8737 H 770.861 3.54272 1.16385 0
M  V30 8738 N 773.046 0.209999 1.56195 0
M  V30 8739 C 773.976 -0.699746 2.22769 0
M  V30 8740 C 774.957 -1.20993 1.1956 0
M  V30 8741 O 776.142 -1.25605 1.48112 0
M  V30 8742 C 773.272 -1.91302 2.89863 0
M  V30 8743 C 772.226 -1.53715 3.99444 0
M  V30 8744 C 771.552 -2.82826 4.53777 0
M  V30 8745 C 772.852 -0.735836 5.17091 0
M  V30 8746 H 774.546 -0.144716 2.9905 0
M  V30 8747 H 772.092 -0.0681645 1.43839 0
M  V30 8748 H 774.045 -2.5548 3.35124 0
M  V30 8749 H 772.769 -2.49283 2.11011 0
M  V30 8750 H 771.428 -0.918892 3.54897 0
M  V30 8751 H 771.076 -3.38927 3.71669 0
M  V30 8752 H 770.776 -2.58415 5.27727 0
M  V30 8753 H 772.3 -3.47966 5.01749 0
M  V30 8754 H 773.714 -1.28105 5.58804 0
M  V30 8755 H 772.111 -0.589272 5.972 0
M  V30 8756 H 773.181 0.260004 4.84202 0
M  V30 8757 N 774.524 -1.57472 -0.0634922 0
M  V30 8758 C 775.456 -2.00999 -1.10145 0
M  V30 8759 C 776.469 -0.917219 -1.34503 0
M  V30 8760 O 777.658 -1.19501 -1.32596 0
M  V30 8761 C 774.758 -2.34089 -2.45063 0
M  V30 8762 C 773.931 -3.65317 -2.40546 0
M  V30 8763 C 772.99 -3.85982 -3.57637 0
M  V30 8764 O 772.016 -4.5747 -3.38689 0
M  V30 8765 N 773.218 -3.28971 -4.78287 0
M  V30 8766 H 775.983 -2.90656 -0.730714 0
M  V30 8767 H 773.544 -1.59926 -0.252017 0
M  V30 8768 H 775.536 -2.4508 -3.22053 0
M  V30 8769 H 774.106 -1.50279 -2.74107 0
M  V30 8770 H 773.326 -3.65003 -1.48885 0
M  V30 8771 H 774.614 -4.51468 -2.34636 0
M  V30 8772 H 774.012 -2.70962 -4.96584 0
M  V30 8773 H 772.569 -3.45398 -5.5276 0
M  V30 8774 N 776.003 0.335068 -1.53997 0
M  V30 8775 C 776.953 1.4127 -1.7896 0
M  V30 8776 C 777.937 1.474 -0.64513 0
M  V30 8777 O 779.129 1.52127 -0.904785 0
M  V30 8778 C 776.258 2.78292 -2.01018 0
M  V30 8779 C 775.344 2.7652 -3.21555 0
M  V30 8780 N 775.735 2.44374 -4.42849 0
M  V30 8781 C 774.033 3.0766 -3.22895 0
M  V30 8782 C 774.734 2.51049 -5.24737 0
M  V30 8783 N 773.71 2.8702 -4.6165 0
M  V30 8784 H 777.512 1.15327 -2.70327 0
M  V30 8785 H 775.026 0.543483 -1.53036 0
M  V30 8786 H 777.023 3.55949 -2.17039 0
M  V30 8787 H 775.683 3.05175 -1.10898 0
M  V30 8788 H 776.694 2.17422 -4.70051 0
M  V30 8789 H 773.371 3.3966 -2.42771 0
M  V30 8790 H 774.761 2.29283 -6.31569 0
M  V30 8791 N 777.481 1.45874 0.596531 0
M  V30 8792 C 778.758 1.40942 1.35627 0
M  V30 8793 C 779.138 0.0857066 2.10926 0
M  V30 8794 O 778.486 -0.932544 2.08605 0
M  V30 8795 C 778.696 2.63027 2.29386 0
M  V30 8796 C 780.044 3.08588 2.91649 0
M  V30 8797 O 781.068 2.63478 2.39704 0
M  V30 8798 O 779.927 3.86902 3.85965 0
M  V30 8799 H 777.021 0.559838 0.608696 0
M  V30 8800 H 779.567 1.5802 0.618698 0
M  V30 8801 H 778.339 3.5094 1.7308 0
M  V30 8802 H 777.962 2.48338 3.10506 0
M  V30 8803 N 778.959 -0.83999 1.33349 0
M  V30 8804 C 779.909 -1.93817 1.20079 0
M  V30 8805 C 780.893 -1.60564 0.103978 0
M  V30 8806 O 782.085 -1.73859 0.331964 0
M  V30 8807 C 779.214 -3.30151 0.941031 0
M  V30 8808 C 778.3 -3.69577 2.08023 0
M  V30 8809 N 778.691 -3.80707 3.3301 0
M  V30 8810 C 776.989 -3.99309 1.98667 0
M  V30 8811 C 777.69 -4.14899 4.07717 0
M  V30 8812 N 776.666 -4.27208 3.36146 0
M  V30 8813 H 780.468 -2.00576 2.14817 0
M  V30 8814 H 777.982 -1.03264 1.2534 0
M  V30 8815 H 779.979 -4.08617 0.826894 0
M  V30 8816 H 778.639 -3.247 0.00216738 0
M  V30 8817 H 779.65 -3.64644 3.67771 0
M  V30 8818 H 776.327 -4.02076 1.12433 0
M  V30 8819 H 777.717 -4.30857 5.15569 0
M  V30 8820 N 780.437 -1.16799 -1.0581 0
M  V30 8821 C 781.853 -0.913935 -1.30841 0
M  V30 8822 C 782.053 0.430439 -1.96849 0
M  V30 8823 O 781.109 1.16885 -2.23817 0
M  V30 8824 C 782.422 -2.06662 -2.18429 0
M  V30 8825 C 783.97 -2.10294 -2.31831 0
M  V30 8826 C 784.445 -3.2493 -3.22776 0
M  V30 8827 N 785.936 -3.24678 -3.30361 0
M  V30 8828 C 786.671 -4.10021 -4.00837 0
M  V30 8829 N 786.167 -5.05461 -4.73795 0
M  V30 8830 N 787.96 -3.97991 -3.96937 0
M  V30 8831 H 780.111 -2.03343 -0.613613 0
M  V30 8832 H 782.374 -0.88754 -0.333133 0
M  V30 8833 H 782.08 -3.03791 -1.77211 0
M  V30 8834 H 781.954 -2.01233 -3.19038 0
M  V30 8835 H 784.341 -1.13754 -2.72294 0
M  V30 8836 H 784.422 -2.19786 -1.30873 0
M  V30 8837 H 784.066 -4.21731 -2.83028 0
M  V30 8838 H 783.996 -3.12674 -4.23725 0
M  V30 8839 H 786.487 -2.55573 -2.78372 0
M  V30 8840 H 786.8 -5.66989 -5.25113 0
M  V30 8841 H 785.145 -5.09436 -4.72758 0
M  V30 8842 H 788.336 -3.2273 -3.39062 0
M  V30 8843 H 788.509 -4.64722 -4.51594 0
M  V30 8844 N 781.915 1.24427 -0.967243 0
M  V30 8845 C 783.331 1.44684 -0.6737 0
M  V30 8846 C 783.531 1.86429 0.764625 0
M  V30 8847 O 782.587 2.00211 1.53857 0
M  V30 8848 C 783.9 2.509 -1.6574 0
M  V30 8849 C 785.448 2.64728 -1.66998 0
M  V30 8850 C 785.923 3.7414 -2.64165 0
M  V30 8851 N 787.414 3.81567 -2.62604 0
M  V30 8852 C 788.149 4.6575 -3.34462 0
M  V30 8853 N 787.645 5.54124 -4.15835 0
M  V30 8854 N 789.438 4.59827 -3.23288 0
M  V30 8855 H 781.589 0.956276 -1.89655 0
M  V30 8856 H 783.852 0.48171 -0.816492 0
M  V30 8857 H 783.558 2.27113 -2.68538 0
M  V30 8858 H 783.432 3.4905 -1.42981 0
M  V30 8859 H 785.819 2.87872 -0.649121 0
M  V30 8860 H 785.9 1.66936 -1.93819 0
M  V30 8861 H 785.544 3.51745 -3.66384 0
M  V30 8862 H 785.474 4.71444 -2.34623 0
M  V30 8863 H 787.965 3.18403 -2.03539 0
M  V30 8864 H 788.278 6.15316 -4.67553 0
M  V30 8865 H 786.623 5.53791 -4.19929 0
M  V30 8866 H 789.814 3.898 -2.59179 0
M  V30 8867 H 789.987 5.25208 -3.79553 0
M  V30 8868 N 783.393 0.737304 1.3929 0
M  V30 8869 C 784.804 0.355966 1.83275 0
M  V30 8870 C 785.155 -1.11295 1.6158 0
M  V30 8871 O 784.28 -1.85871 1.10819 0
M  V30 8872 C 784.875 0.63931 3.32713 0
M  V30 8873 C 783.434 0.31144 3.75109 0
M  V30 8874 C 782.581 0.900765 2.62262 0
M  V30 8875 H 785.532 0.934763 1.28249 0
M  V30 8876 H 785.553 -0.0881293 3.80398 0
M  V30 8877 H 785.065 1.70847 3.48472 0
M  V30 8878 H 783.166 -0.751791 3.64937 0
M  V30 8879 H 783.279 0.795611 4.72448 0
M  V30 8880 H 781.643 0.327239 2.52589 0
M  V30 8881 H 782.426 1.97463 2.80826 0
M  V30 8882 N 784.871 -1.49948 0.485112 0
M  V30 8883 C 785.821 -2.25734 -0.320658 0
M  V30 8884 C 786.805 -1.29907 -0.949373 0
M  V30 8885 O 787.997 -1.54725 -0.859601 0
M  V30 8886 C 785.126 -3.13728 -1.39391 0
M  V30 8887 C 784.212 -4.1701 -0.772225 0
M  V30 8888 N 784.603 -5.05667 0.115782 0
M  V30 8889 C 782.901 -4.33834 -1.03461 0
M  V30 8890 C 783.602 -5.79798 0.47004 0
M  V30 8891 N 782.578 -5.4337 -0.158204 0
M  V30 8892 H 786.38 -2.91647 0.36319 0
M  V30 8893 H 783.894 -1.59602 0.300154 0
M  V30 8894 H 785.891 -3.66639 -1.98447 0
M  V30 8895 H 784.551 -2.49365 -2.0796 0
M  V30 8896 H 785.562 -5.15619 0.485557 0
M  V30 8897 H 782.239 -3.80684 -1.71424 0
M  V30 8898 H 783.629 -6.61177 1.19558 0
M  V30 8899 N 786.349 -0.21828 -1.56081 0
M  V30 8900 C 787.76 0.290166 -1.84431 0
M  V30 8901 C 788.111 1.59712 -1.13958 0
M  V30 8902 O 787.236 2.12516 -0.40815 0
M  V30 8903 C 787.831 0.53325 -3.34577 0
M  V30 8904 C 786.39 0.986011 -3.63256 0
M  V30 8905 C 785.537 0.0472798 -2.7726 0
M  V30 8906 H 788.488 -0.441548 -1.52434 0
M  V30 8907 H 788.509 1.37967 -3.54606 0
M  V30 8908 H 788.021 -0.418137 -3.85841 0
M  V30 8909 H 786.122 1.95087 -3.17446 0
M  V30 8910 H 786.235 0.862684 -4.71269 0
M  V30 8911 H 784.599 0.553471 -2.48614 0
M  V30 8912 H 785.382 -0.898966 -3.31321 0
M  V30 8913 N 787.827 1.57504 0.0551401 0
M  V30 8914 C 788.759 2.0158 1.09078 0
M  V30 8915 C 789.772 0.92434 1.34014 0
M  V30 8916 O 790.961 1.20202 1.31961 0
M  V30 8917 C 788.061 2.35385 2.43818 0
M  V30 8918 C 787.234 3.66588 2.38605 0
M  V30 8919 C 786.293 3.87874 3.55585 0
M  V30 8920 O 785.319 4.59259 3.36258 0
M  V30 8921 N 786.521 3.31503 4.76536 0
M  V30 8922 H 789.286 2.91039 0.71529 0
M  V30 8923 H 786.847 1.60058 0.243532 0
M  V30 8924 H 788.839 2.46784 3.20749 0
M  V30 8925 H 787.409 1.51731 2.73307 0
M  V30 8926 H 786.629 3.65787 1.46947 0
M  V30 8927 H 787.917 4.52706 2.32239 0
M  V30 8928 H 787.315 2.73592 4.9514 0
M  V30 8929 H 785.872 3.48324 5.50921 0
M  V30 8930 N 789.305 -0.326896 1.54172 0
M  V30 8931 C 790.255 -1.40319 1.79707 0
M  V30 8932 C 791.239 -1.47056 0.652938 0
M  V30 8933 O 792.431 -1.51645 0.91284 0
M  V30 8934 C 789.56 -2.77222 2.02491 0
M  V30 8935 C 788.646 -2.74811 3.23016 0
M  V30 8936 N 789.037 -2.42022 4.44138 0
M  V30 8937 C 787.335 -3.05943 3.24522 0
M  V30 8938 C 788.036 -2.48263 5.26061 0
M  V30 8939 N 787.012 -2.84567 4.63166 0
M  V30 8940 H 790.814 -1.13892 2.70935 0
M  V30 8941 H 788.328 -0.53536 1.53322 0
M  V30 8942 H 790.325 -3.54793 2.18923 0
M  V30 8943 H 788.985 -3.04582 1.12515 0
M  V30 8944 H 789.996 -2.14926 4.71197 0
M  V30 8945 H 786.673 -3.38367 2.44569 0
M  V30 8946 H 788.063 -2.2593 6.32776 0
M  V30 8947 N 790.784 -1.46188 -0.588786 0
M  V30 8948 C 792.009 -1.5498 -1.37826 0
M  V30 8949 C 792.434 -0.189498 -1.87143 0
M  V30 8950 O 791.792 0.829293 -1.61222 0
M  V30 8951 C 791.84 -2.55369 -2.54596 0
M  V30 8952 O 790.944 -2.08452 -3.55839 0
M  V30 8953 H 790.285 -0.521741 -0.41071 0
M  V30 8954 H 792.815 -1.91708 -0.714779 0
M  V30 8955 H 792.825 -2.74782 -3.01594 0
M  V30 8956 H 791.5 -3.54155 -2.18052 0
M  V30 8957 H 790.077 -1.98999 -3.15363 0
M  V30 8958 N 792.262 0.832906 -1.33792 0
M  V30 8959 C 793.194 1.95042 -1.2038 0
M  V30 8960 C 794.207 1.62253 -0.133299 0
M  V30 8961 O 795.396 1.74315 -0.384261 0
M  V30 8962 C 792.496 3.287 -0.825215 0
M  V30 8963 C 791.669 3.89581 -1.98861 0
M  V30 8964 C 790.728 5.01602 -1.59003 0
M  V30 8965 O 789.754 5.20431 -2.30522 0
M  V30 8966 N 790.956 5.78356 -0.498446 0
M  V30 8967 H 793.721 2.07083 -2.16649 0
M  V30 8968 H 791.282 1.00896 -1.26616 0
M  V30 8969 H 793.274 4.01074 -0.540559 0
M  V30 8970 H 791.844 3.12565 0.0469796 0
M  V30 8971 H 791.064 3.09723 -2.43856 0
M  V30 8972 H 792.352 4.26989 -2.76691 0
M  V30 8973 H 791.75 5.65618 0.0963297 0
M  V30 8974 H 790.307 6.51226 -0.273485 0
M  V30 8975 N 793.74 1.17359 1.05189 0
M  V30 8976 C 794.672 0.848078 2.12933 0
M  V30 8977 C 795.685 -0.149521 1.62112 0
M  V30 8978 O 796.874 0.0767797 1.78335 0
M  V30 8979 C 793.974 0.243889 3.38021 0
M  V30 8980 C 793.147 1.28436 4.18118 0
M  V30 8981 C 792.206 0.697926 5.21551 0
M  V30 8982 O 791.232 1.36973 5.52473 0
M  V30 8983 N 792.434 -0.510024 5.78255 0
M  V30 8984 H 795.199 1.7754 2.41453 0
M  V30 8985 H 792.76 1.07244 1.21286 0
M  V30 8986 H 794.752 -0.161727 4.04377 0
M  V30 8987 H 793.322 -0.58722 3.07035 0
M  V30 8988 H 792.542 1.86573 3.47252 0
M  V30 8989 H 793.83 1.98617 4.68432 0
M  V30 8990 H 793.228 -1.07378 5.55416 0
M  V30 8991 H 791.785 -0.857705 6.46132 0
M  V30 8992 N 795.218 -1.23913 0.973828 0
M  V30 8993 C 796.629 -1.73992 0.677021 0
M  V30 8994 C 796.98 -1.78833 -0.807036 0
M  V30 8995 O 796.105 -1.42183 -1.63135 0
M  V30 8996 C 796.7 -3.15985 1.22226 0
M  V30 8997 C 795.259 -3.63547 0.975228 0
M  V30 8998 C 794.406 -2.42001 1.35392 0
M  V30 8999 H 797.357 -1.09529 1.14844 0
M  V30 9000 H 797.378 -3.75875 0.591489 0
M  V30 9001 H 796.89 -3.12429 2.30238 0
M  V30 9002 H 794.991 -3.72493 -0.0891047 0
M  V30 9003 H 795.104 -4.50693 1.62518 0
M  V30 9004 H 793.468 -2.42708 0.772334 0
M  V30 9005 H 794.251 -2.41122 2.44367 0
M  V30 9006 N 796.696 -0.74468 -1.38897 0
M  V30 9007 C 798.107 -0.36568 -1.83084 0
M  V30 9008 C 798.458 1.10436 -1.62168 0
M  V30 9009 O 797.583 1.85281 -1.11804 0
M  V30 9010 C 798.178 -0.656946 -3.3237 0
M  V30 9011 C 796.737 -0.331329 -3.74939 0
M  V30 9012 C 795.884 -0.914661 -2.61781 0
M  V30 9013 H 798.835 -0.941551 -1.27752 0
M  V30 9014 H 798.856 0.0679546 -3.80439 0
M  V30 9015 H 798.368 -1.72693 -3.47561 0
M  V30 9016 H 796.469 0.732426 -3.6533 0
M  V30 9017 H 796.582 -0.820655 -4.72019 0
M  V30 9018 H 794.946 -0.34063 -2.52412 0
M  V30 9019 H 795.729 -1.98949 -2.79775 0
M  V30 9020 N 798.174 1.49689 -0.493057 0
M  V30 9021 C 799.585 1.8665 -0.0433032 0
M  V30 9022 C 799.936 1.40607 1.36836 0
M  V30 9023 O 799.061 0.780503 2.01834 0
M  V30 9024 C 799.656 3.38724 -0.0718069 0
M  V30 9025 C 798.215 3.75015 0.32257 0
M  V30 9026 C 797.362 2.7366 -0.4478 0
M  V30 9027 H 800.313 1.42119 -0.706246 0
M  V30 9028 H 800.334 3.73522 0.725347 0
M  V30 9029 H 799.846 3.72204 -1.09935 0
M  V30 9030 H 797.947 3.47142 1.35364 0
M  V30 9031 H 798.06 4.79099 0.00864259 0
M  V30 9032 H 796.424 2.54498 0.101354 0
M  V30 9033 H 797.207 3.09985 -1.47527 0
M  V30 9034 N 799.652 0.226554 1.55963 0
M  V30 9035 C 801.063 -0.280381 1.84583 0
M  V30 9036 C 801.414 -1.59105 1.14804 0
M  V30 9037 O 800.539 -2.12297 0.419414 0
M  V30 9038 C 801.134 -0.515499 3.34855 0
M  V30 9039 C 799.693 -0.966733 3.63774 0
M  V30 9040 C 798.84 -0.0325753 2.77281 0
M  V30 9041 H 801.791 0.449626 1.52197 0
M  V30 9042 H 801.812 -1.36085 3.55332 0
M  V30 9043 H 801.324 0.438594 3.85614 0
M  V30 9044 H 799.425 -1.93401 3.18476 0
M  V30 9045 H 799.538 -0.837679 4.7172 0
M  V30 9046 H 797.902 -0.540279 2.48904 0
M  V30 9047 H 798.685 0.916524 3.30839 0
M  V30 9048 N 801.13 -1.57531 -0.0467866 0
M  V30 9049 C 802.062 -2.02156 -1.08007 0
M  V30 9050 C 803.075 -0.931434 -1.33522 0
M  V30 9051 O 804.264 -1.209 -1.31321 0
M  V30 9052 C 801.364 -2.36675 -2.42566 0
M  V30 9053 C 800.537 -3.67848 -2.36658 0
M  V30 9054 C 799.596 -3.89754 -3.53523 0
M  V30 9055 O 798.622 -4.61036 -3.33818 0
M  V30 9056 N 799.824 -3.34025 -4.74771 0
M  V30 9057 H 802.589 -2.91414 -0.699845 0
M  V30 9058 H 800.15 -1.60185 -0.235041 0
M  V30 9059 H 802.142 -2.48482 -3.19435 0
M  V30 9060 H 800.712 -1.53178 -2.72498 0
M  V30 9061 H 799.932 -3.66561 -1.45005 0
M  V30 9062 H 801.22 -4.53931 -2.29835 0
M  V30 9063 H 800.618 -2.76214 -4.93683 0
M  V30 9064 H 799.175 -3.51241 -5.49066 0
M  V30 9065 N 802.608 0.318715 -1.54344 0
M  V30 9066 C 803.54 1.41364 -1.80413 0
M  V30 9067 C 804.553 1.47627 -0.686294 0
M  V30 9068 O 805.742 1.50264 -0.963486 0
M  V30 9069 C 802.842 2.79867 -1.91123 0
M  V30 9070 C 802.015 2.96749 -3.21339 0
M  V30 9071 C 801.074 4.15642 -3.22689 0
M  V30 9072 O 800.1 4.08571 -3.96306 0
M  V30 9073 N 801.302 5.25416 -2.46817 0
M  V30 9074 H 804.067 1.19363 -2.74905 0
M  V30 9075 H 801.628 0.508722 -1.537 0
M  V30 9076 H 803.62 3.57619 -1.89448 0
M  V30 9077 H 802.19 2.94896 -1.03706 0
M  V30 9078 H 801.41 2.06257 -3.35934 0
M  V30 9079 H 802.698 3.04927 -4.07304 0
M  V30 9080 H 802.096 5.34037 -1.86605 0
M  V30 9081 H 800.653 6.01569 -2.50915 0
M  V30 9082 N 804.086 1.46499 0.581025 0
M  V30 9083 C 804.996 1.59778 1.71779 0
M  V30 9084 C 806.012 0.481223 1.67213 0
M  V30 9085 O 807.188 0.74557 1.87091 0
M  V30 9086 C 804.253 1.58626 3.08283 0
M  V30 9087 C 803.314 2.81527 3.241 0
M  V30 9088 C 802.547 2.80421 4.54092 0
M  V30 9089 O 802.77 1.89262 5.38085 0
M  V30 9090 O 801.704 3.71984 4.73193 0
M  V30 9091 H 805.53 2.55918 1.63523 0
M  V30 9092 H 803.115 1.29311 0.748267 0
M  V30 9093 H 804.997 1.60686 3.89561 0
M  V30 9094 H 803.672 0.656467 3.16973 0
M  V30 9095 H 802.579 2.85021 2.42309 0
M  V30 9096 H 803.912 3.73721 3.20302 0
M  V30 9097 N 805.565 -0.825799 1.34232 0
M  V30 9098 C 806.981 -1.11848 1.13851 0
M  V30 9099 C 807.181 -2.01405 -0.0619031 0
M  V30 9100 O 806.237 -2.41465 -0.738287 0
M  V30 9101 C 807.55 -1.76797 2.43235 0
M  V30 9102 C 809.098 -1.89304 2.49265 0
M  V30 9103 C 809.573 -2.57669 3.78643 0
M  V30 9104 N 811.064 -2.65171 3.79788 0
M  V30 9105 C 811.799 -3.1879 4.76614 0
M  V30 9106 N 811.295 -3.72995 5.83821 0
M  V30 9107 N 813.088 -3.17164 4.64073 0
M  V30 9108 H 805.239 -0.230049 2.11151 0
M  V30 9109 H 807.502 -0.164609 0.9336 0
M  V30 9110 H 807.208 -1.18455 3.31152 0
M  V30 9111 H 807.082 -2.76693 2.56361 0
M  V30 9112 H 809.469 -2.46796 1.6179 0
M  V30 9113 H 809.55 -0.883191 2.4007 0
M  V30 9114 H 809.194 -2.00833 4.66507 0
M  V30 9115 H 809.124 -3.59152 3.8512 0
M  V30 9116 H 811.615 -2.26746 3.02315 0
M  V30 9117 H 811.928 -4.12151 6.53721 0
M  V30 9118 H 810.273 -3.71246 5.87538 0
M  V30 9119 H 813.464 -2.74082 3.79469 0
M  V30 9120 H 813.637 -3.58647 5.397 0
M  V30 9121 N 807.043 -1.17915 -1.04565 0
M  V30 9122 C 808.268 -0.996749 -1.81878 0
M  V30 9123 C 808.693 0.450169 -1.82634 0
M  V30 9124 O 808.051 1.32268 -1.23995 0
M  V30 9125 C 808.099 -1.55005 -3.25585 0
M  V30 9126 O 807.203 -0.76804 -4.05185 0
M  V30 9127 H 806.544 -0.353456 -0.562108 0
M  V30 9128 H 809.074 -1.56557 -1.31723 0
M  V30 9129 H 809.084 -1.57503 -3.76373 0
M  V30 9130 H 807.759 -2.60327 -3.2435 0
M  V30 9131 H 806.336 -0.81498 -3.63885 0
M  V30 9132 N 808.521 1.23394 -0.980386 0
M  V30 9133 C 809.468 2.24859 -0.520298 0
M  V30 9134 C 810.438 1.60144 0.440821 0
M  V30 9135 O 811.623 1.87593 0.348369 0
M  V30 9136 C 808.763 3.44675 0.171145 0
M  V30 9137 C 807.876 4.23947 -0.830233 0
M  V30 9138 C 807.011 5.31079 -0.113597 0
M  V30 9139 C 806.05 6.02058 -1.10419 0
M  V30 9140 N 805.187 7.00862 -0.416709 0
M  V30 9141 H 810.027 2.63579 -1.39032 0
M  V30 9142 H 807.564 1.29556 -0.696682 0
M  V30 9143 H 809.522 4.13024 0.588838 0
M  V30 9144 H 808.152 3.06755 1.00504 0
M  V30 9145 H 807.204 3.55016 -1.36631 0
M  V30 9146 H 808.516 4.72945 -1.58508 0
M  V30 9147 H 807.67 6.05622 0.36146 0
M  V30 9148 H 806.409 4.83022 0.673854 0
M  V30 9149 H 805.414 5.26307 -1.59 0
M  V30 9150 H 806.639 6.52203 -1.8923 0
M  V30 9151 H 804.585 6.55057 0.351535 0
M  V30 9152 H 804.502 7.47804 -1.11021 0
M  V30 9153 H 805.77 7.79492 0.0359606 0
M  V30 9154 N 809.999 0.752036 1.385 0
M  V30 9155 C 811.41 0.375385 1.82887 0
M  V30 9156 C 811.761 -1.09575 1.62751 0
M  V30 9157 O 810.886 -1.84685 1.12785 0
M  V30 9158 C 811.481 0.674563 3.32017 0
M  V30 9159 C 810.04 0.351208 3.74758 0
M  V30 9160 C 809.187 0.928531 2.61292 0
M  V30 9161 H 812.138 0.948313 1.27251 0
M  V30 9162 H 812.159 -0.0477781 3.8047 0
M  V30 9163 H 811.671 1.74533 3.46641 0
M  V30 9164 H 809.772 -0.713042 3.65714 0
M  V30 9165 H 809.885 0.845675 4.71577 0
M  V30 9166 H 808.249 0.354012 2.52228 0
M  V30 9167 H 809.032 2.0043 2.78716 0
M  V30 9168 N 811.477 -1.49425 0.500989 0
M  V30 9169 C 812.702 -2.07356 -0.0425154 0
M  V30 9170 C 813.127 -1.35887 -1.30063 0
M  V30 9171 O 812.485 -0.41561 -1.76472 0
M  V30 9172 C 812.533 -3.59518 -0.279188 0
M  V30 9173 O 811.637 -3.89542 -1.3539 0
M  V30 9174 H 810.978 -0.663482 0.0262207 0
M  V30 9175 H 813.508 -1.92231 0.700607 0
M  V30 9176 H 813.518 -4.04791 -0.5107 0
M  V30 9177 H 812.193 -4.10946 0.640009 0
M  V30 9178 H 810.77 -3.56079 -1.10734 0
M  V30 9179 N 812.955 -0.234822 -1.55841 0
M  V30 9180 C 814.202 0.39326 -1.98645 0
M  V30 9181 C 814.53 1.58823 -1.12274 0
M  V30 9182 O 813.785 1.94954 -0.170731 0
M  V30 9183 C 814.084 0.858032 -3.46947 0
M  V30 9184 C 813.75 -0.227858 -4.50324 0
M  V30 9185 C 812.412 -0.526128 -4.78315 0
M  V30 9186 C 814.764 -0.961576 -5.12253 0
M  V30 9187 C 812.092 -1.5624 -5.65514 0
M  V30 9188 C 814.444 -1.98728 -6.00575 0
M  V30 9189 C 813.108 -2.29233 -6.26904 0
M  V30 9190 H 812.378 0.143904 -0.726892 0
M  V30 9191 H 815.025 -0.34012 -1.88455 0
M  V30 9192 H 813.33 1.67041 -3.54408 0
M  V30 9193 H 815.027 1.35407 -3.77447 0
M  V30 9194 H 811.617 0.0147624 -4.28597 0
M  V30 9195 H 815.801 -0.744388 -4.90686 0
M  V30 9196 H 811.057 -1.80422 -5.84173 0
M  V30 9197 H 815.231 -2.5608 -6.47608 0
M  V30 9198 H 812.858 -3.09671 -6.94268 0
M  V30 9199 N 814.433 1.57553 0.0384317 0
M  V30 9200 C 815.383 2.02404 1.0496 0
M  V30 9201 C 816.367 0.911705 1.32577 0
M  V30 9202 O 817.559 1.17561 1.32319 0
M  V30 9203 C 814.688 2.49924 2.35357 0
M  V30 9204 C 813.774 3.6796 2.1087 0
M  V30 9205 N 814.165 4.81009 1.56411 0
M  V30 9206 C 812.463 3.75153 2.41197 0
M  V30 9207 C 813.164 5.62686 1.47512 0
M  V30 9208 N 812.14 5.0752 1.94742 0
M  V30 9209 H 815.942 2.87234 0.622399 0
M  V30 9210 H 813.456 1.60543 0.244916 0
M  V30 9211 H 815.453 2.80312 3.08595 0
M  V30 9212 H 814.113 1.66496 2.78763 0
M  V30 9213 H 815.124 5.02636 1.2481 0
M  V30 9214 H 811.801 3.02507 2.87742 0
M  V30 9215 H 813.191 6.6349 1.05976 0
M  V30 9216 N 815.911 -0.310526 1.54511 0
M  V30 9217 C 816.874 -1.3657 1.84068 0
M  V30 9218 C 817.874 -1.44123 0.713097 0
M  V30 9219 O 819.064 -1.43924 0.981399 0
M  V30 9220 C 816.196 -2.75162 2.01243 0
M  V30 9221 H 817.389 -1.1161 2.78358 0
M  V30 9222 H 814.942 -0.546699 1.46427 0
M  V30 9223 H 815.677 -3.05359 1.09208 0
M  V30 9224 H 815.462 -2.71071 2.83307 0
M  V30 9225 H 816.952 -3.51473 2.25514 0
M  V30 9226 N 817.389 -1.46805 -0.573248 0
M  V30 9227 C 818.8 -1.46655 -1.15539 0
M  V30 9228 C 819.151 -0.2125 -1.95046 0
M  V30 9229 O 818.276 0.683759 -2.05314 0
M  V30 9230 C 818.871 -2.65711 -2.10198 0
M  V30 9231 C 817.43 -2.68572 -2.63716 0
M  V30 9232 C 816.577 -2.39498 -1.39772 0
M  V30 9233 H 819.528 -1.54547 -0.36068 0
M  V30 9234 H 819.549 -2.41768 -2.93817 0
M  V30 9235 H 819.061 -3.56967 -1.52303 0
M  V30 9236 H 817.162 -1.81414 -3.25453 0
M  V30 9237 H 817.275 -3.68809 -3.05805 0
M  V30 9238 H 815.639 -1.89749 -1.69904 0
M  V30 9239 H 816.422 -3.32942 -0.836943 0
M  V30 9240 N 818.867 0.818669 -1.34668 0
M  V30 9241 C 819.777 1.9616 -1.2868 0
M  V30 9242 C 820.793 1.72918 -0.193742 0
M  V30 9243 O 821.969 1.96951 -0.420975 0
M  V30 9244 C 819.034 3.30534 -1.04633 0
M  V30 9245 C 818.095 3.66755 -2.23136 0
M  V30 9246 C 817.328 4.94717 -2.00227 0
M  V30 9247 O 817.551 5.62218 -0.96264 0
M  V30 9248 O 816.485 5.28915 -2.87286 0
M  V30 9249 H 820.311 2.04157 -2.24842 0
M  V30 9250 H 817.896 0.954691 -1.14917 0
M  V30 9251 H 819.778 4.11005 -0.930216 0
M  V30 9252 H 818.453 3.23495 -0.115139 0
M  V30 9253 H 817.36 2.8671 -2.40308 0
M  V30 9254 H 818.693 3.78484 -3.1466 0
M  V30 9255 N 820.346 1.18468 1.03938 0
M  V30 9256 C 821.757 0.984808 1.58614 0
M  V30 9257 C 822.108 -0.465165 1.90606 0
M  V30 9258 O 821.233 -1.34274 1.69704 0
M  V30 9259 C 821.828 1.78135 2.8819 0
M  V30 9260 C 820.387 1.62579 3.39478 0
M  V30 9261 C 819.534 1.77501 2.13046 0
M  V30 9262 H 822.485 1.32993 0.865944 0
M  V30 9263 H 822.506 1.27119 3.58638 0
M  V30 9264 H 822.018 2.83661 2.64874 0
M  V30 9265 H 820.119 0.59595 3.67803 0
M  V30 9266 H 820.232 2.42463 4.13217 0
M  V30 9267 H 818.596 1.2046 2.24414 0
M  V30 9268 H 819.379 2.84464 1.92185 0
M  V30 9269 N 821.824 -1.22873 0.986916 0
M  V30 9270 C 822.771 -2.2458 0.532215 0
M  V30 9271 C 823.741 -1.60375 -0.432322 0
M  V30 9272 O 824.926 -1.87775 -0.338416 0
M  V30 9273 C 822.066 -3.44761 -0.152864 0
M  V30 9274 C 821.179 -4.23501 0.852704 0
M  V30 9275 C 820.314 -5.31011 0.14176 0
M  V30 9276 C 819.353 -6.01464 1.1361 0
M  V30 9277 N 818.49 -7.00631 0.453871 0
M  V30 9278 H 823.33 -2.62838 1.40428 0
M  V30 9279 H 820.867 -1.29185 0.703543 0
M  V30 9280 H 822.825 -4.1333 -0.566926 0
M  V30 9281 H 821.455 -3.07284 -0.988756 0
M  V30 9282 H 820.507 -3.54286 1.38512 0
M  V30 9283 H 821.819 -4.72097 1.61014 0
M  V30 9284 H 820.973 -6.05805 -0.329337 0
M  V30 9285 H 819.712 -4.83373 -0.648229 0
M  V30 9286 H 818.717 -5.25456 1.61789 0
M  V30 9287 H 819.942 -6.5119 1.92686 0
M  V30 9288 H 817.888 -6.55235 -0.316791 0
M  V30 9289 H 817.805 -7.47204 1.14986 0
M  V30 9290 H 819.073 -7.795 0.00537823 0
M  V30 9291 N 823.302 -0.75937 -1.38099 0
M  V30 9292 C 824.265 -0.14372 -2.28749 0
M  V30 9293 C 825.265 0.641338 -1.47457 0
M  V30 9294 O 826.455 0.466751 -1.67831 0
M  V30 9295 C 823.587 0.804545 -3.3127 0
M  V30 9296 H 824.78 -0.942663 -2.847 0
M  V30 9297 H 822.333 -0.526757 -1.47156 0
M  V30 9298 H 823.068 1.62895 -2.80421 0
M  V30 9299 H 822.853 0.243939 -3.9134 0
M  V30 9300 H 824.343 1.23111 -3.99041 0
M  V30 9301 N 824.78 1.49157 -0.508906 0
M  V30 9302 C 825.73 2.26215 0.284705 0
M  V30 9303 C 826.714 1.31401 0.928586 0
M  V30 9304 O 827.906 1.56073 0.834877 0
M  V30 9305 C 825.035 3.15906 1.34382 0
M  V30 9306 C 824.121 4.18186 0.705785 0
M  V30 9307 N 824.512 5.05419 -0.196214 0
M  V30 9308 C 822.81 4.35425 0.965457 0
M  V30 9309 C 823.511 5.78977 -0.562222 0
M  V30 9310 N 822.487 5.43553 0.0717389 0
M  V30 9311 H 826.289 2.91033 -0.409543 0
M  V30 9312 H 823.803 1.59104 -0.325508 0
M  V30 9313 H 825.8 3.6975 1.92589 0
M  V30 9314 H 824.46 2.52642 2.03966 0
M  V30 9315 H 825.471 5.14781 -0.567526 0
M  V30 9316 H 822.148 3.83363 1.65346 0
M  V30 9317 H 823.538 6.59192 -1.30062 0
M  V30 9318 N 826.258 0.243083 1.55714 0
M  V30 9319 C 827.488 -0.38641 2.02954 0
M  V30 9320 C 827.896 -1.52358 1.12177 0
M  V30 9321 O 827.239 -1.83255 0.127853 0
M  V30 9322 C 827.301 -0.959388 3.46462 0
M  V30 9323 C 826.965 0.0450546 4.56978 0
M  V30 9324 C 827.962 0.853224 5.12851 0
M  V30 9325 C 825.647 0.170041 5.02012 0
M  V30 9326 C 827.641 1.77288 6.12248 0
M  V30 9327 C 825.328 1.0932 6.01242 0
M  V30 9328 C 826.326 1.89315 6.56238 0
M  V30 9329 O 826.014 2.80075 7.53534 0
M  V30 9330 H 825.746 -0.0964333 0.669086 0
M  V30 9331 H 828.3 0.363399 2.0216 0
M  V30 9332 H 826.53 -1.75869 3.44394 0
M  V30 9333 H 828.219 -1.49856 3.77224 0
M  V30 9334 H 828.985 0.767229 4.78893 0
M  V30 9335 H 824.864 -0.442528 4.58871 0
M  V30 9336 H 828.408 2.39768 6.55101 0
M  V30 9337 H 824.305 1.18013 6.3462 0
M  V30 9338 H 825.073 2.74393 7.71136 0
M  V30 9339 N 827.736 -1.57571 -0.0300757 0
M  V30 9340 C 828.646 -2.09892 -1.04798 0
M  V30 9341 C 829.662 -1.03732 -1.39698 0
M  V30 9342 O 830.838 -1.35461 -1.49038 0
M  V30 9343 C 827.903 -2.56707 -2.33028 0
M  V30 9344 C 826.964 -3.77345 -2.04718 0
M  V30 9345 C 826.197 -4.21918 -3.26834 0
M  V30 9346 O 826.42 -3.66025 -4.37472 0
M  V30 9347 O 825.354 -5.14362 -3.12594 0
M  V30 9348 H 829.18 -2.97023 -0.633344 0
M  V30 9349 H 826.765 -1.47344 -0.246991 0
M  V30 9350 H 828.647 -2.87154 -3.08417 0
M  V30 9351 H 827.322 -1.72688 -2.73789 0
M  V30 9352 H 826.229 -3.51919 -1.26901 0
M  V30 9353 H 827.562 -4.62345 -1.68813 0
M  V30 9354 N 829.214 0.302327 -1.54673 0
M  V30 9355 C 830.625 0.875409 -1.64904 0
M  V30 9356 C 830.976 1.88132 -0.55684 0
M  V30 9357 O 830.101 2.14215 0.306754 0
M  V30 9358 C 830.696 1.59457 -2.9893 0
M  V30 9359 C 829.255 2.11607 -3.11287 0
M  V30 9360 C 828.402 0.948324 -2.6058 0
M  V30 9361 H 831.353 0.079362 -1.58501 0
M  V30 9362 H 831.374 2.46005 -2.90279 0
M  V30 9363 H 830.886 0.8622 -3.78402 0
M  V30 9364 H 828.987 2.87895 -2.36532 0
M  V30 9365 H 829.1 2.35151 -4.17422 0
M  V30 9366 H 827.464 1.33352 -2.17001 0
M  V30 9367 H 828.247 0.229936 -3.42529 0
M  V30 9368 N 830.692 1.47107 0.565454 0
M  V30 9369 C 831.655 1.58535 1.65527 0
M  V30 9370 C 832.655 0.461081 1.54048 0
M  V30 9371 O 833.845 0.725911 1.58355 0
M  V30 9372 C 830.977 1.52204 3.05036 0
M  V30 9373 H 832.17 2.55676 1.56747 0
M  V30 9374 H 829.723 1.35174 0.78471 0
M  V30 9375 H 830.458 0.564071 3.19357 0
M  V30 9376 H 830.243 2.3379 3.14777 0
M  V30 9377 H 831.733 1.63322 3.84338 0
M  V30 9378 N 832.17 -0.811516 1.35101 0
M  V30 9379 C 833.447 -1.55491 1.18667 0
M  V30 9380 C 833.827 -2.09775 -0.236189 0
M  V30 9381 O 833.175 -1.91989 -1.23905 0
M  V30 9382 C 833.385 -2.66732 2.25067 0
M  V30 9383 C 834.733 -3.35201 2.60625 0
M  V30 9384 O 835.757 -2.76998 2.23943 0
M  V30 9385 O 834.616 -4.40334 3.23679 0
M  V30 9386 H 831.71 -0.686783 0.460716 0
M  V30 9387 H 834.256 -0.851903 1.46768 0
M  V30 9388 H 833.028 -2.24457 3.20523 0
M  V30 9389 H 832.651 -3.44673 1.98208 0
M  V30 9390 N 833.648 -1.19017 -1.03309 0
M  V30 9391 C 835.064 -0.941483 -1.28873 0
M  V30 9392 C 835.264 0.388587 -1.97718 0
M  V30 9393 O 834.32 1.12111 -2.26246 0
M  V30 9394 C 835.633 -2.11249 -2.13996 0
M  V30 9395 C 837.181 -2.15164 -2.27318 0
M  V30 9396 C 837.656 -3.31704 -3.15811 0
M  V30 9397 N 839.147 -3.31613 -3.23399 0
M  V30 9398 C 839.882 -4.18431 -3.9205 0
M  V30 9399 N 839.378 -5.15397 -4.62966 0
M  V30 9400 N 841.171 -4.06321 -3.88406 0
M  V30 9401 H 833.322 -2.04599 -0.570343 0
M  V30 9402 H 835.585 -0.894406 -0.314232 0
M  V30 9403 H 835.291 -3.07482 -1.70727 0
M  V30 9404 H 835.165 -2.07955 -3.14697 0
M  V30 9405 H 837.552 -1.19504 -2.6982 0
M  V30 9406 H 837.633 -2.22513 -1.26182 0
M  V30 9407 H 837.277 -4.2764 -2.74019 0
M  V30 9408 H 837.207 -3.21592 -4.16997 0
M  V30 9409 H 839.698 -2.6142 -2.72888 0
M  V30 9410 H 840.011 -5.78 -5.12968 0
M  V30 9411 H 838.356 -5.19349 -4.61846 0
M  V30 9412 H 841.547 -3.29849 -3.3214 0
M  V30 9413 H 841.72 -4.74196 -4.41635 0
M  V30 9414 N 835.127 1.22348 -0.993418 0
M  V30 9415 C 836.09 2.22522 -0.549251 0
M  V30 9416 C 837.09 1.56529 0.368164 0
M  V30 9417 O 838.28 1.73463 0.16005 0
M  V30 9418 C 835.412 3.40307 0.201037 0
M  V30 9419 H 836.605 2.63332 -1.43515 0
M  V30 9420 H 834.158 1.35407 -0.78068 0
M  V30 9421 H 834.893 3.0497 1.10289 0
M  V30 9422 H 834.678 3.8942 -0.457685 0
M  V30 9423 H 836.168 4.14597 0.499946 0
M  V30 9424 N 836.605 0.766683 1.37694 0
M  V30 9425 C 838.021 0.445739 1.53249 0
M  V30 9426 C 838.221 -1.03935 1.72626 0
M  V30 9427 O 837.277 -1.82525 1.74473 0
M  V30 9428 C 838.59 1.2564 2.73194 0
M  V30 9429 C 840.138 1.24779 2.87053 0
M  V30 9430 C 840.613 2.04169 4.09974 0
M  V30 9431 N 842.104 2.01497 4.17077 0
M  V30 9432 C 842.839 2.5971 5.11212 0
M  V30 9433 N 842.335 3.26691 6.10938 0
M  V30 9434 N 844.128 2.49568 5.03659 0
M  V30 9435 H 836.279 1.72899 1.23368 0
M  V30 9436 H 838.542 0.733701 0.600322 0
M  V30 9437 H 838.248 2.30859 2.65324 0
M  V30 9438 H 838.122 0.882133 3.6674 0
M  V30 9439 H 840.509 0.203603 2.94397 0
M  V30 9440 H 840.59 1.66166 1.9448 0
M  V30 9441 H 840.234 3.08606 4.03392 0
M  V30 9442 H 840.164 1.60167 5.01651 0
M  V30 9443 H 842.655 1.52728 3.45662 0
M  V30 9444 H 842.968 3.68497 6.79286 0
M  V30 9445 H 841.313 3.30789 6.11231 0
M  V30 9446 H 844.504 1.96859 4.24693 0
M  V30 9447 H 844.677 2.95231 5.76839 0
M  V30 9448 N 838.083 -1.48885 0.516809 0
M  V30 9449 C 838.993 -2.33185 -0.257293 0
M  V30 9450 C 840.009 -1.4565 -0.951952 0
M  V30 9451 O 841.185 -1.78651 -0.929834 0
M  V30 9452 C 838.25 -3.21465 -1.29851 0
M  V30 9453 C 837.311 -4.24863 -0.615608 0
M  V30 9454 C 836.544 -5.08925 -1.60722 0
M  V30 9455 O 836.767 -4.9475 -2.83863 0
M  V30 9456 O 835.701 -5.90737 -1.15384 0
M  V30 9457 H 839.527 -3.00596 0.433131 0
M  V30 9458 H 837.112 -1.46792 0.277908 0
M  V30 9459 H 838.994 -3.76108 -1.90055 0
M  V30 9460 H 837.669 -2.5673 -1.97158 0
M  V30 9461 H 836.576 -3.74091 0.0265829 0
M  V30 9462 H 837.909 -4.92198 0.0152871 0
M  V30 9463 N 839.561 -0.251338 -1.55583 0
M  V30 9464 C 840.807 0.37272 -1.99346 0
M  V30 9465 C 841.14 1.57266 -1.13934 0
M  V30 9466 O 840.415 1.9343 -0.20377 0
M  V30 9467 C 840.698 0.778245 -3.5159 0
M  V30 9468 C 840.551 -0.427394 -4.47765 0
M  V30 9469 C 841.87 1.62358 -4.09057 0
M  V30 9470 H 838.989 0.134002 -0.724715 0
M  V30 9471 H 841.631 -0.353536 -1.86682 0
M  V30 9472 H 839.781 1.39704 -3.62512 0
M  V30 9473 H 841.453 -1.06586 -4.48818 0
M  V30 9474 H 839.696 -1.06972 -4.20404 0
M  V30 9475 H 840.367 -0.10025 -5.51909 0
M  V30 9476 H 842.843 1.1012 -4.01264 0
M  V30 9477 H 841.719 1.87617 -5.1584 0
M  V30 9478 H 841.98 2.59688 -3.57791 0
M  V30 9479 N 841.039 1.57585 0.0217189 0
M  V30 9480 C 841.949 2.10444 1.03684 0
M  V30 9481 C 842.965 1.04472 1.39146 0
M  V30 9482 O 844.141 1.36249 1.48317 0
M  V30 9483 C 841.206 2.5794 2.31664 0
M  V30 9484 C 840.267 3.78425 2.02714 0
M  V30 9485 C 839.5 4.23646 3.24592 0
M  V30 9486 O 839.723 3.6834 4.35525 0
M  V30 9487 O 838.657 5.16013 3.09862 0
M  V30 9488 H 842.483 2.97354 0.617584 0
M  V30 9489 H 840.068 1.47473 0.239174 0
M  V30 9490 H 841.95 2.88785 3.06889 0
M  V30 9491 H 840.625 1.74138 2.7287 0
M  V30 9492 H 839.532 3.52587 1.25033 0
M  V30 9493 H 840.865 4.63234 1.66359 0
M  V30 9494 N 842.517 -0.29412 1.54831 0
M  V30 9495 C 843.794 -1.04847 1.65126 0
M  V30 9496 C 844.174 -2.04996 0.503986 0
M  V30 9497 O 843.522 -2.22996 -0.498496 0
M  V30 9498 C 843.732 -1.72418 3.03435 0
M  V30 9499 C 845.08 -2.24362 3.60481 0
M  V30 9500 O 846.104 -1.8244 3.05932 0
M  V30 9501 O 844.963 -3.01196 4.56008 0
M  V30 9502 H 842.057 -0.485032 0.669831 0
M  V30 9503 H 844.603 -0.291659 1.67175 0
M  V30 9504 H 843.375 -0.997351 3.78376 0
M  V30 9505 H 842.998 -2.54839 3.05193 0
M  V30 9506 N 843.995 -1.47404 -0.557645 0
M  V30 9507 C 845.411 -1.32913 -0.88353 0
M  V30 9508 C 845.611 -0.31929 -1.98954 0
M  V30 9509 O 844.667 0.26934 -2.51059 0
M  V30 9510 C 845.98 -2.72229 -1.27718 0
M  V30 9511 C 847.528 -2.8051 -1.38863 0
M  V30 9512 C 848.003 -4.20466 -1.81583 0
M  V30 9513 N 849.494 -4.23005 -1.88735 0
M  V30 9514 C 850.229 -5.2821 -2.23118 0
M  V30 9515 N 849.725 -6.4372 -2.56117 0
M  V30 9516 N 851.518 -5.15588 -2.23888 0
M  V30 9517 H 843.669 -2.11698 0.172557 0
M  V30 9518 H 845.932 -0.947889 0.0145334 0
M  V30 9519 H 845.638 -3.47556 -0.538329 0
M  V30 9520 H 845.512 -3.03971 -2.23342 0
M  V30 9521 H 847.899 -2.05457 -2.11829 0
M  V30 9522 H 847.98 -2.52423 -0.414274 0
M  V30 9523 H 847.624 -4.96025 -1.09187 0
M  V30 9524 H 847.554 -4.45977 -2.80021 0
M  V30 9525 H 850.045 -3.39674 -1.65621 0
M  V30 9526 H 850.358 -7.19754 -2.81378 0
M  V30 9527 H 848.703 -6.47041 -2.53698 0
M  V30 9528 H 851.894 -4.24374 -1.97546 0
M  V30 9529 H 852.067 -5.97685 -2.50353 0
M  V30 9530 N 845.473 0.80434 -1.35529 0
M  V30 9531 C 846.72 1.56154 -1.28927 0
M  V30 9532 C 847.048 1.94026 0.135682 0
M  V30 9533 O 846.303 1.61759 1.10148 0
M  V30 9534 C 846.602 2.85988 -2.14349 0
M  V30 9535 C 846.268 2.67323 -3.6311 0
M  V30 9536 C 844.93 2.61941 -4.03659 0
M  V30 9537 C 847.282 2.49699 -4.57493 0
M  V30 9538 C 844.61 2.3688 -5.36754 0
M  V30 9539 C 846.962 2.26168 -5.90788 0
M  V30 9540 C 845.626 2.19209 -6.30479 0
M  V30 9541 H 844.896 0.571407 -0.471779 0
M  V30 9542 H 847.543 0.929193 -1.67446 0
M  V30 9543 H 845.848 3.53612 -1.68718 0
M  V30 9544 H 847.545 3.43697 -2.06576 0
M  V30 9545 H 844.135 2.72361 -3.30934 0
M  V30 9546 H 848.319 2.52869 -4.27049 0
M  V30 9547 H 843.575 2.29964 -5.66504 0
M  V30 9548 H 847.749 2.11522 -6.63499 0
M  V30 9549 H 845.376 1.99553 -7.33541 0
M  V30 9550 N 846.951 1.19563 1.02676 0
M  V30 9551 C 848.367 0.948304 1.28372 0
M  V30 9552 C 848.567 -0.378096 1.97921 0
M  V30 9553 O 847.623 -1.1091 2.26838 0
M  V30 9554 C 848.936 2.12381 2.12873 0
M  V30 9555 C 850.484 2.16366 2.26174 0
M  V30 9556 C 850.959 3.33374 3.14048 0
M  V30 9557 N 852.45 3.33323 3.21636 0
M  V30 9558 C 853.185 4.20504 3.89825 0
M  V30 9559 N 852.681 5.17845 4.60227 0
M  V30 9560 N 854.474 4.08375 3.86246 0
M  V30 9561 H 846.625 2.04899 0.559485 0
M  V30 9562 H 848.888 0.89606 0.309484 0
M  V30 9563 H 848.594 3.08383 1.69094 0
M  V30 9564 H 848.468 2.09621 3.1359 0
M  V30 9565 H 850.855 1.20933 2.69182 0
M  V30 9566 H 850.936 2.23179 1.25 0
M  V30 9567 H 850.58 4.29087 2.71747 0
M  V30 9568 H 850.51 3.23798 4.15286 0
M  V30 9569 H 853.001 2.62863 2.71498 0
M  V30 9570 H 853.314 5.80712 5.09896 0
M  V30 9571 H 851.659 5.21791 4.59085 0
M  V30 9572 H 854.85 3.31606 3.30386 0
M  V30 9573 H 855.023 4.76532 4.39114 0
M  V30 9574 N 848.429 -1.21819 0.999893 0
M  V30 9575 C 849.376 -2.24003 0.556005 0
M  V30 9576 C 850.346 -1.60825 -0.415287 0
M  V30 9577 O 851.531 -1.88123 -0.318481 0
M  V30 9578 C 848.671 -3.44904 -0.116289 0
M  V30 9579 C 847.784 -4.22573 0.897574 0
M  V30 9580 C 846.919 -5.30831 0.198073 0
M  V30 9581 C 845.958 -6.00225 1.19983 0
M  V30 9582 N 845.095 -7.00111 0.528157 0
M  V30 9583 H 849.935 -2.61334 1.43208 0
M  V30 9584 H 847.472 -1.28431 0.717205 0
M  V30 9585 H 849.43 -4.13908 -0.523055 0
M  V30 9586 H 848.06 -3.08315 -0.956108 0
M  V30 9587 H 847.112 -3.52797 1.42262 0
M  V30 9588 H 848.424 -4.70363 1.66013 0
M  V30 9589 H 847.578 -6.06121 -0.265065 0
M  V30 9590 H 846.317 -4.84033 -0.596924 0
M  V30 9591 H 845.322 -5.23711 1.67353 0
M  V30 9592 H 846.547 -6.4911 1.99582 0
M  V30 9593 H 844.493 -6.55534 -0.247276 0
M  V30 9594 H 844.41 -7.45943 1.22904 0
M  V30 9595 H 845.678 -7.7945 0.0880543 0
M  V30 9596 N 849.908 -0.773975 -1.37286 0
M  V30 9597 C 851.136 -0.350758 -2.03905 0
M  V30 9598 C 851.551 1.02779 -1.58373 0
M  V30 9599 O 850.908 1.65646 -0.766009 0
M  V30 9600 C 850.959 -0.387335 -3.59419 0
M  V30 9601 O 850.68 -1.7115 -4.03286 0
M  V30 9602 C 852.181 0.047198 -4.43275 0
M  V30 9603 H 849.401 -0.146663 -0.654775 0
M  V30 9604 H 851.945 -1.04852 -1.75574 0
M  V30 9605 H 850.1 0.261865 -3.86514 0
M  V30 9606 H 850.514 -1.65166 -4.97816 0
M  V30 9607 H 851.988 -0.0295474 -5.51992 0
M  V30 9608 H 852.465 1.09786 -4.25257 0
M  V30 9609 H 853.071 -0.573899 -4.2141 0
M  V30 9610 N 851.386 1.48609 -0.524698 0
M  V30 9611 C 852.334 2.31205 0.254398 0
M  V30 9612 C 853.328 1.40894 0.940491 0
M  V30 9613 O 854.534 1.57827 0.865478 0
M  V30 9614 H 850.909 0.745199 0.100907 0
M  V30 9615 H 852.88 2.94804 -0.461876 0
M  V30 9616 C 851.629 3.2282 1.2916 0
M  V30 9617 H 850.952 3.92255 0.773074 0
M  V30 9618 H 852.392 3.83508 1.80825 0
M  V30 9619 C 850.851 2.4406 2.32242 0
M  V30 9620 O 851.381 2.16163 3.3858 0
M  V30 9621 N 849.587 2.05651 2.05319 0
M  V30 9622 H 849.134 2.28539 1.18861 0
M  V30 9623 H 849.092 1.53265 2.74513 0
M  V30 9624 N 852.864 0.259585 1.55447 0
M  V30 9625 C 853.814 -0.648769 2.18575 0
M  V30 9626 C 854.798 -1.1299 1.14552 0
M  V30 9627 O 855.99 -1.07756 1.4042 0
M  V30 9628 C 853.119 -1.83963 2.89849 0
M  V30 9629 C 852.205 -1.37641 4.01143 0
M  V30 9630 N 852.596 -0.628269 5.01883 0
M  V30 9631 C 850.894 -1.66066 4.1393 0
M  V30 9632 C 851.595 -0.386746 5.80413 0
M  V30 9633 N 850.571 -0.954665 5.35151 0
M  V30 9634 H 854.373 -0.0691616 2.93819 0
M  V30 9635 H 851.887 0.0624525 1.6228 0
M  V30 9636 H 853.884 -2.50151 3.33512 0
M  V30 9637 H 852.544 -2.42334 2.16112 0
M  V30 9638 H 853.555 -0.277123 5.17158 0
M  V30 9639 H 850.232 -2.25484 3.51373 0
M  V30 9640 H 851.622 0.211382 6.71567 0
M  V30 9641 N 854.342 -1.57594 -0.0133615 0
M  V30 9642 C 855.567 -1.94649 -0.715996 0
M  V30 9643 C 855.992 -0.860786 -1.67249 0
M  V30 9644 O 855.35 0.182228 -1.80382 0
M  V30 9645 C 855.398 -3.30789 -1.43566 0
M  V30 9646 O 854.502 -3.24148 -2.54955 0
M  V30 9647 H 853.843 -0.635801 -0.191449 0
M  V30 9648 H 856.373 -2.04569 0.0358478 0
M  V30 9649 H 856.383 -3.66045 -1.80208 0
M  V30 9650 H 855.058 -4.09367 -0.734263 0
M  V30 9651 H 853.635 -3.00548 -2.20739 0
M  V30 9652 N 855.82 0.285905 -1.54985 0
M  V30 9653 C 857.045 1.04207 -1.7932 0
M  V30 9654 C 857.47 1.79622 -0.558343 0
M  V30 9655 O 856.828 1.74506 0.491661 0
M  V30 9656 C 856.876 1.98648 -3.0095 0
M  V30 9657 O 855.98 3.07207 -2.75132 0
M  V30 9658 H 855.321 0.298596 -0.593074 0
M  V30 9659 H 857.851 0.318736 -2.02102 0
M  V30 9660 H 857.861 2.4084 -3.29333 0
M  V30 9661 H 856.536 1.43167 -3.90482 0
M  V30 9662 H 855.113 2.69423 -2.57809 0
M  V30 9663 N 857.298 1.47698 0.54982 0
M  V30 9664 C 858.709 1.48474 1.13191 0
M  V30 9665 C 859.06 0.243504 1.94683 0
M  V30 9666 O 858.185 -0.651009 2.06375 0
M  V30 9667 C 858.78 2.69022 2.05944 0
M  V30 9668 C 857.339 2.72733 2.5941 0
M  V30 9669 C 856.486 2.41691 1.35944 0
M  V30 9670 H 859.437 1.55101 0.336048 0
M  V30 9671 H 859.458 2.46412 2.89934 0
M  V30 9672 H 858.97 3.59345 1.46605 0
M  V30 9673 H 857.071 1.86568 3.22526 0
M  V30 9674 H 857.184 3.73628 2.99899 0
M  V30 9675 H 855.548 1.92428 1.66864 0
M  V30 9676 H 856.331 3.34231 0.783869 0
M  V30 9677 N 858.776 -0.797141 1.35954 0
M  V30 9678 C 859.686 -1.94088 1.31784 0
M  V30 9679 C 860.702 -1.72588 0.221227 0
M  V30 9680 O 861.878 -1.96256 0.452255 0
M  V30 9681 C 858.943 -3.28828 1.09878 0
M  V30 9682 C 858.004 -3.63158 2.28942 0
M  V30 9683 C 857.237 -4.91469 2.08072 0
M  V30 9684 O 857.46 -5.60616 1.05196 0
M  V30 9685 O 856.394 -5.24277 2.95664 0
M  V30 9686 H 860.22 -2.00554 2.28061 0
M  V30 9687 H 857.805 -0.936288 1.16422 0
M  V30 9688 H 859.687 -4.09473 0.995485 0
M  V30 9689 H 858.362 -3.23271 0.16659 0
M  V30 9690 H 857.269 -2.82851 2.44839 0
M  V30 9691 H 858.602 -3.7343 3.20641 0
M  V30 9692 N 860.254 -1.20106 -1.0204 0
M  V30 9693 C 861.217 -0.948261 -2.08664 0
M  V30 9694 C 862.217 0.0746753 -1.60627 0
M  V30 9695 O 863.407 -0.160981 -1.73455 0
M  V30 9696 C 860.539 -0.426854 -3.38217 0
M  V30 9697 H 861.732 -1.894 -2.32524 0
M  V30 9698 H 859.285 -1.0159 -1.18782 0
M  V30 9699 H 860.02 0.524532 -3.2003 0
M  V30 9700 H 859.805 -1.16451 -3.74408 0
M  V30 9701 H 861.295 -0.269346 -4.1673 0
M  V30 9702 N 861.732 1.21287 -1.00634 0
M  V30 9703 C 862.664 2.2308 -0.526094 0
M  V30 9704 C 863.677 1.58157 0.386031 0
M  V30 9705 O 864.866 1.77528 0.186016 0
M  V30 9706 C 861.966 3.37937 0.255289 0
M  V30 9707 C 861.139 4.32449 -0.656236 0
M  V30 9708 C 860.198 5.26145 0.0757714 0
M  V30 9709 O 859.224 5.66601 -0.543325 0
M  V30 9710 N 860.426 5.6449 1.35391 0
M  V30 9711 H 863.191 2.64913 -1.40147 0
M  V30 9712 H 860.752 1.35724 -0.882641 0
M  V30 9713 H 862.744 3.97614 0.753977 0
M  V30 9714 H 861.314 2.95078 1.03187 0
M  V30 9715 H 860.534 3.70892 -1.3354 0
M  V30 9716 H 861.822 4.92526 -1.27653 0
M  V30 9717 H 861.22 5.33617 1.878 0
M  V30 9718 H 859.777 6.26524 1.79753 0
M  V30 9719 N 863.21 0.781244 1.36873 0
M  V30 9720 C 864.435 0.360398 2.04245 0
M  V30 9721 C 864.86 -1.01242 1.58529 0
M  V30 9722 O 864.218 -1.65063 0.749936 0
M  V30 9723 C 864.266 0.42329 3.58107 0
M  V30 9724 O 863.37 -0.572796 4.08403 0
M  V30 9725 H 862.711 0.154386 0.645803 0
M  V30 9726 H 865.241 1.06008 1.74996 0
M  V30 9727 H 865.251 0.283967 4.07011 0
M  V30 9728 H 863.926 1.42477 3.90734 0
M  V30 9729 H 862.503 -0.395809 3.70793 0
M  V30 9730 N 864.689 -1.48329 0.532571 0
M  V30 9731 C 865.636 -2.29663 -0.228779 0
M  V30 9732 C 866.606 -1.37529 -0.931401 0
M  V30 9733 O 867.791 -1.66493 -0.931921 0
M  V30 9734 C 864.931 -3.20955 -1.26814 0
M  V30 9735 C 864.044 -4.28168 -0.574099 0
M  V30 9736 C 863.179 -5.06638 -1.59661 0
M  V30 9737 C 862.218 -6.05651 -0.88618 0
M  V30 9738 N 861.355 -6.77169 -1.85436 0
M  V30 9739 H 866.195 -2.94255 0.47098 0
M  V30 9740 H 863.732 -1.45061 0.2441 0
M  V30 9741 H 865.69 -3.72285 -1.88307 0
M  V30 9742 H 864.32 -2.58281 -1.93625 0
M  V30 9743 H 863.372 -3.80085 0.154827 0
M  V30 9744 H 864.684 -4.98797 -0.0163984 0
M  V30 9745 H 863.838 -5.61995 -2.28576 0
M  V30 9746 H 862.577 -4.35854 -2.18821 0
M  V30 9747 H 861.582 -5.49495 -0.182981 0
M  V30 9748 H 862.807 -6.78434 -0.300659 0
M  V30 9749 H 860.753 -6.09134 -2.43499 0
M  V30 9750 H 860.67 -7.43882 -1.34816 0
M  V30 9751 H 861.938 -7.37114 -2.53541 0
M  V30 9752 N 866.167 -0.267825 -1.55308 0
M  V30 9753 C 867.099 0.65591 -2.19614 0
M  V30 9754 C 868.112 1.12302 -1.17865 0
M  V30 9755 O 869.301 1.04618 -1.44628 0
M  V30 9756 C 866.401 1.90582 -2.80235 0
M  V30 9757 C 865.574 1.58673 -4.07605 0
M  V30 9758 C 864.633 2.68836 -4.52343 0
M  V30 9759 O 863.659 2.35331 -5.18274 0
M  V30 9760 N 864.861 3.98752 -4.21873 0
M  V30 9761 H 867.626 0.105566 -2.99514 0
M  V30 9762 H 865.187 -0.0886263 -1.61657 0
M  V30 9763 H 867.179 2.63561 -3.07112 0
M  V30 9764 H 865.749 2.3654 -2.04371 0
M  V30 9765 H 864.969 0.691113 -3.88094 0
M  V30 9766 H 866.257 1.34845 -4.90606 0
M  V30 9767 H 865.655 4.28797 -3.68985 0
M  V30 9768 H 864.212 4.68131 -4.53537 0
M  V30 9769 N 867.645 1.57599 0.00500368 0
M  V30 9770 C 868.873 1.94626 0.702016 0
M  V30 9771 C 869.288 0.86953 1.67585 0
M  V30 9772 O 868.645 -0.15199 1.81866 0
M  V30 9773 C 868.696 3.31658 1.43824 0
M  V30 9774 O 868.417 4.35197 0.503467 0
M  V30 9775 C 869.918 3.83114 2.23021 0
M  V30 9776 H 867.138 0.641785 0.195841 0
M  V30 9777 H 869.682 2.04451 -0.0446287 0
M  V30 9778 H 867.837 3.23156 2.13655 0
M  V30 9779 H 868.251 5.1444 1.02235 0
M  V30 9780 H 869.725 4.81438 2.7004 0
M  V30 9781 H 870.202 3.15559 3.05482 0
M  V30 9782 H 870.808 3.94775 1.58216 0
M  V30 9783 N 869.123 -0.277682 1.55134 0
M  V30 9784 C 870.371 -1.00791 1.75173 0
M  V30 9785 C 870.692 -1.86987 0.553266 0
M  V30 9786 O 869.962 -1.91079 -0.43195 0
M  V30 9787 H 868.542 -0.375129 0.645978 0
M  V30 9788 H 871.204 -0.303041 1.9253 0
M  V30 9789 H 870.3 -1.64756 2.6507 0
M  V30 9790 N 870.601 -1.47988 -0.541979 0
M  V30 9791 C 872.017 -1.33843 -0.869383 0
M  V30 9792 C 872.217 -0.340374 -1.98604 0
M  V30 9793 O 871.273 0.242696 -2.51331 0
M  V30 9794 C 872.586 -2.73568 -1.24823 0
M  V30 9795 C 874.134 -2.81967 -1.3588 0
M  V30 9796 C 874.609 -4.22368 -1.77114 0
M  V30 9797 N 876.1 -4.24983 -1.84237 0
M  V30 9798 C 876.835 -5.30547 -2.17503 0
M  V30 9799 N 876.331 -6.46401 -2.49275 0
M  V30 9800 N 878.124 -5.17933 -2.18406 0
M  V30 9801 H 870.275 -2.11503 0.195001 0
M  V30 9802 H 872.538 -0.947681 0.0245862 0
M  V30 9803 H 872.244 -3.48107 -0.501435 0
M  V30 9804 H 872.118 -3.06322 -2.20106 0
M  V30 9805 H 874.505 -2.07692 -2.09638 0
M  V30 9806 H 874.586 -2.52848 -0.387478 0
M  V30 9807 H 874.23 -4.97155 -1.0392 0
M  V30 9808 H 874.16 -4.48922 -2.75275 0
M  V30 9809 H 876.651 -3.41411 -1.62009 0
M  V30 9810 H 876.964 -7.22698 -2.73729 0
M  V30 9811 H 875.309 -6.49696 -2.46821 0
M  V30 9812 H 878.5 -4.26445 -1.93034 0
M  V30 9813 H 878.673 -6.00307 -2.44 0
M  V30 9814 N 872.079 0.78992 -1.36375 0
M  V30 9815 C 873.325 1.55007 -1.3077 0
M  V30 9816 C 873.658 1.93871 0.112979 0
M  V30 9817 O 872.933 1.6267 1.06625 0
M  V30 9818 C 873.216 2.82748 -2.22993 0
M  V30 9819 C 873.069 2.50253 -3.73756 0
M  V30 9820 C 874.388 3.84569 -2.13998 0
M  V30 9821 H 871.507 0.562362 -0.476359 0
M  V30 9822 H 874.149 0.907582 -1.66922 0
M  V30 9823 H 872.299 3.37573 -1.92292 0
M  V30 9824 H 873.971 2.01482 -4.14973 0
M  V30 9825 H 872.214 1.83203 -3.93216 0
M  V30 9826 H 872.885 3.41487 -4.33694 0
M  V30 9827 H 875.361 3.39188 -2.4102 0
M  V30 9828 H 874.237 4.717 -2.80697 0
M  V30 9829 H 874.498 4.27491 -1.12711 0
M  V30 9830 N 873.557 1.20646 1.01402 0
M  V30 9831 C 874.487 0.98155 2.11867 0
M  V30 9832 C 875.468 -0.0903712 1.6986 0
M  V30 9833 O 876.653 0.0676586 1.94082 0
M  V30 9834 C 873.783 0.535636 3.43145 0
M  V30 9835 C 872.737 1.55109 3.98905 0
M  V30 9836 C 872.063 0.961725 5.2598 0
M  V30 9837 C 873.363 2.93552 4.32001 0
M  V30 9838 H 875.057 1.90544 2.3094 0
M  V30 9839 H 872.603 0.917554 1.10982 0
M  V30 9840 H 874.556 0.365512 4.19812 0
M  V30 9841 H 873.28 -0.423882 3.23838 0
M  V30 9842 H 871.939 1.70862 3.24348 0
M  V30 9843 H 871.587 -0.00580108 5.03 0
M  V30 9844 H 871.287 1.63993 5.64252 0
M  V30 9845 H 872.811 0.802726 6.053 0
M  V30 9846 H 874.225 2.81295 4.99546 0
M  V30 9847 H 872.622 3.58303 4.81393 0
M  V30 9848 H 873.692 3.4508 3.40658 0
M  V30 9849 N 875.035 -1.20752 1.01276 0
M  V30 9850 C 875.945 -2.27079 0.589277 0
M  V30 9851 C 876.961 -1.6999 -0.371389 0
M  V30 9852 O 878.137 -2.00044 -0.233294 0
M  V30 9853 C 875.202 -3.4663 -0.0696715 0
M  V30 9854 C 874.263 -4.18962 0.936454 0
M  V30 9855 C 873.496 -5.32806 0.308856 0
M  V30 9856 O 873.719 -5.63376 -0.8924 0
M  V30 9857 O 872.653 -5.93131 1.02367 0
M  V30 9858 H 876.479 -2.6551 1.47438 0
M  V30 9859 H 874.064 -1.27297 0.782045 0
M  V30 9860 H 875.946 -4.19119 -0.437873 0
M  V30 9861 H 874.621 -3.10082 -0.929029 0
M  V30 9862 H 873.528 -3.48661 1.35595 0
M  V30 9863 H 874.861 -4.59441 1.76565 0
M  V30 9864 N 876.513 -0.788492 -1.36457 0
M  V30 9865 C 877.924 -0.423742 -1.81828 0
M  V30 9866 C 878.275 1.05221 -1.65599 0
M  V30 9867 O 877.4 1.8163 -1.17641 0
M  V30 9868 C 877.995 -0.762354 -3.30112 0
M  V30 9869 C 876.554 -0.450445 -3.73695 0
M  V30 9870 C 875.701 -0.997482 -2.58738 0
M  V30 9871 H 878.652 -0.981718 -1.24692 0
M  V30 9872 H 878.673 -0.0531136 -3.80463 0
M  V30 9873 H 878.185 -1.83662 -3.41891 0
M  V30 9874 H 876.286 0.615829 -3.67476 0
M  V30 9875 H 876.399 -0.970408 -4.69169 0
M  V30 9876 H 874.763 -0.420761 -2.51201 0
M  V30 9877 H 875.546 -2.07749 -2.73304 0
M  V30 9878 N 877.991 1.48044 -0.54043 0
M  V30 9879 C 879.402 1.86418 -0.102662 0
M  V30 9880 C 879.753 1.4489 1.32293 0
M  V30 9881 O 878.878 0.844319 1.99249 0
M  V30 9882 C 879.473 3.38324 -0.179533 0
M  V30 9883 C 878.032 3.75852 0.203098 0
M  V30 9884 C 877.179 2.72097 -0.534637 0
M  V30 9885 H 880.13 1.398 -0.751103 0
M  V30 9886 H 880.151 3.75641 0.606147 0
M  V30 9887 H 879.663 3.68518 -1.21721 0
M  V30 9888 H 877.764 3.51272 1.24252 0
M  V30 9889 H 877.877 4.78884 -0.143784 0
M  V30 9890 H 876.241 2.54692 0.0203358 0
M  V30 9891 H 877.024 3.05135 -1.57314 0
M  V30 9892 N 879.47 0.276058 1.55163 0
M  V30 9893 C 880.716 -0.340959 1.99913 0
M  V30 9894 C 881.049 -1.55434 1.16422 0
M  V30 9895 O 880.324 -1.93081 0.234517 0
M  V30 9896 C 880.607 -0.722211 3.52783 0
M  V30 9897 C 880.46 0.498575 4.47028 0
M  V30 9898 C 881.779 -1.5583 4.11589 0
M  V30 9899 H 878.898 -0.122455 0.726756 0
M  V30 9900 H 881.54 0.38319 1.86096 0
M  V30 9901 H 879.69 -1.33919 3.64689 0
M  V30 9902 H 881.362 1.13713 4.47065 0
M  V30 9903 H 879.605 1.13646 4.18649 0
M  V30 9904 H 880.276 0.188041 5.5168 0
M  V30 9905 H 882.752 -1.03722 4.02965 0
M  V30 9906 H 881.628 -1.79387 5.1876 0
M  V30 9907 H 881.889 -2.53963 3.61877 0
M  V30 9908 N 880.948 -1.576 0.00335426 0
M  V30 9909 C 882.359 -1.7875 -0.539008 0
M  V30 9910 C 882.71 -0.911097 -1.73763 0
M  V30 9911 O 881.835 -0.114476 -2.16097 0
M  V30 9912 C 882.43 -3.24177 -0.984611 0
M  V30 9913 C 880.989 -3.46412 -1.47226 0
M  V30 9914 C 880.136 -2.74024 -0.425004 0
M  V30 9915 H 883.087 -1.57032 0.229511 0
M  V30 9916 H 883.108 -3.32474 -1.85044 0
M  V30 9917 H 882.62 -3.87938 -0.112035 0
M  V30 9918 H 880.721 -2.8787 -2.36562 0
M  V30 9919 H 880.834 -4.55098 -1.49741 0
M  V30 9920 H 879.198 -2.38741 -0.887394 0
M  V30 9921 H 879.981 -3.40486 0.438662 0
M  V30 9922 N 882.426 0.269451 -1.5528 0
M  V30 9923 C 883.651 1.02299 -1.80415 0
M  V30 9924 C 884.076 1.7902 -0.577363 0
M  V30 9925 O 883.434 1.75018 0.473125 0
M  V30 9926 C 883.482 1.95445 -3.0304 0
M  V30 9927 O 882.586 3.04271 -2.78375 0
M  V30 9928 H 881.927 0.292289 -0.596207 0
M  V30 9929 H 884.457 0.297282 -2.02429 0
M  V30 9930 H 884.467 2.37333 -3.31869 0
M  V30 9931 H 883.142 1.39017 -3.91978 0
M  V30 9932 H 881.719 2.66673 -2.60653 0
M  V30 9933 N 883.904 1.48273 0.534124 0
M  V30 9934 C 885.32 1.34302 0.862272 0
M  V30 9935 C 885.52 0.350902 1.98421 0
M  V30 9936 O 884.576 -0.229364 2.51456 0
M  V30 9937 C 885.889 2.74227 1.23371 0
M  V30 9938 C 887.437 2.82684 1.34383 0
M  V30 9939 C 887.912 4.23301 1.74871 0
M  V30 9940 N 889.403 4.25954 1.81981 0
M  V30 9941 C 890.138 5.31693 2.14686 0
M  V30 9942 N 889.634 6.47714 2.45844 0
M  V30 9943 N 891.427 5.19084 2.15657 0
M  V30 9944 H 883.578 2.11397 -0.206215 0
M  V30 9945 H 885.841 0.947537 -0.0296116 0
M  V30 9946 H 885.547 3.48368 0.482967 0
M  V30 9947 H 885.421 3.07485 2.18478 0
M  V30 9948 H 887.808 2.08801 2.08534 0
M  V30 9949 H 887.889 2.5305 0.374063 0
M  V30 9950 H 887.533 4.97699 1.01282 0
M  V30 9951 H 887.463 4.50376 2.7289 0
M  V30 9952 H 889.954 3.42266 1.60196 0
M  V30 9953 H 890.267 7.2414 2.69892 0
M  V30 9954 H 888.612 6.50995 2.43372 0
M  V30 9955 H 891.803 4.27463 1.9077 0
M  V30 9956 H 891.976 6.01592 2.40813 0
M  V30 9957 N 885.382 -0.782676 1.36792 0
M  V30 9958 C 886.607 -1.57676 1.34733 0
M  V30 9959 C 887.032 -1.87979 -0.0675253 0
M  V30 9960 O 886.39 -1.48404 -1.04144 0
M  V30 9961 C 886.438 -2.87047 2.18257 0
M  V30 9962 O 885.542 -3.80946 1.57969 0
M  V30 9963 H 884.883 -0.478034 0.460846 0
M  V30 9964 H 887.413 -0.969578 1.80168 0
M  V30 9965 H 887.423 -3.36254 2.31079 0
M  V30 9966 H 886.098 -2.64319 3.21104 0
M  V30 9967 H 884.675 -3.39558 1.54126 0
M  V30 9968 N 886.86 -1.21182 -1.00761 0
M  V30 9969 C 887.77 -0.984691 -2.12934 0
M  V30 9970 C 888.786 0.0623657 -1.73888 0
M  V30 9971 O 889.962 -0.1271 -2.00999 0
M  V30 9972 C 887.027 -0.549447 -3.42319 0
M  V30 9973 C 886.088 -1.66841 -3.95553 0
M  V30 9974 C 885.321 -1.25384 -5.18763 0
M  V30 9975 O 885.544 -0.126333 -5.7026 0
M  V30 9976 O 884.478 -2.06475 -5.65377 0
M  V30 9977 H 888.304 -1.92413 -2.3497 0
M  V30 9978 H 885.889 -0.99647 -1.11314 0
M  V30 9979 H 887.771 -0.316384 -4.20211 0
M  V30 9980 H 886.446 0.361304 -3.21677 0
M  V30 9981 H 885.353 -1.95585 -3.189 0
M  V30 9982 H 886.686 -2.55649 -4.206 0
M  V30 9983 N 888.338 1.20213 -1.01915 0
M  V30 9984 C 889.563 1.94163 -0.729076 0
M  V30 9985 C 889.988 1.74416 0.704323 0
M  V30 9986 O 889.346 1.0401 1.48498 0
M  V30 9987 C 889.394 3.44258 -1.07324 0
M  V30 9988 O 888.498 4.11979 -0.186367 0
M  V30 9989 H 887.839 0.606506 -0.270272 0
M  V30 9990 H 890.369 1.52571 -1.3632 0
M  V30 9991 H 890.379 3.94888 -1.02603 0
M  V30 9992 H 889.054 3.57954 -2.11759 0
M  V30 9993 H 887.631 3.7176 -0.291334 0
M  V30 9994 N 889.816 0.795718 1.36037 0
M  V30 9995 C 891.063 0.371024 1.99072 0
M  V30 9996 C 891.391 -1.05896 1.63145 0
M  V30 9997 O 890.646 -1.7474 0.881163 0
M  V30 9998 C 890.945 0.489038 3.54038 0
M  V30 9999 C 890.611 1.88075 4.09803 0
M  V30 10000 C 889.273 2.26152 4.24745 0
M  V30 10001 C 891.625 2.79174 4.40126 0
M  V30 10002 C 888.953 3.54718 4.67324 0
M  V30 10003 C 891.305 4.07175 4.8414 0
M  V30 10004 C 889.969 4.45266 4.97287 0
M  V30 10005 H 889.239 0.135767 0.728456 0
M  V30 10006 H 891.886 1.0144 1.62426 0
M  V30 10007 H 890.191 -0.237823 3.91078 0
M  V30 10008 H 891.888 0.141374 4.00751 0
M  V30 10009 H 888.478 1.57488 3.98617 0
M  V30 10010 H 892.662 2.51009 4.28145 0
M  V30 10011 H 887.918 3.84093 4.75691 0
M  V30 10012 H 892.092 4.77875 5.06565 0
M  V30 10013 H 889.719 5.44943 5.30038 0
M  V30 10014 N 891.294 -1.47756 0.548274 0
M  V30 10015 C 892.519 -2.07387 0.023475 0
M  V30 10016 C 892.944 -1.39956 -1.25674 0
M  V30 10017 O 892.302 -0.471543 -1.7506 0
M  V30 10018 C 892.35 -3.60224 -0.164669 0
M  V30 10019 O 891.454 -3.93653 -1.22928 0
M  V30 10020 H 890.795 -0.662312 0.0473156 0
M  V30 10021 H 893.325 -1.89905 0.761409 0
M  V30 10022 H 893.335 -4.06211 -0.38166 0
M  V30 10023 H 892.01 -4.08702 0.770425 0
M  V30 10024 H 890.587 -3.59422 -0.993495 0
M  V30 10025 N 892.772 -0.284283 -1.55015 0
M  V30 10026 C 893.72 0.615091 -2.2432 0
M  V30 10027 C 894.714 1.15051 -1.24337 0
M  V30 10028 O 895.92 1.10308 -1.4224 0
M  V30 10029 H 892.295 0.216927 -0.720033 0
M  V30 10030 H 894.266 0.00783216 -2.98399 0
M  V30 10031 C 893.015 1.78355 -2.98471 0
M  V30 10032 H 892.338 1.38076 -3.752 0
M  V30 10033 H 893.778 2.38927 -3.50271 0
M  V30 10034 C 892.237 2.67757 -2.04469 0
M  V30 10035 O 892.767 3.6838 -1.60185 0
M  V30 10036 N 890.973 2.35125 -1.70776 0
M  V30 10037 H 890.52 1.53346 -2.06985 0
M  V30 10038 H 890.478 2.95212 -1.08153 0
M  V30 10039 N 894.251 1.57596 -0.0117121 0
M  V30 10040 C 895.499 1.90694 0.669342 0
M  V30 10041 C 895.82 0.886999 1.73659 0
M  V30 10042 O 895.09 -0.0739779 1.9576 0
M  V30 10043 H 893.67 0.703846 0.250219 0
M  V30 10044 H 896.332 1.94821 -0.0554057 0
M  V30 10045 H 895.428 2.90802 1.13316 0
M  V30 10046 N 895.729 -0.261212 1.5542 0
M  V30 10047 C 896.677 -1.34298 1.89913 0
M  V30 10048 C 897.671 -1.50547 0.776665 0
M  V30 10049 O 898.877 -1.52191 0.961139 0
M  V30 10050 H 895.252 -0.4494 0.602946 0
M  V30 10051 H 897.223 -1.02464 2.80256 0
M  V30 10052 C 895.972 -2.69423 2.19788 0
M  V30 10053 H 895.295 -2.57715 3.05652 0
M  V30 10054 H 896.735 -3.44026 2.47835 0
M  V30 10055 C 895.194 -3.21423 1.00939 0
M  V30 10056 O 895.724 -4.00921 0.250034 0
M  V30 10057 N 893.93 -2.7926 0.803883 0
M  V30 10058 H 893.477 -2.14724 1.42308 0
M  V30 10059 H 893.435 -3.14398 0.0103257 0
M  V30 10060 N 897.207 -1.48554 -0.526253 0
M  V30 10061 C 898.432 -1.60686 -1.31129 0
M  V30 10062 C 898.857 -0.268701 -1.86171 0
M  V30 10063 O 898.215 0.760167 -1.64594 0
M  V30 10064 C 898.263 -2.65938 -2.43536 0
M  V30 10065 O 897.367 -2.23356 -3.46678 0
M  V30 10066 H 896.708 -0.538691 -0.388211 0
M  V30 10067 H 899.238 -1.94567 -0.632826 0
M  V30 10068 H 899.248 -2.87327 -2.89668 0
M  V30 10069 H 897.923 -3.63085 -2.02835 0
M  V30 10070 H 896.5 -2.12196 -3.06639 0
M  V30 10071 N 898.685 0.775411 -1.37205 0
M  V30 10072 C 899.595 1.91967 -1.34855 0
M  V30 10073 C 900.611 1.72214 -0.248656 0
M  V30 10074 O 901.787 1.95512 -0.483421 0
M  V30 10075 C 898.852 3.27038 -1.15096 0
M  V30 10076 C 897.913 3.5947 -2.34691 0
M  V30 10077 C 897.146 4.88097 -2.15865 0
M  V30 10078 O 897.369 5.58871 -1.14102 0
M  V30 10079 O 896.303 5.19507 -3.03967 0
M  V30 10080 H 900.129 1.969 -2.31223 0
M  V30 10081 H 897.714 0.917647 -1.17897 0
M  V30 10082 H 899.596 4.07837 -1.0605 0
M  V30 10083 H 898.271 3.22965 -0.217999 0
M  V30 10084 H 897.178 2.7892 -2.49308 0
M  V30 10085 H 898.511 3.68282 -3.26541 0
M  V30 10086 N 900.163 1.21714 1.00117 0
M  V30 10087 C 901.388 1.06357 1.78054 0
M  V30 10088 C 901.813 -0.382075 1.84179 0
M  V30 10089 O 901.171 -1.27575 1.28819 0
M  V30 10090 C 901.219 1.66982 3.19608 0
M  V30 10091 O 900.323 0.917892 4.02055 0
M  V30 10092 H 899.664 0.374074 0.548602 0
M  V30 10093 H 902.194 1.61338 1.25822 0
M  V30 10094 H 902.204 1.71363 3.70268 0
M  V30 10095 H 900.879 2.72185 3.14465 0
M  V30 10096 H 899.456 0.949473 3.6061 0
M  V30 10097 N 901.641 -1.19671 1.02551 0
M  V30 10098 C 902.887 -1.89548 0.721069 0
M  V30 10099 C 903.22 -1.79209 -0.748176 0
M  V30 10100 O 902.495 -1.1822 -1.54448 0
M  V30 10101 C 902.778 -3.4061 1.16861 0
M  V30 10102 C 902.631 -3.59838 2.69883 0
M  V30 10103 C 903.95 -4.33718 0.746782 0
M  V30 10104 H 901.069 -0.688315 0.263422 0
M  V30 10105 H 903.711 -1.40883 1.27483 0
M  V30 10106 H 901.861 -3.82188 0.697477 0
M  V30 10107 H 903.533 -3.27454 3.24917 0
M  V30 10108 H 901.776 -3.03005 3.10435 0
M  V30 10109 H 902.447 -4.65766 2.96253 0
M  V30 10110 H 904.923 -3.99837 1.15195 0
M  V30 10111 H 903.799 -5.38012 1.08786 0
M  V30 10112 H 904.06 -4.40704 -0.351057 0
M  V30 10113 N 903.119 -0.802921 -1.35613 0
M  V30 10114 C 904.069 -0.183492 -2.2726 0
M  V30 10115 C 905.053 0.640527 -1.47601 0
M  V30 10116 O 906.245 0.498386 -1.69838 0
M  V30 10117 C 903.374 0.67003 -3.36698 0
M  V30 10118 C 902.46 -0.163517 -4.23785 0
M  V30 10119 N 902.851 -1.22472 -4.90749 0
M  V30 10120 C 901.149 0.0554547 -4.45966 0
M  V30 10121 C 901.85 -1.73329 -5.55276 0
M  V30 10122 N 900.826 -1.04033 -5.33552 0
M  V30 10123 H 904.628 -0.995525 -2.76526 0
M  V30 10124 H 902.142 -0.643714 -1.49098 0
M  V30 10125 H 904.139 1.12981 -4.01299 0
M  V30 10126 H 902.799 1.48045 -2.88986 0
M  V30 10127 H 903.81 -1.60733 -4.92327 0
M  V30 10128 H 900.487 0.835312 -4.09058 0
M  V30 10129 H 901.877 -2.62 -6.18713 0
M  V30 10130 N 904.597 1.47463 -0.556102 0
M  V30 10131 C 906.008 1.86298 -0.122429 0
M  V30 10132 C 906.359 1.46285 1.30749 0
M  V30 10133 O 905.484 0.865405 1.98342 0
M  V30 10134 C 906.079 3.38115 -0.215407 0
M  V30 10135 C 904.638 3.76046 0.163223 0
M  V30 10136 C 903.785 2.71515 -0.563466 0
M  V30 10137 H 906.736 1.38996 -0.765888 0
M  V30 10138 H 906.757 3.76263 0.566271 0
M  V30 10139 H 906.269 3.67207 -1.25622 0
M  V30 10140 H 904.37 3.5257 1.20519 0
M  V30 10141 H 904.483 4.78705 -0.194568 0
M  V30 10142 H 902.847 2.54699 -0.00667879 0
M  V30 10143 H 903.63 3.03449 -1.60542 0
M  V30 10144 N 906.075 0.2925 1.54862 0
M  V30 10145 C 907.038 -0.574423 2.21885 0
M  V30 10146 C 908.038 -1.06791 1.20218 0
M  V30 10147 O 909.228 -0.9653 1.45009 0
M  V30 10148 C 906.36 -1.79438 2.89853 0
M  V30 10149 H 907.553 0.0110319 2.99898 0
M  V30 10150 H 905.106 0.043256 1.5624 0
M  V30 10151 H 905.841 -2.4199 2.15897 0
M  V30 10152 H 905.626 -1.44827 3.64373 0
M  V30 10153 H 907.116 -2.41048 3.41007 0
M  V30 10154 N 907.553 -1.57587 0.0200696 0
M  V30 10155 C 908.483 -2.12702 -0.963333 0
M  V30 10156 C 909.464 -1.04094 -1.34531 0
M  V30 10157 O 910.649 -1.31881 -1.42552 0
M  V30 10158 C 907.779 -2.64673 -2.24868 0
M  V30 10159 C 906.733 -3.77987 -2.00772 0
M  V30 10160 C 906.059 -4.16351 -3.35494 0
M  V30 10161 C 907.359 -5.0444 -1.35416 0
M  V30 10162 H 909.053 -2.95121 -0.504363 0
M  V30 10163 H 906.599 -1.41966 -0.24116 0
M  V30 10164 H 908.552 -3.01862 -2.94036 0
M  V30 10165 H 907.276 -1.79403 -2.72914 0
M  V30 10166 H 905.935 -3.41223 -1.34025 0
M  V30 10167 H 905.583 -3.28075 -3.81282 0
M  V30 10168 H 905.283 -4.92705 -3.20181 0
M  V30 10169 H 906.807 -4.56115 -4.05945 0
M  V30 10170 H 908.221 -5.39273 -1.94571 0
M  V30 10171 H 906.618 -5.85732 -1.30529 0
M  V30 10172 H 907.688 -4.83803 -0.325923 0
M  V30 10173 N 909.032 0.252966 -1.55557 0
M  V30 10174 C 909.964 1.33585 -1.86246 0
M  V30 10175 C 910.977 1.44584 -0.748291 0
M  V30 10176 O 912.166 1.46042 -1.02635 0
M  V30 10177 C 909.266 2.71509 -2.02821 0
M  V30 10178 C 908.439 2.82853 -3.33636 0
M  V30 10179 C 907.498 4.01581 -3.40028 0
M  V30 10180 O 906.524 3.91394 -4.13278 0
M  V30 10181 N 907.726 5.14474 -2.6888 0
M  V30 10182 H 910.491 1.07596 -2.7972 0
M  V30 10183 H 908.052 0.443075 -1.55719 0
M  V30 10184 H 910.044 3.49262 -2.04445 0
M  V30 10185 H 908.614 2.90232 -1.1612 0
M  V30 10186 H 907.834 1.91823 -3.4438 0
M  V30 10187 H 909.122 2.87378 -4.19871 0
M  V30 10188 H 908.52 5.25641 -2.09087 0
M  V30 10189 H 907.077 5.90385 -2.76204 0
M  V30 10190 N 910.51 1.48831 0.518367 0
M  V30 10191 C 911.926 1.35209 0.847979 0
M  V30 10192 C 912.126 0.371927 1.98038 0
M  V30 10193 O 911.182 -0.202681 2.51685 0
M  V30 10194 C 912.495 2.7552 1.20455 0
M  V30 10195 C 914.043 2.84094 1.31377 0
M  V30 10196 C 914.518 4.25132 1.70372 0
M  V30 10197 N 916.009 4.27861 1.77453 0
M  V30 10198 C 916.744 5.3394 2.09035 0
M  V30 10199 N 916.24 6.50285 2.3896 0
M  V30 10200 N 918.033 5.21343 2.10139 0
M  V30 10201 H 910.184 2.11166 -0.228624 0
M  V30 10202 H 912.447 0.94717 -0.0396599 0
M  V30 10203 H 912.153 3.48861 0.445991 0
M  V30 10204 H 912.027 3.09785 2.15204 0
M  V30 10205 H 914.414 2.11001 2.06307 0
M  V30 10206 H 914.495 2.53433 0.347203 0
M  V30 10207 H 914.139 4.98745 0.959975 0
M  V30 10208 H 914.069 4.53245 2.68098 0
M  V30 10209 H 916.56 3.43945 1.56557 0
M  V30 10210 H 916.873 7.26961 2.62196 0
M  V30 10211 H 915.218 6.5354 2.36454 0
M  V30 10212 H 918.409 4.29462 1.86225 0
M  V30 10213 H 918.582 6.04112 2.34419 0
M  V30 10214 N 911.988 -0.768124 1.37614 0
M  V30 10215 C 913.399 -1.34462 1.29525 0
M  V30 10216 C 913.75 -1.96121 -0.0555168 0
M  V30 10217 O 912.875 -1.94069 -0.957406 0
M  V30 10218 C 913.47 -2.44475 2.34558 0
M  V30 10219 C 912.029 -2.97883 2.30093 0
M  V30 10220 C 911.176 -1.71131 2.18196 0
M  V30 10221 H 914.127 -0.568103 1.48183 0
M  V30 10222 H 914.148 -3.24047 1.99434 0
M  V30 10223 H 913.66 -1.99568 3.32858 0
M  V30 10224 H 911.761 -3.47156 1.35328 0
M  V30 10225 H 911.874 -3.53251 3.23652 0
M  V30 10226 H 910.238 -1.94197 1.64802 0
M  V30 10227 H 911.021 -1.28323 3.18415 0
M  V30 10228 N 913.466 -1.22244 -0.994698 0
M  V30 10229 C 914.429 -0.992308 -2.06606 0
M  V30 10230 C 915.429 0.0405872 -1.60749 0
M  V30 10231 O 916.619 -0.197737 -1.73074 0
M  V30 10232 C 913.751 -0.498499 -3.37236 0
M  V30 10233 H 914.944 -1.9429 -2.28455 0
M  V30 10234 H 912.497 -1.04087 -1.166 0
M  V30 10235 H 913.232 0.456531 -3.21071 0
M  V30 10236 H 913.017 -1.24367 -3.71854 0
M  V30 10237 H 914.507 -0.35768 -4.16065 0
M  V30 10238 N 914.944 1.19125 -1.03184 0
M  V30 10239 C 915.854 2.26112 -0.625329 0
M  V30 10240 C 916.87 1.7056 0.344298 0
M  V30 10241 O 918.046 2.0039 0.20144 0
M  V30 10242 C 915.111 3.46697 0.0145169 0
M  V30 10243 C 914.172 4.17419 -1.00299 0
M  V30 10244 C 913.405 5.32247 -0.393581 0
M  V30 10245 O 913.628 5.64724 0.802659 0
M  V30 10246 O 912.562 5.91428 -1.1179 0
M  V30 10247 H 916.388 2.63131 -1.51643 0
M  V30 10248 H 913.973 1.26036 -0.802197 0
M  V30 10249 H 915.855 4.19762 0.371139 0
M  V30 10250 H 914.53 3.11521 0.879581 0
M  V30 10251 H 913.437 3.4646 -1.41125 0
M  V30 10252 H 914.77 4.56573 -1.83852 0
M  V30 10253 N 916.422 0.810101 1.35185 0
M  V30 10254 C 917.833 0.452616 1.81131 0
M  V30 10255 C 918.184 -1.02573 1.67252 0
M  V30 10256 O 917.309 -1.79735 1.20516 0
M  V30 10257 C 917.904 0.814775 3.28857 0
M  V30 10258 C 916.463 0.509839 3.72931 0
M  V30 10259 C 915.61 1.03852 2.57119 0
M  V30 10260 H 918.561 1.00143 1.23114 0
M  V30 10261 H 918.582 0.113635 3.8033 0
M  V30 10262 H 918.094 1.89078 3.38926 0
M  V30 10263 H 916.195 -0.557289 3.68409 0
M  V30 10264 H 916.308 1.04493 4.67566 0
M  V30 10265 H 914.672 0.460671 2.50499 0
M  V30 10266 H 915.455 2.12071 2.69964 0
M  V30 10267 N 917.9 -1.47166 0.563914 0
M  V30 10268 C 918.832 -2.28165 -0.217583 0
M  V30 10269 C 919.845 -1.37405 -0.873134 0
M  V30 10270 O 921.034 -1.6217 -0.745857 0
M  V30 10271 C 918.134 -3.11873 -1.32621 0
M  V30 10272 C 917.307 -4.30637 -0.766177 0
M  V30 10273 C 916.366 -4.95889 -1.76014 0
M  V30 10274 O 915.392 -5.54071 -1.3036 0
M  V30 10275 N 916.594 -4.91191 -3.09373 0
M  V30 10276 H 919.359 -2.95876 0.477256 0
M  V30 10277 H 916.92 -1.5687 0.40043 0
M  V30 10278 H 918.912 -3.52392 -1.99003 0
M  V30 10279 H 917.482 -2.46361 -1.92419 0
M  V30 10280 H 916.702 -3.94129 0.0745998 0
M  V30 10281 H 917.99 -5.07442 -0.371472 0
M  V30 10282 H 917.388 -4.45133 -3.49104 0
M  V30 10283 H 915.945 -5.35708 -3.71295 0
M  V30 10284 N 919.378 -0.300708 -1.54705 0
M  V30 10285 C 920.624 0.309111 -2.0043 0
M  V30 10286 C 920.957 1.53562 -1.1888 0
M  V30 10287 O 920.232 1.92683 -0.265205 0
M  V30 10288 C 920.515 0.665995 -3.53888 0
M  V30 10289 C 920.368 -0.56963 -4.46178 0
M  V30 10290 C 921.687 1.49262 -4.14016 0
M  V30 10291 H 918.806 0.110878 -0.728612 0
M  V30 10292 H 921.448 -0.412748 -1.85463 0
M  V30 10293 H 919.598 1.281 -3.66773 0
M  V30 10294 H 921.27 -1.20811 -4.45199 0
M  V30 10295 H 919.513 -1.20292 -4.16788 0
M  V30 10296 H 920.184 -0.275785 -5.51311 0
M  V30 10297 H 922.66 0.972979 -4.04564 0
M  V30 10298 H 921.536 1.71111 -5.21548 0
M  V30 10299 H 921.797 2.48174 -3.65872 0
M  V30 10300 N 920.856 1.57574 -0.0284266 0
M  V30 10301 C 922.267 1.79585 0.510502 0
M  V30 10302 C 922.618 0.938625 1.72291 0
M  V30 10303 O 921.743 0.14884 2.15888 0
M  V30 10304 C 922.338 3.25703 0.932912 0
M  V30 10305 C 920.897 3.48711 1.41696 0
M  V30 10306 C 920.044 2.74665 0.381356 0
M  V30 10307 H 922.995 1.56647 -0.254464 0
M  V30 10308 H 923.016 3.35376 1.79731 0
M  V30 10309 H 922.528 3.88067 0.0503036 0
M  V30 10310 H 920.629 2.91597 2.31952 0
M  V30 10311 H 920.742 4.57423 1.42481 0
M  V30 10312 H 919.106 2.40123 0.8493 0
M  V30 10313 H 919.889 3.39745 -0.492775 0
M  V30 10314 N 922.334 -0.244713 1.55689 0
M  V30 10315 C 923.58 -0.973886 1.77886 0
M  V30 10316 C 923.913 -1.8489 0.594071 0
M  V30 10317 O 923.188 -1.90182 -0.407564 0
M  V30 10318 C 923.471 -1.83255 3.09983 0
M  V30 10319 C 923.324 -0.985571 4.3887 0
M  V30 10320 C 924.643 -2.81464 3.38329 0
M  V30 10321 H 921.762 -0.352629 0.647165 0
M  V30 10322 H 924.404 -0.244243 1.88424 0
M  V30 10323 H 922.554 -2.45464 3.01131 0
M  V30 10324 H 924.226 -0.382005 4.59716 0
M  V30 10325 H 922.469 -0.29002 4.32829 0
M  V30 10326 H 923.14 -1.62022 5.27686 0
M  V30 10327 H 925.616 -2.2939 3.47159 0
M  V30 10328 H 924.492 -3.38663 4.31971 0
M  V30 10329 H 924.753 -3.58037 2.59349 0
M  V30 10330 N 923.813 -1.49104 -0.510467 0
M  V30 10331 C 925.229 -1.35657 -0.840797 0
M  V30 10332 C 925.429 -0.382425 -1.97838 0
M  V30 10333 O 924.485 0.189331 -2.51789 0
M  V30 10334 C 925.798 -2.76155 -1.18992 0
M  V30 10335 C 927.346 -2.84786 -1.29868 0
M  V30 10336 C 927.821 -4.2603 -1.68115 0
M  V30 10337 N 929.312 -4.28796 -1.75181 0
M  V30 10338 C 930.047 -5.35041 -2.062 0
M  V30 10339 N 929.543 -6.51543 -2.35508 0
M  V30 10340 N 931.336 -5.2245 -2.07371 0
M  V30 10341 H 923.487 -2.11042 0.23982 0
M  V30 10342 H 925.75 -0.946946 0.0446824 0
M  V30 10343 H 925.456 -3.49092 -0.427484 0
M  V30 10344 H 925.33 -3.10922 -2.13558 0
M  V30 10345 H 927.717 -2.12092 -2.05186 0
M  V30 10346 H 927.798 -2.53613 -0.333758 0
M  V30 10347 H 927.442 -4.99247 -0.933512 0
M  V30 10348 H 927.372 -4.5466 -2.65691 0
M  V30 10349 H 929.863 -3.44771 -1.5473 0
M  V30 10350 H 930.176 -7.28342 -2.58337 0
M  V30 10351 H 928.521 -6.54785 -2.32985 0
M  V30 10352 H 931.712 -4.30444 -1.83945 0
M  V30 10353 H 931.885 -6.05347 -2.31212 0
M  V30 10354 N 925.291 0.760815 -1.38019 0
M  V30 10355 C 926.519 1.55001 -1.37048 0
M  V30 10356 C 926.934 1.88754 0.0415261 0
M  V30 10357 O 926.291 1.52254 1.00624 0
M  V30 10358 C 926.342 2.8536 -2.21928 0
M  V30 10359 O 926.063 2.53049 -3.57628 0
M  V30 10360 C 927.564 3.79536 -2.29057 0
M  V30 10361 H 924.784 0.479844 -0.469032 0
M  V30 10362 H 927.328 0.942148 -1.81504 0
M  V30 10363 H 925.483 3.42542 -1.80953 0
M  V30 10364 H 925.897 3.36604 -4.02241 0
M  V30 10365 H 927.371 4.67977 -2.92749 0
M  V30 10366 H 927.848 4.19453 -1.30213 0
M  V30 10367 H 928.454 3.28281 -2.70392 0
M  V30 10368 N 926.769 1.22769 0.988202 0
M  V30 10369 C 927.997 1.08155 1.76381 0
M  V30 10370 C 928.412 -0.367573 1.85187 0
M  V30 10371 O 927.769 -1.25455 1.32541 0
M  V30 10372 C 927.82 1.69193 3.19462 0
M  V30 10373 O 927.541 3.08437 3.11125 0
M  V30 10374 C 929.042 1.59915 4.13451 0
M  V30 10375 H 926.262 0.378908 0.553778 0
M  V30 10376 H 928.806 1.6246 1.24206 0
M  V30 10377 H 926.961 1.18939 3.6869 0
M  V30 10378 H 927.375 3.37916 4.0114 0
M  V30 10379 H 928.849 2.07339 5.1158 0
M  V30 10380 H 929.326 0.556546 4.3566 0
M  V30 10381 H 929.932 2.09497 3.70123 0
M  V30 10382 N 928.247 -1.18576 1.03814 0
M  V30 10383 C 929.472 -1.92978 0.759873 0
M  V30 10384 C 929.897 -1.75514 -0.676486 0
M  V30 10385 O 929.255 -1.06359 -1.46824 0
M  V30 10386 C 929.303 -3.42507 1.12788 0
M  V30 10387 O 928.407 -4.1163 0.251886 0
M  V30 10388 H 927.748 -0.602129 0.279886 0
M  V30 10389 H 930.278 -1.50383 1.3873 0
M  V30 10390 H 930.288 -3.93206 1.08872 0
M  V30 10391 H 928.963 -3.5454 2.17427 0
M  V30 10392 H 927.54 -3.7125 0.350441 0
M  V30 10393 N 929.725 -0.817259 -1.34754 0
M  V30 10394 C 931.141 -0.502309 -1.51489 0
M  V30 10395 C 931.341 0.974568 -1.76364 0
M  V30 10396 O 930.397 1.75924 -1.81127 0
M  V30 10397 C 931.71 -1.35693 -2.68343 0
M  V30 10398 C 933.258 -1.35347 -2.82224 0
M  V30 10399 C 933.733 -2.19244 -4.02114 0
M  V30 10400 N 935.224 -2.16837 -4.09311 0
M  V30 10401 C 935.959 -2.78505 -5.01221 0
M  V30 10402 N 935.455 -3.4914 -5.98392 0
M  V30 10403 N 937.248 -2.68089 -4.94049 0
M  V30 10404 H 929.399 -1.77359 -1.16866 0
M  V30 10405 H 931.662 -0.755476 -0.572678 0
M  V30 10406 H 931.368 -2.40548 -2.56573 0
M  V30 10407 H 931.242 -1.01764 -3.63213 0
M  V30 10408 H 933.629 -0.312727 -2.93438 0
M  V30 10409 H 933.71 -1.7327 -1.88179 0
M  V30 10410 H 933.354 -3.23365 -3.9166 0
M  V30 10411 H 933.284 -1.78675 -4.95361 0
M  V30 10412 H 935.775 -1.65452 -3.39756 0
M  V30 10413 H 936.088 -3.93455 -6.65141 0
M  V30 10414 H 934.433 -3.53246 -5.98533 0
M  V30 10415 H 937.624 -2.12485 -4.17094 0
M  V30 10416 H 937.797 -3.16436 -5.65484 0
M  V30 10417 N 931.203 1.46865 -0.571711 0
M  V30 10418 C 932.428 2.07323 -0.0564655 0
M  V30 10419 C 932.853 1.41938 1.23431 0
M  V30 10420 O 932.211 0.499334 1.74288 0
M  V30 10421 C 932.259 3.6044 0.107339 0
M  V30 10422 O 931.363 3.95558 1.1665 0
M  V30 10423 H 930.704 0.661475 -0.0578465 0
M  V30 10424 H 933.234 1.88669 -0.791524 0
M  V30 10425 H 933.244 4.06767 0.316987 0
M  V30 10426 H 931.919 4.07425 -0.835348 0
M  V30 10427 H 930.496 3.60957 0.936189 0
M  V30 10428 N 932.681 0.308908 1.54543 0
M  V30 10429 C 934.092 -0.182144 1.85809 0
M  V30 10430 C 934.443 -1.52796 1.23076 0
M  V30 10431 O 933.568 -2.09775 0.531358 0
M  V30 10432 C 934.163 -0.337275 3.37117 0
M  V30 10433 C 932.722 -0.772545 3.68387 0
M  V30 10434 C 931.869 0.114451 2.77064 0
M  V30 10435 H 934.82 0.529671 1.496 0
M  V30 10436 H 934.841 -1.17058 3.62046 0
M  V30 10437 H 934.353 0.642382 3.82747 0
M  V30 10438 H 932.454 -1.76247 3.2828 0
M  V30 10439 H 932.567 -0.586453 4.75497 0
M  V30 10440 H 930.931 -0.407581 2.51418 0
M  V30 10441 H 931.714 1.09061 3.25516 0
M  V30 10442 N 934.159 -1.57557 0.0367827 0
M  V30 10443 C 935.405 -1.92399 -0.641133 0
M  V30 10444 C 935.738 -0.914191 -1.71336 0
M  V30 10445 O 935.013 0.0619616 -1.94401 0
M  V30 10446 C 935.296 -3.37689 -1.25052 0
M  V30 10447 C 935.149 -4.4941 -0.187326 0
M  V30 10448 C 936.468 -3.8309 -2.16634 0
M  V30 10449 H 933.587 -0.699666 -0.231597 0
M  V30 10450 H 936.229 -1.89759 0.0956083 0
M  V30 10451 H 934.379 -3.40069 -1.87843 0
M  V30 10452 H 936.051 -4.59161 0.443736 0
M  V30 10453 H 934.294 -4.31065 0.486313 0
M  V30 10454 H 934.965 -5.48119 -0.653459 0
M  V30 10455 H 937.441 -3.82494 -1.63821 0
M  V30 10456 H 936.317 -4.85429 -2.56222 0
M  V30 10457 H 936.578 -3.19028 -3.06062 0
M  V30 10458 N 935.637 0.236453 -1.55816 0
M  V30 10459 C 936.567 1.29639 -1.94206 0
M  V30 10460 C 937.548 1.49667 -0.808319 0
M  V30 10461 O 938.733 1.621 -1.06945 0
M  V30 10462 C 935.863 2.64914 -2.24584 0
M  V30 10463 C 934.817 2.59565 -3.40308 0
M  V30 10464 C 934.143 3.98732 -3.56254 0
M  V30 10465 C 935.443 2.15642 -4.75706 0
M  V30 10466 H 937.137 0.977552 -2.82992 0
M  V30 10467 H 934.683 0.468804 -1.36155 0
M  V30 10468 H 936.636 3.39209 -2.50031 0
M  V30 10469 H 935.36 2.98455 -1.32636 0
M  V30 10470 H 934.019 1.87728 -3.14887 0
M  V30 10471 H 933.667 4.29556 -2.61707 0
M  V30 10472 H 933.367 3.96039 -4.34082 0
M  V30 10473 H 934.891 4.74711 -3.84033 0
M  V30 10474 H 936.305 2.79673 -5.00456 0
M  V30 10475 H 934.702 2.24039 -5.56711 0
M  V30 10476 H 935.772 1.10831 -4.72064 0
M  V30 10477 N 937.115 1.49373 0.502552 0
M  V30 10478 C 938.34 1.62752 1.28556 0
M  V30 10479 C 938.765 0.298285 1.8572 0
M  V30 10480 O 938.123 -0.733885 1.65782 0
M  V30 10481 C 938.171 2.69778 2.39274 0
M  V30 10482 O 937.275 2.28843 3.43081 0
M  V30 10483 H 936.616 0.544799 0.379592 0
M  V30 10484 H 939.146 1.9555 0.601792 0
M  V30 10485 H 939.156 2.91899 2.8506 0
M  V30 10486 H 937.831 3.66266 1.97033 0
M  V30 10487 H 936.408 2.17047 3.03224 0
M  V30 10488 N 938.594 -0.753485 1.38421 0
M  V30 10489 C 940.01 -1.05656 1.1962 0
M  V30 10490 C 940.21 -2.0145 0.0449443 0
M  V30 10491 O 939.266 -2.45039 -0.609253 0
M  V30 10492 C 940.579 -1.63655 2.52265 0
M  V30 10493 C 942.127 -1.75825 2.58949 0
M  V30 10494 C 942.602 -2.37236 3.91769 0
M  V30 10495 N 944.093 -2.44666 3.9331 0
M  V30 10496 C 944.828 -2.93077 4.92842 0
M  V30 10497 N 944.324 -3.41523 6.02772 0
M  V30 10498 N 946.117 -2.92118 4.80232 0
M  V30 10499 H 938.268 -0.117799 2.12073 0
M  V30 10500 H 940.531 -0.114889 0.941012 0
M  V30 10501 H 940.237 -1.00734 3.36965 0
M  V30 10502 H 940.111 -2.62715 2.70667 0
M  V30 10503 H 942.498 -2.37873 1.74644 0
M  V30 10504 H 942.579 -0.754693 2.44414 0
M  V30 10505 H 942.223 -1.75822 4.76497 0
M  V30 10506 H 942.153 -3.38233 4.03616 0
M  V30 10507 H 944.644 -2.10403 3.1391 0
M  V30 10508 H 944.957 -3.76919 6.74649 0
M  V30 10509 H 943.302 -3.3958 6.06391 0
M  V30 10510 H 946.493 -2.53582 3.93464 0
M  V30 10511 H 946.666 -3.29535 5.57952 0
M  V30 10512 N 940.072 -1.23292 -0.981677 0
M  V30 10513 C 941.488 -0.995295 -1.24764 0
M  V30 10514 C 941.688 0.304379 -1.99188 0
M  V30 10515 O 940.744 1.02414 -2.30798 0
M  V30 10516 C 942.057 -2.20135 -2.04844 0
M  V30 10517 C 943.605 -2.24612 -2.17988 0
M  V30 10518 C 944.08 -3.448 -3.01458 0
M  V30 10519 N 945.571 -3.45031 -3.09044 0
M  V30 10520 C 946.306 -4.34683 -3.7395 0
M  V30 10521 N 945.802 -5.34569 -4.4069 0
M  V30 10522 N 947.595 -4.22429 -3.70823 0
M  V30 10523 H 939.746 -2.06834 -0.483052 0
M  V30 10524 H 942.009 -0.906929 -0.276014 0
M  V30 10525 H 941.715 -3.14446 -1.57532 0
M  V30 10526 H 941.589 -2.21115 -3.05594 0
M  V30 10527 H 943.976 -1.30841 -2.64508 0
M  V30 10528 H 944.057 -2.27664 -1.16631 0
M  V30 10529 H 943.701 -4.38877 -2.55635 0
M  V30 10530 H 943.631 -3.38988 -4.02982 0
M  V30 10531 H 946.122 -2.72759 -2.61555 0
M  V30 10532 H 946.435 -5.99236 -4.87991 0
M  V30 10533 H 944.78 -5.3847 -4.39403 0
M  V30 10534 H 947.971 -3.43639 -3.17851 0
M  V30 10535 H 948.144 -4.92501 -4.21126 0
M  V30 10536 N 941.55 1.18024 -1.04442 0
M  V30 10537 C 942.827 1.8398 -0.664125 0
M  V30 10538 C 943.207 1.92961 0.856116 0
M  V30 10539 O 942.555 1.45839 1.75907 0
M  V30 10540 C 942.765 3.22069 -1.34433 0
M  V30 10541 C 944.113 3.98063 -1.47754 0
M  V30 10542 O 945.137 3.31523 -1.30274 0
M  V30 10543 O 943.996 5.17291 -1.76272 0
M  V30 10544 H 941.09 0.793543 -0.23285 0
M  V30 10545 H 943.636 1.25385 -1.14354 0
M  V30 10546 H 942.408 3.10458 -2.38184 0
M  V30 10547 H 942.031 3.88325 -0.853782 0
M  V30 10548 N 943.028 0.824394 1.34319 0
M  V30 10549 C 944.253 0.425194 2.02995 0
M  V30 10550 C 944.678 -0.961476 1.6167 0
M  V30 10551 O 944.036 -1.62593 0.80207 0
M  V30 10552 C 944.084 0.537004 3.56579 0
M  V30 10553 O 943.188 -0.442576 4.10018 0
M  V30 10554 H 942.529 0.174853 0.640564 0
M  V30 10555 H 945.059 1.11522 1.71534 0
M  V30 10556 H 945.069 0.413311 4.05901 0
M  V30 10557 H 943.744 1.54836 3.86004 0
M  V30 10558 H 942.321 -0.277644 3.71865 0
M  V30 10559 N 944.506 -1.46559 0.579492 0
M  V30 10560 C 945.917 -1.8608 0.152052 0
M  V30 10561 C 946.268 -1.48346 -1.28405 0
M  V30 10562 O 945.393 -0.89685 -1.9694 0
M  V30 10563 C 945.988 -3.37729 0.269171 0
M  V30 10564 C 944.547 -3.76258 -0.103376 0
M  V30 10565 C 943.694 -2.70584 0.60659 0
M  V30 10566 H 946.645 -1.3776 0.787904 0
M  V30 10567 H 946.666 -3.77116 -0.506339 0
M  V30 10568 H 946.178 -3.65162 1.31448 0
M  V30 10569 H 944.279 -3.54443 -1.14895 0
M  V30 10570 H 944.392 -4.78335 0.270701 0
M  V30 10571 H 942.756 -2.54656 0.0471984 0
M  V30 10572 H 943.539 -3.00856 1.65349 0
M  V30 10573 N 945.984 -0.3171 -1.54377 0
M  V30 10574 C 946.914 0.544623 -2.2706 0
M  V30 10575 C 947.895 1.12469 -1.27611 0
M  V30 10576 O 949.08 1.15103 -1.56413 0
M  V30 10577 C 946.21 1.70879 -3.02353 0
M  V30 10578 C 945.164 1.25833 -4.09084 0
M  V30 10579 C 944.49 2.50894 -4.72182 0
M  V30 10580 C 945.79 0.377876 -5.20931 0
M  V30 10581 H 947.484 -0.0616372 -2.99337 0
M  V30 10582 H 945.03 -0.0310848 -1.43966 0
M  V30 10583 H 946.983 2.31787 -3.51927 0
M  V30 10584 H 945.707 2.34155 -2.27682 0
M  V30 10585 H 944.366 0.672228 -3.60384 0
M  V30 10586 H 944.014 3.12518 -3.94134 0
M  V30 10587 H 943.714 2.21447 -5.44275 0
M  V30 10588 H 945.238 3.12575 -5.24528 0
M  V30 10589 H 946.652 0.893056 -5.66302 0
M  V30 10590 H 945.049 0.176474 -5.9984 0
M  V30 10591 H 946.119 -0.592943 -4.81261 0
M  V30 10592 N 947.462 1.57535 -0.0451378 0
M  V30 10593 C 948.394 2.08109 0.960372 0
M  V30 10594 C 949.407 1.0077 1.27864 0
M  V30 10595 O 950.596 1.28351 1.24049 0
M  V30 10596 C 947.696 2.50414 2.28355 0
M  V30 10597 C 946.869 3.8102 2.14808 0
M  V30 10598 C 945.928 4.09702 3.30198 0
M  V30 10599 O 944.954 4.79715 3.0637 0
M  V30 10600 N 946.156 3.61138 4.54489 0
M  V30 10601 H 948.921 2.94999 0.528752 0
M  V30 10602 H 946.482 1.61283 0.141248 0
M  V30 10603 H 948.474 2.66683 3.04405 0
M  V30 10604 H 947.044 1.68805 2.63104 0
M  V30 10605 H 946.264 3.74392 1.23387 0
M  V30 10606 H 947.552 4.66559 2.02978 0
M  V30 10607 H 946.95 3.04527 4.76739 0
M  V30 10608 H 945.507 3.82656 5.27653 0
M  V30 10609 N 948.94 -0.228186 1.55939 0
M  V30 10610 C 950.188 -0.951668 1.78291 0
M  V30 10611 C 950.509 -1.85132 0.612474 0
M  V30 10612 O 949.779 -1.92356 -0.370942 0
M  V30 10613 H 948.359 -0.354388 0.657585 0
M  V30 10614 H 951.021 -0.241635 1.93396 0
M  V30 10615 H 950.117 -1.56239 2.70177 0
M  V30 10616 N 950.418 -1.49637 -0.494624 0
M  V30 10617 C 951.643 -1.63431 -1.27691 0
M  V30 10618 C 952.068 -0.30813 -1.85559 0
M  V30 10619 O 951.426 0.725083 -1.66169 0
M  V30 10620 C 951.474 -2.71043 -2.3784 0
M  V30 10621 O 950.578 -2.3066 -3.41862 0
M  V30 10622 H 949.919 -0.546804 -0.376698 0
M  V30 10623 H 952.449 -1.95866 -0.591413 0
M  V30 10624 H 952.459 -2.93406 -2.83508 0
M  V30 10625 H 951.134 -3.67306 -1.95088 0
M  V30 10626 H 949.711 -2.18652 -3.02069 0
M  V30 10627 N 951.896 0.746133 -1.38819 0
M  V30 10628 C 953.144 1.50247 -1.35167 0
M  V30 10629 C 953.465 1.94921 0.0553531 0
M  V30 10630 O 952.735 1.68187 1.00449 0
M  V30 10631 H 951.315 0.557337 -0.497377 0
M  V30 10632 H 953.977 0.886472 -1.73573 0
M  V30 10633 H 953.073 2.38986 -2.00728 0
M  V30 10634 N 953.375 1.23811 0.975125 0
M  V30 10635 C 954.307 0.981779 2.07108 0
M  V30 10636 C 955.32 -0.0461211 1.62735 0
M  V30 10637 O 956.509 0.190039 1.77486 0
M  V30 10638 C 953.609 0.458364 3.35786 0
M  V30 10639 C 952.782 1.54767 4.09104 0
M  V30 10640 C 951.841 1.0282 5.16057 0
M  V30 10641 O 950.867 1.71831 5.42644 0
M  V30 10642 N 952.069 -0.141243 5.80328 0
M  V30 10643 H 954.834 1.92537 2.29673 0
M  V30 10644 H 952.395 1.1474 1.14221 0
M  V30 10645 H 954.387 0.0957686 4.04587 0
M  V30 10646 H 952.957 -0.390768 3.10148 0
M  V30 10647 H 952.177 2.08279 3.34684 0
M  V30 10648 H 953.465 2.28006 4.54853 0
M  V30 10649 H 952.863 -0.718382 5.6112 0
M  V30 10650 H 951.42 -0.445052 6.50279 0
M  V30 10651 N 954.853 -1.17469 1.05066 0
M  V30 10652 C 955.785 -2.20974 0.608526 0
M  V30 10653 C 956.798 -1.59481 -0.327066 0
M  V30 10654 O 957.987 -1.78096 -0.12 0
M  V30 10655 C 955.087 -3.38652 -0.12969 0
M  V30 10656 C 954.26 -4.29716 0.816285 0
M  V30 10657 C 953.319 -5.26064 0.119556 0
M  V30 10658 O 952.345 -5.64194 0.753241 0
M  V30 10659 N 953.547 -5.69126 -1.14347 0
M  V30 10660 H 956.312 -2.59529 1.49882 0
M  V30 10661 H 953.873 -1.32355 0.932406 0
M  V30 10662 H 955.865 -4.00139 -0.605886 0
M  V30 10663 H 954.435 -2.98705 -0.921638 0
M  V30 10664 H 953.655 -3.6568 1.47213 0
M  V30 10665 H 954.943 -4.87449 1.45845 0
M  V30 10666 H 954.341 -5.4022 -1.67866 0
M  V30 10667 H 952.898 -6.32764 -1.56376 0
M  V30 10668 N 956.331 -0.831506 -1.3388 0
M  V30 10669 C 957.279 -0.247896 -2.31275 0
M  V30 10670 C 958.273 0.616083 -1.578 0
M  V30 10671 O 959.479 0.506465 -1.72728 0
M  V30 10672 H 955.854 -0.0614293 -0.749487 0
M  V30 10673 H 957.825 -1.08401 -2.78014 0
M  V30 10674 C 956.574 0.568434 -3.43022 0
M  V30 10675 H 955.897 -0.0870654 -3.99705 0
M  V30 10676 H 957.337 0.942751 -4.13386 0
M  V30 10677 C 955.796 1.74431 -2.88228 0
M  V30 10678 O 956.326 2.84278 -2.83811 0
M  V30 10679 N 954.532 1.56382 -2.44935 0
M  V30 10680 H 954.079 0.670255 -2.48727 0
M  V30 10681 H 954.037 2.35208 -2.08625 0
M  V30 10682 N 957.809 1.4625 -0.587256 0
M  V30 10683 C 959.034 2.07252 -0.0784517 0
M  V30 10684 C 959.459 1.43239 1.21919 0
M  V30 10685 O 958.817 0.517791 1.73749 0
M  V30 10686 C 958.865 3.60534 0.0691037 0
M  V30 10687 O 957.969 3.96773 1.12448 0
M  V30 10688 H 957.31 0.660825 -0.064859 0
M  V30 10689 H 959.84 1.87819 -0.811491 0
M  V30 10690 H 959.85 4.0708 0.273826 0
M  V30 10691 H 958.525 4.06516 -0.878514 0
M  V30 10692 H 957.102 3.6193 0.897852 0
M  V30 10693 N 959.287 0.325282 1.54207 0
M  V30 10694 C 960.219 -0.57395 2.21897 0
M  V30 10695 C 961.232 -1.0785 1.21952 0
M  V30 10696 O 962.421 -0.991782 1.48411 0
M  V30 10697 C 959.521 -1.8005 2.87115 0
M  V30 10698 C 958.694 -1.43435 4.13213 0
M  V30 10699 C 957.753 -2.51862 4.62009 0
M  V30 10700 O 956.779 -2.15934 5.26651 0
M  V30 10701 N 957.981 -3.8282 4.36382 0
M  V30 10702 H 960.746 0.00566918 2.99699 0
M  V30 10703 H 958.307 0.148563 1.61217 0
M  V30 10704 H 960.299 -2.51981 3.16682 0
M  V30 10705 H 958.869 -2.28792 2.13009 0
M  V30 10706 H 958.089 -0.546598 3.90392 0
M  V30 10707 H 959.377 -1.16544 4.95273 0
M  V30 10708 H 958.775 -4.14807 3.84645 0
M  V30 10709 H 957.332 -4.50976 4.70599 0
M  V30 10710 N 960.765 -1.57509 0.0534917 0
M  V30 10711 C 961.728 -2.10563 -0.905307 0
M  V30 10712 C 962.728 -1.02571 -1.23838 0
M  V30 10713 O 963.918 -1.28635 -1.17468 0
M  V30 10714 C 961.05 -2.5918 -2.21447 0
M  V30 10715 H 962.243 -2.96575 -0.445354 0
M  V30 10716 H 959.796 -1.55079 -0.194947 0
M  V30 10717 H 960.531 -1.76568 -2.72019 0
M  V30 10718 H 960.316 -3.38098 -1.98575 0
M  V30 10719 H 961.806 -3.00365 -2.90122 0
M  V30 10720 N 962.243 0.219913 -1.56058 0
M  V30 10721 C 963.491 0.942199 -1.78793 0
M  V30 10722 C 963.812 1.84804 -0.622284 0
M  V30 10723 O 963.082 1.9255 0.360735 0
M  V30 10724 H 961.662 0.350895 -0.659455 0
M  V30 10725 H 964.324 0.231376 -1.93522 0
M  V30 10726 H 963.42 1.54804 -2.71002 0
M  V30 10727 N 963.721 1.49897 0.486681 0
M  V30 10728 C 964.653 1.63755 1.60365 0
M  V30 10729 C 965.666 0.519614 1.54285 0
M  V30 10730 O 966.855 0.792219 1.59957 0
M  V30 10731 C 963.955 1.59153 2.99205 0
M  V30 10732 C 963.128 2.8672 3.30319 0
M  V30 10733 C 962.187 2.74974 4.48638 0
M  V30 10734 O 961.213 3.48922 4.49714 0
M  V30 10735 N 962.415 1.87479 5.49392 0
M  V30 10736 H 965.18 2.60094 1.48899 0
M  V30 10737 H 962.741 1.47166 0.674825 0
M  V30 10738 H 964.733 1.4893 3.76301 0
M  V30 10739 H 963.303 0.706133 3.0452 0
M  V30 10740 H 962.523 3.11188 2.41983 0
M  V30 10741 H 963.811 3.71262 3.47911 0
M  V30 10742 H 963.209 1.26684 5.51333 0
M  V30 10743 H 961.766 1.83169 6.25534 0
M  V30 10744 N 965.199 -0.738761 1.39212 0
M  V30 10745 C 966.615 -1.04381 1.20734 0
M  V30 10746 C 966.815 -2.01391 0.0663082 0
M  V30 10747 O 965.871 -2.45672 -0.583229 0
M  V30 10748 C 967.184 -1.6097 2.53987 0
M  V30 10749 C 968.732 -1.73069 2.60799 0
M  V30 10750 C 969.207 -2.33067 3.94264 0
M  V30 10751 N 970.698 -2.40481 3.95883 0
M  V30 10752 C 971.433 -2.87834 4.95923 0
M  V30 10753 N 970.929 -3.35111 6.0636 0
M  V30 10754 N 972.722 -2.87009 4.83304 0
M  V30 10755 H 964.873 -0.0952996 2.12186 0
M  V30 10756 H 967.136 -0.104902 0.942178 0
M  V30 10757 H 966.842 -0.971548 3.38015 0
M  V30 10758 H 966.716 -2.59829 2.73439 0
M  V30 10759 H 969.103 -2.36007 1.77157 0
M  V30 10760 H 969.184 -0.728728 2.452 0
M  V30 10761 H 968.828 -1.70758 4.78335 0
M  V30 10762 H 968.758 -3.33933 4.07181 0
M  V30 10763 H 971.249 -2.07061 3.16123 0
M  V30 10764 H 971.562 -3.69742 6.78609 0
M  V30 10765 H 969.907 -3.33129 6.09959 0
M  V30 10766 H 973.098 -2.49395 3.96131 0
M  V30 10767 H 973.271 -3.23598 5.61416 0
M  V30 10768 N 966.677 -1.24326 -0.968545 0
M  V30 10769 C 967.625 -1.03256 -2.08425 0
M  V30 10770 C 968.619 0.0322356 -1.69369 0
M  V30 10771 O 969.825 -0.122251 -1.79584 0
M  V30 10772 H 966.2 -0.31688 -0.681976 0
M  V30 10773 H 968.171 -1.97873 -2.23358 0
M  V30 10774 C 966.92 -0.653144 -3.4151 0
M  V30 10775 H 966.243 -1.46424 -3.72021 0
M  V30 10776 H 967.683 -0.545316 -4.20479 0
M  V30 10777 C 966.142 0.639674 -3.30771 0
M  V30 10778 O 966.672 1.68563 -3.64622 0
M  V30 10779 N 964.878 0.620074 -2.83907 0
M  V30 10780 H 964.425 -0.231449 -2.56558 0
M  V30 10781 H 964.383 1.48528 -2.77104 0
M  V30 10782 N 968.156 1.1691 -1.05688 0
M  V30 10783 C 969.381 1.91745 -0.790478 0
M  V30 10784 C 969.806 1.76568 0.648478 0
M  V30 10785 O 969.164 1.08682 1.45114 0
M  V30 10786 C 969.212 3.4067 -1.18222 0
M  V30 10787 O 968.316 4.11177 -0.317341 0
M  V30 10788 H 967.657 0.5976 -0.28943 0
M  V30 10789 H 970.187 1.48157 -1.41105 0
M  V30 10790 H 970.197 3.91424 -1.15114 0
M  V30 10791 H 968.872 3.51036 -2.2304 0
M  V30 10792 H 967.449 3.70645 -0.409459 0
M  V30 10793 N 969.634 0.838594 1.33437 0
M  V30 10794 C 970.862 0.447644 2.01999 0
M  V30 10795 C 971.277 -0.951053 1.63096 0
M  V30 10796 O 970.634 -1.61802 0.844169 0
M  V30 10797 C 970.685 0.558378 3.57162 0
M  V30 10798 O 970.406 1.90196 3.94661 0
M  V30 10799 C 971.907 0.164348 4.42995 0
M  V30 10800 H 969.127 0.177736 0.647032 0
M  V30 10801 H 971.671 1.13109 1.70372 0
M  V30 10802 H 969.826 -0.0771563 3.87323 0
M  V30 10803 H 970.24 1.88729 4.89369 0
M  V30 10804 H 971.714 0.292876 5.51222 0
M  V30 10805 H 972.191 -0.893713 4.30011 0
M  V30 10806 H 972.797 0.774306 4.18192 0
M  V30 10807 N 971.112 -1.45937 0.595003 0
M  V30 10808 C 972.337 -2.07207 0.0894416 0
M  V30 10809 C 972.762 -1.43884 -1.21157 0
M  V30 10810 O 972.12 -0.526998 -1.73472 0
M  V30 10811 C 972.168 -3.60565 -0.0499828 0
M  V30 10812 O 971.272 -3.97364 -1.10342 0
M  V30 10813 H 970.613 -0.660471 0.0683627 0
M  V30 10814 H 973.143 -1.87386 0.82144 0
M  V30 10815 H 973.153 -4.0722 -0.252234 0
M  V30 10816 H 971.828 -4.06044 0.90006 0
M  V30 10817 H 970.405 -3.62401 -0.878645 0
M  V30 10818 N 972.59 -0.333456 -1.54032 0
M  V30 10819 C 973.839 0.267081 -1.99924 0
M  V30 10820 C 974.152 1.52463 -1.22534 0
M  V30 10821 O 975.358 2.20178 -1.58852 0
M  V30 10822 C 973.814 0.526456 -3.56029 0
M  V30 10823 C 973.422 -0.714607 -4.42264 0
M  V30 10824 C 975.166 1.0864 -4.10363 0
M  V30 10825 C 973.073 -0.42659 -5.89859 0
M  V30 10826 H 972.003 0.103577 -0.746852 0
M  V30 10827 H 974.654 -0.447218 -1.77967 0
M  V30 10828 H 973.036 1.3012 -3.74012 0
M  V30 10829 H 974.21 -1.48968 -4.36056 0
M  V30 10830 H 972.525 -1.19547 -3.9887 0
M  V30 10831 H 975.122 1.31668 -5.18235 0
M  V30 10832 H 975.465 2.03884 -3.62956 0
M  V30 10833 H 975.998 0.37261 -3.96051 0
M  V30 10834 H 972.737 -1.34847 -6.4148 0
M  V30 10835 H 972.257 0.310588 -5.98995 0
M  V30 10836 H 973.936 -0.0400807 -6.46988 0
M  V30 10837 N 974.068 1.57479 -0.061844 0
M  V30 10838 C 974.978 2.15645 0.923826 0
M  V30 10839 C 975.994 1.117 1.33413 0
M  V30 10840 O 977.17 1.4392 1.40887 0
M  V30 10841 C 974.235 2.69857 2.17665 0
M  V30 10842 C 973.296 3.88638 1.8237 0
M  V30 10843 C 972.529 4.40256 3.01679 0
M  V30 10844 O 972.752 3.90908 4.15388 0
M  V30 10845 O 971.686 5.31713 2.82073 0
M  V30 10846 H 975.512 3.0021 0.459094 0
M  V30 10847 H 973.097 1.48534 0.160665 0
M  V30 10848 H 974.979 3.04647 2.9115 0
M  V30 10849 H 973.654 1.88357 2.63255 0
M  V30 10850 H 972.561 3.58719 1.06167 0
M  V30 10851 H 973.894 4.71401 1.4157 0
M  V30 10852 N 975.546 -0.211634 1.56173 0
M  V30 10853 C 976.957 -0.777776 1.69728 0
M  V30 10854 C 977.308 -1.84566 0.66558 0
M  V30 10855 O 976.433 -2.15639 -0.181338 0
M  V30 10856 C 977.028 -1.41757 3.07718 0
M  V30 10857 C 975.587 -1.93098 3.23094 0
M  V30 10858 C 974.734 -0.794785 2.65666 0
M  V30 10859 H 977.685 0.0131839 1.58695 0
M  V30 10860 H 977.706 -2.28662 3.04128 0
M  V30 10861 H 977.218 -0.640114 3.82785 0
M  V30 10862 H 975.319 -2.73615 2.52914 0
M  V30 10863 H 975.432 -2.10414 4.30422 0
M  V30 10864 H 973.796 -1.20473 2.24407 0
M  V30 10865 H 974.579 -0.0298408 3.43287 0
M  V30 10866 N 977.024 -1.50153 -0.478725 0
M  V30 10867 C 978.44 -1.3741 -0.811833 0
M  V30 10868 C 978.64 -0.424303 -1.96982 0
M  V30 10869 O 977.696 0.13588 -2.52134 0
M  V30 10870 C 979.009 -2.78616 -1.13108 0
M  V30 10871 C 980.557 -2.87477 -1.23798 0
M  V30 10872 C 981.032 -4.295 -1.5904 0
M  V30 10873 N 982.523 -4.32415 -1.66047 0
M  V30 10874 C 983.258 -5.39295 -1.94805 0
M  V30 10875 N 982.754 -6.56392 -2.21635 0
M  V30 10876 N 984.547 -5.26731 -1.96243 0
M  V30 10877 H 976.698 -2.10486 0.284531 0
M  V30 10878 H 978.961 -0.945786 0.0647585 0
M  V30 10879 H 978.667 -3.49921 -0.35334 0
M  V30 10880 H 978.541 -3.15382 -2.06915 0
M  V30 10881 H 980.928 -2.16396 -2.00641 0
M  V30 10882 H 981.009 -2.54264 -0.279888 0
M  V30 10883 H 980.653 -5.01115 -0.827404 0
M  V30 10884 H 980.583 -4.60194 -2.55987 0
M  V30 10885 H 983.074 -3.47975 -1.47383 0
M  V30 10886 H 983.387 -7.33658 -2.4283 0
M  V30 10887 H 981.732 -6.59579 -2.19043 0
M  V30 10888 H 984.923 -4.34249 -1.74773 0
M  V30 10889 H 985.096 -6.10115 -2.1832 0
M  V30 10890 N 978.502 0.731368 -1.39602 0
M  V30 10891 C 979.432 1.85855 -1.41351 0
M  V30 10892 C 980.413 1.67839 -0.2764 0
M  V30 10893 O 981.598 1.88104 -0.482747 0
M  V30 10894 C 978.728 3.23644 -1.25983 0
M  V30 10895 C 977.682 3.56304 -2.37132 0
M  V30 10896 C 977.008 4.93069 -2.0685 0
M  V30 10897 C 978.308 3.58906 -3.79452 0
M  V30 10898 H 980.002 1.84648 -2.3568 0
M  V30 10899 H 977.548 0.886955 -1.13442 0
M  V30 10900 H 979.501 4.02176 -1.25826 0
M  V30 10901 H 978.225 3.25387 -0.281234 0
M  V30 10902 H 976.884 2.80104 -2.36511 0
M  V30 10903 H 976.532 4.91396 -1.0742 0
M  V30 10904 H 976.232 5.15888 -2.81306 0
M  V30 10905 H 977.756 5.73953 -2.0835 0
M  V30 10906 H 979.17 4.27508 -3.81982 0
M  V30 10907 H 977.567 3.93246 -4.53297 0
M  V30 10908 H 978.637 2.58631 -4.10168 0
M  V30 10909 N 979.98 1.24838 0.961938 0
M  V30 10910 C 980.91 1.07053 2.07514 0
M  V30 10911 C 981.891 -0.0182465 1.7009 0
M  V30 10912 O 983.076 0.149915 1.9362 0
M  V30 10913 C 980.206 0.680693 3.40564 0
M  V30 10914 C 979.16 1.71889 3.91967 0
M  V30 10915 C 978.486 1.18395 5.21428 0
M  V30 10916 C 979.786 3.1161 4.19161 0
M  V30 10917 H 981.48 2.00167 2.22651 0
M  V30 10918 H 979.026 0.963799 1.0699 0
M  V30 10919 H 980.979 0.54324 4.17884 0
M  V30 10920 H 979.703 -0.28615 3.25344 0
M  V30 10921 H 978.362 1.84465 3.16809 0
M  V30 10922 H 978.01 0.207543 5.02572 0
M  V30 10923 H 977.71 1.87778 5.56788 0
M  V30 10924 H 979.234 1.05873 6.01351 0
M  V30 10925 H 980.648 3.0223 4.87165 0
M  V30 10926 H 979.045 3.78398 4.65763 0
M  V30 10927 H 980.115 3.59218 3.25715 0
M  V30 10928 N 981.458 -1.16348 1.06306 0
M  V30 10929 C 982.704 -1.87397 0.79082 0
M  V30 10930 C 983.059 -1.80156 -0.675382 0
M  V30 10931 O 982.352 -1.20644 -1.48847 0
M  V30 10932 C 982.546 -3.35936 1.21991 0
M  V30 10933 C 982.375 -3.57637 2.72628 0
M  V30 10934 C 981.145 -3.73717 3.40094 0
M  V30 10935 C 983.343 -3.56345 3.70841 0
M  V30 10936 N 981.325 -3.83369 4.7948 0
M  V30 10937 C 982.696 -3.71983 4.96013 0
M  V30 10938 C 984.751 -3.39558 3.64149 0
M  V30 10939 C 983.454 -3.7257 6.15292 0
M  V30 10940 C 985.48 -3.41439 4.8288 0
M  V30 10941 C 984.842 -3.57596 6.06881 0
M  V30 10942 H 980.941 -0.703355 0.341782 0
M  V30 10943 H 983.525 -1.39597 1.35723 0
M  V30 10944 H 981.696 -3.82378 0.681319 0
M  V30 10945 H 983.428 -3.94649 0.896319 0
M  V30 10946 H 980.183 -3.74045 2.90495 0
M  V30 10947 H 980.607 -3.91964 5.5199 0
M  V30 10948 H 985.249 -3.25994 2.69235 0
M  V30 10949 H 982.967 -3.84916 7.10539 0
M  V30 10950 H 986.553 -3.29693 4.79368 0
M  V30 10951 H 985.433 -3.58971 6.97216 0
M  V30 10952 N 982.937 -0.845659 -1.3299 0
M  V30 10953 C 983.847 -0.2864 -2.32845 0
M  V30 10954 C 984.863 0.591105 -1.63652 0
M  V30 10955 O 986.039 0.493615 -1.95257 0
M  V30 10956 C 983.104 0.523636 -3.42723 0
M  V30 10957 C 982.165 -0.378945 -4.27624 0
M  V30 10958 C 981.398 0.392526 -5.32255 0
M  V30 10959 O 981.621 1.6235 -5.46808 0
M  V30 10960 O 980.555 -0.237 -6.01433 0
M  V30 10961 H 984.381 -1.11346 -2.82552 0
M  V30 10962 H 981.966 -0.608356 -1.36453 0
M  V30 10963 H 983.848 0.983718 -4.09757 0
M  V30 10964 H 982.523 1.32764 -2.95221 0
M  V30 10965 H 981.43 -0.887012 -3.63432 0
M  V30 10966 H 982.763 -1.1479 -4.78627 0
M  V30 10967 N 984.415 1.45619 -0.602734 0
M  V30 10968 C 985.831 1.57368 -0.26599 0
M  V30 10969 C 986.031 1.59485 1.23154 0
M  V30 10970 O 985.087 1.52254 2.01432 0
M  V30 10971 C 986.4 2.85863 -0.932881 0
M  V30 10972 C 987.948 2.9953 -0.908344 0
M  V30 10973 C 988.423 4.30789 -1.55515 0
M  V30 10974 N 989.914 4.37536 -1.52042 0
M  V30 10975 C 990.649 5.37758 -1.99008 0
M  V30 10976 N 990.145 6.44544 -2.54038 0
M  V30 10977 N 991.938 5.29085 -1.89805 0
M  V30 10978 H 984.089 1.42489 -1.57514 0
M  V30 10979 H 986.352 0.680948 -0.659556 0
M  V30 10980 H 986.058 2.90183 -1.98713 0
M  V30 10981 H 985.932 3.74467 -0.453209 0
M  V30 10982 H 988.319 2.9478 0.137344 0
M  V30 10983 H 988.4 2.12349 -1.42623 0
M  V30 10984 H 988.044 4.36297 -2.60014 0
M  V30 10985 H 987.974 5.16778 -1.01232 0
M  V30 10986 H 990.465 3.60972 -1.11837 0
M  V30 10987 H 990.778 7.17258 -2.87682 0
M  V30 10988 H 989.123 6.45308 -2.58075 0
M  V30 10989 H 992.314 4.44566 -1.46556 0
M  V30 10990 H 992.487 6.07043 -2.26722 0
M  V30 10991 N 985.893 0.34162 1.53853 0
M  V30 10992 C 987.139 -0.255862 2.01179 0
M  V30 10993 C 987.472 -1.50356 1.22909 0
M  V30 10994 O 986.747 -1.91913 0.316198 0
M  V30 10995 C 987.03 -0.571934 3.55529 0
M  V30 10996 C 986.883 0.687727 4.44511 0
M  V30 10997 C 988.202 -1.38233 4.17827 0
M  V30 10998 H 985.321 -0.091521 0.731295 0
M  V30 10999 H 987.963 0.461775 1.84303 0
M  V30 11000 H 986.113 -1.18331 3.70041 0
M  V30 11001 H 987.785 1.32572 4.4184 0
M  V30 11002 H 986.028 1.313 4.13452 0
M  V30 11003 H 986.699 0.421858 5.50386 0
M  V30 11004 H 989.175 -0.865374 4.07002 0
M  V30 11005 H 988.051 -1.57223 5.25901 0
M  V30 11006 H 988.312 -2.38386 3.72323 0
M  V30 11007 N 987.371 -1.57444 0.0701946 0
M  V30 11008 C 988.281 -2.16132 -0.912377 0
M  V30 11009 C 989.297 -1.12406 -1.32819 0
M  V30 11010 O 990.473 -1.44665 -1.40121 0
M  V30 11011 C 987.538 -2.71008 -2.16231 0
M  V30 11012 C 986.599 -3.896 -1.80306 0
M  V30 11013 C 985.832 -4.4185 -2.9934 0
M  V30 11014 O 986.055 -3.93106 -4.13309 0
M  V30 11015 O 984.989 -5.33201 -2.7925 0
M  V30 11016 H 988.815 -3.00449 -0.443167 0
M  V30 11017 H 986.4 -1.48617 -0.152786 0
M  V30 11018 H 988.282 -3.06186 -2.8953 0
M  V30 11019 H 986.957 -1.8975 -2.62253 0
M  V30 11020 H 985.864 -3.59277 -1.04264 0
M  V30 11021 H 987.197 -4.72145 -1.39068 0
M  V30 11022 N 988.849 0.203349 -1.56283 0
M  V30 11023 C 989.796 1.25205 -1.93888 0
M  V30 11024 C 990.766 1.45654 -0.798376 0
M  V30 11025 O 991.951 1.58924 -1.05583 0
M  V30 11026 C 989.091 2.59355 -2.27659 0
M  V30 11027 C 988.204 2.46553 -3.54733 0
M  V30 11028 C 987.339 3.73351 -3.77865 0
M  V30 11029 C 986.378 3.55347 -4.98392 0
M  V30 11030 N 985.515 4.74137 -5.17821 0
M  V30 11031 H 990.355 0.924356 -2.83301 0
M  V30 11032 H 987.892 0.445082 -1.40205 0
M  V30 11033 H 989.85 3.375 -2.45254 0
M  V30 11034 H 988.48 2.90184 -1.41396 0
M  V30 11035 H 987.532 1.59749 -3.45231 0
M  V30 11036 H 988.844 2.2918 -4.43033 0
M  V30 11037 H 987.998 4.59937 -3.95655 0
M  V30 11038 H 986.737 3.9367 -2.8788 0
M  V30 11039 H 985.742 2.67146 -4.80534 0
M  V30 11040 H 986.967 3.36482 -5.89879 0
M  V30 11041 H 984.913 4.94735 -4.30782 0
M  V30 11042 H 984.83 4.59558 -6.00285 0
M  V30 11043 H 986.098 5.62098 -5.40061 0
M  V30 11044 N 990.327 1.50405 0.470755 0
M  V30 11045 C 991.257 1.72222 1.57676 0
M  V30 11046 C 992.238 0.57121 1.60222 0
M  V30 11047 O 993.423 0.810381 1.76484 0
M  V30 11048 C 990.553 1.81666 2.95998 0
M  V30 11049 C 989.507 2.96857 3.08318 0
M  V30 11050 C 988.833 2.91445 4.4829 0
M  V30 11051 C 990.133 4.37361 2.85504 0
M  V30 11052 H 991.827 2.64825 1.39671 0
M  V30 11053 H 989.373 1.27438 0.67049 0
M  V30 11054 H 991.326 1.95514 3.73299 0
M  V30 11055 H 990.05 0.856856 3.1516 0
M  V30 11056 H 988.709 2.82661 2.33449 0
M  V30 11057 H 988.357 1.93309 4.64371 0
M  V30 11058 H 988.057 3.68776 4.57469 0
M  V30 11059 H 989.581 3.07341 5.27611 0
M  V30 11060 H 990.995 4.52081 3.52555 0
M  V30 11061 H 989.392 5.16145 3.06127 0
M  V30 11062 H 990.462 4.49708 1.81359 0
M  V30 11063 N 991.805 -0.723954 1.39988 0
M  V30 11064 C 993.051 -1.48591 1.38017 0
M  V30 11065 C 993.384 -1.94189 -0.0203522 0
M  V30 11066 O 992.659 -1.67572 -0.987422 0
M  V30 11067 C 992.942 -2.71786 2.36229 0
M  V30 11068 C 992.795 -2.32136 3.8527 0
M  V30 11069 C 994.114 -3.73921 2.32102 0
M  V30 11070 H 991.233 -0.538993 0.502648 0
M  V30 11071 H 993.875 -0.826908 1.71062 0
M  V30 11072 H 992.025 -3.28015 2.0818 0
M  V30 11073 H 993.697 -1.81454 4.24113 0
M  V30 11074 H 991.94 -1.64234 4.01509 0
M  V30 11075 H 992.611 -3.20406 4.49493 0
M  V30 11076 H 995.087 -3.27303 2.56928 0
M  V30 11077 H 993.963 -4.5777 3.02882 0
M  V30 11078 H 994.224 -4.21627 1.32979 0
M  V30 11079 N 993.283 -1.25346 -0.955304 0
M  V30 11080 C 994.694 -1.09173 -1.51453 0
M  V30 11081 C 995.045 0.332755 -1.93358 0
M  V30 11082 O 994.17 1.22264 -1.78551 0
M  V30 11083 C 994.765 -1.97564 -2.75234 0
M  V30 11084 C 993.324 -1.85579 -3.27471 0
M  V30 11085 C 992.471 -1.91755 -2.00313 0
M  V30 11086 H 995.422 -1.38642 -0.772271 0
M  V30 11087 H 995.443 -1.51523 -3.49029 0
M  V30 11088 H 994.955 -3.01233 -2.44704 0
M  V30 11089 H 993.056 -0.847906 -3.62824 0
M  V30 11090 H 993.169 -2.70353 -3.95533 0
M  V30 11091 H 991.533 -1.35633 -2.15582 0
M  V30 11092 H 992.316 -2.97028 -1.72132 0
M  V30 11093 N 994.761 1.15782 -1.06922 0
M  V30 11094 C 996.177 1.38454 -0.793896 0
M  V30 11095 C 996.377 1.92238 0.603875 0
M  V30 11096 O 995.433 2.1253 1.36335 0
M  V30 11097 C 996.746 2.3595 -1.86408 0
M  V30 11098 C 998.294 2.49622 -1.88833 0
M  V30 11099 C 998.769 3.50406 -2.94923 0
M  V30 11100 N 1000.26 3.57938 -2.93997 0
M  V30 11101 C 1001 4.35728 -3.72731 0
M  V30 11102 N 1000.49 5.16888 -4.61301 0
M  V30 11103 N 1002.28 4.30774 -3.61096 0
M  V30 11104 H 994.435 0.792101 -1.97077 0
M  V30 11105 H 996.698 0.410779 -0.85438 0
M  V30 11106 H 996.404 2.03537 -2.86819 0
M  V30 11107 H 996.278 3.35677 -1.72049 0
M  V30 11108 H 998.665 2.81335 -0.890759 0
M  V30 11109 H 998.746 1.49909 -2.0727 0
M  V30 11110 H 998.39 3.19429 -3.94877 0
M  V30 11111 H 998.32 4.49864 -2.73734 0
M  V30 11112 H 1000.81 3.00007 -2.29791 0
M  V30 11113 H 1001.12 5.73477 -5.18019 0
M  V30 11114 H 999.469 5.16209 -4.65353 0
M  V30 11115 H 1002.66 3.66432 -2.91282 0
M  V30 11116 H 1002.83 4.91151 -4.22699 0
M  V30 11117 N 996.239 0.8527 1.3254 0
M  V30 11118 C 997.65 0.510012 1.79599 0
M  V30 11119 C 998.001 -0.972002 1.70431 0
M  V30 11120 O 997.126 -1.7581 1.26173 0
M  V30 11121 C 997.721 0.918986 3.26098 0
M  V30 11122 C 996.28 0.628227 3.7112 0
M  V30 11123 C 995.427 1.11979 2.53685 0
M  V30 11124 H 998.378 1.04009 1.19866 0
M  V30 11125 H 998.399 0.234577 3.79776 0
M  V30 11126 H 997.911 1.99765 3.32739 0
M  V30 11127 H 996.012 -0.4398 3.69995 0
M  V30 11128 H 996.125 1.19315 4.64005 0
M  V30 11129 H 994.489 0.540133 2.48907 0
M  V30 11130 H 995.272 2.20552 2.63081 0
M  V30 11131 N 997.718 -1.45297 0.610449 0
M  V30 11132 C 998.966 -2.01819 0.106548 0
M  V30 11133 C 999.287 -1.48102 -1.26849 0
M  V30 11134 O 998.557 -0.676411 -1.83852 0
M  V30 11135 H 997.137 -0.746113 0.0363982 0
M  V30 11136 H 999.799 -1.78061 0.792491 0
M  V30 11137 H 998.895 -3.12045 0.0585 0
M  V30 11138 N 999.196 -0.349774 -1.5367 0
M  V30 11139 C 1000.42 0.248692 -2.05904 0
M  V30 11140 C 1000.85 1.42942 -1.22267 0
M  V30 11141 O 1000.2 1.79732 -0.237899 0
M  V30 11142 C 1000.25 0.635639 -3.54953 0
M  V30 11143 O 999.356 1.7349 -3.74132 0
M  V30 11144 H 998.697 0.0399477 -0.662797 0
M  V30 11145 H 1001.23 -0.505795 -1.9825 0
M  V30 11146 H 1001.24 0.911064 -3.97698 0
M  V30 11147 H 999.912 -0.227805 -4.15276 0
M  V30 11148 H 998.489 1.45626 -3.43289 0
M  V30 11149 N 1000.67 1.57404 -0.0785433 0
M  V30 11150 C 1001.92 1.93361 0.58786 0
M  V30 11151 C 1002.24 0.959856 1.6974 0
M  V30 11152 O 1001.51 0.0091173 1.95898 0
M  V30 11153 H 1000.09 0.713825 0.220141 0
M  V30 11154 H 1002.75 1.94411 -0.137986 0
M  V30 11155 H 1001.85 2.95346 1.00881 0
M  V30 11156 N 1002.15 -0.195058 1.56388 0
M  V30 11157 C 1003.38 -0.935745 1.85091 0
M  V30 11158 C 1003.8 -1.76061 0.662118 0
M  V30 11159 O 1003.16 -1.77076 -0.389083 0
M  V30 11160 C 1003.21 -1.80764 3.1202 0
M  V30 11161 O 1002.31 -2.90643 2.92575 0
M  V30 11162 H 1001.65 -0.26351 0.609474 0
M  V30 11163 H 1004.18 -0.200362 2.03617 0
M  V30 11164 H 1004.19 -2.21229 3.42815 0
M  V30 11165 H 1002.87 -1.20157 3.98165 0
M  V30 11166 H 1001.44 -2.53934 2.73079 0
M  V30 11167 N 1003.63 -1.50653 -0.462772 0
M  V30 11168 C 1004.85 -1.66103 -1.24196 0
M  V30 11169 C 1005.28 -0.347421 -1.84864 0
M  V30 11170 O 1004.64 0.689673 -1.6767 0
M  V30 11171 C 1004.69 -2.76027 -2.32037 0
M  V30 11172 O 1003.79 -2.37859 -3.36893 0
M  V30 11173 H 1003.13 -0.554672 -0.365014 0
M  V30 11174 H 1005.66 -1.97076 -0.549734 0
M  V30 11175 H 1005.67 -2.99354 -2.77221 0
M  V30 11176 H 1004.35 -3.71361 -1.87253 0
M  V30 11177 H 1002.92 -2.2501 -2.97363 0
M  V30 11178 N 1005.11 0.71652 -1.4037 0
M  V30 11179 C 1006.33 1.51069 -1.42102 0
M  V30 11180 C 1006.76 1.88087 -0.0222387 0
M  V30 11181 O 1006.12 1.53204 0.969448 0
M  V30 11182 C 1006.16 2.76307 -2.31704 0
M  V30 11183 O 1005.27 3.72975 -1.75964 0
M  V30 11184 H 1004.61 0.455502 -0.483129 0
M  V30 11185 H 1007.14 0.882514 -1.84588 0
M  V30 11186 H 1007.15 3.24846 -2.46859 0
M  V30 11187 H 1005.82 2.48698 -3.3335 0
M  V30 11188 H 1004.4 3.31818 -1.70151 0
M  V30 11189 N 1006.59 1.25851 0.948643 0
M  V30 11190 C 1007.83 1.10735 1.69062 0
M  V30 11191 C 1008.16 -0.351257 1.9181 0
M  V30 11192 O 1007.43 -1.24867 1.50947 0
M  V30 11193 H 1006.01 0.406796 0.626519 0
M  V30 11194 H 1008.67 1.58066 1.14022 0
M  V30 11195 H 1007.76 1.62033 2.66743 0
M  V30 11196 N 1008.06 -1.15214 1.07534 0
M  V30 11197 C 1009.29 -1.90463 0.820883 0
M  V30 11198 C 1009.71 -1.77578 -0.620305 0
M  V30 11199 O 1009.07 -1.10976 -1.43366 0
M  V30 11200 C 1009.12 -3.38746 1.23627 0
M  V30 11201 O 1008.22 -4.1062 0.382715 0
M  V30 11202 H 1007.57 -0.59292 0.298901 0
M  V30 11203 H 1010.1 -1.45893 1.43445 0
M  V30 11204 H 1010.11 -3.89543 1.21327 0
M  V30 11205 H 1008.78 -3.47443 2.28596 0
M  V30 11206 H 1007.36 -3.69947 0.468374 0
M  V30 11207 N 1009.54 -0.859717 -1.32086 0
M  V30 11208 C 1010.77 -0.478865 -2.01796 0
M  V30 11209 C 1011.19 0.918274 -1.64163 0
M  V30 11210 O 1010.55 1.60409 -0.844896 0
M  V30 11211 C 1010.6 -0.631356 -3.5503 0
M  V30 11212 O 1009.7 0.333712 -4.11048 0
M  V30 11213 H 1009.04 -0.191775 -0.635703 0
M  V30 11214 H 1011.57 -1.16031 -1.68517 0
M  V30 11215 H 1011.58 -0.520783 -4.04663 0
M  V30 11216 H 1010.26 -1.65015 -3.81763 0
M  V30 11217 H 1008.84 0.178953 -3.7247 0
M  V30 11218 N 1011.02 1.44971 -0.618145 0
M  V30 11219 C 1011.97 2.32354 0.106846 0
M  V30 11220 C 1012.96 1.4659 0.848984 0
M  V30 11221 O 1014.17 1.63012 0.763354 0
M  V30 11222 H 1010.54 0.750108 0.0533109 0
M  V30 11223 H 1012.51 2.9127 -0.648426 0
M  V30 11224 C 1011.26 3.30381 1.08368 0
M  V30 11225 H 1010.59 3.96377 0.52205 0
M  V30 11226 H 1012.03 3.94231 1.56069 0
M  V30 11227 C 1010.49 2.58336 2.1625 0
M  V30 11228 O 1011.02 2.37258 3.24148 0
M  V30 11229 N 1009.22 2.18292 1.91825 0
M  V30 11230 H 1008.77 2.35635 1.04086 0
M  V30 11231 H 1008.73 1.70413 2.6421 0
M  V30 11232 N 1012.5 0.357919 1.53482 0
M  V30 11233 C 1013.72 -0.237769 2.06033 0
M  V30 11234 C 1014.15 -1.42292 1.23023 0
M  V30 11235 O 1013.51 -1.79604 0.247427 0
M  V30 11236 C 1013.55 -0.616806 3.55286 0
M  V30 11237 O 1012.66 -1.71503 3.75047 0
M  V30 11238 H 1012 -0.0364322 0.663 0
M  V30 11239 H 1014.53 0.516301 1.97979 0
M  V30 11240 H 1014.54 -0.88996 3.98175 0
M  V30 11241 H 1013.21 0.249825 4.15149 0
M  V30 11242 H 1011.79 -1.43803 3.44057 0
M  V30 11243 N 1013.98 -1.5736 0.0868897 0
M  V30 11244 C 1015.22 -1.9367 -0.577598 0
M  V30 11245 C 1015.55 -0.968844 -1.69229 0
M  V30 11246 O 1014.82 -0.0195061 -1.9589 0
M  V30 11247 H 1013.4 -0.714983 -0.216353 0
M  V30 11248 H 1016.06 -1.94335 0.148294 0
M  V30 11249 H 1015.15 -2.95877 -0.993128 0
M  V30 11250 N 1015.45 0.186762 -1.56489 0
M  V30 11251 C 1016.68 0.925916 -1.85584 0
M  V30 11252 C 1017.1 1.75708 -0.671446 0
M  V30 11253 O 1016.46 1.7728 0.379687 0
M  V30 11254 C 1016.51 1.79107 -3.12975 0
M  V30 11255 O 1015.61 2.89088 -2.94112 0
M  V30 11256 H 1014.96 0.260275 -0.610863 0
M  V30 11257 H 1017.49 0.189561 -2.0372 0
M  V30 11258 H 1017.5 2.19408 -3.43983 0
M  V30 11259 H 1016.17 1.18044 -3.98796 0
M  V30 11260 H 1014.75 2.52482 -2.74422 0
M  V30 11261 N 1016.93 1.50896 0.454776 0
M  V30 11262 C 1017.86 1.6712 1.56855 0
M  V30 11263 C 1018.88 0.552223 1.53148 0
M  V30 11264 O 1020.07 0.825969 1.5824 0
M  V30 11265 C 1017.17 1.65464 2.95762 0
M  V30 11266 C 1016.34 2.93662 3.24163 0
M  V30 11267 C 1015.4 2.84428 4.42704 0
M  V30 11268 O 1014.42 3.58382 4.42211 0
M  V30 11269 N 1015.63 1.9909 5.45292 0
M  V30 11270 H 1018.39 2.63194 1.43349 0
M  V30 11271 H 1015.95 1.48564 0.643457 0
M  V30 11272 H 1017.94 1.56878 3.73057 0
M  V30 11273 H 1016.51 0.770568 3.02954 0
M  V30 11274 H 1015.73 3.16251 2.35328 0
M  V30 11275 H 1017.02 3.78558 3.39957 0
M  V30 11276 H 1016.42 1.3835 5.48521 0
M  V30 11277 H 1014.98 1.96396 6.21508 0
M  V30 11278 N 1018.41 -0.709066 1.40748 0
M  V30 11279 C 1019.82 -1.28847 1.35112 0
M  V30 11280 C 1020.17 -1.9618 0.0277149 0
M  V30 11281 O 1019.3 -1.97955 -0.874233 0
M  V30 11282 C 1019.89 -2.34306 2.44716 0
M  V30 11283 C 1018.45 -2.87856 2.4252 0
M  V30 11284 C 1017.6 -1.61723 2.25257 0
M  V30 11285 H 1020.55 -0.504742 1.50459 0
M  V30 11286 H 1020.57 -3.15297 2.12998 0
M  V30 11287 H 1020.08 -1.85271 3.41022 0
M  V30 11288 H 1018.18 -3.41103 1.49931 0
M  V30 11289 H 1018.3 -3.39205 3.38344 0
M  V30 11290 H 1016.66 -1.87032 1.7289 0
M  V30 11291 H 1017.44 -1.14703 3.23571 0
M  V30 11292 N 1019.89 -1.26353 -0.941956 0
M  V30 11293 C 1021.14 -1.1163 -1.68473 0
M  V30 11294 C 1021.46 0.34108 -1.91994 0
M  V30 11295 O 1020.73 1.24065 -1.51607 0
M  V30 11296 H 1019.31 -0.410113 -0.624353 0
M  V30 11297 H 1021.97 -1.58669 -1.13182 0
M  V30 11298 H 1021.07 -1.63445 -2.6588 0
M  V30 11299 N 1021.37 1.14642 -1.08144 0
M  V30 11300 C 1022.59 1.90025 -0.830972 0
M  V30 11301 C 1023.02 1.77904 0.610879 0
M  V30 11302 O 1022.38 1.11735 1.42776 0
M  V30 11303 C 1022.42 3.38085 -1.25422 0
M  V30 11304 O 1021.53 4.10412 -0.404486 0
M  V30 11305 H 1020.87 0.591327 -0.302041 0
M  V30 11306 H 1023.4 1.4513 -1.44216 0
M  V30 11307 H 1023.41 3.88894 -1.23391 0
M  V30 11308 H 1022.08 3.46226 -2.30435 0
M  V30 11309 H 1020.66 3.69693 -0.487987 0
M  V30 11310 N 1022.85 0.866709 1.31628 0
M  V30 11311 C 1023.8 0.291712 2.26126 0
M  V30 11312 C 1024.78 -0.569375 1.50489 0
M  V30 11313 O 1025.97 -0.416786 1.72023 0
M  V30 11314 C 1023.1 -0.508624 3.39511 0
M  V30 11315 C 1022.19 0.365524 4.22522 0
M  V30 11316 N 1022.58 1.45747 4.84346 0
M  V30 11317 C 1020.88 0.157384 4.45722 0
M  V30 11318 C 1021.58 1.99625 5.46374 0
M  V30 11319 N 1020.55 1.29371 5.27981 0
M  V30 11320 H 1024.35 1.12633 2.71461 0
M  V30 11321 H 1021.87 0.714118 1.45857 0
M  V30 11322 H 1023.87 -0.937057 4.06233 0
M  V30 11323 H 1022.53 -1.34089 2.9572 0
M  V30 11324 H 1023.54 1.84039 4.84097 0
M  V30 11325 H 1020.21 -0.639193 4.12578 0
M  V30 11326 H 1021.6 2.91222 6.05508 0
M  V30 11327 N 1024.32 -1.44642 0.625825 0
M  V30 11328 C 1025.73 -1.85502 0.211175 0
M  V30 11329 C 1026.09 -1.52356 -1.2362 0
M  V30 11330 O 1025.21 -0.959051 -1.93988 0
M  V30 11331 C 1025.81 -3.36702 0.37648 0
M  V30 11332 C 1024.36 -3.76396 0.0163795 0
M  V30 11333 C 1023.51 -2.68517 0.692368 0
M  V30 11334 H 1026.46 -1.35183 0.831333 0
M  V30 11335 H 1026.48 -3.78536 -0.386106 0
M  V30 11336 H 1026 -3.60795 1.42999 0
M  V30 11337 H 1024.1 -3.57919 -1.0356 0
M  V30 11338 H 1024.21 -4.77231 0.422742 0
M  V30 11339 H 1022.57 -2.54377 0.128191 0
M  V30 11340 H 1023.36 -2.95444 1.74837 0
M  V30 11341 N 1025.8 -0.366053 -1.5329 0
M  V30 11342 C 1027.05 0.223051 -2.00865 0
M  V30 11343 C 1027.37 1.49244 -1.25504 0
M  V30 11344 O 1026.64 1.92404 -0.368444 0
M  V30 11345 H 1025.22 0.085413 -0.742101 0
M  V30 11346 H 1027.88 -0.492396 -1.88578 0
M  V30 11347 H 1026.98 0.449701 -3.08843 0
M  V30 11348 N 1027.28 1.57312 -0.0952337 0
M  V30 11349 C 1028.5 1.99119 0.580206 0
M  V30 11350 C 1028.93 0.973955 1.60922 0
M  V30 11351 O 1028.29 -0.0575338 1.81209 0
M  V30 11352 C 1028.34 3.39893 1.20438 0
M  V30 11353 O 1027.44 3.40941 2.32019 0
M  V30 11354 H 1026.78 0.64748 0.147195 0
M  V30 11355 H 1029.31 2.03836 -0.176686 0
M  V30 11356 H 1029.32 3.7759 1.54564 0
M  V30 11357 H 1028 4.13453 0.450514 0
M  V30 11358 H 1026.57 3.1504 1.9951 0
M  V30 11359 N 1028.76 -0.17846 1.56586 0
M  V30 11360 C 1029.69 -1.24547 1.92408 0
M  V30 11361 C 1030.7 -1.40849 0.816421 0
M  V30 11362 O 1031.89 -1.40979 1.09486 0
M  V30 11363 C 1028.99 -2.61523 2.15544 0
M  V30 11364 C 1028.16 -2.66613 3.46751 0
M  V30 11365 C 1027.22 -3.84901 3.588 0
M  V30 11366 O 1026.25 -3.71231 4.31482 0
M  V30 11367 N 1027.45 -5.0106 2.9312 0
M  V30 11368 H 1030.22 -0.941275 2.84535 0
M  V30 11369 H 1027.78 -0.368275 1.57656 0
M  V30 11370 H 1029.77 -3.3911 2.20876 0
M  V30 11371 H 1028.34 -2.84362 1.29835 0
M  V30 11372 H 1027.56 -1.75174 3.5314 0
M  V30 11373 H 1028.85 -2.67018 4.33104 0
M  V30 11374 H 1028.25 -5.15067 2.33928 0
M  V30 11375 H 1026.8 -5.76535 3.04057 0
M  V30 11376 N 1030.24 -1.51135 -0.446768 0
M  V30 11377 C 1031.46 -1.67411 -1.22427 0
M  V30 11378 C 1031.89 -0.367009 -1.84485 0
M  V30 11379 O 1031.24 0.67185 -1.68392 0
M  V30 11380 C 1031.29 -2.78473 -2.29096 0
M  V30 11381 O 1030.4 -2.41419 -3.34351 0
M  V30 11382 H 1029.74 -0.558512 -0.359111 0
M  V30 11383 H 1032.27 -1.97648 -0.5288 0
M  V30 11384 H 1032.28 -3.02277 -2.7403 0
M  V30 11385 H 1030.95 -3.73326 -1.83304 0
M  V30 11386 H 1029.53 -2.28152 -2.9496 0
M  V30 11387 N 1031.71 0.701592 -1.41122 0
M  V30 11388 C 1032.96 1.45871 -1.39879 0
M  V30 11389 C 1033.28 1.94999 -0.00668769 0
M  V30 11390 O 1032.55 1.71298 0.95047 0
M  V30 11391 H 1031.13 0.541231 -0.514857 0
M  V30 11392 H 1033.79 0.830803 -1.76306 0
M  V30 11393 H 1032.89 2.32479 -2.0823 0
M  V30 11394 N 1033.19 1.2685 0.935242 0
M  V30 11395 C 1034.42 1.15645 1.72165 0
M  V30 11396 C 1034.84 -0.283909 1.85945 0
M  V30 11397 O 1034.2 -1.20567 1.354 0
M  V30 11398 C 1034.25 1.83689 3.10307 0
M  V30 11399 O 1033.35 1.12972 3.96625 0
M  V30 11400 H 1032.69 0.402629 0.528002 0
M  V30 11401 H 1035.22 1.67781 1.17093 0
M  V30 11402 H 1035.23 1.90749 3.60664 0
M  V30 11403 H 1033.91 2.88472 2.99595 0
M  V30 11404 H 1032.48 1.13929 3.5507 0
M  V30 11405 N 1034.67 -1.14067 1.0875 0
M  V30 11406 C 1035.92 -1.84819 0.817698 0
M  V30 11407 C 1036.24 -1.83545 -0.658488 0
M  V30 11408 O 1035.51 -1.28633 -1.47751 0
M  V30 11409 H 1034.09 -0.68433 0.299502 0
M  V30 11410 H 1036.75 -1.38208 1.37421 0
M  V30 11411 H 1035.85 -2.89541 1.16501 0
M  V30 11412 N 1036.15 -0.873678 -1.31166 0
M  V30 11413 C 1037.06 -0.335726 -2.32185 0
M  V30 11414 C 1038.07 0.556259 -1.64869 0
M  V30 11415 O 1039.25 0.452087 -1.9626 0
M  V30 11416 C 1036.32 0.450822 -3.43756 0
M  V30 11417 C 1035.38 -0.469565 -4.26724 0
M  V30 11418 C 1034.61 0.279538 -5.32967 0
M  V30 11419 O 1034.83 1.50715 -5.50128 0
M  V30 11420 O 1033.77 -0.36452 -6.00795 0
M  V30 11421 H 1037.59 -1.17314 -2.80127 0
M  V30 11422 H 1035.18 -0.637163 -1.35132 0
M  V30 11423 H 1037.06 0.896582 -4.11752 0
M  V30 11424 H 1035.73 1.26472 -2.9797 0
M  V30 11425 H 1034.64 -0.963902 -3.61469 0
M  V30 11426 H 1035.97 -1.24916 -4.76085 0
M  V30 11427 N 1037.63 1.44308 -0.633487 0
M  V30 11428 C 1039.04 1.56768 -0.29931 0
M  V30 11429 C 1039.24 1.62061 1.19743 0
M  V30 11430 O 1038.3 1.56492 1.98158 0
M  V30 11431 C 1039.61 2.8382 -0.993307 0
M  V30 11432 C 1041.16 2.97536 -0.971674 0
M  V30 11433 C 1041.63 4.27393 -1.64618 0
M  V30 11434 N 1043.13 4.34212 -1.61288 0
M  V30 11435 C 1043.86 5.33415 -2.1037 0
M  V30 11436 N 1043.36 6.3901 -2.67653 0
M  V30 11437 N 1045.15 5.24939 -2.00985 0
M  V30 11438 H 1037.3 1.39115 -1.60501 0
M  V30 11439 H 1039.56 0.666804 -0.673852 0
M  V30 11440 H 1039.27 2.85902 -2.04823 0
M  V30 11441 H 1039.14 3.73422 -0.532537 0
M  V30 11442 H 1041.53 2.95005 0.0747854 0
M  V30 11443 H 1041.61 2.09276 -1.47096 0
M  V30 11444 H 1041.26 4.30683 -2.6921 0
M  V30 11445 H 1041.19 5.14515 -1.12171 0
M  V30 11446 H 1043.68 3.58519 -1.19468 0
M  V30 11447 H 1043.99 7.10994 -3.02831 0
M  V30 11448 H 1042.33 6.39689 -2.71705 0
M  V30 11449 H 1045.53 4.41357 -1.55953 0
M  V30 11450 H 1045.7 6.02097 -2.39547 0
M  V30 11451 N 1039.1 0.374177 1.53094 0
M  V30 11452 C 1040.35 -0.212816 2.01379 0
M  V30 11453 C 1040.68 -1.48069 1.26118 0
M  V30 11454 O 1039.93 -1.92625 0.345561 0
M  V30 11455 C 1040.23 -0.542179 3.53264 0
M  V30 11456 C 1039.9 0.632375 4.46444 0
M  V30 11457 C 1038.56 0.954635 4.71636 0
M  V30 11458 C 1040.91 1.41887 5.01515 0
M  V30 11459 C 1038.24 2.06521 5.4915 0
M  V30 11460 C 1040.59 2.51993 5.80243 0
M  V30 11461 C 1039.26 2.84744 6.03719 0
M  V30 11462 H 1038.53 -0.0778749 0.736897 0
M  V30 11463 H 1041.17 0.508412 1.84628 0
M  V30 11464 H 1039.48 -1.34454 3.68007 0
M  V30 11465 H 1041.18 -1.00874 3.88105 0
M  V30 11466 H 1037.77 0.371179 4.2699 0
M  V30 11467 H 1041.95 1.18315 4.81991 0
M  V30 11468 H 1037.21 2.32284 5.65557 0
M  V30 11469 H 1041.38 3.13346 6.21922 0
M  V30 11470 H 1039.01 3.70921 6.63568 0
M  V30 11471 N 1040.58 -1.57259 0.103575 0
M  V30 11472 C 1042 -1.57581 -0.253062 0
M  V30 11473 C 1042.2 -1.11531 -1.67819 0
M  V30 11474 O 1041.25 -0.795632 -2.39637 0
M  V30 11475 C 1042.57 -3.00681 -0.0337753 0
M  V30 11476 C 1044.12 -3.12837 -0.10087 0
M  V30 11477 C 1044.59 -4.57911 0.0905295 0
M  V30 11478 N 1046.08 -4.63186 0.0359789 0
M  V30 11479 C 1046.82 -5.73179 0.159199 0
M  V30 11480 N 1046.31 -6.91976 0.337728 0
M  V30 11481 N 1048.11 -5.62011 0.0998662 0
M  V30 11482 H 1040.26 -1.85499 1.0346 0
M  V30 11483 H 1042.52 -0.856584 0.406163 0
M  V30 11484 H 1042.23 -3.38602 0.950858 0
M  V30 11485 H 1042.1 -3.69207 -0.772406 0
M  V30 11486 H 1044.49 -2.74783 -1.07601 0
M  V30 11487 H 1044.57 -2.46886 0.66939 0
M  V30 11488 H 1044.21 -4.9666 1.06258 0
M  V30 11489 H 1044.14 -5.21933 -0.699528 0
M  V30 11490 H 1046.63 -3.7777 -0.099121 0
M  V30 11491 H 1046.95 -7.71641 0.423032 0
M  V30 11492 H 1045.29 -6.93996 0.373504 0
M  V30 11493 H 1048.48 -4.68084 -0.0385356 0
M  V30 11494 H 1048.65 -6.47693 0.199342 0
M  V30 11495 N 1042.06 0.170153 -1.56679 0
M  V30 11496 C 1043.31 0.887906 -1.8233 0
M  V30 11497 C 1043.64 1.81845 -0.681608 0
M  V30 11498 O 1042.91 1.9191 0.316362 0
M  V30 11499 C 1043.2 1.68256 -3.18374 0
M  V30 11500 C 1043.05 0.775059 -4.43072 0
M  V30 11501 C 1044.37 2.65001 -3.51372 0
M  V30 11502 H 1041.49 0.32135 -0.663252 0
M  V30 11503 H 1044.13 0.154065 -1.89374 0
M  V30 11504 H 1042.28 2.30817 -3.12499 0
M  V30 11505 H 1043.95 0.162234 -4.61015 0
M  V30 11506 H 1042.2 0.0831809 -4.3372 0
M  V30 11507 H 1042.87 1.36661 -5.34816 0
M  V30 11508 H 1045.34 2.12566 -3.57708 0
M  V30 11509 H 1044.22 3.17667 -4.47637 0
M  V30 11510 H 1044.48 3.45255 -2.76136 0
M  V30 11511 N 1043.54 1.5137 0.438746 0
M  V30 11512 C 1044.95 1.39514 0.775116 0
M  V30 11513 C 1045.15 0.47638 1.95788 0
M  V30 11514 O 1044.21 -0.0689832 2.52406 0
M  V30 11515 C 1045.52 2.81517 1.05681 0
M  V30 11516 C 1047.07 2.90658 1.16133 0
M  V30 11517 C 1047.55 4.33566 1.47597 0
M  V30 11518 N 1049.04 4.36665 1.54524 0
M  V30 11519 C 1049.77 5.4427 1.80438 0
M  V30 11520 N 1049.27 6.62037 2.04154 0
M  V30 11521 N 1051.06 5.31749 1.82208 0
M  V30 11522 H 1043.21 2.09657 -0.340237 0
M  V30 11523 H 1045.48 0.943736 -0.0898115 0
M  V30 11524 H 1045.18 3.50734 0.260441 0
M  V30 11525 H 1045.06 3.20757 1.98481 0
M  V30 11526 H 1047.44 2.2164 1.94833 0
M  V30 11527 H 1047.52 2.54917 0.212376 0
M  V30 11528 H 1047.17 5.03133 0.694251 0
M  V30 11529 H 1047.1 4.66819 2.43696 0
M  V30 11530 H 1049.59 3.51761 1.38105 0
M  V30 11531 H 1049.9 7.39838 2.23293 0
M  V30 11532 H 1048.25 6.65155 2.01479 0
M  V30 11533 H 1051.44 4.3873 1.63198 0
M  V30 11534 H 1051.61 6.15689 2.02067 0
M  V30 11535 N 1045.02 -0.694098 1.41492 0
M  V30 11536 C 1046.24 -1.48789 1.44488 0
M  V30 11537 C 1046.67 -1.88028 0.0521588 0
M  V30 11538 O 1046.02 -1.54727 -0.944952 0
M  V30 11539 C 1046.07 -2.72586 2.3607 0
M  V30 11540 O 1045.18 -3.70128 1.81876 0
M  V30 11541 H 1044.52 -0.447758 0.490315 0
M  V30 11542 H 1047.05 -0.853036 1.85969 0
M  V30 11543 H 1047.06 -3.20877 2.51995 0
M  V30 11544 H 1045.73 -2.43363 3.37264 0
M  V30 11545 H 1044.31 -3.29069 1.75408 0
M  V30 11546 N 1046.49 -1.27344 -0.928501 0
M  V30 11547 C 1047.72 -1.16557 -1.7155 0
M  V30 11548 C 1048.14 0.274044 -1.86093 0
M  V30 11549 O 1047.5 1.19847 -1.36038 0
M  V30 11550 C 1047.55 -1.85332 -3.09329 0
M  V30 11551 O 1046.65 -1.15074 -3.9602 0
M  V30 11552 H 1046 -0.405423 -0.525859 0
M  V30 11553 H 1048.53 -1.68399 -1.16202 0
M  V30 11554 H 1048.54 -1.92659 -3.59648 0
M  V30 11555 H 1047.21 -2.90056 -2.98061 0
M  V30 11556 H 1045.79 -1.1581 -3.54461 0
M  V30 11557 N 1047.97 1.13488 -1.09353 0
M  V30 11558 C 1049.2 1.89133 -0.85108 0
M  V30 11559 C 1049.62 1.78542 0.591976 0
M  V30 11560 O 1048.98 1.13243 1.41583 0
M  V30 11561 C 1049.03 3.36736 -1.29001 0
M  V30 11562 O 1048.13 4.09959 -0.447993 0
M  V30 11563 H 1047.47 0.58809 -0.308296 0
M  V30 11564 H 1050 1.43593 -1.45747 0
M  V30 11565 H 1050.01 3.87564 -1.27508 0
M  V30 11566 H 1048.69 3.43762 -2.34095 0
M  V30 11567 H 1047.27 3.69155 -0.52717 0
M  V30 11568 N 1049.45 0.880621 1.30701 0
M  V30 11569 C 1050.4 0.342397 2.28246 0
M  V30 11570 C 1051.37 -0.565023 1.56194 0
M  V30 11571 O 1052.55 -0.494377 1.84284 0
M  V30 11572 C 1049.69 -0.440859 3.42272 0
M  V30 11573 C 1048.81 0.495284 4.29151 0
M  V30 11574 C 1047.94 -0.303141 5.30334 0
M  V30 11575 C 1046.98 0.628751 6.08862 0
M  V30 11576 N 1046.12 -0.13408 7.01972 0
M  V30 11577 H 1050.96 1.17938 2.73669 0
M  V30 11578 H 1048.49 0.59296 1.34619 0
M  V30 11579 H 1050.45 -0.910854 4.07135 0
M  V30 11580 H 1049.08 -1.24245 2.97931 0
M  V30 11581 H 1048.13 1.08376 3.64635 0
M  V30 11582 H 1049.45 1.2094 4.83916 0
M  V30 11583 H 1048.6 -0.835181 6.00924 0
M  V30 11584 H 1047.34 -1.05049 4.76252 0
M  V30 11585 H 1046.34 1.17246 5.37153 0
M  V30 11586 H 1047.57 1.37512 6.65032 0
M  V30 11587 H 1045.52 -0.864046 6.50285 0
M  V30 11588 H 1045.43 0.520486 7.54206 0
M  V30 11589 H 1046.7 -0.647005 7.7681 0
M  V30 11590 N 1050.93 -1.4397 0.641131 0
M  V30 11591 C 1052.15 -2.06818 0.155318 0
M  V30 11592 C 1052.58 -1.47665 -1.16519 0
M  V30 11593 O 1051.94 -0.58192 -1.71707 0
M  V30 11594 C 1051.99 -3.60542 0.0647537 0
M  V30 11595 O 1051.09 -4.00674 -0.976447 0
M  V30 11596 H 1050.43 -0.657962 0.0893404 0
M  V30 11597 H 1052.96 -1.84678 0.88064 0
M  V30 11598 H 1052.97 -4.07816 -0.122552 0
M  V30 11599 H 1051.65 -4.02975 1.02878 0
M  V30 11600 H 1050.22 -3.65013 -0.762905 0
M  V30 11601 N 1052.41 -0.382291 -1.52893 0
M  V30 11602 C 1053.32 0.463745 -2.29971 0
M  V30 11603 C 1054.33 1.07777 -1.36602 0
M  V30 11604 O 1055.51 1.0851 -1.69669 0
M  V30 11605 C 1052.57 1.57938 -3.08637 0
M  V30 11606 C 1051.64 0.991182 -4.17701 0
M  V30 11607 C 1050.87 2.05365 -4.92606 0
M  V30 11608 O 1051.09 3.26757 -4.67532 0
M  V30 11609 O 1050.03 1.67487 -5.78128 0
M  V30 11610 H 1053.85 -0.163962 -3.03257 0
M  V30 11611 H 1051.44 -0.146199 -1.48683 0
M  V30 11612 H 1053.32 2.22765 -3.57706 0
M  V30 11613 H 1051.99 2.19218 -2.3817 0
M  V30 11614 H 1050.9 0.306364 -3.72843 0
M  V30 11615 H 1052.23 0.422699 -4.90382 0
M  V30 11616 N 1053.89 1.57202 -0.111913 0
M  V30 11617 C 1055.13 1.94565 0.546713 0
M  V30 11618 C 1055.45 0.995644 1.67666 0
M  V30 11619 O 1054.72 0.0506681 1.95834 0
M  V30 11620 H 1053.3 0.718334 0.204951 0
M  V30 11621 H 1055.97 1.94074 -0.179193 0
M  V30 11622 H 1055.06 2.9742 0.945931 0
M  V30 11623 N 1055.36 -0.161842 1.56767 0
M  V30 11624 C 1056.59 -0.896274 1.87034 0
M  V30 11625 C 1057.01 -1.74617 0.699314 0
M  V30 11626 O 1056.37 -1.77861 -0.351435 0
M  V30 11627 C 1056.42 -1.74105 3.15784 0
M  V30 11628 O 1055.52 -2.84372 2.98674 0
M  V30 11629 H 1054.86 -0.250523 0.614926 0
M  V30 11630 H 1057.39 -0.157127 2.03996 0
M  V30 11631 H 1057.4 -2.13907 3.4743 0
M  V30 11632 H 1056.08 -1.11684 4.00624 0
M  V30 11633 H 1054.66 -2.48084 2.78404 0
M  V30 11634 N 1056.84 -1.516 -0.430713 0
M  V30 11635 C 1058.25 -1.57 -1.01035 0
M  V30 11636 C 1058.6 -0.397439 -1.92132 0
M  V30 11637 O 1057.73 0.484954 -2.10896 0
M  V30 11638 C 1058.32 -2.84536 -1.83915 0
M  V30 11639 C 1056.88 -2.92485 -2.36917 0
M  V30 11640 C 1056.03 -2.5173 -1.16308 0
M  V30 11641 H 1058.98 -1.57281 -0.211734 0
M  V30 11642 H 1059 -2.68672 -2.69435 0
M  V30 11643 H 1058.51 -3.69858 -1.17586 0
M  V30 11644 H 1056.61 -2.11608 -3.0668 0
M  V30 11645 H 1056.73 -3.96277 -2.6926 0
M  V30 11646 H 1055.09 -2.05079 -1.51045 0
M  V30 11647 H 1055.87 -3.39403 -0.515793 0
M  V30 11648 N 1058.32 0.686584 -1.41858 0
M  V30 11649 C 1059.54 1.4802 -1.45275 0
M  V30 11650 C 1059.97 1.87997 -0.0621297 0
M  V30 11651 O 1059.33 1.55226 0.936733 0
M  V30 11652 C 1059.38 2.7133 -2.37513 0
M  V30 11653 O 1058.48 3.69159 -1.83836 0
M  V30 11654 H 1057.82 0.445152 -0.492682 0
M  V30 11655 H 1060.35 0.843161 -1.86419 0
M  V30 11656 H 1060.36 3.19537 -2.53693 0
M  V30 11657 H 1059.04 2.41571 -3.3855 0
M  V30 11658 H 1057.61 3.28134 -1.77151 0
M  V30 11659 N 1059.8 1.27835 0.921735 0
M  V30 11660 C 1060.73 1.06874 2.02758 0
M  V30 11661 C 1061.74 0.0229418 1.62784 0
M  V30 11662 O 1062.93 0.265145 1.7652 0
M  V30 11663 C 1060.03 0.60037 3.3354 0
M  V30 11664 C 1059.2 1.71979 4.02172 0
M  V30 11665 C 1058.26 1.24615 5.11231 0
M  V30 11666 O 1057.29 1.94692 5.34868 0
M  V30 11667 N 1058.49 0.105021 5.80405 0
M  V30 11668 H 1061.26 2.02105 2.213 0
M  V30 11669 H 1058.82 1.19481 1.09251 0
M  V30 11670 H 1060.81 0.267281 4.03816 0
M  V30 11671 H 1059.38 -0.258872 3.11526 0
M  V30 11672 H 1058.6 2.22287 3.25549 0
M  V30 11673 H 1059.89 2.47092 4.44773 0
M  V30 11674 H 1059.29 -0.479745 5.63662 0
M  V30 11675 H 1057.84 -0.168846 6.51581 0
M  V30 11676 N 1061.28 -1.12907 1.09954 0
M  V30 11677 C 1062.69 -1.363 0.830326 0
M  V30 11678 C 1062.89 -1.93772 -0.552694 0
M  V30 11679 O 1061.95 -2.1607 -1.30652 0
M  V30 11680 C 1063.26 -2.30925 1.92598 0
M  V30 11681 C 1064.81 -2.44528 1.95385 0
M  V30 11682 C 1065.28 -3.42464 3.0411 0
M  V30 11683 N 1066.77 -3.50018 3.03384 0
M  V30 11684 C 1067.51 -4.25693 3.84152 0
M  V30 11685 N 1067.01 -5.04476 4.74843 0
M  V30 11686 N 1068.8 -4.21049 3.7239 0
M  V30 11687 H 1060.95 -0.739571 1.99108 0
M  V30 11688 H 1063.21 -0.387983 0.86497 0
M  V30 11689 H 1062.92 -1.95861 2.92115 0
M  V30 11690 H 1062.79 -3.30997 1.80889 0
M  V30 11691 H 1065.18 -2.78875 0.965037 0
M  V30 11692 H 1065.26 -1.44361 2.11172 0
M  V30 11693 H 1064.9 -3.08847 4.03207 0
M  V30 11694 H 1064.83 -4.42448 2.85565 0
M  V30 11695 H 1067.33 -2.93809 2.37665 0
M  V30 11696 H 1067.64 -5.59541 5.33042 0
M  V30 11697 H 1065.98 -5.0369 4.78875 0
M  V30 11698 H 1069.17 -3.5858 3.00895 0
M  V30 11699 H 1069.35 -4.79771 4.35572 0
M  V30 11700 N 1062.75 -0.88754 -1.30232 0
M  V30 11701 C 1063.68 -0.372481 -2.3051 0
M  V30 11702 C 1064.66 0.546037 -1.61098 0
M  V30 11703 O 1065.85 0.459345 -1.88689 0
M  V30 11704 C 1062.98 0.411605 -3.44852 0
M  V30 11705 C 1061.93 -0.415383 -4.2598 0
M  V30 11706 C 1061.26 0.495463 -5.324 0
M  V30 11707 C 1062.56 -1.65886 -4.95257 0
M  V30 11708 H 1064.25 -1.21045 -2.7384 0
M  V30 11709 H 1061.8 -0.583498 -1.31648 0
M  V30 11710 H 1063.75 0.782584 -4.1407 0
M  V30 11711 H 1062.48 1.28325 -3.00334 0
M  V30 11712 H 1061.14 -0.768534 -3.58454 0
M  V30 11713 H 1060.78 1.36489 -4.84128 0
M  V30 11714 H 1060.48 -0.0540885 -5.87575 0
M  V30 11715 H 1062.01 0.862901 -6.04472 0
M  V30 11716 H 1063.42 -1.35832 -5.56976 0
M  V30 11717 H 1061.82 -2.14881 -5.60309 0
M  V30 11718 H 1062.89 -2.40181 -4.21237 0
M  V30 11719 N 1064.23 1.43628 -0.648757 0
M  V30 11720 C 1065.14 2.34554 0.0463037 0
M  V30 11721 C 1066.16 1.53629 0.816952 0
M  V30 11722 O 1067.33 1.86297 0.765212 0
M  V30 11723 C 1064.4 3.3185 1.00381 0
M  V30 11724 C 1063.46 4.2868 0.230589 0
M  V30 11725 C 1062.69 5.21328 1.14249 0
M  V30 11726 O 1062.92 5.18298 2.38166 0
M  V30 11727 O 1061.85 5.98726 0.617296 0
M  V30 11728 H 1065.68 2.95475 -0.702008 0
M  V30 11729 H 1063.26 1.43694 -0.408942 0
M  V30 11730 H 1065.14 3.91692 1.5542 0
M  V30 11731 H 1063.82 2.73439 1.73243 0
M  V30 11732 H 1062.73 3.72332 -0.363282 0
M  V30 11733 H 1064.06 4.90061 -0.458368 0
M  V30 11734 N 1065.71 0.390394 1.52688 0
M  V30 11735 C 1066.66 -0.4591 2.28024 0
M  V30 11736 C 1067.65 -1.06212 1.31967 0
M  V30 11737 O 1068.86 -1.00247 1.49501 0
M  V30 11738 H 1065.23 -0.16681 0.733266 0
M  V30 11739 H 1067.2 0.197747 2.97744 0
M  V30 11740 C 1065.95 -1.5737 3.10048 0
M  V30 11741 H 1065.28 -1.11901 3.83821 0
M  V30 11742 H 1066.72 -2.1423 3.65898 0
M  V30 11743 C 1065.18 -2.53036 2.22429 0
M  V30 11744 O 1065.71 -3.5647 1.85181 0
M  V30 11745 N 1063.91 -2.22802 1.86567 0
M  V30 11746 H 1063.46 -1.38723 2.17057 0
M  V30 11747 H 1063.42 -2.87061 1.28233 0
M  V30 11748 N 1067.19 -1.57141 0.120249 0
M  V30 11749 C 1068.15 -2.14213 -0.815185 0
M  V30 11750 C 1069.15 -1.07731 -1.19376 0
M  V30 11751 O 1070.34 -1.33502 -1.11906 0
M  V30 11752 C 1067.47 -2.68339 -2.10255 0
M  V30 11753 H 1068.67 -2.98197 -0.319166 0
M  V30 11754 H 1066.22 -1.55767 -0.128997 0
M  V30 11755 H 1066.95 -1.87946 -2.64285 0
M  V30 11756 H 1066.74 -3.46216 -1.84057 0
M  V30 11757 H 1068.23 -3.124 -2.77121 0
M  V30 11758 N 1068.67 0.153526 -1.5685 0
M  V30 11759 C 1069.91 0.868517 -1.83261 0
M  V30 11760 C 1070.25 1.81112 -0.700857 0
M  V30 11761 O 1069.52 1.92235 0.295989 0
M  V30 11762 C 1069.8 1.6487 -3.2014 0
M  V30 11763 C 1069.66 0.728021 -4.43869 0
M  V30 11764 C 1070.98 2.61259 -3.54163 0
M  V30 11765 H 1068.09 0.314297 -0.666623 0
M  V30 11766 H 1070.74 0.133971 -1.89527 0
M  V30 11767 H 1068.89 2.2749 -3.1493 0
M  V30 11768 H 1070.56 0.113328 -4.61161 0
M  V30 11769 H 1068.8 0.0371744 -4.33784 0
M  V30 11770 H 1069.47 1.30981 -5.36235 0
M  V30 11771 H 1071.95 2.0876 -3.59942 0
M  V30 11772 H 1070.82 3.12902 -4.50981 0
M  V30 11773 H 1071.09 3.42307 -2.79782 0
M  V30 11774 N 1070.14 1.51827 0.422667 0
M  V30 11775 C 1071.09 1.74198 1.51406 0
M  V30 11776 C 1072.06 0.584013 1.55494 0
M  V30 11777 O 1073.25 0.820079 1.72277 0
M  V30 11778 C 1070.39 1.88627 2.88988 0
M  V30 11779 C 1069.5 3.16233 2.94314 0
M  V30 11780 C 1068.63 3.21172 4.2311 0
M  V30 11781 C 1067.67 4.43033 4.2236 0
M  V30 11782 N 1066.81 4.4544 5.42704 0
M  V30 11783 H 1071.65 2.67352 1.31632 0
M  V30 11784 H 1069.19 1.32487 0.63919 0
M  V30 11785 H 1071.15 1.94976 3.68837 0
M  V30 11786 H 1069.78 0.988673 3.07287 0
M  V30 11787 H 1068.83 3.19123 2.07039 0
M  V30 11788 H 1070.14 4.06104 2.89623 0
M  V30 11789 H 1069.29 3.26517 5.11343 0
M  V30 11790 H 1068.03 2.29216 4.30478 0
M  V30 11791 H 1067.04 4.37849 3.32518 0
M  V30 11792 H 1068.26 5.3627 4.16643 0
M  V30 11793 H 1066.21 3.56361 5.50766 0
M  V30 11794 H 1066.13 5.29138 5.39953 0
M  V30 11795 H 1067.39 4.54997 6.32928 0
M  V30 11796 N 1071.62 -0.679052 1.4222 0
M  V30 11797 C 1072.57 -1.79269 1.45366 0
M  V30 11798 C 1073.54 -1.63255 0.306089 0
M  V30 11799 O 1074.72 -1.8387 0.509548 0
M  V30 11800 C 1071.86 -3.17272 1.35766 0
M  V30 11801 C 1070.98 -3.44603 2.60525 0
M  V30 11802 C 1070.11 -4.7231 2.43098 0
M  V30 11803 C 1069.15 -4.92661 3.63251 0
M  V30 11804 N 1068.29 -6.11606 3.44794 0
M  V30 11805 H 1073.13 -1.75916 2.40536 0
M  V30 11806 H 1070.67 -0.858836 1.19425 0
M  V30 11807 H 1072.62 -3.97015 1.282 0
M  V30 11808 H 1071.25 -3.1976 0.441939 0
M  V30 11809 H 1070.31 -2.59144 2.78475 0
M  V30 11810 H 1071.62 -3.55536 3.49851 0
M  V30 11811 H 1070.77 -5.60136 2.33093 0
M  V30 11812 H 1069.51 -4.63652 1.51255 0
M  V30 11813 H 1068.52 -4.03278 3.73693 0
M  V30 11814 H 1069.74 -5.03167 4.5607 0
M  V30 11815 H 1067.69 -6.04129 2.55663 0
M  V30 11816 H 1067.6 -6.23381 4.27705 0
M  V30 11817 H 1068.87 -7.02122 3.38592 0
M  V30 11818 N 1073.1 -1.28322 -0.914942 0
M  V30 11819 C 1074.51 -1.13937 -1.47903 0
M  V30 11820 C 1074.86 0.271072 -1.94318 0
M  V30 11821 O 1073.99 1.16522 -1.8235 0
M  V30 11822 C 1074.58 -2.06221 -2.68809 0
M  V30 11823 C 1073.14 -1.95903 -3.21402 0
M  V30 11824 C 1072.29 -1.98031 -1.94111 0
M  V30 11825 H 1075.24 -1.41029 -0.727772 0
M  V30 11826 H 1075.26 -1.6255 -3.44031 0
M  V30 11827 H 1074.77 -3.08866 -2.34997 0
M  V30 11828 H 1072.87 -0.962907 -3.59943 0
M  V30 11829 H 1072.99 -2.82799 -3.86732 0
M  V30 11830 H 1071.35 -1.42423 -2.11158 0
M  V30 11831 H 1072.13 -3.02354 -1.62595 0
M  V30 11832 N 1074.58 1.12322 -1.10551 0
M  V30 11833 C 1075.49 2.21678 -0.767862 0
M  V30 11834 C 1076.5 1.72404 0.235132 0
M  V30 11835 O 1077.68 2.01266 0.0735912 0
M  V30 11836 C 1074.75 3.46087 -0.205999 0
M  V30 11837 C 1073.81 4.10195 -1.26642 0
M  V30 11838 C 1073.04 5.28666 -0.731274 0
M  V30 11839 O 1073.26 5.68686 0.44189 0
M  V30 11840 O 1072.2 5.83121 -1.49176 0
M  V30 11841 H 1076.02 2.52955 -1.6807 0
M  V30 11842 H 1073.61 1.2068 -0.880728 0
M  V30 11843 H 1075.49 4.21273 0.103435 0
M  V30 11844 H 1074.16 3.16484 0.679685 0
M  V30 11845 H 1073.07 3.36784 -1.62873 0
M  V30 11846 H 1074.4 4.43957 -2.12516 0
M  V30 11847 N 1076.06 0.894434 1.2976 0
M  V30 11848 C 1077.33 0.437365 1.90648 0
M  V30 11849 C 1077.71 -1.08261 1.81226 0
M  V30 11850 O 1077.06 -1.92213 1.23557 0
M  V30 11851 C 1077.27 0.946047 3.35933 0
M  V30 11852 C 1078.62 0.986621 4.12978 0
M  V30 11853 O 1079.64 0.893356 3.44815 0
M  V30 11854 O 1078.5 1.12591 5.34776 0
M  V30 11855 H 1075.6 0.135436 0.815835 0
M  V30 11856 H 1078.14 0.983955 1.38262 0
M  V30 11857 H 1076.91 1.98998 3.3692 0
M  V30 11858 H 1076.54 0.379164 3.95788 0
M  V30 11859 N 1077.53 -1.43282 0.656365 0
M  V30 11860 C 1078.48 -2.30776 -0.0333155 0
M  V30 11861 C 1079.45 -1.44928 -0.811493 0
M  V30 11862 O 1080.64 -1.73792 -0.787465 0
M  V30 11863 C 1077.78 -3.30548 -0.991566 0
M  V30 11864 C 1076.89 -4.31493 -0.209159 0
M  V30 11865 C 1076.02 -5.18346 -1.16149 0
M  V30 11866 C 1075.06 -6.10983 -0.369699 0
M  V30 11867 N 1074.2 -6.90449 -1.27378 0
M  V30 11868 H 1079.04 -2.89204 0.718668 0
M  V30 11869 H 1076.58 -1.4247 0.366161 0
M  V30 11870 H 1078.54 -3.86905 -1.56078 0
M  V30 11871 H 1077.17 -2.73762 -1.71039 0
M  V30 11872 H 1076.22 -3.77405 0.476394 0
M  V30 11873 H 1077.53 -4.97142 0.406394 0
M  V30 11874 H 1076.68 -5.79345 -1.80124 0
M  V30 11875 H 1075.42 -4.52831 -1.81095 0
M  V30 11876 H 1074.43 -5.49069 0.283377 0
M  V30 11877 H 1075.65 -6.78541 0.275399 0
M  V30 11878 H 1073.6 -6.27579 -1.90999 0
M  V30 11879 H 1073.52 -7.52631 -0.71287 0
M  V30 11880 H 1074.78 -7.5595 -1.90158 0
M  V30 11881 N 1079.01 -0.398486 -1.52479 0
M  V30 11882 C 1079.96 0.432212 -2.26717 0
M  V30 11883 C 1080.93 1.05007 -1.28696 0
M  V30 11884 O 1082.12 1.07636 -1.57541 0
M  V30 11885 C 1079.26 1.54868 -3.08399 0
M  V30 11886 C 1078.37 0.952779 -4.21362 0
M  V30 11887 C 1077.5 2.04106 -4.90423 0
M  V30 11888 C 1076.54 1.42153 -5.95364 0
M  V30 11889 N 1075.68 2.44951 -6.57984 0
M  V30 11890 H 1080.52 -0.207303 -2.97278 0
M  V30 11891 H 1078.06 -0.114066 -1.46657 0
M  V30 11892 H 1080.01 2.20684 -3.54054 0
M  V30 11893 H 1078.64 2.15837 -2.4003 0
M  V30 11894 H 1077.7 0.183962 -3.79955 0
M  V30 11895 H 1079.01 0.460131 -4.96673 0
M  V30 11896 H 1078.16 2.77672 -5.39429 0
M  V30 11897 H 1076.9 2.56733 -4.14656 0
M  V30 11898 H 1075.91 0.671161 -5.45688 0
M  V30 11899 H 1077.13 0.903093 -6.73068 0
M  V30 11900 H 1075.08 2.9673 -5.85053 0
M  V30 11901 H 1074.99 2.00468 -7.28937 0
M  V30 11902 H 1076.26 3.18119 -7.11632 0
M  V30 11903 N 1080.49 1.57075 -0.12858 0
M  V30 11904 C 1081.4 2.19369 0.831533 0
M  V30 11905 C 1082.42 1.17258 1.28555 0
M  V30 11906 O 1083.59 1.49766 1.34656 0
M  V30 11907 C 1080.66 2.78846 2.06024 0
M  V30 11908 C 1079.72 3.96024 1.65722 0
M  V30 11909 C 1078.95 4.52655 2.82735 0
M  V30 11910 O 1079.18 4.08175 3.98434 0
M  V30 11911 O 1078.11 5.43198 2.59268 0
M  V30 11912 H 1081.94 3.01887 0.331352 0
M  V30 11913 H 1079.52 1.49081 0.0975226 0
M  V30 11914 H 1081.4 3.16721 2.77967 0
M  V30 11915 H 1080.08 1.99353 2.5503 0
M  V30 11916 H 1078.98 3.62899 0.908574 0
M  V30 11917 H 1080.32 4.76981 1.21449 0
M  V30 11918 N 1081.97 -0.145205 1.5693 0
M  V30 11919 C 1083.22 -0.858786 1.83719 0
M  V30 11920 C 1083.55 -1.80738 0.710452 0
M  V30 11921 O 1082.82 -1.92389 -0.285791 0
M  V30 11922 C 1083.11 -1.6317 3.2101 0
M  V30 11923 C 1082.96 -0.704472 4.44249 0
M  V30 11924 C 1084.28 -2.59377 3.55544 0
M  V30 11925 H 1081.4 -0.310757 0.66828 0
M  V30 11926 H 1084.04 -0.123918 1.89595 0
M  V30 11927 H 1082.19 -2.25816 3.16132 0
M  V30 11928 H 1083.86 -0.08887 4.61214 0
M  V30 11929 H 1082.1 -0.0141693 4.33798 0
M  V30 11930 H 1082.78 -1.28135 5.36922 0
M  V30 11931 H 1085.25 -2.06848 3.61044 0
M  V30 11932 H 1084.13 -3.10506 4.52634 0
M  V30 11933 H 1084.39 -3.40819 2.81594 0
M  V30 11934 N 1083.45 -1.52049 -0.414609 0
M  V30 11935 C 1084.69 -1.65838 -1.16206 0
M  V30 11936 C 1085.02 -0.385623 -1.90639 0
M  V30 11937 O 1084.28 0.631214 -1.85241 0
M  V30 11938 C 1084.58 -2.82735 -2.18622 0
M  V30 11939 C 1084.24 -4.21163 -1.61037 0
M  V30 11940 C 1082.9 -4.58816 -1.45056 0
M  V30 11941 C 1085.26 -5.0745 -1.18928 0
M  V30 11942 C 1082.58 -5.8044 -0.854761 0
M  V30 11943 C 1084.94 -6.29674 -0.607686 0
M  V30 11944 C 1083.6 -6.66081 -0.434968 0
M  V30 11945 H 1082.87 -0.606845 -0.425229 0
M  V30 11946 H 1085.52 -1.86137 -0.450009 0
M  V30 11947 H 1083.82 -2.56749 -2.95952 0
M  V30 11948 H 1085.52 -2.90601 -2.76319 0
M  V30 11949 H 1082.11 -3.91488 -1.74457 0
M  V30 11950 H 1086.29 -4.78948 -1.30086 0
M  V30 11951 H 1081.55 -6.07276 -0.70891 0
M  V30 11952 H 1085.72 -6.95865 -0.272988 0
M  V30 11953 H 1083.35 -7.60195 0.0288116 0
M  V30 11954 N 1084.93 0.6715 -1.42579 0
M  V30 11955 C 1086.34 0.985019 -1.25577 0
M  V30 11956 C 1086.54 2.00845 -0.162319 0
M  V30 11957 O 1085.6 2.48175 0.465352 0
M  V30 11958 C 1086.91 1.48668 -2.61377 0
M  V30 11959 C 1088.46 1.60429 -2.68759 0
M  V30 11960 C 1088.93 2.13991 -4.04935 0
M  V30 11961 N 1090.42 2.21319 -4.06906 0
M  V30 11962 C 1091.16 2.63845 -5.09091 0
M  V30 11963 N 1090.66 3.05799 -6.21658 0
M  V30 11964 N 1092.45 2.63623 -4.96447 0
M  V30 11965 H 1084.6 -0.00604561 -2.12399 0
M  V30 11966 H 1086.86 0.0598299 -0.94611 0
M  V30 11967 H 1086.57 0.80917 -3.42265 0
M  V30 11968 H 1086.44 2.46487 -2.85524 0
M  V30 11969 H 1088.83 2.27286 -1.88216 0
M  V30 11970 H 1088.91 0.610909 -2.48398 0
M  V30 11971 H 1088.55 1.47741 -4.85937 0
M  V30 11972 H 1088.48 3.14126 -4.2265 0
M  V30 11973 H 1090.98 1.91743 -3.25643 0
M  V30 11974 H 1091.29 3.36944 -6.95477 0
M  V30 11975 H 1089.63 3.03648 -6.25158 0
M  V30 11976 H 1092.82 2.30211 -4.07579 0
M  V30 11977 H 1093 2.96444 -5.76216 0
M  V30 11978 N 1086.4 1.28806 0.908124 0
M  V30 11979 C 1087.81 1.14719 1.47297 0
M  V30 11980 C 1088.17 -0.260763 1.94459 0
M  V30 11981 O 1087.29 -1.15553 1.82966 0
M  V30 11982 C 1087.89 2.07643 2.67712 0
M  V30 11983 C 1086.44 1.97605 3.20358 0
M  V30 11984 C 1085.59 1.99058 1.93058 0
M  V30 11985 H 1088.54 1.41413 0.720283 0
M  V30 11986 H 1088.56 1.64372 3.43165 0
M  V30 11987 H 1088.08 3.10108 2.33355 0
M  V30 11988 H 1086.18 0.981982 3.59427 0
M  V30 11989 H 1086.29 2.84846 3.85226 0
M  V30 11990 H 1084.65 1.43541 2.104 0
M  V30 11991 H 1085.44 3.03212 1.60989 0
M  V30 11992 N 1087.88 -1.11734 1.11145 0
M  V30 11993 C 1088.81 -2.1976 0.789152 0
M  V30 11994 C 1089.79 -1.68382 -0.241143 0
M  V30 11995 O 1090.98 -1.93914 -0.105292 0
M  V30 11996 C 1088.11 -3.46549 0.228204 0
M  V30 11997 C 1087.06 -4.11123 1.19002 0
M  V30 11998 C 1086.39 -5.32451 0.489928 0
M  V30 11999 C 1087.69 -4.56406 2.53951 0
M  V30 12000 H 1089.38 -2.46978 1.69241 0
M  V30 12001 H 1086.93 -1.18705 0.81517 0
M  V30 12002 H 1088.88 -4.21399 -0.00945908 0
M  V30 12003 H 1087.6 -3.18782 -0.71033 0
M  V30 12004 H 1086.26 -3.38264 1.41326 0
M  V30 12005 H 1085.91 -5.00953 -0.453315 0
M  V30 12006 H 1085.61 -5.76605 1.1314 0
M  V30 12007 H 1087.14 -6.10042 0.260984 0
M  V30 12008 H 1088.55 -5.22592 2.35733 0
M  V30 12009 H 1086.95 -5.11363 3.14051 0
M  V30 12010 H 1088.02 -3.7001 3.13402 0
M  V30 12011 N 1089.36 -0.901303 -1.29284 0
M  V30 12012 C 1090.31 -0.378666 -2.27672 0
M  V30 12013 C 1091.28 0.540102 -1.57074 0
M  V30 12014 O 1092.46 0.464997 -1.85047 0
M  V30 12015 C 1089.6 0.38635 -3.42931 0
M  V30 12016 C 1088.71 -0.563496 -4.28309 0
M  V30 12017 C 1087.85 0.218731 -5.30749 0
M  V30 12018 C 1086.89 -0.725536 -6.07785 0
M  V30 12019 N 1086.03 0.0223854 -7.02096 0
M  V30 12020 H 1090.87 -1.22277 -2.71758 0
M  V30 12021 H 1088.4 -0.614302 -1.33659 0
M  V30 12022 H 1090.36 0.845967 -4.08533 0
M  V30 12023 H 1088.99 1.1949 -2.9987 0
M  V30 12024 H 1088.04 -1.14163 -3.62865 0
M  V30 12025 H 1089.35 -1.28623 -4.81931 0
M  V30 12026 H 1088.51 0.739473 -6.02177 0
M  V30 12027 H 1087.25 0.97459 -4.77863 0
M  V30 12028 H 1086.25 -1.25776 -5.3522 0
M  V30 12029 H 1087.48 -1.48075 -6.6276 0
M  V30 12030 H 1085.42 0.760482 -6.51577 0
M  V30 12031 H 1085.34 -0.640408 -7.53283 0
M  V30 12032 H 1086.61 0.523339 -7.77741 0
M  V30 12033 N 1090.84 1.42931 -0.663954 0
M  V30 12034 C 1092.25 1.84877 -0.260283 0
M  V30 12035 C 1092.6 1.5558 1.19538 0
M  V30 12036 O 1091.72 1.01015 1.91377 0
M  V30 12037 C 1092.32 3.35585 -0.465618 0
M  V30 12038 C 1090.88 3.76221 -0.116169 0
M  V30 12039 C 1090.03 2.66587 -0.763317 0
M  V30 12040 H 1092.98 1.32932 -0.866882 0
M  V30 12041 H 1093 3.79427 0.285608 0
M  V30 12042 H 1092.51 3.56877 -1.52515 0
M  V30 12043 H 1090.61 3.60539 0.940342 0
M  V30 12044 H 1090.72 4.75943 -0.549123 0
M  V30 12045 H 1089.09 2.53948 -0.19559 0
M  V30 12046 H 1089.87 2.90704 -1.82609 0
M  V30 12047 N 1092.32 0.406567 1.52266 0
M  V30 12048 C 1093.28 -0.408251 2.25535 0
M  V30 12049 C 1094.28 -0.975795 1.27808 0
M  V30 12050 O 1095.47 -0.855077 1.5177 0
M  V30 12051 C 1092.6 -1.57443 3.02365 0
M  V30 12052 H 1093.79 0.233459 2.9899 0
M  V30 12053 H 1091.35 0.159032 1.55489 0
M  V30 12054 H 1092.08 -2.25308 2.33252 0
M  V30 12055 H 1091.87 -1.17399 3.74112 0
M  V30 12056 H 1093.36 -2.15088 3.57948 0
M  V30 12057 N 1093.79 -1.57004 0.136909 0
M  V30 12058 C 1095.07 -1.87375 -0.561233 0
M  V30 12059 C 1095.45 -1.04117 -1.83638 0
M  V30 12060 O 1094.8 -0.125103 -2.28157 0
M  V30 12061 C 1095.01 -3.38829 -0.836426 0
M  V30 12062 C 1096.36 -4.07826 -1.18164 0
M  V30 12063 O 1097.38 -3.4395 -0.92611 0
M  V30 12064 O 1096.24 -5.20614 -1.66204 0
M  V30 12065 H 1093.33 -0.776287 -0.285145 0
M  V30 12066 H 1095.88 -1.68818 0.172761 0
M  V30 12067 H 1094.65 -3.91244 0.066442 0
M  V30 12068 H 1094.28 -3.62879 -1.62496 0
M  V30 12069 N 1095.27 0.136881 -1.57004 0
M  V30 12070 C 1096.2 1.17026 -2.02057 0
M  V30 12071 C 1097.18 1.44223 -0.901866 0
M  V30 12072 O 1098.37 1.54971 -1.17037 0
M  V30 12073 C 1095.5 2.50095 -2.40977 0
M  V30 12074 C 1094.45 2.37398 -3.56127 0
M  V30 12075 C 1093.78 3.75268 -3.80891 0
M  V30 12076 C 1095.08 1.84952 -4.88457 0
M  V30 12077 H 1096.77 0.795601 -2.88636 0
M  V30 12078 H 1094.32 0.381266 -1.38861 0
M  V30 12079 H 1096.27 3.22621 -2.71097 0
M  V30 12080 H 1095 2.89416 -1.51348 0
M  V30 12081 H 1093.65 1.67322 -3.26188 0
M  V30 12082 H 1093.3 4.12043 -2.88496 0
M  V30 12083 H 1093 3.67631 -4.5839 0
M  V30 12084 H 1094.53 4.49327 -4.13446 0
M  V30 12085 H 1095.94 2.4728 -5.17229 0
M  V30 12086 H 1094.34 1.88181 -5.69832 0
M  V30 12087 H 1095.41 0.805848 -4.78157 0
M  V30 12088 N 1096.75 1.52266 0.40654 0
M  V30 12089 C 1097.98 1.70304 1.17491 0
M  V30 12090 C 1098.39 0.413656 1.84213 0
M  V30 12091 O 1097.75 -0.610524 1.71985 0
M  V30 12092 C 1097.8 2.84045 2.23609 0
M  V30 12093 O 1097.52 4.0799 1.5961 0
M  V30 12094 C 1099.02 3.13614 3.13306 0
M  V30 12095 H 1096.24 0.570669 0.352955 0
M  V30 12096 H 1098.79 1.98836 0.477967 0
M  V30 12097 H 1096.94 2.58025 2.88967 0
M  V30 12098 H 1097.36 4.7139 2.29983 0
M  V30 12099 H 1098.83 3.96707 3.83833 0
M  V30 12100 H 1099.31 2.27272 3.75824 0
M  V30 12101 H 1099.91 3.41409 2.53614 0
M  V30 12102 N 1098.23 -0.663929 1.42933 0
M  V30 12103 C 1099.19 -1.75899 1.46943 0
M  V30 12104 C 1100.19 -1.5682 0.355535 0
M  V30 12105 O 1101.38 -1.62914 0.616833 0
M  V30 12106 C 1098.51 -3.14657 1.31164 0
M  V30 12107 H 1099.71 -1.73727 2.44456 0
M  V30 12108 H 1097.26 -0.874587 1.2954 0
M  V30 12109 H 1097.99 -3.22447 0.346165 0
M  V30 12110 H 1097.78 -3.29909 2.11902 0
M  V30 12111 H 1099.27 -3.9453 1.36878 0
M  V30 12112 N 1099.71 -1.29285 -0.901281 0
M  V30 12113 C 1100.64 -1.16832 -2.0217 0
M  V30 12114 C 1101.62 -0.0629265 -1.69984 0
M  V30 12115 O 1102.8 -0.242123 -1.92685 0
M  V30 12116 C 1099.93 -0.842406 -3.36929 0
M  V30 12117 C 1098.89 -1.90394 -3.8332 0
M  V30 12118 C 1098.21 -1.43138 -5.15185 0
M  V30 12119 C 1099.51 -3.31254 -4.03817 0
M  V30 12120 H 1101.21 -2.10562 -2.12847 0
M  V30 12121 H 1098.75 -1.01375 -1.0227 0
M  V30 12122 H 1100.71 -0.741999 -4.14816 0
M  V30 12123 H 1099.43 0.130598 -3.26339 0
M  V30 12124 H 1098.09 -1.99371 -3.07647 0
M  V30 12125 H 1097.74 -0.447091 -5.01009 0
M  V30 12126 H 1097.44 -2.14129 -5.47195 0
M  V30 12127 H 1098.96 -1.34444 -5.95615 0
M  V30 12128 H 1100.37 -3.25129 -4.72191 0
M  V30 12129 H 1098.77 -4.00189 -4.47178 0
M  V30 12130 H 1099.84 -3.74349 -3.08206 0
M  V30 12131 N 1101.18 1.11143 -1.11736 0
M  V30 12132 C 1102.15 2.15456 -0.78174 0
M  V30 12133 C 1103.15 1.59547 0.200383 0
M  V30 12134 O 1104.34 1.74183 -0.0244893 0
M  V30 12135 C 1101.47 3.40523 -0.160364 0
M  V30 12136 H 1102.66 2.46658 -1.70586 0
M  V30 12137 H 1100.22 1.26381 -0.919644 0
M  V30 12138 H 1100.95 3.14932 0.773835 0
M  V30 12139 H 1100.74 3.82386 -0.867378 0
M  V30 12140 H 1102.23 4.17559 0.0582175 0
M  V30 12141 N 1102.66 0.908147 1.28804 0
M  V30 12142 C 1103.61 0.390734 2.27468 0
M  V30 12143 C 1104.58 -0.531765 1.57358 0
M  V30 12144 O 1105.76 -0.455177 1.85291 0
M  V30 12145 C 1102.9 -0.368159 3.43131 0
M  V30 12146 C 1102.02 0.586202 4.28004 0
M  V30 12147 C 1101.15 -0.190581 5.30858 0
M  V30 12148 C 1100.19 0.757758 6.07391 0
M  V30 12149 N 1099.33 0.0148488 7.02098 0
M  V30 12150 H 1104.17 1.23717 2.71105 0
M  V30 12151 H 1101.71 0.621382 1.33331 0
M  V30 12152 H 1103.66 -0.824289 4.08976 0
M  V30 12153 H 1102.29 -1.17898 3.00499 0
M  V30 12154 H 1101.35 1.16086 3.62254 0
M  V30 12155 H 1102.66 1.31177 4.81242 0
M  V30 12156 H 1101.81 -0.707528 6.0256 0
M  V30 12157 H 1100.55 -0.949234 4.78373 0
M  V30 12158 H 1099.56 1.28613 5.34545 0
M  V30 12159 H 1100.78 1.51588 6.61965 0
M  V30 12160 H 1098.73 -0.725916 6.51971 0
M  V30 12161 H 1098.64 0.680347 7.52932 0
M  V30 12162 H 1099.91 -0.482086 7.78008 0
M  V30 12163 N 1104.14 -1.42577 0.671525 0
M  V30 12164 C 1105.05 -2.34598 -0.00898225 0
M  V30 12165 C 1106.07 -1.54909 -0.792407 0
M  V30 12166 O 1107.24 -1.87491 -0.735477 0
M  V30 12167 C 1104.31 -3.33405 -0.950888 0
M  V30 12168 C 1103.37 -4.28993 -0.16236 0
M  V30 12169 C 1102.6 -5.2308 -1.0594 0
M  V30 12170 O 1102.82 -5.22022 -2.2989 0
M  V30 12171 O 1101.76 -5.99632 -0.521966 0
M  V30 12172 H 1105.58 -2.94321 0.748927 0
M  V30 12173 H 1103.17 -1.43025 0.43175 0
M  V30 12174 H 1105.05 -3.94115 -1.49169 0
M  V30 12175 H 1103.73 -2.7616 -1.68871 0
M  V30 12176 H 1102.63 -3.71707 0.42247 0
M  V30 12177 H 1103.97 -4.8927 0.536274 0
M  V30 12178 N 1105.62 -0.414636 -1.52048 0
M  V30 12179 C 1106.55 0.399119 -2.30064 0
M  V30 12180 C 1107.53 1.04126 -1.34506 0
M  V30 12181 O 1108.71 1.04923 -1.63416 0
M  V30 12182 C 1105.84 1.51305 -3.12608 0
M  V30 12183 C 1104.8 0.995621 -4.16259 0
M  V30 12184 C 1104.12 2.20357 -4.87183 0
M  V30 12185 C 1105.42 0.0458178 -5.2228 0
M  V30 12186 H 1107.12 -0.251879 -2.98339 0
M  V30 12187 H 1104.66 -0.122579 -1.43477 0
M  V30 12188 H 1106.62 2.08936 -3.65956 0
M  V30 12189 H 1105.34 2.19201 -2.42113 0
M  V30 12190 H 1104 0.441676 -3.6393 0
M  V30 12191 H 1103.65 2.8682 -4.13211 0
M  V30 12192 H 1103.35 1.86385 -5.57256 0
M  V30 12193 H 1104.87 2.78584 -5.43345 0
M  V30 12194 H 1106.29 0.531102 -5.70835 0
M  V30 12195 H 1104.68 -0.20536 -5.99749 0
M  V30 12196 H 1105.75 -0.897807 -4.76516 0
M  V30 12197 N 1107.1 1.56929 -0.145233 0
M  V30 12198 C 1108.51 1.58196 0.211194 0
M  V30 12199 C 1108.71 1.15941 1.64803 0
M  V30 12200 O 1107.77 0.858888 2.37443 0
M  V30 12201 C 1109.08 3.00665 -0.0459569 0
M  V30 12202 C 1110.63 3.12995 0.0178913 0
M  V30 12203 C 1111.1 4.5751 -0.211905 0
M  V30 12204 N 1112.6 4.62928 -0.158772 0
M  V30 12205 C 1113.33 5.72555 -0.311111 0
M  V30 12206 N 1112.83 6.90838 -0.521074 0
M  V30 12207 N 1114.62 5.61549 -0.248838 0
M  V30 12208 H 1106.77 1.8269 -1.08342 0
M  V30 12209 H 1109.03 0.845514 -0.428731 0
M  V30 12210 H 1108.74 3.35962 -1.0403 0
M  V30 12211 H 1108.61 3.71125 0.674246 0
M  V30 12212 H 1111 2.7754 1.00278 0
M  V30 12213 H 1111.08 2.45025 -0.734612 0
M  V30 12214 H 1110.73 4.93669 -1.19389 0
M  V30 12215 H 1110.66 5.23604 0.560901 0
M  V30 12216 H 1113.15 3.779 -0.00107283 0
M  V30 12217 H 1113.46 7.70248 -0.62747 0
M  V30 12218 H 1111.8 6.92761 -0.557374 0
M  V30 12219 H 1115 4.68022 -0.0855821 0
M  V30 12220 H 1115.17 6.46937 -0.370997 0
M  V30 12221 N 1108.58 -0.128553 1.57075 0
M  V30 12222 C 1109.54 -1.14215 1.98715 0
M  V30 12223 C 1110.54 -1.34843 0.876019 0
M  V30 12224 O 1111.73 -1.31522 1.14227 0
M  V30 12225 C 1108.86 -2.49865 2.31905 0
M  V30 12226 H 1110.05 -0.784481 2.89458 0
M  V30 12227 H 1107.61 -0.372531 1.51796 0
M  V30 12228 H 1108.34 -2.9057 1.44012 0
M  V30 12229 H 1108.13 -2.3625 3.12935 0
M  V30 12230 H 1109.62 -3.22832 2.64895 0
M  V30 12231 N 1110.05 -1.5248 -0.398459 0
M  V30 12232 C 1111.3 -1.67309 -1.1461 0
M  V30 12233 C 1111.63 -0.407095 -1.89885 0
M  V30 12234 O 1110.91 0.594834 -1.85181 0
M  V30 12235 C 1111.19 -2.90204 -2.13198 0
M  V30 12236 C 1111.04 -4.26881 -1.4175 0
M  V30 12237 C 1112.36 -3.08634 -3.13741 0
M  V30 12238 H 1109.48 -0.608853 -0.415292 0
M  V30 12239 H 1112.12 -1.85057 -0.430573 0
M  V30 12240 H 1110.27 -2.75204 -2.74218 0
M  V30 12241 H 1111.95 -4.53631 -0.837676 0
M  V30 12242 H 1110.19 -4.27793 -0.719387 0
M  V30 12243 H 1110.86 -5.08939 -2.1374 0
M  V30 12244 H 1113.34 -3.22603 -2.62805 0
M  V30 12245 H 1112.21 -3.96117 -3.79977 0
M  V30 12246 H 1112.47 -2.22425 -3.82073 0
M  V30 12247 N 1111.53 0.65634 -1.43283 0
M  V30 12248 C 1112.44 1.79847 -1.50639 0
M  V30 12249 C 1113.46 1.69487 -0.393714 0
M  V30 12250 O 1114.63 1.90712 -0.647379 0
M  V30 12251 C 1111.7 3.16107 -1.42398 0
M  V30 12252 C 1110.76 3.38287 -2.64312 0
M  V30 12253 C 1109.99 4.68046 -2.56454 0
M  V30 12254 O 1110.22 5.4719 -1.61056 0
M  V30 12255 O 1109.15 4.91877 -3.46902 0
M  V30 12256 H 1112.98 1.76596 -2.47078 0
M  V30 12257 H 1110.56 0.814428 -1.25249 0
M  V30 12258 H 1112.44 3.97382 -1.40233 0
M  V30 12259 H 1111.12 3.19956 -0.490929 0
M  V30 12260 H 1110.02 2.56788 -2.72049 0
M  V30 12261 H 1111.36 3.39282 -3.56579 0
M  V30 12262 N 1113.01 1.29761 0.894412 0
M  V30 12263 C 1114.29 1.08711 1.62608 0
M  V30 12264 C 1114.67 -0.366907 2.07887 0
M  V30 12265 O 1114.01 -1.35669 1.83865 0
M  V30 12266 C 1114.22 2.07947 2.80284 0
M  V30 12267 C 1115.57 2.39153 3.50843 0
M  V30 12268 O 1116.6 2.06183 2.9046 0
M  V30 12269 O 1115.46 2.95509 4.59713 0
M  V30 12270 H 1112.55 0.416866 0.714249 0
M  V30 12271 H 1115.1 1.41153 0.942015 0
M  V30 12272 H 1113.87 3.05859 2.44061 0
M  V30 12273 H 1113.49 1.76266 3.56393 0
M  V30 12274 N 1114.49 -1.10549 1.12324 0
M  V30 12275 C 1115.73 -1.82755 0.879117 0
M  V30 12276 C 1116.07 -1.84905 -0.593604 0
M  V30 12277 O 1115.34 -1.30884 -1.43873 0
M  V30 12278 C 1115.62 -3.29481 1.45308 0
M  V30 12279 C 1115.48 -3.3567 2.99408 0
M  V30 12280 C 1116.8 -4.25828 1.11167 0
M  V30 12281 H 1113.92 -0.663513 0.32081 0
M  V30 12282 H 1116.56 -1.29572 1.38965 0
M  V30 12283 H 1114.71 -3.74902 1.01887 0
M  V30 12284 H 1116.38 -2.98739 3.515 0
M  V30 12285 H 1114.62 -2.75606 3.34998 0
M  V30 12286 H 1115.29 -4.38983 3.34661 0
M  V30 12287 H 1117.77 -3.88635 1.48667 0
M  V30 12288 H 1116.65 -5.26857 1.53991 0
M  V30 12289 H 1116.91 -4.42094 0.0237046 0
M  V30 12290 N 1115.97 -0.914965 -1.28321 0
M  V30 12291 C 1117.38 -0.613297 -1.47346 0
M  V30 12292 C 1117.58 0.84106 -1.83108 0
M  V30 12293 O 1116.64 1.62004 -1.93678 0
M  V30 12294 C 1117.95 -1.55224 -2.57538 0
M  V30 12295 C 1119.5 -1.55909 -2.71407 0
M  V30 12296 C 1119.97 -2.48468 -3.84744 0
M  V30 12297 N 1121.46 -2.46602 -3.92099 0
M  V30 12298 C 1122.2 -3.14917 -4.79182 0
M  V30 12299 N 1121.7 -3.92566 -5.70845 0
M  V30 12300 N 1123.49 -3.03998 -4.72802 0
M  V30 12301 H 1115.64 -1.85539 -1.03388 0
M  V30 12302 H 1117.9 -0.795875 -0.515061 0
M  V30 12303 H 1117.61 -2.58917 -2.38023 0
M  V30 12304 H 1117.48 -1.28426 -3.54664 0
M  V30 12305 H 1119.87 -0.52953 -2.9031 0
M  V30 12306 H 1119.95 -1.86751 -1.74808 0
M  V30 12307 H 1119.59 -3.51526 -3.66595 0
M  V30 12308 H 1119.52 -2.14928 -4.80743 0
M  V30 12309 H 1122.02 -1.90199 -3.26547 0
M  V30 12310 H 1122.33 -4.41709 -6.34123 0
M  V30 12311 H 1120.67 -3.96671 -5.70681 0
M  V30 12312 H 1123.86 -2.42839 -4.00184 0
M  V30 12313 H 1124.04 -3.57511 -5.40454 0
M  V30 12314 N 1117.44 1.42219 -0.679077 0
M  V30 12315 C 1118.85 1.8459 -0.279877 0
M  V30 12316 C 1119.21 1.56839 1.17881 0
M  V30 12317 O 1118.33 1.03039 1.90294 0
M  V30 12318 C 1118.93 3.35072 -0.501185 0
M  V30 12319 C 1117.48 3.76076 -0.156065 0
M  V30 12320 C 1116.63 2.65763 -0.791549 0
M  V30 12321 H 1119.58 1.32005 -0.880932 0
M  V30 12322 H 1119.6 3.79708 0.245349 0
M  V30 12323 H 1119.12 3.55239 -1.56291 0
M  V30 12324 H 1117.22 3.61516 0.90205 0
M  V30 12325 H 1117.33 4.75334 -0.599572 0
M  V30 12326 H 1115.69 2.53726 -0.222514 0
M  V30 12327 H 1116.48 2.88751 -1.85682 0
M  V30 12328 N 1118.92 0.422693 1.51826 0
M  V30 12329 C 1120.33 -0.0438129 1.86649 0
M  V30 12330 C 1120.68 -1.43246 1.34071 0
M  V30 12331 O 1119.81 -2.05256 0.685501 0
M  V30 12332 C 1120.4 -0.0862802 3.3869 0
M  V30 12333 C 1118.96 -0.497157 3.73102 0
M  V30 12334 C 1118.11 0.319655 2.75451 0
M  V30 12335 H 1121.06 0.639181 1.45259 0
M  V30 12336 H 1121.08 -0.8988 3.69732 0
M  V30 12337 H 1120.59 0.924525 3.76927 0
M  V30 12338 H 1118.69 -1.51411 3.40449 0
M  V30 12339 H 1118.81 -0.232125 4.78537 0
M  V30 12340 H 1117.17 -0.219963 2.53748 0
M  V30 12341 H 1117.95 1.32906 3.16529 0
M  V30 12342 N 1120.4 -1.5685 0.153553 0
M  V30 12343 C 1121.35 -2.13671 -0.795526 0
M  V30 12344 C 1122.33 -1.06624 -1.20499 0
M  V30 12345 O 1123.53 -1.32788 -1.17032 0
M  V30 12346 C 1120.65 -2.76704 -2.03199 0
M  V30 12347 C 1119.74 -3.90884 -1.64532 0
M  V30 12348 N 1120.13 -4.96466 -0.96723 0
M  V30 12349 C 1118.43 -4.01713 -1.93759 0
M  V30 12350 C 1119.13 -5.76453 -0.779527 0
M  V30 12351 N 1118.11 -5.27444 -1.31544 0
M  V30 12352 H 1121.91 -2.92673 -0.268288 0
M  V30 12353 H 1119.42 -1.6233 -0.0477596 0
M  V30 12354 H 1121.42 -3.15777 -2.72196 0
M  V30 12355 H 1120.08 -1.99177 -2.56434 0
M  V30 12356 H 1121.09 -5.14087 -0.627253 0
M  V30 12357 H 1117.77 -3.3527 -2.48797 0
M  V30 12358 H 1119.16 -6.71455 -0.244604 0
M  V30 12359 N 1121.88 0.120221 -1.57141 0
M  V30 12360 C 1122.82 1.14751 -2.00252 0
M  V30 12361 C 1123.79 1.41217 -0.874462 0
M  V30 12362 O 1124.98 1.53104 -1.13859 0
M  V30 12363 C 1122.12 2.46923 -2.41087 0
M  V30 12364 C 1121.23 2.27403 -3.67303 0
M  V30 12365 C 1120.37 3.52797 -3.97125 0
M  V30 12366 C 1119.41 3.28429 -5.16528 0
M  V30 12367 N 1118.54 4.46022 -5.42226 0
M  V30 12368 H 1123.38 0.772884 -2.87803 0
M  V30 12369 H 1120.92 0.370137 -1.42367 0
M  V30 12370 H 1122.88 3.24025 -2.62799 0
M  V30 12371 H 1121.51 2.82281 -1.5658 0
M  V30 12372 H 1120.56 1.41224 -3.53214 0
M  V30 12373 H 1121.87 2.05373 -4.54558 0
M  V30 12374 H 1121.03 4.38318 -4.19479 0
M  V30 12375 H 1119.77 3.77857 -3.08343 0
M  V30 12376 H 1118.77 2.41299 -4.94019 0
M  V30 12377 H 1120 3.0474 -6.06886 0
M  V30 12378 H 1117.94 4.71205 -4.56401 0
M  V30 12379 H 1117.86 4.27092 -6.23802 0
M  V30 12380 H 1119.13 5.3268 -5.69098 0
M  V30 12381 N 1123.36 1.52689 0.390367 0
M  V30 12382 C 1124.6 1.67914 1.13722 0
M  V30 12383 C 1124.94 0.417159 1.89667 0
M  V30 12384 O 1124.21 -0.585005 1.85494 0
M  V30 12385 C 1124.49 2.91331 2.11656 0
M  V30 12386 C 1124.35 4.27626 1.39484 0
M  V30 12387 C 1125.67 3.10293 3.12099 0
M  V30 12388 H 1122.78 0.611047 0.412057 0
M  V30 12389 H 1125.43 1.85283 0.420753 0
M  V30 12390 H 1123.58 2.76654 2.72754 0
M  V30 12391 H 1125.25 4.54068 0.813607 0
M  V30 12392 H 1123.49 4.28169 0.69669 0
M  V30 12393 H 1124.16 5.10066 2.11038 0
M  V30 12394 H 1126.64 3.23992 2.6109 0
M  V30 12395 H 1125.51 3.98127 3.7787 0
M  V30 12396 H 1125.78 2.24448 3.80888 0
M  V30 12397 N 1124.83 -0.648732 1.43629 0
M  V30 12398 C 1126.06 -1.4362 1.48932 0
M  V30 12399 C 1126.48 -1.88487 0.108599 0
M  V30 12400 O 1125.83 -1.59768 -0.882066 0
M  V30 12401 C 1125.89 -2.66822 2.43903 0
M  V30 12402 O 1125.61 -2.2383 3.76606 0
M  V30 12403 C 1127.11 -3.60134 2.58493 0
M  V30 12404 H 1124.33 -0.441055 0.505679 0
M  V30 12405 H 1126.87 -0.794936 1.88417 0
M  V30 12406 H 1125.03 -3.27079 2.07601 0
M  V30 12407 H 1125.44 -3.03575 4.27718 0
M  V30 12408 H 1126.91 -4.43234 3.29011 0
M  V30 12409 H 1127.39 -4.07779 1.63134 0
M  V30 12410 H 1128 -3.05756 2.95624 0
M  V30 12411 N 1126.31 -1.30234 -0.887518 0
M  V30 12412 C 1127.59 -1.09572 -1.62029 0
M  V30 12413 C 1127.97 0.355877 -2.08079 0
M  V30 12414 O 1127.32 1.34692 -1.84582 0
M  V30 12415 C 1127.53 -2.0943 -2.79177 0
M  V30 12416 C 1128.88 -2.4101 -3.4957 0
M  V30 12417 O 1129.9 -2.0772 -2.89363 0
M  V30 12418 O 1128.76 -2.97943 -4.5814 0
M  V30 12419 H 1125.85 -0.420648 -0.712028 0
M  V30 12420 H 1128.4 -1.41651 -0.934517 0
M  V30 12421 H 1127.17 -3.07149 -2.42436 0
M  V30 12422 H 1126.79 -1.78154 -3.55453 0
M  V30 12423 N 1127.79 1.09952 -1.12909 0
M  V30 12424 C 1129.02 1.8552 -0.909163 0
M  V30 12425 C 1129.43 1.81173 0.545253 0
M  V30 12426 O 1128.77 1.20223 1.38896 0
M  V30 12427 C 1128.83 3.34693 -1.31228 0
M  V30 12428 C 1128.5 3.62794 -2.77902 0
M  V30 12429 C 1129.49 3.58973 -3.76078 0
M  V30 12430 C 1127.18 3.91311 -3.1493 0
M  V30 12431 C 1129.17 3.83271 -5.09296 0
M  V30 12432 C 1126.86 4.15265 -4.48328 0
M  V30 12433 C 1127.86 4.11236 -5.4532 0
M  V30 12434 O 1127.55 4.34576 -6.76313 0
M  V30 12435 H 1127.28 0.59303 -0.324486 0
M  V30 12436 H 1129.83 1.39878 -1.5041 0
M  V30 12437 H 1128.06 3.81016 -0.660573 0
M  V30 12438 H 1129.75 3.9166 -1.06569 0
M  V30 12439 H 1130.52 3.36974 -3.48817 0
M  V30 12440 H 1126.4 3.93575 -2.40041 0
M  V30 12441 H 1129.94 3.80041 -5.84991 0
M  V30 12442 H 1125.84 4.36743 -4.75316 0
M  V30 12443 H 1126.61 4.52065 -6.82334 0
M  V30 12444 N 1129.27 0.921757 1.27833 0
M  V30 12445 C 1130.49 0.574599 1.99281 0
M  V30 12446 C 1130.92 -0.838905 1.68357 0
M  V30 12447 O 1130.28 -1.56196 0.920468 0
M  V30 12448 C 1130.32 0.800027 3.51613 0
M  V30 12449 O 1129.43 -0.137215 4.12172 0
M  V30 12450 H 1128.77 0.221887 0.625829 0
M  V30 12451 H 1131.3 1.23939 1.62789 0
M  V30 12452 H 1131.31 0.71326 4.01717 0
M  V30 12453 H 1129.98 1.83042 3.73455 0
M  V30 12454 H 1128.56 -0.00103872 3.729 0
M  V30 12455 N 1130.75 -1.41857 0.686609 0
M  V30 12456 C 1131.97 -2.06219 0.221037 0
M  V30 12457 C 1132.4 -1.51298 -1.11762 0
M  V30 12458 O 1131.75 -0.636253 -1.69769 0
M  V30 12459 C 1131.8 -3.60153 0.179425 0
M  V30 12460 O 1130.91 -4.03577 -0.848481 0
M  V30 12461 H 1130.25 -0.654787 0.110228 0
M  V30 12462 H 1132.78 -1.81783 0.938948 0
M  V30 12463 H 1132.79 -4.07999 0.00725332 0
M  V30 12464 H 1131.46 -3.99498 1.15647 0
M  V30 12465 H 1130.04 -3.67255 -0.646393 0
M  V30 12466 N 1132.22 -0.430739 -1.51599 0
M  V30 12467 C 1133.45 0.139197 -2.06932 0
M  V30 12468 C 1133.87 1.3626 -1.29672 0
M  V30 12469 O 1133.23 1.78219 -0.332836 0
M  V30 12470 C 1133.28 0.446593 -3.57824 0
M  V30 12471 O 1132.38 1.53414 -3.82803 0
M  V30 12472 H 1131.73 0.00475812 -0.663983 0
M  V30 12473 H 1134.26 -0.610171 -1.9529 0
M  V30 12474 H 1134.27 0.698972 -4.01968 0
M  V30 12475 H 1132.94 -0.447613 -4.13484 0
M  V30 12476 H 1131.52 1.27224 -3.50526 0
M  V30 12477 N 1133.7 1.56767 -0.161869 0
M  V30 12478 C 1134.93 2.01401 0.49523 0
M  V30 12479 C 1135.35 1.04133 1.56646 0
M  V30 12480 O 1134.71 0.0193747 1.8129 0
M  V30 12481 C 1134.76 3.44695 1.05913 0
M  V30 12482 O 1133.86 3.50475 2.1735 0
M  V30 12483 H 1133.2 0.65314 0.1196 0
M  V30 12484 H 1135.73 2.02903 -0.26298 0
M  V30 12485 H 1135.74 3.83805 1.3841 0
M  V30 12486 H 1134.42 4.14991 0.274749 0
M  V30 12487 H 1133 3.23218 1.85969 0
M  V30 12488 N 1135.18 -0.111886 1.57202 0
M  V30 12489 C 1136.09 -1.1556 2.04165 0
M  V30 12490 C 1137.11 -1.44898 0.963354 0
M  V30 12491 O 1138.28 -1.55873 1.27536 0
M  V30 12492 C 1135.35 -2.46048 2.44256 0
M  V30 12493 C 1134.41 -2.24043 3.66201 0
M  V30 12494 C 1133.64 -3.4831 4.04371 0
M  V30 12495 O 1133.86 -4.55895 3.42806 0
M  V30 12496 O 1132.8 -3.38891 4.9743 0
M  V30 12497 H 1136.62 -0.786778 2.93332 0
M  V30 12498 H 1134.21 -0.323196 1.45862 0
M  V30 12499 H 1136.09 -3.22916 2.70745 0
M  V30 12500 H 1134.77 -2.8239 1.58233 0
M  V30 12501 H 1133.67 -1.4501 3.44852 0
M  V30 12502 H 1135.01 -1.92602 4.52952 0
M  V30 12503 N 1136.66 -1.52894 -0.382264 0
M  V30 12504 C 1137.57 -1.81084 -1.4915 0
M  V30 12505 C 1138.58 -0.698045 -1.59384 0
M  V30 12506 O 1139.76 -0.98635 -1.75594 0
M  V30 12507 C 1136.83 -1.97987 -2.84608 0
M  V30 12508 C 1135.89 -3.219 -2.8404 0
M  V30 12509 C 1135.12 -3.37988 -4.13037 0
M  V30 12510 O 1135.34 -2.58733 -5.08344 0
M  V30 12511 O 1134.28 -4.31273 -4.19866 0
M  V30 12512 H 1138.1 -2.75289 -1.28257 0
M  V30 12513 H 1135.69 -1.38068 -0.57076 0
M  V30 12514 H 1137.57 -2.10773 -3.64901 0
M  V30 12515 H 1136.24 -1.06972 -3.05514 0
M  V30 12516 H 1135.15 -3.14551 -2.02505 0
M  V30 12517 H 1136.48 -4.12783 -2.68087 0
M  V30 12518 N 1138.14 0.641106 -1.43971 0
M  V30 12519 C 1139.36 1.43324 -1.4991 0
M  V30 12520 C 1139.79 1.87705 -0.121908 0
M  V30 12521 O 1139.15 1.58127 0.886875 0
M  V30 12522 C 1139.19 2.63637 -2.46025 0
M  V30 12523 O 1138.3 3.63123 -1.95488 0
M  V30 12524 H 1137.64 0.429252 -0.506595 0
M  V30 12525 H 1140.17 0.783427 -1.89007 0
M  V30 12526 H 1140.18 3.11304 -2.63731 0
M  V30 12527 H 1138.85 2.30678 -3.46064 0
M  V30 12528 H 1137.43 3.22332 -1.87501 0
M  V30 12529 N 1139.62 1.30703 0.880598 0
M  V30 12530 C 1140.86 1.19541 1.62955 0
M  V30 12531 C 1141.18 -0.249089 1.93403 0
M  V30 12532 O 1140.45 -1.1669 1.57354 0
M  V30 12533 H 1139.03 0.439434 0.604075 0
M  V30 12534 H 1141.7 1.63888 1.05483 0
M  V30 12535 H 1140.79 1.75945 2.57779 0
M  V30 12536 N 1141.09 -1.09351 1.1349 0
M  V30 12537 C 1142.32 -1.85304 0.920324 0
M  V30 12538 C 1142.74 -1.81182 -0.530883 0
M  V30 12539 O 1142.09 -1.20853 -1.36751 0
M  V30 12540 C 1142.14 -3.33249 1.40098 0
M  V30 12541 O 1141.87 -3.37333 2.79531 0
M  V30 12542 C 1143.37 -4.2604 1.22495 0
M  V30 12543 H 1140.59 -0.585294 0.328134 0
M  V30 12544 H 1143.13 -1.38168 1.50765 0
M  V30 12545 H 1141.29 -3.7781 0.85664 0
M  V30 12546 H 1141.7 -4.29614 3.00885 0
M  V30 12547 H 1143.17 -5.27999 1.61 0
M  V30 12548 H 1143.65 -4.38883 0.166717 0
M  V30 12549 H 1144.26 -3.87295 1.75735 0
M  V30 12550 N 1142.57 -0.928524 -1.27343 0
M  V30 12551 C 1143.8 -0.585734 -1.98436 0
M  V30 12552 C 1144.21 0.83644 -1.69261 0
M  V30 12553 O 1143.57 1.55603 -0.953626 0
M  V30 12554 C 1143.62 -0.803092 -3.52467 0
M  V30 12555 O 1143.34 -2.16932 -3.80621 0
M  V30 12556 C 1144.84 -0.469127 -4.40811 0
M  V30 12557 H 1142.06 -0.221887 -0.633251 0
M  V30 12558 H 1144.61 -1.24577 -1.62175 0
M  V30 12559 H 1142.76 -0.189846 -3.86935 0
M  V30 12560 H 1143.18 -2.21992 -4.75205 0
M  V30 12561 H 1144.65 -0.671906 -5.47895 0
M  V30 12562 H 1145.13 0.595365 -4.35146 0
M  V30 12563 H 1145.73 -1.06055 -4.11865 0
M  V30 12564 N 1144.05 1.41491 -0.694123 0
M  V30 12565 C 1145.33 1.95004 -0.152571 0
M  V30 12566 C 1145.71 1.63357 1.33707 0
M  V30 12567 O 1145.05 0.939815 2.08278 0
M  V30 12568 C 1145.26 3.46186 -0.44232 0
M  V30 12569 C 1146.61 4.22991 -0.369279 0
M  V30 12570 O 1147.64 3.54198 -0.377152 0
M  V30 12571 O 1146.5 5.45514 -0.328145 0
M  V30 12572 H 1143.59 0.826879 -0.0141253 0
M  V30 12573 H 1146.14 1.51216 -0.770183 0
M  V30 12574 H 1144.91 3.62497 -1.47348 0
M  V30 12575 H 1144.53 3.97064 0.206337 0
M  V30 12576 N 1145.53 0.438773 1.51369 0
M  V30 12577 C 1146.44 -0.378074 2.31534 0
M  V30 12578 C 1147.45 -1.02632 1.40508 0
M  V30 12579 O 1148.63 -1.02138 1.73579 0
M  V30 12580 C 1145.69 -1.46374 3.14286 0
M  V30 12581 C 1144.76 -0.835473 4.21092 0
M  V30 12582 C 1143.99 -1.86941 4.99889 0
M  V30 12583 O 1144.21 -3.0918 4.79337 0
M  V30 12584 O 1143.15 -1.45914 5.83946 0
M  V30 12585 H 1146.97 0.276401 3.0244 0
M  V30 12586 H 1144.56 0.201281 1.48038 0
M  V30 12587 H 1146.44 -2.09335 3.65728 0
M  V30 12588 H 1145.11 -2.10227 2.46143 0
M  V30 12589 H 1144.02 -0.167775 3.73724 0
M  V30 12590 H 1145.35 -0.240406 4.91613 0
M  V30 12591 N 1147.01 -1.56678 0.170181 0
M  V30 12592 C 1147.92 -2.21496 -0.773079 0
M  V30 12593 C 1148.93 -1.20626 -1.25401 0
M  V30 12594 O 1150.11 -1.53283 -1.30638 0
M  V30 12595 C 1147.17 -2.8421 -1.98558 0
M  V30 12596 C 1146.23 -4.00278 -1.55164 0
M  V30 12597 C 1145.47 -4.59992 -2.70634 0
M  V30 12598 O 1145.69 -4.18595 -3.87472 0
M  V30 12599 O 1144.62 -5.49881 -2.44775 0
M  V30 12600 H 1148.45 -3.02659 -0.251195 0
M  V30 12601 H 1146.03 -1.49288 -0.0579621 0
M  V30 12602 H 1147.92 -3.2398 -2.69472 0
M  V30 12603 H 1146.59 -2.06045 -2.49654 0
M  V30 12604 H 1145.5 -3.6518 -0.812038 0
M  V30 12605 H 1146.83 -4.80033 -1.0876 0
M  V30 12606 N 1148.48 0.103547 -1.57259 0
M  V30 12607 C 1149.76 0.839768 -1.76656 0
M  V30 12608 C 1150.14 1.9734 -0.749666 0
M  V30 12609 O 1149.49 2.27405 0.223466 0
M  V30 12610 C 1149.7 1.34218 -3.22159 0
M  V30 12611 C 1151.05 1.78835 -3.85102 0
M  V30 12612 O 1152.07 1.43861 -3.25857 0
M  V30 12613 O 1150.93 2.43474 -4.89267 0
M  V30 12614 H 1148.02 0.399928 -0.723869 0
M  V30 12615 H 1150.57 0.0860857 -1.69482 0
M  V30 12616 H 1149.34 0.52956 -3.877 0
M  V30 12617 H 1148.96 2.15811 -3.33933 0
M  V30 12618 N 1149.96 1.53094 0.37415 0
M  V30 12619 C 1151.24 1.59456 1.13283 0
M  V30 12620 C 1151.62 0.396821 2.07337 0
M  V30 12621 O 1150.97 -0.613659 2.20106 0
M  V30 12622 C 1151.18 2.94069 1.87948 0
M  V30 12623 C 1152.52 3.4834 2.42785 0
M  V30 12624 O 1153.55 2.96042 1.98085 0
M  V30 12625 O 1152.41 4.39747 3.24477 0
M  V30 12626 H 1149.5 0.643731 0.519171 0
M  V30 12627 H 1152.05 1.65434 0.378105 0
M  V30 12628 H 1150.82 3.72685 1.19255 0
M  V30 12629 H 1150.44 2.91544 2.70348 0
M  V30 12630 N 1151.44 -0.633461 1.44309 0
M  V30 12631 C 1152.72 -1.3917 1.37444 0
M  V30 12632 C 1153.1 -2.11076 0.0319994 0
M  V30 12633 O 1152.44 -2.06164 -0.98533 0
M  V30 12634 C 1152.65 -2.36005 2.57104 0
M  V30 12635 C 1154 -2.99407 3.01065 0
M  V30 12636 O 1155.03 -2.46331 2.57292 0
M  V30 12637 O 1153.89 -3.95686 3.76954 0
M  V30 12638 H 1150.98 -0.622746 0.544166 0
M  V30 12639 H 1153.53 -0.658712 1.56394 0
M  V30 12640 H 1152.3 -1.81955 3.46422 0
M  V30 12641 H 1151.92 -3.16725 2.40356 0
M  V30 12642 N 1152.92 -1.31168 -0.873655 0
M  V30 12643 C 1154.16 -1.20821 -1.62881 0
M  V30 12644 C 1154.5 0.233994 -1.92785 0
M  V30 12645 O 1153.77 1.16588 -1.55684 0
M  V30 12646 C 1154.06 -2.04875 -2.96139 0
M  V30 12647 C 1153.91 -3.57375 -2.73136 0
M  V30 12648 C 1155.23 -1.8953 -3.97198 0
M  V30 12649 H 1152.35 -0.44026 -0.59105 0
M  V30 12650 H 1154.99 -1.6092 -1.01019 0
M  V30 12651 H 1153.14 -1.70806 -3.48938 0
M  V30 12652 H 1154.81 -4.01561 -2.27038 0
M  V30 12653 H 1153.05 -3.8099 -2.07434 0
M  V30 12654 H 1153.72 -4.1149 -3.6794 0
M  V30 12655 H 1156.2 -2.19337 -3.53596 0
M  V30 12656 H 1155.08 -2.5065 -4.8833 0
M  V30 12657 H 1155.34 -0.857576 -4.33703 0
M  V30 12658 N 1154.4 1.08748 -1.14068 0
M  V30 12659 C 1155.31 2.19123 -0.837998 0
M  V30 12660 C 1156.32 1.73065 0.180164 0
M  V30 12661 O 1157.5 2.01398 0.00952285 0
M  V30 12662 C 1154.56 3.45257 -0.316 0
M  V30 12663 C 1153.62 4.05959 -1.39628 0
M  V30 12664 C 1152.86 5.26072 -0.899095 0
M  V30 12665 O 1153.08 5.69804 0.260744 0
M  V30 12666 O 1152.01 5.7808 -1.67652 0
M  V30 12667 H 1155.84 2.4748 -1.76033 0
M  V30 12668 H 1153.43 1.17816 -0.918675 0
M  V30 12669 H 1155.31 4.21389 -0.0306425 0
M  V30 12670 H 1153.98 3.18486 0.578654 0
M  V30 12671 H 1152.89 3.31432 -1.73505 0
M  V30 12672 H 1154.22 4.36971 -2.26533 0
M  V30 12673 N 1155.87 0.935264 1.26849 0
M  V30 12674 C 1156.81 0.397539 2.25726 0
M  V30 12675 C 1157.82 -0.475928 1.55688 0
M  V30 12676 O 1159.01 -0.287329 1.76172 0
M  V30 12677 C 1156.11 -0.448308 3.35922 0
M  V30 12678 C 1155.28 0.407624 4.35496 0
M  V30 12679 C 1154.34 -0.376815 5.24849 0
M  V30 12680 O 1153.37 0.218109 5.68782 0
M  V30 12681 N 1154.57 -1.67481 5.55815 0
M  V30 12682 H 1157.33 1.24753 2.72501 0
M  V30 12683 H 1154.89 0.803505 1.40554 0
M  V30 12684 H 1156.89 -0.980338 3.92647 0
M  V30 12685 H 1155.46 -1.19908 2.88688 0
M  V30 12686 H 1154.68 1.12091 3.77928 0
M  V30 12687 H 1155.96 0.992512 4.99026 0
M  V30 12688 H 1155.36 -2.18037 5.21993 0
M  V30 12689 H 1153.92 -2.15321 6.15207 0
M  V30 12690 N 1157.35 -1.41121 0.701616 0
M  V30 12691 C 1158.26 -2.34565 0.0407815 0
M  V30 12692 C 1159.28 -1.56555 -0.75937 0
M  V30 12693 O 1160.45 -1.89008 -0.695542 0
M  V30 12694 C 1157.52 -3.35347 -0.879954 0
M  V30 12695 C 1156.58 -4.29241 -0.0713279 0
M  V30 12696 C 1155.81 -5.25209 -0.948211 0
M  V30 12697 O 1156.04 -5.26781 -2.18766 0
M  V30 12698 O 1154.97 -6.00605 -0.394657 0
M  V30 12699 H 1158.8 -2.92666 0.811188 0
M  V30 12700 H 1156.38 -1.42077 0.461991 0
M  V30 12701 H 1158.26 -3.9719 -1.40776 0
M  V30 12702 H 1156.94 -2.7968 -1.62975 0
M  V30 12703 H 1155.85 -3.70727 0.50122 0
M  V30 12704 H 1157.18 -4.88022 0.639935 0
M  V30 12705 N 1158.83 -0.446794 -1.51134 0
M  V30 12706 C 1160.08 0.116263 -2.01765 0
M  V30 12707 C 1160.4 1.42382 -1.33238 0
M  V30 12708 O 1159.67 1.9018 -0.469915 0
M  V30 12709 H 1158.25 0.0459558 -0.745585 0
M  V30 12710 H 1160.91 -0.591664 -1.85702 0
M  V30 12711 H 1160.01 0.285358 -3.10793 0
M  V30 12712 N 1160.31 1.56586 -0.178487 0
M  V30 12713 C 1161.27 2.17091 0.73512 0
M  V30 12714 C 1162.27 1.12088 1.15295 0
M  V30 12715 O 1163.46 1.37563 1.06874 0
M  V30 12716 C 1160.59 2.75957 2.00151 0
M  V30 12717 H 1161.79 2.99176 0.208272 0
M  V30 12718 H 1159.34 1.56138 0.0710967 0
M  V30 12719 H 1160.07 1.97626 2.57127 0
M  V30 12720 H 1159.86 3.52809 1.7108 0
M  V30 12721 H 1161.35 3.2247 2.65335 0
M  V30 12722 N 1161.79 -0.095206 1.57312 0
M  V30 12723 C 1163.06 -0.830388 1.77099 0
M  V30 12724 C 1163.44 -1.9694 0.760121 0
M  V30 12725 O 1162.79 -2.2752 -0.211403 0
M  V30 12726 C 1163 -1.32507 3.22867 0
M  V30 12727 C 1164.35 -1.7679 3.86045 0
M  V30 12728 O 1165.37 -1.42131 3.26615 0
M  V30 12729 O 1164.23 -2.40876 4.90552 0
M  V30 12730 H 1161.33 -0.396083 0.72598 0
M  V30 12731 H 1163.87 -0.0770965 1.69525 0
M  V30 12732 H 1162.64 -0.508992 3.87975 0
M  V30 12733 H 1162.27 -2.14037 3.35073 0
M  V30 12734 N 1163.26 -1.53291 -0.366026 0
M  V30 12735 C 1164.17 -1.82656 -1.47221 0
M  V30 12736 C 1165.19 -0.71491 -1.58635 0
M  V30 12737 O 1166.37 -1.00492 -1.74538 0
M  V30 12738 C 1163.43 -2.00995 -2.82492 0
M  V30 12739 C 1162.49 -3.24895 -2.8061 0
M  V30 12740 C 1161.73 -3.4235 -4.09429 0
M  V30 12741 O 1161.95 -2.6411 -5.05571 0
M  V30 12742 O 1160.88 -4.35702 -4.15268 0
M  V30 12743 H 1164.71 -2.76634 -1.2533 0
M  V30 12744 H 1162.29 -1.38665 -0.556084 0
M  V30 12745 H 1164.18 -2.14632 -3.62645 0
M  V30 12746 H 1162.85 -1.10207 -3.04362 0
M  V30 12747 H 1161.76 -3.16682 -1.99157 0
M  V30 12748 H 1163.09 -4.15604 -2.63694 0
M  V30 12749 N 1164.74 0.6258 -1.44643 0
M  V30 12750 C 1165.97 1.41726 -1.51422 0
M  V30 12751 C 1166.39 1.87565 -0.14181 0
M  V30 12752 O 1165.75 1.59059 0.870054 0
M  V30 12753 C 1165.8 2.61012 -2.48807 0
M  V30 12754 O 1164.9 3.61029 -1.99328 0
M  V30 12755 H 1164.24 0.423855 -0.511119 0
M  V30 12756 H 1166.77 0.763336 -1.89827 0
M  V30 12757 H 1166.78 3.08489 -2.67018 0
M  V30 12758 H 1165.46 2.26995 -3.48491 0
M  V30 12759 H 1164.04 3.20325 -1.90909 0
M  V30 12760 N 1166.22 1.31629 0.866686 0
M  V30 12761 C 1167.45 1.24474 1.65269 0
M  V30 12762 C 1167.86 -0.18939 1.87848 0
M  V30 12763 O 1167.22 -1.12251 1.43895 0
M  V30 12764 C 1167.27 1.98872 3.01881 0
M  V30 12765 O 1166.99 3.36687 2.8031 0
M  V30 12766 C 1168.49 1.98595 3.96327 0
M  V30 12767 H 1165.71 0.429966 0.515141 0
M  V30 12768 H 1168.26 1.73559 1.08156 0
M  V30 12769 H 1166.41 1.53539 3.55675 0
M  V30 12770 H 1166.83 3.74612 3.67105 0
M  V30 12771 H 1168.3 2.55156 4.89489 0
M  V30 12772 H 1168.78 0.969257 4.28371 0
M  V30 12773 H 1169.38 2.43821 3.4847 0
M  V30 12774 N 1167.7 -1.08142 1.14644 0
M  V30 12775 C 1168.92 -1.84857 0.940349 0
M  V30 12776 C 1169.35 -1.81163 -0.506117 0
M  V30 12777 O 1168.71 -1.19869 -1.36019 0
M  V30 12778 C 1168.76 -3.30198 1.4492 0
M  V30 12779 O 1167.86 -4.07355 0.64308 0
M  V30 12780 H 1167.2 -0.572711 0.336003 0
M  V30 12781 H 1169.73 -1.36475 1.52432 0
M  V30 12782 H 1169.74 -3.81039 1.45854 0
M  V30 12783 H 1168.42 -3.32202 2.50229 0
M  V30 12784 H 1166.99 -3.66219 0.702698 0
M  V30 12785 N 1169.18 -0.941978 -1.26351 0
M  V30 12786 C 1170.43 -0.588806 -1.93333 0
M  V30 12787 C 1170.75 0.875067 -1.74263 0
M  V30 12788 O 1170.02 1.62187 -1.09873 0
M  V30 12789 H 1168.6 -0.214774 -0.715459 0
M  V30 12790 H 1171.26 -1.19747 -1.53774 0
M  V30 12791 H 1170.35 -0.807267 -3.01479 0
M  V30 12792 N 1170.66 1.40747 -0.709091 0
M  V30 12793 C 1172.07 1.83955 -0.318968 0
M  V30 12794 C 1172.42 1.59304 1.14527 0
M  V30 12795 O 1171.54 1.07052 1.88066 0
M  V30 12796 C 1172.14 3.33934 -0.572147 0
M  V30 12797 C 1170.7 3.75661 -0.235802 0
M  V30 12798 C 1169.84 2.64024 -0.847743 0
M  V30 12799 H 1172.79 1.30107 -0.908734 0
M  V30 12800 H 1172.82 3.80143 0.164752 0
M  V30 12801 H 1172.33 3.51844 -1.63791 0
M  V30 12802 H 1170.43 3.63348 0.825164 0
M  V30 12803 H 1170.54 4.73955 -0.700263 0
M  V30 12804 H 1168.91 2.53197 -0.276283 0
M  V30 12805 H 1169.69 2.84748 -1.91765 0
M  V30 12806 N 1172.13 0.454803 1.50895 0
M  V30 12807 C 1173.04 -0.353495 2.31921 0
M  V30 12808 C 1174.06 -1.01136 1.41589 0
M  V30 12809 O 1175.24 -1.00291 1.74653 0
M  V30 12810 C 1172.3 -1.43032 3.15821 0
M  V30 12811 C 1171.36 -0.790763 4.21954 0
M  V30 12812 C 1170.59 -1.81628 5.01843 0
M  V30 12813 O 1170.82 -3.04078 4.8259 0
M  V30 12814 O 1169.75 -1.39713 5.8546 0
M  V30 12815 H 1173.58 0.308463 3.02129 0
M  V30 12816 H 1171.16 0.216971 1.47816 0
M  V30 12817 H 1173.04 -2.05444 3.67927 0
M  V30 12818 H 1171.72 -2.07605 2.48358 0
M  V30 12819 H 1170.63 -0.128127 3.73881 0
M  V30 12820 H 1171.96 -0.188251 4.9184 0
M  V30 12821 N 1173.61 -1.56489 0.186789 0
M  V30 12822 C 1174.89 -1.89066 -0.501337 0
M  V30 12823 C 1175.27 -1.09906 -1.80233 0
M  V30 12824 O 1174.62 -0.197626 -2.27644 0
M  V30 12825 C 1174.83 -3.41318 -0.728207 0
M  V30 12826 C 1176.17 -4.11379 -1.0513 0
M  V30 12827 O 1177.2 -3.46722 -0.816216 0
M  V30 12828 O 1176.06 -5.25638 -1.49557 0
M  V30 12829 H 1173.15 -0.784966 -0.260303 0
M  V30 12830 H 1175.7 -1.68183 0.226382 0
M  V30 12831 H 1174.47 -3.90834 0.19088 0
M  V30 12832 H 1174.09 -3.67865 -1.50869 0
M  V30 12833 N 1175.09 0.086862 -1.5736 0
M  V30 12834 C 1176.32 0.802167 -1.90717 0
M  V30 12835 C 1176.73 1.71875 -0.781304 0
M  V30 12836 O 1176.09 1.80831 0.246255 0
M  V30 12837 C 1176.14 1.60858 -3.23739 0
M  V30 12838 O 1175.86 0.728851 -4.31995 0
M  V30 12839 C 1177.36 2.42621 -3.71012 0
M  V30 12840 H 1174.58 0.228914 -0.630745 0
M  V30 12841 H 1177.13 0.061634 -2.04407 0
M  V30 12842 H 1175.28 2.30153 -3.11622 0
M  V30 12843 H 1175.7 1.2882 -5.08435 0
M  V30 12844 H 1177.17 2.94683 -4.66761 0
M  V30 12845 H 1177.65 3.21462 -2.99264 0
M  V30 12846 H 1178.25 1.78509 -3.86024 0
M  V30 12847 N 1176.57 1.53483 0.357892 0
M  V30 12848 C 1177.98 1.43426 0.700073 0
M  V30 12849 C 1178.18 0.579493 1.92987 0
M  V30 12850 O 1177.24 0.0649086 2.52417 0
M  V30 12851 C 1178.55 2.86723 0.906099 0
M  V30 12852 C 1180.1 2.96405 1.00563 0
M  V30 12853 C 1180.58 4.4078 1.24407 0
M  V30 12854 N 1182.07 4.44243 1.3116 0
M  V30 12855 C 1182.8 5.53069 1.51333 0
M  V30 12856 N 1182.3 6.71928 1.68774 0
M  V30 12857 N 1184.09 5.40659 1.53765 0
M  V30 12858 H 1176.24 2.07559 -0.450894 0
M  V30 12859 H 1178.5 0.937649 -0.139711 0
M  V30 12860 H 1178.21 3.51622 0.0741579 0
M  V30 12861 H 1178.08 3.30827 1.81199 0
M  V30 12862 H 1180.47 2.31656 1.8281 0
M  V30 12863 H 1180.55 2.55684 0.0769512 0
M  V30 12864 H 1180.2 5.06105 0.426575 0
M  V30 12865 H 1180.13 4.7908 2.18608 0
M  V30 12866 H 1182.62 3.58587 1.19265 0
M  V30 12867 H 1182.93 7.50634 1.83762 0
M  V30 12868 H 1181.28 6.749 1.65937 0
M  V30 12869 H 1184.47 4.46764 1.39713 0
M  V30 12870 H 1184.64 6.25535 1.69146 0
M  V30 12871 N 1178.05 -0.61812 1.44973 0
M  V30 12872 C 1179.01 -1.71135 1.52465 0
M  V30 12873 C 1180.01 -1.5561 0.405246 0
M  V30 12874 O 1181.2 -1.60869 0.668351 0
M  V30 12875 C 1178.33 -3.10324 1.41108 0
M  V30 12876 H 1179.52 -1.65862 2.49859 0
M  V30 12877 H 1177.08 -0.832932 1.32257 0
M  V30 12878 H 1177.81 -3.21183 0.448574 0
M  V30 12879 H 1177.6 -3.23001 2.2229 0
M  V30 12880 H 1179.09 -3.89976 1.49361 0
M  V30 12881 N 1179.52 -1.32087 -0.859693 0
M  V30 12882 C 1180.49 -1.20546 -1.94939 0
M  V30 12883 C 1181.49 -0.12982 -1.60275 0
M  V30 12884 O 1182.68 -0.379853 -1.70008 0
M  V30 12885 C 1179.81 -0.852717 -3.30063 0
M  V30 12886 H 1181 -2.17384 -2.06602 0
M  V30 12887 H 1178.55 -1.15846 -1.04926 0
M  V30 12888 H 1179.29 0.114059 -3.24099 0
M  V30 12889 H 1179.07 -1.63035 -3.56598 0
M  V30 12890 H 1180.56 -0.796145 -4.09941 0
M  V30 12891 N 1181 1.07532 -1.15215 0
M  V30 12892 C 1182.23 1.84356 -0.950139 0
M  V30 12893 C 1182.65 1.81429 0.496502 0
M  V30 12894 O 1182.01 1.20589 1.35381 0
M  V30 12895 C 1182.06 3.29425 -1.46669 0
M  V30 12896 O 1181.16 4.07008 -0.664674 0
M  V30 12897 H 1180.5 0.570921 -0.339036 0
M  V30 12898 H 1183.03 1.35665 -1.53154 0
M  V30 12899 H 1183.04 3.8026 -1.47873 0
M  V30 12900 H 1181.72 3.3087 -2.51988 0
M  V30 12901 H 1180.29 3.65841 -0.72211 0
M  V30 12902 N 1182.48 0.948665 1.2585 0
M  V30 12903 C 1183.71 0.616741 1.98018 0
M  V30 12904 C 1184.13 -0.803005 1.70098 0
M  V30 12905 O 1183.49 -1.54208 0.953392 0
M  V30 12906 C 1183.54 0.874429 3.49837 0
M  V30 12907 O 1182.64 -0.0497568 4.1237 0
M  V30 12908 H 1181.98 0.235112 0.620982 0
M  V30 12909 H 1184.51 1.27364 1.60124 0
M  V30 12910 H 1184.52 0.798309 4.00114 0
M  V30 12911 H 1183.2 1.90922 3.69488 0
M  V30 12912 H 1181.77 0.0780591 3.72818 0
M  V30 12913 N 1183.96 -1.40369 0.716545 0
M  V30 12914 C 1184.89 -2.33365 0.0793533 0
M  V30 12915 C 1185.87 -1.52943 -0.744482 0
M  V30 12916 O 1187.05 -1.81406 -0.693212 0
M  V30 12917 C 1184.18 -3.36928 -0.842429 0
M  V30 12918 C 1183.14 -4.2782 -0.124142 0
M  V30 12919 C 1182.46 -5.21928 -1.1617 0
M  V30 12920 C 1183.76 -5.12199 1.02224 0
M  V30 12921 H 1185.46 -2.86899 0.856115 0
M  V30 12922 H 1183 -1.37946 0.413138 0
M  V30 12923 H 1184.96 -4.00925 -1.29759 0
M  V30 12924 H 1183.68 -2.81791 -1.6511 0
M  V30 12925 H 1182.34 -3.65277 0.311201 0
M  V30 12926 H 1181.99 -4.63096 -1.96345 0
M  V30 12927 H 1181.69 -5.83582 -0.685978 0
M  V30 12928 H 1183.21 -5.88802 -1.61694 0
M  V30 12929 H 1184.63 -5.69644 0.646399 0
M  V30 12930 H 1183.02 -5.82901 1.4264 0
M  V30 12931 H 1184.09 -4.4812 1.85246 0
M  V30 12932 N 1185.44 -0.462799 -1.50652 0
M  V30 12933 C 1186.38 0.349784 -2.29955 0
M  V30 12934 C 1187.38 0.997947 -1.36885 0
M  V30 12935 O 1188.58 0.93 -1.54114 0
M  V30 12936 H 1184.96 0.131635 -0.740389 0
M  V30 12937 H 1186.93 -0.33958 -2.96461 0
M  V30 12938 C 1185.68 1.42398 -3.17204 0
M  V30 12939 H 1185 0.934611 -3.88722 0
M  V30 12940 H 1186.44 1.96528 -3.75703 0
M  V30 12941 C 1184.9 2.42135 -2.34248 0
M  V30 12942 O 1185.43 3.47229 -2.01978 0
M  V30 12943 N 1183.64 2.13647 -1.96985 0
M  V30 12944 H 1183.18 1.28209 -2.23428 0
M  V30 12945 H 1183.14 2.80615 -1.41783 0
M  V30 12946 N 1186.91 1.56388 -0.195085 0
M  V30 12947 C 1187.84 2.22091 0.720971 0
M  V30 12948 C 1188.83 1.184 1.22128 0
M  V30 12949 O 1190.01 1.46907 1.27012 0
M  V30 12950 C 1187.14 2.88025 1.94059 0
M  V30 12951 C 1186.09 3.97959 1.5752 0
M  V30 12952 C 1185.42 4.51058 2.87143 0
M  V30 12953 C 1186.72 5.16365 0.785145 0
M  V30 12954 H 1188.41 2.98898 0.173245 0
M  V30 12955 H 1185.96 1.43767 0.0818868 0
M  V30 12956 H 1187.91 3.32671 2.58666 0
M  V30 12957 H 1186.64 2.08623 2.51285 0
M  V30 12958 H 1185.3 3.54004 0.952715 0
M  V30 12959 H 1184.94 3.68418 3.42458 0
M  V30 12960 H 1184.64 5.25237 2.63439 0
M  V30 12961 H 1186.17 4.98406 3.52738 0
M  V30 12962 H 1187.58 5.57556 1.33431 0
M  V30 12963 H 1185.98 5.9661 0.646231 0
M  V30 12964 H 1187.05 4.84428 -0.213789 0
M  V30 12965 N 1188.39 -0.0785156 1.57404 0
M  V30 12966 C 1189.62 -0.795871 1.91522 0
M  V30 12967 C 1190.04 -1.70665 0.790892 0
M  V30 12968 O 1189.4 -1.79474 -0.25666 0
M  V30 12969 C 1189.45 -1.57121 3.24569 0
M  V30 12970 O 1188.55 -2.6814 3.13328 0
M  V30 12971 H 1187.89 -0.217575 0.627341 0
M  V30 12972 H 1190.42 -0.0487724 2.04542 0
M  V30 12973 H 1190.43 -1.9519 3.5828 0
M  V30 12974 H 1189.11 -0.902909 4.05981 0
M  V30 12975 H 1187.69 -2.32978 2.91163 0
M  V30 12976 N 1189.87 -1.5367 -0.349747 0
M  V30 12977 C 1190.82 -1.81914 -1.44948 0
M  V30 12978 C 1191.81 -0.689218 -1.54745 0
M  V30 12979 O 1193.02 -0.872448 -1.57443 0
M  V30 12980 H 1189.39 -0.576234 -0.483176 0
M  V30 12981 H 1191.36 -2.73932 -1.18338 0
M  V30 12982 C 1190.11 -2.04005 -2.81562 0
M  V30 12983 H 1189.44 -2.90399 -2.74788 0
M  V30 12984 H 1190.88 -2.27737 -3.57648 0
M  V30 12985 C 1189.34 -0.823748 -3.26674 0
M  V30 12986 O 1189.87 -0.0201351 -4.01695 0
M  V30 12987 N 1188.07 -0.642716 -2.83403 0
M  V30 12988 H 1187.62 -1.29783 -2.22517 0
M  V30 12989 H 1187.58 0.169654 -3.13942 0
M  V30 12990 N 1191.35 0.610423 -1.45298 0
M  V30 12991 C 1192.6 1.3668 -1.48872 0
M  V30 12992 C 1192.92 1.94562 -0.130686 0
M  V30 12993 O 1192.19 1.76996 0.839607 0
M  V30 12994 H 1190.77 0.507393 -0.548235 0
M  V30 12995 H 1193.43 0.716997 -1.81232 0
M  V30 12996 H 1192.53 2.18766 -2.22593 0
M  V30 12997 N 1192.83 1.32541 0.852676 0
M  V30 12998 C 1193.74 1.23646 1.99371 0
M  V30 12999 C 1194.75 0.149673 1.73355 0
M  V30 13000 O 1195.93 0.370716 1.97959 0
M  V30 13001 C 1192.99 0.961873 3.3309 0
M  V30 13002 C 1192.05 2.1373 3.72315 0
M  V30 13003 C 1191.29 1.87572 4.99652 0
M  V30 13004 O 1191.51 0.819247 5.64486 0
M  V30 13005 O 1190.44 2.73732 5.36054 0
M  V30 13006 H 1194.27 2.19573 2.09813 0
M  V30 13007 H 1191.86 1.12451 0.983627 0
M  V30 13008 H 1193.74 0.825316 4.13239 0
M  V30 13009 H 1192.41 0.0327745 3.23683 0
M  V30 13010 H 1191.32 2.32933 2.92733 0
M  V30 13011 H 1192.65 3.04925 3.86369 0
M  V30 13012 N 1194.3 -1.0692 1.15784 0
M  V30 13013 C 1195.53 -1.8331 0.959422 0
M  V30 13014 C 1195.95 -1.82268 -0.492332 0
M  V30 13015 O 1195.3 -1.23727 -1.34156 0
M  V30 13016 C 1195.36 -3.30202 1.47135 0
M  V30 13017 O 1195.08 -3.31328 2.86624 0
M  V30 13018 C 1196.58 -4.23346 1.31504 0
M  V30 13019 H 1193.8 -0.578202 0.340475 0
M  V30 13020 H 1196.34 -1.34939 1.53661 0
M  V30 13021 H 1194.5 -3.75908 0.936587 0
M  V30 13022 H 1194.91 -4.23135 3.0993 0
M  V30 13023 H 1196.38 -5.24465 1.72163 0
M  V30 13024 H 1196.86 -4.38431 0.259773 0
M  V30 13025 H 1197.47 -3.8348 1.83911 0
M  V30 13026 N 1195.78 -0.955326 -1.25345 0
M  V30 13027 C 1196.69 -0.482707 -2.2958 0
M  V30 13028 C 1197.71 0.450283 -1.68073 0
M  V30 13029 O 1198.88 0.326358 -1.98738 0
M  V30 13030 C 1195.95 0.231293 -3.45928 0
M  V30 13031 C 1195.01 -0.739995 -4.22874 0
M  V30 13032 C 1194.24 -0.0599748 -5.33666 0
M  V30 13033 O 1194.47 1.15423 -5.586 0
M  V30 13034 O 1193.4 -0.745865 -5.97261 0
M  V30 13035 H 1197.23 -1.34892 -2.72099 0
M  V30 13036 H 1194.81 -0.721812 -1.30806 0
M  V30 13037 H 1196.69 0.632908 -4.1662 0
M  V30 13038 H 1195.37 1.07267 -3.0541 0
M  V30 13039 H 1194.28 -1.19183 -3.54607 0
M  V30 13040 H 1195.61 -1.54941 -4.67177 0
M  V30 13041 N 1197.26 1.39987 -0.723979 0
M  V30 13042 C 1198.49 2.0556 -0.275634 0
M  V30 13043 C 1198.91 1.54207 1.07711 0
M  V30 13044 O 1198.27 0.681041 1.68022 0
M  V30 13045 C 1198.32 3.59551 -0.27485 0
M  V30 13046 O 1197.42 4.05685 0.741182 0
M  V30 13047 H 1196.76 0.651634 -0.12755 0
M  V30 13048 H 1199.29 1.79229 -0.986814 0
M  V30 13049 H 1199.3 4.07837 -0.115425 0
M  V30 13050 H 1197.98 3.96291 -1.26198 0
M  V30 13051 H 1196.55 3.6884 0.548795 0
M  V30 13052 N 1198.74 0.470782 1.50404 0
M  V30 13053 C 1199.99 -0.0844409 2.02624 0
M  V30 13054 C 1200.32 -1.39398 1.3521 0
M  V30 13055 O 1199.59 -1.88542 0.477707 0
M  V30 13056 C 1199.88 -0.268563 3.59097 0
M  V30 13057 C 1199.73 1.06198 4.37084 0
M  V30 13058 C 1201.05 -1.02324 4.28039 0
M  V30 13059 H 1198.17 -0.0292141 0.736421 0
M  V30 13060 H 1200.81 0.616312 1.79726 0
M  V30 13061 H 1198.96 -0.865441 3.78738 0
M  V30 13062 H 1200.63 1.69541 4.29015 0
M  V30 13063 H 1198.87 1.65868 4.00837 0
M  V30 13064 H 1199.55 0.886795 5.4483 0
M  V30 13065 H 1202.02 -0.517325 4.12872 0
M  V30 13066 H 1200.9 -1.12087 5.37334 0
M  V30 13067 H 1201.16 -2.05974 3.91187 0
M  V30 13068 N 1200.22 -1.56282 0.203376 0
M  V30 13069 C 1201.16 -2.19473 -0.714164 0
M  V30 13070 C 1202.13 -1.14454 -1.20372 0
M  V30 13071 O 1203.32 -1.42739 -1.26611 0
M  V30 13072 C 1200.46 -2.86451 -1.92457 0
M  V30 13073 C 1199.57 -4.06017 -1.47561 0
M  V30 13074 C 1198.71 -4.60829 -2.64216 0
M  V30 13075 C 1197.75 -5.72734 -2.15967 0
M  V30 13076 N 1196.88 -6.21916 -3.25829 0
M  V30 13077 H 1201.72 -2.97523 -0.168558 0
M  V30 13078 H 1199.26 -1.46926 -0.0714525 0
M  V30 13079 H 1201.22 -3.23459 -2.63496 0
M  V30 13080 H 1199.85 -2.10951 -2.44335 0
M  V30 13081 H 1198.9 -3.74617 -0.660784 0
M  V30 13082 H 1200.21 -4.8693 -1.08168 0
M  V30 13083 H 1199.37 -5.00185 -3.43366 0
M  V30 13084 H 1198.11 -3.7904 -3.06887 0
M  V30 13085 H 1197.11 -5.32899 -1.35273 0
M  V30 13086 H 1198.34 -6.56346 -1.74316 0
M  V30 13087 H 1196.28 -5.43047 -3.68016 0
M  V30 13088 H 1196.2 -6.97904 -2.90631 0
M  V30 13089 H 1197.47 -6.65927 -4.05168 0
M  V30 13090 N 1201.7 0.070167 -1.57444 0
M  V30 13091 C 1202.92 0.781894 -1.91557 0
M  V30 13092 C 1203.34 1.71037 -0.799489 0
M  V30 13093 O 1202.7 1.81082 0.227062 0
M  V30 13094 C 1202.75 1.57415 -3.25427 0
M  V30 13095 O 1202.47 0.682991 -4.32743 0
M  V30 13096 C 1203.97 2.38673 -3.73564 0
M  V30 13097 H 1201.19 0.222211 -0.633138 0
M  V30 13098 H 1203.73 0.0399504 -2.04461 0
M  V30 13099 H 1201.89 2.26835 -3.14045 0
M  V30 13100 H 1202.3 1.2342 -5.09772 0
M  V30 13101 H 1203.78 2.89716 -4.6986 0
M  V30 13102 H 1204.25 3.18269 -3.02657 0
M  V30 13103 H 1204.86 1.74405 -3.87896 0
M  V30 13104 N 1203.17 1.53854 0.341593 0
M  V30 13105 C 1204.11 1.76797 1.44284 0
M  V30 13106 C 1205.08 0.617157 1.50432 0
M  V30 13107 O 1206.27 0.85254 1.68119 0
M  V30 13108 C 1203.4 1.86837 2.82506 0
M  V30 13109 C 1202.44 3.09001 2.93974 0
M  V30 13110 S 1203.27 4.68012 2.60241 0
M  V30 13111 C 1204.43 4.80933 4.00567 0
M  V30 13112 H 1204.66 2.69927 1.24606 0
M  V30 13113 H 1202.2 1.44747 0.537375 0
M  V30 13114 H 1204.15 1.93306 3.62137 0
M  V30 13115 H 1202.82 0.947162 2.99479 0
M  V30 13116 H 1202.01 3.12707 3.9526 0
M  V30 13117 H 1201.61 3.00768 2.22294 0
M  V30 13118 H 1203.9 4.62462 4.95111 0
M  V30 13119 H 1204.85 5.83025 4.01855 0
M  V30 13120 H 1205.25 4.09372 3.88684 0
M  V30 13121 N 1204.65 -0.602709 1.4562 0
M  V30 13122 C 1205.9 -1.35769 1.49163 0
M  V30 13123 C 1206.21 -1.95102 0.139485 0
M  V30 13124 O 1207.42 -2.71449 0.0525919 0
M  V30 13125 C 1205.88 -2.45959 2.62739 0
M  V30 13126 C 1205.48 -1.93017 4.04288 0
M  V30 13127 C 1207.23 -3.22926 2.75534 0
M  V30 13128 C 1205.13 -3.00718 5.09237 0
M  V30 13129 H 1204.06 -0.510317 0.555061 0
M  V30 13130 H 1206.72 -0.645434 1.71774 0
M  V30 13131 H 1205.1 -3.19892 2.3342 0
M  V30 13132 H 1206.27 -1.2576 4.43307 0
M  V30 13133 H 1204.59 -1.2878 3.95986 0
M  V30 13134 H 1207.18 -4.03267 3.51112 0
M  V30 13135 H 1207.53 -3.74243 1.82339 0
M  V30 13136 H 1208.06 -2.56095 3.04402 0
M  V30 13137 H 1204.8 -2.54312 6.04157 0
M  V30 13138 H 1204.32 -3.66526 4.74783 0
M  V30 13139 H 1206 -3.65016 5.34202 0
M  V30 13140 N 1206.13 -1.32992 -0.845635 0
M  V30 13141 C 1207.38 -1.24249 -1.60281 0
M  V30 13142 C 1207.71 0.193049 -1.93238 0
M  V30 13143 O 1206.98 1.1326 -1.58122 0
M  V30 13144 C 1207.27 -2.1111 -2.91727 0
M  V30 13145 C 1207.12 -3.63088 -2.65494 0
M  V30 13146 C 1208.44 -1.97913 -3.93089 0
M  V30 13147 H 1205.56 -0.452698 -0.581578 0
M  V30 13148 H 1208.2 -1.63026 -0.975828 0
M  V30 13149 H 1206.35 -1.78169 -3.45236 0
M  V30 13150 H 1208.02 -4.06287 -2.18469 0
M  V30 13151 H 1206.26 -3.85304 -1.99306 0
M  V30 13152 H 1206.94 -4.19202 -3.59129 0
M  V30 13153 H 1209.41 -2.26788 -3.48864 0
M  V30 13154 H 1208.29 -2.60952 -4.82903 0
M  V30 13155 H 1208.55 -0.949378 -4.31786 0
M  V30 13156 N 1207.61 1.06304 -1.1635 0
M  V30 13157 C 1208.56 2.12032 -0.83825 0
M  V30 13158 C 1209.54 1.59864 0.182254 0
M  V30 13159 O 1210.73 1.7699 -0.0185576 0
M  V30 13160 C 1207.86 3.41603 -0.340968 0
M  V30 13161 C 1206.95 4.00596 -1.39225 0
M  V30 13162 N 1207.34 4.33703 -2.6026 0
M  V30 13163 C 1205.64 4.28199 -1.24748 0
M  V30 13164 C 1206.34 4.80595 -3.27725 0
M  V30 13165 N 1205.31 4.80023 -2.55105 0
M  V30 13166 H 1209.12 2.35475 -1.75866 0
M  V30 13167 H 1206.63 1.23845 -1.05053 0
M  V30 13168 H 1208.63 4.16804 -0.0895629 0
M  V30 13169 H 1207.29 3.19598 0.57337 0
M  V30 13170 H 1208.3 4.24055 -2.97318 0
M  V30 13171 H 1204.98 4.15638 -0.393887 0
M  V30 13172 H 1206.37 5.15416 -4.31041 0
M  V30 13173 N 1209.09 0.96196 1.24836 0
M  V30 13174 C 1210.36 0.537809 1.88061 0
M  V30 13175 C 1210.74 -0.985023 1.8671 0
M  V30 13176 O 1210.09 -1.85394 1.33572 0
M  V30 13177 C 1210.3 1.12279 3.30446 0
M  V30 13178 C 1211.65 1.20414 4.07168 0
M  V30 13179 O 1212.67 1.07488 3.39595 0
M  V30 13180 O 1211.53 1.4078 5.28056 0
M  V30 13181 H 1208.63 0.178491 0.807509 0
M  V30 13182 H 1211.17 1.05586 1.32852 0
M  V30 13183 H 1209.94 2.16578 3.25898 0
M  V30 13184 H 1209.57 0.58843 3.93222 0
M  V30 13185 N 1210.56 -1.39601 0.731392 0
M  V30 13186 C 1211.84 -1.94531 0.20422 0
M  V30 13187 C 1212.22 -1.66845 -1.29329 0
M  V30 13188 O 1211.57 -0.994706 -2.05713 0
M  V30 13189 C 1211.78 -3.44891 0.53395 0
M  V30 13190 C 1213.13 -4.21863 0.481298 0
M  V30 13191 O 1214.15 -3.53073 0.470929 0
M  V30 13192 O 1213.01 -5.44452 0.472663 0
M  V30 13193 H 1210.1 -0.826214 0.0360436 0
M  V30 13194 H 1212.65 -1.49121 0.810005 0
M  V30 13195 H 1211.42 -3.58463 1.56907 0
M  V30 13196 H 1211.04 -3.97472 -0.10099 0
M  V30 13197 N 1212.04 -0.478751 -1.50152 0
M  V30 13198 C 1213.29 0.073694 -2.02666 0
M  V30 13199 C 1213.62 1.38679 -1.35947 0
M  V30 13200 O 1212.9 1.88286 -0.4877 0
M  V30 13201 C 1213.18 0.249516 -3.59235 0
M  V30 13202 C 1213.03 -1.08514 -4.36514 0
M  V30 13203 C 1214.35 1.00053 -4.28576 0
M  V30 13204 H 1211.47 0.0253082 -0.736565 0
M  V30 13205 H 1214.11 -0.625834 -1.79397 0
M  V30 13206 H 1212.26 0.845343 -3.79192 0
M  V30 13207 H 1213.93 -1.71814 -4.28109 0
M  V30 13208 H 1212.18 -1.67992 -3.99952 0
M  V30 13209 H 1212.85 -0.915676 -5.44352 0
M  V30 13210 H 1215.32 0.495422 -4.1314 0
M  V30 13211 H 1214.2 1.09236 -5.37921 0
M  V30 13212 H 1214.46 2.03896 -3.92274 0
M  V30 13213 N 1213.52 1.56172 -0.211661 0
M  V30 13214 C 1214.43 2.23468 0.714081 0
M  V30 13215 C 1215.45 1.23908 1.22159 0
M  V30 13216 O 1216.62 1.56693 1.26528 0
M  V30 13217 C 1213.69 2.89375 1.90953 0
M  V30 13218 C 1212.75 4.04251 1.44497 0
M  V30 13219 C 1211.98 4.67006 2.58343 0
M  V30 13220 O 1212.2 4.28721 3.76237 0
M  V30 13221 O 1211.14 5.56177 2.3011 0
M  V30 13222 H 1214.96 3.03219 0.170862 0
M  V30 13223 H 1212.55 1.49389 0.0183607 0
M  V30 13224 H 1214.43 3.3101 2.60787 0
M  V30 13225 H 1213.11 2.12591 2.44104 0
M  V30 13226 H 1212.01 3.67205 0.714932 0
M  V30 13227 H 1213.35 4.82748 0.959947 0
M  V30 13228 N 1215 -0.0618163 1.57479 0
M  V30 13229 C 1216.22 -0.775513 1.92355 0
M  V30 13230 C 1216.65 -1.69816 0.808949 0
M  V30 13231 O 1216.01 -1.79736 -0.23761 0
M  V30 13232 C 1216.05 -1.5367 3.26218 0
M  V30 13233 O 1215.16 -2.64802 3.16155 0
M  V30 13234 H 1214.5 -0.210909 0.629614 0
M  V30 13235 H 1217.03 -0.0270752 2.04582 0
M  V30 13236 H 1217.04 -1.91379 3.6033 0
M  V30 13237 H 1215.71 -0.859798 4.06916 0
M  V30 13238 H 1214.29 -2.29876 2.93618 0
M  V30 13239 N 1216.48 -1.54033 -0.333429 0
M  V30 13240 C 1217.39 -1.85737 -1.43314 0
M  V30 13241 C 1218.4 -0.748398 -1.57083 0
M  V30 13242 O 1219.58 -1.04171 -1.72367 0
M  V30 13243 C 1216.64 -2.06942 -2.78165 0
M  V30 13244 C 1215.7 -3.30774 -2.73655 0
M  V30 13245 C 1214.94 -3.50957 -4.02075 0
M  V30 13246 O 1215.16 -2.74774 -4.99855 0
M  V30 13247 O 1214.09 -4.44412 -4.05933 0
M  V30 13248 H 1217.92 -2.7923 -1.19434 0
M  V30 13249 H 1215.51 -1.39814 -0.526546 0
M  V30 13250 H 1217.39 -2.22276 -3.58011 0
M  V30 13251 H 1216.06 -1.16638 -3.01956 0
M  V30 13252 H 1214.97 -3.20835 -1.92395 0
M  V30 13253 H 1216.3 -4.21103 -2.54819 0
M  V30 13254 N 1217.95 0.594978 -1.45938 0
M  V30 13255 C 1219.37 1.17703 -1.44924 0
M  V30 13256 C 1219.72 1.9534 -0.183522 0
M  V30 13257 O 1218.84 2.04276 0.714163 0
M  V30 13258 C 1219.44 2.14119 -2.62561 0
M  V30 13259 C 1218 2.67674 -2.64627 0
M  V30 13260 C 1217.14 1.43312 -2.37397 0
M  V30 13261 H 1220.09 0.383583 -1.53995 0
M  V30 13262 H 1220.11 2.97374 -2.3738 0
M  V30 13263 H 1219.63 1.57586 -3.54667 0
M  V30 13264 H 1217.73 3.28111 -1.76562 0
M  V30 13265 H 1217.84 3.11246 -3.64229 0
M  V30 13266 H 1216.2 1.72702 -1.87206 0
M  V30 13267 H 1216.99 0.886276 -3.31663 0
M  V30 13268 N 1219.43 1.33438 0.838571 0
M  V30 13269 C 1220.4 1.23632 1.92997 0
M  V30 13270 C 1221.4 0.155302 1.60048 0
M  V30 13271 O 1222.59 0.406852 1.69382 0
M  V30 13272 C 1219.72 0.90512 3.28665 0
M  V30 13273 H 1220.91 2.20643 2.03117 0
M  V30 13274 H 1218.46 1.17501 1.03069 0
M  V30 13275 H 1219.2 -0.0624833 3.2424 0
M  V30 13276 H 1218.98 1.68688 3.53959 0
M  V30 13277 H 1220.47 0.861262 4.08622 0
M  V30 13278 N 1220.91 -1.05686 1.16912 0
M  V30 13279 C 1221.84 -2.12775 0.824755 0
M  V30 13280 C 1222.82 -1.61286 -0.206289 0
M  V30 13281 O 1224.01 -1.8829 -0.0889616 0
M  V30 13282 C 1221.13 -3.37922 0.229422 0
M  V30 13283 C 1220.18 -4.08226 1.23506 0
M  V30 13284 S 1221.01 -4.57424 2.78431 0
M  V30 13285 C 1222.17 -5.85825 2.20364 0
M  V30 13286 H 1222.4 -2.41657 1.73174 0
M  V30 13287 H 1219.93 -1.18212 0.99324 0
M  V30 13288 H 1221.89 -4.10359 -0.107588 0
M  V30 13289 H 1220.55 -3.07186 -0.655424 0
M  V30 13290 H 1219.75 -4.98129 0.767059 0
M  V30 13291 H 1219.35 -3.41832 1.51747 0
M  V30 13292 H 1221.64 -6.58912 1.57611 0
M  V30 13293 H 1222.58 -6.37364 3.08501 0
M  V30 13294 H 1222.99 -5.4015 1.64008 0
M  V30 13295 N 1222.39 -0.968567 -1.24324 0
M  V30 13296 C 1223.62 -0.648568 -1.96472 0
M  V30 13297 C 1224.03 0.782168 -1.71836 0
M  V30 13298 O 1223.39 1.5249 -1.00265 0
M  V30 13299 C 1223.44 -0.91482 -3.49733 0
M  V30 13300 O 1223.16 -2.28931 -3.73527 0
M  V30 13301 C 1224.66 -0.609131 -4.39095 0
M  V30 13302 H 1221.88 -0.241921 -0.625872 0
M  V30 13303 H 1224.43 -1.29673 -1.5813 0
M  V30 13304 H 1222.58 -0.31285 -3.86135 0
M  V30 13305 H 1222.99 -2.36998 -4.67902 0
M  V30 13306 H 1224.47 -0.845875 -5.4548 0
M  V30 13307 H 1224.95 0.456625 -4.3682 0
M  V30 13308 H 1225.55 -1.19105 -4.08282 0
M  V30 13309 N 1223.87 1.39211 -0.738786 0
M  V30 13310 C 1225.28 1.83237 -0.357916 0
M  V30 13311 C 1225.63 1.61698 1.11123 0
M  V30 13312 O 1224.75 1.11017 1.85753 0
M  V30 13313 C 1225.35 3.32645 -0.64285 0
M  V30 13314 C 1223.91 3.75076 -0.315432 0
M  V30 13315 C 1223.05 2.62166 -0.903556 0
M  V30 13316 H 1226.01 1.2815 -0.936127 0
M  V30 13317 H 1226.03 3.80407 0.0840812 0
M  V30 13318 H 1225.54 3.4829 -1.71218 0
M  V30 13319 H 1223.64 3.65017 0.747907 0
M  V30 13320 H 1223.75 4.72363 -0.800638 0
M  V30 13321 H 1222.12 2.52554 -0.329927 0
M  V30 13322 H 1222.9 2.80616 -1.97761 0
M  V30 13323 N 1225.34 0.486708 1.49896 0
M  V30 13324 C 1226.57 -0.0622999 2.07306 0
M  V30 13325 C 1226.99 -1.31353 1.3464 0
M  V30 13326 O 1226.35 -1.76861 0.398752 0
M  V30 13327 C 1226.4 -0.313481 3.59235 0
M  V30 13328 O 1225.5 -1.39101 3.88233 0
M  V30 13329 H 1224.85 0.0198885 0.663702 0
M  V30 13330 H 1227.38 0.682232 1.92891 0
M  V30 13331 H 1227.39 -0.549302 4.04285 0
M  V30 13332 H 1226.06 0.600767 4.11538 0
M  V30 13333 H 1224.64 -1.14127 3.55006 0
M  V30 13334 N 1226.82 -1.56058 0.219941 0
M  V30 13335 C 1227.77 -2.20218 -0.690846 0
M  V30 13336 C 1228.74 -1.15725 -1.19151 0
M  V30 13337 O 1229.93 -1.44073 -1.2509 0
M  V30 13338 C 1227.07 -2.88477 -1.89408 0
M  V30 13339 C 1226.18 -4.07559 -1.43246 0
M  V30 13340 C 1225.31 -4.63605 -2.59314 0
M  V30 13341 C 1224.35 -5.74993 -2.0988 0
M  V30 13342 N 1223.49 -6.25337 -3.19214 0
M  V30 13343 H 1228.33 -2.97685 -0.136992 0
M  V30 13344 H 1225.87 -1.46994 -0.055865 0
M  V30 13345 H 1227.82 -3.26235 -2.60051 0
M  V30 13346 H 1226.45 -2.1353 -2.42084 0
M  V30 13347 H 1225.51 -3.75297 -0.621013 0
M  V30 13348 H 1226.82 -4.8805 -1.02997 0
M  V30 13349 H 1225.97 -5.03798 -3.38041 0
M  V30 13350 H 1224.71 -3.82274 -3.0285 0
M  V30 13351 H 1223.72 -5.34304 -1.29613 0
M  V30 13352 H 1224.94 -6.58158 -1.67345 0
M  V30 13353 H 1222.89 -5.4692 -3.62236 0
M  V30 13354 H 1222.8 -7.00947 -2.83213 0
M  V30 13355 H 1224.07 -6.70187 -3.98083 0
M  V30 13356 N 1228.3 0.053464 -1.57509 0
M  V30 13357 C 1229.21 1.07902 -2.08313 0
M  V30 13358 C 1230.23 1.41223 -1.01647 0
M  V30 13359 O 1231.4 1.51032 -1.33233 0
M  V30 13360 C 1228.47 2.36813 -2.5322 0
M  V30 13361 C 1227.53 2.10297 -3.74264 0
M  V30 13362 C 1226.76 3.33062 -4.1702 0
M  V30 13363 O 1226.99 4.42857 -3.59491 0
M  V30 13364 O 1225.92 3.20195 -5.09665 0
M  V30 13365 H 1229.75 0.677368 -2.9605 0
M  V30 13366 H 1227.33 0.268838 -1.46961 0
M  V30 13367 H 1229.21 3.12645 -2.82544 0
M  V30 13368 H 1227.89 2.76323 -1.68605 0
M  V30 13369 H 1226.79 1.32111 -3.49996 0
M  V30 13370 H 1228.13 1.75658 -4.59788 0
M  V30 13371 N 1229.78 1.54207 0.325255 0
M  V30 13372 C 1231.03 1.71991 1.0613 0
M  V30 13373 C 1231.35 0.495505 1.88599 0
M  V30 13374 O 1230.62 -0.490504 1.8966 0
M  V30 13375 H 1229.2 0.634137 0.394816 0
M  V30 13376 H 1231.86 1.91507 0.362101 0
M  V30 13377 H 1230.96 2.59878 1.72829 0
M  V30 13378 N 1231.26 -0.58723 1.46251 0
M  V30 13379 C 1232.49 -1.37174 1.5489 0
M  V30 13380 C 1232.9 -1.87857 0.188445 0
M  V30 13381 O 1232.26 -1.63365 -0.813509 0
M  V30 13382 C 1232.31 -2.56237 2.55 0
M  V30 13383 O 1232.03 -2.07655 3.8576 0
M  V30 13384 C 1233.53 -3.48846 2.73535 0
M  V30 13385 H 1230.75 -0.419211 0.523931 0
M  V30 13386 H 1233.29 -0.714307 1.91619 0
M  V30 13387 H 1231.45 -3.1798 2.21287 0
M  V30 13388 H 1231.86 -2.85161 4.40208 0
M  V30 13389 H 1233.34 -4.2888 3.47514 0
M  V30 13390 H 1233.81 -4.00493 1.80282 0
M  V30 13391 H 1234.42 -2.92942 3.08326 0
M  V30 13392 N 1232.74 -1.33881 -0.831482 0
M  V30 13393 C 1233.67 -1.27384 -1.95693 0
M  V30 13394 C 1234.65 -0.152943 -1.69411 0
M  V30 13395 O 1235.83 -0.34392 -1.9113 0
M  V30 13396 C 1232.96 -1.01982 -3.31989 0
M  V30 13397 C 1231.92 -2.10445 -3.72689 0
M  V30 13398 C 1231.24 -1.70245 -5.06873 0
M  V30 13399 C 1232.54 -3.52194 -3.8569 0
M  V30 13400 H 1234.24 -2.21549 -2.01386 0
M  V30 13401 H 1231.78 -1.06653 -0.967526 0
M  V30 13402 H 1233.73 -0.960841 -4.103 0
M  V30 13403 H 1232.46 -0.0425709 -3.26572 0
M  V30 13404 H 1231.12 -2.15398 -2.96647 0
M  V30 13405 H 1230.77 -0.712036 -4.97935 0
M  V30 13406 H 1230.47 -2.42834 -5.35075 0
M  V30 13407 H 1231.99 -1.65827 -5.87651 0
M  V30 13408 H 1233.4 -3.49701 -4.54293 0
M  V30 13409 H 1231.8 -4.23331 -4.25336 0
M  V30 13410 H 1232.87 -3.9016 -2.87929 0
M  V30 13411 N 1234.21 1.05064 -1.1747 0
M  V30 13412 C 1235.46 1.77481 -0.958301 0
M  V30 13413 C 1235.78 1.88725 0.51401 0
M  V30 13414 O 1236.98 2.57895 0.848657 0
M  V30 13415 C 1235.44 3.19048 -1.66543 0
M  V30 13416 C 1235.05 3.1593 -3.17636 0
M  V30 13417 C 1236.79 3.95912 -1.53146 0
M  V30 13418 C 1234.7 4.52293 -3.81032 0
M  V30 13419 H 1233.63 0.665247 -0.354913 0
M  V30 13420 H 1236.28 1.17751 -1.40737 0
M  V30 13421 H 1234.66 3.79113 -1.1441 0
M  V30 13422 H 1235.83 2.65375 -3.76713 0
M  V30 13423 H 1234.15 2.52564 -3.31059 0
M  V30 13424 H 1236.75 4.96737 -1.9788 0
M  V30 13425 H 1237.09 4.13498 -0.482203 0
M  V30 13426 H 1237.62 3.42399 -2.02504 0
M  V30 13427 H 1234.36 4.39913 -4.8596 0
M  V30 13428 H 1233.88 5.02991 -3.26741 0
M  V30 13429 H 1235.56 5.2123 -3.83312 0
M  V30 13430 N 1235.69 0.975146 1.23809 0
M  V30 13431 C 1236.94 0.642074 1.92367 0
M  V30 13432 C 1237.27 -0.82164 1.75962 0
M  V30 13433 O 1236.55 -1.59205 1.11732 0
M  V30 13434 C 1236.83 1.02677 3.45151 0
M  V30 13435 C 1236.68 2.54773 3.7069 0
M  V30 13436 C 1238 0.5668 4.36435 0
M  V30 13437 H 1235.12 0.234735 0.698619 0
M  V30 13438 H 1237.76 1.21549 1.46034 0
M  V30 13439 H 1235.91 0.538846 3.84745 0
M  V30 13440 H 1237.58 3.11099 3.4061 0
M  V30 13441 H 1235.83 2.97641 3.15583 0
M  V30 13442 H 1236.5 2.7674 4.77618 0
M  V30 13443 H 1238.97 0.985635 4.04258 0
M  V30 13444 H 1237.85 0.864458 5.4205 0
M  V30 13445 H 1238.11 -0.532989 4.38875 0
M  V30 13446 N 1237.17 -1.38817 0.746158 0
M  V30 13447 C 1238.59 -1.53894 0.42294 0
M  V30 13448 C 1238.79 -1.71064 -1.06486 0
M  V30 13449 O 1237.84 -1.71744 -1.85095 0
M  V30 13450 C 1239.15 -2.75029 1.2157 0
M  V30 13451 C 1240.7 -2.88873 1.20504 0
M  V30 13452 C 1241.18 -4.1296 1.9806 0
M  V30 13453 N 1242.67 -4.20022 1.95283 0
M  V30 13454 C 1243.4 -5.15011 2.52093 0
M  V30 13455 N 1242.9 -6.1572 3.17586 0
M  V30 13456 N 1244.69 -5.07308 2.42064 0
M  V30 13457 H 1236.84 -1.25921 1.71049 0
M  V30 13458 H 1239.11 -0.611148 0.724708 0
M  V30 13459 H 1238.81 -2.68722 2.26895 0
M  V30 13460 H 1238.69 -3.68009 0.827593 0
M  V30 13461 H 1241.07 -2.94667 0.159877 0
M  V30 13462 H 1241.15 -1.96925 1.63261 0
M  V30 13463 H 1240.8 -4.07929 3.02583 0
M  V30 13464 H 1240.73 -5.03974 1.52702 0
M  V30 13465 H 1243.22 -3.47892 1.4758 0
M  V30 13466 H 1243.53 -6.84682 3.58373 0
M  V30 13467 H 1241.88 -6.16075 3.21678 0
M  V30 13468 H 1245.07 -4.27569 1.90532 0
M  V30 13469 H 1245.24 -5.81158 2.86635 0
M  V30 13470 N 1238.65 -0.49465 -1.49636 0
M  V30 13471 C 1239.58 0.323781 -2.26902 0
M  V30 13472 C 1240.59 0.936281 -1.33183 0
M  V30 13473 O 1241.78 0.820695 -1.58514 0
M  V30 13474 C 1238.88 1.47025 -3.05347 0
M  V30 13475 C 1238.05 0.966228 -4.26594 0
M  V30 13476 C 1237.11 1.98955 -4.87138 0
M  V30 13477 O 1236.14 1.56065 -5.47387 0
M  V30 13478 N 1237.34 3.3195 -4.76224 0
M  V30 13479 H 1240.11 -0.338716 -2.9778 0
M  V30 13480 H 1237.67 -0.326817 -1.58567 0
M  V30 13481 H 1239.66 2.15225 -3.42725 0
M  V30 13482 H 1238.23 2.03702 -2.37117 0
M  V30 13483 H 1237.45 0.109336 -3.94048 0
M  V30 13484 H 1238.74 0.607781 -5.05157 0
M  V30 13485 H 1238.14 3.69488 -4.28363 0
M  V30 13486 H 1236.69 3.95881 -5.17805 0
M  V30 13487 N 1240.13 1.55939 -0.228214 0
M  V30 13488 C 1241.35 2.0287 0.406348 0
M  V30 13489 C 1241.77 1.1079 1.52876 0
M  V30 13490 O 1241.13 0.118747 1.82113 0
M  V30 13491 C 1241.18 3.49286 0.931734 0
M  V30 13492 O 1240.9 4.37857 -0.145933 0
M  V30 13493 C 1242.4 4.11893 1.63887 0
M  V30 13494 H 1239.62 0.663696 0.0987358 0
M  V30 13495 H 1242.16 2.01541 -0.346616 0
M  V30 13496 H 1240.32 3.5121 1.63494 0
M  V30 13497 H 1240.73 5.23904 0.250005 0
M  V30 13498 H 1242.21 5.16091 1.95841 0
M  V30 13499 H 1242.68 3.57281 2.55435 0
M  V30 13500 H 1243.29 4.13839 0.980697 0
M  V30 13501 N 1241.6 -0.0451101 1.57535 0
M  V30 13502 C 1242.54 -1.07792 2.02271 0
M  V30 13503 C 1243.55 -1.33423 0.932854 0
M  V30 13504 O 1244.74 -1.31193 1.2104 0
M  V30 13505 C 1241.84 -2.42314 2.36933 0
M  V30 13506 C 1241.01 -2.36266 3.68099 0
M  V30 13507 C 1240.07 -3.53108 3.9013 0
M  V30 13508 O 1239.1 -3.33327 4.61391 0
M  V30 13509 N 1240.3 -4.74415 3.3453 0
M  V30 13510 H 1243.06 -0.696744 2.91489 0
M  V30 13511 H 1240.62 -0.233336 1.6021 0
M  V30 13512 H 1242.62 -3.19171 2.48821 0
M  V30 13513 H 1241.19 -2.72335 1.53468 0
M  V30 13514 H 1240.41 -1.44615 3.66715 0
M  V30 13515 H 1241.69 -2.29351 4.54175 0
M  V30 13516 H 1241.09 -4.93388 2.76739 0
M  V30 13517 H 1239.65 -5.48692 3.51825 0
M  V30 13518 N 1243.08 -1.54377 -0.317073 0
M  V30 13519 C 1244.31 -1.77184 -1.07798 0
M  V30 13520 C 1244.73 -0.52204 -1.80711 0
M  V30 13521 O 1244.09 0.52672 -1.7348 0
M  V30 13522 C 1244.14 -2.96887 -2.04671 0
M  V30 13523 O 1243.24 -2.68887 -3.12688 0
M  V30 13524 H 1242.58 -0.586937 -0.310485 0
M  V30 13525 H 1245.11 -2.01419 -0.35939 0
M  V30 13526 H 1245.12 -3.24414 -2.47426 0
M  V30 13527 H 1243.8 -3.87518 -1.51005 0
M  V30 13528 H 1242.38 -2.52329 -2.74562 0
M  V30 13529 N 1244.56 0.579466 -1.4656 0
M  V30 13530 C 1245.52 1.67033 -1.56948 0
M  V30 13531 C 1246.52 1.54481 -0.446361 0
M  V30 13532 O 1247.71 1.5904 -0.710767 0
M  V30 13533 C 1244.85 3.06474 -1.49286 0
M  V30 13534 H 1246.04 1.59179 -2.54169 0
M  V30 13535 H 1243.59 0.797573 -1.34419 0
M  V30 13536 H 1244.33 3.1988 -0.533572 0
M  V30 13537 H 1244.11 3.16993 -2.30776 0
M  V30 13538 H 1245.6 3.85879 -1.59648 0
M  V30 13539 N 1246.04 1.3432 0.824371 0
M  V30 13540 C 1247.26 1.2982 1.61745 0
M  V30 13541 C 1247.69 -0.125298 1.87682 0
M  V30 13542 O 1247.05 -1.08658 1.45131 0
M  V30 13543 C 1247.09 2.09327 2.93623 0
M  V30 13544 O 1246.2 1.4618 3.85623 0
M  V30 13545 H 1245.54 0.445929 0.491979 0
M  V30 13546 H 1248.07 1.77101 1.02452 0
M  V30 13547 H 1248.08 2.20629 3.43201 0
M  V30 13548 H 1246.75 3.12825 2.74069 0
M  V30 13549 H 1245.33 1.43611 3.44137 0
M  V30 13550 N 1247.52 -1.0444 1.18026 0
M  V30 13551 C 1248.74 -1.81772 0.998684 0
M  V30 13552 C 1249.17 -1.82682 -0.448225 0
M  V30 13553 O 1248.52 -1.24136 -1.32136 0
M  V30 13554 C 1248.57 -3.2542 1.55352 0
M  V30 13555 O 1247.68 -4.05103 0.772351 0
M  V30 13556 H 1247.02 -0.561731 0.354054 0
M  V30 13557 H 1249.55 -1.31557 1.56697 0
M  V30 13558 H 1249.56 -3.76206 1.57903 0
M  V30 13559 H 1248.23 -3.24073 2.60672 0
M  V30 13560 H 1246.81 -3.63798 0.818852 0
M  V30 13561 N 1248.99 -0.981699 -1.2329 0
M  V30 13562 C 1250.22 -0.66937 -1.95773 0
M  V30 13563 C 1250.64 0.763898 -1.72656 0
M  V30 13564 O 1249.99 1.51418 -1.01876 0
M  V30 13565 C 1250.05 -0.951863 -3.48743 0
M  V30 13566 O 1249.77 -2.3288 -3.71078 0
M  V30 13567 C 1251.27 -0.655668 -4.38424 0
M  V30 13568 H 1248.49 -0.248545 -0.623271 0
M  V30 13569 H 1251.03 -1.31343 -1.56746 0
M  V30 13570 H 1249.19 -0.353787 -3.85781 0
M  V30 13571 H 1249.6 -2.41948 -4.65362 0
M  V30 13572 H 1251.07 -0.903683 -5.44553 0
M  V30 13573 H 1251.55 0.410269 -4.3728 0
M  V30 13574 H 1252.16 -1.23428 -4.06996 0
M  V30 13575 N 1250.47 1.3842 -0.753509 0
M  V30 13576 C 1251.4 2.33073 -0.141198 0
M  V30 13577 C 1252.38 1.54863 0.70367 0
M  V30 13578 O 1253.57 1.8318 0.644872 0
M  V30 13579 C 1250.7 3.39043 0.752802 0
M  V30 13580 C 1249.65 4.27999 0.0106692 0
M  V30 13581 C 1248.98 5.24824 1.02291 0
M  V30 13582 C 1250.28 5.09308 -1.15768 0
M  V30 13583 H 1251.97 2.84528 -0.93188 0
M  V30 13584 H 1249.52 1.36802 -0.449567 0
M  V30 13585 H 1251.47 4.04224 1.19083 0
M  V30 13586 H 1250.2 2.8607 1.57581 0
M  V30 13587 H 1248.85 3.64323 -0.407939 0
M  V30 13588 H 1248.5 4.68139 1.83998 0
M  V30 13589 H 1248.2 5.85196 0.53101 0
M  V30 13590 H 1249.73 5.92882 1.46026 0
M  V30 13591 H 1251.14 5.6773 -0.797203 0
M  V30 13592 H 1249.54 5.78914 -1.58044 0
M  V30 13593 H 1250.61 4.43051 -1.97062 0
M  V30 13594 N 1251.95 0.502579 1.49372 0
M  V30 13595 C 1252.88 -0.311743 2.2707 0
M  V30 13596 C 1253.9 -0.929204 1.33677 0
M  V30 13597 O 1255.08 -0.812277 1.58948 0
M  V30 13598 C 1252.18 -1.45404 3.06122 0
M  V30 13599 C 1251.36 -0.943591 4.27101 0
M  V30 13600 C 1250.42 -1.96368 4.88186 0
M  V30 13601 O 1249.44 -1.5316 5.48207 0
M  V30 13602 N 1250.64 -3.29419 4.77978 0
M  V30 13603 H 1253.41 0.354503 2.97596 0
M  V30 13604 H 1250.97 0.335222 1.58392 0
M  V30 13605 H 1252.96 -2.13404 3.43862 0
M  V30 13606 H 1251.53 -2.02441 2.38194 0
M  V30 13607 H 1250.75 -0.0884372 3.94101 0
M  V30 13608 H 1252.04 -0.580983 5.05472 0
M  V30 13609 H 1251.44 -3.67211 4.30317 0
M  V30 13610 H 1250 -3.93129 5.19897 0
M  V30 13611 N 1253.43 -1.55816 0.23648 0
M  V30 13612 C 1254.38 -2.20938 -0.66745 0
M  V30 13613 C 1255.35 -1.16982 -1.17917 0
M  V30 13614 O 1256.53 -1.45392 -1.23555 0
M  V30 13615 C 1253.67 -2.90469 -1.86337 0
M  V30 13616 C 1252.78 -4.09056 -1.38915 0
M  V30 13617 C 1251.92 -4.6633 -2.54382 0
M  V30 13618 C 1250.96 -5.77187 -2.0377 0
M  V30 13619 N 1250.09 -6.28688 -3.12564 0
M  V30 13620 H 1254.93 -2.97814 -0.105411 0
M  V30 13621 H 1252.47 -1.47045 -0.0402712 0
M  V30 13622 H 1254.43 -3.28975 -2.56576 0
M  V30 13623 H 1253.06 -2.16086 -2.39806 0
M  V30 13624 H 1252.11 -3.75934 -0.581173 0
M  V30 13625 H 1253.42 -4.89115 -0.978152 0
M  V30 13626 H 1252.58 -5.07355 -3.32679 0
M  V30 13627 H 1251.32 -3.85464 -2.98778 0
M  V30 13628 H 1250.32 -5.35648 -1.23939 0
M  V30 13629 H 1251.55 -6.59896 -1.60355 0
M  V30 13630 H 1249.49 -5.50731 -3.56414 0
M  V30 13631 H 1249.41 -7.03911 -2.75762 0
M  V30 13632 H 1250.68 -6.74371 -3.90952 0
M  V30 13633 N 1254.91 0.036755 -1.57557 0
M  V30 13634 C 1255.86 1.04744 -2.02516 0
M  V30 13635 C 1256.84 1.3248 -0.913116 0
M  V30 13636 O 1258.03 1.32194 -1.17702 0
M  V30 13637 C 1255.16 2.3509 -2.50175 0
M  V30 13638 C 1254.25 2.10478 -3.68185 0
M  V30 13639 N 1254.64 1.55899 -4.81175 0
M  V30 13640 C 1252.94 2.40797 -3.7541 0
M  V30 13641 C 1253.64 1.46913 -5.62842 0
M  V30 13642 N 1252.61 1.94202 -5.07727 0
M  V30 13643 H 1256.42 0.619342 -2.873 0
M  V30 13644 H 1253.93 0.243208 -1.60569 0
M  V30 13645 H 1255.93 3.08297 -2.8064 0
M  V30 13646 H 1254.59 2.78586 -1.66793 0
M  V30 13647 H 1255.6 1.24275 -5.02769 0
M  V30 13648 H 1252.27 2.8742 -3.02813 0
M  V30 13649 H 1253.66 1.0527 -6.63602 0
M  V30 13650 N 1256.39 1.54543 0.308881 0
M  V30 13651 C 1257.33 1.84949 1.38067 0
M  V30 13652 C 1258.3 0.697746 1.50734 0
M  V30 13653 O 1259.49 0.94561 1.65719 0
M  V30 13654 C 1256.63 2.09544 2.74199 0
M  V30 13655 C 1255.74 3.37193 2.70046 0
M  V30 13656 C 1254.88 3.51672 3.98121 0
M  V30 13657 C 1253.91 4.73143 3.88333 0
M  V30 13658 N 1253.05 4.84469 5.08167 0
M  V30 13659 H 1257.89 2.76379 1.11438 0
M  V30 13660 H 1255.43 1.36863 0.539153 0
M  V30 13661 H 1257.39 2.21798 3.53358 0
M  V30 13662 H 1256.02 1.21389 2.99106 0
M  V30 13663 H 1255.07 3.33601 1.82796 0
M  V30 13664 H 1256.38 4.26468 2.58701 0
M  V30 13665 H 1255.53 3.63548 4.85714 0
M  V30 13666 H 1254.27 2.60516 4.1229 0
M  V30 13667 H 1253.28 4.61308 2.99124 0
M  V30 13668 H 1254.5 5.65698 3.75716 0
M  V30 13669 H 1252.45 3.96234 5.22814 0
M  V30 13670 H 1252.37 5.67733 4.99215 0
M  V30 13671 H 1253.63 5.00693 5.97434 0
M  V30 13672 N 1257.86 -0.571685 1.46866 0
M  V30 13673 C 1259.09 -1.36008 1.56578 0
M  V30 13674 C 1259.51 -1.86909 0.211326 0
M  V30 13675 O 1258.87 -1.62179 -0.810421 0
M  V30 13676 C 1258.92 -2.51598 2.58323 0
M  V30 13677 O 1258.02 -3.53383 2.1259 0
M  V30 13678 H 1257.36 -0.404593 0.526498 0
M  V30 13679 H 1259.89 -0.692357 1.92529 0
M  V30 13680 H 1259.9 -2.98366 2.78283 0
M  V30 13681 H 1258.58 -2.13904 3.56676 0
M  V30 13682 H 1257.16 -3.13019 2.02666 0
M  V30 13683 N 1259.34 -1.34755 -0.817236 0
M  V30 13684 C 1260.57 -1.30676 -1.61054 0
M  V30 13685 C 1260.99 0.115343 -1.87746 0
M  V30 13686 O 1260.35 1.07887 -1.45705 0
M  V30 13687 C 1260.4 -2.10881 -2.92509 0
M  V30 13688 O 1259.5 -1.48223 -3.84842 0
M  V30 13689 H 1258.84 -0.448531 -0.489608 0
M  V30 13690 H 1261.37 -1.77642 -1.01512 0
M  V30 13691 H 1261.38 -2.22446 -3.42026 0
M  V30 13692 H 1260.06 -3.14274 -2.72406 0
M  V30 13693 H 1258.63 -1.45434 -3.4337 0
M  V30 13694 N 1260.82 1.03812 -1.18578 0
M  V30 13695 C 1262.04 1.8124 -1.00831 0
M  V30 13696 C 1262.47 1.82917 0.43853 0
M  V30 13697 O 1261.83 1.24835 1.31476 0
M  V30 13698 C 1261.88 3.24592 -1.57075 0
M  V30 13699 O 1260.98 4.04688 -0.793824 0
M  V30 13700 H 1260.32 0.559846 -0.357028 0
M  V30 13701 H 1262.85 1.30724 -1.57393 0
M  V30 13702 H 1262.86 3.75363 -1.59896 0
M  V30 13703 H 1261.54 3.22686 -2.62387 0
M  V30 13704 H 1260.11 3.63359 -0.838134 0
M  V30 13705 N 1262.3 0.988223 1.22768 0
M  V30 13706 C 1263.52 0.679426 1.95955 0
M  V30 13707 C 1263.95 -0.748483 1.72567 0
M  V30 13708 O 1263.31 -1.51097 1.00197 0
M  V30 13709 C 1263.35 0.985284 3.46878 0
M  V30 13710 O 1262.46 0.0814607 4.1232 0
M  V30 13711 H 1261.8 0.254749 0.613188 0
M  V30 13712 H 1264.33 1.32393 1.55991 0
M  V30 13713 H 1264.34 0.925198 3.97371 0
M  V30 13714 H 1263.01 2.02581 3.63227 0
M  V30 13715 H 1261.59 0.196629 3.72381 0
M  V30 13716 N 1263.78 -1.38018 0.760839 0
M  V30 13717 C 1265.02 -1.99952 0.320241 0
M  V30 13718 C 1265.35 -1.60397 -1.10014 0
M  V30 13719 O 1264.61 -0.836407 -1.76926 0
M  V30 13720 C 1264.9 -3.55168 0.398778 0
M  V30 13721 C 1264.57 -4.14457 1.77585 0
M  V30 13722 C 1263.23 -4.30363 2.15269 0
M  V30 13723 C 1265.58 -4.47089 2.67883 0
M  V30 13724 C 1262.91 -4.762 3.4271 0
M  V30 13725 C 1265.26 -4.94345 3.94722 0
M  V30 13726 C 1263.93 -5.08458 4.32466 0
M  V30 13727 H 1263.2 -0.731675 0.117185 0
M  V30 13728 H 1265.85 -1.64955 0.972736 0
M  V30 13729 H 1264.15 -3.90346 -0.337273 0
M  V30 13730 H 1265.85 -4.00981 0.0393393 0
M  V30 13731 H 1262.44 -4.02496 1.47292 0
M  V30 13732 H 1266.62 -4.34395 2.40031 0
M  V30 13733 H 1261.88 -4.85312 3.71863 0
M  V30 13734 H 1266.05 -5.18563 4.64828 0
M  V30 13735 H 1263.68 -5.43735 5.31278 0
M  V30 13736 N 1265.25 -0.510493 -1.49103 0
M  V30 13737 C 1266.48 0.0271718 -2.06882 0
M  V30 13738 C 1266.9 1.2995 -1.36962 0
M  V30 13739 O 1266.25 1.76842 -0.450916 0
M  V30 13740 C 1266.3 0.274956 -3.60453 0
M  V30 13741 O 1266.03 -0.946941 -4.27744 0
M  V30 13742 C 1267.53 0.855197 -4.34973 0
M  V30 13743 H 1264.75 -0.024732 -0.670544 0
M  V30 13744 H 1267.29 -0.710567 -1.91758 0
M  V30 13745 H 1265.45 0.962696 -3.75248 0
M  V30 13746 H 1265.86 -0.715627 -5.19595 0
M  V30 13747 H 1267.33 0.978103 -5.43265 0
M  V30 13748 H 1267.81 1.85535 -3.98087 0
M  V30 13749 H 1268.42 0.204632 -4.24807 0
M  V30 13750 N 1266.73 1.55688 -0.24474 0
M  V30 13751 C 1268.14 1.84897 0.25882 0
M  V30 13752 C 1268.49 1.16653 1.57755 0
M  V30 13753 O 1267.62 0.444162 2.11793 0
M  V30 13754 C 1268.21 3.35434 0.476385 0
M  V30 13755 C 1266.77 3.64877 0.924213 0
M  V30 13756 C 1265.92 2.773 0.00021322 0
M  V30 13757 H 1268.87 1.51662 -0.467358 0
M  V30 13758 H 1268.89 3.56896 1.31929 0
M  V30 13759 H 1268.4 3.85076 -0.483567 0
M  V30 13760 H 1266.5 3.20711 1.89671 0
M  V30 13761 H 1266.62 4.72665 0.78257 0
M  V30 13762 H 1264.98 2.49517 0.511194 0
M  V30 13763 H 1265.76 3.29747 -0.955072 0
M  V30 13764 N 1268.21 -0.0283989 1.57574 0
M  V30 13765 C 1269.46 -0.719077 1.89303 0
M  V30 13766 C 1269.78 -1.75325 0.84211 0
M  V30 13767 O 1269.04 -1.95071 -0.15683 0
M  V30 13768 C 1269.34 -1.4247 3.27776 0
M  V30 13769 C 1269 -0.526442 4.47816 0
M  V30 13770 C 1267.67 -0.279038 4.8039 0
M  V30 13771 C 1270.02 0.0937038 5.21116 0
M  V30 13772 C 1267.35 0.597277 5.83652 0
M  V30 13773 C 1269.7 0.957725 6.25308 0
M  V30 13774 C 1268.36 1.21458 6.56357 0
M  V30 13775 H 1267.63 -0.263129 0.692708 0
M  V30 13776 H 1270.28 0.0210252 1.91488 0
M  V30 13777 H 1268.58 -2.23813 3.21582 0
M  V30 13778 H 1270.28 -1.96466 3.49574 0
M  V30 13779 H 1266.87 -0.729426 4.22347 0
M  V30 13780 H 1271.06 -0.084469 4.96228 0
M  V30 13781 H 1266.31 0.804582 6.06083 0
M  V30 13782 H 1270.49 1.44476 6.81249 0
M  V30 13783 H 1268.11 1.89534 7.36193 0
M  V30 13784 N 1269.69 -1.54705 -0.300681 0
M  V30 13785 C 1270.94 -1.73211 -1.03349 0
M  V30 13786 C 1271.25 -0.52518 -1.88418 0
M  V30 13787 O 1272.46 -0.592049 -2.64966 0
M  V30 13788 C 1270.91 -3.06453 -1.88717 0
M  V30 13789 C 1270.52 -4.34625 -1.0865 0
M  V30 13790 C 1272.26 -3.34317 -2.61595 0
M  V30 13791 C 1270.17 -5.58919 -1.93297 0
M  V30 13792 H 1269.1 -0.64556 -0.389574 0
M  V30 13793 H 1271.75 -1.81186 -0.290472 0
M  V30 13794 H 1270.13 -2.92443 -2.67008 0
M  V30 13795 H 1271.31 -4.59471 -0.349707 0
M  V30 13796 H 1269.62 -4.13699 -0.473521 0
M  V30 13797 H 1272.22 -4.2438 -3.25278 0
M  V30 13798 H 1272.56 -2.53207 -3.30442 0
M  V30 13799 H 1273.1 -3.493 -1.90354 0
M  V30 13800 H 1269.83 -6.42697 -1.2892 0
M  V30 13801 H 1269.35 -5.38258 -2.64647 0
M  V30 13802 H 1271.03 -5.96187 -2.51336 0
M  V30 13803 N 1271.17 0.563888 -1.47167 0
M  V30 13804 C 1272.44 1.32454 -1.43928 0
M  V30 13805 C 1272.82 2.10683 -0.13267 0
M  V30 13806 O 1272.17 2.1063 0.885845 0
M  V30 13807 C 1272.38 2.2347 -2.68071 0
M  V30 13808 C 1273.73 2.84702 -3.15008 0
M  V30 13809 O 1274.75 2.33775 -2.68752 0
M  V30 13810 O 1273.61 3.77251 -3.95404 0
M  V30 13811 H 1270.71 0.596074 -0.573258 0
M  V30 13812 H 1273.25 0.583345 -1.59359 0
M  V30 13813 H 1272.02 1.6522 -3.54708 0
M  V30 13814 H 1271.65 3.04897 -2.55193 0
M  V30 13815 N 1272.64 1.35187 0.810078 0
M  V30 13816 C 1274.06 1.25329 1.38381 0
M  V30 13817 C 1274.41 -0.115799 1.95858 0
M  V30 13818 O 1273.53 -1.01663 1.91033 0
M  V30 13819 C 1274.13 2.2693 2.51572 0
M  V30 13820 C 1272.69 2.20824 3.04818 0
M  V30 13821 C 1271.83 2.1283 1.7776 0
M  V30 13822 H 1274.78 1.46366 0.613402 0
M  V30 13823 H 1274.8 1.89375 3.30026 0
M  V30 13824 H 1274.32 3.26563 2.09709 0
M  V30 13825 H 1272.42 1.24589 3.51153 0
M  V30 13826 H 1272.53 3.12637 3.63036 0
M  V30 13827 H 1270.89 1.58752 1.99173 0
M  V30 13828 H 1271.68 3.14318 1.38054 0
M  V30 13829 N 1274.12 -1.03182 1.19127 0
M  V30 13830 C 1275.54 -1.28773 0.942854 0
M  V30 13831 C 1275.74 -1.97759 -0.386483 0
M  V30 13832 O 1274.79 -2.26365 -1.1187 0
M  V30 13833 C 1276.11 -2.13771 2.11476 0
M  V30 13834 C 1277.66 -2.27089 2.15406 0
M  V30 13835 C 1278.13 -3.15458 3.32039 0
M  V30 13836 N 1279.62 -3.23046 3.31957 0
M  V30 13837 C 1280.36 -3.91604 4.18848 0
M  V30 13838 N 1279.85 -4.62418 5.15889 0
M  V30 13839 N 1281.65 -3.87974 4.06734 0
M  V30 13840 H 1273.8 -0.568165 2.0466 0
M  V30 13841 H 1276.06 -0.31328 0.89474 0
M  V30 13842 H 1275.77 -1.704 3.07663 0
M  V30 13843 H 1275.64 -3.14476 2.0829 0
M  V30 13844 H 1278.03 -2.69693 1.19791 0
M  V30 13845 H 1278.11 -1.25945 2.22647 0
M  V30 13846 H 1277.75 -2.73564 4.27931 0
M  V30 13847 H 1277.68 -4.16654 3.22035 0
M  V30 13848 H 1280.17 -2.7261 2.6171 0
M  V30 13849 H 1280.49 -5.12353 5.78545 0
M  V30 13850 H 1278.83 -4.61293 5.1984 0
M  V30 13851 H 1282.02 -3.31789 3.30202 0
M  V30 13852 H 1282.19 -4.4113 4.74666 0
M  V30 13853 N 1275.6 -0.99472 -1.22242 0
M  V30 13854 C 1276.53 -0.566499 -2.26524 0
M  V30 13855 C 1277.51 0.407541 -1.65146 0
M  V30 13856 O 1278.7 0.297777 -1.91903 0
M  V30 13857 C 1275.83 0.11786 -3.471 0
M  V30 13858 C 1274.78 -0.774908 -4.20927 0
M  V30 13859 C 1274.11 0.0424687 -5.34683 0
M  V30 13860 C 1275.41 -2.07263 -4.79416 0
M  V30 13861 H 1277.1 -1.43818 -2.62596 0
M  V30 13862 H 1274.65 -0.692971 -1.2623 0
M  V30 13863 H 1276.6 0.428842 -4.19212 0
M  V30 13864 H 1275.32 1.0241 -3.10129 0
M  V30 13865 H 1273.98 -1.06956 -3.50651 0
M  V30 13866 H 1273.63 0.949677 -4.93954 0
M  V30 13867 H 1273.33 -0.551867 -5.85003 0
M  V30 13868 H 1274.85 0.347504 -6.0961 0
M  V30 13869 H 1276.27 -1.82548 -5.4346 0
M  V30 13870 H 1274.67 -2.61594 -5.40082 0
M  V30 13871 H 1275.74 -2.75017 -3.99366 0
M  V30 13872 N 1277.08 1.37613 -0.768148 0
M  V30 13873 C 1278.01 2.3291 -0.165911 0
M  V30 13874 C 1278.99 1.556 0.687205 0
M  V30 13875 O 1280.17 1.83854 0.625407 0
M  V30 13876 C 1277.3 3.39822 0.7168 0
M  V30 13877 C 1276.26 4.27986 -0.0347264 0
M  V30 13878 C 1275.58 5.2588 0.967192 0
M  V30 13879 C 1276.88 5.08052 -1.21164 0
M  V30 13880 H 1278.58 2.83524 -0.962006 0
M  V30 13881 H 1276.12 1.36318 -0.464051 0
M  V30 13882 H 1278.08 4.05464 1.14789 0
M  V30 13883 H 1276.8 2.87725 1.54538 0
M  V30 13884 H 1275.46 3.6387 -0.446557 0
M  V30 13885 H 1275.11 4.70064 1.79022 0
M  V30 13886 H 1274.81 5.85726 0.468913 0
M  V30 13887 H 1276.33 5.94397 1.3973 0
M  V30 13888 H 1277.75 5.66853 -0.857373 0
M  V30 13889 H 1276.14 5.77206 -1.64176 0
M  V30 13890 H 1277.21 4.40936 -2.0175 0
M  V30 13891 N 1278.56 0.518393 1.4883 0
M  V30 13892 C 1279.49 -0.287642 2.27388 0
M  V30 13893 C 1280.5 -0.914974 1.34655 0
M  V30 13894 O 1281.69 -0.795373 1.598 0
M  V30 13895 C 1278.79 -1.42149 3.07647 0
M  V30 13896 C 1277.96 -0.898238 4.28078 0
M  V30 13897 C 1277.02 -1.91179 4.90242 0
M  V30 13898 O 1276.05 -1.47337 5.498 0
M  V30 13899 N 1277.25 -3.24331 4.81445 0
M  V30 13900 H 1280.02 0.386047 2.97203 0
M  V30 13901 H 1277.58 0.352002 1.58027 0
M  V30 13902 H 1279.57 -2.09745 3.46106 0
M  V30 13903 H 1278.14 -1.99903 2.40328 0
M  V30 13904 H 1277.36 -0.0466326 3.94172 0
M  V30 13905 H 1278.65 -0.527338 5.0606 0
M  V30 13906 H 1278.04 -3.62627 4.34187 0
M  V30 13907 H 1276.6 -3.87593 5.24037 0
M  V30 13908 N 1280.03 -1.55556 0.252993 0
M  V30 13909 C 1281.28 -1.98267 -0.370571 0
M  V30 13910 C 1281.6 -1.14449 -1.58622 0
M  V30 13911 O 1282.8 -1.472 -2.28132 0
M  V30 13912 C 1281.26 -3.52813 -0.710685 0
M  V30 13913 C 1280.87 -4.45379 0.483908 0
M  V30 13914 C 1282.61 -4.04165 -1.2981 0
M  V30 13915 C 1280.52 -5.91279 0.119611 0
M  V30 13916 H 1279.45 -0.740463 -0.142232 0
M  V30 13917 H 1282.1 -1.8005 0.354169 0
M  V30 13918 H 1280.48 -3.66748 -1.49372 0
M  V30 13919 H 1281.65 -4.43206 1.26116 0
M  V30 13920 H 1279.97 -4.04542 0.986664 0
M  V30 13921 H 1282.57 -5.10696 -1.5841 0
M  V30 13922 H 1282.91 -3.51875 -2.22462 0
M  V30 13923 H 1283.44 -3.93581 -0.577836 0
M  V30 13924 H 1280.18 -6.47619 1.01343 0
M  V30 13925 H 1279.7 -5.96573 -0.621318 0
M  V30 13926 H 1281.38 -6.46322 -0.296052 0
M  V30 13927 N 1281.51 0.0200419 -1.57587 0
M  V30 13928 C 1282.74 0.724241 -1.94344 0
M  V30 13929 C 1283.16 1.67612 -0.853688 0
M  V30 13930 O 1282.52 1.80303 0.189873 0
M  V30 13931 C 1282.57 1.44967 -3.30177 0
M  V30 13932 O 1281.67 2.56326 -3.23064 0
M  V30 13933 H 1281.01 0.194142 -0.634984 0
M  V30 13934 H 1283.54 -0.0271756 -2.04582 0
M  V30 13935 H 1283.55 1.81758 -3.65278 0
M  V30 13936 H 1282.23 0.75161 -4.09052 0
M  V30 13937 H 1280.81 2.22011 -2.99609 0
M  V30 13938 N 1282.99 1.54862 0.292472 0
M  V30 13939 C 1284.4 1.65459 0.864891 0
M  V30 13940 C 1284.75 0.568808 1.87774 0
M  V30 13941 O 1283.88 -0.293107 2.14406 0
M  V30 13942 C 1284.47 2.99939 1.5755 0
M  V30 13943 C 1283.03 3.12628 2.09621 0
M  V30 13944 C 1282.18 2.61179 0.931713 0
M  V30 13945 H 1285.13 1.58549 0.0692679 0
M  V30 13946 H 1285.15 2.91839 2.44152 0
M  V30 13947 H 1284.66 3.78943 0.838088 0
M  V30 13948 H 1282.76 2.3836 2.86383 0
M  V30 13949 H 1282.88 4.18911 2.32488 0
M  V30 13950 H 1281.24 2.17846 1.31967 0
M  V30 13951 H 1282.02 3.42669 0.208121 0
M  V30 13952 N 1284.47 -0.556076 1.47464 0
M  V30 13953 C 1285.69 -1.3434 1.58011 0
M  V30 13954 C 1286.12 -1.86674 0.231138 0
M  V30 13955 O 1285.48 -1.63029 -0.793174 0
M  V30 13956 C 1285.52 -2.48844 2.60977 0
M  V30 13957 O 1284.63 -3.51108 2.16326 0
M  V30 13958 H 1283.97 -0.398986 0.53076 0
M  V30 13959 H 1286.5 -0.671898 1.93253 0
M  V30 13960 H 1286.51 -2.95398 2.81432 0
M  V30 13961 H 1285.18 -2.10109 3.58925 0
M  V30 13962 H 1283.76 -3.10852 2.05975 0
M  V30 13963 N 1285.95 -1.35615 -0.802897 0
M  V30 13964 C 1287.17 -1.32377 -1.59659 0
M  V30 13965 C 1287.6 0.0954235 -1.87858 0
M  V30 13966 O 1286.96 1.06336 -1.46842 0
M  V30 13967 C 1287 -2.13972 -2.90256 0
M  V30 13968 O 1286.11 -1.52296 -3.83249 0
M  V30 13969 H 1285.45 -0.453699 -0.484823 0
M  V30 13970 H 1287.98 -1.78708 -0.996217 0
M  V30 13971 H 1287.99 -2.26061 -3.39647 0
M  V30 13972 H 1286.66 -3.17145 -2.69057 0
M  V30 13973 H 1285.24 -1.49068 -3.41809 0
M  V30 13974 N 1287.43 1.02549 -1.19673 0
M  V30 13975 C 1288.67 1.75656 -0.999463 0
M  V30 13976 C 1288.99 1.89238 0.470517 0
M  V30 13977 O 1288.26 1.42843 1.34062 0
M  V30 13978 H 1286.84 0.650732 -0.366821 0
M  V30 13979 H 1289.51 1.23684 -1.50627 0
M  V30 13980 H 1288.6 2.76353 -1.45035 0
M  V30 13981 N 1288.9 1.00119 1.21713 0
M  V30 13982 C 1290.13 0.700431 1.94683 0
M  V30 13983 C 1290.55 -0.736333 1.73849 0
M  V30 13984 O 1289.9 -1.49778 1.04272 0
M  V30 13985 C 1289.95 1.00722 3.47185 0
M  V30 13986 O 1289.68 2.38754 3.67326 0
M  V30 13987 C 1291.18 0.725335 4.37326 0
M  V30 13988 H 1288.4 0.25843 0.619238 0
M  V30 13989 H 1290.94 1.3382 1.54636 0
M  V30 13990 H 1289.1 0.415117 3.85169 0
M  V30 13991 H 1289.51 2.49321 4.61454 0
M  V30 13992 H 1290.98 0.990202 5.43046 0
M  V30 13993 H 1291.46 -0.340649 4.37877 0
M  V30 13994 H 1292.07 1.29888 4.04981 0
M  V30 13995 N 1290.38 -1.37203 0.775435 0
M  V30 13996 C 1291.61 -2.03868 0.352927 0
M  V30 13997 C 1292.02 -1.58482 -1.0261 0
M  V30 13998 O 1291.38 -0.767772 -1.65564 0
M  V30 13999 C 1291.43 -3.59378 0.39116 0
M  V30 14000 O 1291.15 -4.03103 1.71579 0
M  V30 14001 C 1292.65 -4.4328 -0.0424808 0
M  V30 14002 H 1289.87 -0.654619 0.14736 0
M  V30 14003 H 1292.42 -1.75463 1.05039 0
M  V30 14004 H 1290.57 -3.86542 -0.257752 0
M  V30 14005 H 1290.99 -4.9764 1.65695 0
M  V30 14006 H 1292.46 -5.51989 0.0354215 0
M  V30 14007 H 1292.94 -4.25374 -1.09333 0
M  V30 14008 H 1293.54 -4.21349 0.578384 0
M  V30 14009 N 1291.86 -0.526279 -1.48553 0
M  V30 14010 C 1293.11 0.00918008 -2.02798 0
M  V30 14011 C 1293.44 1.34284 -1.4029 0
M  V30 14012 O 1292.71 1.86639 -0.547355 0
M  V30 14013 C 1293 0.135102 -3.59846 0
M  V30 14014 C 1292.85 -1.22347 -4.32841 0
M  V30 14015 C 1294.17 0.863673 -4.31542 0
M  V30 14016 H 1291.29 0.00186216 -0.736998 0
M  V30 14017 H 1293.93 -0.682591 -1.77315 0
M  V30 14018 H 1292.08 0.724279 -3.81689 0
M  V30 14019 H 1293.75 -1.85347 -4.22427 0
M  V30 14020 H 1291.99 -1.80631 -3.94405 0
M  V30 14021 H 1292.67 -1.08839 -5.41164 0
M  V30 14022 H 1295.14 0.363734 -4.14507 0
M  V30 14023 H 1294.02 0.92067 -5.41124 0
M  V30 14024 H 1294.28 1.91313 -3.98562 0
M  V30 14025 N 1293.34 1.5542 -0.261239 0
M  V30 14026 C 1294.57 2.03687 0.363225 0
M  V30 14027 C 1294.98 1.14007 1.50492 0
M  V30 14028 O 1294.34 0.157349 1.8182 0
M  V30 14029 C 1294.39 3.51184 0.857435 0
M  V30 14030 O 1294.11 4.37449 -0.238776 0
M  V30 14031 C 1295.61 4.15277 1.55113 0
M  V30 14032 H 1292.83 0.665641 0.0846356 0
M  V30 14033 H 1295.37 2.00761 -0.389288 0
M  V30 14034 H 1293.53 3.54599 1.56008 0
M  V30 14035 H 1293.94 5.24316 0.138821 0
M  V30 14036 H 1295.42 5.20129 1.8485 0
M  V30 14037 H 1295.89 3.62619 2.47799 0
M  V30 14038 H 1296.5 4.15826 0.892695 0
M  V30 14039 N 1294.82 -0.0116844 1.57596 0
M  V30 14040 C 1296.04 -0.713924 1.94725 0
M  V30 14041 C 1296.47 -1.67157 0.862565 0
M  V30 14042 O 1295.82 -1.80401 -0.180308 0
M  V30 14043 C 1295.87 -1.43214 3.30941 0
M  V30 14044 O 1294.98 -2.5461 3.24419 0
M  V30 14045 H 1294.32 -0.190772 0.636005 0
M  V30 14046 H 1296.85 0.0380247 2.04565 0
M  V30 14047 H 1296.86 -1.79819 3.66237 0
M  V30 14048 H 1295.53 -0.729906 4.09445 0
M  V30 14049 H 1294.11 -2.20419 3.00782 0
M  V30 14050 N 1296.29 -1.55015 -0.284256 0
M  V30 14051 C 1297.54 -1.7535 -1.01884 0
M  V30 14052 C 1297.87 -0.546825 -1.86342 0
M  V30 14053 O 1297.15 0.455832 -1.89083 0
M  V30 14054 C 1297.43 -3.05219 -1.91084 0
M  V30 14055 C 1297.28 -4.36219 -1.09694 0
M  V30 14056 C 1298.6 -3.31056 -2.89983 0
M  V30 14057 H 1295.72 -0.637981 -0.368984 0
M  V30 14058 H 1298.36 -1.87741 -0.292116 0
M  V30 14059 H 1296.51 -2.94786 -2.53048 0
M  V30 14060 H 1298.19 -4.58594 -0.498876 0
M  V30 14061 H 1296.43 -4.31951 -0.400078 0
M  V30 14062 H 1297.1 -5.23392 -1.75399 0
M  V30 14063 H 1299.58 -3.41209 -2.38151 0
M  V30 14064 H 1298.45 -4.23212 -3.49547 0
M  V30 14065 H 1298.71 -2.50153 -3.64521 0
M  V30 14066 N 1297.77 0.548248 -1.47757 0
M  V30 14067 C 1299.02 1.30694 -1.55071 0
M  V30 14068 C 1299.35 1.92994 -0.216075 0
M  V30 14069 O 1298.63 1.78341 0.776196 0
M  V30 14070 C 1298.91 2.41024 -2.67543 0
M  V30 14071 C 1298.76 1.83534 -4.10652 0
M  V30 14072 C 1300.08 3.42902 -2.75874 0
M  V30 14073 H 1297.2 0.47383 -0.564494 0
M  V30 14074 H 1299.84 0.612628 -1.79852 0
M  V30 14075 H 1297.99 3.00248 -2.46543 0
M  V30 14076 H 1299.66 1.28503 -4.4304 0
M  V30 14077 H 1297.91 1.14161 -4.18509 0
M  V30 14078 H 1298.58 2.63335 -4.85138 0
M  V30 14079 H 1301.05 2.9361 -2.94843 0
M  V30 14080 H 1299.93 4.17516 -3.5633 0
M  V30 14081 H 1300.19 4.02314 -1.83291 0
M  V30 14082 N 1299.25 1.36039 0.795694 0
M  V30 14083 C 1300.5 1.29663 1.55023 0
M  V30 14084 C 1300.82 -0.125588 1.94595 0
M  V30 14085 O 1300.09 -1.06447 1.64456 0
M  V30 14086 H 1298.67 0.476962 0.574906 0
M  V30 14087 H 1301.33 1.70265 0.948471 0
M  V30 14088 H 1300.43 1.91982 2.46068 0
M  V30 14089 N 1300.73 -1.01913 1.20215 0
M  V30 14090 C 1301.98 -1.7547 1.01076 0
M  V30 14091 C 1302.3 -1.89045 -0.457404 0
M  V30 14092 O 1301.56 -1.41121 -1.35585 0
M  V30 14093 C 1301.86 -3.17734 1.63646 0
M  V30 14094 C 1301.52 -3.24143 3.13436 0
M  V30 14095 C 1300.19 -3.25599 3.54315 0
M  V30 14096 C 1302.54 -3.22508 4.09436 0
M  V30 14097 C 1299.87 -3.23089 4.89725 0
M  V30 14098 C 1302.22 -3.21539 5.44789 0
M  V30 14099 C 1300.88 -3.21298 5.85085 0
M  V30 14100 H 1300.15 -0.642092 0.369864 0
M  V30 14101 H 1302.8 -1.19547 1.49602 0
M  V30 14102 H 1301.1 -3.76799 1.07375 0
M  V30 14103 H 1302.8 -3.73338 1.46356 0
M  V30 14104 H 1299.39 -3.23743 2.80871 0
M  V30 14105 H 1303.57 -3.20555 3.7889 0
M  V30 14106 H 1298.83 -3.21231 5.20212 0
M  V30 14107 H 1303 -3.19226 6.18924 0
M  V30 14108 H 1300.63 -3.19107 6.89982 0
M  V30 14109 N 1302.21 -1.00763 -1.2118 0
M  V30 14110 C 1303.43 -0.710515 -1.9485 0
M  V30 14111 C 1303.86 0.720934 -1.73736 0
M  V30 14112 O 1303.21 1.49484 -1.02588 0
M  V30 14113 C 1303.26 -1.04035 -3.45267 0
M  V30 14114 O 1302.37 -0.147047 -4.12138 0
M  V30 14115 H 1301.71 -0.264472 -0.609057 0
M  V30 14116 H 1304.24 -1.34858 -1.53865 0
M  V30 14117 H 1304.25 -0.9883 -3.95849 0
M  V30 14118 H 1302.92 -2.08334 -3.59958 0
M  V30 14119 H 1301.5 -0.255847 -3.72021 0
M  V30 14120 N 1303.68 1.3679 -0.7827 0
M  V30 14121 C 1304.92 2.01252 -0.357327 0
M  V30 14122 C 1305.29 1.60782 1.04944 0
M  V30 14123 O 1306.49 2.17785 1.57553 0
M  V30 14124 C 1304.76 3.53766 -0.508352 0
M  V30 14125 S 1306.32 4.38471 -0.169862 0
M  V30 14126 H 1303.14 0.697701 -0.136875 0
M  V30 14127 H 1305.74 1.66799 -1.01972 0
M  V30 14128 H 1304.44 3.80708 -1.53262 0
M  V30 14129 H 1303.97 3.93032 0.170209 0
M  V30 14130 H 1305.99 4.85373 1.03088 0
M  V30 14131 N 1305.16 0.53415 1.48272 0
M  V30 14132 C 1306.44 -0.0630181 1.95498 0
M  V30 14133 C 1306.82 -1.50877 1.47646 0
M  V30 14134 O 1306.17 -2.17358 0.704829 0
M  V30 14135 C 1306.38 0.0585475 3.48951 0
M  V30 14136 C 1307.73 -0.0985978 4.24486 0
M  V30 14137 O 1308.75 -0.0150438 3.56197 0
M  V30 14138 O 1307.61 -0.274356 5.45811 0
M  V30 14139 H 1304.7 -0.0769841 0.823409 0
M  V30 14140 H 1307.25 0.599043 1.58775 0
M  V30 14141 H 1306.02 1.06549 3.76514 0
M  V30 14142 H 1305.64 -0.642175 3.9238 0
M  V30 14143 N 1306.64 -1.55279 0.269478 0
M  V30 14144 C 1307.89 -1.99077 -0.348224 0
M  V30 14145 C 1308.21 -1.15925 -1.568 0
M  V30 14146 O 1307.48 -0.247404 -1.94331 0
M  V30 14147 H 1306.06 -0.735307 -0.131653 0
M  V30 14148 H 1308.72 -1.91288 0.373506 0
M  V30 14149 H 1307.82 -3.05427 -0.641953 0
M  V30 14150 N 1308.12 0.00332656 -1.576 0
M  V30 14151 C 1309.05 1.02964 -2.03651 0
M  V30 14152 C 1310.03 1.33675 -0.925724 0
M  V30 14153 O 1311.21 1.45896 -1.19359 0
M  V30 14154 C 1308.34 2.35808 -2.4313 0
M  V30 14155 C 1307.39 2.20781 -3.64908 0
M  V30 14156 S 1308.22 1.53697 -5.12969 0
M  V30 14157 C 1309.38 2.87978 -5.55715 0
M  V30 14158 H 1309.61 0.637508 -2.90384 0
M  V30 14159 H 1307.14 0.214095 -1.52908 0
M  V30 14160 H 1309.1 3.12193 -2.66544 0
M  V30 14161 H 1307.76 2.72162 -1.56802 0
M  V30 14162 H 1306.95 3.1891 -3.90272 0
M  V30 14163 H 1306.56 1.5254 -3.41478 0
M  V30 14164 H 1308.85 3.84283 -5.57972 0
M  V30 14165 H 1309.79 2.67318 -6.55703 0
M  V30 14166 H 1310.2 2.91735 -4.83271 0
M  V30 14167 N 1309.6 1.55164 0.276031 0
M  V30 14168 C 1311.01 1.46936 0.623061 0
M  V30 14169 C 1311.21 0.680977 1.89644 0
M  V30 14170 O 1310.27 0.198618 2.51718 0
M  V30 14171 C 1311.58 2.91123 0.752839 0
M  V30 14172 C 1313.13 3.01319 0.847093 0
M  V30 14173 C 1313.6 4.46755 1.00867 0
M  V30 14174 N 1315.1 4.5057 1.07427 0
M  V30 14175 C 1315.83 5.60314 1.21804 0
M  V30 14176 N 1315.33 6.7993 1.32919 0
M  V30 14177 N 1317.12 5.4805 1.2489 0
M  V30 14178 H 1309.27 2.04877 -0.560282 0
M  V30 14179 H 1311.53 0.928925 -0.189217 0
M  V30 14180 H 1311.24 3.51521 -0.112333 0
M  V30 14181 H 1311.11 3.39967 1.63408 0
M  V30 14182 H 1313.5 2.41021 1.70274 0
M  V30 14183 H 1313.58 2.55733 -0.0586896 0
M  V30 14184 H 1313.23 5.07655 0.1577 0
M  V30 14185 H 1313.16 4.89995 1.92906 0
M  V30 14186 H 1315.65 3.64404 1.00089 0
M  V30 14187 H 1315.96 7.59319 1.43714 0
M  V30 14188 H 1314.3 6.82747 1.29929 0
M  V30 14189 H 1317.5 4.53542 1.15834 0
M  V30 14190 H 1317.67 6.33621 1.3575 0
M  V30 14191 N 1311.07 -0.540404 1.48045 0
M  V30 14192 C 1312.49 -1.12243 1.49192 0
M  V30 14193 C 1312.84 -1.94524 0.255895 0
M  V30 14194 O 1311.96 -2.06786 -0.637855 0
M  V30 14195 C 1312.56 -2.04227 2.70327 0
M  V30 14196 C 1311.12 -2.57668 2.7438 0
M  V30 14197 C 1310.26 -1.34402 2.42552 0
M  V30 14198 H 1313.21 -0.326165 1.55312 0
M  V30 14199 H 1313.23 -2.88359 2.48253 0
M  V30 14200 H 1312.75 -1.44314 3.60271 0
M  V30 14201 H 1310.85 -3.21331 1.88618 0
M  V30 14202 H 1310.96 -2.97514 3.7553 0
M  V30 14203 H 1309.32 -1.65635 1.93487 0
M  V30 14204 H 1310.11 -0.762571 3.34723 0
M  V30 14205 N 1312.55 -1.36459 -0.788468 0
M  V30 14206 C 1313.46 -1.33017 -1.93245 0
M  V30 14207 C 1314.48 -0.232212 -1.72444 0
M  V30 14208 O 1315.65 -0.464743 -1.95965 0
M  V30 14209 C 1312.72 -1.1197 -3.28121 0
M  V30 14210 C 1311.78 -2.3125 -3.61693 0
M  V30 14211 C 1311.01 -2.11197 -4.90134 0
M  V30 14212 O 1311.24 -1.08764 -5.59934 0
M  V30 14213 O 1310.17 -2.98996 -5.22384 0
M  V30 14214 H 1314 -2.29333 -1.99098 0
M  V30 14215 H 1311.58 -1.17016 -0.928856 0
M  V30 14216 H 1313.46 -1.02154 -4.08831 0
M  V30 14217 H 1312.14 -0.187171 -3.23158 0
M  V30 14218 H 1311.05 -2.46635 -2.81286 0
M  V30 14219 H 1312.38 -3.23012 -3.71381 0
M  V30 14220 N 1314.03 1.01274 -1.20754 0
M  V30 14221 C 1314.99 2.08056 -0.961528 0
M  V30 14222 C 1315.99 1.60671 0.0644461 0
M  V30 14223 O 1317.18 1.73349 -0.172022 0
M  V30 14224 C 1314.32 3.37938 -0.448381 0
M  V30 14225 H 1315.51 2.31314 -1.90877 0
M  V30 14226 H 1313.06 1.18133 -1.02344 0
M  V30 14227 H 1313.8 3.20357 0.504144 0
M  V30 14228 H 1313.58 3.73659 -1.18833 0
M  V30 14229 H 1315.07 4.16551 -0.295876 0
M  V30 14230 N 1315.51 1.01404 1.20644 0
M  V30 14231 C 1316.76 0.697244 1.89265 0
M  V30 14232 C 1317.07 -0.776149 1.79542 0
M  V30 14233 O 1318.28 -1.2054 2.43274 0
M  V30 14234 C 1316.73 1.19672 3.39421 0
M  V30 14235 C 1316.34 2.69683 3.57736 0
M  V30 14236 C 1318.09 0.955225 4.13613 0
M  V30 14237 C 1315.99 3.13124 5.01704 0
M  V30 14238 H 1314.92 0.257105 0.708811 0
M  V30 14239 H 1317.57 1.22639 1.36499 0
M  V30 14240 H 1315.96 0.595562 3.91496 0
M  V30 14241 H 1317.13 3.35326 3.16059 0
M  V30 14242 H 1315.44 2.91946 2.96911 0
M  V30 14243 H 1318.04 1.25524 5.19757 0
M  V30 14244 H 1318.38 -0.108362 4.16159 0
M  V30 14245 H 1318.92 1.51962 3.67631 0
M  V30 14246 H 1315.66 4.18748 5.04311 0
M  V30 14247 H 1315.18 2.522 5.44201 0
M  V30 14248 H 1316.86 3.05617 5.70269 0
M  V30 14249 N 1316.99 -1.36373 0.789944 0
M  V30 14250 C 1318.4 -1.52471 0.471686 0
M  V30 14251 C 1318.6 -1.74365 -1.0099 0
M  V30 14252 O 1317.66 -1.77546 -1.79538 0
M  V30 14253 C 1318.97 -2.71022 1.30259 0
M  V30 14254 C 1320.52 -2.84893 1.29633 0
M  V30 14255 C 1321 -4.0645 2.11098 0
M  V30 14256 N 1322.49 -4.13597 2.08547 0
M  V30 14257 C 1323.22 -5.06731 2.6835 0
M  V30 14258 N 1322.72 -6.05305 3.37013 0
M  V30 14259 N 1324.51 -4.9935 2.58081 0
M  V30 14260 H 1316.66 -1.20416 1.74968 0
M  V30 14261 H 1318.92 -0.587782 0.743785 0
M  V30 14262 H 1318.63 -2.61368 2.35329 0
M  V30 14263 H 1318.5 -3.6519 0.944254 0
M  V30 14264 H 1320.89 -2.94009 0.253542 0
M  V30 14265 H 1320.97 -1.91632 1.69443 0
M  V30 14266 H 1320.62 -3.98096 3.15408 0
M  V30 14267 H 1320.55 -4.98861 1.68659 0
M  V30 14268 H 1323.04 -3.4302 1.58573 0
M  V30 14269 H 1323.35 -6.72934 3.79974 0
M  V30 14270 H 1321.7 -6.05529 3.41116 0
M  V30 14271 H 1324.89 -4.21291 2.04039 0
M  V30 14272 H 1325.06 -5.71745 3.04979 0
M  V30 14273 N 1318.47 -0.542005 -1.47987 0
M  V30 14274 C 1319.4 0.25143 -2.27817 0
M  V30 14275 C 1320.41 0.893436 -1.36094 0
M  V30 14276 O 1321.6 0.769849 -1.61045 0
M  V30 14277 C 1318.7 1.37236 -3.0987 0
M  V30 14278 C 1317.87 0.830021 -4.29452 0
M  V30 14279 C 1316.93 1.83356 -4.93221 0
M  V30 14280 O 1315.96 1.38571 -5.52075 0
M  V30 14281 N 1317.16 3.16631 -4.86544 0
M  V30 14282 H 1319.92 -0.433281 -2.96551 0
M  V30 14283 H 1317.49 -0.377099 -1.57447 0
M  V30 14284 H 1319.48 2.04212 -3.49399 0
M  V30 14285 H 1318.05 1.96055 -2.43478 0
M  V30 14286 H 1317.27 -0.0160827 -3.94197 0
M  V30 14287 H 1318.56 0.446762 -5.06835 0
M  V30 14288 H 1317.95 3.55673 -4.39901 0
M  V30 14289 H 1316.51 3.79207 -5.30137 0
M  V30 14290 N 1319.94 1.55134 -0.277709 0
M  V30 14291 C 1321.22 1.91667 0.390253 0
M  V30 14292 C 1321.6 1.20228 1.73518 0
M  V30 14293 O 1320.95 0.330013 2.26104 0
M  V30 14294 C 1321.16 3.44983 0.52797 0
M  V30 14295 C 1322.51 4.16809 0.809665 0
M  V30 14296 O 1323.53 3.50891 0.612679 0
M  V30 14297 O 1322.39 5.33463 1.18656 0
M  V30 14298 H 1319.48 0.798807 0.214095 0
M  V30 14299 H 1322.03 1.66577 -0.324053 0
M  V30 14300 H 1320.8 3.89056 -0.418422 0
M  V30 14301 H 1320.42 3.76035 1.29164 0
M  V30 14302 N 1321.42 0.00503138 1.57599 0
M  V30 14303 C 1322.83 -0.537106 1.78807 0
M  V30 14304 C 1323.18 -1.73666 0.912945 0
M  V30 14305 O 1322.31 -2.16085 0.116775 0
M  V30 14306 C 1322.9 -0.98116 3.24282 0
M  V30 14307 C 1321.46 -1.46857 3.46569 0
M  V30 14308 C 1320.61 -0.422088 2.74069 0
M  V30 14309 H 1323.56 0.231182 1.57007 0
M  V30 14310 H 1323.58 -1.8469 3.32671 0
M  V30 14311 H 1323.09 -0.107907 3.8795 0
M  V30 14312 H 1321.19 -2.36255 2.88122 0
M  V30 14313 H 1321.31 -1.49256 4.55258 0
M  V30 14314 H 1319.67 -0.884853 2.38836 0
M  V30 14315 H 1320.45 0.442285 3.40439 0
M  V30 14316 N 1322.9 -1.55308 -0.267798 0
M  V30 14317 C 1324.13 -1.80191 -1.01681 0
M  V30 14318 C 1324.54 -0.57783 -1.7974 0
M  V30 14319 O 1323.9 0.4532 -1.76783 0
M  V30 14320 C 1323.95 -3.03023 -1.97127 0
M  V30 14321 O 1323.67 -4.20704 -1.22229 0
M  V30 14322 C 1325.17 -3.40549 -2.83798 0
M  V30 14323 H 1322.39 -0.60013 -0.300142 0
M  V30 14324 H 1324.94 -2.02332 -0.297007 0
M  V30 14325 H 1323.09 -2.82993 -2.64563 0
M  V30 14326 H 1323.51 -4.90181 -1.86608 0
M  V30 14327 H 1324.98 -4.29653 -3.46557 0
M  V30 14328 H 1325.46 -2.60186 -3.53836 0
M  V30 14329 H 1326.06 -3.62856 -2.21846 0
M  V30 14330 N 1324.38 0.532545 -1.4833 0
M  V30 14331 C 1325.79 0.860843 -1.34394 0
M  V30 14332 C 1325.99 1.98384 -0.353013 0
M  V30 14333 O 1325.05 2.5148 0.226688 0
M  V30 14334 C 1326.36 1.23079 -2.74358 0
M  V30 14335 C 1327.91 1.34082 -2.82827 0
M  V30 14336 C 1328.39 1.74421 -4.23487 0
M  V30 14337 N 1329.88 1.81528 -4.26148 0
M  V30 14338 C 1330.61 2.1412 -5.31921 0
M  V30 14339 N 1330.11 2.45154 -6.47975 0
M  V30 14340 N 1331.9 2.15104 -5.19314 0
M  V30 14341 H 1324.05 -0.208464 -2.11375 0
M  V30 14342 H 1326.31 -0.03062 -0.947505 0
M  V30 14343 H 1326.02 0.47926 -3.48419 0
M  V30 14344 H 1325.89 2.18151 -3.07718 0
M  V30 14345 H 1328.28 2.08311 -2.09022 0
M  V30 14346 H 1328.36 0.37137 -2.5309 0
M  V30 14347 H 1328.01 1.00752 -4.97807 0
M  V30 14348 H 1327.94 2.72411 -4.50666 0
M  V30 14349 H 1330.43 1.59832 -3.42436 0
M  V30 14350 H 1330.74 2.69121 -7.24426 0
M  V30 14351 H 1329.09 2.42679 -6.51254 0
M  V30 14352 H 1332.28 1.90315 -4.27666 0
M  V30 14353 H 1332.45 2.40173 -6.01848 0
M  V30 14354 N 1325.86 1.36875 0.78122 0
M  V30 14355 C 1326.8 1.31869 1.89418 0
M  V30 14356 C 1327.77 0.185904 1.65056 0
M  V30 14357 O 1328.96 0.373745 1.87104 0
M  V30 14358 C 1326.1 1.12205 3.2635 0
M  V30 14359 C 1325.21 2.34631 3.62729 0
M  V30 14360 C 1324.35 2.07914 4.8882 0
M  V30 14361 C 1323.38 3.26257 5.17902 0
M  V30 14362 N 1322.52 2.99152 6.35179 0
M  V30 14363 H 1327.36 2.2703 1.93032 0
M  V30 14364 H 1324.9 1.12826 0.943857 0
M  V30 14365 H 1326.86 0.988282 4.05326 0
M  V30 14366 H 1325.49 0.206959 3.22136 0
M  V30 14367 H 1324.54 2.58782 2.78812 0
M  V30 14368 H 1325.85 3.22919 3.80164 0
M  V30 14369 H 1325 1.91514 5.7568 0
M  V30 14370 H 1323.74 1.1695 4.7347 0
M  V30 14371 H 1322.75 3.43207 4.29522 0
M  V30 14372 H 1323.97 4.1806 5.35166 0
M  V30 14373 H 1321.92 2.10807 6.21205 0
M  V30 14374 H 1321.84 3.80981 6.52985 0
M  V30 14375 H 1323.1 2.86349 7.25 0
M  V30 14376 N 1327.33 -1.00632 1.21289 0
M  V30 14377 C 1328.58 -1.74044 1.02728 0
M  V30 14378 C 1328.9 -1.89963 -0.440351 0
M  V30 14379 O 1328.17 -1.44958 -1.31772 0
M  V30 14380 H 1326.75 -0.644813 0.377127 0
M  V30 14381 H 1329.41 -1.21272 1.52575 0
M  V30 14382 H 1328.51 -2.74011 1.49413 0
M  V30 14383 N 1328.81 -1.02043 -1.20104 0
M  V30 14384 C 1330.04 -0.731142 -1.94085 0
M  V30 14385 C 1330.46 0.702467 -1.74491 0
M  V30 14386 O 1329.82 1.48387 -1.04168 0
M  V30 14387 C 1329.87 -1.07691 -3.44144 0
M  V30 14388 O 1328.97 -0.190751 -4.11959 0
M  V30 14389 H 1328.31 -0.270917 -0.606218 0
M  V30 14390 H 1330.84 -1.36483 -1.52426 0
M  V30 14391 H 1330.85 -1.03023 -3.94779 0
M  V30 14392 H 1329.53 -2.1214 -3.57728 0
M  V30 14393 H 1328.1 -0.29529 -3.71729 0
M  V30 14394 N 1330.29 1.35952 -0.797165 0
M  V30 14395 C 1331.54 1.99327 -0.373695 0
M  V30 14396 C 1331.87 1.63111 1.05396 0
M  V30 14397 O 1331.14 0.889736 1.72956 0
M  V30 14398 C 1331.43 3.5593 -0.54641 0
M  V30 14399 C 1331.28 4.01975 -2.01832 0
M  V30 14400 C 1332.6 4.40087 0.0337694 0
M  V30 14401 H 1329.72 0.724107 -0.137254 0
M  V30 14402 H 1332.36 1.61248 -1.00495 0
M  V30 14403 H 1330.51 3.88499 -0.00903959 0
M  V30 14404 H 1332.18 3.79859 -2.61735 0
M  V30 14405 H 1330.43 3.5323 -2.51815 0
M  V30 14406 H 1331.1 5.109 -2.09009 0
M  V30 14407 H 1333.57 4.13923 -0.425039 0
M  V30 14408 H 1332.45 5.48775 -0.117054 0
M  V30 14409 H 1332.71 4.27504 1.12661 0
M  V30 14410 N 1331.77 0.549846 1.47697 0
M  V30 14411 C 1333.01 0.0230845 2.02787 0
M  V30 14412 C 1333.35 -1.32035 1.42409 0
M  V30 14413 O 1332.62 -1.85745 0.576978 0
M  V30 14414 C 1332.91 -0.0778363 3.60016 0
M  V30 14415 C 1332.76 1.29217 4.3084 0
M  V30 14416 C 1334.08 -0.794909 4.32862 0
M  V30 14417 H 1331.2 0.00986307 0.736934 0
M  V30 14418 H 1333.84 0.710714 1.76207 0
M  V30 14419 H 1331.99 -0.663464 3.82793 0
M  V30 14420 H 1333.66 1.92044 4.19424 0
M  V30 14421 H 1331.9 1.86883 3.91481 0
M  V30 14422 H 1332.57 1.17435 5.39364 0
M  V30 14423 H 1335.05 -0.297743 4.15033 0
M  V30 14424 H 1333.93 -0.834466 5.4252 0
M  V30 14425 H 1334.19 -1.84948 4.01555 0
M  V30 14426 N 1333.25 -1.54984 0.285932 0
M  V30 14427 C 1334.19 -2.24385 -0.612703 0
M  V30 14428 C 1335.19 -1.24459 -1.14918 0
M  V30 14429 O 1336.39 -1.42357 -1.10156 0
M  V30 14430 H 1332.77 -0.720263 -0.21616 0
M  V30 14431 H 1334.74 -2.984 -0.00465668 0
M  V30 14432 C 1333.49 -2.98661 -1.78037 0
M  V30 14433 H 1332.81 -3.75347 -1.37676 0
M  V30 14434 H 1334.25 -3.50525 -2.38554 0
M  V30 14435 C 1332.71 -2.04754 -2.67539 0
M  V30 14436 O 1333.24 -1.60577 -3.68209 0
M  V30 14437 N 1331.45 -1.71026 -2.34944 0
M  V30 14438 H 1330.99 -2.07148 -1.53126 0
M  V30 14439 H 1330.95 -1.08467 -2.95097 0
M  V30 14440 N 1334.72 -0.0133892 -1.57594 0
M  V30 14441 C 1335.97 0.669624 -1.91426 0
M  V30 14442 C 1336.3 1.72675 -0.888656 0
M  V30 14443 O 1335.58 1.94288 0.0908138 0
M  V30 14444 C 1335.86 1.30051 -3.35796 0
M  V30 14445 C 1335.71 0.254021 -4.49082 0
M  V30 14446 C 1337.03 2.22297 -3.79832 0
M  V30 14447 H 1334.15 0.241958 -0.69615 0
M  V30 14448 H 1336.79 -0.0674278 -1.8988 0
M  V30 14449 H 1334.94 1.92871 -3.37243 0
M  V30 14450 H 1336.62 -0.375524 -4.59769 0
M  V30 14451 H 1334.86 -0.422267 -4.3174 0
M  V30 14452 H 1335.53 0.734756 -5.47088 0
M  V30 14453 H 1338.01 1.69481 -3.8002 0
M  V30 14454 H 1336.88 2.634 -4.81572 0
M  V30 14455 H 1337.14 3.10764 -3.14449 0
M  V30 14456 N 1336.2 1.55448 0.259558 0
M  V30 14457 C 1337.15 1.90056 1.34096 0
M  V30 14458 C 1338.14 0.778267 1.50464 0
M  V30 14459 O 1339.35 0.962758 1.52089 0
M  V30 14460 H 1335.73 0.603424 0.448758 0
M  V30 14461 H 1337.7 2.80365 1.02166 0
M  V30 14462 C 1336.45 2.20074 2.69189 0
M  V30 14463 H 1335.77 3.05926 2.57389 0
M  V30 14464 H 1337.21 2.48201 3.43762 0
M  V30 14465 C 1335.67 1.01281 3.21316 0
M  V30 14466 O 1336.2 0.2543 4.00894 0
M  V30 14467 N 1334.4 0.806855 2.79174 0
M  V30 14468 H 1333.95 1.42536 2.14572 0
M  V30 14469 H 1333.91 0.0136714 3.14397 0
M  V30 14470 N 1337.68 -0.524672 1.4861 0
M  V30 14471 C 1339.09 -1.10655 1.50374 0
M  V30 14472 C 1339.44 -1.94242 0.276512 0
M  V30 14473 O 1338.57 -2.07451 -0.615887 0
M  V30 14474 C 1339.16 -2.01348 2.72478 0
M  V30 14475 C 1337.72 -2.54743 2.77097 0
M  V30 14476 C 1336.87 -1.31822 2.43964 0
M  V30 14477 H 1339.82 -0.309674 1.55649 0
M  V30 14478 H 1339.84 -2.85709 2.51297 0
M  V30 14479 H 1339.35 -1.40485 3.61781 0
M  V30 14480 H 1337.45 -3.19313 1.92016 0
M  V30 14481 H 1337.57 -2.93514 3.78664 0
M  V30 14482 H 1335.93 -1.63574 1.95233 0
M  V30 14483 H 1336.71 -0.727026 3.35513 0
M  V30 14484 N 1339.16 -1.37287 -0.77395 0
M  V30 14485 C 1340.39 -1.35563 -1.56302 0
M  V30 14486 C 1340.8 0.0595356 -1.88706 0
M  V30 14487 O 1340.16 1.02072 -1.51286 0
M  V30 14488 C 1340.21 -2.19195 -2.87464 0
M  V30 14489 O 1339.93 -3.55197 -2.5645 0
M  V30 14490 C 1341.43 -2.25425 -3.81704 0
M  V30 14491 H 1338.65 -0.464431 -0.484298 0
M  V30 14492 H 1341.2 -1.80597 -0.959425 0
M  V30 14493 H 1339.35 -1.77676 -3.44253 0
M  V30 14494 H 1339.76 -3.99011 -3.40427 0
M  V30 14495 H 1341.24 -2.8827 -4.70749 0
M  V30 14496 H 1341.72 -1.26205 -4.20677 0
M  V30 14497 H 1342.32 -2.67247 -3.30846 0
M  V30 14498 N 1340.64 0.999871 -1.21821 0
M  V30 14499 C 1341.58 2.10985 -0.979183 0
M  V30 14500 C 1342.58 1.69232 0.0753287 0
M  V30 14501 O 1343.78 1.79837 -0.0765083 0
M  V30 14502 H 1340.16 0.689819 -0.299421 0
M  V30 14503 H 1342.13 2.28322 -1.92124 0
M  V30 14504 C 1340.88 3.43062 -0.56602 0
M  V30 14505 H 1340.2 3.75627 -1.36909 0
M  V30 14506 H 1341.64 4.2173 -0.43813 0
M  V30 14507 C 1340.1 3.29036 0.723647 0
M  V30 14508 O 1340.63 3.60214 1.77788 0
M  V30 14509 N 1338.84 2.82237 0.692126 0
M  V30 14510 H 1338.38 2.57064 -0.166082 0
M  V30 14511 H 1338.34 2.73235 1.55532 0
M  V30 14512 N 1342.11 1.02678 1.19562 0
M  V30 14513 C 1343.34 0.741569 1.93154 0
M  V30 14514 C 1343.76 -0.699292 1.75372 0
M  V30 14515 O 1343.11 -1.47533 1.07426 0
M  V30 14516 C 1343.17 1.08064 3.4497 0
M  V30 14517 O 1342.89 2.46492 3.62179 0
M  V30 14518 C 1344.39 0.817935 4.35689 0
M  V30 14519 H 1341.61 0.271506 0.613617 0
M  V30 14520 H 1344.15 1.3707 1.51763 0
M  V30 14521 H 1342.31 0.496723 3.84202 0
M  V30 14522 H 1342.72 2.59053 4.56061 0
M  V30 14523 H 1344.19 1.10517 5.40823 0
M  V30 14524 H 1344.67 -0.247693 4.38501 0
M  V30 14525 H 1345.28 1.38449 4.02134 0
M  V30 14526 N 1343.59 -1.35528 0.804364 0
M  V30 14527 C 1345.01 -1.51962 0.487831 0
M  V30 14528 C 1345.21 -1.75426 -0.991353 0
M  V30 14529 O 1344.26 -1.7944 -1.77644 0
M  V30 14530 C 1345.58 -2.69626 1.33126 0
M  V30 14531 C 1347.13 -2.83502 1.32648 0
M  V30 14532 C 1347.6 -4.04188 2.15397 0
M  V30 14533 N 1349.09 -4.11362 2.12922 0
M  V30 14534 C 1349.83 -5.03856 2.73709 0
M  V30 14535 N 1349.32 -6.01696 3.43415 0
M  V30 14536 N 1351.12 -4.96585 2.63363 0
M  V30 14537 H 1343.27 -1.18553 1.76235 0
M  V30 14538 H 1345.53 -0.57986 0.749977 0
M  V30 14539 H 1345.24 -2.58857 2.38088 0
M  V30 14540 H 1345.11 -3.64168 0.982934 0
M  V30 14541 H 1347.5 -2.93723 0.284712 0
M  V30 14542 H 1347.58 -1.89824 1.71466 0
M  V30 14543 H 1347.22 -3.94728 3.19613 0
M  V30 14544 H 1347.15 -4.97044 1.7394 0
M  V30 14545 H 1349.64 -3.41319 1.62203 0
M  V30 14546 H 1349.96 -6.68866 3.8709 0
M  V30 14547 H 1348.3 -6.01877 3.47519 0
M  V30 14548 H 1351.49 -4.19103 2.08496 0
M  V30 14549 H 1351.66 -5.68478 3.11026 0
M  V30 14550 N 1345.07 -0.557671 -1.47404 0
M  V30 14551 C 1346.48 -0.124411 -1.86285 0
M  V30 14552 C 1346.83 1.30593 -1.46424 0
M  V30 14553 O 1345.96 1.9825 -0.867515 0
M  V30 14554 C 1346.55 -0.219005 -3.38091 0
M  V30 14555 C 1345.11 0.159221 -3.76063 0
M  V30 14556 C 1344.26 -0.566355 -2.71455 0
M  V30 14557 H 1347.21 -0.767367 -1.38914 0
M  V30 14558 H 1347.23 0.562267 -3.76323 0
M  V30 14559 H 1346.74 -1.26013 -3.67073 0
M  V30 14560 H 1344.84 1.20144 -3.52698 0
M  V30 14561 H 1344.96 -0.199662 -4.78684 0
M  V30 14562 H 1343.32 -0.00938921 -2.54698 0
M  V30 14563 H 1344.1 -1.60865 -3.03278 0
M  V30 14564 N 1346.55 1.54831 -0.294147 0
M  V30 14565 C 1347.48 2.20696 0.61854 0
M  V30 14566 C 1348.49 1.19754 1.10285 0
M  V30 14567 O 1349.68 1.46383 1.02148 0
M  V30 14568 C 1346.78 2.83429 1.85798 0
M  V30 14569 C 1345.96 4.10239 1.51731 0
M  V30 14570 C 1345.02 4.56841 2.61119 0
M  V30 14571 O 1344.04 5.22194 2.26501 0
M  V30 14572 N 1345.24 4.2858 3.91534 0
M  V30 14573 H 1348.01 2.9965 0.054714 0
M  V30 14574 H 1345.57 1.61484 -0.116052 0
M  V30 14575 H 1347.56 3.11541 2.5831 0
M  V30 14576 H 1346.13 2.08356 2.33038 0
M  V30 14577 H 1345.35 3.89212 0.625142 0
M  V30 14578 H 1346.64 4.92824 1.26499 0
M  V30 14579 H 1346.04 3.7621 4.22472 0
M  V30 14580 H 1344.59 4.61418 4.60366 0
M  V30 14581 N 1348.03 0.0217466 1.57585 0
M  V30 14582 C 1349.25 -0.67246 1.96196 0
M  V30 14583 C 1349.68 -1.6529 0.897827 0
M  V30 14584 O 1349.04 -1.80743 -0.142002 0
M  V30 14585 C 1349.08 -1.36162 3.33905 0
M  V30 14586 O 1348.19 -2.47671 3.29747 0
M  V30 14587 H 1347.53 -0.177238 0.639908 0
M  V30 14588 H 1350.06 0.0814073 2.04438 0
M  V30 14589 H 1350.07 -1.7201 3.69968 0
M  V30 14590 H 1348.74 -0.642893 4.10901 0
M  V30 14591 H 1347.32 -2.13989 3.0539 0
M  V30 14592 N 1349.51 -1.55583 -0.251311 0
M  V30 14593 C 1350.78 -1.67954 -1.00254 0
M  V30 14594 C 1351.16 -0.560326 -2.03528 0
M  V30 14595 O 1350.51 0.436811 -2.24286 0
M  V30 14596 C 1350.72 -3.08075 -1.63985 0
M  V30 14597 C 1352.07 -3.66531 -2.14336 0
M  V30 14598 O 1353.09 -3.10846 -1.73934 0
M  V30 14599 O 1351.95 -4.64141 -2.88506 0
M  V30 14600 H 1349.05 -0.682952 -0.466375 0
M  V30 14601 H 1351.59 -1.67916 -0.245447 0
M  V30 14602 H 1350.36 -3.80983 -0.892627 0
M  V30 14603 H 1349.99 -3.12105 -2.46325 0
M  V30 14604 N 1350.98 0.516783 -1.48886 0
M  V30 14605 C 1352.21 1.29628 -1.61258 0
M  V30 14606 C 1352.63 1.86744 -0.27786 0
M  V30 14607 O 1351.98 1.67061 0.734639 0
M  V30 14608 C 1352.03 2.43779 -2.66935 0
M  V30 14609 O 1351.76 1.89014 -3.95228 0
M  V30 14610 C 1353.26 3.35398 -2.89867 0
M  V30 14611 H 1350.48 0.393736 -0.543335 0
M  V30 14612 H 1353.02 0.622069 -1.94809 0
M  V30 14613 H 1351.18 3.0706 -2.36206 0
M  V30 14614 H 1351.59 2.63833 -4.53312 0
M  V30 14615 H 1353.06 4.11812 -3.6758 0
M  V30 14616 H 1353.54 3.91436 -1.99185 0
M  V30 14617 H 1354.15 2.77898 -3.21952 0
M  V30 14618 N 1352.46 1.37696 0.766659 0
M  V30 14619 C 1353.87 1.29668 1.34324 0
M  V30 14620 C 1354.22 -0.0534297 1.96127 0
M  V30 14621 O 1353.35 -0.95534 1.94171 0
M  V30 14622 C 1353.94 2.34818 2.44225 0
M  V30 14623 C 1352.5 2.3041 2.97638 0
M  V30 14624 C 1351.65 2.18378 1.70899 0
M  V30 14625 H 1354.6 1.48244 0.566526 0
M  V30 14626 H 1354.62 1.99778 3.23835 0
M  V30 14627 H 1354.13 3.3307 1.99214 0
M  V30 14628 H 1352.23 1.35698 3.47011 0
M  V30 14629 H 1352.35 3.24028 3.52906 0
M  V30 14630 H 1350.71 1.65008 1.94021 0
M  V30 14631 H 1351.49 3.18551 1.27985 0
M  V30 14632 N 1353.94 -0.993397 1.22349 0
M  V30 14633 C 1354.85 -2.11771 1.00947 0
M  V30 14634 C 1355.87 -1.73949 -0.0420679 0
M  V30 14635 O 1357.04 -2.00837 0.150548 0
M  V30 14636 C 1354.11 -3.41654 0.589359 0
M  V30 14637 C 1353.17 -3.93579 1.71446 0
M  V30 14638 C 1352.4 -5.17264 1.3143 0
M  V30 14639 O 1352.62 -5.70074 0.192876 0
M  V30 14640 O 1351.56 -5.62929 2.13059 0
M  V30 14641 H 1355.38 -2.32708 1.95142 0
M  V30 14642 H 1352.97 -1.10144 1.00939 0
M  V30 14643 H 1354.85 -4.19813 0.365403 0
M  V30 14644 H 1353.53 -3.22077 -0.323738 0
M  V30 14645 H 1352.43 -3.16596 1.99294 0
M  V30 14646 H 1353.77 -4.17588 2.6054 0
M  V30 14647 N 1355.42 -1.03311 -1.19015 0
M  V30 14648 C 1356.67 -0.727266 -1.88132 0
M  V30 14649 C 1356.98 0.747488 -1.80754 0
M  V30 14650 O 1358.19 1.16654 -2.45161 0
M  V30 14651 C 1356.64 -1.25056 -3.37474 0
M  V30 14652 C 1356.25 -2.7534 -3.534 0
M  V30 14653 C 1357.99 -1.02091 -4.12041 0
M  V30 14654 C 1355.9 -3.21066 -4.96659 0
M  V30 14655 H 1354.83 -0.268349 -0.704631 0
M  V30 14656 H 1357.48 -1.24795 -1.3453 0
M  V30 14657 H 1355.86 -0.65777 -3.90499 0
M  V30 14658 H 1357.04 -3.40311 -3.10684 0
M  V30 14659 H 1355.35 -2.96633 -2.92229 0
M  V30 14660 H 1357.95 -1.33777 -5.17695 0
M  V30 14661 H 1358.29 0.0421413 -4.16279 0
M  V30 14662 H 1358.83 -1.57792 -3.65166 0
M  V30 14663 H 1355.56 -4.26719 -4.97586 0
M  V30 14664 H 1355.08 -2.60826 -5.4012 0
M  V30 14665 H 1356.76 -3.14651 -5.65335 0
M  V30 14666 N 1356.9 1.35099 -0.81154 0
M  V30 14667 C 1358.31 1.51701 -0.495883 0
M  V30 14668 C 1358.51 1.7595 0.982035 0
M  V30 14669 O 1357.57 1.8038 1.7669 0
M  V30 14670 C 1358.88 2.68916 -1.34554 0
M  V30 14671 C 1360.43 2.82795 -1.34149 0
M  V30 14672 C 1360.9 4.0304 -2.17538 0
M  V30 14673 N 1362.39 4.10227 -2.151 0
M  V30 14674 C 1363.13 5.02397 -2.76377 0
M  V30 14675 N 1362.63 5.99866 -3.46601 0
M  V30 14676 N 1364.42 4.95181 -2.65992 0
M  V30 14677 H 1356.57 1.17617 -1.76862 0
M  V30 14678 H 1358.83 0.575875 -0.753042 0
M  V30 14679 H 1358.54 2.57591 -2.39458 0
M  V30 14680 H 1358.41 3.63641 -1.00223 0
M  V30 14681 H 1360.8 2.93568 -0.300285 0
M  V30 14682 H 1360.88 1.88912 -1.7247 0
M  V30 14683 H 1360.52 3.93027 -3.21702 0
M  V30 14684 H 1360.45 4.96114 -1.76574 0
M  V30 14685 H 1362.95 3.40454 -1.6401 0
M  V30 14686 H 1363.26 6.66803 -3.90632 0
M  V30 14687 H 1361.6 6.00025 -3.50706 0
M  V30 14688 H 1364.79 4.17991 -2.10715 0
M  V30 14689 H 1364.97 5.6682 -3.14036 0
M  V30 14690 N 1358.37 0.56548 1.47106 0
M  V30 14691 C 1359.32 -0.177564 2.30116 0
M  V30 14692 C 1360.29 -0.900534 1.39569 0
M  V30 14693 O 1361.48 -0.894603 1.68527 0
M  V30 14694 C 1358.62 -1.19633 3.237 0
M  V30 14695 C 1357.73 -0.47858 4.29341 0
M  V30 14696 C 1356.86 -1.48336 5.10068 0
M  V30 14697 C 1355.9 -0.751049 6.07475 0
M  V30 14698 N 1355.04 -1.70306 6.81132 0
M  V30 14699 H 1359.88 0.536409 2.93132 0
M  V30 14700 H 1357.42 0.276352 1.44481 0
M  V30 14701 H 1359.37 -1.79967 3.76388 0
M  V30 14702 H 1358 -1.87823 2.6253 0
M  V30 14703 H 1357.06 0.239454 3.79646 0
M  V30 14704 H 1358.37 0.0947147 4.9871 0
M  V30 14705 H 1357.52 -2.16 5.66947 0
M  V30 14706 H 1356.26 -2.09058 4.4062 0
M  V30 14707 H 1355.27 -0.0605336 5.49767 0
M  V30 14708 H 1356.49 -0.14946 6.78936 0
M  V30 14709 H 1354.44 -2.2987 6.14407 0
M  V30 14710 H 1354.35 -1.18213 7.46701 0
M  V30 14711 H 1355.62 -2.37058 7.42579 0
M  V30 14712 N 1359.85 -1.54672 0.302354 0
M  V30 14713 C 1361.08 -2.04282 -0.308645 0
M  V30 14714 C 1361.49 -1.17912 -1.47965 0
M  V30 14715 O 1360.83 -0.197723 -1.82633 0
M  V30 14716 C 1360.9 -3.49872 -0.826417 0
M  V30 14717 C 1360.56 -4.56473 0.219486 0
M  V30 14718 C 1361.56 -5.0922 1.0484 0
M  V30 14719 C 1359.24 -5.00997 0.361574 0
M  V30 14720 C 1361.24 -6.05033 2.00533 0
M  V30 14721 C 1358.92 -5.9663 1.32195 0
M  V30 14722 C 1359.92 -6.48532 2.1423 0
M  V30 14723 O 1359.61 -7.42292 3.08639 0
M  V30 14724 H 1359.34 -0.67228 -0.0708187 0
M  V30 14725 H 1361.89 -2.00625 0.440314 0
M  V30 14726 H 1360.12 -3.50857 -1.62593 0
M  V30 14727 H 1361.81 -3.8267 -1.35345 0
M  V30 14728 H 1362.58 -4.75615 0.949501 0
M  V30 14729 H 1358.46 -4.60226 -0.267018 0
M  V30 14730 H 1362 -6.45469 2.64604 0
M  V30 14731 H 1357.9 -6.29652 1.42156 0
M  V30 14732 H 1358.67 -7.60098 3.03633 0
M  V30 14733 N 1361.33 -0.0301034 -1.57571 0
M  V30 14734 C 1362.28 0.951421 -2.10277 0
M  V30 14735 C 1363.25 1.3224 -1.00508 0
M  V30 14736 O 1364.43 1.41554 -1.27934 0
M  V30 14737 C 1361.57 2.2282 -2.63525 0
M  V30 14738 C 1360.69 1.91359 -3.87306 0
M  V30 14739 C 1359.82 3.13339 -4.28943 0
M  V30 14740 C 1358.86 2.77701 -5.4548 0
M  V30 14741 N 1358 3.9231 -5.82269 0
M  V30 14742 H 1362.84 0.495049 -2.93859 0
M  V30 14743 H 1360.37 0.232756 -1.45247 0
M  V30 14744 H 1362.33 2.97502 -2.92487 0
M  V30 14745 H 1360.96 2.66072 -1.82772 0
M  V30 14746 H 1360.01 1.06915 -3.65066 0
M  V30 14747 H 1361.33 1.61112 -4.72064 0
M  V30 14748 H 1360.48 3.9634 -4.59347 0
M  V30 14749 H 1359.22 3.46747 -3.42954 0
M  V30 14750 H 1358.22 1.93113 -5.14769 0
M  V30 14751 H 1359.45 2.45508 -6.33169 0
M  V30 14752 H 1357.39 4.25559 -4.99235 0
M  V30 14753 H 1357.31 3.65691 -6.61669 0
M  V30 14754 H 1358.58 4.76012 -6.17279 0
M  V30 14755 N 1362.81 1.55714 0.243056 0
M  V30 14756 C 1363.76 1.90638 1.30099 0
M  V30 14757 C 1364.73 0.761049 1.47639 0
M  V30 14758 O 1365.91 1.01505 1.61559 0
M  V30 14759 C 1363.05 2.20985 2.65065 0
M  V30 14760 C 1362.16 3.48343 2.55501 0
M  V30 14761 C 1361.3 3.68241 3.82847 0
M  V30 14762 C 1360.34 4.89187 3.67916 0
M  V30 14763 N 1359.47 5.05586 4.87162 0
M  V30 14764 H 1364.31 2.80857 0.996155 0
M  V30 14765 H 1361.85 1.39027 0.480619 0
M  V30 14766 H 1363.81 2.36585 3.43632 0
M  V30 14767 H 1362.44 1.33966 2.93689 0
M  V30 14768 H 1361.49 3.41054 1.68483 0
M  V30 14769 H 1362.8 4.37057 2.4038 0
M  V30 14770 H 1361.96 3.83822 4.69857 0
M  V30 14771 H 1360.7 2.77768 4.00869 0
M  V30 14772 H 1359.7 4.7358 2.79289 0
M  V30 14773 H 1360.93 5.81124 3.51385 0
M  V30 14774 H 1358.87 4.18051 5.05538 0
M  V30 14775 H 1358.79 5.88395 4.74686 0
M  V30 14776 H 1360.06 5.25582 5.7566 0
M  V30 14777 N 1364.29 -0.50888 1.49158 0
M  V30 14778 C 1365.7 -0.839353 1.35746 0
M  V30 14779 C 1365.9 -1.97797 0.38453 0
M  V30 14780 O 1364.96 -2.51809 -0.186651 0
M  V30 14781 C 1366.27 -1.18698 2.76281 0
M  V30 14782 C 1367.82 -1.29565 2.84924 0
M  V30 14783 C 1368.29 -1.67661 4.26209 0
M  V30 14784 N 1369.79 -1.74725 4.28982 0
M  V30 14785 C 1370.52 -2.05631 5.3526 0
M  V30 14786 N 1370.02 -2.34814 6.51793 0
M  V30 14787 N 1371.81 -2.06815 5.2267 0
M  V30 14788 H 1363.96 0.242065 2.11016 0
M  V30 14789 H 1366.22 0.0456901 0.946898 0
M  V30 14790 H 1365.93 -0.423769 3.49138 0
M  V30 14791 H 1365.8 -2.13227 3.11149 0
M  V30 14792 H 1368.19 -2.0496 2.1231 0
M  V30 14793 H 1368.27 -0.331059 2.53649 0
M  V30 14794 H 1367.92 -0.928198 4.99346 0
M  V30 14795 H 1367.85 -2.65207 4.54943 0
M  V30 14796 H 1370.34 -1.54364 3.44935 0
M  V30 14797 H 1370.65 -2.57562 7.28616 0
M  V30 14798 H 1368.99 -2.32288 6.55032 0
M  V30 14799 H 1372.19 -1.83487 4.30639 0
M  V30 14800 H 1372.36 -2.30568 6.05593 0
M  V30 14801 N 1365.76 -1.381 -0.759346 0
M  V30 14802 C 1367.01 -1.33992 -1.5183 0
M  V30 14803 C 1367.34 0.0718172 -1.94367 0
M  V30 14804 O 1366.59 1.0477 -1.65293 0
M  V30 14805 C 1366.89 -2.23636 -2.78786 0
M  V30 14806 C 1366.56 -3.71703 -2.5524 0
M  V30 14807 C 1365.22 -4.12053 -2.48528 0
M  V30 14808 C 1367.57 -4.65455 -2.34523 0
M  V30 14809 C 1364.9 -5.44252 -2.19105 0
M  V30 14810 C 1367.25 -5.97905 -2.06622 0
M  V30 14811 C 1365.92 -6.37345 -1.98362 0
M  V30 14812 H 1365.19 -0.490311 -0.555587 0
M  V30 14813 H 1367.83 -1.70411 -0.873637 0
M  V30 14814 H 1366.14 -1.80253 -3.47874 0
M  V30 14815 H 1367.84 -2.17764 -3.36719 0
M  V30 14816 H 1364.43 -3.3971 -2.61333 0
M  V30 14817 H 1368.61 -4.35132 -2.38691 0
M  V30 14818 H 1363.87 -5.73758 -2.11214 0
M  V30 14819 H 1368.04 -6.70095 -1.89594 0
M  V30 14820 H 1365.67 -7.39706 -1.75328 0
M  V30 14821 N 1367.24 0.986894 -1.22875 0
M  V30 14822 C 1368.19 2.09935 -1.00151 0
M  V30 14823 C 1369.18 1.69303 0.0573751 0
M  V30 14824 O 1370.39 1.79746 -0.0955781 0
M  V30 14825 H 1366.77 0.686605 -0.306721 0
M  V30 14826 H 1368.74 2.26271 -1.94535 0
M  V30 14827 C 1367.49 3.42442 -0.602374 0
M  V30 14828 H 1366.81 3.74154 -1.40886 0
M  V30 14829 H 1368.25 4.21242 -0.482836 0
M  V30 14830 C 1366.71 3.29785 0.688707 0
M  V30 14831 O 1367.24 3.6208 1.73957 0
M  V30 14832 N 1365.44 2.82956 0.662152 0
M  V30 14833 H 1364.99 2.56873 -0.193337 0
M  V30 14834 H 1364.95 2.74869 1.52625 0
M  V30 14835 N 1368.72 1.0394 1.18466 0
M  V30 14836 C 1369.95 0.761926 1.92897 0
M  V30 14837 C 1370.37 -0.674618 1.75586 0
M  V30 14838 O 1369.73 -1.46711 1.06515 0
M  V30 14839 C 1369.78 1.13152 3.42387 0
M  V30 14840 O 1368.88 0.256266 4.11603 0
M  V30 14841 H 1368.22 0.280527 0.601831 0
M  V30 14842 H 1370.75 1.3889 1.50235 0
M  V30 14843 H 1370.76 1.0929 3.9309 0
M  V30 14844 H 1369.44 2.17804 3.54308 0
M  V30 14845 H 1368.01 0.354392 3.71212 0
M  V30 14846 N 1370.2 -1.34667 0.818693 0
M  V30 14847 C 1371.11 -2.33375 0.239429 0
M  V30 14848 C 1372.12 -1.62428 -0.623957 0
M  V30 14849 O 1373.3 -1.94223 -0.532854 0
M  V30 14850 C 1370.37 -3.41598 -0.59258 0
M  V30 14851 C 1369.43 -4.28301 0.292712 0
M  V30 14852 C 1368.66 -5.31356 -0.499682 0
M  V30 14853 O 1368.88 -5.43426 -1.73334 0
M  V30 14854 O 1367.82 -6.01789 0.115778 0
M  V30 14855 H 1371.64 -2.84738 1.05631 0
M  V30 14856 H 1369.23 -1.37651 0.58074 0
M  V30 14857 H 1371.11 -4.07692 -1.06607 0
M  V30 14858 H 1369.78 -2.92486 -1.38685 0
M  V30 14859 H 1368.69 -3.65145 0.81361 0
M  V30 14860 H 1370.02 -4.80843 1.05123 0
M  V30 14861 N 1371.68 -0.573274 -1.46804 0
M  V30 14862 C 1372.93 -0.0530267 -2.0163 0
M  V30 14863 C 1373.24 1.31124 -1.45141 0
M  V30 14864 O 1374.44 1.92231 -1.91728 0
M  V30 14865 C 1372.9 -0.0442411 -3.59873 0
M  V30 14866 C 1372.51 -1.40625 -4.25357 0
M  V30 14867 C 1374.25 0.422556 -4.22392 0
M  V30 14868 C 1372.16 -1.3557 -5.75652 0
M  V30 14869 H 1371.09 -0.0160537 -0.753829 0
M  V30 14870 H 1373.74 -0.723518 -1.68634 0
M  V30 14871 H 1372.12 0.692225 -3.89903 0
M  V30 14872 H 1373.3 -2.1617 -4.06949 0
M  V30 14873 H 1371.61 -1.81229 -3.74893 0
M  V30 14874 H 1374.21 0.479021 -5.3255 0
M  V30 14875 H 1374.55 1.43806 -3.90673 0
M  V30 14876 H 1375.08 -0.259551 -3.96952 0
M  V30 14877 H 1371.82 -2.34772 -6.12015 0
M  V30 14878 H 1371.34 -0.642309 -5.96351 0
M  V30 14879 H 1373.02 -1.06458 -6.38182 0
M  V30 14880 N 1373.15 1.5451 -0.310553 0
M  V30 14881 C 1374.08 2.26827 0.554243 0
M  V30 14882 C 1375.07 1.27133 1.13009 0
M  V30 14883 O 1376.25 1.55923 1.15765 0
M  V30 14884 C 1373.38 3.01626 1.7216 0
M  V30 14885 C 1372.33 4.08547 1.27566 0
M  V30 14886 C 1371.66 4.71115 2.52893 0
M  V30 14887 C 1372.96 5.20766 0.399955 0
M  V30 14888 H 1374.65 2.9936 -0.0489475 0
M  V30 14889 H 1372.2 1.43978 -0.0249817 0
M  V30 14890 H 1374.15 3.50942 2.33276 0
M  V30 14891 H 1372.88 2.26688 2.35118 0
M  V30 14892 H 1371.54 3.60096 0.687499 0
M  V30 14893 H 1371.18 3.92805 3.14186 0
M  V30 14894 H 1370.88 5.43331 2.23752 0
M  V30 14895 H 1372.41 5.23198 3.14796 0
M  V30 14896 H 1373.82 5.65918 0.917054 0
M  V30 14897 H 1372.22 5.9976 0.2019 0
M  V30 14898 H 1373.29 4.81508 -0.572537 0
M  V30 14899 N 1374.63 0.0384594 1.57553 0
M  V30 14900 C 1375.87 -0.642187 1.9405 0
M  V30 14901 C 1376.24 -1.68753 0.915779 0
M  V30 14902 O 1377.44 -2.42133 1.16726 0
M  V30 14903 C 1375.71 -1.23422 3.35413 0
M  V30 14904 S 1377.27 -1.93464 3.93849 0
M  V30 14905 H 1374.09 -0.211198 0.678908 0
M  V30 14906 H 1376.69 0.104358 1.95221 0
M  V30 14907 H 1375.39 -0.461112 4.07801 0
M  V30 14908 H 1374.92 -2.01787 3.37707 0
M  V30 14909 H 1376.94 -3.21401 3.78042 0
M  V30 14910 N 1376.11 -1.55841 -0.234795 0
M  V30 14911 C 1377.07 -1.9051 -1.2743 0
M  V30 14912 C 1378.07 -0.782543 -1.40474 0
M  V30 14913 O 1379.26 -1.05043 -1.38966 0
M  V30 14914 C 1376.4 -2.14424 -2.65019 0
M  V30 14915 H 1377.59 -2.83471 -0.979003 0
M  V30 14916 H 1375.14 -1.48919 -0.47463 0
M  V30 14917 H 1375.88 -1.23972 -2.99669 0
M  V30 14918 H 1375.66 -2.96191 -2.56931 0
M  V30 14919 H 1377.15 -2.42388 -3.40056 0
M  V30 14920 N 1377.59 0.500963 -1.49426 0
M  V30 14921 C 1378.55 1.58478 -1.65582 0
M  V30 14922 C 1379.55 1.51897 -0.52762 0
M  V30 14923 O 1380.74 1.55049 -0.794071 0
M  V30 14924 C 1377.87 2.9813 -1.65322 0
M  V30 14925 H 1379.07 1.45483 -2.6225 0
M  V30 14926 H 1376.62 0.725199 -1.38458 0
M  V30 14927 H 1377.36 3.16602 -0.702384 0
M  V30 14928 H 1377.14 3.04315 -2.47255 0
M  V30 14929 H 1378.63 3.76874 -1.79878 0
M  V30 14930 N 1379.07 1.38501 0.752011 0
M  V30 14931 C 1380 1.38577 1.87933 0
M  V30 14932 C 1380.98 0.251454 1.68231 0
M  V30 14933 O 1382.16 0.45477 1.888 0
M  V30 14934 C 1379.29 1.21164 3.25479 0
M  V30 14935 C 1378.25 2.31816 3.59785 0
M  V30 14936 C 1377.57 1.99508 4.96085 0
M  V30 14937 C 1378.87 3.74082 3.645 0
M  V30 14938 H 1380.57 2.32913 1.88127 0
M  V30 14939 H 1378.11 1.12113 0.903698 0
M  V30 14940 H 1380.07 1.19842 4.04 0
M  V30 14941 H 1378.79 0.232899 3.25769 0
M  V30 14942 H 1377.45 2.32327 2.83584 0
M  V30 14943 H 1377.1 1.00114 4.92936 0
M  V30 14944 H 1376.8 2.73617 5.20007 0
M  V30 14945 H 1378.32 1.99807 5.76983 0
M  V30 14946 H 1379.74 3.75593 4.33131 0
M  V30 14947 H 1378.13 4.47409 3.99931 0
M  V30 14948 H 1379.2 4.06284 2.64692 0
M  V30 14949 N 1380.55 -0.980364 1.23396 0
M  V30 14950 C 1381.79 -1.72501 1.07772 0
M  V30 14951 C 1382.15 -1.88581 -0.381434 0
M  V30 14952 O 1381.44 -1.42702 -1.27854 0
M  V30 14953 C 1381.63 -3.12367 1.73671 0
M  V30 14954 C 1381.46 -3.09928 3.25844 0
M  V30 14955 C 1380.23 -3.15117 3.95006 0
M  V30 14956 C 1382.43 -2.93093 4.22612 0
M  V30 14957 N 1380.41 -3.02564 5.34161 0
M  V30 14958 C 1381.78 -2.88703 5.48681 0
M  V30 14959 C 1383.84 -2.77578 4.13346 0
M  V30 14960 C 1382.54 -2.70386 6.66546 0
M  V30 14961 C 1384.57 -2.60625 5.30875 0
M  V30 14962 C 1383.93 -2.56933 6.55869 0
M  V30 14963 H 1380.03 -0.640325 0.448897 0
M  V30 14964 H 1382.61 -1.16332 1.56125 0
M  V30 14965 H 1380.78 -3.66754 1.27851 0
M  V30 14966 H 1382.52 -3.75465 1.51023 0
M  V30 14967 H 1379.27 -3.23298 3.46086 0
M  V30 14968 H 1379.69 -2.99563 6.07117 0
M  V30 14969 H 1384.34 -2.79223 3.17481 0
M  V30 14970 H 1382.05 -2.67486 7.62546 0
M  V30 14971 H 1385.64 -2.49584 5.25547 0
M  V30 14972 H 1384.52 -2.43979 7.45281 0
M  V30 14973 N 1382.02 -1.04567 -1.17913 0
M  V30 14974 C 1383.27 -0.750538 -1.87647 0
M  V30 14975 C 1383.59 0.72423 -1.81052 0
M  V30 14976 O 1382.86 1.52292 -1.23223 0
M  V30 14977 H 1381.44 -0.274636 -0.694683 0
M  V30 14978 H 1384.1 -1.32349 -1.43072 0
M  V30 14979 H 1383.2 -1.05987 -2.93553 0
M  V30 14980 N 1383.5 1.34231 -0.825823 0
M  V30 14981 C 1384.75 1.9849 -0.415891 0
M  V30 14982 C 1385.08 1.6531 1.01913 0
M  V30 14983 O 1384.36 0.926223 1.7103 0
M  V30 14984 C 1384.64 3.54691 -0.621785 0
M  V30 14985 C 1384.49 3.97603 -2.10313 0
M  V30 14986 C 1385.81 4.4006 -0.0595871 0
M  V30 14987 H 1382.93 0.721032 -0.152582 0
M  V30 14988 H 1385.57 1.5908 -1.03892 0
M  V30 14989 H 1383.72 3.88392 -0.0914439 0
M  V30 14990 H 1385.39 3.74221 -2.69733 0
M  V30 14991 H 1383.64 3.47809 -2.59251 0
M  V30 14992 H 1384.31 5.06352 -2.19799 0
M  V30 14993 H 1386.78 4.12929 -0.512743 0
M  V30 14994 H 1385.66 5.48403 -0.233431 0
M  V30 14995 H 1385.92 4.29798 1.03568 0
M  V30 14996 N 1384.98 0.581051 1.46498 0
M  V30 14997 C 1385.93 -0.165944 2.32007 0
M  V30 14998 C 1386.92 -0.886015 1.44382 0
M  V30 14999 O 1388.13 -0.804592 1.61017 0
M  V30 15000 H 1384.5 -0.0723834 0.748508 0
M  V30 15001 H 1386.47 0.574089 2.92826 0
M  V30 15002 C 1385.22 -1.16741 3.27516 0
M  V30 15003 H 1384.55 -0.622756 3.9492 0
M  V30 15004 H 1385.99 -1.66052 3.90132 0
M  V30 15005 C 1384.44 -2.22755 2.52749 0
M  V30 15006 O 1384.97 -3.30081 2.28932 0
M  V30 15007 N 1383.18 -1.97318 2.1334 0
M  V30 15008 H 1382.73 -1.10049 2.3291 0
M  V30 15009 H 1382.69 -2.68461 1.63633 0
M  V30 15010 N 1386.46 -1.54343 0.318742 0
M  V30 15011 C 1387.39 -2.27118 -0.542206 0
M  V30 15012 C 1388.37 -1.27731 -1.12334 0
M  V30 15013 O 1389.55 -1.56535 -1.14937 0
M  V30 15014 C 1386.68 -3.02535 -1.70558 0
M  V30 15015 C 1385.64 -4.09218 -1.25398 0
M  V30 15016 C 1384.96 -4.72449 -2.50391 0
M  V30 15017 C 1386.26 -5.20971 -0.372332 0
M  V30 15018 H 1387.96 -2.9933 0.0648226 0
M  V30 15019 H 1385.5 -1.43963 0.0326168 0
M  V30 15020 H 1387.46 -3.52174 -2.31412 0
M  V30 15021 H 1386.18 -2.27931 -2.33912 0
M  V30 15022 H 1384.84 -3.60455 -0.668392 0
M  V30 15023 H 1384.49 -3.94466 -3.12099 0
M  V30 15024 H 1384.19 -5.4451 -2.20868 0
M  V30 15025 H 1385.71 -5.2486 -3.12016 0
M  V30 15026 H 1387.13 -5.66396 -0.887029 0
M  V30 15027 H 1385.52 -5.99859 -0.17009 0
M  V30 15028 H 1386.59 -4.81198 0.598064 0
M  V30 15029 N 1387.94 -0.0468143 -1.5753 0
M  V30 15030 C 1388.87 0.927092 -2.14306 0
M  V30 15031 C 1389.85 1.32745 -1.06362 0
M  V30 15032 O 1391.03 1.40293 -1.34281 0
M  V30 15033 C 1388.16 2.20343 -2.68452 0
M  V30 15034 C 1387.12 1.94328 -3.81341 0
M  V30 15035 C 1386.44 3.28379 -4.21985 0
M  V30 15036 C 1387.74 1.26835 -5.06666 0
M  V30 15037 H 1389.44 0.454199 -2.95935 0
M  V30 15038 H 1386.98 0.217029 -1.42355 0
M  V30 15039 H 1388.93 2.8887 -3.0681 0
M  V30 15040 H 1387.66 2.6983 -1.84009 0
M  V30 15041 H 1386.32 1.28214 -3.43448 0
M  V30 15042 H 1385.97 3.75658 -3.34499 0
M  V30 15043 H 1385.67 3.11772 -4.98068 0
M  V30 15044 H 1387.19 3.98145 -4.6294 0
M  V30 15045 H 1388.6 1.85389 -5.42498 0
M  V30 15046 H 1387 1.20569 -5.87863 0
M  V30 15047 H 1388.07 0.243759 -4.84287 0
M  V30 15048 N 1389.41 1.55964 0.226527 0
M  V30 15049 C 1390.66 1.7901 0.95306 0
M  V30 15050 C 1390.99 0.615608 1.84184 0
M  V30 15051 O 1390.27 -0.385341 1.90645 0
M  V30 15052 C 1390.55 3.12101 1.79624 0
M  V30 15053 C 1390.4 4.3999 0.934286 0
M  V30 15054 C 1391.72 3.4159 2.77496 0
M  V30 15055 H 1388.84 0.651236 0.345052 0
M  V30 15056 H 1391.48 1.88696 0.222236 0
M  V30 15057 H 1389.63 3.03975 2.41933 0
M  V30 15058 H 1391.31 4.6013 0.328328 0
M  V30 15059 H 1389.55 4.33138 0.239487 0
M  V30 15060 H 1390.22 5.29541 1.55853 0
M  V30 15061 H 1392.7 3.49812 2.25323 0
M  V30 15062 H 1391.57 4.35894 3.33599 0
M  V30 15063 H 1391.83 2.6351 3.54986 0
M  V30 15064 N 1390.89 -0.493031 1.4969 0
M  V30 15065 C 1392.14 -1.24418 1.59263 0
M  V30 15066 C 1392.46 -1.92908 0.284882 0
M  V30 15067 O 1391.73 -1.83108 -0.696302 0
M  V30 15068 H 1390.31 -0.462223 0.586821 0
M  V30 15069 H 1392.97 -0.570713 1.86357 0
M  V30 15070 H 1392.07 -2.00386 2.39274 0
M  V30 15071 N 1392.37 -1.38898 -0.744656 0
M  V30 15072 C 1393.6 -1.38848 -1.53391 0
M  V30 15073 C 1394.01 0.0194949 -1.8879 0
M  V30 15074 O 1393.37 0.988399 -1.53417 0
M  V30 15075 C 1393.42 -2.25243 -2.8275 0
M  V30 15076 O 1393.14 -3.60557 -2.48858 0
M  V30 15077 C 1394.64 -2.33471 -3.76837 0
M  V30 15078 H 1391.86 -0.4746 -0.474338 0
M  V30 15079 H 1394.41 -1.82591 -0.920902 0
M  V30 15080 H 1392.56 -1.84938 -3.40407 0
M  V30 15081 H 1392.98 -4.06142 -3.31887 0
M  V30 15082 H 1394.45 -2.9819 -4.64528 0
M  V30 15083 H 1394.93 -1.351 -4.17905 0
M  V30 15084 H 1395.53 -2.74205 -3.25103 0
M  V30 15085 N 1393.85 0.973806 -1.23914 0
M  V30 15086 C 1394.76 2.10138 -1.04304 0
M  V30 15087 C 1395.77 1.73994 0.0143888 0
M  V30 15088 O 1396.95 2.00572 -0.182481 0
M  V30 15089 C 1394.02 3.40673 -0.643639 0
M  V30 15090 C 1393.08 3.90802 -1.77686 0
M  V30 15091 C 1392.31 5.15108 -1.39642 0
M  V30 15092 O 1392.53 5.69695 -0.283546 0
M  V30 15093 O 1391.47 5.59468 -2.21988 0
M  V30 15094 H 1395.29 2.29574 -1.9882 0
M  V30 15095 H 1392.88 1.08524 -1.02679 0
M  V30 15096 H 1394.76 4.19178 -0.432145 0
M  V30 15097 H 1393.43 3.22551 0.272458 0
M  V30 15098 H 1392.34 3.13385 -2.04305 0
M  V30 15099 H 1393.67 4.1339 -2.67151 0
M  V30 15100 N 1395.33 1.05191 1.17357 0
M  V30 15101 C 1396.55 0.782343 1.92079 0
M  V30 15102 C 1396.98 -0.655957 1.76292 0
M  V30 15103 O 1396.33 -1.45573 1.08065 0
M  V30 15104 C 1396.38 1.16777 3.41168 0
M  V30 15105 O 1395.49 0.299908 4.11308 0
M  V30 15106 H 1394.83 0.286894 0.598822 0
M  V30 15107 H 1397.36 1.40476 1.48754 0
M  V30 15108 H 1397.37 1.13454 3.91909 0
M  V30 15109 H 1396.04 2.2155 3.51978 0
M  V30 15110 H 1394.62 0.393744 3.70815 0
M  V30 15111 N 1396.8 -1.33791 0.83293 0
M  V30 15112 C 1398.05 -1.97582 0.42494 0
M  V30 15113 C 1398.37 -1.66328 -1.01784 0
M  V30 15114 O 1397.64 -0.959141 -1.70814 0
M  V30 15115 H 1396.22 -0.730923 0.154143 0
M  V30 15116 H 1398.89 -1.63257 1.06458 0
M  V30 15117 H 1397.98 -3.07177 0.552127 0
M  V30 15118 N 1398.28 -0.588812 -1.46187 0
M  V30 15119 C 1399.21 0.128595 -2.33146 0
M  V30 15120 C 1400.19 0.877608 -1.45712 0
M  V30 15121 O 1401.38 0.851866 -1.74519 0
M  V30 15122 C 1398.51 1.13886 -3.28096 0
M  V30 15123 C 1397.46 0.504296 -4.25019 0
M  V30 15124 C 1396.79 1.62147 -5.09522 0
M  V30 15125 C 1398.09 -0.562466 -5.19263 0
M  V30 15126 H 1399.78 -0.597455 -2.93378 0
M  V30 15127 H 1397.33 -0.288764 -1.41075 0
M  V30 15128 H 1399.28 1.64916 -3.8779 0
M  V30 15129 H 1398.01 1.89527 -2.65983 0
M  V30 15130 H 1396.66 0.0150325 -3.66597 0
M  V30 15131 H 1396.31 2.36769 -4.4379 0
M  V30 15132 H 1396.01 1.20249 -5.75164 0
M  V30 15133 H 1397.54 2.13441 -5.7208 0
M  V30 15134 H 1398.95 -0.137003 -5.73136 0
M  V30 15135 H 1397.35 -0.902115 -5.93281 0
M  V30 15136 H 1398.42 -1.4464 -4.62825 0
M  V30 15137 N 1399.76 1.54172 -0.326923 0
M  V30 15138 C 1400.69 2.20703 0.580137 0
M  V30 15139 C 1401.67 1.18523 1.11315 0
M  V30 15140 O 1402.86 1.47276 1.17652 0
M  V30 15141 C 1399.98 2.87137 1.79638 0
M  V30 15142 C 1399.03 4.03064 1.39432 0
M  V30 15143 S 1399.86 5.33785 0.428179 0
M  V30 15144 C 1401.02 6.03715 1.65163 0
M  V30 15145 H 1401.25 2.97296 0.0149964 0
M  V30 15146 H 1398.78 1.54 -0.111004 0
M  V30 15147 H 1400.74 3.26035 2.49423 0
M  V30 15148 H 1399.4 2.1034 2.33272 0
M  V30 15149 H 1398.6 4.48424 2.3007 0
M  V30 15150 H 1398.2 3.65858 0.776144 0
M  V30 15151 H 1400.49 6.26098 2.58858 0
M  V30 15152 H 1401.43 6.97156 1.24014 0
M  V30 15153 H 1401.84 5.33666 1.84014 0
M  V30 15154 N 1401.24 0.0551678 1.57503 0
M  V30 15155 C 1402.17 -0.915714 2.14795 0
M  V30 15156 C 1403.15 -1.32179 1.07065 0
M  V30 15157 O 1404.33 -1.39579 1.35023 0
M  V30 15158 C 1401.46 -2.18916 2.69616 0
M  V30 15159 C 1400.42 -1.92303 3.82366 0
M  V30 15160 C 1399.74 -3.26136 4.23721 0
M  V30 15161 C 1401.04 -1.24146 5.07331 0
M  V30 15162 H 1402.74 -0.438499 2.96171 0
M  V30 15163 H 1400.28 -0.209477 1.42468 0
M  V30 15164 H 1402.24 -2.87239 3.08337 0
M  V30 15165 H 1400.96 -2.6885 1.85437 0
M  V30 15166 H 1399.62 -1.26391 3.44123 0
M  V30 15167 H 1399.27 -3.73879 3.36487 0
M  V30 15168 H 1398.97 -3.09126 4.99715 0
M  V30 15169 H 1400.49 -3.95684 4.65045 0
M  V30 15170 H 1401.91 -1.8251 5.43473 0
M  V30 15171 H 1400.3 -1.17449 5.88494 0
M  V30 15172 H 1401.37 -0.218073 4.84409 0
M  V30 15173 N 1402.72 -1.56081 -0.218252 0
M  V30 15174 C 1403.65 -1.95706 -1.27364 0
M  V30 15175 C 1404.63 -0.825731 -1.48713 0
M  V30 15176 O 1405.81 -1.08829 -1.60841 0
M  V30 15177 C 1402.94 -2.2766 -2.62275 0
M  V30 15178 C 1401.9 -3.43314 -2.55576 0
M  V30 15179 C 1401.22 -3.60883 -3.94547 0
M  V30 15180 C 1402.52 -4.7819 -2.10075 0
M  V30 15181 H 1404.22 -2.84113 -0.944459 0
M  V30 15182 H 1401.76 -1.36693 -0.452882 0
M  V30 15183 H 1403.72 -2.53973 -3.36268 0
M  V30 15184 H 1402.44 -1.3611 -2.96887 0
M  V30 15185 H 1401.1 -3.17056 -1.8404 0
M  V30 15186 H 1400.75 -2.66703 -4.26472 0
M  V30 15187 H 1400.45 -4.38674 -3.90946 0
M  V30 15188 H 1401.97 -3.89547 -4.70197 0
M  V30 15189 H 1403.38 -5.03686 -2.73813 0
M  V30 15190 H 1401.78 -5.59287 -2.17527 0
M  V30 15191 H 1402.85 -4.73325 -1.05314 0
M  V30 15192 N 1404.2 0.485086 -1.49949 0
M  V30 15193 C 1405.47 1.24639 -1.50747 0
M  V30 15194 C 1405.85 2.09683 -0.244162 0
M  V30 15195 O 1405.2 2.1503 0.772949 0
M  V30 15196 C 1405.41 2.08946 -2.7954 0
M  V30 15197 C 1406.76 2.67604 -3.29656 0
M  V30 15198 O 1407.78 2.192 -2.80766 0
M  V30 15199 O 1406.64 3.55761 -4.14845 0
M  V30 15200 H 1403.74 0.564849 -0.604049 0
M  V30 15201 H 1406.28 0.498052 -1.62227 0
M  V30 15202 H 1405.05 1.46185 -3.62968 0
M  V30 15203 H 1404.68 2.90941 -2.70997 0
M  V30 15204 N 1405.67 1.39291 0.737279 0
M  V30 15205 C 1407.09 1.20845 1.04253 0
M  V30 15206 C 1407.29 0.0684513 2.01384 0
M  V30 15207 O 1406.35 -0.580615 2.45734 0
M  V30 15208 C 1407.66 2.54158 1.60699 0
M  V30 15209 C 1409.21 2.60983 1.72791 0
M  V30 15210 C 1409.68 3.94511 2.32647 0
M  V30 15211 N 1411.17 3.96138 2.4006 0
M  V30 15212 C 1411.91 4.96229 2.87306 0
M  V30 15213 N 1411.4 6.06716 3.34465 0
M  V30 15214 N 1413.2 4.83609 2.86494 0
M  V30 15215 H 1405.35 2.12196 0.0930416 0
M  V30 15216 H 1407.61 0.942289 0.103899 0
M  V30 15217 H 1407.32 3.38118 0.96795 0
M  V30 15218 H 1407.19 2.73715 2.59538 0
M  V30 15219 H 1409.58 1.77408 2.35818 0
M  V30 15220 H 1409.66 2.45278 0.726118 0
M  V30 15221 H 1409.3 4.78516 1.70249 0
M  V30 15222 H 1409.23 4.07536 3.33499 0
M  V30 15223 H 1411.72 3.16344 2.06725 0
M  V30 15224 H 1412.04 6.79002 3.6902 0
M  V30 15225 H 1410.38 6.10313 3.3248 0
M  V30 15226 H 1413.57 3.96396 2.48973 0
M  V30 15227 H 1413.75 5.6176 3.23001 0
M  V30 15228 N 1407.15 -0.967221 1.24429 0
M  V30 15229 C 1408.38 -1.75053 1.11226 0
M  V30 15230 C 1408.8 -1.85162 -0.331139 0
M  V30 15231 O 1408.16 -1.32288 -1.23974 0
M  V30 15232 C 1408.21 -3.14882 1.75733 0
M  V30 15233 O 1407.31 -3.99371 1.02842 0
M  V30 15234 H 1406.65 -0.538078 0.389061 0
M  V30 15235 H 1409.18 -1.21325 1.64746 0
M  V30 15236 H 1409.19 -3.65402 1.81509 0
M  V30 15237 H 1407.87 -3.06839 2.80754 0
M  V30 15238 H 1406.44 -3.57854 1.04856 0
M  V30 15239 N 1408.63 -1.05812 -1.16797 0
M  V30 15240 C 1409.88 -0.770398 -1.8684 0
M  V30 15241 C 1410.2 0.704986 -1.8181 0
M  V30 15242 O 1409.47 1.50977 -1.24832 0
M  V30 15243 H 1408.05 -0.281989 -0.691731 0
M  V30 15244 H 1410.71 -1.33859 -1.41661 0
M  V30 15245 H 1409.81 -1.09094 -2.92412 0
M  V30 15246 N 1410.11 1.33347 -0.840014 0
M  V30 15247 C 1411.04 2.28029 -0.231432 0
M  V30 15248 C 1412.05 1.51792 0.588488 0
M  V30 15249 O 1413.24 1.736 0.415371 0
M  V30 15250 C 1410.34 3.31745 0.692721 0
M  V30 15251 C 1409.51 4.37311 -0.0881144 0
M  V30 15252 C 1408.57 5.20689 0.759557 0
M  V30 15253 O 1407.6 5.68854 0.198347 0
M  V30 15254 N 1408.8 5.42082 2.07672 0
M  V30 15255 H 1411.57 2.80893 -1.04495 0
M  V30 15256 H 1409.13 1.46053 -0.698586 0
M  V30 15257 H 1411.12 3.84428 1.2648 0
M  V30 15258 H 1409.69 2.79148 1.40695 0
M  V30 15259 H 1408.91 3.85112 -0.841579 0
M  V30 15260 H 1410.2 5.04947 -0.624986 0
M  V30 15261 H 1409.6 5.04654 2.55619 0
M  V30 15262 H 1408.15 5.97817 2.59726 0
M  V30 15263 N 1411.59 0.596556 1.45873 0
M  V30 15264 C 1412.83 0.0872856 2.01911 0
M  V30 15265 C 1413.15 -1.28257 1.46885 0
M  V30 15266 O 1412.42 -1.84489 0.658837 0
M  V30 15267 H 1411 0.0292769 0.746426 0
M  V30 15268 H 1413.67 0.775464 1.78809 0
M  V30 15269 H 1412.76 0.0287213 3.12087 0
M  V30 15270 N 1413.06 -1.53996 0.335095 0
M  V30 15271 C 1414.01 -2.24736 -0.52559 0
M  V30 15272 C 1414.98 -1.24244 -1.10239 0
M  V30 15273 O 1416.17 -1.52955 -1.14058 0
M  V30 15274 C 1413.31 -3.01732 -1.67487 0
M  V30 15275 C 1412.42 -4.17062 -1.1262 0
M  V30 15276 C 1411.55 -4.81563 -2.2421 0
M  V30 15277 C 1410.59 -5.88977 -1.6665 0
M  V30 15278 N 1409.73 -6.47293 -2.71949 0
M  V30 15279 H 1414.57 -2.97881 0.0842008 0
M  V30 15280 H 1412.11 -1.47003 0.0533254 0
M  V30 15281 H 1414.06 -3.44626 -2.35135 0
M  V30 15282 H 1412.69 -2.30899 -2.25578 0
M  V30 15283 H 1411.75 -3.78869 -0.340917 0
M  V30 15284 H 1413.06 -4.94346 -0.665113 0
M  V30 15285 H 1412.21 -5.27486 -2.9974 0
M  V30 15286 H 1410.95 -4.03685 -2.73659 0
M  V30 15287 H 1409.96 -5.42446 -0.89623 0
M  V30 15288 H 1411.18 -6.68758 -1.18064 0
M  V30 15289 H 1409.13 -5.72283 -3.20668 0
M  V30 15290 H 1409.04 -7.20024 -2.30438 0
M  V30 15291 H 1410.31 -6.97869 -3.47273 0
M  V30 15292 N 1414.54 -0.0635198 -1.57472 0
M  V30 15293 C 1415.79 0.608384 -1.93459 0
M  V30 15294 C 1416.12 1.6976 -0.943141 0
M  V30 15295 O 1415.4 1.94478 0.0289567 0
M  V30 15296 C 1415.68 1.19302 -3.39763 0
M  V30 15297 C 1415.53 0.11102 -4.49663 0
M  V30 15298 C 1416.85 2.101 -3.86712 0
M  V30 15299 H 1413.97 0.219688 -0.703496 0
M  V30 15300 H 1416.61 -0.127803 -1.8957 0
M  V30 15301 H 1414.76 1.82044 -3.43209 0
M  V30 15302 H 1416.43 -0.521606 -4.58342 0
M  V30 15303 H 1414.68 -0.559408 -4.30178 0
M  V30 15304 H 1415.35 0.560332 -5.49149 0
M  V30 15305 H 1417.82 1.57305 -3.8522 0
M  V30 15306 H 1416.7 2.47945 -4.89708 0
M  V30 15307 H 1416.96 3.00603 -3.24177 0
M  V30 15308 N 1416.02 1.56195 0.209972 0
M  V30 15309 C 1417.25 1.83574 0.947852 0
M  V30 15310 C 1417.66 0.641947 1.77977 0
M  V30 15311 O 1417 -0.398794 1.79319 0
M  V30 15312 C 1417.06 3.0485 1.90543 0
M  V30 15313 C 1416.73 4.39375 1.25692 0
M  V30 15314 C 1417.72 5.15932 0.641107 0
M  V30 15315 C 1415.41 4.86104 1.26522 0
M  V30 15316 C 1417.4 6.37386 0.0422484 0
M  V30 15317 C 1415.09 6.07498 0.662523 0
M  V30 15318 C 1416.09 6.8298 0.0521007 0
M  V30 15319 O 1415.78 8.02076 -0.541192 0
M  V30 15320 H 1415.51 0.614001 0.282805 0
M  V30 15321 H 1418.06 2.04144 0.226767 0
M  V30 15322 H 1416.29 2.80127 2.66582 0
M  V30 15323 H 1417.98 3.19001 2.50984 0
M  V30 15324 H 1418.75 4.80931 0.626938 0
M  V30 15325 H 1414.63 4.27318 1.72974 0
M  V30 15326 H 1418.17 6.96244 -0.434823 0
M  V30 15327 H 1414.07 6.4197 0.674144 0
M  V30 15328 H 1414.83 8.17335 -0.43664 0
M  V30 15329 N 1417.5 -0.477127 1.50204 0
M  V30 15330 C 1418.91 -1.05815 1.53819 0
M  V30 15331 C 1419.26 -1.93264 0.338169 0
M  V30 15332 O 1418.38 -2.09305 -0.549576 0
M  V30 15333 C 1418.98 -1.92577 2.78746 0
M  V30 15334 C 1417.54 -2.45799 2.85061 0
M  V30 15335 C 1416.69 -1.23994 2.48034 0
M  V30 15336 H 1419.64 -0.259998 1.56556 0
M  V30 15337 H 1419.66 -2.7757 2.6026 0
M  V30 15338 H 1419.17 -1.28904 3.66068 0
M  V30 15339 H 1417.27 -3.13042 2.02077 0
M  V30 15340 H 1417.38 -2.81318 3.8781 0
M  V30 15341 H 1415.75 -1.5728 2.00338 0
M  V30 15342 H 1416.53 -0.619917 3.37657 0
M  V30 15343 N 1418.98 -1.3968 -0.729882 0
M  V30 15344 C 1419.91 -1.41549 -1.85704 0
M  V30 15345 C 1420.89 -0.278186 -1.6781 0
M  V30 15346 O 1422.07 -0.484749 -1.88053 0
M  V30 15347 C 1419.2 -1.26327 -3.2351 0
M  V30 15348 C 1418.16 -2.37511 -3.56051 0
M  V30 15349 C 1417.48 -2.07375 -4.92849 0
M  V30 15350 C 1418.78 -3.79833 -3.58502 0
M  V30 15351 H 1420.48 -2.35877 -1.84398 0
M  V30 15352 H 1418.02 -1.13536 -0.885747 0
M  V30 15353 H 1419.98 -1.26254 -4.02042 0
M  V30 15354 H 1418.7 -0.284697 -3.25357 0
M  V30 15355 H 1417.36 -2.36809 -2.79852 0
M  V30 15356 H 1417.01 -1.07943 -4.91281 0
M  V30 15357 H 1416.71 -2.81855 -5.15588 0
M  V30 15358 H 1418.23 -2.08961 -5.73731 0
M  V30 15359 H 1419.64 -3.82436 -4.27101 0
M  V30 15360 H 1418.04 -4.53715 -3.92763 0
M  V30 15361 H 1419.11 -4.10443 -2.58195 0
M  V30 15362 N 1420.45 0.960609 -1.2494 0
M  V30 15363 C 1421.7 1.69884 -1.08731 0
M  V30 15364 C 1422.02 1.92018 0.372602 0
M  V30 15365 O 1423.22 2.6348 0.655018 0
M  V30 15366 C 1421.68 3.05815 -1.8975 0
M  V30 15367 C 1421.29 2.91498 -3.40196 0
M  V30 15368 C 1423.03 3.83462 -1.82092 0
M  V30 15369 C 1420.94 4.22783 -4.13532 0
M  V30 15370 H 1419.87 0.637087 -0.403281 0
M  V30 15371 H 1422.52 1.06987 -1.49084 0
M  V30 15372 H 1420.9 3.69582 -1.42216 0
M  V30 15373 H 1422.07 2.367 -3.9536 0
M  V30 15374 H 1420.39 2.27312 -3.48882 0
M  V30 15375 H 1422.99 4.8069 -2.34181 0
M  V30 15376 H 1423.33 4.08782 -0.787597 0
M  V30 15377 H 1423.86 3.26435 -2.27344 0
M  V30 15378 H 1420.6 4.02653 -5.17253 0
M  V30 15379 H 1420.12 4.77369 -3.63152 0
M  V30 15380 H 1421.8 4.91361 -4.2092 0
M  V30 15381 N 1421.93 1.0643 1.16234 0
M  V30 15382 C 1422.88 0.670457 2.22728 0
M  V30 15383 C 1423.87 -0.31428 1.66459 0
M  V30 15384 O 1425.08 -0.178996 1.79108 0
M  V30 15385 H 1421.46 0.198692 0.725276 0
M  V30 15386 H 1423.43 1.57846 2.53233 0
M  V30 15387 C 1422.18 0.074379 3.4762 0
M  V30 15388 H 1421.5 0.823227 3.91233 0
M  V30 15389 H 1422.94 -0.163652 4.23684 0
M  V30 15390 C 1421.4 -1.18242 3.15469 0
M  V30 15391 O 1421.93 -2.27018 3.314 0
M  V30 15392 N 1420.13 -1.08493 2.69588 0
M  V30 15393 H 1419.68 -0.199714 2.56825 0
M  V30 15394 H 1419.64 -1.92666 2.48449 0
M  V30 15395 N 1423.41 -1.329 0.847073 0
M  V30 15396 C 1424.83 -1.50333 0.53593 0
M  V30 15397 C 1425.03 -1.78492 -0.93504 0
M  V30 15398 O 1424.08 -1.85001 -1.71846 0
M  V30 15399 C 1425.4 -2.65254 1.41636 0
M  V30 15400 C 1426.94 -2.79139 1.416 0
M  V30 15401 C 1427.42 -3.97131 2.28147 0
M  V30 15402 N 1428.91 -4.0438 2.25901 0
M  V30 15403 C 1429.64 -4.94893 2.89601 0
M  V30 15404 N 1429.14 -5.90466 3.62383 0
M  V30 15405 N 1430.93 -4.87955 2.79028 0
M  V30 15406 H 1423.08 -1.12886 1.79918 0
M  V30 15407 H 1425.35 -0.555707 0.768045 0
M  V30 15408 H 1425.05 -2.51151 2.46203 0
M  V30 15409 H 1424.93 -3.60856 1.09829 0
M  V30 15410 H 1427.31 -2.92669 0.378013 0
M  V30 15411 H 1427.4 -1.84273 1.77418 0
M  V30 15412 H 1427.04 -3.8436 3.32009 0
M  V30 15413 H 1426.97 -4.91258 1.89665 0
M  V30 15414 H 1429.46 -3.35986 1.72979 0
M  V30 15415 H 1429.77 -6.56212 4.08174 0
M  V30 15416 H 1428.12 -5.90516 3.66491 0
M  V30 15417 H 1431.31 -4.12258 2.21723 0
M  V30 15418 H 1431.48 -5.58295 3.28954 0
M  V30 15419 N 1424.89 -0.604284 -1.45555 0
M  V30 15420 C 1426.3 -0.267665 -1.57339 0
M  V30 15421 C 1426.5 1.22984 -1.59616 0
M  V30 15422 O 1425.56 2.0127 -1.52468 0
M  V30 15423 C 1426.87 -0.935923 -2.85764 0
M  V30 15424 C 1428.42 -0.911531 -2.99433 0
M  V30 15425 C 1428.9 -1.55974 -4.30623 0
M  V30 15426 N 1430.39 -1.52507 -4.37374 0
M  V30 15427 C 1431.12 -1.9958 -5.37546 0
M  V30 15428 N 1430.62 -2.54724 -6.44273 0
M  V30 15429 N 1432.41 -1.90368 -5.28882 0
M  V30 15430 H 1424.56 -1.57666 -1.42321 0
M  V30 15431 H 1426.83 -0.66028 -0.680245 0
M  V30 15432 H 1426.53 -1.99022 -2.89971 0
M  V30 15433 H 1426.41 -0.457194 -3.74419 0
M  V30 15434 H 1428.79 0.134206 -2.94795 0
M  V30 15435 H 1428.87 -1.42849 -2.12197 0
M  V30 15436 H 1428.52 -2.60479 -4.3602 0
M  V30 15437 H 1428.45 -1.01782 -5.1667 0
M  V30 15438 H 1430.94 -1.12221 -3.60853 0
M  V30 15439 H 1431.25 -2.88445 -7.16951 0
M  V30 15440 H 1429.6 -2.58761 -6.45033 0
M  V30 15441 H 1432.79 -1.47029 -4.4441 0
M  V30 15442 H 1432.96 -2.27367 -6.06802 0
M  V30 15443 N 1426.37 1.53816 -0.343257 0
M  V30 15444 C 1427.78 1.59598 0.00867849 0
M  V30 15445 C 1427.98 1.35922 1.48753 0
M  V30 15446 O 1427.04 1.15334 2.2462 0
M  V30 15447 C 1428.35 2.97649 -0.427234 0
M  V30 15448 C 1429.9 3.1069 -0.379554 0
M  V30 15449 C 1430.37 4.51119 -0.79093 0
M  V30 15450 N 1431.87 4.57168 -0.745105 0
M  V30 15451 C 1432.6 5.63975 -1.03537 0
M  V30 15452 N 1432.1 6.78635 -1.39377 0
M  V30 15453 N 1433.89 5.53848 -0.959628 0
M  V30 15454 H 1426.04 1.6746 -1.30656 0
M  V30 15455 H 1428.3 0.784254 -0.532588 0
M  V30 15456 H 1428.01 3.2004 -1.45834 0
M  V30 15457 H 1427.88 3.76682 0.197704 0
M  V30 15458 H 1430.27 2.88024 0.642376 0
M  V30 15459 H 1430.35 2.33718 -1.03969 0
M  V30 15460 H 1430 4.74521 -1.81087 0
M  V30 15461 H 1429.93 5.26489 -0.108274 0
M  V30 15462 H 1432.42 3.7483 -0.480752 0
M  V30 15463 H 1432.73 7.56053 -1.60011 0
M  V30 15464 H 1431.07 6.80083 -1.43222 0
M  V30 15465 H 1434.27 4.6315 -0.678974 0
M  V30 15466 H 1434.44 6.36995 -1.18919 0
M  V30 15467 N 1427.84 0.0718701 1.57436 0
M  V30 15468 C 1429.09 -0.597231 1.93493 0
M  V30 15469 C 1429.42 -1.69614 0.951906 0
M  V30 15470 O 1428.67 -1.95673 -0.0324554 0
M  V30 15471 C 1428.97 -1.21336 3.36173 0
M  V30 15472 C 1428.64 -0.240582 4.50258 0
M  V30 15473 C 1427.3 0.0270368 4.81192 0
M  V30 15474 C 1429.65 0.424924 5.19465 0
M  V30 15475 C 1426.98 0.967249 5.78672 0
M  V30 15476 C 1429.33 1.35346 6.17952 0
M  V30 15477 C 1428 1.62954 6.47304 0
M  V30 15478 H 1427.27 -0.218542 0.70804 0
M  V30 15479 H 1429.91 0.142762 1.90967 0
M  V30 15480 H 1428.22 -2.02909 3.35164 0
M  V30 15481 H 1429.92 -1.73836 3.61361 0
M  V30 15482 H 1426.51 -0.459352 4.26131 0
M  V30 15483 H 1430.69 0.231285 4.95761 0
M  V30 15484 H 1425.95 1.1884 5.99739 0
M  V30 15485 H 1430.12 1.87509 6.70681 0
M  V30 15486 H 1427.75 2.3597 7.2265 0
M  V30 15487 N 1429.32 -1.56304 -0.201686 0
M  V30 15488 C 1430.25 -1.90538 -1.27389 0
M  V30 15489 C 1431.27 -0.795422 -1.42045 0
M  V30 15490 O 1432.46 -1.07381 -1.42589 0
M  V30 15491 C 1429.56 -2.11638 -2.64694 0
M  V30 15492 C 1428.73 -3.42755 -2.71731 0
M  V30 15493 C 1427.79 -3.53047 -3.90185 0
M  V30 15494 O 1426.81 -4.25923 -3.77595 0
M  V30 15495 N 1428.02 -2.85649 -5.05356 0
M  V30 15496 H 1430.78 -2.83106 -0.983411 0
M  V30 15497 H 1428.34 -1.57092 -0.391638 0
M  V30 15498 H 1430.33 -2.15818 -3.42352 0
M  V30 15499 H 1428.9 -1.256 -2.86258 0
M  V30 15500 H 1428.12 -3.50501 -1.80397 0
M  V30 15501 H 1429.41 -4.29092 -2.73418 0
M  V30 15502 H 1428.81 -2.26256 -5.18483 0
M  V30 15503 H 1427.37 -2.95465 -5.80985 0
M  V30 15504 N 1430.8 0.469154 -1.50455 0
M  V30 15505 C 1431.73 1.58443 -1.65615 0
M  V30 15506 C 1432.75 1.53668 -0.537584 0
M  V30 15507 O 1433.93 1.59021 -0.810832 0
M  V30 15508 C 1431.03 2.97327 -1.62634 0
M  V30 15509 C 1430.21 3.2695 -2.90555 0
M  V30 15510 C 1429.27 4.45398 -2.80191 0
M  V30 15511 O 1428.29 4.45611 -3.54146 0
M  V30 15512 N 1429.49 5.47167 -1.93878 0
M  V30 15513 H 1432.26 1.45854 -2.61814 0
M  V30 15514 H 1429.82 0.657604 -1.47943 0
M  V30 15515 H 1431.81 3.74537 -1.53311 0
M  V30 15516 H 1430.38 3.03675 -0.741624 0
M  V30 15517 H 1429.6 2.38335 -3.13991 0
M  V30 15518 H 1430.89 3.43554 -3.75297 0
M  V30 15519 H 1430.29 5.49817 -1.33109 0
M  V30 15520 H 1428.85 6.23353 -1.90457 0
M  V30 15521 N 1432.28 1.40065 0.722464 0
M  V30 15522 C 1433.21 1.34182 1.84582 0
M  V30 15523 C 1434.19 0.213339 1.61194 0
M  V30 15524 O 1435.37 0.395867 1.84296 0
M  V30 15525 C 1432.5 1.08658 3.20798 0
M  V30 15526 C 1431.55 2.23865 3.63024 0
M  V30 15527 S 1432.38 3.86221 3.70936 0
M  V30 15528 C 1433.54 3.62948 5.09921 0
M  V30 15529 H 1433.77 2.29251 1.89291 0
M  V30 15530 H 1431.3 1.26269 0.888568 0
M  V30 15531 H 1433.26 0.946172 3.99447 0
M  V30 15532 H 1431.92 0.152542 3.13729 0
M  V30 15533 H 1431.11 2.01631 4.6191 0
M  V30 15534 H 1430.72 2.34174 2.91614 0
M  V30 15535 H 1433.01 3.20989 5.96634 0
M  V30 15536 H 1433.95 4.6134 5.37188 0
M  V30 15537 H 1434.36 2.9678 4.8019 0
M  V30 15538 N 1433.76 -0.95397 1.25448 0
M  V30 15539 C 1435.03 -1.67502 1.01008 0
M  V30 15540 C 1435.41 -2.05949 -0.463483 0
M  V30 15541 O 1434.76 -1.77336 -1.44098 0
M  V30 15542 C 1434.97 -2.89679 1.94645 0
M  V30 15543 C 1436.32 -3.61617 2.22526 0
M  V30 15544 O 1437.34 -2.99762 1.92409 0
M  V30 15545 O 1436.2 -4.72998 2.73743 0
M  V30 15546 H 1433.3 -0.732917 0.383094 0
M  V30 15547 H 1435.84 -1.00684 1.36605 0
M  V30 15548 H 1434.62 -2.58063 2.94141 0
M  V30 15549 H 1434.24 -3.64228 1.59449 0
M  V30 15550 N 1435.24 -1.07045 -1.15668 0
M  V30 15551 C 1436.48 -0.792908 -1.86657 0
M  V30 15552 C 1436.81 0.679213 -1.81935 0
M  V30 15553 O 1436.09 1.49822 -1.2403 0
M  V30 15554 C 1436.37 -1.2978 -3.35901 0
M  V30 15555 C 1436.23 -2.83424 -3.49272 0
M  V30 15556 C 1437.54 -0.911821 -4.30551 0
M  V30 15557 H 1434.66 -0.289509 -0.677756 0
M  V30 15558 H 1437.31 -1.32769 -1.35913 0
M  V30 15559 H 1435.46 -0.84288 -3.79246 0
M  V30 15560 H 1437.13 -3.37182 -3.14811 0
M  V30 15561 H 1435.37 -3.21777 -2.90933 0
M  V30 15562 H 1436.04 -3.13819 -4.54116 0
M  V30 15563 H 1438.52 -1.30376 -3.95147 0
M  V30 15564 H 1437.39 -1.29247 -5.33467 0
M  V30 15565 H 1437.65 0.18255 -4.41723 0
M  V30 15566 N 1436.71 1.32449 -0.85411 0
M  V30 15567 C 1437.64 2.31383 -0.313697 0
M  V30 15568 C 1438.62 1.59656 0.586858 0
M  V30 15569 O 1439.81 1.87459 0.507216 0
M  V30 15570 C 1436.94 3.43693 0.499235 0
M  V30 15571 C 1435.89 4.26899 -0.306839 0
M  V30 15572 C 1435.22 5.30966 0.630795 0
M  V30 15573 C 1436.52 4.99318 -1.53229 0
M  V30 15574 H 1438.21 2.76832 -1.14037 0
M  V30 15575 H 1435.76 1.33091 -0.549805 0
M  V30 15576 H 1437.71 4.11944 0.887709 0
M  V30 15577 H 1436.44 2.96971 1.35926 0
M  V30 15578 H 1435.1 3.60294 -0.677061 0
M  V30 15579 H 1434.74 4.80498 1.48765 0
M  V30 15580 H 1434.44 5.87522 0.0954635 0
M  V30 15581 H 1435.97 6.0208 1.01646 0
M  V30 15582 H 1437.38 5.60253 -1.21614 0
M  V30 15583 H 1435.78 5.65596 -2.00552 0
M  V30 15584 H 1436.85 4.27213 -2.29383 0
M  V30 15585 N 1438.19 0.611994 1.45232 0
M  V30 15586 C 1439.1 -0.105981 2.3436 0
M  V30 15587 C 1440.12 -0.855785 1.515 0
M  V30 15588 O 1441.29 -0.812376 1.84289 0
M  V30 15589 C 1438.36 -1.08794 3.29188 0
M  V30 15590 C 1437.42 -0.339611 4.27955 0
M  V30 15591 C 1436.65 -1.27479 5.18252 0
M  V30 15592 O 1436.88 -2.51279 5.12069 0
M  V30 15593 O 1435.81 -0.769469 5.96961 0
M  V30 15594 H 1439.64 0.626584 2.97166 0
M  V30 15595 H 1437.22 0.37224 1.44688 0
M  V30 15596 H 1439.1 -1.65338 3.8761 0
M  V30 15597 H 1437.78 -1.80145 2.68941 0
M  V30 15598 H 1436.68 0.268408 3.73136 0
M  V30 15599 H 1438.02 0.333501 4.91069 0
M  V30 15600 N 1439.67 -1.53632 0.351409 0
M  V30 15601 C 1440.92 -2.00643 -0.242208 0
M  V30 15602 C 1441.24 -1.24074 -1.50435 0
M  V30 15603 O 1440.51 -0.350067 -1.92747 0
M  V30 15604 H 1439.09 -0.741252 -0.0924904 0
M  V30 15605 H 1441.75 -1.89039 0.474379 0
M  V30 15606 H 1440.85 -3.084 -0.479151 0
M  V30 15607 N 1441.15 -0.0802183 -1.57396 0
M  V30 15608 C 1442.08 0.881426 -2.16225 0
M  V30 15609 C 1443.06 1.30459 -1.09154 0
M  V30 15610 O 1444.24 1.37413 -1.37227 0
M  V30 15611 C 1441.37 2.14599 -2.73065 0
M  V30 15612 C 1440.33 1.86195 -3.85377 0
M  V30 15613 C 1439.65 3.19354 -4.28856 0
M  V30 15614 C 1440.95 1.16059 -5.09242 0
M  V30 15615 H 1442.65 0.391325 -2.96832 0
M  V30 15616 H 1440.19 0.186785 -1.42783 0
M  V30 15617 H 1442.15 2.82297 -3.12868 0
M  V30 15618 H 1440.87 2.65866 -1.89691 0
M  V30 15619 H 1439.53 1.209 -3.46091 0
M  V30 15620 H 1439.18 3.68479 -3.42392 0
M  V30 15621 H 1438.88 3.01137 -5.04569 0
M  V30 15622 H 1440.4 3.88235 -4.71281 0
M  V30 15623 H 1441.82 1.7384 -5.46308 0
M  V30 15624 H 1440.21 1.08072 -5.90288 0
M  V30 15625 H 1441.28 0.14098 -4.84695 0
M  V30 15626 N 1442.63 1.56409 0.193394 0
M  V30 15627 C 1443.57 1.95572 1.25914 0
M  V30 15628 C 1444.57 0.841384 1.47028 0
M  V30 15629 O 1445.77 1.0264 1.47868 0
M  V30 15630 H 1442.15 0.621914 0.422761 0
M  V30 15631 H 1444.12 2.84446 0.901827 0
M  V30 15632 C 1442.87 2.31293 2.59613 0
M  V30 15633 H 1442.19 3.16568 2.44182 0
M  V30 15634 H 1443.63 2.62558 3.32926 0
M  V30 15635 C 1442.09 1.14818 3.16731 0
M  V30 15636 O 1442.62 0.424105 3.99455 0
M  V30 15637 N 1440.83 0.924536 2.75501 0
M  V30 15638 H 1440.37 1.51509 2.08334 0
M  V30 15639 H 1440.33 0.147006 3.14056 0
M  V30 15640 N 1444.1 -0.461169 1.50702 0
M  V30 15641 C 1445.35 -1.21431 1.62427 0
M  V30 15642 C 1445.68 -1.91406 0.328228 0
M  V30 15643 O 1444.96 -1.82563 -0.670898 0
M  V30 15644 C 1445.24 -2.25016 2.8114 0
M  V30 15645 C 1445.09 -1.5928 4.20654 0
M  V30 15646 C 1446.41 -3.26234 2.95397 0
M  V30 15647 H 1443.53 -0.440113 0.59116 0
M  V30 15648 H 1446.17 -0.506726 1.83118 0
M  V30 15649 H 1444.32 -2.85363 2.63629 0
M  V30 15650 H 1446 -1.02454 4.49779 0
M  V30 15651 H 1444.24 -0.895665 4.24453 0
M  V30 15652 H 1444.91 -2.34602 4.99666 0
M  V30 15653 H 1447.39 -2.7592 3.1146 0
M  V30 15654 H 1446.26 -3.96031 3.80067 0
M  V30 15655 H 1446.52 -3.90943 2.06436 0
M  V30 15656 N 1445.58 -1.40446 -0.715026 0
M  V30 15657 C 1446.51 -1.43511 -1.84193 0
M  V30 15658 C 1447.49 -0.295969 -1.67505 0
M  V30 15659 O 1448.68 -0.504667 -1.87528 0
M  V30 15660 C 1445.81 -1.29751 -3.22152 0
M  V30 15661 C 1444.76 -2.41274 -3.53512 0
M  V30 15662 C 1444.09 -2.12591 -4.90621 0
M  V30 15663 C 1445.39 -3.83614 -3.54454 0
M  V30 15664 H 1447.08 -2.37819 -1.81885 0
M  V30 15665 H 1444.63 -1.14469 -0.873655 0
M  V30 15666 H 1446.58 -1.30511 -4.0068 0
M  V30 15667 H 1445.3 -0.319189 -3.25037 0
M  V30 15668 H 1443.96 -2.39764 -2.77324 0
M  V30 15669 H 1443.61 -1.13148 -4.90109 0
M  V30 15670 H 1443.31 -2.87308 -5.1257 0
M  V30 15671 H 1444.84 -2.15034 -5.71483 0
M  V30 15672 H 1446.25 -3.86945 -4.23021 0
M  V30 15673 H 1444.65 -4.57855 -3.87929 0
M  V30 15674 H 1445.72 -4.13159 -2.53827 0
M  V30 15675 N 1447.06 0.947303 -1.25952 0
M  V30 15676 C 1448.31 1.6953 -1.11299 0
M  V30 15677 C 1448.64 1.9113 0.343961 0
M  V30 15678 O 1447.91 1.48755 1.25309 0
M  V30 15679 C 1448.2 3.0738 -1.87588 0
M  V30 15680 C 1448.05 2.93145 -3.41154 0
M  V30 15681 C 1449.37 4.07396 -1.66483 0
M  V30 15682 H 1446.49 0.615281 -0.405707 0
M  V30 15683 H 1449.13 1.10064 -1.54874 0
M  V30 15684 H 1447.28 3.58143 -1.50553 0
M  V30 15685 H 1448.95 2.49651 -3.87907 0
M  V30 15686 H 1447.19 2.28902 -3.68492 0
M  V30 15687 H 1447.87 3.9089 -3.89755 0
M  V30 15688 H 1450.34 3.65572 -1.98738 0
M  V30 15689 H 1449.22 5.01876 -2.22287 0
M  V30 15690 H 1449.48 4.379 -0.607916 0
M  V30 15691 N 1448.54 1.07657 1.15099 0
M  V30 15692 C 1449.77 0.822825 1.89835 0
M  V30 15693 C 1450.18 -0.624281 1.7818 0
M  V30 15694 O 1449.54 -1.42844 1.13587 0
M  V30 15695 C 1449.59 1.22598 3.40076 0
M  V30 15696 O 1449.31 2.61631 3.51398 0
M  V30 15697 C 1450.81 1.00199 4.31828 0
M  V30 15698 H 1448.03 0.297288 0.601549 0
M  V30 15699 H 1450.58 1.43384 1.45813 0
M  V30 15700 H 1448.73 0.65923 3.8175 0
M  V30 15701 H 1449.14 2.78163 4.44664 0
M  V30 15702 H 1450.62 1.33355 5.35649 0
M  V30 15703 H 1451.1 -0.0614865 4.39157 0
M  V30 15704 H 1451.7 1.5538 3.959 0
M  V30 15705 N 1450.02 -1.31994 0.861122 0
M  V30 15706 C 1451.27 -1.96294 0.463868 0
M  V30 15707 C 1451.58 -1.68869 -0.98704 0
M  V30 15708 O 1452.78 -2.26959 -1.49003 0
M  V30 15709 C 1451.24 -3.51377 0.77858 0
M  V30 15710 C 1450.85 -3.87653 2.24565 0
M  V30 15711 C 1452.59 -4.22115 0.449365 0
M  V30 15712 C 1450.5 -5.35809 2.50324 0
M  V30 15713 H 1449.43 -0.734647 0.169733 0
M  V30 15714 H 1452.08 -1.50294 1.0528 0
M  V30 15715 H 1450.46 -3.95821 0.119005 0
M  V30 15716 H 1451.64 -3.54197 2.94755 0
M  V30 15717 H 1449.95 -3.29957 2.54003 0
M  V30 15718 H 1452.55 -5.31103 0.61916 0
M  V30 15719 H 1452.89 -4.11814 -0.609528 0
M  V30 15720 H 1453.42 -3.83276 1.06511 0
M  V30 15721 H 1450.16 -5.51138 3.54863 0
M  V30 15722 H 1449.68 -5.70648 1.84719 0
M  V30 15723 H 1451.36 -6.02968 2.34602 0
M  V30 15724 N 1451.49 -0.619688 -1.44906 0
M  V30 15725 C 1452.72 -0.124598 -2.07025 0
M  V30 15726 C 1453.14 1.18698 -1.45919 0
M  V30 15727 O 1452.5 1.72552 -0.556366 0
M  V30 15728 C 1452.55 -0.0112238 -3.60598 0
M  V30 15729 O 1451.65 1.03582 -3.9918 0
M  V30 15730 H 1451 -0.0795631 -0.659216 0
M  V30 15731 H 1453.53 -0.853127 -1.85965 0
M  V30 15732 H 1453.54 0.183079 -4.07589 0
M  V30 15733 H 1452.21 -0.968849 -4.04458 0
M  V30 15734 H 1450.79 0.817008 -3.6384 0
M  V30 15735 N 1452.97 1.53444 -0.359552 0
M  V30 15736 C 1454.22 2.00769 0.231564 0
M  V30 15737 C 1454.54 1.2487 1.49775 0
M  V30 15738 O 1453.81 0.360284 1.92558 0
M  V30 15739 H 1452.39 0.741732 0.0885581 0
M  V30 15740 H 1455.05 1.88785 -0.484397 0
M  V30 15741 H 1454.15 3.0865 0.462789 0
M  V30 15742 N 1454.45 0.0885642 1.57351 0
M  V30 15743 C 1455.4 -0.872723 2.13664 0
M  V30 15744 C 1456.37 -1.28418 1.05347 0
M  V30 15745 O 1457.55 -1.36709 1.33099 0
M  V30 15746 C 1454.69 -2.12886 2.71613 0
M  V30 15747 C 1453.81 -1.76852 3.94141 0
M  V30 15748 C 1452.94 -2.97203 4.40277 0
M  V30 15749 C 1451.98 -2.57265 5.55411 0
M  V30 15750 N 1451.12 -3.70429 5.96428 0
M  V30 15751 H 1455.96 -0.385644 2.95494 0
M  V30 15752 H 1453.49 -0.178688 1.46011 0
M  V30 15753 H 1455.45 -2.86441 3.03327 0
M  V30 15754 H 1454.08 -2.59105 1.92521 0
M  V30 15755 H 1453.13 -0.932921 3.68783 0
M  V30 15756 H 1454.45 -1.43481 4.77718 0
M  V30 15757 H 1453.6 -3.79019 4.7374 0
M  V30 15758 H 1452.34 -3.3378 3.55587 0
M  V30 15759 H 1451.34 -1.73875 5.21582 0
M  V30 15760 H 1452.57 -2.21839 6.41844 0
M  V30 15761 H 1450.51 -4.06737 5.14686 0
M  V30 15762 H 1450.43 -3.40881 6.74786 0
M  V30 15763 H 1451.7 -4.52774 6.3452 0
M  V30 15764 N 1455.93 -1.56509 -0.185096 0
M  V30 15765 C 1456.88 -1.95336 -1.22934 0
M  V30 15766 C 1457.85 -0.81532 -1.44713 0
M  V30 15767 O 1459.03 -1.07431 -1.57681 0
M  V30 15768 C 1456.17 -2.30671 -2.56681 0
M  V30 15769 C 1455.28 -3.57586 -2.42397 0
M  V30 15770 C 1454.42 -3.82197 -3.68916 0
M  V30 15771 C 1453.46 -5.02505 -3.49507 0
M  V30 15772 N 1452.59 -5.23319 -4.68062 0
M  V30 15773 H 1457.43 -2.84361 -0.89123 0
M  V30 15774 H 1454.97 -1.40715 -0.428689 0
M  V30 15775 H 1456.93 -2.49176 -3.34615 0
M  V30 15776 H 1455.56 -1.44773 -2.88514 0
M  V30 15777 H 1454.61 -3.47072 -1.55709 0
M  V30 15778 H 1455.92 -4.45677 -2.23994 0
M  V30 15779 H 1455.08 -4.00996 -4.55288 0
M  V30 15780 H 1453.82 -2.92455 -3.90284 0
M  V30 15781 H 1452.82 -4.83619 -2.6152 0
M  V30 15782 H 1454.05 -5.93765 -3.29574 0
M  V30 15783 H 1451.99 -4.36526 -4.89674 0
M  V30 15784 H 1451.91 -6.05608 -4.52521 0
M  V30 15785 H 1453.18 -5.46585 -5.55757 0
M  V30 15786 N 1457.41 0.45317 -1.50944 0
M  V30 15787 C 1458.68 1.21413 -1.53357 0
M  V30 15788 C 1459.06 2.09118 -0.288584 0
M  V30 15789 O 1458.41 2.16621 0.727164 0
M  V30 15790 C 1458.62 2.02969 -2.83909 0
M  V30 15791 C 1459.97 2.60551 -3.35258 0
M  V30 15792 O 1460.99 2.13196 -2.85353 0
M  V30 15793 O 1459.85 3.46881 -4.22298 0
M  V30 15794 H 1456.95 0.551909 -0.615894 0
M  V30 15795 H 1459.49 0.463529 -1.63247 0
M  V30 15796 H 1458.26 1.38453 -3.65987 0
M  V30 15797 H 1457.89 2.85127 -2.77107 0
M  V30 15798 N 1458.88 1.40823 0.707568 0
M  V30 15799 C 1459.83 1.41724 1.82162 0
M  V30 15800 C 1460.8 0.273135 1.63839 0
M  V30 15801 O 1461.99 0.472399 1.84859 0
M  V30 15802 C 1459.13 1.29347 3.19943 0
M  V30 15803 C 1458.24 2.53529 3.49782 0
M  V30 15804 C 1457.37 2.33533 4.77112 0
M  V30 15805 C 1456.41 3.53252 4.9988 0
M  V30 15806 N 1455.55 3.32401 6.18429 0
M  V30 15807 H 1460.39 2.36943 1.80726 0
M  V30 15808 H 1457.93 1.17671 0.882723 0
M  V30 15809 H 1459.89 1.20175 3.99517 0
M  V30 15810 H 1458.52 0.377426 3.20586 0
M  V30 15811 H 1457.57 2.73198 2.64702 0
M  V30 15812 H 1458.88 3.42617 3.62512 0
M  V30 15813 H 1458.03 2.2176 5.64719 0
M  V30 15814 H 1456.77 1.41883 4.66605 0
M  V30 15815 H 1455.78 3.65492 4.10725 0
M  V30 15816 H 1457 4.4584 5.12253 0
M  V30 15817 H 1454.95 2.4344 6.09158 0
M  V30 15818 H 1454.87 4.15059 6.31872 0
M  V30 15819 H 1456.13 3.24377 7.08802 0
M  V30 15820 N 1460.36 -0.94061 1.26453 0
M  V30 15821 C 1461.29 -2.05667 1.10559 0
M  V30 15822 C 1462.27 -1.70097 0.0106258 0
M  V30 15823 O 1463.46 -1.93338 0.182756 0
M  V30 15824 C 1460.59 -3.3936 0.7384 0
M  V30 15825 C 1459.54 -3.88993 1.78517 0
M  V30 15826 C 1458.87 -5.19343 1.27228 0
M  V30 15827 C 1460.17 -4.13812 3.1868 0
M  V30 15828 H 1461.86 -2.19221 2.03918 0
M  V30 15829 H 1459.41 -1.05339 0.98182 0
M  V30 15830 H 1461.36 -4.16902 0.61409 0
M  V30 15831 H 1460.09 -3.25783 -0.230887 0
M  V30 15832 H 1458.74 -3.13633 1.89816 0
M  V30 15833 H 1458.39 -5.02147 0.292816 0
M  V30 15834 H 1458.09 -5.53521 1.97201 0
M  V30 15835 H 1459.62 -5.99468 1.16065 0
M  V30 15836 H 1461.03 -4.81966 3.10455 0
M  V30 15837 H 1459.43 -4.59273 3.86249 0
M  V30 15838 H 1460.5 -3.19571 3.64695 0
M  V30 15839 N 1461.84 -1.08266 -1.14527 0
M  V30 15840 C 1463.26 -0.810001 -1.37518 0
M  V30 15841 C 1463.46 0.581399 -1.9293 0
M  V30 15842 O 1462.51 1.33846 -2.14107 0
M  V30 15843 C 1463.83 -1.89149 -2.33759 0
M  V30 15844 C 1465.37 -1.91733 -2.47401 0
M  V30 15845 C 1465.85 -2.98992 -3.4694 0
M  V30 15846 N 1467.34 -2.98155 -3.54483 0
M  V30 15847 C 1468.07 -3.77791 -4.31349 0
M  V30 15848 N 1467.57 -4.67302 -5.11469 0
M  V30 15849 N 1469.36 -3.66099 -4.2653 0
M  V30 15850 H 1461.51 -1.97988 -0.769048 0
M  V30 15851 H 1463.78 -0.859115 -0.40078 0
M  V30 15852 H 1463.48 -2.89175 -2.00176 0
M  V30 15853 H 1463.36 -1.75955 -3.33646 0
M  V30 15854 H 1465.74 -0.923531 -2.80276 0
M  V30 15855 H 1465.83 -2.09005 -1.4748 0
M  V30 15856 H 1465.47 -3.98578 -3.14799 0
M  V30 15857 H 1465.4 -2.78965 -4.46639 0
M  V30 15858 H 1467.89 -2.33277 -2.97305 0
M  V30 15859 H 1468.2 -5.24676 -5.67393 0
M  V30 15860 H 1466.55 -4.71345 -5.10743 0
M  V30 15861 H 1469.74 -2.95539 -3.63008 0
M  V30 15862 H 1469.91 -4.28402 -4.86185 0
M  V30 15863 N 1463.32 1.31536 -0.86811 0
M  V30 15864 C 1464.57 1.97066 -0.478829 0
M  V30 15865 C 1464.9 1.68469 0.966021 0
M  V30 15866 O 1464.17 0.980166 1.67997 0
M  V30 15867 C 1464.46 3.52533 -0.734313 0
M  V30 15868 C 1464.31 3.90711 -2.22856 0
M  V30 15869 C 1465.63 4.39647 -0.199559 0
M  V30 15870 H 1462.75 0.715813 -0.175444 0
M  V30 15871 H 1465.39 1.55694 -1.08901 0
M  V30 15872 H 1463.54 3.87905 -0.214962 0
M  V30 15873 H 1465.21 3.65451 -2.81502 0
M  V30 15874 H 1463.45 3.39385 -2.70185 0
M  V30 15875 H 1464.13 4.99103 -2.35797 0
M  V30 15876 H 1466.6 4.11088 -0.643853 0
M  V30 15877 H 1465.48 5.47383 -0.407783 0
M  V30 15878 H 1465.74 4.32875 0.898414 0
M  V30 15879 N 1464.8 0.627364 1.44575 0
M  V30 15880 C 1466.03 0.137114 2.06145 0
M  V30 15881 C 1466.44 -1.19201 1.46928 0
M  V30 15882 O 1465.78 -1.7413 0.585199 0
M  V30 15883 C 1465.84 -0.0560229 3.59456 0
M  V30 15884 C 1465.5 1.19435 4.41117 0
M  V30 15885 C 1466.5 2.11717 4.74839 0
M  V30 15886 C 1464.19 1.42871 4.81553 0
M  V30 15887 C 1466.18 3.25749 5.47875 0
M  V30 15888 C 1463.87 2.572 5.54339 0
M  V30 15889 C 1464.87 3.48466 5.87419 0
M  V30 15890 O 1464.55 4.60802 6.58723 0
M  V30 15891 H 1464.29 0.0751614 0.671809 0
M  V30 15892 H 1466.84 0.86076 1.86494 0
M  V30 15893 H 1465.07 -0.834775 3.77582 0
M  V30 15894 H 1466.76 -0.500352 4.02804 0
M  V30 15895 H 1467.52 1.94844 4.44141 0
M  V30 15896 H 1463.4 0.727246 4.55228 0
M  V30 15897 H 1466.95 3.97007 5.73612 0
M  V30 15898 H 1462.84 2.74018 5.84452 0
M  V30 15899 H 1463.61 4.59736 6.77189 0
M  V30 15900 N 1466.28 -1.53251 0.367684 0
M  V30 15901 C 1467.51 -2.05407 -0.221725 0
M  V30 15902 C 1467.91 -1.24081 -1.4283 0
M  V30 15903 O 1467.26 -0.275005 -1.8163 0
M  V30 15904 C 1467.32 -3.53063 -0.677281 0
M  V30 15905 C 1466.98 -4.55131 0.412894 0
M  V30 15906 C 1467.98 -5.04315 1.26343 0
M  V30 15907 C 1465.66 -4.99013 0.573739 0
M  V30 15908 C 1467.66 -5.95984 2.26014 0
M  V30 15909 C 1465.35 -5.90487 1.57381 0
M  V30 15910 C 1466.34 -6.38863 2.41544 0
M  V30 15911 O 1466.03 -7.28533 3.39845 0
M  V30 15912 H 1465.76 -0.674679 -0.0422413 0
M  V30 15913 H 1468.32 -1.98577 0.52501 0
M  V30 15914 H 1466.55 -3.57437 -1.47565 0
M  V30 15915 H 1468.24 -3.88066 -1.18993 0
M  V30 15916 H 1469 -4.7116 1.15037 0
M  V30 15917 H 1464.88 -4.60944 -0.0715806 0
M  V30 15918 H 1468.43 -6.33666 2.91742 0
M  V30 15919 H 1464.32 -6.23056 1.68734 0
M  V30 15920 H 1465.09 -7.46536 3.35598 0
M  V30 15921 N 1467.75 -0.0969077 -1.57302 0
M  V30 15922 C 1468.68 0.858443 -2.17147 0
M  V30 15923 C 1469.66 1.29294 -1.10531 0
M  V30 15924 O 1470.85 1.3595 -1.38676 0
M  V30 15925 C 1467.98 2.11691 -2.75326 0
M  V30 15926 C 1466.93 1.82097 -3.8733 0
M  V30 15927 C 1466.26 3.14787 -4.32219 0
M  V30 15928 C 1467.56 1.10651 -5.10444 0
M  V30 15929 H 1469.25 0.35982 -2.9723 0
M  V30 15930 H 1466.8 0.17163 -1.42974 0
M  V30 15931 H 1468.75 2.78963 -3.15844 0
M  V30 15932 H 1467.48 2.63839 -1.925 0
M  V30 15933 H 1466.14 1.17222 -3.47354 0
M  V30 15934 H 1465.78 3.64826 -3.46281 0
M  V30 15935 H 1465.48 2.95769 -5.07735 0
M  V30 15936 H 1467.01 3.83215 -4.75372 0
M  V30 15937 H 1468.42 1.68036 -5.48121 0
M  V30 15938 H 1466.82 1.01805 -5.91401 0
M  V30 15939 H 1467.89 0.0895634 -4.84817 0
M  V30 15940 N 1469.23 1.56605 0.176793 0
M  V30 15941 C 1470.46 1.8617 0.91408 0
M  V30 15942 C 1470.88 0.68262 1.75277 0
M  V30 15943 O 1470.24 -0.368391 1.77518 0
M  V30 15944 C 1470.29 3.14109 1.7711 0
M  V30 15945 O 1469.39 2.95947 2.87209 0
M  V30 15946 H 1468.73 0.612507 0.25638 0
M  V30 15947 H 1471.26 2.03837 0.176586 0
M  V30 15948 H 1471.27 3.45373 2.17213 0
M  V30 15949 H 1469.95 3.9954 1.15502 0
M  V30 15950 H 1468.52 2.76024 2.50729 0
M  V30 15951 N 1470.71 -0.445159 1.51182 0
M  V30 15952 C 1471.96 -1.19398 1.64669 0
M  V30 15953 C 1472.31 -1.89101 0.35474 0
M  V30 15954 O 1471.6 -1.80274 -0.648999 0
M  V30 15955 C 1471.8 -2.24274 2.78273 0
M  V30 15956 C 1471.63 -1.64863 4.1839 0
M  V30 15957 C 1470.4 -1.43697 4.84437 0
M  V30 15958 C 1472.59 -1.12917 5.01751 0
M  V30 15959 N 1470.58 -0.798009 6.08691 0
M  V30 15960 C 1471.95 -0.615012 6.16942 0
M  V30 15961 C 1474 -1.02018 4.87336 0
M  V30 15962 C 1472.71 -0.00258151 7.193 0
M  V30 15963 C 1474.73 -0.421658 5.89895 0
M  V30 15964 C 1474.09 0.0819981 7.04352 0
M  V30 15965 H 1470.19 -0.424858 0.656521 0
M  V30 15966 H 1472.78 -0.491798 1.88386 0
M  V30 15967 H 1470.95 -2.91889 2.56233 0
M  V30 15968 H 1472.68 -2.91259 2.8098 0
M  V30 15969 H 1469.43 -1.69652 4.42171 0
M  V30 15970 H 1469.86 -0.496194 6.75179 0
M  V30 15971 H 1474.5 -1.39546 3.99107 0
M  V30 15972 H 1472.22 0.384842 8.07183 0
M  V30 15973 H 1475.8 -0.339339 5.8081 0
M  V30 15974 H 1474.68 0.537861 7.82353 0
M  V30 15975 N 1472.19 -1.41197 -0.700089 0
M  V30 15976 C 1473.12 -1.45456 -1.8266 0
M  V30 15977 C 1474.1 -0.313719 -1.67182 0
M  V30 15978 O 1475.28 -0.524528 -1.86982 0
M  V30 15979 C 1472.41 -1.33161 -3.20758 0
M  V30 15980 C 1471.37 -2.4501 -3.50933 0
M  V30 15981 C 1470.69 -2.17782 -4.88339 0
M  V30 15982 C 1471.99 -3.87352 -3.50365 0
M  V30 15983 H 1473.69 -2.39735 -1.79353 0
M  V30 15984 H 1471.23 -1.1539 -0.861465 0
M  V30 15985 H 1473.19 -1.34754 -3.99274 0
M  V30 15986 H 1471.91 -0.353646 -3.2468 0
M  V30 15987 H 1470.57 -2.42692 -2.74766 0
M  V30 15988 H 1470.22 -1.1834 -4.88881 0
M  V30 15989 H 1469.92 -2.92728 -5.09494 0
M  V30 15990 H 1471.44 -2.21083 -5.6917 0
M  V30 15991 H 1472.86 -3.9141 -4.18893 0
M  V30 15992 H 1471.25 -4.61944 -3.83051 0
M  V30 15993 H 1472.32 -4.15827 -2.4943 0
M  V30 15994 N 1473.67 0.933891 -1.2695 0
M  V30 15995 C 1475.08 1.20873 -1.0422 0
M  V30 15996 C 1475.28 2.00205 0.228112 0
M  V30 15997 O 1474.34 2.34539 0.935284 0
M  V30 15998 C 1475.65 1.9629 -2.27795 0
M  V30 15999 C 1477.2 2.09254 -2.3277 0
M  V30 16000 C 1477.67 2.88075 -3.56057 0
M  V30 16001 N 1479.16 2.95646 -3.56578 0
M  V30 16002 C 1479.9 3.57082 -4.48642 0
M  V30 16003 N 1479.4 4.1996 -5.51004 0
M  V30 16004 N 1481.19 3.54425 -4.36279 0
M  V30 16005 H 1473.34 0.403735 -2.08528 0
M  V30 16006 H 1475.6 0.241189 -0.916805 0
M  V30 16007 H 1475.31 1.45412 -3.20231 0
M  V30 16008 H 1475.18 2.9693 -2.32621 0
M  V30 16009 H 1477.57 2.5932 -1.40844 0
M  V30 16010 H 1477.65 1.07854 -2.31951 0
M  V30 16011 H 1477.29 2.38693 -4.48317 0
M  V30 16012 H 1477.22 3.89746 -3.54126 0
M  V30 16013 H 1479.72 2.50951 -2.82545 0
M  V30 16014 H 1480.03 4.64758 -6.1743 0
M  V30 16015 H 1478.37 4.18525 -5.54853 0
M  V30 16016 H 1481.56 3.045 -3.55524 0
M  V30 16017 H 1481.74 4.02016 -5.0822 0
M  V30 16018 N 1475.14 1.08871 1.13951 0
M  V30 16019 C 1476.09 0.71755 2.21255 0
M  V30 16020 C 1477.09 -0.278901 1.67088 0
M  V30 16021 O 1478.29 -0.140964 1.79447 0
M  V30 16022 H 1474.67 0.214032 0.720898 0
M  V30 16023 H 1476.64 1.63182 2.49828 0
M  V30 16024 C 1475.39 0.148098 3.47384 0
M  V30 16025 H 1474.71 0.906028 3.89398 0
M  V30 16026 H 1476.15 -0.0737451 4.23936 0
M  V30 16027 C 1474.61 -1.11524 3.17906 0
M  V30 16028 O 1475.14 -2.19937 3.3614 0
M  V30 16029 N 1473.34 -1.0275 2.71829 0
M  V30 16030 H 1472.89 -0.145193 2.5719 0
M  V30 16031 H 1472.85 -1.87353 2.5248 0
M  V30 16032 N 1476.62 -1.31073 0.875073 0
M  V30 16033 C 1477.57 -2.28389 0.332718 0
M  V30 16034 C 1478.54 -1.55954 -0.571639 0
M  V30 16035 O 1479.72 -1.84073 -0.502185 0
M  V30 16036 C 1476.86 -3.42083 -0.455364 0
M  V30 16037 C 1475.98 -4.29358 0.477088 0
M  V30 16038 C 1475.11 -5.30201 -0.325619 0
M  V30 16039 C 1474.15 -6.09123 0.602935 0
M  V30 16040 N 1473.29 -7.01909 -0.163836 0
M  V30 16041 H 1478.13 -2.74166 1.16777 0
M  V30 16042 H 1475.66 -1.3487 0.587248 0
M  V30 16043 H 1477.62 -4.06746 -0.928104 0
M  V30 16044 H 1476.25 -2.97402 -1.25507 0
M  V30 16045 H 1475.3 -3.65091 1.06829 0
M  V30 16046 H 1476.62 -4.84425 1.18887 0
M  V30 16047 H 1475.77 -6.00565 -0.860647 0
M  V30 16048 H 1474.51 -4.75802 -1.07067 0
M  V30 16049 H 1473.51 -5.37645 1.14968 0
M  V30 16050 H 1474.74 -6.65609 1.34692 0
M  V30 16051 H 1472.69 -6.49913 -0.891604 0
M  V30 16052 H 1472.6 -7.5442 0.48851 0
M  V30 16053 H 1473.87 -7.76529 -0.679929 0
M  V30 16054 N 1478.1 -0.635022 -1.4424 0
M  V30 16055 C 1479.35 -0.138497 -2.01224 0
M  V30 16056 C 1479.66 1.2485 -1.50571 0
M  V30 16057 O 1480.87 1.83926 -1.99709 0
M  V30 16058 C 1479.32 -0.196836 -3.59361 0
M  V30 16059 C 1478.93 -1.58539 -4.1901 0
M  V30 16060 C 1480.68 0.243025 -4.23804 0
M  V30 16061 C 1478.58 -1.59864 -5.69384 0
M  V30 16062 H 1477.51 -0.0480117 -0.75247 0
M  V30 16063 H 1480.16 -0.794391 -1.65414 0
M  V30 16064 H 1478.55 0.526231 -3.92488 0
M  V30 16065 H 1479.72 -2.33236 -3.97414 0
M  V30 16066 H 1478.04 -1.96967 -3.66869 0
M  V30 16067 H 1480.63 0.252717 -5.34102 0
M  V30 16068 H 1480.98 1.27107 -3.96421 0
M  V30 16069 H 1481.51 -0.427678 -3.95494 0
M  V30 16070 H 1478.25 -2.60518 -6.01507 0
M  V30 16071 H 1477.77 -0.894664 -5.9309 0
M  V30 16072 H 1479.45 -1.3343 -6.33092 0
M  V30 16073 N 1479.58 1.53054 -0.375806 0
M  V30 16074 C 1480.51 2.28973 0.45754 0
M  V30 16075 C 1481.49 1.31812 1.07516 0
M  V30 16076 O 1482.67 1.60693 1.09048 0
M  V30 16077 C 1479.8 3.08657 1.59212 0
M  V30 16078 C 1478.76 4.1359 1.10123 0
M  V30 16079 C 1478.08 4.81417 2.32684 0
M  V30 16080 C 1479.38 5.21994 0.17872 0
M  V30 16081 H 1481.08 2.98883 -0.175872 0
M  V30 16082 H 1478.62 1.43743 -0.0860253 0
M  V30 16083 H 1480.58 3.6052 2.18182 0
M  V30 16084 H 1479.3 2.36456 2.25291 0
M  V30 16085 H 1477.96 3.62688 0.534151 0
M  V30 16086 H 1477.61 4.05778 2.97243 0
M  V30 16087 H 1477.31 5.52332 2.00506 0
M  V30 16088 H 1478.83 5.36079 2.92322 0
M  V30 16089 H 1480.25 5.69298 0.676204 0
M  V30 16090 H 1478.64 6.00077 -0.0526605 0
M  V30 16091 H 1479.71 4.78646 -0.776246 0
M  V30 16092 N 1481.06 0.105248 1.57248 0
M  V30 16093 C 1482.01 -0.860855 2.11124 0
M  V30 16094 C 1482.99 -1.23721 1.02868 0
M  V30 16095 O 1484.18 -1.2106 1.29126 0
M  V30 16096 C 1481.31 -2.11612 2.70325 0
M  V30 16097 C 1480.4 -1.76474 3.85639 0
M  V30 16098 N 1480.79 -1.11944 4.93257 0
M  V30 16099 C 1479.09 -2.0602 3.95565 0
M  V30 16100 C 1479.79 -0.956421 5.73783 0
M  V30 16101 N 1478.76 -1.47701 5.23149 0
M  V30 16102 H 1482.57 -0.35816 2.91709 0
M  V30 16103 H 1480.08 -0.0976543 1.62106 0
M  V30 16104 H 1482.08 -2.81778 3.07257 0
M  V30 16105 H 1480.74 -2.62438 1.91198 0
M  V30 16106 H 1481.75 -0.785042 5.11916 0
M  V30 16107 H 1478.42 -2.58989 3.27461 0
M  V30 16108 H 1479.81 -0.450964 6.70385 0
M  V30 16109 N 1482.53 -1.56697 -0.168486 0
M  V30 16110 C 1483.48 -1.9755 -1.22787 0
M  V30 16111 C 1484.48 -0.864668 -1.4567 0
M  V30 16112 O 1485.68 -1.04979 -1.46217 0
M  V30 16113 H 1482.06 -0.628561 -0.412813 0
M  V30 16114 H 1484.03 -2.85845 -0.85646 0
M  V30 16115 C 1482.78 -2.35394 -2.559 0
M  V30 16116 H 1482.1 -3.20412 -2.39115 0
M  V30 16117 H 1483.54 -2.67821 -3.28706 0
M  V30 16118 C 1482 -1.19842 -3.14864 0
M  V30 16119 O 1482.53 -0.487601 -3.9873 0
M  V30 16120 N 1480.74 -0.968249 -2.73995 0
M  V30 16121 H 1480.28 -1.54804 -2.05897 0
M  V30 16122 H 1480.24 -0.196951 -3.13783 0
M  V30 16123 N 1484.01 0.437135 -1.51416 0
M  V30 16124 C 1485.29 1.1978 -1.54636 0
M  V30 16125 C 1485.67 2.088 -0.310747 0
M  V30 16126 O 1485.02 2.1738 0.704148 0
M  V30 16127 C 1485.23 1.99947 -2.86046 0
M  V30 16128 C 1486.58 2.56981 -3.38003 0
M  V30 16129 O 1487.6 2.10157 -2.87598 0
M  V30 16130 O 1486.46 3.42383 -4.25953 0
M  V30 16131 H 1483.55 0.545346 -0.621713 0
M  V30 16132 H 1486.1 0.446189 -1.63729 0
M  V30 16133 H 1484.87 1.34564 -3.67435 0
M  V30 16134 H 1484.49 2.82172 -2.80115 0
M  V30 16135 N 1485.49 1.41566 0.692592 0
M  V30 16136 C 1486.9 1.36606 1.27262 0
M  V30 16137 C 1487.25 0.0506082 1.96135 0
M  V30 16138 O 1486.38 -0.851071 1.98962 0
M  V30 16139 C 1486.97 2.47434 2.31434 0
M  V30 16140 C 1485.53 2.45863 2.85006 0
M  V30 16141 C 1484.68 2.2713 1.59083 0
M  V30 16142 H 1487.63 1.51038 0.487149 0
M  V30 16143 H 1487.65 2.16663 3.12789 0
M  V30 16144 H 1487.16 3.43161 1.81278 0
M  V30 16145 H 1485.26 1.53901 3.3933 0
M  V30 16146 H 1485.38 3.42279 3.35234 0
M  V30 16147 H 1483.74 1.75061 1.85002 0
M  V30 16148 H 1484.52 3.24887 1.10919 0
M  V30 16149 N 1486.97 -0.927146 1.27443 0
M  V30 16150 C 1487.88 -2.06122 1.12031 0
M  V30 16151 C 1488.89 -1.73928 0.0501979 0
M  V30 16152 O 1490.07 -1.99756 0.256796 0
M  V30 16153 C 1487.14 -3.3805 0.769634 0
M  V30 16154 C 1486.2 -3.83938 1.92068 0
M  V30 16155 C 1485.43 -5.0957 1.58664 0
M  V30 16156 O 1485.65 -5.6825 0.494789 0
M  V30 16157 O 1484.59 -5.50844 2.42599 0
M  V30 16158 H 1488.41 -2.22037 2.07203 0
M  V30 16159 H 1486 -1.04638 1.06636 0
M  V30 16160 H 1487.88 -4.17286 0.587423 0
M  V30 16161 H 1486.55 -3.2334 -0.152557 0
M  V30 16162 H 1485.46 -3.05587 2.15795 0
M  V30 16163 H 1486.79 -4.0319 2.8231 0
M  V30 16164 N 1488.45 -1.09474 -1.13372 0
M  V30 16165 C 1489.69 -0.832323 -1.84933 0
M  V30 16166 C 1490.03 0.640469 -1.83335 0
M  V30 16167 O 1489.3 1.47158 -1.2718 0
M  V30 16168 C 1489.58 -1.36876 -3.33072 0
M  V30 16169 C 1489.44 -2.90769 -3.43181 0
M  V30 16170 C 1490.76 -1.00294 -4.2852 0
M  V30 16171 H 1487.87 -0.30382 -0.671463 0
M  V30 16172 H 1490.52 -1.35622 -1.33066 0
M  V30 16173 H 1488.67 -0.923134 -3.77373 0
M  V30 16174 H 1490.34 -3.43784 -3.07588 0
M  V30 16175 H 1488.58 -3.27876 -2.84042 0
M  V30 16176 H 1489.25 -3.23381 -4.47358 0
M  V30 16177 H 1491.73 -1.38729 -3.92293 0
M  V30 16178 H 1490.6 -1.40533 -5.30605 0
M  V30 16179 H 1490.87 0.0888133 -4.42011 0
M  V30 16180 N 1489.92 1.30607 -0.882012 0
M  V30 16181 C 1490.83 2.31967 -0.350503 0
M  V30 16182 C 1491.85 1.6522 0.54575 0
M  V30 16183 O 1493.03 1.96544 0.439581 0
M  V30 16184 C 1490.09 3.44037 0.428924 0
M  V30 16185 C 1489.15 4.26417 -0.496727 0
M  V30 16186 C 1488.39 5.33135 0.245597 0
M  V30 16187 O 1488.61 5.51077 1.47209 0
M  V30 16188 O 1487.54 6.00551 -0.402767 0
M  V30 16189 H 1491.37 2.79374 -1.19095 0
M  V30 16190 H 1488.95 1.34723 -0.645754 0
M  V30 16191 H 1490.84 4.12314 0.870346 0
M  V30 16192 H 1489.51 2.9877 1.24573 0
M  V30 16193 H 1488.42 3.60848 -0.986899 0
M  V30 16194 H 1489.75 4.7528 -1.27945 0
M  V30 16195 N 1491.4 0.642663 1.43901 0
M  V30 16196 C 1492.35 -0.0553351 2.30734 0
M  V30 16197 C 1493.32 -0.825286 1.44147 0
M  V30 16198 O 1494.5 -0.804012 1.73033 0
M  V30 16199 C 1491.64 -1.02306 3.29587 0
M  V30 16200 C 1490.76 -0.250323 4.31274 0
M  V30 16201 C 1489.89 -1.2109 5.17214 0
M  V30 16202 C 1488.93 -0.427984 6.10602 0
M  V30 16203 N 1488.07 -1.33961 6.89202 0
M  V30 16204 H 1492.91 0.691038 2.89877 0
M  V30 16205 H 1490.45 0.352549 1.42813 0
M  V30 16206 H 1492.4 -1.59763 3.85398 0
M  V30 16207 H 1491.03 -1.73643 2.72117 0
M  V30 16208 H 1490.09 0.440359 3.77843 0
M  V30 16209 H 1491.4 0.358937 4.97507 0
M  V30 16210 H 1490.55 -1.85644 5.776 0
M  V30 16211 H 1489.29 -1.85408 4.51082 0
M  V30 16212 H 1488.3 0.230971 5.49315 0
M  V30 16213 H 1489.52 0.210639 6.78773 0
M  V30 16214 H 1487.47 -1.96978 6.25728 0
M  V30 16215 H 1487.38 -0.784655 7.51917 0
M  V30 16216 H 1488.65 -1.97363 7.54101 0
M  V30 16217 N 1492.88 -1.52852 0.383918 0
M  V30 16218 C 1493.83 -2.26294 -0.453826 0
M  V30 16219 C 1494.8 -1.27688 -1.0623 0
M  V30 16220 O 1495.98 -1.56507 -1.09134 0
M  V30 16221 C 1493.12 -3.06907 -1.57803 0
M  V30 16222 C 1492.24 -4.20434 -0.992943 0
M  V30 16223 C 1491.37 -4.88453 -2.08776 0
M  V30 16224 C 1490.41 -5.93981 -1.47828 0
M  V30 16225 N 1489.55 -6.55617 -2.51218 0
M  V30 16226 H 1494.39 -2.97462 0.178927 0
M  V30 16227 H 1491.92 -1.46759 0.100066 0
M  V30 16228 H 1493.88 -3.51933 -2.24052 0
M  V30 16229 H 1492.51 -2.37959 -2.18118 0
M  V30 16230 H 1491.56 -3.79762 -0.22021 0
M  V30 16231 H 1492.88 -4.96211 -0.507504 0
M  V30 16232 H 1492.03 -5.36755 -2.82806 0
M  V30 16233 H 1490.77 -4.12187 -2.60678 0
M  V30 16234 H 1489.77 -5.45023 -0.723202 0
M  V30 16235 H 1491 -6.72176 -0.967278 0
M  V30 16236 H 1488.95 -5.82195 -3.02299 0
M  V30 16237 H 1488.86 -7.26991 -2.07414 0
M  V30 16238 H 1490.13 -7.08564 -3.24895 0
M  V30 16239 N 1494.36 -0.113586 -1.5719 0
M  V30 16240 C 1495.29 0.868985 -2.12088 0
M  V30 16241 C 1496.3 1.23362 -1.06233 0
M  V30 16242 O 1497.49 1.18352 -1.33623 0
M  V30 16243 C 1494.59 2.17252 -2.60106 0
M  V30 16244 C 1493.77 1.9804 -3.89999 0
M  V30 16245 C 1492.83 3.12073 -4.23671 0
M  V30 16246 O 1491.85 2.85224 -4.92581 0
M  V30 16247 N 1493.05 4.38358 -3.80556 0
M  V30 16248 H 1495.82 0.399996 -2.97019 0
M  V30 16249 H 1493.38 0.0709947 -1.61744 0
M  V30 16250 H 1495.37 2.92523 -2.79665 0
M  V30 16251 H 1493.94 2.55516 -1.80084 0
M  V30 16252 H 1493.16 1.06993 -3.79402 0
M  V30 16253 H 1494.45 1.82502 -4.74943 0
M  V30 16254 H 1493.85 4.63048 -3.24966 0
M  V30 16255 H 1492.4 5.10518 -4.05234 0
M  V30 16256 N 1495.84 1.56784 0.160173 0
M  V30 16257 C 1497.09 1.8226 0.873253 0
M  V30 16258 C 1497.41 0.692384 1.82294 0
M  V30 16259 O 1496.68 -0.286961 1.93787 0
M  V30 16260 H 1495.26 0.672371 0.325463 0
M  V30 16261 H 1497.92 1.94264 0.157325 0
M  V30 16262 H 1497.01 2.76714 1.44345 0
M  V30 16263 N 1497.32 -0.429099 1.51646 0
M  V30 16264 C 1498.56 -1.17644 1.65926 0
M  V30 16265 C 1498.92 -1.88715 0.374777 0
M  V30 16266 O 1498.21 -1.80952 -0.629842 0
M  V30 16267 C 1498.4 -2.2131 2.80636 0
M  V30 16268 C 1498.23 -1.60416 4.20115 0
M  V30 16269 C 1497 -1.38551 4.85934 0
M  V30 16270 C 1499.2 -1.07589 5.0292 0
M  V30 16271 N 1497.18 -0.733404 6.09503 0
M  V30 16272 C 1498.55 -0.549542 6.1756 0
M  V30 16273 C 1500.61 -0.968438 4.88391 0
M  V30 16274 C 1499.31 0.07371 7.19262 0
M  V30 16275 C 1501.34 -0.359068 5.90309 0
M  V30 16276 C 1500.7 0.156699 7.04226 0
M  V30 16277 H 1496.8 -0.417871 0.66099 0
M  V30 16278 H 1499.38 -0.471789 1.88897 0
M  V30 16279 H 1497.55 -2.89155 2.59314 0
M  V30 16280 H 1499.29 -2.88263 2.84054 0
M  V30 16281 H 1496.04 -1.64953 4.43945 0
M  V30 16282 H 1496.46 -0.424555 6.75667 0
M  V30 16283 H 1501.11 -1.35305 4.00565 0
M  V30 16284 H 1498.82 0.470433 8.0673 0
M  V30 16285 H 1502.41 -0.277718 5.81137 0
M  V30 16286 H 1501.29 0.62081 7.81739 0
M  V30 16287 N 1498.79 -1.41931 -0.685074 0
M  V30 16288 C 1500.02 -1.45229 -1.47364 0
M  V30 16289 C 1500.44 -0.060595 -1.88703 0
M  V30 16290 O 1499.79 0.92244 -1.57472 0
M  V30 16291 C 1499.84 -2.37033 -2.72942 0
M  V30 16292 O 1499.57 -3.70787 -2.33342 0
M  V30 16293 C 1501.07 -2.49244 -3.66596 0
M  V30 16294 H 1498.29 -0.494291 -0.453781 0
M  V30 16295 H 1500.83 -1.86333 -0.84263 0
M  V30 16296 H 1498.99 -1.9921 -3.32256 0
M  V30 16297 H 1499.4 -4.19853 -3.14362 0
M  V30 16298 H 1500.87 -3.17624 -4.51463 0
M  V30 16299 H 1501.35 -1.52703 -4.11799 0
M  V30 16300 H 1501.96 -2.87747 -3.1318 0
M  V30 16301 N 1500.27 0.920374 -1.27933 0
M  V30 16302 C 1501.5 1.70275 -1.17533 0
M  V30 16303 C 1501.91 1.86904 0.266903 0
M  V30 16304 O 1501.27 1.39131 1.18105 0
M  V30 16305 C 1501.32 3.09847 -1.86219 0
M  V30 16306 O 1501.04 2.93992 -3.24808 0
M  V30 16307 C 1502.54 4.042 -1.82037 0
M  V30 16308 H 1499.76 0.53248 -0.408297 0
M  V30 16309 H 1502.31 1.1524 -1.68938 0
M  V30 16310 H 1500.46 3.61719 -1.38701 0
M  V30 16311 H 1500.88 3.82281 -3.59112 0
M  V30 16312 H 1502.35 4.99621 -2.34697 0
M  V30 16313 H 1502.83 4.32013 -0.791295 0
M  V30 16314 H 1503.43 3.58254 -2.29203 0
M  V30 16315 N 1501.75 1.10074 1.1279 0
M  V30 16316 C 1503 0.842118 1.84489 0
M  V30 16317 C 1503.33 -0.630737 1.83672 0
M  V30 16318 O 1502.6 -1.46481 1.27959 0
M  V30 16319 C 1502.89 1.3864 3.32342 0
M  V30 16320 C 1502.74 2.92585 3.41635 0
M  V30 16321 C 1504.06 1.02565 4.27982 0
M  V30 16322 H 1501.18 0.307376 0.669842 0
M  V30 16323 H 1503.82 1.36326 1.32345 0
M  V30 16324 H 1501.97 0.943134 3.76878 0
M  V30 16325 H 1503.64 3.4541 3.0576 0
M  V30 16326 H 1501.88 3.29378 2.82299 0
M  V30 16327 H 1502.56 3.25749 4.45636 0
M  V30 16328 H 1505.03 1.40807 3.91552 0
M  V30 16329 H 1503.91 1.43345 5.29852 0
M  V30 16330 H 1504.17 -0.0653712 4.42052 0
M  V30 16331 N 1503.23 -1.30138 0.888926 0
M  V30 16332 C 1504.48 -1.95602 0.508359 0
M  V30 16333 C 1504.8 -1.70495 -0.946377 0
M  V30 16334 O 1504.07 -1.03073 -1.66592 0
M  V30 16335 H 1502.65 -0.723728 0.185006 0
M  V30 16336 H 1505.31 -1.58594 1.13286 0
M  V30 16337 H 1504.4 -3.04559 0.681915 0
M  V30 16338 N 1504.71 -0.650285 -1.43559 0
M  V30 16339 C 1505.98 -0.0925343 -1.95381 0
M  V30 16340 C 1506.36 1.38668 -1.59168 0
M  V30 16341 O 1505.71 2.11069 -0.875324 0
M  V30 16342 C 1505.92 -0.335657 -3.47382 0
M  V30 16343 C 1507.27 -0.239032 -4.23927 0
M  V30 16344 O 1508.29 -0.268056 -3.5519 0
M  V30 16345 O 1507.15 -0.160241 -5.46265 0
M  V30 16346 H 1504.25 0.0113084 -0.826923 0
M  V30 16347 H 1506.79 -0.723319 -1.53513 0
M  V30 16348 H 1505.56 -1.36132 -3.66857 0
M  V30 16349 H 1505.19 0.328339 -3.96242 0
M  V30 16350 N 1506.18 1.52647 -0.392018 0
M  V30 16351 C 1507.11 2.29446 0.433228 0
M  V30 16352 C 1508.09 1.32945 1.06111 0
M  V30 16353 O 1509.28 1.61841 1.07337 0
M  V30 16354 C 1506.41 3.10328 1.55929 0
M  V30 16355 C 1505.36 4.14735 1.05731 0
M  V30 16356 C 1504.69 4.83858 2.27565 0
M  V30 16357 C 1505.99 5.22154 0.123346 0
M  V30 16358 H 1507.68 2.9868 -0.207563 0
M  V30 16359 H 1505.23 1.43643 -0.101266 0
M  V30 16360 H 1507.18 3.62814 2.14346 0
M  V30 16361 H 1505.91 2.38832 2.22771 0
M  V30 16362 H 1504.57 3.63234 0.495653 0
M  V30 16363 H 1504.21 4.08907 2.92923 0
M  V30 16364 H 1503.91 5.54428 1.94637 0
M  V30 16365 H 1505.44 5.39149 2.86619 0
M  V30 16366 H 1506.85 5.69983 0.615784 0
M  V30 16367 H 1505.25 5.99987 -0.116304 0
M  V30 16368 H 1506.32 4.77796 -0.826969 0
M  V30 16369 N 1507.66 0.121921 1.57128 0
M  V30 16370 C 1508.57 -0.840825 2.19014 0
M  V30 16371 C 1509.59 -1.29051 1.16712 0
M  V30 16372 O 1510.76 -1.35289 1.49194 0
M  V30 16373 C 1507.83 -2.07204 2.7797 0
M  V30 16374 C 1506.89 -1.67399 3.95318 0
M  V30 16375 C 1506.12 -2.84652 4.51452 0
M  V30 16376 O 1506.35 -4.00161 4.06482 0
M  V30 16377 O 1505.28 -2.61568 5.42094 0
M  V30 16378 H 1509.11 -0.344146 3.01744 0
M  V30 16379 H 1506.69 -0.103841 1.49039 0
M  V30 16380 H 1508.57 -2.79307 3.1554 0
M  V30 16381 H 1507.25 -2.55872 1.9827 0
M  V30 16382 H 1506.16 -0.92395 3.62511 0
M  V30 16383 H 1507.49 -1.2347 4.76462 0
M  V30 16384 N 1509.14 -1.56867 -0.151857 0
M  V30 16385 C 1510.39 -1.82721 -0.863575 0
M  V30 16386 C 1510.71 -0.702042 -1.81924 0
M  V30 16387 O 1509.98 0.27668 -1.93936 0
M  V30 16388 H 1508.56 -0.674088 -0.321893 0
M  V30 16389 H 1511.22 -1.94345 -0.14702 0
M  V30 16390 H 1510.32 -2.77476 -1.42876 0
M  V30 16391 N 1510.62 0.421051 -1.51871 0
M  V30 16392 C 1511.86 1.17838 -1.67013 0
M  V30 16393 C 1512.22 1.88083 -0.385861 0
M  V30 16394 O 1513.42 2.65605 -0.41324 0
M  V30 16395 C 1511.69 2.15567 -2.85071 0
M  V30 16396 S 1513.25 2.99568 -3.20631 0
M  V30 16397 H 1510.07 0.399375 -0.588235 0
M  V30 16398 H 1512.67 0.46746 -1.89829 0
M  V30 16399 H 1511.38 1.62629 -3.76802 0
M  V30 16400 H 1510.91 2.91216 -2.64493 0
M  V30 16401 H 1512.92 4.1739 -2.68328 0
M  V30 16402 N 1512.1 1.42293 0.677538 0
M  V30 16403 C 1513.34 1.42827 1.43973 0
M  V30 16404 C 1513.68 0.0435041 1.94151 0
M  V30 16405 O 1512.95 -0.931794 1.70727 0
M  V30 16406 C 1513.23 2.45037 2.63873 0
M  V30 16407 C 1513.09 3.92694 2.19344 0
M  V30 16408 C 1514.41 2.4427 3.66087 0
M  V30 16409 H 1511.52 0.520097 0.522176 0
M  V30 16410 H 1514.17 1.73688 0.770219 0
M  V30 16411 H 1512.32 2.18851 3.20993 0
M  V30 16412 H 1513.99 4.2985 1.67412 0
M  V30 16413 H 1512.23 4.06692 1.50944 0
M  V30 16414 H 1512.9 4.59784 3.05455 0
M  V30 16415 H 1515.38 2.67551 3.18678 0
M  V30 16416 H 1514.25 3.17769 4.47564 0
M  V30 16417 H 1514.52 1.46769 4.17027 0
M  V30 16418 N 1513.57 -0.913576 1.28419 0
M  V30 16419 C 1514.52 -2.00257 1.09001 0
M  V30 16420 C 1515.51 -1.60894 0.0136118 0
M  V30 16421 O 1516.7 -1.75449 0.233769 0
M  V30 16422 C 1513.83 -3.34916 0.754073 0
M  V30 16423 C 1512.92 -3.8068 1.86932 0
M  V30 16424 N 1513.31 -3.98814 3.11096 0
M  V30 16425 C 1511.6 -4.09839 1.75921 0
M  V30 16426 C 1512.31 -4.37149 3.83765 0
M  V30 16427 N 1511.28 -4.45417 3.11616 0
M  V30 16428 H 1515.08 -2.12327 2.0321 0
M  V30 16429 H 1512.6 -1.10143 1.19341 0
M  V30 16430 H 1514.59 -4.12617 0.596035 0
M  V30 16431 H 1513.25 -3.24199 -0.180246 0
M  V30 16432 H 1514.27 -3.84729 3.46705 0
M  V30 16433 H 1510.94 -4.07757 0.896679 0
M  V30 16434 H 1512.33 -4.5914 4.9055 0
M  V30 16435 N 1515.05 -1.1067 -1.12204 0
M  V30 16436 C 1516.28 -0.871601 -1.87314 0
M  V30 16437 C 1516.69 0.581644 -1.80038 0
M  V30 16438 O 1516.03 1.4129 -1.17401 0
M  V30 16439 C 1516.1 -1.24458 -3.37269 0
M  V30 16440 C 1515.76 -2.70536 -3.6832 0
M  V30 16441 C 1516.76 -3.68769 -3.66477 0
M  V30 16442 C 1514.44 -3.06982 -3.97577 0
M  V30 16443 C 1516.44 -5.01471 -3.93454 0
M  V30 16444 C 1514.12 -4.39871 -4.24213 0
M  V30 16445 C 1515.12 -5.36924 -4.22139 0
M  V30 16446 O 1514.81 -6.6742 -4.48113 0
M  V30 16447 H 1514.54 -0.312472 -0.599447 0
M  V30 16448 H 1517.09 -1.47562 -1.4288 0
M  V30 16449 H 1515.32 -0.583674 -3.8227 0
M  V30 16450 H 1517.01 -0.986569 -3.93728 0
M  V30 16451 H 1517.78 -3.41957 -3.43934 0
M  V30 16452 H 1513.66 -2.32062 -3.98332 0
M  V30 16453 H 1517.2 -5.77215 -3.9175 0
M  V30 16454 H 1513.1 -4.6642 -4.46231 0
M  V30 16455 H 1513.87 -6.73088 -4.6572 0
M  V30 16456 N 1516.53 1.29665 -0.895815 0
M  V30 16457 C 1517.48 2.27831 -0.369011 0
M  V30 16458 C 1518.45 1.56843 0.546756 0
M  V30 16459 O 1519.63 1.84848 0.472837 0
M  V30 16460 C 1516.77 3.42764 0.400884 0
M  V30 16461 C 1515.89 4.28544 -0.545335 0
M  V30 16462 C 1515.02 5.30652 0.241228 0
M  V30 16463 C 1514.06 6.08087 -0.699765 0
M  V30 16464 N 1513.2 7.02081 0.0521477 0
M  V30 16465 H 1518.04 2.72274 -1.21124 0
M  V30 16466 H 1515.57 1.33918 -0.608631 0
M  V30 16467 H 1517.53 4.08171 0.863277 0
M  V30 16468 H 1516.16 2.99361 1.2076 0
M  V30 16469 H 1515.21 3.63346 -1.12624 0
M  V30 16470 H 1516.53 4.82472 -1.26579 0
M  V30 16471 H 1515.68 6.01858 0.764994 0
M  V30 16472 H 1514.42 4.77446 0.994838 0
M  V30 16473 H 1513.42 5.35748 -1.23507 0
M  V30 16474 H 1514.65 6.63382 -1.45264 0
M  V30 16475 H 1512.59 6.51249 0.788096 0
M  V30 16476 H 1512.51 7.53547 -0.60847 0
M  V30 16477 H 1513.78 7.77512 0.556304 0
M  V30 16478 N 1518.01 0.657889 1.43212 0
M  V30 16479 C 1519.25 0.173443 2.02057 0
M  V30 16480 C 1519.59 -1.21108 1.51811 0
M  V30 16481 O 1518.86 -1.80953 0.71317 0
M  V30 16482 C 1519.15 0.189429 3.59601 0
M  V30 16483 C 1519 1.6082 4.20068 0
M  V30 16484 C 1520.32 -0.471633 4.37566 0
M  V30 16485 H 1517.44 0.0644999 0.734172 0
M  V30 16486 H 1520.08 0.839462 1.7045 0
M  V30 16487 H 1518.23 -0.377689 3.8666 0
M  V30 16488 H 1519.9 2.22627 4.04024 0
M  V30 16489 H 1518.14 2.15407 3.7654 0
M  V30 16490 H 1518.81 1.5712 5.29167 0
M  V30 16491 H 1521.29 0.0109387 4.16099 0
M  V30 16492 H 1520.17 -0.429739 5.47215 0
M  V30 16493 H 1520.43 -1.54652 4.14168 0
M  V30 16494 N 1519.49 -1.52437 0.400108 0
M  V30 16495 C 1520.73 -2.0201 -0.17887 0
M  V30 16496 C 1521.07 -1.2856 -1.45554 0
M  V30 16497 O 1520.34 -0.389236 -1.90565 0
M  V30 16498 C 1520.62 -3.57453 -0.435784 0
M  V30 16499 C 1520.48 -4.41562 0.85693 0
M  V30 16500 C 1521.8 -4.228 -1.2218 0
M  V30 16501 H 1518.91 -0.734256 -0.063535 0
M  V30 16502 H 1521.56 -1.82406 0.531801 0
M  V30 16503 H 1519.71 -3.74288 -1.04117 0
M  V30 16504 H 1521.38 -4.36456 1.49344 0
M  V30 16505 H 1519.62 -4.08138 1.46989 0
M  V30 16506 H 1520.29 -5.48374 0.631675 0
M  V30 16507 H 1522.77 -4.10009 -0.709359 0
M  V30 16508 H 1521.64 -5.3152 -1.37031 0
M  V30 16509 H 1521.91 -3.81153 -2.23998 0
M  V30 16510 N 1520.96 -0.130252 -1.57061 0
M  V30 16511 C 1521.91 0.815767 -2.15902 0
M  V30 16512 C 1522.88 1.2558 -1.08715 0
M  V30 16513 O 1524.07 1.33132 -1.36677 0
M  V30 16514 C 1521.21 2.0561 -2.77162 0
M  V30 16515 C 1520.32 1.6634 -3.98692 0
M  V30 16516 C 1519.45 2.85425 -4.48002 0
M  V30 16517 C 1518.49 2.42449 -5.62036 0
M  V30 16518 N 1517.63 3.54486 -6.0604 0
M  V30 16519 H 1522.47 0.307164 -2.96413 0
M  V30 16520 H 1520.01 0.139913 -1.46433 0
M  V30 16521 H 1521.97 2.78298 -3.10815 0
M  V30 16522 H 1520.6 2.5391 -1.99323 0
M  V30 16523 H 1519.65 0.834817 -3.71127 0
M  V30 16524 H 1520.96 1.30765 -4.81354 0
M  V30 16525 H 1520.11 3.66325 -4.83623 0
M  V30 16526 H 1518.85 3.24235 -3.64312 0
M  V30 16527 H 1517.86 1.59985 -5.26008 0
M  V30 16528 H 1519.08 2.04744 -6.475 0
M  V30 16529 H 1517.03 3.92948 -5.25289 0
M  V30 16530 H 1516.95 3.22871 -6.83586 0
M  V30 16531 H 1518.21 4.35792 -6.46302 0
M  V30 16532 N 1522.44 1.56945 0.143535 0
M  V30 16533 C 1523.67 1.87429 0.869139 0
M  V30 16534 C 1524.08 0.716856 1.75094 0
M  V30 16535 O 1523.42 -0.322379 1.80849 0
M  V30 16536 C 1523.49 3.12657 1.77442 0
M  V30 16537 C 1523.15 4.44311 1.06943 0
M  V30 16538 C 1524.15 5.18187 0.421706 0
M  V30 16539 C 1521.83 4.91033 1.05791 0
M  V30 16540 C 1523.83 6.36992 -0.228127 0
M  V30 16541 C 1521.51 6.09761 0.404266 0
M  V30 16542 C 1522.51 6.82587 -0.237621 0
M  V30 16543 O 1522.2 7.99059 -0.880893 0
M  V30 16544 H 1521.93 0.625443 0.256508 0
M  V30 16545 H 1524.49 2.04922 0.139979 0
M  V30 16546 H 1522.72 2.91181 2.54461 0
M  V30 16547 H 1524.4 3.29359 2.37228 0
M  V30 16548 H 1525.17 4.83157 0.422395 0
M  V30 16549 H 1521.05 4.3427 1.54694 0
M  V30 16550 H 1524.59 6.93773 -0.729732 0
M  V30 16551 H 1520.49 6.44252 0.401256 0
M  V30 16552 H 1521.26 8.14747 -0.782907 0
M  V30 16553 N 1523.92 -0.412991 1.52093 0
M  V30 16554 C 1524.83 -1.52768 1.78042 0
M  V30 16555 C 1525.85 -1.60758 0.665791 0
M  V30 16556 O 1527.02 -1.77545 0.950772 0
M  V30 16557 C 1524.09 -2.8854 1.92213 0
M  V30 16558 C 1523.15 -2.90468 3.16112 0
M  V30 16559 C 1522.38 -4.19763 3.29598 0
M  V30 16560 O 1522.61 -5.13454 2.48438 0
M  V30 16561 O 1521.54 -4.2847 4.22726 0
M  V30 16562 H 1525.37 -1.33777 2.72649 0
M  V30 16563 H 1522.95 -0.598461 1.3689 0
M  V30 16564 H 1524.83 -3.69073 2.03379 0
M  V30 16565 H 1523.51 -3.07607 1.00795 0
M  V30 16566 H 1522.41 -2.08801 3.10408 0
M  V30 16567 H 1523.75 -2.76349 4.07298 0
M  V30 16568 N 1525.4 -1.4265 -0.669982 0
M  V30 16569 C 1526.82 -1.25682 -0.983682 0
M  V30 16570 C 1527.02 -0.164456 -2.00828 0
M  V30 16571 O 1526.07 0.462711 -2.48224 0
M  V30 16572 C 1527.38 -2.61536 -1.4839 0
M  V30 16573 C 1528.93 -2.6893 -1.60143 0
M  V30 16574 C 1529.41 -4.05162 -2.1356 0
M  V30 16575 N 1530.9 -4.07141 -2.20886 0
M  V30 16576 C 1531.63 -5.09371 -2.63303 0
M  V30 16577 N 1531.13 -6.21983 -3.05137 0
M  V30 16578 N 1532.92 -4.96727 -2.63094 0
M  V30 16579 H 1525.07 -2.12398 0.0083059 0
M  V30 16580 H 1527.34 -0.946173 -0.058823 0
M  V30 16581 H 1527.04 -3.42351 -0.805527 0
M  V30 16582 H 1526.92 -2.85786 -2.46183 0
M  V30 16583 H 1529.3 -1.88457 -2.27085 0
M  V30 16584 H 1529.38 -2.48463 -0.608266 0
M  V30 16585 H 1529.03 -4.86094 -1.47224 0
M  V30 16586 H 1528.96 -4.22984 -3.13676 0
M  V30 16587 H 1531.45 -3.25846 -1.91396 0
M  V30 16588 H 1531.76 -6.95835 -3.36204 0
M  V30 16589 H 1530.11 -6.25481 -3.02983 0
M  V30 16590 H 1533.3 -4.07824 -2.29777 0
M  V30 16591 H 1533.47 -5.76531 -2.95831 0
M  V30 16592 N 1526.88 0.906753 -1.28902 0
M  V30 16593 C 1528.13 1.65119 -1.15839 0
M  V30 16594 C 1528.44 1.93426 0.290825 0
M  V30 16595 O 1529.65 2.66021 0.542678 0
M  V30 16596 C 1528.1 2.97492 -2.0255 0
M  V30 16597 C 1527.71 2.76807 -3.52253 0
M  V30 16598 C 1529.45 3.75393 -1.98192 0
M  V30 16599 C 1527.36 4.04863 -4.31091 0
M  V30 16600 H 1526.29 0.619409 -0.429939 0
M  V30 16601 H 1528.94 1.00567 -1.53488 0
M  V30 16602 H 1527.32 3.63217 -1.57763 0
M  V30 16603 H 1528.5 2.19719 -4.05044 0
M  V30 16604 H 1526.81 2.1231 -3.58209 0
M  V30 16605 H 1529.41 4.70325 -2.54358 0
M  V30 16606 H 1529.75 4.05074 -0.960267 0
M  V30 16607 H 1530.29 3.16498 -2.40985 0
M  V30 16608 H 1527.02 3.80353 -5.33865 0
M  V30 16609 H 1526.54 4.61537 -3.83072 0
M  V30 16610 H 1528.22 4.73066 -4.41381 0
M  V30 16611 N 1528.36 1.11264 1.11616 0
M  V30 16612 C 1529.3 0.769295 2.17602 0
M  V30 16613 C 1530.27 -0.258362 1.64078 0
M  V30 16614 O 1531.46 -0.135698 1.90317 0
M  V30 16615 C 1528.6 0.216647 3.44419 0
M  V30 16616 C 1527.71 1.30064 4.11955 0
M  V30 16617 C 1526.85 0.708729 5.26451 0
M  V30 16618 C 1525.88 1.7727 5.85868 0
M  V30 16619 N 1525.02 1.20042 6.91762 0
M  V30 16620 H 1529.86 1.67727 2.46316 0
M  V30 16621 H 1527.4 0.83764 1.20921 0
M  V30 16622 H 1529.36 -0.121724 4.17022 0
M  V30 16623 H 1527.99 -0.654525 3.16095 0
M  V30 16624 H 1527.04 1.756 3.37445 0
M  V30 16625 H 1528.35 2.1057 4.52174 0
M  V30 16626 H 1527.5 0.320307 6.05854 0
M  V30 16627 H 1526.24 -0.127668 4.87533 0
M  V30 16628 H 1525.25 2.17046 5.05145 0
M  V30 16629 H 1526.47 2.6121 6.26854 0
M  V30 16630 H 1524.42 0.385633 6.54866 0
M  V30 16631 H 1524.34 1.94221 7.30626 0
M  V30 16632 H 1525.6 0.838825 7.74974 0
M  V30 16633 N 1529.83 -1.29188 0.902679 0
M  V30 16634 C 1531.08 -1.95438 0.530124 0
M  V30 16635 C 1531.41 -1.71142 -0.924149 0
M  V30 16636 O 1530.66 -1.01901 -1.67077 0
M  V30 16637 C 1530.96 -3.48951 0.772542 0
M  V30 16638 C 1530.63 -3.93328 2.20464 0
M  V30 16639 C 1529.29 -4.05155 2.59621 0
M  V30 16640 C 1531.64 -4.16216 3.13709 0
M  V30 16641 C 1528.97 -4.37242 3.91198 0
M  V30 16642 C 1531.32 -4.49779 4.44839 0
M  V30 16643 C 1529.99 -4.59817 4.83865 0
M  V30 16644 H 1529.26 -0.715158 0.193986 0
M  V30 16645 H 1531.9 -1.5373 1.1419 0
M  V30 16646 H 1530.21 -3.91723 0.0778683 0
M  V30 16647 H 1531.91 -3.98311 0.463623 0
M  V30 16648 H 1528.5 -3.84641 1.89075 0
M  V30 16649 H 1532.68 -4.06542 2.8467 0
M  V30 16650 H 1527.94 -4.43217 4.21152 0
M  V30 16651 H 1532.11 -4.66439 5.17115 0
M  V30 16652 H 1529.74 -4.84435 5.85856 0
M  V30 16653 N 1531.31 -0.665475 -1.42861 0
M  V30 16654 C 1532.24 0.00482845 -2.335 0
M  V30 16655 C 1533.22 0.799135 -1.50159 0
M  V30 16656 O 1534.41 0.75816 -1.78789 0
M  V30 16657 C 1531.54 0.963347 -3.33672 0
M  V30 16658 C 1530.49 0.278294 -4.27094 0
M  V30 16659 C 1529.82 1.34911 -5.174 0
M  V30 16660 C 1531.12 -0.836925 -5.15551 0
M  V30 16661 H 1532.81 -0.752129 -2.89799 0
M  V30 16662 H 1530.36 -0.363139 -1.39346 0
M  V30 16663 H 1532.31 1.44128 -3.95986 0
M  V30 16664 H 1531.03 1.75161 -2.75656 0
M  V30 16665 H 1529.69 -0.179314 -3.66161 0
M  V30 16666 H 1529.34 2.12912 -4.55716 0
M  V30 16667 H 1529.04 0.895919 -5.8073 0
M  V30 16668 H 1530.57 1.82816 -5.8259 0
M  V30 16669 H 1531.98 -0.440617 -5.71604 0
M  V30 16670 H 1530.38 -1.21533 -5.87665 0
M  V30 16671 H 1531.45 -1.6897 -4.54507 0
M  V30 16672 N 1532.79 1.52222 -0.408187 0
M  V30 16673 C 1534.04 2.02102 0.168154 0
M  V30 16674 C 1534.37 1.2933 1.4487 0
M  V30 16675 O 1533.64 0.399336 1.90356 0
M  V30 16676 C 1533.93 3.57679 0.416821 0
M  V30 16677 C 1533.78 4.41101 -0.880335 0
M  V30 16678 C 1535.1 4.23442 1.19936 0
M  V30 16679 H 1532.22 0.734583 0.0596402 0
M  V30 16680 H 1534.86 1.82121 -0.541467 0
M  V30 16681 H 1533.01 3.74835 1.02131 0
M  V30 16682 H 1534.68 4.35658 -1.51656 0
M  V30 16683 H 1532.92 4.07353 -1.49152 0
M  V30 16684 H 1533.6 5.48031 -0.660748 0
M  V30 16685 H 1536.07 4.10379 0.687605 0
M  V30 16686 H 1534.95 5.32239 1.3421 0
M  V30 16687 H 1535.21 3.82335 2.21973 0
M  V30 16688 N 1534.27 0.138579 1.5699 0
M  V30 16689 C 1535.52 -0.514545 1.95026 0
M  V30 16690 C 1535.83 -1.66565 1.02544 0
M  V30 16691 O 1537.04 -2.38284 1.30126 0
M  V30 16692 C 1535.49 -0.966746 3.46673 0
M  V30 16693 C 1535.1 0.156969 4.47725 0
M  V30 16694 C 1536.84 -1.59014 3.93592 0
M  V30 16695 C 1534.75 -0.313031 5.90571 0
M  V30 16696 H 1533.68 -0.195991 0.728082 0
M  V30 16697 H 1536.33 0.221575 1.82157 0
M  V30 16698 H 1534.71 -1.75788 3.54845 0
M  V30 16699 H 1535.89 0.933728 4.51241 0
M  V30 16700 H 1534.2 0.688238 4.10673 0
M  V30 16701 H 1536.8 -1.95326 4.97747 0
M  V30 16702 H 1537.14 -2.47595 3.34668 0
M  V30 16703 H 1537.68 -0.864061 3.88302 0
M  V30 16704 H 1534.41 0.5372 6.53295 0
M  V30 16705 H 1533.93 -1.05585 5.90434 0
M  V30 16706 H 1535.61 -0.767826 6.42428 0
M  V30 16707 N 1535.75 -1.57019 -0.13521 0
M  V30 16708 C 1536.71 -1.98229 -1.15056 0
M  V30 16709 C 1537.71 -0.870295 -1.35213 0
M  V30 16710 O 1538.9 -1.13668 -1.32005 0
M  V30 16711 C 1536.03 -2.30844 -2.50846 0
M  V30 16712 H 1537.22 -2.89123 -0.796744 0
M  V30 16713 H 1534.78 -1.51636 -0.378962 0
M  V30 16714 H 1535.51 -1.42779 -2.91178 0
M  V30 16715 H 1535.3 -3.11931 -2.37574 0
M  V30 16716 H 1536.79 -2.63524 -3.23952 0
M  V30 16717 N 1537.22 0.404919 -1.52309 0
M  V30 16718 C 1538.15 1.50039 -1.78915 0
M  V30 16719 C 1539.14 1.57587 -0.640329 0
M  V30 16720 O 1540.32 1.72793 -0.886344 0
M  V30 16721 C 1537.45 2.87819 -1.94364 0
M  V30 16722 C 1536.4 2.9512 -3.09981 0
M  V30 16723 C 1535.73 4.35195 -3.10659 0
M  V30 16724 C 1537.03 2.66219 -4.4936 0
M  V30 16725 H 1538.72 1.28025 -2.70647 0
M  V30 16726 H 1536.27 0.61445 -1.30233 0
M  V30 16727 H 1538.22 3.64446 -2.11559 0
M  V30 16728 H 1536.95 3.11136 -0.993067 0
M  V30 16729 H 1535.61 2.20939 -2.92543 0
M  V30 16730 H 1535.25 4.55528 -2.13316 0
M  V30 16731 H 1534.95 4.41003 -3.88317 0
M  V30 16732 H 1536.48 5.1375 -3.29989 0
M  V30 16733 H 1537.89 3.32567 -4.66982 0
M  V30 16734 H 1536.29 2.83398 -5.28967 0
M  V30 16735 H 1537.36 1.61636 -4.57167 0
M  V30 16736 N 1538.7 1.43003 0.662408 0
M  V30 16737 C 1539.65 1.47448 1.77561 0
M  V30 16738 C 1540.62 0.325121 1.62887 0
M  V30 16739 O 1541.8 0.530971 1.83263 0
M  V30 16740 C 1538.94 1.3946 3.15666 0
M  V30 16741 C 1538.06 2.64529 3.41539 0
M  V30 16742 C 1537.19 2.48594 4.69441 0
M  V30 16743 C 1536.23 3.68976 4.88388 0
M  V30 16744 N 1535.37 3.51908 6.0754 0
M  V30 16745 H 1540.21 2.42573 1.73097 0
M  V30 16746 H 1537.75 1.2042 0.84484 0
M  V30 16747 H 1539.7 1.32824 3.95492 0
M  V30 16748 H 1538.33 0.479227 3.19223 0
M  V30 16749 H 1537.39 2.81481 2.55877 0
M  V30 16750 H 1538.7 3.53977 3.51429 0
M  V30 16751 H 1537.85 2.39614 5.57378 0
M  V30 16752 H 1536.59 1.56656 4.61855 0
M  V30 16753 H 1535.6 3.78374 3.9889 0
M  V30 16754 H 1536.82 4.61911 4.9781 0
M  V30 16755 H 1534.77 2.62697 6.01104 0
M  V30 16756 H 1534.68 4.34951 6.18347 0
M  V30 16757 H 1535.95 3.46763 6.98123 0
M  V30 16758 N 1540.18 -0.899904 1.29381 0
M  V30 16759 C 1541.41 -1.68911 1.20349 0
M  V30 16760 C 1541.83 -1.86657 -0.232523 0
M  V30 16761 O 1541.19 -1.38674 -1.16787 0
M  V30 16762 C 1541.24 -3.05124 1.92177 0
M  V30 16763 O 1540.34 -3.93358 1.23867 0
M  V30 16764 H 1539.68 -0.516698 0.417036 0
M  V30 16765 H 1542.21 -1.12422 1.70946 0
M  V30 16766 H 1542.22 -3.55267 2.00623 0
M  V30 16767 H 1540.9 -2.91525 2.96624 0
M  V30 16768 H 1539.47 -3.51793 1.23677 0
M  V30 16769 N 1541.66 -1.11854 -1.11024 0
M  V30 16770 C 1542.88 -0.892999 -1.8719 0
M  V30 16771 C 1543.31 0.552058 -1.79816 0
M  V30 16772 O 1542.67 1.39025 -1.16369 0
M  V30 16773 C 1542.71 -1.3647 -3.33779 0
M  V30 16774 O 1541.82 -0.539202 -4.0886 0
M  V30 16775 H 1541.16 -0.321319 -0.581076 0
M  V30 16776 H 1543.69 -1.4891 -1.4031 0
M  V30 16777 H 1543.7 -1.3611 -3.84627 0
M  V30 16778 H 1542.37 -2.41694 -3.38462 0
M  V30 16779 H 1540.95 -0.60927 -3.67889 0
M  V30 16780 N 1543.14 1.28707 -0.909517 0
M  V30 16781 C 1544.38 1.95443 -0.541281 0
M  V30 16782 C 1544.72 1.71457 0.911934 0
M  V30 16783 O 1543.99 1.03312 1.64794 0
M  V30 16784 C 1544.27 3.50019 -0.846097 0
M  V30 16785 C 1544.13 3.83423 -2.35173 0
M  V30 16786 C 1545.45 4.3879 -0.339328 0
M  V30 16787 H 1542.56 0.709869 -0.198128 0
M  V30 16788 H 1545.21 1.52151 -1.13799 0
M  V30 16789 H 1543.36 3.87025 -0.338262 0
M  V30 16790 H 1545.03 3.5631 -2.92986 0
M  V30 16791 H 1543.27 3.30618 -2.80846 0
M  V30 16792 H 1543.94 4.91348 -2.51557 0
M  V30 16793 H 1546.42 4.08832 -0.774312 0
M  V30 16794 H 1545.29 5.45809 -0.581722 0
M  V30 16795 H 1545.56 4.35514 0.760244 0
M  V30 16796 N 1544.61 0.673042 1.42506 0
M  V30 16797 C 1545.52 -0.00648572 2.34599 0
M  V30 16798 C 1546.54 -0.790758 1.54994 0
M  V30 16799 O 1547.72 -0.733482 1.87569 0
M  V30 16800 C 1544.78 -0.94734 3.33506 0
M  V30 16801 C 1543.84 -0.157795 4.2901 0
M  V30 16802 C 1543.08 -1.05384 5.23192 0
M  V30 16803 O 1543.3 -2.29334 5.22266 0
M  V30 16804 O 1542.23 -0.515584 5.99688 0
M  V30 16805 H 1546.06 0.752059 2.94241 0
M  V30 16806 H 1543.64 0.433272 1.42979 0
M  V30 16807 H 1545.53 -1.4875 3.94273 0
M  V30 16808 H 1544.2 -1.68577 2.7634 0
M  V30 16809 H 1543.11 0.426426 3.71662 0
M  V30 16810 H 1544.44 0.54148 4.89212 0
M  V30 16811 N 1546.09 -1.52004 0.416254 0
M  V30 16812 C 1547.34 -2.02188 -0.157434 0
M  V30 16813 C 1547.67 -1.30097 -1.44182 0
M  V30 16814 O 1546.95 -0.409426 -1.90142 0
M  V30 16815 C 1547.23 -3.57896 -0.397847 0
M  V30 16816 C 1547.08 -4.40628 0.903715 0
M  V30 16817 C 1548.4 -4.24072 -1.17689 0
M  V30 16818 H 1545.52 -0.734889 -0.0557437 0
M  V30 16819 H 1548.16 -1.81831 0.551118 0
M  V30 16820 H 1546.31 -3.75372 -1.00142 0
M  V30 16821 H 1547.98 -4.34848 1.53964 0
M  V30 16822 H 1546.23 -4.06556 1.5131 0
M  V30 16823 H 1546.9 -5.47673 0.689802 0
M  V30 16824 H 1549.37 -4.10738 -0.665832 0
M  V30 16825 H 1548.25 -5.32944 -1.31386 0
M  V30 16826 H 1548.51 -3.83507 -2.19942 0
M  V30 16827 N 1547.57 -0.146903 -1.56914 0
M  V30 16828 C 1548.8 0.51044 -2.00195 0
M  V30 16829 C 1549.21 1.58966 -1.02599 0
M  V30 16830 O 1548.55 1.83694 -0.0149611 0
M  V30 16831 C 1548.61 1.17055 -3.39909 0
M  V30 16832 C 1548.28 0.235944 -4.56391 0
M  V30 16833 C 1549.27 -0.536351 -5.17126 0
M  V30 16834 C 1546.96 0.138878 -5.02108 0
M  V30 16835 C 1548.95 -1.39316 -6.21989 0
M  V30 16836 C 1546.64 -0.721538 -6.06825 0
M  V30 16837 C 1547.64 -1.48616 -6.66635 0
M  V30 16838 O 1547.33 -2.33224 -7.69325 0
M  V30 16839 H 1547.06 0.137381 -0.661893 0
M  V30 16840 H 1549.61 -0.23844 -2.04011 0
M  V30 16841 H 1547.84 1.96707 -3.32931 0
M  V30 16842 H 1549.53 1.72761 -3.67299 0
M  V30 16843 H 1550.3 -0.471393 -4.82704 0
M  V30 16844 H 1546.18 0.723769 -4.55283 0
M  V30 16845 H 1549.72 -1.99044 -6.68601 0
M  V30 16846 H 1545.62 -0.787788 -6.40675 0
M  V30 16847 H 1546.39 -2.26471 -7.86545 0
M  V30 16848 N 1549.05 1.57088 0.126881 0
M  V30 16849 C 1550.01 1.98836 1.14003 0
M  V30 16850 C 1551.01 0.877454 1.34749 0
M  V30 16851 O 1552.2 1.14366 1.314 0
M  V30 16852 C 1549.33 2.32171 2.49618 0
M  V30 16853 H 1550.53 2.89541 0.7814 0
M  V30 16854 H 1548.08 1.51835 0.370915 0
M  V30 16855 H 1548.81 1.44321 2.90417 0
M  V30 16856 H 1548.6 3.13187 2.35916 0
M  V30 16857 H 1550.09 2.65238 3.2255 0
M  V30 16858 N 1550.53 -0.396836 1.52522 0
M  V30 16859 C 1551.77 -1.14098 1.68384 0
M  V30 16860 C 1552.13 -1.87877 0.414722 0
M  V30 16861 O 1551.42 -1.82247 -0.591318 0
M  V30 16862 C 1551.61 -2.15308 2.85267 0
M  V30 16863 C 1551.44 -1.51469 4.23423 0
M  V30 16864 C 1550.21 -1.28212 4.88763 0
M  V30 16865 C 1552.41 -0.968974 5.05089 0
M  V30 16866 N 1550.39 -0.603954 6.10922 0
M  V30 16867 C 1551.76 -0.418425 6.18586 0
M  V30 16868 C 1553.82 -0.864625 4.90335 0
M  V30 16869 C 1552.52 0.22626 7.18944 0
M  V30 16870 C 1554.55 -0.233774 5.90938 0
M  V30 16871 C 1553.91 0.306041 7.03735 0
M  V30 16872 H 1550.01 -0.403756 0.669705 0
M  V30 16873 H 1552.59 -0.431615 1.89856 0
M  V30 16874 H 1550.76 -2.8359 2.65389 0
M  V30 16875 H 1552.5 -2.82173 2.90104 0
M  V30 16876 H 1549.25 -1.55499 4.47344 0
M  V30 16877 H 1549.68 -0.28114 6.76416 0
M  V30 16878 H 1554.32 -1.26778 4.03345 0
M  V30 16879 H 1552.04 0.641447 8.0555 0
M  V30 16880 H 1555.62 -0.154387 5.81595 0
M  V30 16881 H 1554.5 0.786488 7.80246 0
M  V30 16882 N 1552.01 -1.43353 -0.654814 0
M  V30 16883 C 1552.97 -1.4806 -1.7496 0
M  V30 16884 C 1553.97 -0.365513 -1.56591 0
M  V30 16885 O 1555.16 -0.627194 -1.62517 0
M  V30 16886 C 1552.29 -1.33165 -3.13815 0
M  V30 16887 H 1553.48 -2.45557 -1.72167 0
M  V30 16888 H 1551.04 -1.30094 -0.86632 0
M  V30 16889 H 1551.77 -0.366689 -3.2222 0
M  V30 16890 H 1551.56 -2.13998 -3.28553 0
M  V30 16891 H 1553.05 -1.39388 -3.93651 0
M  V30 16892 N 1553.48 0.89303 -1.29857 0
M  V30 16893 C 1554.89 1.45948 -1.16431 0
M  V30 16894 C 1555.25 1.94751 0.238051 0
M  V30 16895 O 1554.37 1.84302 1.1341 0
M  V30 16896 C 1554.97 2.6527 -2.10754 0
M  V30 16897 C 1553.52 3.1803 -2.0133 0
M  V30 16898 C 1552.67 1.90721 -2.01297 0
M  V30 16899 H 1555.62 0.70373 -1.42244 0
M  V30 16900 H 1555.64 3.41223 -1.68366 0
M  V30 16901 H 1555.16 2.2972 -3.1281 0
M  V30 16902 H 1553.26 3.58257 -1.02386 0
M  V30 16903 H 1553.37 3.81876 -2.89323 0
M  V30 16904 H 1551.73 2.0871 -1.45987 0
M  V30 16905 H 1552.52 1.5744 -3.0507 0
M  V30 16906 N 1554.96 1.12442 1.10429 0
M  V30 16907 C 1555.91 0.792332 2.16773 0
M  V30 16908 C 1556.88 -0.240945 1.64343 0
M  V30 16909 O 1558.06 -0.115504 1.9045 0
M  V30 16910 C 1555.2 0.253166 3.4417 0
M  V30 16911 C 1554.32 1.34426 4.10553 0
M  V30 16912 C 1553.45 0.764527 5.2567 0
M  V30 16913 C 1552.49 1.83474 5.83955 0
M  V30 16914 N 1551.63 1.27372 6.9045 0
M  V30 16915 H 1556.47 1.7033 2.44524 0
M  V30 16916 H 1554 0.850418 1.20026 0
M  V30 16917 H 1555.96 -0.0774862 4.17128 0
M  V30 16918 H 1554.59 -0.620962 3.16771 0
M  V30 16919 H 1553.64 1.79169 3.35563 0
M  V30 16920 H 1554.96 2.15354 4.49916 0
M  V30 16921 H 1554.11 0.384548 6.0548 0
M  V30 16922 H 1552.85 -0.0759512 4.87641 0
M  V30 16923 H 1551.85 2.22391 5.02814 0
M  V30 16924 H 1553.08 2.67844 6.24048 0
M  V30 16925 H 1551.03 0.455069 6.5442 0
M  V30 16926 H 1550.94 2.01959 7.28525 0
M  V30 16927 H 1552.21 0.920975 7.7404 0
M  V30 16928 N 1556.44 -1.28223 0.91633 0
M  V30 16929 C 1557.85 -1.76898 0.597003 0
M  V30 16930 C 1558.2 -1.74969 -0.887719 0
M  V30 16931 O 1557.33 -1.34598 -1.69447 0
M  V30 16932 C 1557.92 -3.21228 1.07694 0
M  V30 16933 C 1556.48 -3.67614 0.80849 0
M  V30 16934 C 1555.63 -2.47921 1.24219 0
M  V30 16935 H 1558.58 -1.1465 1.09732 0
M  V30 16936 H 1558.6 -3.7818 0.419531 0
M  V30 16937 H 1558.11 -3.226 2.15757 0
M  V30 16938 H 1556.21 -3.717 -0.258814 0
M  V30 16939 H 1556.33 -4.57633 1.41804 0
M  V30 16940 H 1554.69 -2.45976 0.660892 0
M  V30 16941 H 1555.47 -2.5201 2.33122 0
M  V30 16942 N 1557.92 -0.68059 -1.42147 0
M  V30 16943 C 1559.15 -0.213529 -2.05494 0
M  V30 16944 C 1559.56 1.13665 -1.51251 0
M  V30 16945 O 1558.9 1.71838 -0.649422 0
M  V30 16946 C 1558.96 -0.0774256 -3.59417 0
M  V30 16947 C 1558.62 -1.35724 -4.3638 0
M  V30 16948 C 1559.62 -2.29195 -4.66654 0
M  V30 16949 C 1557.31 -1.60645 -4.75918 0
M  V30 16950 C 1559.3 -3.45858 -5.35407 0
M  V30 16951 C 1556.99 -2.77597 -5.44411 0
M  V30 16952 C 1557.99 -3.70027 -5.74081 0
M  V30 16953 O 1557.67 -4.84933 -6.41167 0
M  V30 16954 H 1557.41 -0.100043 -0.668556 0
M  V30 16955 H 1559.96 -0.929384 -1.83171 0
M  V30 16956 H 1558.19 0.694062 -3.8042 0
M  V30 16957 H 1559.88 0.350509 -4.04384 0
M  V30 16958 H 1560.64 -2.11194 -4.36603 0
M  V30 16959 H 1556.52 -0.8957 -4.52215 0
M  V30 16960 H 1560.07 -4.18023 -5.58483 0
M  V30 16961 H 1555.96 -2.95521 -5.73879 0
M  V30 16962 H 1556.73 -4.84552 -6.5966 0
M  V30 16963 N 1559.4 1.51781 -0.424309 0
M  V30 16964 C 1560.35 2.24259 0.411339 0
M  V30 16965 C 1561.33 1.25976 1.00094 0
M  V30 16966 O 1562.52 1.51136 0.921238 0
M  V30 16967 C 1559.65 3.07858 1.51917 0
M  V30 16968 C 1558.74 4.13561 0.939599 0
M  V30 16969 N 1559.13 5.05723 0.08803 0
M  V30 16970 C 1557.43 4.29314 1.20855 0
M  V30 16971 C 1558.13 5.81221 -0.236076 0
M  V30 16972 N 1557.1 5.42291 0.376983 0
M  V30 16973 H 1560.9 2.92874 -0.2454 0
M  V30 16974 H 1558.42 1.60682 -0.235612 0
M  V30 16975 H 1560.42 3.58347 2.13056 0
M  V30 16976 H 1559.08 2.40784 2.17837 0
M  V30 16977 H 1560.09 5.17156 -0.277436 0
M  V30 16978 H 1556.76 3.73469 1.86621 0
M  V30 16979 H 1558.15 6.65457 -0.928241 0
M  V30 16980 N 1560.87 0.155222 1.56834 0
M  V30 16981 C 1561.82 -0.781315 2.17173 0
M  V30 16982 C 1562.79 -1.23835 1.10699 0
M  V30 16983 O 1563.98 -1.3094 1.38778 0
M  V30 16984 C 1561.12 -2.01174 2.80398 0
M  V30 16985 C 1560.23 -1.59976 4.01287 0
M  V30 16986 C 1559.36 -2.78262 4.52486 0
M  V30 16987 C 1558.4 -2.33477 5.65822 0
M  V30 16988 N 1557.54 -3.44799 6.11603 0
M  V30 16989 H 1562.38 -0.259968 2.96864 0
M  V30 16990 H 1559.92 -0.116599 1.46637 0
M  V30 16991 H 1561.87 -2.73318 3.15203 0
M  V30 16992 H 1560.5 -2.50706 2.03338 0
M  V30 16993 H 1559.56 -0.775668 3.72408 0
M  V30 16994 H 1560.87 -1.2309 4.83374 0
M  V30 16995 H 1560.02 -3.58585 4.89389 0
M  V30 16996 H 1558.76 -3.18398 3.69424 0
M  V30 16997 H 1557.77 -1.51596 5.28487 0
M  V30 16998 H 1558.99 -1.94417 6.50676 0
M  V30 16999 H 1556.94 -3.84541 5.31474 0
M  V30 17000 H 1556.85 -3.11955 6.88637 0
M  V30 17001 H 1558.12 -4.25454 6.53153 0
M  V30 17002 N 1562.35 -1.57153 -0.118549 0
M  V30 17003 C 1563.6 -1.84876 -0.826255 0
M  V30 17004 C 1563.93 -0.740373 -1.79858 0
M  V30 17005 O 1563.18 0.268233 -1.93853 0
M  V30 17006 C 1563.48 -3.19084 -1.60998 0
M  V30 17007 C 1563.15 -4.44069 -0.781911 0
M  V30 17008 C 1561.81 -4.78005 -0.553559 0
M  V30 17009 C 1564.16 -5.20798 -0.204739 0
M  V30 17010 C 1561.49 -5.86114 0.262212 0
M  V30 17011 C 1563.84 -6.29765 0.598225 0
M  V30 17012 C 1562.5 -6.62233 0.83689 0
M  V30 17013 H 1561.77 -0.676511 -0.302348 0
M  V30 17014 H 1564.42 -1.91295 -0.0886182 0
M  V30 17015 H 1562.73 -3.08243 -2.41854 0
M  V30 17016 H 1564.42 -3.37755 -2.16153 0
M  V30 17017 H 1561.01 -4.1748 -0.969984 0
M  V30 17018 H 1565.2 -4.94931 -0.368374 0
M  V30 17019 H 1560.45 -6.09695 0.456338 0
M  V30 17020 H 1564.63 -6.88401 1.05244 0
M  V30 17021 H 1562.25 -7.45835 1.47083 0
M  V30 17022 N 1563.83 0.388742 -1.5273 0
M  V30 17023 C 1564.76 1.49653 -1.72277 0
M  V30 17024 C 1565.74 1.52259 -0.570606 0
M  V30 17025 O 1566.92 1.70661 -0.80044 0
M  V30 17026 C 1564.05 2.88118 -1.78061 0
M  V30 17027 C 1563.1 3.03336 -2.99815 0
M  V30 17028 S 1563.93 2.74509 -4.59788 0
M  V30 17029 C 1565.09 4.15167 -4.68388 0
M  V30 17030 H 1565.32 1.32847 -2.65968 0
M  V30 17031 H 1562.85 0.581632 -1.43026 0
M  V30 17032 H 1564.81 3.6791 -1.82079 0
M  V30 17033 H 1563.47 3.0225 -0.854623 0
M  V30 17034 H 1562.66 4.04689 -3.00404 0
M  V30 17035 H 1562.27 2.31438 -2.9379 0
M  V30 17036 H 1564.56 5.09098 -4.47018 0
M  V30 17037 H 1565.5 4.19593 -5.70392 0
M  V30 17038 H 1565.91 4.01088 -3.97226 0
M  V30 17039 N 1565.31 1.43698 0.647203 0
M  V30 17040 C 1566.27 1.48986 1.74172 0
M  V30 17041 C 1567.27 0.373812 1.56395 0
M  V30 17042 O 1568.46 0.635804 1.62183 0
M  V30 17043 C 1565.59 1.34827 3.13104 0
M  V30 17044 H 1566.79 2.46467 1.70863 0
M  V30 17045 H 1564.34 1.30552 0.859409 0
M  V30 17046 H 1565.07 0.383772 3.22021 0
M  V30 17047 H 1564.86 2.15738 3.27414 0
M  V30 17048 H 1566.35 1.41473 3.92906 0
M  V30 17049 N 1566.79 -0.886131 1.30328 0
M  V30 17050 C 1568.03 -1.63784 1.19085 0
M  V30 17051 C 1568.36 -1.92825 -0.254697 0
M  V30 17052 O 1567.62 -1.54682 -1.19883 0
M  V30 17053 C 1567.92 -2.98624 1.96364 0
M  V30 17054 C 1567.58 -2.89139 3.45991 0
M  V30 17055 C 1566.24 -2.86259 3.86794 0
M  V30 17056 C 1568.6 -2.7735 4.41278 0
M  V30 17057 C 1565.92 -2.69428 5.21177 0
M  V30 17058 C 1568.28 -2.62057 5.75768 0
M  V30 17059 C 1566.94 -2.57551 6.15811 0
M  V30 17060 H 1566.21 -0.599327 0.435761 0
M  V30 17061 H 1568.86 -1.03037 1.61418 0
M  V30 17062 H 1567.16 -3.63315 1.46662 0
M  V30 17063 H 1568.86 -3.55746 1.85057 0
M  V30 17064 H 1565.45 -2.92189 3.13566 0
M  V30 17065 H 1569.63 -2.78642 4.10697 0
M  V30 17066 H 1564.89 -2.64353 5.51296 0
M  V30 17067 H 1569.06 -2.51909 6.49242 0
M  V30 17068 H 1566.69 -2.44268 7.19887 0
M  V30 17069 N 1568.26 -1.13026 -1.09832 0
M  V30 17070 C 1569.21 -0.803817 -2.1635 0
M  V30 17071 C 1570.18 0.232226 -1.64469 0
M  V30 17072 O 1571.37 0.105403 -1.90509 0
M  V30 17073 C 1568.51 -0.271414 -3.44031 0
M  V30 17074 C 1567.62 -1.36602 -4.09834 0
M  V30 17075 C 1566.75 -0.792393 -5.25257 0
M  V30 17076 C 1565.79 -1.86569 -5.82974 0
M  V30 17077 N 1564.93 -1.31032 -6.89764 0
M  V30 17078 H 1569.77 -1.71624 -2.43617 0
M  V30 17079 H 1567.31 -0.856772 -1.19574 0
M  V30 17080 H 1569.27 0.0553638 -4.17163 0
M  V30 17081 H 1567.9 0.604154 -3.17096 0
M  V30 17082 H 1566.95 -1.80946 -3.34608 0
M  V30 17083 H 1568.26 -2.17737 -4.48767 0
M  V30 17084 H 1567.41 -0.416652 -6.05268 0
M  V30 17085 H 1566.15 0.0500894 -4.87674 0
M  V30 17086 H 1565.16 -2.25054 -5.01628 0
M  V30 17087 H 1566.38 -2.7115 -6.22619 0
M  V30 17088 H 1564.33 -0.489768 -6.54169 0
M  V30 17089 H 1564.25 -2.0582 -7.27444 0
M  V30 17090 H 1565.51 -0.962011 -7.73541 0
M  V30 17091 N 1569.74 1.27735 -0.923117 0
M  V30 17092 C 1570.97 1.9922 -0.57672 0
M  V30 17093 C 1571.39 1.68446 0.837113 0
M  V30 17094 O 1570.75 0.922129 1.56098 0
M  V30 17095 C 1570.8 3.51528 -0.803768 0
M  V30 17096 O 1569.9 4.12186 0.132829 0
M  V30 17097 H 1569.24 0.625593 -0.222553 0
M  V30 17098 H 1571.77 1.62657 -1.24112 0
M  V30 17099 H 1571.78 4.01641 -0.717534 0
M  V30 17100 H 1570.46 3.7326 -1.83439 0
M  V30 17101 H 1569.04 3.729 -0.00292957 0
M  V30 17102 N 1571.22 0.688118 1.41784 0
M  V30 17103 C 1572.47 0.215944 2.01345 0
M  V30 17104 C 1572.8 -1.18197 1.54466 0
M  V30 17105 O 1572.05 -1.81032 0.743374 0
M  V30 17106 C 1572.35 0.213747 3.5676 0
M  V30 17107 C 1572.02 1.55816 4.23122 0
M  V30 17108 C 1570.68 1.92623 4.40964 0
M  V30 17109 C 1573.03 2.44297 4.604 0
M  V30 17110 C 1570.36 3.17511 4.93359 0
M  V30 17111 C 1572.71 3.68511 5.14182 0
M  V30 17112 C 1571.37 4.0547 5.30236 0
M  V30 17113 H 1570.64 0.0790193 0.736775 0
M  V30 17114 H 1573.29 0.885737 1.69785 0
M  V30 17115 H 1571.6 -0.539583 3.88067 0
M  V30 17116 H 1573.29 -0.169004 4.00644 0
M  V30 17117 H 1569.88 1.26186 4.09604 0
M  V30 17118 H 1574.07 2.17143 4.46277 0
M  V30 17119 H 1569.32 3.46151 5.03973 0
M  V30 17120 H 1573.5 4.37264 5.42008 0
M  V30 17121 H 1571.12 5.02316 5.70598 0
M  V30 17122 N 1572.7 -1.51554 0.432352 0
M  V30 17123 C 1573.95 -2.01645 -0.135511 0
M  V30 17124 C 1574.27 -1.31874 -1.43647 0
M  V30 17125 O 1573.54 -0.451746 -1.9062 0
M  V30 17126 H 1572.12 -0.745113 -0.0530683 0
M  V30 17127 H 1574.78 -1.86258 0.573917 0
M  V30 17128 H 1573.88 -3.10506 -0.315001 0
M  V30 17129 N 1574.18 -0.163538 -1.56749 0
M  V30 17130 C 1575.09 0.782461 -2.21167 0
M  V30 17131 C 1576.1 1.25911 -1.20093 0
M  V30 17132 O 1577.28 1.31286 -1.52728 0
M  V30 17133 C 1574.34 1.99761 -2.83366 0
M  V30 17134 C 1573.4 1.56859 -3.99617 0
M  V30 17135 C 1572.64 2.72582 -4.58841 0
M  V30 17136 O 1572.86 3.89243 -4.16949 0
M  V30 17137 O 1571.79 2.47104 -5.48838 0
M  V30 17138 H 1575.62 0.264023 -3.0255 0
M  V30 17139 H 1573.21 0.06429 -1.49262 0
M  V30 17140 H 1575.09 2.70843 -3.22835 0
M  V30 17141 H 1573.76 2.50526 -2.04984 0
M  V30 17142 H 1572.67 0.827511 -3.64833 0
M  V30 17143 H 1574 1.10794 -4.79568 0
M  V30 17144 N 1575.65 1.57214 0.110213 0
M  V30 17145 C 1576.58 2.04015 1.13579 0
M  V30 17146 C 1577.57 0.926215 1.42672 0
M  V30 17147 O 1578.75 1.19651 1.52962 0
M  V30 17148 C 1575.88 2.45187 2.45969 0
M  V30 17149 C 1574.83 3.60105 2.31319 0
M  V30 17150 C 1574.16 3.87205 3.68749 0
M  V30 17151 C 1575.46 4.91526 1.76635 0
M  V30 17152 H 1577.15 2.89944 0.746496 0
M  V30 17153 H 1574.7 1.39488 0.357642 0
M  V30 17154 H 1576.65 2.76534 3.17973 0
M  V30 17155 H 1575.38 1.56238 2.86805 0
M  V30 17156 H 1574.04 3.28981 1.61762 0
M  V30 17157 H 1573.68 2.95448 4.07087 0
M  V30 17158 H 1573.38 4.64563 3.59798 0
M  V30 17159 H 1574.91 4.21013 4.42245 0
M  V30 17160 H 1576.32 5.21351 2.38465 0
M  V30 17161 H 1574.72 5.72944 1.78482 0
M  V30 17162 H 1575.79 4.79456 0.724573 0
M  V30 17163 N 1577.13 -0.380637 1.52934 0
M  V30 17164 C 1578.38 -1.1265 1.68635 0
M  V30 17165 C 1578.71 -1.89397 0.429227 0
M  V30 17166 O 1577.99 -1.85863 -0.573182 0
M  V30 17167 C 1578.27 -2.09797 2.92673 0
M  V30 17168 C 1578.12 -1.36758 4.28506 0
M  V30 17169 C 1579.44 -3.10117 3.12274 0
M  V30 17170 H 1576.56 -0.408158 0.613658 0
M  V30 17171 H 1579.2 -0.408947 1.85547 0
M  V30 17172 H 1577.35 -2.70987 2.78385 0
M  V30 17173 H 1579.02 -0.784679 4.54577 0
M  V30 17174 H 1577.27 -0.669413 4.28604 0
M  V30 17175 H 1577.94 -2.07786 5.11399 0
M  V30 17176 H 1580.41 -2.59022 3.25648 0
M  V30 17177 H 1579.29 -3.75328 4.00525 0
M  V30 17178 H 1579.55 -3.79451 2.26868 0
M  V30 17179 N 1578.61 -1.44039 -0.639573 0
M  V30 17180 C 1579.56 -1.46693 -1.74543 0
M  V30 17181 C 1580.54 -0.333712 -1.57401 0
M  V30 17182 O 1581.74 -0.578443 -1.67281 0
M  V30 17183 C 1578.87 -1.40586 -3.13194 0
M  V30 17184 C 1577.95 -2.5899 -3.35835 0
M  V30 17185 N 1578.34 -3.84279 -3.28882 0
M  V30 17186 C 1576.64 -2.54005 -3.66602 0
M  V30 17187 C 1577.34 -4.63125 -3.5198 0
M  V30 17188 N 1576.32 -3.94067 -3.74449 0
M  V30 17189 H 1580.12 -2.41419 -1.67612 0
M  V30 17190 H 1577.63 -1.38883 -0.841739 0
M  V30 17191 H 1579.63 -1.4057 -3.92486 0
M  V30 17192 H 1578.29 -0.46891 -3.21296 0
M  V30 17193 H 1579.3 -4.16369 -3.07988 0
M  V30 17194 H 1575.98 -1.69065 -3.81737 0
M  V30 17195 H 1577.37 -5.72151 -3.52268 0
M  V30 17196 N 1580.09 0.879207 -1.30796 0
M  V30 17197 C 1581.04 1.98553 -1.17667 0
M  V30 17198 C 1582.01 1.65974 -0.0647231 0
M  V30 17199 O 1583.19 1.89336 -0.235941 0
M  V30 17200 C 1580.33 3.3368 -0.880434 0
M  V30 17201 C 1579.44 3.78913 -2.07482 0
M  V30 17202 C 1578.58 5.02714 -1.71617 0
M  V30 17203 C 1577.62 5.40371 -2.87517 0
M  V30 17204 N 1576.75 6.55352 -2.5191 0
M  V30 17205 H 1581.59 2.09115 -2.12309 0
M  V30 17206 H 1579.13 1.02382 -1.05623 0
M  V30 17207 H 1581.09 4.11467 -0.689278 0
M  V30 17208 H 1579.72 3.22787 0.0291283 0
M  V30 17209 H 1578.77 2.96987 -2.37704 0
M  V30 17210 H 1580.08 4.02757 -2.94259 0
M  V30 17211 H 1579.24 5.88142 -1.4891 0
M  V30 17212 H 1577.98 4.80754 -0.820181 0
M  V30 17213 H 1576.98 4.53466 -3.10883 0
M  V30 17214 H 1578.21 5.64301 -3.77811 0
M  V30 17215 H 1576.15 6.34956 -1.64823 0
M  V30 17216 H 1576.07 6.79093 -3.32217 0
M  V30 17217 H 1577.34 7.43996 -2.32573 0
M  V30 17218 N 1581.57 1.13606 1.09231 0
M  V30 17219 C 1582.98 0.91148 1.62938 0
M  V30 17220 C 1583.33 -0.55157 1.88287 0
M  V30 17221 O 1582.45 -1.4187 1.63407 0
M  V30 17222 C 1583.05 1.64812 2.96011 0
M  V30 17223 C 1581.61 1.46935 3.46536 0
M  V30 17224 C 1580.76 1.67605 2.20916 0
M  V30 17225 H 1583.71 1.28907 0.925669 0
M  V30 17226 H 1583.73 1.10638 3.6406 0
M  V30 17227 H 1583.24 2.71291 2.77529 0
M  V30 17228 H 1581.34 0.427667 3.70138 0
M  V30 17229 H 1581.45 2.23374 4.2384 0
M  V30 17230 H 1579.82 1.10105 2.29672 0
M  V30 17231 H 1580.6 2.75408 2.04952 0
M  V30 17232 N 1583.05 -1.27244 0.929878 0
M  V30 17233 C 1583.98 -2.29161 0.448066 0
M  V30 17234 C 1584.96 -1.62806 -0.492776 0
M  V30 17235 O 1586.14 -1.90098 -0.39706 0
M  V30 17236 C 1583.27 -3.46019 -0.298002 0
M  V30 17237 C 1582.23 -4.24384 0.555211 0
M  V30 17238 C 1581.55 -5.33741 -0.320153 0
M  V30 17239 C 1582.85 -4.89535 1.8208 0
M  V30 17240 H 1584.55 -2.69712 1.29983 0
M  V30 17241 H 1582.09 -1.29659 0.626466 0
M  V30 17242 H 1584.04 -4.16419 -0.646024 0
M  V30 17243 H 1582.77 -3.0439 -1.18381 0
M  V30 17244 H 1581.43 -3.55733 0.885971 0
M  V30 17245 H 1581.08 -4.88354 -1.20498 0
M  V30 17246 H 1580.78 -5.8708 0.247241 0
M  V30 17247 H 1582.3 -6.06982 -0.663697 0
M  V30 17248 H 1583.71 -5.52209 1.54071 0
M  V30 17249 H 1582.11 -5.52941 2.33186 0
M  V30 17250 H 1583.18 -4.13113 2.53901 0
M  V30 17251 N 1584.52 -0.695628 -1.41417 0
M  V30 17252 C 1585.45 -0.0447013 -2.33457 0
M  V30 17253 C 1586.43 0.767104 -1.51821 0
M  V30 17254 O 1587.62 0.720066 -1.80357 0
M  V30 17255 C 1584.75 0.892353 -3.3564 0
M  V30 17256 C 1583.7 0.187638 -4.27588 0
M  V30 17257 C 1583.03 1.23906 -5.20146 0
M  V30 17258 C 1584.33 -0.946093 -5.1366 0
M  V30 17259 H 1586.02 -0.81343 -2.88138 0
M  V30 17260 H 1583.57 -0.392614 -1.38544 0
M  V30 17261 H 1585.52 1.35696 -3.98954 0
M  V30 17262 H 1584.25 1.69275 -2.79309 0
M  V30 17263 H 1582.91 -0.256942 -3.65698 0
M  V30 17264 H 1582.55 2.03198 -4.6013 0
M  V30 17265 H 1582.25 0.772536 -5.82499 0
M  V30 17266 H 1583.78 1.70417 -5.86336 0
M  V30 17267 H 1585.19 -0.561764 -5.70541 0
M  V30 17268 H 1583.59 -1.33971 -5.84954 0
M  V30 17269 H 1584.66 -1.78573 -4.50821 0
M  V30 17270 N 1586 1.51322 -0.440383 0
M  V30 17271 C 1587.25 2.02413 0.125248 0
M  V30 17272 C 1587.58 1.32374 1.42094 0
M  V30 17273 O 1586.86 0.439624 1.89467 0
M  V30 17274 C 1587.14 3.58483 0.340858 0
M  V30 17275 C 1586.99 4.39134 -0.973701 0
M  V30 17276 C 1588.31 4.25891 1.10927 0
M  V30 17277 H 1585.43 0.735683 0.0440452 0
M  V30 17278 H 1588.07 1.80932 -0.579976 0
M  V30 17279 H 1586.22 3.76917 0.941572 0
M  V30 17280 H 1587.89 4.32343 -1.60863 0
M  V30 17281 H 1586.14 4.04097 -1.57759 0
M  V30 17282 H 1586.81 5.46506 -0.776845 0
M  V30 17283 H 1589.28 4.11746 0.600403 0
M  V30 17284 H 1588.16 5.34967 1.2289 0
M  V30 17285 H 1588.42 3.86958 2.13813 0
M  V30 17286 N 1587.48 0.171848 1.5666 0
M  V30 17287 C 1588.76 -0.519355 1.88579 0
M  V30 17288 C 1589.14 -1.81273 1.08182 0
M  V30 17289 O 1588.48 -2.27822 0.175895 0
M  V30 17290 C 1588.69 -0.760743 3.40608 0
M  V30 17291 C 1590.04 -1.09051 4.10357 0
M  V30 17292 O 1591.07 -0.849264 3.45928 0
M  V30 17293 O 1589.93 -1.54566 5.24187 0
M  V30 17294 H 1587.02 -0.267782 0.782446 0
M  V30 17295 H 1589.57 0.210323 1.68392 0
M  V30 17296 H 1588.34 0.153577 3.90999 0
M  V30 17297 H 1587.96 -1.54372 3.66408 0
M  V30 17298 N 1588.96 -1.5727 -0.101874 0
M  V30 17299 C 1589.89 -2.04614 -1.12496 0
M  V30 17300 C 1590.87 -0.933768 -1.42179 0
M  V30 17301 O 1592.05 -1.2046 -1.52325 0
M  V30 17302 C 1589.18 -2.46488 -2.44665 0
M  V30 17303 C 1588.14 -3.61327 -2.29406 0
M  V30 17304 C 1587.46 -3.89155 -3.66691 0
M  V30 17305 C 1588.76 -4.92455 -1.74026 0
M  V30 17306 H 1590.46 -2.90336 -0.731109 0
M  V30 17307 H 1588 -1.39676 -0.350239 0
M  V30 17308 H 1589.96 -2.78216 -3.16502 0
M  V30 17309 H 1588.68 -1.57757 -2.85972 0
M  V30 17310 H 1587.34 -3.29835 -1.60015 0
M  V30 17311 H 1586.99 -2.97603 -4.05514 0
M  V30 17312 H 1586.69 -4.66465 -3.57329 0
M  V30 17313 H 1588.21 -4.23352 -4.40006 0
M  V30 17314 H 1589.63 -5.22609 -2.35697 0
M  V30 17315 H 1588.02 -5.73882 -1.75441 0
M  V30 17316 H 1589.09 -4.79833 -0.699136 0
M  V30 17317 N 1590.44 0.372521 -1.53134 0
M  V30 17318 C 1591.66 1.13668 -1.72879 0
M  V30 17319 C 1592.08 1.83246 -0.454588 0
M  V30 17320 O 1591.44 1.73302 0.572062 0
M  V30 17321 C 1591.49 2.17226 -2.88955 0
M  V30 17322 O 1591.21 1.50483 -4.11445 0
M  V30 17323 C 1592.71 3.06243 -3.20516 0
M  V30 17324 H 1589.93 0.340156 -0.57839 0
M  V30 17325 H 1592.47 0.433557 -1.99851 0
M  V30 17326 H 1590.63 2.83148 -2.64397 0
M  V30 17327 H 1591.04 2.19425 -4.76396 0
M  V30 17328 H 1592.52 3.74901 -4.05158 0
M  V30 17329 H 1592.99 3.70669 -2.35587 0
M  V30 17330 H 1593.6 2.45946 -3.46973 0
M  V30 17331 N 1591.91 1.44376 0.631925 0
M  V30 17332 C 1593.16 1.47335 1.39356 0
M  V30 17333 C 1593.49 0.10525 1.93915 0
M  V30 17334 O 1592.77 -0.877006 1.73605 0
M  V30 17335 C 1593.05 2.53308 2.55943 0
M  V30 17336 C 1592.9 3.99473 2.06739 0
M  V30 17337 C 1594.22 2.55794 3.58131 0
M  V30 17338 H 1591.34 0.536447 0.505365 0
M  V30 17339 H 1593.98 1.76051 0.714572 0
M  V30 17340 H 1592.13 2.28953 3.13868 0
M  V30 17341 H 1593.81 4.34958 1.53652 0
M  V30 17342 H 1592.05 4.11288 1.37929 0
M  V30 17343 H 1592.72 4.69269 2.90672 0
M  V30 17344 H 1595.2 2.77554 3.10005 0
M  V30 17345 H 1594.07 3.31847 4.37228 0
M  V30 17346 H 1594.33 1.59962 4.12146 0
M  V30 17347 N 1593.39 -0.872258 1.31261 0
M  V30 17348 C 1594.3 -2.01185 1.20673 0
M  V30 17349 C 1595.32 -1.73558 0.123921 0
M  V30 17350 O 1596.49 -1.98487 0.341288 0
M  V30 17351 C 1593.56 -3.34481 0.91232 0
M  V30 17352 C 1592.62 -3.75446 2.08179 0
M  V30 17353 C 1591.85 -5.02382 1.80134 0
M  V30 17354 O 1592.08 -5.6564 0.735358 0
M  V30 17355 O 1591.01 -5.40059 2.65744 0
M  V30 17356 H 1594.84 -2.13049 2.16434 0
M  V30 17357 H 1592.42 -1.00021 1.10978 0
M  V30 17358 H 1594.3 -4.14419 0.763879 0
M  V30 17359 H 1592.98 -3.23696 -0.0152802 0
M  V30 17360 H 1591.88 -2.96159 2.28562 0
M  V30 17361 H 1593.22 -3.90853 2.99156 0
M  V30 17362 N 1594.87 -1.14184 -1.08627 0
M  V30 17363 C 1595.78 -0.84033 -2.19033 0
M  V30 17364 C 1596.8 0.178322 -1.73084 0
M  V30 17365 O 1597.97 0.00737963 -2.01399 0
M  V30 17366 C 1595.04 -0.319674 -3.45223 0
M  V30 17367 C 1594.1 -1.4006 -4.0581 0
M  V30 17368 C 1593.33 -0.904693 -5.25976 0
M  V30 17369 O 1593.55 0.25468 -5.69831 0
M  V30 17370 O 1592.49 -1.68267 -5.77901 0
M  V30 17371 H 1596.31 -1.76296 -2.47292 0
M  V30 17372 H 1593.9 -0.919929 -1.17719 0
M  V30 17373 H 1595.78 -0.0351268 -4.21385 0
M  V30 17374 H 1594.46 0.575264 -3.18547 0
M  V30 17375 H 1593.36 -1.73858 -3.31247 0
M  V30 17376 H 1594.7 -2.26998 -4.3673 0
M  V30 17377 N 1596.35 1.26749 -0.936613 0
M  V30 17378 C 1597.6 1.9358 -0.580605 0
M  V30 17379 C 1597.92 1.7389 0.882446 0
M  V30 17380 O 1597.19 1.09185 1.62652 0
M  V30 17381 H 1595.77 0.716363 -0.211739 0
M  V30 17382 H 1598.43 1.54281 -1.19095 0
M  V30 17383 H 1597.53 3.01819 -0.79448 0
M  V30 17384 N 1597.83 0.703118 1.41046 0
M  V30 17385 C 1598.76 0.00331992 2.292 0
M  V30 17386 C 1599.77 -0.736648 1.4518 0
M  V30 17387 O 1600.96 -0.586097 1.68604 0
M  V30 17388 C 1598.06 -1.01948 3.23203 0
M  V30 17389 C 1597.23 -0.347591 4.36017 0
M  V30 17390 C 1596.29 -1.27404 5.10543 0
M  V30 17391 O 1595.32 -0.763558 5.64055 0
M  V30 17392 N 1596.52 -2.60596 5.1872 0
M  V30 17393 H 1599.29 0.760179 2.89899 0
M  V30 17394 H 1596.85 0.549747 1.52281 0
M  V30 17395 H 1598.84 -1.64115 3.6993 0
M  V30 17396 H 1597.41 -1.6778 2.63758 0
M  V30 17397 H 1596.63 0.454088 3.91576 0
M  V30 17398 H 1597.92 0.119295 5.0866 0
M  V30 17399 H 1597.31 -3.0458 4.76705 0
M  V30 17400 H 1595.87 -3.17939 5.68998 0
M  V30 17401 N 1599.3 -1.51086 0.448402 0
M  V30 17402 C 1600.72 -1.59278 0.101286 0
M  V30 17403 C 1600.92 -1.45847 -1.39036 0
M  V30 17404 O 1599.98 -1.30534 -2.16142 0
M  V30 17405 C 1601.29 -2.93999 0.631264 0
M  V30 17406 C 1602.84 -3.07337 0.59268 0
M  V30 17407 C 1603.31 -4.44599 1.09982 0
M  V30 17408 N 1604.8 -4.50949 1.05827 0
M  V30 17409 C 1605.54 -5.55503 1.42142 0
M  V30 17410 N 1605.03 -6.67422 1.85796 0
M  V30 17411 N 1606.83 -5.45922 1.33888 0
M  V30 17412 H 1598.98 -1.58062 1.41881 0
M  V30 17413 H 1601.24 -0.745702 0.585349 0
M  V30 17414 H 1600.95 -3.09233 1.67534 0
M  V30 17415 H 1600.82 -3.77149 0.0622533 0
M  V30 17416 H 1603.21 -2.91764 -0.442437 0
M  V30 17417 H 1603.29 -2.26 1.19823 0
M  V30 17418 H 1602.93 -4.60919 2.13345 0
M  V30 17419 H 1602.86 -5.24492 0.470703 0
M  V30 17420 H 1605.35 -3.70627 0.737822 0
M  V30 17421 H 1605.67 -7.43234 2.11714 0
M  V30 17422 H 1604.01 -6.68601 1.89731 0
M  V30 17423 H 1607.2 -4.57372 0.996415 0
M  V30 17424 H 1607.38 -6.2729 1.62517 0
M  V30 17425 N 1600.78 -0.180154 -1.56567 0
M  V30 17426 C 1601.71 0.742131 -2.21393 0
M  V30 17427 C 1602.69 1.23253 -1.1723 0
M  V30 17428 O 1603.88 1.28408 -1.45688 0
M  V30 17429 C 1601.01 1.96799 -2.8616 0
M  V30 17430 C 1599.96 1.6131 -3.96438 0
M  V30 17431 C 1599.29 2.91434 -4.48297 0
M  V30 17432 C 1600.59 0.834382 -5.15592 0
M  V30 17433 H 1602.28 0.201759 -2.98719 0
M  V30 17434 H 1599.83 0.0956016 -1.43682 0
M  V30 17435 H 1601.78 2.61828 -3.30188 0
M  V30 17436 H 1600.51 2.53264 -2.06215 0
M  V30 17437 H 1599.16 0.986451 -3.53079 0
M  V30 17438 H 1598.81 3.45958 -3.65133 0
M  V30 17439 H 1598.51 2.68439 -5.22699 0
M  V30 17440 H 1600.04 3.57478 -4.95017 0
M  V30 17441 H 1601.45 1.38745 -5.56258 0
M  V30 17442 H 1599.85 0.703132 -5.95966 0
M  V30 17443 H 1600.92 -0.167554 -4.8461 0
M  V30 17444 N 1602.26 1.57322 0.0935319 0
M  V30 17445 C 1603.21 2.02171 1.11336 0
M  V30 17446 C 1604.18 0.898305 1.39713 0
M  V30 17447 O 1605.36 1.16441 1.51149 0
M  V30 17448 C 1602.5 2.45243 2.42796 0
M  V30 17449 C 1601.62 3.7111 2.21136 0
M  V30 17450 C 1600.75 4.03056 3.46005 0
M  V30 17451 C 1599.79 5.22028 3.19615 0
M  V30 17452 N 1598.93 5.49718 4.36755 0
M  V30 17453 H 1603.77 2.89073 0.723924 0
M  V30 17454 H 1601.3 1.42975 0.345919 0
M  V30 17455 H 1603.26 2.68261 3.19518 0
M  V30 17456 H 1601.89 1.61348 2.79583 0
M  V30 17457 H 1600.94 3.5556 1.35209 0
M  V30 17458 H 1602.26 4.57979 1.97628 0
M  V30 17459 H 1601.41 4.26858 4.31135 0
M  V30 17460 H 1600.15 3.14712 3.72569 0
M  V30 17461 H 1599.15 4.98044 2.32879 0
M  V30 17462 H 1600.38 6.11971 2.94396 0
M  V30 17463 H 1598.32 4.64333 4.63391 0
M  V30 17464 H 1598.24 6.30961 4.16443 0
M  V30 17465 H 1599.51 5.78057 5.22944 0
M  V30 17466 N 1603.74 -0.364395 1.53329 0
M  V30 17467 C 1604.98 -1.10855 1.6982 0
M  V30 17468 C 1605.32 -1.88931 0.449291 0
M  V30 17469 O 1604.59 -1.8646 -0.553437 0
M  V30 17470 C 1604.88 -2.06681 2.94881 0
M  V30 17471 C 1604.73 -1.32206 4.29932 0
M  V30 17472 C 1606.05 -3.06788 3.15546 0
M  V30 17473 H 1603.17 -0.401626 0.617953 0
M  V30 17474 H 1605.81 -0.389244 1.8597 0
M  V30 17475 H 1603.96 -2.68019 2.81244 0
M  V30 17476 H 1605.63 -0.73642 4.55384 0
M  V30 17477 H 1603.87 -0.623916 4.2929 0
M  V30 17478 H 1604.54 -2.0235 5.13574 0
M  V30 17479 H 1607.02 -2.55554 3.28377 0
M  V30 17480 H 1605.9 -3.71059 4.04483 0
M  V30 17481 H 1606.16 -3.77023 2.3088 0
M  V30 17482 N 1605.22 -1.44709 -0.62426 0
M  V30 17483 C 1606.47 -1.47131 -1.37968 0
M  V30 17484 C 1606.78 -0.110507 -1.95288 0
M  V30 17485 O 1607.98 -0.0122892 -2.71497 0
M  V30 17486 C 1606.44 -2.59059 -2.49833 0
M  V30 17487 C 1606.05 -4.01378 -1.98997 0
M  V30 17488 C 1607.79 -2.70709 -3.26981 0
M  V30 17489 C 1605.7 -5.04717 -3.08244 0
M  V30 17490 H 1604.63 -0.547424 -0.5185 0
M  V30 17491 H 1607.28 -1.70797 -0.670863 0
M  V30 17492 H 1605.66 -2.28646 -3.23322 0
M  V30 17493 H 1606.84 -4.41391 -1.32327 0
M  V30 17494 H 1605.15 -3.9403 -1.34644 0
M  V30 17495 H 1607.75 -3.45087 -4.08435 0
M  V30 17496 H 1608.09 -1.76763 -3.76909 0
M  V30 17497 H 1608.62 -3.00566 -2.60585 0
M  V30 17498 H 1605.36 -6.00315 -2.63253 0
M  V30 17499 H 1604.88 -4.6929 -3.73534 0
M  V30 17500 H 1606.56 -5.28725 -3.72906 0
M  V30 17501 N 1606.69 0.865285 -1.31722 0
M  V30 17502 C 1607.92 1.64897 -1.24469 0
M  V30 17503 C 1608.33 1.88228 0.191553 0
M  V30 17504 O 1607.68 1.44396 1.13559 0
M  V30 17505 C 1607.74 3.0371 -1.92355 0
M  V30 17506 C 1607.4 3.03468 -3.41696 0
M  V30 17507 C 1608.4 2.81086 -4.37364 0
M  V30 17508 C 1606.08 3.2444 -3.83463 0
M  V30 17509 C 1608.08 2.79663 -5.72772 0
M  V30 17510 C 1605.76 3.22645 -5.18983 0
M  V30 17511 C 1606.76 3.00284 -6.13448 0
M  V30 17512 O 1606.45 2.98342 -7.4649 0
M  V30 17513 H 1606.18 0.520681 -0.431124 0
M  V30 17514 H 1608.74 1.08795 -1.74221 0
M  V30 17515 H 1606.97 3.61558 -1.37159 0
M  V30 17516 H 1608.66 3.64321 -1.78955 0
M  V30 17517 H 1609.42 2.6466 -4.06423 0
M  V30 17518 H 1605.3 3.40874 -3.10364 0
M  V30 17519 H 1608.84 2.62128 -6.46479 0
M  V30 17520 H 1604.74 3.38612 -5.49556 0
M  V30 17521 H 1605.51 3.14371 -7.5572 0
M  V30 17522 N 1608.17 1.14759 1.0802 0
M  V30 17523 C 1609.42 0.916435 1.80127 0
M  V30 17524 C 1609.74 -0.558281 1.86837 0
M  V30 17525 O 1609.01 -1.40579 1.36434 0
M  V30 17526 H 1607.59 0.336066 0.667135 0
M  V30 17527 H 1610.25 1.44693 1.30576 0
M  V30 17528 H 1609.35 1.31986 2.82818 0
M  V30 17529 N 1609.65 -1.26251 0.943322 0
M  V30 17530 C 1610.88 -1.98278 0.608341 0
M  V30 17531 C 1611.3 -1.69756 -0.810208 0
M  V30 17532 O 1610.66 -0.946846 -1.54611 0
M  V30 17533 C 1610.71 -3.50205 0.859591 0
M  V30 17534 O 1609.81 -4.12345 -0.0672371 0
M  V30 17535 H 1609.15 -0.621973 0.232477 0
M  V30 17536 H 1611.68 -1.60662 1.26684 0
M  V30 17537 H 1611.69 -4.00449 0.781341 0
M  V30 17538 H 1610.37 -3.70294 1.89354 0
M  V30 17539 H 1608.94 -3.72848 0.0622543 0
M  V30 17540 N 1611.13 -0.710588 -1.40671 0
M  V30 17541 C 1612.37 -0.252303 -2.02837 0
M  V30 17542 C 1612.73 1.13154 -1.55113 0
M  V30 17543 O 1613.93 1.68653 -2.09307 0
M  V30 17544 C 1612.21 -0.323902 -3.55929 0
M  V30 17545 S 1613.76 0.0581316 -4.38761 0
M  V30 17546 H 1610.58 -0.100448 -0.703869 0
M  V30 17547 H 1613.18 -0.931699 -1.71871 0
M  V30 17548 H 1611.89 -1.33279 -3.88156 0
M  V30 17549 H 1611.42 0.37414 -3.91617 0
M  V30 17550 H 1613.43 1.28162 -4.79363 0
M  V30 17551 N 1612.61 1.50847 -0.456408 0
M  V30 17552 C 1613.57 2.26755 0.33388 0
M  V30 17553 C 1614.57 1.30947 0.933247 0
M  V30 17554 O 1615.76 1.54499 0.804716 0
M  V30 17555 C 1612.89 3.07378 1.47417 0
M  V30 17556 H 1614.09 2.98061 -0.331634 0
M  V30 17557 H 1611.64 1.54882 -0.210067 0
M  V30 17558 H 1612.37 2.40534 2.17518 0
M  V30 17559 H 1612.16 3.7777 1.05036 0
M  V30 17560 H 1613.65 3.64826 2.03204 0
M  V30 17561 N 1614.09 0.188454 1.56469 0
M  V30 17562 C 1615.33 -0.451165 1.97 0
M  V30 17563 C 1615.65 -1.6261 1.07624 0
M  V30 17564 O 1614.92 -1.95354 0.146125 0
M  V30 17565 H 1613.5 -0.16967 0.727476 0
M  V30 17566 H 1616.17 0.273638 1.9297 0
M  V30 17567 H 1615.26 -0.799741 3.0168 0
M  V30 17568 N 1615.56 -1.5737 -0.0851874 0
M  V30 17569 C 1616.81 -1.86587 -0.786855 0
M  V30 17570 C 1617.14 -0.778357 -1.78247 0
M  V30 17571 O 1616.39 0.227053 -1.94378 0
M  V30 17572 C 1616.69 -3.22427 -1.54194 0
M  V30 17573 C 1616.36 -4.45627 -0.687542 0
M  V30 17574 C 1615.02 -4.79072 -0.452042 0
M  V30 17575 C 1617.37 -5.21115 -0.094224 0
M  V30 17576 C 1614.7 -5.85426 0.386477 0
M  V30 17577 C 1617.05 -6.28354 0.731673 0
M  V30 17578 C 1615.72 -6.60309 0.977172 0
M  V30 17579 H 1614.99 -0.682772 -0.28793 0
M  V30 17580 H 1617.63 -1.9144 -0.0480218 0
M  V30 17581 H 1615.94 -3.13304 -2.35261 0
M  V30 17582 H 1617.64 -3.42264 -2.08941 0
M  V30 17583 H 1614.23 -4.19443 -0.881212 0
M  V30 17584 H 1618.41 -4.95601 -0.263309 0
M  V30 17585 H 1613.67 -6.08589 0.58556 0
M  V30 17586 H 1617.84 -6.86014 1.19823 0
M  V30 17587 H 1615.47 -7.42548 1.6287 0
M  V30 17588 N 1617.04 0.356258 -1.53521 0
M  V30 17589 C 1617.99 1.43723 -1.76996 0
M  V30 17590 C 1618.98 1.48275 -0.624756 0
M  V30 17591 O 1620.17 1.53359 -0.883734 0
M  V30 17592 C 1617.3 2.81036 -1.97164 0
M  V30 17593 C 1616.38 2.80925 -3.17713 0
M  V30 17594 N 1616.77 2.50454 -4.39439 0
M  V30 17595 C 1615.07 3.12081 -3.18625 0
M  V30 17596 C 1615.77 2.58257 -5.21228 0
M  V30 17597 N 1614.75 2.93354 -4.57651 0
M  V30 17598 H 1618.55 1.19041 -2.68712 0
M  V30 17599 H 1616.06 0.564522 -1.52272 0
M  V30 17600 H 1618.06 3.58906 -2.12113 0
M  V30 17601 H 1616.72 3.06674 -1.06682 0
M  V30 17602 H 1617.73 2.23879 -4.6701 0
M  V30 17603 H 1614.41 3.42973 -2.38067 0
M  V30 17604 H 1615.8 2.37965 -6.28349 0
M  V30 17605 N 1618.52 1.45038 0.616577 0
M  V30 17606 C 1619.48 1.52647 1.70973 0
M  V30 17607 C 1620.48 0.406902 1.55567 0
M  V30 17608 O 1621.67 0.670062 1.60797 0
M  V30 17609 C 1618.8 1.41438 3.10174 0
M  V30 17610 H 1620 2.50036 1.65596 0
M  V30 17611 H 1617.55 1.32346 0.831524 0
M  V30 17612 H 1618.29 0.451991 3.21135 0
M  V30 17613 H 1618.07 2.22634 3.22764 0
M  V30 17614 H 1619.56 1.49776 3.89817 0
M  V30 17615 N 1620 -0.858287 1.32179 0
M  V30 17616 C 1621.24 -1.6146 1.22713 0
M  V30 17617 C 1621.58 -1.93045 -0.211479 0
M  V30 17618 O 1620.85 -1.57034 -1.14764 0
M  V30 17619 C 1621.13 -2.93728 2.08317 0
M  V30 17620 C 1620.99 -2.68947 3.60538 0
M  V30 17621 C 1622.31 -3.94959 1.94153 0
M  V30 17622 H 1619.43 -0.585872 0.447128 0
M  V30 17623 H 1622.07 -0.99134 1.62088 0
M  V30 17624 H 1620.22 -3.4692 1.74867 0
M  V30 17625 H 1621.89 -2.22336 4.04183 0
M  V30 17626 H 1620.13 -2.02974 3.83385 0
M  V30 17627 H 1620.8 -3.63112 4.15756 0
M  V30 17628 H 1623.28 -3.51013 2.23449 0
M  V30 17629 H 1622.16 -4.85371 2.56332 0
M  V30 17630 H 1622.42 -4.32672 0.908132 0
M  V30 17631 N 1621.48 -1.1533 -1.07409 0
M  V30 17632 C 1622.75 -0.838341 -1.76724 0
M  V30 17633 C 1623.13 0.666169 -2.00313 0
M  V30 17634 O 1622.48 1.61033 -1.62113 0
M  V30 17635 C 1622.69 -1.64846 -3.07615 0
M  V30 17636 C 1624.04 -1.85429 -3.8197 0
M  V30 17637 O 1625.06 -1.61617 -3.17424 0
M  V30 17638 O 1623.92 -2.25305 -4.97896 0
M  V30 17639 H 1621.02 -0.308242 -0.767408 0
M  V30 17640 H 1623.56 -1.25905 -1.1378 0
M  V30 17641 H 1622.33 -2.66995 -2.86058 0
M  V30 17642 H 1621.96 -1.22405 -3.78289 0
M  V30 17643 N 1622.95 1.25748 -0.950004 0
M  V30 17644 C 1624.2 1.93622 -0.603186 0
M  V30 17645 C 1624.53 1.74271 0.856925 0
M  V30 17646 O 1623.81 1.08502 1.61423 0
M  V30 17647 C 1624.09 3.4715 -0.957024 0
M  V30 17648 C 1623.94 3.75747 -2.47253 0
M  V30 17649 C 1625.26 4.37488 -0.478754 0
M  V30 17650 H 1622.38 0.703206 -0.220612 0
M  V30 17651 H 1625.02 1.48453 -1.18582 0
M  V30 17652 H 1623.17 3.85753 -0.46122 0
M  V30 17653 H 1624.85 3.46808 -3.04174 0
M  V30 17654 H 1623.09 3.21516 -2.91222 0
M  V30 17655 H 1623.76 4.83097 -2.67061 0
M  V30 17656 H 1626.24 4.06162 -0.903987 0
M  V30 17657 H 1625.11 5.43682 -0.755073 0
M  V30 17658 H 1625.37 4.37712 0.621303 0
M  V30 17659 N 1624.43 0.718038 1.40292 0
M  V30 17660 C 1625.71 0.185648 1.94717 0
M  V30 17661 C 1626.09 -1.30916 1.65603 0
M  V30 17662 O 1625.44 -2.06653 0.975031 0
M  V30 17663 C 1625.65 0.501015 3.45385 0
M  V30 17664 C 1626.99 0.441021 4.22303 0
M  V30 17665 O 1628.02 0.437217 3.53507 0
M  V30 17666 O 1626.88 0.420689 5.44878 0
M  V30 17667 H 1623.97 0.0281581 0.82652 0
M  V30 17668 H 1626.52 0.795738 1.49887 0
M  V30 17669 H 1625.29 1.5348 3.59944 0
M  V30 17670 H 1624.91 -0.138913 3.97357 0
M  V30 17671 N 1625.91 -1.50602 0.464402 0
M  V30 17672 C 1627.14 -2.07191 -0.0930678 0
M  V30 17673 C 1627.56 -1.32675 -1.33338 0
M  V30 17674 O 1626.92 -0.372453 -1.77433 0
M  V30 17675 C 1626.97 -3.5873 -0.366775 0
M  V30 17676 O 1626.07 -3.86125 -1.44849 0
M  V30 17677 H 1625.41 -0.663924 0.0100336 0
M  V30 17678 H 1627.94 -1.93882 0.653522 0
M  V30 17679 H 1627.95 -4.03425 -0.609258 0
M  V30 17680 H 1626.63 -4.12385 0.539608 0
M  V30 17681 H 1625.2 -3.53273 -1.19384 0
M  V30 17682 N 1627.39 -0.19675 -1.56367 0
M  V30 17683 C 1628.64 0.440711 -1.97236 0
M  V30 17684 C 1628.96 1.62037 -1.08485 0
M  V30 17685 O 1628.23 1.95274 -0.156483 0
M  V30 17686 H 1626.81 0.16581 -0.728365 0
M  V30 17687 H 1629.47 -0.283867 -1.92822 0
M  V30 17688 H 1628.57 0.783731 -3.02099 0
M  V30 17689 N 1628.87 1.57413 0.0768405 0
M  V30 17690 C 1630.09 1.91607 0.793833 0
M  V30 17691 C 1630.52 0.792708 1.70581 0
M  V30 17692 O 1629.87 -0.25475 1.79501 0
M  V30 17693 C 1629.92 3.24736 1.56776 0
M  V30 17694 O 1629.03 3.13613 2.67807 0
M  V30 17695 H 1628.37 0.627572 0.216908 0
M  V30 17696 H 1630.9 2.04547 0.0465957 0
M  V30 17697 H 1630.91 3.58488 1.94809 0
M  V30 17698 H 1629.58 4.06077 0.898588 0
M  V30 17699 H 1628.16 2.91411 2.32668 0
M  V30 17700 N 1630.34 -0.348112 1.53707 0
M  V30 17701 C 1631.59 -1.09048 1.70987 0
M  V30 17702 C 1631.92 -1.88444 0.469305 0
M  V30 17703 O 1631.2 -1.87037 -0.533629 0
M  V30 17704 C 1631.48 -2.03542 2.97057 0
M  V30 17705 C 1631.33 -1.27638 4.3131 0
M  V30 17706 C 1632.65 -3.03424 3.18782 0
M  V30 17707 H 1629.77 -0.395049 0.622178 0
M  V30 17708 H 1632.41 -0.369498 1.86373 0
M  V30 17709 H 1630.56 -2.65021 2.8407 0
M  V30 17710 H 1632.24 -0.688079 4.56139 0
M  V30 17711 H 1630.48 -0.578349 4.29927 0
M  V30 17712 H 1631.15 -1.96891 5.15692 0
M  V30 17713 H 1633.63 -2.52056 3.31069 0
M  V30 17714 H 1632.5 -3.66748 4.08396 0
M  V30 17715 H 1632.76 -3.74553 2.34866 0
M  V30 17716 N 1631.82 -1.45363 -0.608876 0
M  V30 17717 C 1633.05 -1.52614 -1.39257 0
M  V30 17718 C 1633.46 -0.157106 -1.88547 0
M  V30 17719 O 1632.8 0.851329 -1.62782 0
M  V30 17720 C 1632.87 -2.44821 -2.63255 0
M  V30 17721 C 1632.53 -3.91582 -2.35612 0
M  V30 17722 C 1633.53 -4.81517 -1.96054 0
M  V30 17723 C 1631.21 -4.36488 -2.48564 0
M  V30 17724 C 1633.21 -6.14365 -1.69808 0
M  V30 17725 C 1630.89 -5.69377 -2.21931 0
M  V30 17726 C 1631.89 -6.58135 -1.82614 0
M  V30 17727 O 1631.58 -7.88561 -1.56292 0
M  V30 17728 H 1631.31 -0.51935 -0.432726 0
M  V30 17729 H 1633.86 -1.91227 -0.749768 0
M  V30 17730 H 1632.09 -2.01177 -3.30249 0
M  V30 17731 H 1633.78 -2.4277 -3.25296 0
M  V30 17732 H 1634.55 -4.48088 -1.85585 0
M  V30 17733 H 1630.43 -3.67646 -2.78133 0
M  V30 17734 H 1633.97 -6.83602 -1.39045 0
M  V30 17735 H 1629.87 -6.02361 -2.32016 0
M  V30 17736 H 1630.64 -8.00576 -1.70355 0
M  V30 17737 N 1633.3 0.851265 -1.32632 0
M  V30 17738 C 1634.58 1.58945 -1.13999 0
M  V30 17739 C 1634.96 2.08981 0.29836 0
M  V30 17740 O 1634.31 1.88226 1.2955 0
M  V30 17741 C 1634.52 2.73296 -2.17049 0
M  V30 17742 C 1635.86 3.42791 -2.50559 0
M  V30 17743 O 1636.89 2.83524 -2.15621 0
M  V30 17744 O 1635.75 4.49749 -3.10464 0
M  V30 17745 H 1632.84 0.700157 -0.440124 0
M  V30 17746 H 1635.39 0.895098 -1.44174 0
M  V30 17747 H 1634.16 2.33873 -3.13718 0
M  V30 17748 H 1633.78 3.50405 -1.87888 0
M  V30 17749 N 1634.78 1.15898 1.06796 0
M  V30 17750 C 1636.03 0.931848 1.78884 0
M  V30 17751 C 1636.34 -0.54197 1.87942 0
M  V30 17752 O 1637.55 -0.886848 2.56607 0
M  V30 17753 C 1636 1.61788 3.21485 0
M  V30 17754 C 1635.61 3.12911 3.2061 0
M  V30 17755 C 1637.35 1.47252 3.98142 0
M  V30 17756 C 1635.26 3.74275 4.579 0
M  V30 17757 H 1634.19 0.344998 0.670442 0
M  V30 17758 H 1636.84 1.38974 1.19827 0
M  V30 17759 H 1635.22 1.08769 3.80769 0
M  V30 17760 H 1636.4 3.72732 2.70938 0
M  V30 17761 H 1634.71 3.27273 2.57451 0
M  V30 17762 H 1637.31 1.90484 4.9962 0
M  V30 17763 H 1637.65 0.420766 4.14168 0
M  V30 17764 H 1638.19 1.97398 3.45367 0
M  V30 17765 H 1634.93 4.79376 4.47078 0
M  V30 17766 H 1634.45 3.19238 5.07786 0
M  V30 17767 H 1636.12 3.75532 5.26863 0
M  V30 17768 N 1636.26 -1.25243 0.956659 0
M  V30 17769 C 1637.49 -1.96796 0.628878 0
M  V30 17770 C 1637.89 -1.71284 -0.803648 0
M  V30 17771 O 1637.24 -0.986812 -1.54944 0
M  V30 17772 C 1637.3 -3.50253 0.810132 0
M  V30 17773 C 1636.96 -3.99445 2.2202 0
M  V30 17774 C 1637.96 -4.09982 3.19704 0
M  V30 17775 C 1635.65 -4.33057 2.54493 0
M  V30 17776 C 1637.64 -4.53449 4.47954 0
M  V30 17777 C 1635.33 -4.7621 3.82972 0
M  V30 17778 C 1636.32 -4.86369 4.79515 0
M  V30 17779 O 1636.01 -5.28563 6.05703 0
M  V30 17780 H 1635.74 -0.634013 0.234529 0
M  V30 17781 H 1638.3 -1.60318 1.28402 0
M  V30 17782 H 1636.53 -3.86576 0.0978322 0
M  V30 17783 H 1638.22 -4.03015 0.483099 0
M  V30 17784 H 1638.98 -3.84243 2.95943 0
M  V30 17785 H 1634.86 -4.24375 1.80075 0
M  V30 17786 H 1638.41 -4.61294 5.23311 0
M  V30 17787 H 1634.3 -5.01394 4.06539 0
M  V30 17788 H 1635.07 -5.46744 6.09109 0
M  V30 17789 N 1637.73 -0.725468 -1.3991 0
M  V30 17790 C 1638.66 -0.094211 -2.3331 0
M  V30 17791 C 1639.65 0.734728 -1.53414 0
M  V30 17792 O 1640.83 0.681647 -1.81844 0
M  V30 17793 C 1637.96 0.820958 -3.37457 0
M  V30 17794 C 1636.91 0.0968983 -4.2789 0
M  V30 17795 C 1636.24 1.12845 -5.22657 0
M  V30 17796 C 1637.54 -1.05483 -5.11537 0
M  V30 17797 H 1639.23 -0.874365 -2.86348 0
M  V30 17798 H 1636.78 -0.421913 -1.3768 0
M  V30 17799 H 1638.73 1.27203 -4.01743 0
M  V30 17800 H 1637.46 1.63312 -2.82837 0
M  V30 17801 H 1636.12 -0.334454 -3.65071 0
M  V30 17802 H 1635.76 1.93392 -4.64337 0
M  V30 17803 H 1635.46 0.648805 -5.84007 0
M  V30 17804 H 1636.99 1.57942 -5.89819 0
M  V30 17805 H 1638.4 -0.682657 -5.69221 0
M  V30 17806 H 1636.8 -1.46349 -5.81981 0
M  V30 17807 H 1637.87 -1.88095 -4.46932 0
M  V30 17808 N 1639.21 1.50354 -0.472382 0
M  V30 17809 C 1640.62 1.86692 -0.0175768 0
M  V30 17810 C 1640.97 1.38708 1.3876 0
M  V30 17811 O 1640.1 0.752614 2.02891 0
M  V30 17812 C 1640.69 3.38791 -0.0251205 0
M  V30 17813 C 1639.25 3.74535 0.37422 0
M  V30 17814 C 1638.4 2.74252 -0.410045 0
M  V30 17815 H 1641.35 1.43079 -0.686593 0
M  V30 17816 H 1641.37 3.72487 0.776754 0
M  V30 17817 H 1640.88 3.73684 -1.04795 0
M  V30 17818 H 1638.99 3.45243 1.40135 0
M  V30 17819 H 1639.1 4.79042 0.0746666 0
M  V30 17820 H 1637.46 2.54334 0.136417 0
M  V30 17821 H 1638.25 3.11989 -1.43241 0
M  V30 17822 N 1640.69 0.205039 1.56261 0
M  V30 17823 C 1641.92 -0.43642 2.02245 0
M  V30 17824 C 1642.33 -1.54504 1.08508 0
M  V30 17825 O 1641.69 -1.82269 0.0916991 0
M  V30 17826 C 1641.74 -0.983483 3.47865 0
M  V30 17827 O 1641.46 0.0809166 4.38025 0
M  V30 17828 C 1642.96 -1.69983 4.09415 0
M  V30 17829 H 1640.18 -0.108577 0.662157 0
M  V30 17830 H 1642.73 0.316659 2.02033 0
M  V30 17831 H 1640.88 -1.6869 3.48744 0
M  V30 17832 H 1641.3 -0.327751 5.23475 0
M  V30 17833 H 1642.77 -2.03481 5.13127 0
M  V30 17834 H 1643.25 -2.60711 3.5345 0
M  V30 17835 H 1643.85 -1.04202 4.12337 0
M  V30 17836 N 1642.17 -1.57451 -0.0684915 0
M  V30 17837 C 1643.12 -2.00364 -1.08803 0
M  V30 17838 C 1644.1 -0.886239 -1.34293 0
M  V30 17839 O 1645.3 -1.15015 -1.34538 0
M  V30 17840 C 1642.42 -2.45387 -2.40083 0
M  V30 17841 C 1641.51 -3.63869 -2.17853 0
M  V30 17842 N 1641.9 -4.77936 -1.65562 0
M  V30 17843 C 1640.2 -3.70482 -2.48312 0
M  V30 17844 C 1640.9 -5.59768 -1.58223 0
M  V30 17845 N 1639.88 -5.03711 -2.04392 0
M  V30 17846 H 1643.68 -2.85994 -0.6771 0
M  V30 17847 H 1641.19 -1.60046 -0.275509 0
M  V30 17848 H 1643.19 -2.74372 -3.13888 0
M  V30 17849 H 1641.85 -1.61146 -2.8189 0
M  V30 17850 H 1642.86 -5.00163 -1.34379 0
M  V30 17851 H 1639.54 -2.96961 -2.93463 0
M  V30 17852 H 1640.93 -6.61346 -1.18619 0
M  V30 17853 N 1643.65 0.339955 -1.5389 0
M  V30 17854 C 1644.9 1.07723 -1.70524 0
M  V30 17855 C 1645.21 1.89693 -0.477058 0
M  V30 17856 O 1646.42 2.66387 -0.524424 0
M  V30 17857 C 1644.87 1.96455 -3.01551 0
M  V30 17858 C 1644.48 1.19675 -4.3172 0
M  V30 17859 C 1646.22 2.70019 -3.27552 0
M  V30 17860 C 1644.13 2.07458 -5.53819 0
M  V30 17861 H 1643.06 0.405877 -0.635437 0
M  V30 17862 H 1645.71 0.336489 -1.80388 0
M  V30 17863 H 1644.09 2.74364 -2.85553 0
M  V30 17864 H 1645.27 0.466526 -4.58432 0
M  V30 17865 H 1643.58 0.578651 -4.1236 0
M  V30 17866 H 1646.18 3.35973 -4.15964 0
M  V30 17867 H 1646.52 3.36779 -2.44716 0
M  V30 17868 H 1647.06 1.99182 -3.44342 0
M  V30 17869 H 1643.79 1.45234 -6.39208 0
M  V30 17870 H 1643.31 2.7826 -5.31349 0
M  V30 17871 H 1644.99 2.66428 -5.89598 0
M  V30 17872 N 1645.13 1.45684 0.601159 0
M  V30 17873 C 1646.06 1.50861 1.7255 0
M  V30 17874 C 1647.07 0.398728 1.57842 0
M  V30 17875 O 1648.26 0.66613 1.65605 0
M  V30 17876 C 1645.36 1.35535 3.10618 0
M  V30 17877 C 1644.53 2.60313 3.51505 0
M  V30 17878 C 1643.59 2.39451 4.68561 0
M  V30 17879 O 1642.62 3.13094 4.75353 0
M  V30 17880 N 1643.82 1.44426 5.62247 0
M  V30 17881 H 1646.58 2.47799 1.6857 0
M  V30 17882 H 1644.15 1.41505 0.786626 0
M  V30 17883 H 1646.14 1.19379 3.86692 0
M  V30 17884 H 1644.71 0.468492 3.09069 0
M  V30 17885 H 1643.93 2.9154 2.65327 0
M  V30 17886 H 1645.22 3.43242 3.75583 0
M  V30 17887 H 1644.61 0.836624 5.59479 0
M  V30 17888 H 1643.17 1.34239 6.37827 0
M  V30 17889 N 1646.6 -0.84422 1.33082 0
M  V30 17890 C 1647.84 -1.61287 1.25562 0
M  V30 17891 C 1648.21 -1.91179 -0.177361 0
M  V30 17892 O 1649.41 -2.66151 -0.376442 0
M  V30 17893 C 1647.68 -2.89106 2.10125 0
M  V30 17894 S 1649.24 -3.79816 2.1974 0
M  V30 17895 H 1646.06 -0.553081 0.446791 0
M  V30 17896 H 1648.66 -0.998931 1.68052 0
M  V30 17897 H 1647.36 -2.65109 3.13281 0
M  V30 17898 H 1646.89 -3.55511 1.68451 0
M  V30 17899 H 1648.91 -4.77354 1.35454 0
M  V30 17900 N 1648.08 -1.16463 -1.0618 0
M  V30 17901 C 1649.31 -0.97159 -1.83235 0
M  V30 17902 C 1649.73 0.475295 -1.81996 0
M  V30 17903 O 1649.09 1.33964 -1.22161 0
M  V30 17904 C 1649.14 -1.50504 -3.2769 0
M  V30 17905 O 1648.24 -0.712128 -4.06205 0
M  V30 17906 H 1647.58 -0.345676 -0.566925 0
M  V30 17907 H 1650.11 -1.54727 -1.33868 0
M  V30 17908 H 1650.12 -1.52301 -3.78508 0
M  V30 17909 H 1648.8 -2.55832 -3.27907 0
M  V30 17910 H 1647.37 -0.764756 -3.64974 0
M  V30 17911 N 1649.56 1.24734 -0.963288 0
M  V30 17912 C 1650.81 1.91987 -0.618386 0
M  V30 17913 C 1651.12 1.76179 0.849726 0
M  V30 17914 O 1652.33 2.38082 1.30496 0
M  V30 17915 C 1650.78 3.44079 -1.05534 0
M  V30 17916 C 1650.39 3.68582 -2.5466 0
M  V30 17917 C 1652.14 4.17209 -0.783378 0
M  V30 17918 C 1650.04 5.14223 -2.92111 0
M  V30 17919 H 1648.97 0.718836 -0.227575 0
M  V30 17920 H 1651.62 1.41453 -1.1689 0
M  V30 17921 H 1650.01 3.93624 -0.433168 0
M  V30 17922 H 1651.18 3.29655 -3.2197 0
M  V30 17923 H 1649.49 3.08729 -2.79419 0
M  V30 17924 H 1652.09 5.24503 -1.03924 0
M  V30 17925 H 1652.43 4.15355 0.280352 0
M  V30 17926 H 1652.97 3.736 -1.36631 0
M  V30 17927 H 1649.71 5.21195 -3.97537 0
M  V30 17928 H 1649.23 5.54164 -2.29482 0
M  V30 17929 H 1650.91 5.82419 -2.81775 0
M  V30 17930 N 1651.04 0.732878 1.39523 0
M  V30 17931 C 1651.98 0.0915149 2.30618 0
M  V30 17932 C 1652.95 -0.731943 1.49103 0
M  V30 17933 O 1654.14 -0.692343 1.77796 0
M  V30 17934 C 1651.28 -0.811387 3.35426 0
M  V30 17935 C 1650.39 0.0244578 4.31993 0
M  V30 17936 C 1649.53 -0.879521 5.23868 0
M  V30 17937 C 1648.57 -0.0387974 6.12088 0
M  V30 17938 N 1647.7 -0.898593 6.96326 0
M  V30 17939 H 1652.54 0.87399 2.84895 0
M  V30 17940 H 1650.08 0.442659 1.40282 0
M  V30 17941 H 1652.04 -1.3493 3.94778 0
M  V30 17942 H 1650.67 -1.55986 2.8261 0
M  V30 17943 H 1649.72 0.679762 3.74277 0
M  V30 17944 H 1651.03 0.674606 4.94217 0
M  V30 17945 H 1650.19 -1.48535 5.88237 0
M  V30 17946 H 1648.93 -1.56345 4.6196 0
M  V30 17947 H 1647.93 0.579847 5.46734 0
M  V30 17948 H 1649.16 0.641887 6.7606 0
M  V30 17949 H 1647.1 -1.56786 6.36988 0
M  V30 17950 H 1647.02 -0.304876 7.55385 0
M  V30 17951 H 1648.29 -1.49005 7.65126 0
M  V30 17952 N 1652.52 -1.50101 0.480349 0
M  V30 17953 C 1653.93 -1.8668 0.0274773 0
M  V30 17954 C 1654.28 -1.39442 -1.38023 0
M  V30 17955 O 1653.4 -0.763363 -2.02489 0
M  V30 17956 C 1654 -3.38773 0.043087 0
M  V30 17957 C 1652.56 -3.74728 -0.354352 0
M  V30 17958 C 1651.7 -2.7403 0.424583 0
M  V30 17959 H 1654.65 -1.42713 0.694172 0
M  V30 17960 H 1654.68 -3.72894 -0.756989 0
M  V30 17961 H 1654.19 -3.73123 1.06775 0
M  V30 17962 H 1652.29 -3.45981 -1.38303 0
M  V30 17963 H 1652.4 -4.79075 -0.0492608 0
M  V30 17964 H 1650.77 -2.54403 -0.122927 0
M  V30 17965 H 1651.55 -3.11225 1.44894 0
M  V30 17966 N 1653.99 -0.213323 -1.5615 0
M  V30 17967 C 1654.94 0.713371 -2.16553 0
M  V30 17968 C 1655.93 1.16341 -1.11147 0
M  V30 17969 O 1657.12 1.11877 -1.37159 0
M  V30 17970 C 1654.25 1.92487 -2.8426 0
M  V30 17971 C 1653.33 1.49489 -3.9688 0
M  V30 17972 N 1653.73 0.776985 -4.99797 0
M  V30 17973 C 1652.02 1.78281 -4.08818 0
M  V30 17974 C 1652.72 0.558882 -5.79009 0
M  V30 17975 N 1651.7 1.11311 -5.32082 0
M  V30 17976 H 1655.5 0.156357 -2.93484 0
M  V30 17977 H 1653.02 -0.0142491 -1.62394 0
M  V30 17978 H 1655.01 2.59942 -3.25938 0
M  V30 17979 H 1653.67 2.48643 -2.08822 0
M  V30 17980 H 1654.68 0.430529 -5.16107 0
M  V30 17981 H 1651.36 2.35816 -3.44524 0
M  V30 17982 H 1652.75 -0.0119209 -6.71899 0
M  V30 17983 N 1655.47 1.57485 0.0601405 0
M  V30 17984 C 1656.44 2.03493 1.05467 0
M  V30 17985 C 1657.44 0.933816 1.30907 0
M  V30 17986 O 1658.63 1.19837 1.26431 0
M  V30 17987 C 1655.76 2.42549 2.39547 0
M  V30 17988 H 1656.95 2.92595 0.657893 0
M  V30 17989 H 1654.5 1.53272 0.306183 0
M  V30 17990 H 1655.24 1.56509 2.84034 0
M  V30 17991 H 1655.02 3.22911 2.22421 0
M  V30 17992 H 1656.51 2.7868 3.1101 0
M  V30 17993 N 1656.95 -0.331789 1.54068 0
M  V30 17994 C 1658.2 -1.06818 1.71093 0
M  V30 17995 C 1658.51 -1.89438 0.487111 0
M  V30 17996 O 1659.72 -2.66105 0.538544 0
M  V30 17997 C 1658.17 -1.94853 3.02589 0
M  V30 17998 C 1657.78 -1.17384 4.32348 0
M  V30 17999 C 1659.53 -2.68278 3.28979 0
M  V30 18000 C 1657.43 -2.04518 5.54911 0
M  V30 18001 H 1656.36 -0.402501 0.63758 0
M  V30 18002 H 1659.01 -0.326918 1.80564 0
M  V30 18003 H 1657.4 -2.72845 2.87004 0
M  V30 18004 H 1658.57 -0.442208 4.58673 0
M  V30 18005 H 1656.89 -0.556775 4.12661 0
M  V30 18006 H 1659.48 -3.33762 4.1774 0
M  V30 18007 H 1659.83 -3.35476 2.46498 0
M  V30 18008 H 1660.36 -1.97353 3.45394 0
M  V30 18009 H 1657.1 -1.41842 6.3997 0
M  V30 18010 H 1656.62 -2.75438 5.32817 0
M  V30 18011 H 1658.3 -2.63297 5.91002 0
M  V30 18012 N 1658.43 -1.46001 -0.593424 0
M  V30 18013 C 1659.68 -1.50025 -1.34816 0
M  V30 18014 C 1659.99 -0.151905 -1.95009 0
M  V30 18015 O 1661.2 -0.0698751 -2.7141 0
M  V30 18016 C 1659.65 -2.643 -2.44282 0
M  V30 18017 C 1659.26 -4.05509 -1.90438 0
M  V30 18018 C 1661 -2.77584 -3.21165 0
M  V30 18019 C 1658.91 -5.11142 -2.97469 0
M  V30 18020 H 1657.84 -0.558299 -0.506772 0
M  V30 18021 H 1660.49 -1.72182 -0.634484 0
M  V30 18022 H 1658.87 -2.35453 -3.18399 0
M  V30 18023 H 1660.05 -4.44099 -1.22935 0
M  V30 18024 H 1658.36 -3.96798 -1.26256 0
M  V30 18025 H 1660.96 -3.53673 -4.01023 0
M  V30 18026 H 1661.3 -1.84718 -3.73075 0
M  V30 18027 H 1661.84 -3.06026 -2.54151 0
M  V30 18028 H 1658.58 -6.05764 -2.5046 0
M  V30 18029 H 1658.1 -4.77107 -3.63495 0
M  V30 18030 H 1659.77 -5.36516 -3.61607 0
M  V30 18031 N 1659.91 0.83715 -1.33527 0
M  V30 18032 C 1661.16 1.58747 -1.24428 0
M  V30 18033 C 1661.47 1.94696 0.187885 0
M  V30 18034 O 1662.67 2.68524 0.400903 0
M  V30 18035 C 1661.13 2.86337 -2.18035 0
M  V30 18036 C 1660.74 2.57745 -3.66431 0
M  V30 18037 C 1662.48 3.6436 -2.17812 0
M  V30 18038 C 1660.39 3.81443 -4.51946 0
M  V30 18039 H 1659.32 0.595749 -0.462168 0
M  V30 18040 H 1661.97 0.922901 -1.58603 0
M  V30 18041 H 1660.35 3.54344 -1.76795 0
M  V30 18042 H 1661.53 1.97939 -4.16121 0
M  V30 18043 H 1659.84 1.93023 -3.68959 0
M  V30 18044 H 1662.44 4.56181 -2.78932 0
M  V30 18045 H 1662.78 3.99414 -1.17364 0
M  V30 18046 H 1663.31 3.03279 -2.57423 0
M  V30 18047 H 1660.05 3.51519 -5.53276 0
M  V30 18048 H 1659.57 4.40582 -4.06998 0
M  V30 18049 H 1661.25 4.49004 -4.65837 0
M  V30 18050 N 1661.38 1.17024 1.05561 0
M  V30 18051 C 1662.31 0.906823 2.15172 0
M  V30 18052 C 1663.3 -0.149745 1.6944 0
M  V30 18053 O 1664.48 -0.000287092 1.942 0
M  V30 18054 C 1661.61 0.415251 3.44809 0
M  V30 18055 C 1660.56 1.41058 4.04088 0
M  V30 18056 C 1659.89 0.777109 5.29023 0
M  V30 18057 C 1661.19 2.78258 4.42007 0
M  V30 18058 H 1662.88 1.82347 2.37466 0
M  V30 18059 H 1660.43 0.878162 1.14124 0
M  V30 18060 H 1662.38 0.218407 4.20834 0
M  V30 18061 H 1661.11 -0.536924 3.22156 0
M  V30 18062 H 1659.77 1.5941 3.30127 0
M  V30 18063 H 1659.41 -0.181784 5.02671 0
M  V30 18064 H 1659.11 1.44151 5.69644 0
M  V30 18065 H 1660.64 0.590455 6.07738 0
M  V30 18066 H 1662.05 2.63645 5.09082 0
M  V30 18067 H 1660.45 3.41241 4.93634 0
M  V30 18068 H 1661.52 3.3295 3.52523 0
M  V30 18069 N 1662.86 -1.24221 0.969889 0
M  V30 18070 C 1664.27 -1.74206 0.671494 0
M  V30 18071 C 1664.62 -1.78576 -0.81271 0
M  V30 18072 O 1663.75 -1.41664 -1.63586 0
M  V30 18073 C 1664.34 -3.16371 1.21222 0
M  V30 18074 C 1662.9 -3.63855 0.96368 0
M  V30 18075 C 1662.05 -2.42429 1.34623 0
M  V30 18076 H 1665 -1.09893 1.14496 0
M  V30 18077 H 1665.02 -3.7606 0.579552 0
M  V30 18078 H 1664.53 -3.13159 2.29245 0
M  V30 18079 H 1662.64 -3.72463 -0.100931 0
M  V30 18080 H 1662.75 -4.51207 1.61087 0
M  V30 18081 H 1661.11 -2.42952 0.764624 0
M  V30 18082 H 1661.9 -2.41896 2.436 0
M  V30 18083 N 1664.34 -0.740267 -1.39132 0
M  V30 18084 C 1665.29 -0.0929334 -2.32414 0
M  V30 18085 C 1666.28 0.720062 -1.53334 0
M  V30 18086 O 1667.49 0.620656 -1.68961 0
M  V30 18087 H 1663.86 -0.0112531 -0.751916 0
M  V30 18088 H 1665.83 -0.895975 -2.84631 0
M  V30 18089 C 1664.58 0.796182 -3.38462 0
M  V30 18090 H 1663.91 0.17999 -3.99395 0
M  V30 18091 H 1665.35 1.21664 -4.0617 0
M  V30 18092 C 1663.81 1.93285 -2.75939 0
M  V30 18093 O 1664.34 3.02593 -2.64198 0
M  V30 18094 N 1662.54 1.72386 -2.33948 0
M  V30 18095 H 1662.09 0.834821 -2.43698 0
M  V30 18096 H 1662.05 2.48612 -1.92456 0
M  V30 18097 N 1665.82 1.49844 -0.488302 0
M  V30 18098 C 1667.05 2.06819 0.0578807 0
M  V30 18099 C 1667.46 1.35018 1.31969 0
M  V30 18100 O 1666.82 0.424614 1.77492 0
M  V30 18101 C 1666.87 3.60005 0.328435 0
M  V30 18102 O 1666.59 4.29102 -0.883338 0
M  V30 18103 C 1668.09 4.33655 0.919675 0
M  V30 18104 H 1665.31 0.670837 -0.014775 0
M  V30 18105 H 1667.86 1.92792 -0.682022 0
M  V30 18106 H 1666.01 3.73777 1.0183 0
M  V30 18107 H 1666.42 5.206 -0.638414 0
M  V30 18108 H 1667.9 5.41753 1.05864 0
M  V30 18109 H 1668.38 3.95289 1.91424 0
M  V30 18110 H 1668.98 4.24457 0.267672 0
M  V30 18111 N 1667.3 0.221601 1.56034 0
M  V30 18112 C 1668.57 -0.459097 1.90136 0
M  V30 18113 C 1668.95 -1.7774 1.13894 0
M  V30 18114 O 1668.3 -2.27147 0.248285 0
M  V30 18115 C 1668.51 -0.651996 3.42856 0
M  V30 18116 C 1669.86 -0.959402 4.13619 0
M  V30 18117 O 1670.88 -0.73878 3.48454 0
M  V30 18118 O 1669.74 -1.37811 5.28839 0
M  V30 18119 H 1666.84 -0.242753 0.790569 0
M  V30 18120 H 1669.38 0.263789 1.67637 0
M  V30 18121 H 1668.15 0.277892 3.90312 0
M  V30 18122 H 1667.78 -1.42637 3.71134 0
M  V30 18123 N 1668.77 -1.57515 -0.0517878 0
M  V30 18124 C 1670.02 -1.87843 -0.745624 0
M  V30 18125 C 1670.34 -0.816318 -1.77091 0
M  V30 18126 O 1669.61 0.152784 -1.95303 0
M  V30 18127 H 1668.19 -0.693194 -0.278372 0
M  V30 18128 H 1670.86 -1.94886 -0.0231267 0
M  V30 18129 H 1669.95 -2.86001 -1.2494 0
M  V30 18130 N 1670.25 0.323614 -1.54242 0
M  V30 18131 C 1671.19 1.42211 -1.78469 0
M  V30 18132 C 1672.16 1.49702 -0.634671 0
M  V30 18133 O 1673.35 1.67113 -0.872103 0
M  V30 18134 C 1670.48 2.80306 -1.90121 0
M  V30 18135 C 1669.52 2.90347 -3.12411 0
M  V30 18136 S 1670.35 2.54761 -4.71017 0
M  V30 18137 C 1671.51 3.94928 -4.85575 0
M  V30 18138 H 1671.74 1.21447 -2.71363 0
M  V30 18139 H 1669.28 0.520446 -1.45364 0
M  V30 18140 H 1671.23 3.59856 -1.97519 0
M  V30 18141 H 1669.9 2.98353 -0.982048 0
M  V30 18142 H 1669.09 3.91584 -3.17298 0
M  V30 18143 H 1668.69 2.18769 -3.03342 0
M  V30 18144 H 1670.98 4.8968 -4.68209 0
M  V30 18145 H 1671.93 3.95024 -5.87675 0
M  V30 18146 H 1672.33 3.8388 -4.1388 0
M  V30 18147 N 1671.73 1.46313 0.585673 0
M  V30 18148 C 1672.64 1.59232 1.72286 0
M  V30 18149 C 1673.66 0.475912 1.67365 0
M  V30 18150 O 1674.83 0.739627 1.87327 0
M  V30 18151 C 1671.9 1.57647 3.08785 0
M  V30 18152 C 1670.96 2.80497 3.24992 0
M  V30 18153 C 1670.19 2.78978 4.5498 0
M  V30 18154 O 1670.42 1.87553 5.38684 0
M  V30 18155 O 1669.35 3.7048 4.74371 0
M  V30 18156 H 1673.18 2.55398 1.64334 0
M  V30 18157 H 1670.76 1.29073 0.752369 0
M  V30 18158 H 1672.64 1.59448 3.90069 0
M  V30 18159 H 1671.32 0.6464 3.1718 0
M  V30 18160 H 1670.22 2.8425 2.43213 0
M  V30 18161 H 1671.56 3.72703 3.21487 0
M  V30 18162 N 1673.21 -0.830057 1.33969 0
M  V30 18163 C 1674.14 -1.95557 1.27592 0
M  V30 18164 C 1675.12 -1.69395 0.154745 0
M  V30 18165 O 1676.31 -1.91094 0.345954 0
M  V30 18166 C 1673.44 -3.31881 1.02335 0
M  V30 18167 C 1672.39 -3.72464 2.10842 0
M  V30 18168 C 1671.72 -5.06692 1.70785 0
M  V30 18169 C 1673.02 -3.85315 3.52604 0
M  V30 18170 H 1674.71 -2.0115 2.21763 0
M  V30 18171 H 1672.26 -0.96639 1.06756 0
M  V30 18172 H 1674.21 -4.10197 0.965206 0
M  V30 18173 H 1672.93 -3.26568 0.0460462 0
M  V30 18174 H 1671.59 -2.96417 2.15714 0
M  V30 18175 H 1671.24 -4.97859 0.717334 0
M  V30 18176 H 1670.94 -5.34817 2.43403 0
M  V30 18177 H 1672.46 -5.87474 1.66452 0
M  V30 18178 H 1673.88 -4.5392 3.50185 0
M  V30 18179 H 1672.27 -4.24886 4.23783 0
M  V30 18180 H 1673.34 -2.87514 3.90466 0
M  V30 18181 N 1674.69 -1.17582 -1.04939 0
M  V30 18182 C 1675.62 -0.918221 -2.14688 0
M  V30 18183 C 1676.6 0.140757 -1.69517 0
M  V30 18184 O 1677.78 -0.0100118 -1.94197 0
M  V30 18185 C 1674.91 -0.433531 -3.44584 0
M  V30 18186 C 1673.87 -1.43199 -4.03334 0
M  V30 18187 C 1673.19 -0.805154 -5.28603 0
M  V30 18188 C 1674.49 -2.80598 -4.40525 0
M  V30 18189 H 1676.19 -1.83604 -2.36495 0
M  V30 18190 H 1673.73 -0.884202 -1.13657 0
M  V30 18191 H 1675.69 -0.240722 -4.20712 0
M  V30 18192 H 1674.41 0.519832 -3.22437 0
M  V30 18193 H 1673.07 -1.61158 -3.29277 0
M  V30 18194 H 1672.72 0.155124 -5.02761 0
M  V30 18195 H 1672.42 -1.4717 -5.68871 0
M  V30 18196 H 1673.94 -0.622677 -6.07417 0
M  V30 18197 H 1675.36 -2.66341 -5.07676 0
M  V30 18198 H 1673.75 -3.43854 -4.91817 0
M  V30 18199 H 1674.82 -3.34815 -3.50752 0
M  V30 18200 N 1676.17 1.23705 -0.976463 0
M  V30 18201 C 1677.41 1.92299 -0.64412 0
M  V30 18202 C 1677.74 1.7605 0.819767 0
M  V30 18203 O 1677.02 1.11902 1.59086 0
M  V30 18204 C 1677.3 3.45042 -1.03044 0
M  V30 18205 C 1677.16 3.70418 -2.55167 0
M  V30 18206 C 1678.47 4.36374 -0.571444 0
M  V30 18207 H 1675.59 0.698369 -0.235478 0
M  V30 18208 H 1678.24 1.45904 -1.21704 0
M  V30 18209 H 1676.39 3.84687 -0.54294 0
M  V30 18210 H 1678.06 3.40278 -3.11462 0
M  V30 18211 H 1676.3 3.15266 -2.97976 0
M  V30 18212 H 1676.97 4.77323 -2.77248 0
M  V30 18213 H 1679.45 4.04153 -0.989936 0
M  V30 18214 H 1678.32 5.41958 -0.870226 0
M  V30 18215 H 1678.58 4.38932 0.528318 0
M  V30 18216 N 1677.64 0.747635 1.38738 0
M  V30 18217 C 1678.88 0.305993 2.02097 0
M  V30 18218 C 1679.25 -1.09002 1.58059 0
M  V30 18219 O 1680.45 -1.63044 2.13705 0
M  V30 18220 C 1678.72 0.418156 3.54945 0
M  V30 18221 S 1680.28 0.0582187 4.38761 0
M  V30 18222 H 1677.1 0.119075 0.700958 0
M  V30 18223 H 1679.7 0.97694 1.6934 0
M  V30 18224 H 1678.4 1.43524 3.84486 0
M  V30 18225 H 1677.93 -0.270178 3.92471 0
M  V30 18226 H 1679.95 -1.15407 4.82593 0
M  V30 18227 N 1679.12 -1.49583 0.496242 0
M  V30 18228 C 1680.35 -2.06547 -0.0468437 0
M  V30 18229 C 1680.76 -1.3574 -1.31801 0
M  V30 18230 O 1680.1 -0.427948 -1.78646 0
M  V30 18231 C 1680.16 -3.57532 -0.375622 0
M  V30 18232 C 1679.83 -4.49994 0.797134 0
M  V30 18233 C 1680.83 -4.91793 1.6863 0
M  V30 18234 C 1678.51 -4.92355 0.99459 0
M  V30 18235 C 1680.5 -5.74685 2.7571 0
M  V30 18236 C 1678.19 -5.75024 2.06859 0
M  V30 18237 C 1679.19 -6.16093 2.94819 0
M  V30 18238 O 1678.88 -6.9711 4.00366 0
M  V30 18239 H 1678.61 -0.675832 0.0150901 0
M  V30 18240 H 1681.16 -1.93413 0.691416 0
M  V30 18241 H 1679.39 -3.68658 -1.16741 0
M  V30 18242 H 1681.08 -3.96755 -0.856757 0
M  V30 18243 H 1681.85 -4.59715 1.54554 0
M  V30 18244 H 1677.73 -4.59893 0.31933 0
M  V30 18245 H 1681.27 -6.06661 3.44396 0
M  V30 18246 H 1677.17 -6.06514 2.20931 0
M  V30 18247 H 1677.94 -7.15408 3.9766 0
M  V30 18248 N 1680.6 -0.229873 -1.55915 0
M  V30 18249 C 1681.51 0.687953 -2.24286 0
M  V30 18250 C 1682.53 1.20705 -1.25325 0
M  V30 18251 O 1683.7 1.2469 -1.58159 0
M  V30 18252 C 1680.77 1.87563 -2.91584 0
M  V30 18253 C 1679.83 1.39769 -4.0591 0
M  V30 18254 C 1679.06 2.52876 -4.69989 0
M  V30 18255 O 1679.28 3.71208 -4.33083 0
M  V30 18256 O 1678.22 2.23603 -5.58825 0
M  V30 18257 H 1682.04 0.135464 -3.03398 0
M  V30 18258 H 1679.63 0.000925172 -1.494 0
M  V30 18259 H 1681.51 2.56907 -3.34031 0
M  V30 18260 H 1680.19 2.41606 -2.15426 0
M  V30 18261 H 1679.09 0.672029 -3.68014 0
M  V30 18262 H 1680.43 0.903543 -4.83836 0
M  V30 18263 N 1682.08 1.5754 0.0434337 0
M  V30 18264 C 1683.35 1.79733 0.771713 0
M  V30 18265 C 1683.73 0.82446 1.94334 0
M  V30 18266 O 1683.08 -0.136485 2.28092 0
M  V30 18267 C 1683.29 3.27049 1.2182 0
M  V30 18268 C 1684.64 3.91648 1.64002 0
M  V30 18269 O 1685.66 3.31111 1.31315 0
M  V30 18270 O 1684.52 4.98206 2.24618 0
M  V30 18271 H 1681.62 0.73861 0.372001 0
M  V30 18272 H 1684.16 1.69687 0.0213187 0
M  V30 18273 H 1682.94 3.89439 0.381158 0
M  V30 18274 H 1682.56 3.41929 2.02905 0
M  V30 18275 N 1683.56 -0.31543 1.54411 0
M  V30 18276 C 1684.47 -1.41136 1.87397 0
M  V30 18277 C 1685.48 -1.56199 0.76668 0
M  V30 18278 O 1686.66 -1.71139 1.06176 0
M  V30 18279 C 1683.72 -2.75731 2.10174 0
M  V30 18280 C 1682.78 -2.69776 3.33945 0
M  V30 18281 C 1682.02 -3.97952 3.55626 0
M  V30 18282 O 1682.24 -4.96614 2.80589 0
M  V30 18283 O 1681.17 -4.00719 4.49119 0
M  V30 18284 H 1685 -1.16167 2.80605 0
M  V30 18285 H 1682.58 -0.510193 1.40419 0
M  V30 18286 H 1684.47 -3.55392 2.26439 0
M  V30 18287 H 1683.14 -3.00574 1.20154 0
M  V30 18288 H 1682.05 -1.88638 3.23058 0
M  V30 18289 H 1683.38 -2.49887 4.24049 0
M  V30 18290 N 1685.03 -1.46622 -0.577906 0
M  V30 18291 C 1686.28 -1.5188 -1.3333 0
M  V30 18292 C 1686.6 -0.173993 -1.94222 0
M  V30 18293 O 1685.87 0.799972 -1.78822 0
M  V30 18294 H 1684.45 -0.559401 -0.495055 0
M  V30 18295 H 1687.12 -1.82785 -0.676449 0
M  V30 18296 H 1686.21 -2.27411 -2.13754 0
M  V30 18297 N 1686.51 0.822941 -1.34408 0
M  V30 18298 C 1687.76 1.58149 -1.26951 0
M  V30 18299 C 1688.09 1.93538 0.160222 0
M  V30 18300 O 1687.37 1.60021 1.1056 0
M  V30 18301 C 1687.65 2.88101 -2.16032 0
M  V30 18302 C 1687.5 2.59293 -3.67542 0
M  V30 18303 C 1688.82 3.89673 -2.04556 0
M  V30 18304 H 1685.94 0.573811 -0.462504 0
M  V30 18305 H 1688.58 0.948017 -1.64659 0
M  V30 18306 H 1686.73 3.42162 -1.84003 0
M  V30 18307 H 1688.4 2.11542 -4.09936 0
M  V30 18308 H 1686.65 1.92738 -3.88632 0
M  V30 18309 H 1687.32 3.51962 -4.25238 0
M  V30 18310 H 1689.79 3.44965 -2.32677 0
M  V30 18311 H 1688.67 4.78404 -2.69111 0
M  V30 18312 H 1688.93 4.30113 -1.02253 0
M  V30 18313 N 1687.99 1.18137 1.04314 0
M  V30 18314 C 1689.22 0.998567 1.80865 0
M  V30 18315 C 1689.63 -0.456239 1.83617 0
M  V30 18316 O 1688.97 -1.32867 1.26855 0
M  V30 18317 C 1689.03 1.47397 3.27894 0
M  V30 18318 C 1688.7 2.95266 3.48808 0
M  V30 18319 C 1689.69 3.93139 3.40202 0
M  V30 18320 C 1687.38 3.33641 3.75485 0
M  V30 18321 C 1689.37 5.27383 3.57974 0
M  V30 18322 C 1687.06 4.68049 3.92904 0
M  V30 18323 C 1688.06 5.64729 3.84149 0
M  V30 18324 O 1687.75 6.96704 4.01072 0
M  V30 18325 H 1687.48 0.353025 0.576498 0
M  V30 18326 H 1690.03 1.57054 1.32375 0
M  V30 18327 H 1688.26 0.845625 3.77341 0
M  V30 18328 H 1689.95 1.25546 3.85996 0
M  V30 18329 H 1690.72 3.64838 3.1956 0
M  V30 18330 H 1686.6 2.58951 3.81399 0
M  V30 18331 H 1690.14 6.02831 3.51056 0
M  V30 18332 H 1686.04 4.96052 4.1304 0
M  V30 18333 H 1686.81 7.03571 4.18246 0
M  V30 18334 N 1689.47 -1.23186 0.98301 0
M  V30 18335 C 1690.71 -1.91955 0.65431 0
M  V30 18336 C 1691.05 -1.76482 -0.810419 0
M  V30 18337 O 1690.32 -1.12744 -1.5849 0
M  V30 18338 C 1690.61 -3.4449 1.04873 0
M  V30 18339 C 1690.46 -3.6906 2.57128 0
M  V30 18340 C 1691.78 -4.36065 0.594578 0
M  V30 18341 H 1688.9 -0.69711 0.239179 0
M  V30 18342 H 1691.54 -1.45257 1.22476 0
M  V30 18343 H 1689.69 -3.84394 0.563333 0
M  V30 18344 H 1691.36 -3.38622 3.13262 0
M  V30 18345 H 1689.6 -3.13681 2.99644 0
M  V30 18346 H 1690.27 -4.75846 2.79776 0
M  V30 18347 H 1692.75 -4.03622 1.01136 0
M  V30 18348 H 1691.63 -5.41489 0.898955 0
M  V30 18349 H 1691.89 -4.39206 -0.505033 0
M  V30 18350 N 1690.95 -0.754982 -1.38339 0
M  V30 18351 C 1691.89 -0.117579 -2.32303 0
M  V30 18352 C 1692.89 0.703759 -1.5409 0
M  V30 18353 O 1694.09 0.602701 -1.6961 0
M  V30 18354 H 1690.47 -0.0192276 -0.751754 0
M  V30 18355 H 1692.44 -0.926113 -2.83665 0
M  V30 18356 C 1691.19 0.760239 -3.39287 0
M  V30 18357 H 1690.51 0.137619 -3.99563 0
M  V30 18358 H 1691.95 1.17349 -4.07437 0
M  V30 18359 C 1690.41 1.90347 -2.77974 0
M  V30 18360 O 1690.94 2.99773 -2.67393 0
M  V30 18361 N 1689.15 1.69895 -2.35763 0
M  V30 18362 H 1688.69 0.808926 -2.44569 0
M  V30 18363 H 1688.65 2.46557 -1.95082 0
M  V30 18364 N 1692.42 1.49318 -0.504168 0
M  V30 18365 C 1693.65 2.06869 0.0359415 0
M  V30 18366 C 1694.07 1.3641 1.30529 0
M  V30 18367 O 1693.42 0.443416 1.77031 0
M  V30 18368 C 1693.48 3.60333 0.290233 0
M  V30 18369 O 1693.2 4.28141 -0.928801 0
M  V30 18370 C 1694.7 4.34606 0.873628 0
M  V30 18371 H 1691.92 0.670643 -0.0218893 0
M  V30 18372 H 1694.46 1.92058 -0.702432 0
M  V30 18373 H 1692.62 3.74836 0.978594 0
M  V30 18374 H 1693.03 5.19894 -0.693595 0
M  V30 18375 H 1694.5 5.42846 1.00112 0
M  V30 18376 H 1694.98 3.97297 1.87221 0
M  V30 18377 H 1695.59 4.24717 0.222638 0
M  V30 18378 N 1693.9 0.238138 1.5579 0
M  V30 18379 C 1695.13 -0.392852 2.02831 0
M  V30 18380 C 1695.54 -1.52714 1.11692 0
M  V30 18381 O 1694.88 -1.83294 0.122034 0
M  V30 18382 C 1694.95 -0.970383 3.46156 0
M  V30 18383 C 1694.61 0.0305457 4.5699 0
M  V30 18384 C 1695.61 0.836938 5.13119 0
M  V30 18385 C 1693.29 0.154102 5.02064 0
M  V30 18386 C 1695.29 1.75343 6.12808 0
M  V30 18387 C 1692.97 1.07411 6.01586 0
M  V30 18388 C 1693.97 1.8723 6.56836 0
M  V30 18389 O 1693.66 2.77681 7.54419 0
M  V30 18390 H 1693.39 -0.0985571 0.668777 0
M  V30 18391 H 1695.94 0.356979 2.02274 0
M  V30 18392 H 1694.17 -1.76961 3.43834 0
M  V30 18393 H 1695.86 -1.51053 3.76747 0
M  V30 18394 H 1696.63 0.752021 4.79134 0
M  V30 18395 H 1692.51 -0.457094 4.58728 0
M  V30 18396 H 1696.05 2.37687 6.55859 0
M  V30 18397 H 1691.95 1.15998 6.34992 0
M  V30 18398 H 1692.72 2.71943 7.72003 0
M  V30 18399 N 1695.38 -1.57561 -0.0350783 0
M  V30 18400 C 1696.63 -1.88623 -0.725659 0
M  V30 18401 C 1696.95 -0.835055 -1.76215 0
M  V30 18402 O 1696.22 0.13206 -1.95454 0
M  V30 18403 H 1694.8 -0.696108 -0.271004 0
M  V30 18404 H 1697.46 -1.949 -0.00245508 0
M  V30 18405 H 1696.56 -2.8731 -1.21899 0
M  V30 18406 N 1696.86 0.307236 -1.54576 0
M  V30 18407 C 1698.27 0.652539 -1.45651 0
M  V30 18408 C 1698.47 1.90978 -0.64263 0
M  V30 18409 O 1697.53 2.52067 -0.147863 0
M  V30 18410 C 1698.84 0.811341 -2.89547 0
M  V30 18411 C 1700.39 0.90763 -2.99551 0
M  V30 18412 C 1700.87 1.09848 -4.44632 0
M  V30 18413 N 1702.36 1.16483 -4.48315 0
M  V30 18414 C 1703.09 1.33068 -5.57746 0
M  V30 18415 N 1702.59 1.46591 -6.77114 0
M  V30 18416 N 1704.38 1.35906 -5.45423 0
M  V30 18417 H 1696.53 -0.518891 -2.05964 0
M  V30 18418 H 1698.8 -0.170463 -0.932548 0
M  V30 18419 H 1698.5 -0.0414879 -3.51676 0
M  V30 18420 H 1698.38 1.70224 -3.36606 0
M  V30 18421 H 1700.76 1.75095 -2.37541 0
M  V30 18422 H 1700.84 -0.00715386 -2.55799 0
M  V30 18423 H 1700.49 0.259948 -5.07234 0
M  V30 18424 H 1700.42 2.02739 -4.86009 0
M  V30 18425 H 1702.91 1.07411 -3.62314 0
M  V30 18426 H 1703.22 1.58983 -7.5627 0
M  V30 18427 H 1701.57 1.43658 -6.79991 0
M  V30 18428 H 1704.76 1.24949 -4.51116 0
M  V30 18429 H 1704.93 1.48489 -6.30758 0
M  V30 18430 N 1698.34 1.46926 0.570122 0
M  V30 18431 C 1699.59 1.52151 1.32413 0
M  V30 18432 C 1699.9 0.18291 1.94743 0
M  V30 18433 O 1701.1 0.113045 2.71265 0
M  V30 18434 C 1699.56 2.68153 2.40046 0
M  V30 18435 C 1699.17 4.08487 1.83963 0
M  V30 18436 C 1700.91 2.82659 3.16709 0
M  V30 18437 C 1698.82 5.1581 2.893 0
M  V30 18438 H 1697.75 0.566291 0.497826 0
M  V30 18439 H 1700.4 1.73169 0.607011 0
M  V30 18440 H 1698.78 2.40488 3.14613 0
M  V30 18441 H 1699.96 4.45998 1.15854 0
M  V30 18442 H 1698.27 3.98756 1.19927 0
M  V30 18443 H 1700.87 3.60008 3.95346 0
M  V30 18444 H 1701.21 1.9063 3.70089 0
M  V30 18445 H 1701.74 3.10031 2.4925 0
M  V30 18446 H 1698.48 6.09672 2.40791 0
M  V30 18447 H 1698 4.8283 3.55859 0
M  V30 18448 H 1699.68 5.42201 3.53026 0
M  V30 18449 N 1699.82 -0.815801 1.34842 0
M  V30 18450 C 1701.04 -1.60397 1.30693 0
M  V30 18451 C 1701.46 -1.88434 -0.117536 0
M  V30 18452 O 1700.82 -1.48076 -1.06676 0
M  V30 18453 C 1700.87 -2.94069 2.10252 0
M  V30 18454 O 1700.59 -2.67251 3.47143 0
M  V30 18455 C 1702.09 -3.88456 2.13581 0
M  V30 18456 H 1699.31 -0.49835 0.449319 0
M  V30 18457 H 1701.85 -1.01451 1.77561 0
M  V30 18458 H 1700.01 -3.49554 1.67006 0
M  V30 18459 H 1700.42 -3.52536 3.88354 0
M  V30 18460 H 1701.9 -4.79391 2.73658 0
M  V30 18461 H 1702.37 -4.24359 1.13209 0
M  V30 18462 H 1702.98 -3.38907 2.56947 0
M  V30 18463 N 1701.29 -1.18689 -1.03686 0
M  V30 18464 C 1702.24 -0.917369 -2.11785 0
M  V30 18465 C 1703.21 0.144719 -1.65468 0
M  V30 18466 O 1704.4 0.00427016 -1.908 0
M  V30 18467 C 1701.54 -0.453396 -3.42109 0
M  V30 18468 C 1700.65 -1.58134 -4.02017 0
M  V30 18469 C 1699.78 -1.06971 -5.20318 0
M  V30 18470 C 1698.82 -2.17208 -5.72265 0
M  V30 18471 N 1697.96 -1.67411 -6.81849 0
M  V30 18472 H 1702.8 -1.84297 -2.34177 0
M  V30 18473 H 1700.34 -0.918951 -1.14864 0
M  V30 18474 H 1702.29 -0.165843 -4.1687 0
M  V30 18475 H 1700.92 0.435219 -3.19853 0
M  V30 18476 H 1699.98 -1.98429 -3.24546 0
M  V30 18477 H 1701.29 -2.41219 -4.36594 0
M  V30 18478 H 1700.44 -0.736906 -6.02208 0
M  V30 18479 H 1699.18 -0.208487 -4.87254 0
M  V30 18480 H 1698.19 -2.51328 -4.88993 0
M  V30 18481 H 1699.41 -3.03772 -6.07371 0
M  V30 18482 H 1697.36 -0.83584 -6.50653 0
M  V30 18483 H 1697.27 -2.44091 -7.15511 0
M  V30 18484 H 1698.54 -1.3707 -7.67354 0
M  V30 18485 N 1702.77 1.22662 -0.989529 0
M  V30 18486 C 1704.05 1.86816 -0.579566 0
M  V30 18487 C 1704.43 1.88858 0.943188 0
M  V30 18488 O 1703.78 1.37668 1.82372 0
M  V30 18489 C 1703.99 3.27863 -1.19612 0
M  V30 18490 C 1705.33 4.04384 -1.29454 0
M  V30 18491 O 1706.36 3.37116 -1.15026 0
M  V30 18492 O 1705.22 5.24789 -1.52508 0
M  V30 18493 H 1702.31 0.803332 -0.196434 0
M  V30 18494 H 1704.86 1.30467 -1.08519 0
M  V30 18495 H 1703.63 3.20993 -2.23784 0
M  V30 18496 H 1703.25 3.91813 -0.675875 0
M  V30 18497 N 1704.25 0.762308 1.37937 0
M  V30 18498 C 1705.5 0.322846 2.00214 0
M  V30 18499 C 1705.83 -1.09513 1.60376 0
M  V30 18500 O 1705.1 -1.75165 0.845432 0
M  V30 18501 C 1705.39 0.455651 3.57206 0
M  V30 18502 C 1705.24 1.91537 4.06981 0
M  V30 18503 C 1706.56 -0.145758 4.39859 0
M  V30 18504 H 1703.68 0.118781 0.727365 0
M  V30 18505 H 1706.32 0.963585 1.63753 0
M  V30 18506 H 1704.47 -0.0898341 3.88396 0
M  V30 18507 H 1706.14 2.51983 3.86397 0
M  V30 18508 H 1704.38 2.42744 3.59524 0
M  V30 18509 H 1705.06 1.9594 5.16054 0
M  V30 18510 H 1707.53 0.31956 4.14871 0
M  V30 18511 H 1706.41 -0.0226441 5.48895 0
M  V30 18512 H 1706.67 -1.23504 4.24499 0
M  V30 18513 N 1705.73 -1.49049 0.51208 0
M  V30 18514 C 1706.97 -2.0278 -0.0285311 0
M  V30 18515 C 1707.31 -1.39003 -1.35617 0
M  V30 18516 O 1706.58 -0.52952 -1.87153 0
M  V30 18517 C 1706.86 -3.59701 -0.169433 0
M  V30 18518 C 1706.72 -4.33989 1.18211 0
M  V30 18519 C 1708.04 -4.30698 -0.904812 0
M  V30 18520 H 1705.16 -0.736946 -0.00889467 0
M  V30 18521 H 1707.8 -1.77959 0.66564 0
M  V30 18522 H 1705.95 -3.8098 -0.760667 0
M  V30 18523 H 1707.62 -4.24176 1.81307 0
M  V30 18524 H 1705.86 -3.9611 1.76859 0
M  V30 18525 H 1706.53 -5.42177 1.03671 0
M  V30 18526 H 1709.01 -4.14141 -0.40327 0
M  V30 18527 H 1707.89 -5.40221 -0.972264 0
M  V30 18528 H 1708.15 -3.96718 -1.95108 0
M  V30 18529 N 1707.21 -0.246397 -1.55662 0
M  V30 18530 C 1708.14 0.647563 -2.24341 0
M  V30 18531 C 1709.12 1.1817 -1.22352 0
M  V30 18532 O 1710.3 1.22114 -1.51003 0
M  V30 18533 C 1707.43 1.84485 -2.94249 0
M  V30 18534 C 1706.39 1.4435 -4.02923 0
M  V30 18535 C 1705.71 2.72158 -4.60255 0
M  V30 18536 C 1707.01 0.614951 -5.18667 0
M  V30 18537 H 1708.71 0.0748803 -2.99306 0
M  V30 18538 H 1706.25 0.034575 -1.43958 0
M  V30 18539 H 1708.2 2.47588 -3.40995 0
M  V30 18540 H 1706.93 2.4429 -2.16772 0
M  V30 18541 H 1705.59 0.835811 -3.56945 0
M  V30 18542 H 1705.24 3.3016 -3.79478 0
M  V30 18543 H 1704.94 2.46028 -5.33614 0
M  V30 18544 H 1706.46 3.36161 -5.09734 0
M  V30 18545 H 1707.87 1.15028 -5.61642 0
M  V30 18546 H 1706.27 0.449729 -5.98412 0
M  V30 18547 H 1707.34 -0.372943 -4.83464 0
M  V30 18548 N 1708.68 1.57577 0.026722 0
M  V30 18549 C 1709.62 2.03515 1.05424 0
M  V30 18550 C 1710.63 0.948362 1.32325 0
M  V30 18551 O 1711.82 1.22563 1.29771 0
M  V30 18552 C 1708.92 2.39744 2.39533 0
M  V30 18553 C 1708.09 3.70832 2.31954 0
M  V30 18554 C 1707.15 3.94224 3.48531 0
M  V30 18555 O 1706.18 4.6525 3.27919 0
M  V30 18556 N 1707.38 3.40044 4.70479 0
M  V30 18557 H 1710.14 2.92282 0.662678 0
M  V30 18558 H 1707.7 1.60471 0.214623 0
M  V30 18559 H 1709.7 2.52529 3.16245 0
M  V30 18560 H 1708.27 1.56636 2.70525 0
M  V30 18561 H 1707.49 3.68378 1.40325 0
M  V30 18562 H 1708.77 4.56821 2.24035 0
M  V30 18563 H 1708.17 2.82478 4.90125 0
M  V30 18564 H 1706.73 3.58205 5.44548 0
M  V30 18565 N 1710.16 -0.299034 1.54737 0
M  V30 18566 C 1711.41 -1.03159 1.75299 0
M  V30 18567 C 1711.76 -1.84859 0.533365 0
M  V30 18568 O 1711.06 -1.85639 -0.474219 0
M  V30 18569 C 1711.25 -1.9673 2.98382 0
M  V30 18570 C 1711.08 -1.24234 4.32199 0
M  V30 18571 C 1709.85 -0.96869 4.95928 0
M  V30 18572 C 1712.05 -0.645795 5.10229 0
M  V30 18573 N 1710.03 -0.214208 6.13526 0
M  V30 18574 C 1711.4 -0.0241804 6.19995 0
M  V30 18575 C 1713.45 -0.55104 4.94841 0
M  V30 18576 C 1712.16 0.683023 7.1605 0
M  V30 18577 C 1714.18 0.142513 5.91228 0
M  V30 18578 C 1713.55 0.752971 7.00364 0
M  V30 18579 H 1709.64 -0.360348 0.694027 0
M  V30 18580 H 1712.23 -0.31 1.92216 0
M  V30 18581 H 1710.4 -2.66138 2.82887 0
M  V30 18582 H 1712.13 -2.63152 3.07462 0
M  V30 18583 H 1708.89 -1.26735 4.56328 0
M  V30 18584 H 1709.31 0.149604 6.76835 0
M  V30 18585 H 1713.95 -1.0087 4.10591 0
M  V30 18586 H 1711.67 1.15245 7.9984 0
M  V30 18587 H 1715.26 0.215798 5.814 0
M  V30 18588 H 1714.14 1.2811 7.73665 0
M  V30 18589 N 1711.64 -1.47227 -0.562322 0
M  V30 18590 C 1712.89 -1.53286 -1.31712 0
M  V30 18591 C 1713.21 -0.194583 -1.94027 0
M  V30 18592 O 1712.48 0.780961 -1.7966 0
M  V30 18593 H 1711.06 -0.564621 -0.489094 0
M  V30 18594 H 1713.72 -1.83492 -0.657024 0
M  V30 18595 H 1712.82 -2.29665 -2.1133 0
M  V30 18596 N 1713.12 0.808639 -1.35273 0
M  V30 18597 C 1714.03 1.95198 -1.30134 0
M  V30 18598 C 1715.04 1.72769 -0.206587 0
M  V30 18599 O 1716.22 1.96633 -0.4356 0
M  V30 18600 C 1713.28 3.29747 -1.07087 0
M  V30 18601 C 1712.35 3.65086 -2.25855 0
M  V30 18602 C 1711.58 4.93215 -2.03898 0
M  V30 18603 O 1711.8 5.61487 -1.00439 0
M  V30 18604 O 1710.74 5.26765 -2.91208 0
M  V30 18605 H 1714.56 2.0248 -2.26353 0
M  V30 18606 H 1712.15 0.946124 -1.15624 0
M  V30 18607 H 1714.03 4.10302 -0.960734 0
M  V30 18608 H 1712.7 3.23401 -0.139177 0
M  V30 18609 H 1711.61 2.84917 -2.42432 0
M  V30 18610 H 1712.94 3.76135 -3.17464 0
M  V30 18611 N 1714.6 1.19237 1.03055 0
M  V30 18612 C 1715.53 0.871947 2.10885 0
M  V30 18613 C 1716.51 -0.170311 1.61706 0
M  V30 18614 O 1717.69 -0.0469972 1.88441 0
M  V30 18615 C 1714.82 0.304639 3.37327 0
M  V30 18616 C 1713.86 1.32569 4.05374 0
M  V30 18617 S 1714.7 2.88551 4.51108 0
M  V30 18618 C 1715.85 2.33359 5.8077 0
M  V30 18619 H 1716.09 1.78514 2.37739 0
M  V30 18620 H 1713.62 1.01933 1.1597 0
M  V30 18621 H 1715.58 -0.0161522 4.10497 0
M  V30 18622 H 1714.24 -0.586834 3.08569 0
M  V30 18623 H 1713.43 0.877829 4.96296 0
M  V30 18624 H 1713.03 1.59323 3.38367 0
M  V30 18625 H 1715.33 1.7225 6.55238 0
M  V30 18626 H 1716.27 3.22622 6.30334 0
M  V30 18627 H 1716.68 1.75999 5.36362 0
M  V30 18628 N 1716.07 -1.22136 0.99602 0
M  V30 18629 C 1717.49 -1.72743 0.708295 0
M  V30 18630 C 1717.84 -1.8026 -0.774649 0
M  V30 18631 O 1716.96 -1.45102 -1.60544 0
M  V30 18632 C 1717.56 -3.13729 1.27905 0
M  V30 18633 C 1716.12 -3.61729 1.04064 0
M  V30 18634 C 1715.26 -2.39519 1.39735 0
M  V30 18635 H 1718.21 -1.07439 1.16801 0
M  V30 18636 H 1718.23 -3.74746 0.65919 0
M  V30 18637 H 1717.75 -3.08225 2.35836 0
M  V30 18638 H 1715.85 -3.72594 -0.0219029 0
M  V30 18639 H 1715.96 -4.47689 1.70621 0
M  V30 18640 H 1714.32 -2.41275 0.815986 0
M  V30 18641 H 1715.11 -2.36675 2.48677 0
M  V30 18642 N 1717.55 -0.769612 -1.37531 0
M  V30 18643 C 1718.78 -0.344282 -2.04015 0
M  V30 18644 C 1719.2 1.03281 -1.58046 0
M  V30 18645 O 1718.55 1.65888 -0.760746 0
M  V30 18646 C 1718.6 -0.375922 -3.5954 0
M  V30 18647 O 1718.32 -1.69869 -4.03827 0
M  V30 18648 C 1719.83 0.0612715 -4.43258 0
M  V30 18649 H 1717.05 -0.144584 -0.655238 0
M  V30 18650 H 1719.59 -1.04294 -1.75906 0
M  V30 18651 H 1717.74 0.274136 -3.86429 0
M  V30 18652 H 1718.16 -1.63584 -4.98338 0
M  V30 18653 H 1719.63 -0.012022 -5.51999 0
M  V30 18654 H 1720.11 1.11136 -4.24906 0
M  V30 18655 H 1720.72 -0.560517 -4.2159 0
M  V30 18656 N 1719.03 1.48775 -0.519977 0
M  V30 18657 C 1720.26 2.07394 0.0161061 0
M  V30 18658 C 1720.68 1.37532 1.28322 0
M  V30 18659 O 1720.04 0.438049 1.75928 0
M  V30 18660 C 1720.09 3.59844 0.233382 0
M  V30 18661 O 1719.19 3.91235 1.30418 0
M  V30 18662 H 1718.53 0.663094 -0.0346678 0
M  V30 18663 H 1721.06 1.91323 -0.725029 0
M  V30 18664 H 1721.07 4.05409 0.45911 0
M  V30 18665 H 1719.75 4.10098 -0.69229 0
M  V30 18666 H 1718.32 3.5746 1.0619 0
M  V30 18667 N 1720.51 0.254649 1.55529 0
M  V30 18668 C 1721.75 -0.368477 1.99424 0
M  V30 18669 C 1722.09 -1.57023 1.14269 0
M  V30 18670 O 1721.36 -1.93386 0.207886 0
M  V30 18671 C 1721.65 -0.77076 3.51755 0
M  V30 18672 C 1721.5 0.436923 4.47673 0
M  V30 18673 C 1722.82 -1.61487 4.09402 0
M  V30 18674 H 1719.94 -0.132459 0.724999 0
M  V30 18675 H 1722.58 0.357508 1.86606 0
M  V30 18676 H 1720.73 -1.38932 3.62809 0
M  V30 18677 H 1722.4 1.07541 4.4859 0
M  V30 18678 H 1720.64 1.07866 4.20175 0
M  V30 18679 H 1721.31 0.111996 5.51886 0
M  V30 18680 H 1723.79 -1.09265 4.01498 0
M  V30 18681 H 1722.67 -1.86519 5.16238 0
M  V30 18682 H 1722.93 -2.58926 3.58343 0
M  V30 18683 N 1721.99 -1.57589 -0.0183649 0
M  V30 18684 C 1722.95 -2.06217 -1.00035 0
M  V30 18685 C 1723.95 -0.968195 -1.28385 0
M  V30 18686 O 1725.14 -1.23147 -1.23209 0
M  V30 18687 C 1722.27 -2.48815 -2.33032 0
M  V30 18688 H 1723.46 -2.94236 -0.580085 0
M  V30 18689 H 1721.02 -1.5403 -0.265438 0
M  V30 18690 H 1721.75 -1.63985 -2.79785 0
M  V30 18691 H 1721.54 -3.28694 -2.13781 0
M  V30 18692 H 1723.03 -2.86828 -3.03512 0
M  V30 18693 N 1723.46 0.290824 -1.54893 0
M  V30 18694 C 1724.69 1.04193 -1.78402 0
M  V30 18695 C 1725.1 1.81071 -0.548631 0
M  V30 18696 O 1724.45 1.77005 0.491403 0
M  V30 18697 C 1724.51 2.06122 -2.94541 0
M  V30 18698 C 1724.17 1.48346 -4.32253 0
M  V30 18699 C 1725.17 0.908243 -5.11905 0
M  V30 18700 C 1722.85 1.51602 -4.78876 0
M  V30 18701 C 1724.85 0.373282 -6.36306 0
M  V30 18702 C 1722.53 0.977194 -6.03236 0
M  V30 18703 C 1723.53 0.406805 -6.81787 0
M  V30 18704 O 1723.22 -0.123821 -8.03805 0
M  V30 18705 H 1722.95 0.314317 -0.598482 0
M  V30 18706 H 1725.51 0.332504 -2.02691 0
M  V30 18707 H 1723.74 2.80773 -2.65901 0
M  V30 18708 H 1725.43 2.67216 -3.05533 0
M  V30 18709 H 1726.19 0.875912 -4.77025 0
M  V30 18710 H 1722.07 1.94938 -4.17756 0
M  V30 18711 H 1725.61 -0.0725714 -6.97562 0
M  V30 18712 H 1721.51 1.00671 -6.37602 0
M  V30 18713 H 1722.28 -0.0114852 -8.18499 0
M  V30 18714 N 1724.94 1.47523 0.554506 0
M  V30 18715 C 1726.19 1.53546 1.30791 0
M  V30 18716 C 1726.5 0.203555 1.94538 0
M  V30 18717 O 1727.71 0.14181 2.71129 0
M  V30 18718 C 1726.17 2.70684 2.37188 0
M  V30 18719 C 1725.77 4.10415 1.7962 0
M  V30 18720 C 1727.52 2.86002 3.13693 0
M  V30 18721 C 1725.43 5.18849 2.83813 0
M  V30 18722 H 1724.36 0.571539 0.491792 0
M  V30 18723 H 1727.01 1.73803 0.58861 0
M  V30 18724 H 1725.39 2.43812 3.12045 0
M  V30 18725 H 1726.56 4.47202 1.11117 0
M  V30 18726 H 1724.88 4.00006 1.15691 0
M  V30 18727 H 1727.47 3.64181 3.91505 0
M  V30 18728 H 1727.82 1.94545 3.68046 0
M  V30 18729 H 1728.35 3.12657 2.45948 0
M  V30 18730 H 1725.09 6.12192 2.34311 0
M  V30 18731 H 1724.61 4.86577 3.50718 0
M  V30 18732 H 1726.29 5.45915 3.47255 0
M  V30 18733 N 1726.42 -0.801453 1.357 0
M  V30 18734 C 1727.84 -1.09776 1.1585 0
M  V30 18735 C 1728.04 -2.01484 -0.0255653 0
M  V30 18736 O 1727.09 -2.42758 -0.694613 0
M  V30 18737 C 1728.41 -1.72381 2.46385 0
M  V30 18738 C 1729.95 -1.84777 2.52639 0
M  V30 18739 C 1730.43 -2.50797 3.83229 0
M  V30 18740 N 1731.92 -2.58277 3.84509 0
M  V30 18741 C 1732.65 -3.10141 4.82286 0
M  V30 18742 N 1732.15 -3.62404 5.90454 0
M  V30 18743 N 1733.94 -3.08742 4.69718 0
M  V30 18744 H 1726.09 -0.191926 2.11531 0
M  V30 18745 H 1728.36 -0.147742 0.936417 0
M  V30 18746 H 1728.06 -1.12462 3.33234 0
M  V30 18747 H 1727.94 -2.72024 2.6131 0
M  V30 18748 H 1730.32 -2.43837 1.66215 0
M  V30 18749 H 1730.41 -0.839745 2.41624 0
M  V30 18750 H 1730.05 -1.92385 4.70053 0
M  V30 18751 H 1729.98 -3.52147 3.91535 0
M  V30 18752 H 1732.47 -2.21257 3.06356 0
M  V30 18753 H 1732.78 -4.00293 6.61049 0
M  V30 18754 H 1731.13 -3.60588 5.94139 0
M  V30 18755 H 1734.32 -2.67193 3.84351 0
M  V30 18756 H 1734.49 -3.48854 5.46081 0
M  V30 18757 N 1727.9 -1.19782 -1.02421 0
M  V30 18758 C 1729.12 -1.02939 -1.80051 0
M  V30 18759 C 1729.55 0.417153 -1.83416 0
M  V30 18760 O 1728.91 1.3001 -1.26361 0
M  V30 18761 C 1728.95 -1.60853 -3.22736 0
M  V30 18762 O 1728.06 -0.840999 -4.03734 0
M  V30 18763 H 1727.4 -0.363537 -0.555641 0
M  V30 18764 H 1729.93 -1.58908 -1.28878 0
M  V30 18765 H 1729.94 -1.64266 -3.73471 0
M  V30 18766 H 1728.61 -2.66135 -3.19602 0
M  V30 18767 H 1727.19 -0.880482 -3.62356 0
M  V30 18768 N 1729.38 1.21606 -1.00248 0
M  V30 18769 C 1730.33 2.2591 -0.553856 0
M  V30 18770 C 1731.32 1.64602 0.400323 0
M  V30 18771 O 1732.53 1.77936 0.271792 0
M  V30 18772 H 1728.9 0.734618 -0.160749 0
M  V30 18773 H 1730.87 2.61091 -1.44479 0
M  V30 18774 C 1729.62 3.47537 0.106293 0
M  V30 18775 H 1728.94 3.94981 -0.61889 0
M  V30 18776 H 1730.38 4.22262 0.383514 0
M  V30 18777 C 1728.84 3.08901 1.34469 0
M  V30 18778 O 1729.37 3.1916 2.43926 0
M  V30 18779 N 1727.58 2.63588 1.2235 0
M  V30 18780 H 1727.13 2.55441 0.332852 0
M  V30 18781 H 1727.08 2.38106 2.05312 0
M  V30 18782 N 1730.86 0.776895 1.37121 0
M  V30 18783 C 1731.79 0.124809 2.2886 0
M  V30 18784 C 1732.8 -0.658655 1.48881 0
M  V30 18785 O 1733.99 -0.4959 1.71473 0
M  V30 18786 C 1731.09 -0.84672 3.28152 0
M  V30 18787 C 1730.26 -0.11598 4.37246 0
M  V30 18788 C 1729.32 -1.00162 5.16579 0
M  V30 18789 O 1728.35 -0.463491 5.6731 0
M  V30 18790 N 1729.55 -2.32733 5.31804 0
M  V30 18791 H 1732.31 0.91278 2.85462 0
M  V30 18792 H 1729.88 0.629695 1.49152 0
M  V30 18793 H 1731.87 -1.44275 3.78109 0
M  V30 18794 H 1730.44 -1.53563 2.72281 0
M  V30 18795 H 1729.66 0.661015 3.88618 0
M  V30 18796 H 1730.95 0.388757 5.07313 0
M  V30 18797 H 1730.34 -2.78882 4.9218 0
M  V30 18798 H 1728.9 -2.8733 5.85051 0
M  V30 18799 N 1732.33 -1.48497 0.527859 0
M  V30 18800 C 1733.56 -2.069 -0.00302594 0
M  V30 18801 C 1733.98 -1.38469 -1.28342 0
M  V30 18802 O 1733.33 -0.471524 -1.76303 0
M  V30 18803 C 1733.38 -3.60749 -0.232871 0
M  V30 18804 O 1733.11 -4.26609 0.996797 0
M  V30 18805 C 1734.61 -4.35941 -0.804376 0
M  V30 18806 H 1731.83 -0.67021 0.0325559 0
M  V30 18807 H 1734.37 -1.90916 0.732897 0
M  V30 18808 H 1732.53 -3.76346 -0.918837 0
M  V30 18809 H 1732.94 -5.18725 0.776217 0
M  V30 18810 H 1734.41 -5.4437 -0.914635 0
M  V30 18811 H 1734.89 -4.00225 -1.80876 0
M  V30 18812 H 1735.5 -4.25017 -0.155041 0
M  V30 18813 N 1733.81 -0.262893 -1.55392 0
M  V30 18814 C 1734.74 0.670902 -2.18115 0
M  V30 18815 C 1735.72 1.1612 -1.13819 0
M  V30 18816 O 1736.91 1.23642 -1.42285 0
M  V30 18817 C 1734.03 1.91358 -2.79463 0
M  V30 18818 C 1733.08 1.5598 -3.96954 0
M  V30 18819 S 1733.91 0.648534 -5.31558 0
M  V30 18820 C 1735.07 1.89986 -5.96369 0
M  V30 18821 H 1735.3 0.137916 -2.9698 0
M  V30 18822 H 1732.83 -0.0472295 -1.54328 0
M  V30 18823 H 1734.79 2.62691 -3.15442 0
M  V30 18824 H 1733.45 2.4177 -2.00515 0
M  V30 18825 H 1732.65 2.48416 -4.38527 0
M  V30 18826 H 1732.25 0.926763 -3.62336 0
M  V30 18827 H 1734.54 2.84526 -6.14859 0
M  V30 18828 H 1735.48 1.52735 -6.91431 0
M  V30 18829 H 1735.89 2.05923 -5.256 0
M  V30 18830 N 1735.29 1.57597 0.0100073 0
M  V30 18831 C 1736.54 1.89754 0.695559 0
M  V30 18832 C 1736.86 0.862983 1.74865 0
M  V30 18833 O 1736.13 -0.100949 1.9564 0
M  V30 18834 H 1734.71 0.700331 0.259895 0
M  V30 18835 H 1737.37 1.94879 -0.0285521 0
M  V30 18836 H 1736.47 2.89213 1.17313 0
M  V30 18837 N 1736.77 -0.282606 1.55045 0
M  V30 18838 C 1738.01 -1.01294 1.76384 0
M  V30 18839 C 1738.37 -1.84283 0.552942 0
M  V30 18840 O 1737.66 -1.86131 -0.454502 0
M  V30 18841 C 1737.86 -1.93554 3.00452 0
M  V30 18842 C 1737.68 -1.19643 4.33492 0
M  V30 18843 C 1736.45 -0.916036 4.96927 0
M  V30 18844 C 1738.65 -0.591642 5.10886 0
M  V30 18845 N 1736.63 -0.149123 6.13719 0
M  V30 18846 C 1738.01 0.0415798 6.19986 0
M  V30 18847 C 1740.06 -0.498525 4.95398 0
M  V30 18848 C 1738.76 0.758931 7.15285 0
M  V30 18849 C 1740.79 0.205213 5.91044 0
M  V30 18850 C 1740.15 0.827211 6.99526 0
M  V30 18851 H 1736.25 -0.352967 0.69781 0
M  V30 18852 H 1738.83 -0.289596 1.92534 0
M  V30 18853 H 1737.01 -2.63122 2.85694 0
M  V30 18854 H 1738.74 -2.59876 3.10236 0
M  V30 18855 H 1735.49 -1.21888 4.57647 0
M  V30 18856 H 1735.92 0.221383 6.76638 0
M  V30 18857 H 1740.56 -0.965097 4.11638 0
M  V30 18858 H 1738.28 1.23722 7.98573 0
M  V30 18859 H 1741.86 0.277451 5.81138 0
M  V30 18860 H 1740.74 1.36309 7.72263 0
M  V30 18861 N 1738.25 -1.47815 -0.546675 0
M  V30 18862 C 1739.49 -1.54674 -1.30078 0
M  V30 18863 C 1739.81 -0.215151 -1.93809 0
M  V30 18864 O 1739.08 0.761862 -1.80478 0
M  V30 18865 H 1737.66 -0.569776 -0.483078 0
M  V30 18866 H 1740.33 -1.84178 -0.637525 0
M  V30 18867 H 1739.42 -2.31894 -2.08882 0
M  V30 18868 N 1739.72 0.794246 -1.36123 0
M  V30 18869 C 1740.63 1.93807 -1.32197 0
M  V30 18870 C 1741.65 1.7254 -0.2249 0
M  V30 18871 O 1742.83 1.9616 -0.456431 0
M  V30 18872 C 1739.89 3.28593 -1.10578 0
M  V30 18873 C 1738.95 3.6267 -2.29715 0
M  V30 18874 C 1738.18 4.91025 -2.09118 0
M  V30 18875 O 1738.41 5.6039 -1.06389 0
M  V30 18876 O 1737.34 5.23647 -2.96779 0
M  V30 18877 H 1741.17 2.00068 -2.28487 0
M  V30 18878 H 1738.75 0.933808 -1.16621 0
M  V30 18879 H 1740.63 4.0926 -1.0042 0
M  V30 18880 H 1739.31 3.23235 -0.17347 0
M  V30 18881 H 1738.22 2.82329 -2.4544 0
M  V30 18882 H 1739.55 3.72747 -3.21435 0
M  V30 18883 N 1741.2 1.20323 1.01785 0
M  V30 18884 C 1742.15 0.950946 2.10299 0
M  V30 18885 C 1743.12 -0.118376 1.65678 0
M  V30 18886 O 1744.3 0.0260849 1.90782 0
M  V30 18887 C 1741.44 0.507765 3.41344 0
M  V30 18888 C 1740.56 1.6451 3.9945 0
M  V30 18889 C 1739.69 1.15235 5.1855 0
M  V30 18890 C 1738.73 2.26285 5.68737 0
M  V30 18891 N 1737.87 1.78237 6.79099 0
M  V30 18892 H 1742.71 1.87999 2.31215 0
M  V30 18893 H 1740.24 0.937108 1.13387 0
M  V30 18894 H 1742.2 0.232143 4.16554 0
M  V30 18895 H 1740.83 -0.384278 3.20505 0
M  V30 18896 H 1739.88 2.03567 3.21348 0
M  V30 18897 H 1741.2 2.48135 4.32702 0
M  V30 18898 H 1740.35 0.832619 6.0096 0
M  V30 18899 H 1739.09 0.285978 4.86861 0
M  V30 18900 H 1738.09 2.59076 4.84933 0
M  V30 18901 H 1739.32 3.13397 6.02461 0
M  V30 18902 H 1737.27 0.939248 6.49241 0
M  V30 18903 H 1737.18 2.55443 7.11537 0
M  V30 18904 H 1738.45 1.4926 7.65076 0
M  V30 18905 N 1742.68 -1.21073 1.00892 0
M  V30 18906 C 1743.64 -2.21804 0.577543 0
M  V30 18907 C 1744.64 -1.56985 -0.348201 0
M  V30 18908 O 1745.83 -1.73653 -0.137947 0
M  V30 18909 C 1742.96 -3.40535 -0.157685 0
M  V30 18910 H 1744.16 -2.61483 1.46856 0
M  V30 18911 H 1741.71 -1.34402 0.79786 0
M  V30 18912 H 1742.45 -3.0635 -1.06397 0
M  V30 18913 H 1742.23 -3.88805 0.507238 0
M  V30 18914 H 1743.72 -4.152 -0.447109 0
M  V30 18915 N 1744.16 -0.784156 -1.36707 0
M  V30 18916 C 1745.41 -0.350748 -1.98627 0
M  V30 18917 C 1745.72 1.08208 -1.62943 0
M  V30 18918 O 1746.93 1.6175 -2.18058 0
M  V30 18919 C 1745.38 -0.576173 -3.55258 0
M  V30 18920 C 1744.99 -2.02008 -3.99871 0
M  V30 18921 C 1746.73 -0.207008 -4.23995 0
M  V30 18922 C 1744.64 -2.19244 -5.4926 0
M  V30 18923 H 1743.57 -0.127403 -0.743158 0
M  V30 18924 H 1746.22 -0.965044 -1.56074 0
M  V30 18925 H 1744.6 0.10776 -3.95853 0
M  V30 18926 H 1745.78 -2.73998 -3.70489 0
M  V30 18927 H 1744.09 -2.34699 -3.43955 0
M  V30 18928 H 1746.69 -0.314139 -5.33776 0
M  V30 18929 H 1747.03 0.844253 -4.07649 0
M  V30 18930 H 1747.57 -0.843971 -3.88744 0
M  V30 18931 H 1744.31 -3.22734 -5.70546 0
M  V30 18932 H 1743.83 -1.51752 -5.80286 0
M  V30 18933 H 1745.5 -1.99703 -6.15408 0
M  V30 18934 N 1745.64 1.48215 -0.535727 0
M  V30 18935 C 1746.55 2.33494 0.227577 0
M  V30 18936 C 1747.56 1.4685 0.933327 0
M  V30 18937 O 1748.74 1.7982 0.907008 0
M  V30 18938 C 1745.8 3.23092 1.25747 0
M  V30 18939 C 1744.86 4.25613 0.561454 0
M  V30 18940 C 1744.1 5.1093 1.54228 0
M  V30 18941 O 1744.32 4.98325 2.77539 0
M  V30 18942 O 1743.25 5.92158 1.07852 0
M  V30 18943 H 1747.08 3.0002 -0.471375 0
M  V30 18944 H 1744.67 1.46427 -0.296579 0
M  V30 18945 H 1746.55 3.78498 1.8525 0
M  V30 18946 H 1745.22 2.5922 1.93872 0
M  V30 18947 H 1744.13 3.74026 -0.0742194 0
M  V30 18948 H 1745.46 4.92138 -0.0779649 0
M  V30 18949 N 1747.11 0.27113 1.5525 0
M  V30 18950 C 1748.36 -0.347408 1.98686 0
M  V30 18951 C 1748.68 -1.57275 1.16292 0
M  V30 18952 O 1749.88 -2.26399 1.49853 0
M  V30 18953 C 1748.34 -0.669461 3.53619 0
M  V30 18954 C 1747.95 0.535853 4.44784 0
M  V30 18955 C 1749.69 -1.25084 4.05653 0
M  V30 18956 C 1747.6 0.188607 5.91099 0
M  V30 18957 H 1746.53 -0.133581 0.742073 0
M  V30 18958 H 1749.18 0.375157 1.79624 0
M  V30 18959 H 1747.56 -1.45082 3.68466 0
M  V30 18960 H 1748.73 1.3128 4.41704 0
M  V30 18961 H 1747.05 1.03381 4.03363 0
M  V30 18962 H 1749.65 -1.52439 5.1251 0
M  V30 18963 H 1749.99 -2.18341 3.54448 0
M  V30 18964 H 1750.52 -0.531864 3.94228 0
M  V30 18965 H 1747.26 1.08894 6.46392 0
M  V30 18966 H 1746.78 -0.551653 5.97258 0
M  V30 18967 H 1748.46 -0.220603 6.46624 0
M  V30 18968 N 1748.59 -1.576 -0.00164943 0
M  V30 18969 C 1750.01 -1.5554 -0.357706 0
M  V30 18970 C 1750.21 -1.00078 -1.74891 0
M  V30 18971 O 1749.26 -0.633864 -2.44414 0
M  V30 18972 C 1750.58 -2.99785 -0.234448 0
M  V30 18973 C 1752.13 -3.11466 -0.309509 0
M  V30 18974 C 1752.6 -4.57493 -0.215394 0
M  V30 18975 N 1754.09 -4.62393 -0.273345 0
M  V30 18976 C 1754.83 -5.72963 -0.223836 0
M  V30 18977 N 1754.32 -6.92687 -0.12502 0
M  V30 18978 N 1756.12 -5.61424 -0.27558 0
M  V30 18979 H 1748.27 -1.91992 0.908448 0
M  V30 18980 H 1750.53 -0.88179 0.348067 0
M  V30 18981 H 1750.24 -3.44195 0.722671 0
M  V30 18982 H 1750.11 -3.63226 -1.01718 0
M  V30 18983 H 1752.5 -2.66986 -1.25707 0
M  V30 18984 H 1752.58 -2.50805 0.503064 0
M  V30 18985 H 1752.22 -5.02647 0.728617 0
M  V30 18986 H 1752.15 -5.16098 -1.04643 0
M  V30 18987 H 1754.64 -3.76265 -0.351116 0
M  V30 18988 H 1754.96 -7.72744 -0.0930938 0
M  V30 18989 H 1753.3 -6.94941 -0.0906712 0
M  V30 18990 H 1756.49 -4.66782 -0.350963 0
M  V30 18991 H 1756.66 -6.47579 -0.233531 0
M  V30 18992 N 1750.07 0.274379 -1.55193 0
M  V30 18993 C 1751.3 1.02871 -1.8009 0
M  V30 18994 C 1751.72 1.79202 -0.571676 0
M  V30 18995 O 1751.08 1.74867 0.478679 0
M  V30 18996 C 1751.13 1.96406 -3.02418 0
M  V30 18997 O 1750.23 3.05154 -2.77408 0
M  V30 18998 H 1749.57 0.294181 -0.595276 0
M  V30 18999 H 1752.1 0.303708 -2.02333 0
M  V30 19000 H 1752.11 2.38385 -3.31114 0
M  V30 19001 H 1750.79 1.40261 -3.91535 0
M  V30 19002 H 1749.36 2.675 -2.59805 0
M  V30 19003 N 1751.55 1.48103 0.538828 0
M  V30 19004 C 1752.79 1.559 1.29704 0
M  V30 19005 C 1753.13 0.228359 1.92853 0
M  V30 19006 O 1752.4 -0.764825 1.78831 0
M  V30 19007 C 1752.69 2.69072 2.39316 0
M  V30 19008 C 1752.54 4.11812 1.80916 0
M  V30 19009 C 1753.86 2.78051 3.41138 0
M  V30 19010 H 1750.98 0.5675 0.470226 0
M  V30 19011 H 1753.62 1.80239 0.601163 0
M  V30 19012 H 1751.77 2.4845 2.98672 0
M  V30 19013 H 1753.44 4.4385 1.25679 0
M  V30 19014 H 1751.68 4.19227 1.11494 0
M  V30 19015 H 1752.35 4.86805 2.6024 0
M  V30 19016 H 1754.83 2.96707 2.91726 0
M  V30 19017 H 1753.71 3.58982 4.15239 0
M  V30 19018 H 1753.97 1.85849 4.01139 0
M  V30 19019 N 1753.03 -0.787016 1.36542 0
M  V30 19020 C 1753.94 -1.93103 1.33223 0
M  V30 19021 C 1754.95 -1.72419 0.234047 0
M  V30 19022 O 1756.13 -1.95915 0.466828 0
M  V30 19023 C 1753.19 -3.28002 1.12319 0
M  V30 19024 C 1752.25 -3.61447 2.31635 0
M  V30 19025 C 1751.49 -4.89909 2.11719 0
M  V30 19026 O 1751.71 -5.59818 1.0936 0
M  V30 19027 O 1750.64 -5.22065 2.99552 0
M  V30 19028 H 1754.47 -1.98853 2.29545 0
M  V30 19029 H 1752.06 -0.92761 1.17114 0
M  V30 19030 H 1753.94 -4.08722 1.02589 0
M  V30 19031 H 1752.61 -3.23138 0.19061 0
M  V30 19032 H 1751.52 -2.81024 2.46934 0
M  V30 19033 H 1752.85 -3.71037 3.23407 0
M  V30 19034 N 1754.5 -1.20861 -1.01145 0
M  V30 19035 C 1755.73 -1.04769 -1.78413 0
M  V30 19036 C 1756.15 0.402846 -1.84452 0
M  V30 19037 O 1755.5 1.27962 -1.30123 0
M  V30 19038 C 1755.56 -1.63065 -3.22633 0
M  V30 19039 O 1755.28 -3.02443 -3.16954 0
M  V30 19040 C 1756.78 -1.51996 -4.16428 0
M  V30 19041 H 1754 -0.368271 -0.560908 0
M  V30 19042 H 1756.54 -1.6006 -1.27283 0
M  V30 19043 H 1754.7 -1.11882 -3.70892 0
M  V30 19044 H 1755.11 -3.30199 -4.07515 0
M  V30 19045 H 1756.58 -1.97539 -5.15444 0
M  V30 19046 H 1757.06 -0.473305 -4.36642 0
M  V30 19047 H 1757.67 -2.02396 -3.74054 0
M  V30 19048 N 1755.98 1.20536 -1.01532 0
M  V30 19049 C 1757.23 1.89496 -0.70254 0
M  V30 19050 C 1757.55 1.7915 0.770072 0
M  V30 19051 O 1756.82 1.19308 1.55379 0
M  V30 19052 H 1755.4 0.701447 -0.256868 0
M  V30 19053 H 1758.06 1.46394 -1.28665 0
M  V30 19054 H 1757.16 2.96155 -0.984817 0
M  V30 19055 N 1757.46 0.791395 1.36289 0
M  V30 19056 C 1758.41 0.164218 2.27408 0
M  V30 19057 C 1759.39 -0.653018 1.47053 0
M  V30 19058 O 1760.59 -0.512767 1.6941 0
M  V30 19059 C 1757.72 -0.698551 3.36118 0
M  V30 19060 C 1756.8 0.127583 4.23908 0
M  V30 19061 N 1757.19 1.18307 4.91769 0
M  V30 19062 C 1755.49 -0.0932621 4.45902 0
M  V30 19063 C 1756.19 1.68616 5.56726 0
M  V30 19064 N 1755.17 0.995058 5.34415 0
M  V30 19065 H 1758.97 0.972045 2.7736 0
M  V30 19066 H 1756.48 0.63105 1.49638 0
M  V30 19067 H 1758.48 -1.16379 4.00327 0
M  V30 19068 H 1757.14 -1.5049 2.8772 0
M  V30 19069 H 1758.15 1.56553 4.93672 0
M  V30 19070 H 1754.83 -0.869962 4.08336 0
M  V30 19071 H 1756.22 2.56745 6.20912 0
M  V30 19072 N 1758.94 -1.47929 0.54358 0
M  V30 19073 C 1759.87 -2.3264 -0.200228 0
M  V30 19074 C 1760.85 -1.42945 -0.922 0
M  V30 19075 O 1762.04 -1.71817 -0.905129 0
M  V30 19076 C 1759.17 -3.24439 -1.23922 0
M  V30 19077 C 1758.12 -4.23267 -0.634753 0
M  V30 19078 C 1757.45 -5.04295 -1.77739 0
M  V30 19079 C 1758.75 -5.20747 0.402524 0
M  V30 19080 H 1760.44 -2.95077 0.506957 0
M  V30 19081 H 1757.99 -1.41896 0.245246 0
M  V30 19082 H 1759.94 -3.82535 -1.76763 0
M  V30 19083 H 1758.66 -2.60029 -1.97616 0
M  V30 19084 H 1757.32 -3.66377 -0.127756 0
M  V30 19085 H 1756.97 -4.36299 -2.50304 0
M  V30 19086 H 1756.67 -5.71195 -1.37879 0
M  V30 19087 H 1758.19 -5.65246 -2.30932 0
M  V30 19088 H 1759.61 -5.73287 -0.039305 0
M  V30 19089 H 1758 -5.95774 0.719251 0
M  V30 19090 H 1759.07 -4.67054 1.3034 0
M  V30 19091 N 1760.42 -0.27936 -1.55104 0
M  V30 19092 C 1761.69 0.388213 -1.91709 0
M  V30 19093 C 1762.07 1.7339 -1.20412 0
M  V30 19094 O 1761.42 2.26069 -0.332419 0
M  V30 19095 C 1761.63 0.524298 -3.45039 0
M  V30 19096 C 1762.98 0.805229 -4.16895 0
M  V30 19097 O 1764 0.608944 -3.50956 0
M  V30 19098 O 1762.86 1.18089 -5.33589 0
M  V30 19099 H 1759.96 0.213245 -0.799034 0
M  V30 19100 H 1762.5 -0.325825 -1.66543 0
M  V30 19101 H 1761.28 -0.422562 -3.89012 0
M  V30 19102 H 1760.9 1.28764 -3.76172 0
M  V30 19103 N 1761.9 1.57599 -0.0067085 0
M  V30 19104 C 1763.14 1.90481 0.675393 0
M  V30 19105 C 1763.46 0.881481 1.73939 0
M  V30 19106 O 1762.73 -0.0801928 1.95736 0
M  V30 19107 H 1761.31 0.703048 0.252452 0
M  V30 19108 H 1763.98 1.94838 -0.04922 0
M  V30 19109 H 1763.07 2.90441 1.14239 0
M  V30 19110 N 1763.37 -0.266145 1.55336 0
M  V30 19111 C 1764.62 -0.998308 1.76527 0
M  V30 19112 C 1764.95 -1.85691 0.568535 0
M  V30 19113 O 1764.23 -1.89602 -0.433735 0
M  V30 19114 C 1764.51 -1.87509 3.07429 0
M  V30 19115 C 1764.36 -1.04596 4.3747 0
M  V30 19116 C 1765.68 -2.86099 3.34418 0
M  V30 19117 H 1762.8 -0.361514 0.642244 0
M  V30 19118 H 1765.44 -0.270186 1.88069 0
M  V30 19119 H 1763.59 -2.49591 2.97719 0
M  V30 19120 H 1765.27 -0.445323 4.59145 0
M  V30 19121 H 1763.51 -0.349641 4.32389 0
M  V30 19122 H 1764.18 -1.69279 5.25403 0
M  V30 19123 H 1766.66 -2.34153 3.43965 0
M  V30 19124 H 1765.53 -3.44584 4.27262 0
M  V30 19125 H 1765.79 -3.61577 2.5439 0
M  V30 19126 N 1764.85 -1.48386 -0.530967 0
M  V30 19127 C 1766.1 -1.56354 -1.28685 0
M  V30 19128 C 1766.43 -0.237022 -1.9305 0
M  V30 19129 O 1765.68 0.772595 -1.79804 0
M  V30 19130 C 1765.98 -2.64979 -2.39835 0
M  V30 19131 C 1765.65 -4.07446 -1.93129 0
M  V30 19132 C 1764.31 -4.46222 -1.80108 0
M  V30 19133 C 1766.66 -4.96732 -1.5782 0
M  V30 19134 C 1763.99 -5.7209 -1.30113 0
M  V30 19135 C 1766.34 -6.23088 -1.09288 0
M  V30 19136 C 1765 -6.60722 -0.948835 0
M  V30 19137 H 1764.27 -0.572139 -0.470891 0
M  V30 19138 H 1766.92 -1.82099 -0.592626 0
M  V30 19139 H 1765.23 -2.3309 -3.14923 0
M  V30 19140 H 1766.92 -2.68359 -2.97967 0
M  V30 19141 H 1763.51 -3.76822 -2.04213 0
M  V30 19142 H 1767.7 -4.67452 -1.6674 0
M  V30 19143 H 1762.95 -5.99974 -1.17647 0
M  V30 19144 H 1767.13 -6.91669 -0.810376 0
M  V30 19145 H 1764.75 -7.5814 -0.559235 0
M  V30 19146 N 1766.33 0.779763 -1.36958 0
M  V30 19147 C 1767.26 1.89973 -1.26434 0
M  V30 19148 C 1768.24 1.61939 -0.146502 0
M  V30 19149 O 1769.42 1.85776 -0.319321 0
M  V30 19150 C 1766.55 3.25016 -0.953002 0
M  V30 19151 C 1765.6 3.71971 -2.08662 0
M  V30 19152 S 1766.43 3.86589 -3.70553 0
M  V30 19153 C 1767.59 5.24493 -3.41552 0
M  V30 19154 H 1767.82 1.98609 -2.21228 0
M  V30 19155 H 1765.35 0.940021 -1.22487 0
M  V30 19156 H 1767.31 4.03018 -0.780191 0
M  V30 19157 H 1765.97 3.14092 -0.0226841 0
M  V30 19158 H 1765.16 4.69853 -1.82358 0
M  V30 19159 H 1764.77 3.01048 -2.21915 0
M  V30 19160 H 1767.06 6.09397 -2.96044 0
M  V30 19161 H 1768 5.55805 -4.38733 0
M  V30 19162 H 1768.41 4.92051 -2.7667 0
M  V30 19163 N 1767.81 1.21396 1.00503 0
M  V30 19164 C 1768.76 0.940669 2.07691 0
M  V30 19165 C 1769.74 -0.104065 1.60563 0
M  V30 19166 O 1770.93 0.104861 1.76689 0
M  V30 19167 C 1768.06 0.507176 3.39533 0
M  V30 19168 C 1767.15 1.58598 3.93329 0
M  V30 19169 N 1767.54 2.81104 4.20493 0
M  V30 19170 C 1765.84 1.45484 4.21605 0
M  V30 19171 C 1766.54 3.50775 4.64038 0
M  V30 19172 N 1765.51 2.78214 4.67009 0
M  V30 19173 H 1769.32 1.87141 2.26617 0
M  V30 19174 H 1766.83 1.10969 1.18574 0
M  V30 19175 H 1768.83 0.292749 4.15871 0
M  V30 19176 H 1767.49 -0.416806 3.22014 0
M  V30 19177 H 1768.5 3.17647 4.09049 0
M  V30 19178 H 1765.18 0.596142 4.13222 0
M  V30 19179 H 1766.57 4.55667 4.93779 0
M  V30 19180 N 1769.29 -1.19996 1.0217 0
M  V30 19181 C 1770.23 -2.22963 0.596318 0
M  V30 19182 C 1771.2 -1.61548 -0.386212 0
M  V30 19183 O 1772.39 -1.88667 -0.284497 0
M  V30 19184 C 1769.53 -3.45058 -0.054059 0
M  V30 19185 C 1768.64 -4.20885 0.973648 0
M  V30 19186 C 1767.78 -5.30387 0.293788 0
M  V30 19187 C 1766.81 -5.97964 1.3079 0
M  V30 19188 N 1765.95 -6.99044 0.654351 0
M  V30 19189 H 1770.79 -2.58709 1.47898 0
M  V30 19190 H 1768.33 -1.27117 0.740254 0
M  V30 19191 H 1770.29 -4.14784 -0.448313 0
M  V30 19192 H 1768.92 -3.0999 -0.900342 0
M  V30 19193 H 1767.97 -3.50174 1.48602 0
M  V30 19194 H 1769.28 -4.67292 1.7447 0
M  V30 19195 H 1768.43 -6.065 -0.155695 0
M  V30 19196 H 1767.17 -4.85031 -0.509521 0
M  V30 19197 H 1766.18 -5.20607 1.76772 0
M  V30 19198 H 1767.4 -6.45404 2.11258 0
M  V30 19199 H 1765.35 -6.55873 -0.128996 0
M  V30 19200 H 1765.27 -7.43605 1.36339 0
M  V30 19201 H 1766.53 -7.79165 0.228631 0
M  V30 19202 N 1770.76 -0.798611 -1.35867 0
M  V30 19203 C 1772.18 -0.481385 -1.52167 0
M  V30 19204 C 1772.38 0.99878 -1.75005 0
M  V30 19205 O 1771.44 1.78404 -1.78685 0
M  V30 19206 C 1772.75 -1.31982 -2.70188 0
M  V30 19207 C 1774.3 -1.31445 -2.84062 0
M  V30 19208 C 1774.77 -2.13682 -4.05098 0
M  V30 19209 N 1776.26 -2.11176 -4.12261 0
M  V30 19210 C 1777 -2.71571 -5.05012 0
M  V30 19211 N 1776.49 -3.40861 -6.03147 0
M  V30 19212 N 1778.29 -2.61255 -4.97697 0
M  V30 19213 H 1770.44 -1.75731 -1.19299 0
M  V30 19214 H 1772.7 -0.747512 -0.583034 0
M  V30 19215 H 1772.41 -2.36989 -2.59864 0
M  V30 19216 H 1772.28 -0.967488 -3.64581 0
M  V30 19217 H 1774.67 -0.272258 -2.93841 0
M  V30 19218 H 1774.75 -1.7066 -1.90549 0
M  V30 19219 H 1774.39 -3.17937 -3.96079 0
M  V30 19220 H 1774.32 -1.71832 -4.97776 0
M  V30 19221 H 1776.81 -1.60754 -3.42004 0
M  V30 19222 H 1777.13 -3.84251 -6.705 0
M  V30 19223 H 1775.47 -3.44964 -6.03345 0
M  V30 19224 H 1778.66 -2.06717 -4.19983 0
M  V30 19225 H 1778.84 -3.08613 -5.69791 0
M  V30 19226 N 1772.24 1.47639 -0.551417 0
M  V30 19227 C 1773.2 2.28419 0.188996 0
M  V30 19228 C 1774.2 1.36617 0.84808 0
M  V30 19229 O 1775.39 1.59304 0.704831 0
M  V30 19230 C 1772.53 3.16131 1.27571 0
M  V30 19231 H 1773.72 2.95348 -0.520518 0
M  V30 19232 H 1771.27 1.53232 -0.308141 0
M  V30 19233 H 1772.01 2.5388 2.0178 0
M  V30 19234 H 1771.79 3.83685 0.807984 0
M  V30 19235 H 1773.28 3.77011 1.79591 0
M  V30 19236 N 1773.72 0.287581 1.54954 0
M  V30 19237 C 1774.65 -0.62789 2.20432 0
M  V30 19238 C 1775.67 -1.10792 1.19286 0
M  V30 19239 O 1776.85 -1.02768 1.45949 0
M  V30 19240 C 1773.95 -1.86998 2.82639 0
M  V30 19241 C 1773.13 -1.53469 4.09592 0
M  V30 19242 C 1772.19 -2.63053 4.5573 0
M  V30 19243 O 1771.21 -2.28712 5.21229 0
M  V30 19244 N 1772.41 -3.93348 4.26917 0
M  V30 19245 H 1775.18 -0.067416 2.99624 0
M  V30 19246 H 1772.74 0.109205 1.61531 0
M  V30 19247 H 1774.73 -2.59629 3.10443 0
M  V30 19248 H 1773.3 -2.33919 2.07366 0
M  V30 19249 H 1772.52 -0.641635 3.88943 0
M  V30 19250 H 1773.81 -1.28587 4.92283 0
M  V30 19251 H 1773.21 -4.24063 3.74415 0
M  V30 19252 H 1771.77 -4.62318 4.59462 0
M  V30 19253 N 1775.2 -1.57593 0.0150662 0
M  V30 19254 C 1776.61 -1.5591 -0.341189 0
M  V30 19255 C 1776.81 -1.01927 -1.73819 0
M  V30 19256 O 1775.87 -0.659752 -2.43728 0
M  V30 19257 C 1777.18 -3.00016 -0.202639 0
M  V30 19258 C 1778.73 -3.11777 -0.276457 0
M  V30 19259 C 1779.21 -4.57696 -0.166859 0
M  V30 19260 N 1780.7 -4.62657 -0.224287 0
M  V30 19261 C 1781.43 -5.73168 -0.163053 0
M  V30 19262 N 1780.93 -6.92781 -0.0515442 0
M  V30 19263 N 1782.72 -5.61685 -0.216018 0
M  V30 19264 H 1774.87 -1.91018 0.92876 0
M  V30 19265 H 1777.14 -0.878048 0.3574 0
M  V30 19266 H 1776.84 -3.43409 0.759136 0
M  V30 19267 H 1776.72 -3.64285 -0.978599 0
M  V30 19268 H 1779.1 -2.68305 -1.22868 0
M  V30 19269 H 1779.18 -2.50257 0.529637 0
M  V30 19270 H 1778.83 -5.01846 0.781888 0
M  V30 19271 H 1778.76 -5.17179 -0.991635 0
M  V30 19272 H 1781.25 -3.76617 -0.311188 0
M  V30 19273 H 1781.56 -7.72799 -0.0111287 0
M  V30 19274 H 1779.91 -6.94998 -0.0169584 0
M  V30 19275 H 1783.1 -4.67128 -0.301435 0
M  V30 19276 H 1783.27 -6.4779 -0.164834 0
M  V30 19277 N 1776.68 0.257904 -1.55475 0
M  V30 19278 C 1777.61 1.32303 -1.92401 0
M  V30 19279 C 1778.59 1.50767 -0.787617 0
M  V30 19280 O 1779.77 1.63559 -1.047 0
M  V30 19281 C 1776.9 2.67984 -2.20912 0
M  V30 19282 C 1775.86 2.64231 -3.36699 0
M  V30 19283 C 1775.18 4.03604 -3.50725 0
M  V30 19284 C 1776.48 2.22177 -4.72689 0
M  V30 19285 H 1778.18 1.01646 -2.81618 0
M  V30 19286 H 1775.72 0.487523 -1.35496 0
M  V30 19287 H 1777.68 3.42622 -2.45332 0
M  V30 19288 H 1776.4 3.00254 -1.2851 0
M  V30 19289 H 1775.06 1.92049 -3.1227 0
M  V30 19290 H 1774.71 4.33122 -2.55763 0
M  V30 19291 H 1774.41 4.01983 -4.28583 0
M  V30 19292 H 1775.93 4.79959 -3.77455 0
M  V30 19293 H 1777.34 2.86543 -4.96554 0
M  V30 19294 H 1775.74 2.3169 -5.5357 0
M  V30 19295 H 1776.81 1.17326 -4.70492 0
M  V30 19296 N 1778.15 1.48666 0.52309 0
M  V30 19297 C 1779.1 1.63701 1.62698 0
M  V30 19298 C 1780.07 0.478895 1.59047 0
M  V30 19299 O 1781.26 0.703229 1.77368 0
M  V30 19300 C 1778.4 1.68912 3.00936 0
M  V30 19301 C 1777.51 2.95878 3.1477 0
M  V30 19302 C 1776.64 2.92206 4.43609 0
M  V30 19303 C 1775.68 4.13846 4.50996 0
M  V30 19304 N 1774.82 4.08213 5.71233 0
M  V30 19305 H 1779.66 2.57967 1.49188 0
M  V30 19306 H 1777.2 1.27924 0.726217 0
M  V30 19307 H 1779.16 1.69915 3.81031 0
M  V30 19308 H 1777.79 0.781309 3.13202 0
M  V30 19309 H 1776.84 3.04588 2.27883 0
M  V30 19310 H 1778.15 3.85861 3.1609 0
M  V30 19311 H 1777.3 2.91649 5.32002 0
M  V30 19312 H 1776.04 1.99964 4.44821 0
M  V30 19313 H 1775.05 4.14671 3.61009 0
M  V30 19314 H 1776.27 5.07256 4.51517 0
M  V30 19315 H 1774.22 3.18794 5.73329 0
M  V30 19316 H 1774.14 4.91908 5.74075 0
M  V30 19317 H 1775.4 4.11725 6.61893 0
M  V30 19318 N 1779.63 -0.772489 1.37369 0
M  V30 19319 C 1780.88 -1.53102 1.32537 0
M  V30 19320 C 1781.21 -1.9429 -0.0903608 0
M  V30 19321 O 1780.46 -1.64286 -1.06342 0
M  V30 19322 C 1780.76 -2.80907 2.20966 0
M  V30 19323 C 1780.43 -2.58775 3.69251 0
M  V30 19324 C 1779.09 -2.52448 4.09663 0
M  V30 19325 C 1781.44 -2.38954 4.63196 0
M  V30 19326 C 1778.77 -2.24288 5.42136 0
M  V30 19327 C 1781.12 -2.12318 5.95906 0
M  V30 19328 C 1779.79 -2.04434 6.35423 0
M  V30 19329 H 1779.06 -0.56024 0.484987 0
M  V30 19330 H 1781.7 -0.889859 1.69569 0
M  V30 19331 H 1780.01 -3.49578 1.76925 0
M  V30 19332 H 1781.7 -3.38782 2.14541 0
M  V30 19333 H 1778.29 -2.64563 3.37201 0
M  V30 19334 H 1782.48 -2.42833 4.32835 0
M  V30 19335 H 1777.73 -2.16679 5.71717 0
M  V30 19336 H 1781.91 -1.95979 6.68255 0
M  V30 19337 H 1779.54 -1.82378 7.37999 0
M  V30 19338 N 1781.11 -1.21927 -0.998575 0
M  V30 19339 C 1782.04 -1.00845 -2.106 0
M  V30 19340 C 1783.02 0.068733 -1.69961 0
M  V30 19341 O 1784.21 -0.0923686 -1.9398 0
M  V30 19342 C 1781.34 -0.57929 -3.42435 0
M  V30 19343 C 1780.29 -1.60177 -3.96897 0
M  V30 19344 C 1779.62 -1.02863 -5.24713 0
M  V30 19345 C 1780.92 -2.9903 -4.28227 0
M  V30 19346 H 1782.61 -1.93469 -2.28495 0
M  V30 19347 H 1780.16 -0.931612 -1.09804 0
M  V30 19348 H 1782.11 -0.418944 -4.19312 0
M  V30 19349 H 1780.83 0.382608 -3.24351 0
M  V30 19350 H 1779.49 -1.74979 -3.22146 0
M  V30 19351 H 1779.14 -0.058254 -5.02966 0
M  V30 19352 H 1778.84 -1.71166 -5.62117 0
M  V30 19353 H 1780.36 -0.879743 -6.04229 0
M  V30 19354 H 1781.78 -2.87634 -4.95923 0
M  V30 19355 H 1780.18 -3.64404 -4.76791 0
M  V30 19356 H 1781.25 -3.4939 -3.36236 0
M  V30 19357 N 1782.59 1.19452 -1.02805 0
M  V30 19358 C 1783.83 1.90815 -0.732731 0
M  V30 19359 C 1784.19 1.77774 0.725275 0
M  V30 19360 O 1785.39 2.43726 1.13363 0
M  V30 19361 C 1783.66 3.37692 -1.17042 0
M  V30 19362 S 1785.22 4.27281 -0.998818 0
M  V30 19363 H 1782.04 0.65905 -0.266784 0
M  V30 19364 H 1784.64 1.44418 -1.31771 0
M  V30 19365 H 1783.35 3.44708 -2.2272 0
M  V30 19366 H 1782.88 3.8912 -0.5787 0
M  V30 19367 H 1784.89 4.96116 0.0911076 0
M  V30 19368 N 1784.07 0.805805 1.35442 0
M  V30 19369 C 1784.98 0.217149 2.33593 0
M  V30 19370 C 1785.99 -0.639428 1.61825 0
M  V30 19371 O 1787.17 -0.551363 1.93706 0
M  V30 19372 C 1784.23 -0.625149 3.41017 0
M  V30 19373 C 1783.29 0.25183 4.28561 0
M  V30 19374 C 1782.53 -0.550363 5.30855 0
M  V30 19375 O 1782.75 -1.78511 5.41747 0
M  V30 19376 O 1781.68 0.0583487 6.01872 0
M  V30 19377 H 1785.51 1.02909 2.85733 0
M  V30 19378 H 1783.1 0.567579 1.38199 0
M  V30 19379 H 1784.98 -1.10493 4.06656 0
M  V30 19380 H 1783.65 -1.4147 2.91149 0
M  V30 19381 H 1782.56 0.77873 3.65905 0
M  V30 19382 H 1783.89 1.0053 4.81824 0
M  V30 19383 N 1785.54 -1.47344 0.559239 0
M  V30 19384 C 1786.96 -1.58088 0.219155 0
M  V30 19385 C 1787.16 -1.55758 -1.27834 0
M  V30 19386 O 1786.22 -1.46207 -2.05864 0
M  V30 19387 C 1787.53 -2.88507 0.847606 0
M  V30 19388 C 1789.08 -3.02094 0.819022 0
M  V30 19389 C 1789.55 -4.35216 1.42658 0
M  V30 19390 N 1791.04 -4.41857 1.38986 0
M  V30 19391 C 1791.78 -5.43429 1.82956 0
M  V30 19392 N 1791.27 -6.51801 2.34792 0
M  V30 19393 N 1793.07 -5.34486 1.74015 0
M  V30 19394 H 1785.22 -1.47102 1.53215 0
M  V30 19395 H 1787.48 -0.700228 0.63905 0
M  V30 19396 H 1787.19 -2.95954 1.90011 0
M  V30 19397 H 1787.06 -3.75648 0.341841 0
M  V30 19398 H 1789.45 -2.94243 -0.224794 0
M  V30 19399 H 1789.53 -2.1649 1.36257 0
M  V30 19400 H 1789.17 -4.43824 2.46947 0
M  V30 19401 H 1789.1 -5.19556 0.858462 0
M  V30 19402 H 1791.59 -3.64133 1.01071 0
M  V30 19403 H 1791.91 -7.25482 2.66262 0
M  V30 19404 H 1790.25 -6.52685 2.38804 0
M  V30 19405 H 1793.44 -4.48721 1.33294 0
M  V30 19406 H 1793.62 -6.13506 2.086 0
M  V30 19407 N 1787.02 -0.295795 -1.54799 0
M  V30 19408 C 1787.97 0.598403 -2.24771 0
M  V30 19409 C 1788.96 1.14123 -1.25189 0
M  V30 19410 O 1790.17 1.09248 -1.43056 0
M  V30 19411 H 1786.55 0.21157 -0.721625 0
M  V30 19412 H 1788.52 -0.0143437 -2.98397 0
M  V30 19413 C 1787.27 1.76132 -2.99788 0
M  V30 19414 H 1786.59 1.35284 -3.76216 0
M  V30 19415 H 1788.03 2.36317 -3.52037 0
M  V30 19416 C 1786.49 2.6623 -2.06453 0
M  V30 19417 O 1787.02 3.67179 -1.62918 0
M  V30 19418 N 1785.22 2.3385 -1.72518 0
M  V30 19419 H 1784.77 1.51804 -2.08119 0
M  V30 19420 H 1784.73 2.944 -1.10344 0
M  V30 19421 N 1788.5 1.57583 -0.0234236 0
M  V30 19422 C 1789.78 1.82844 0.694787 0
M  V30 19423 C 1790.16 0.906142 1.90663 0
M  V30 19424 O 1789.51 -0.039621 2.28466 0
M  V30 19425 C 1789.72 3.31921 1.07839 0
M  V30 19426 C 1791.06 3.98252 1.47243 0
M  V30 19427 O 1792.09 3.36383 1.17154 0
M  V30 19428 O 1790.95 5.07284 2.03285 0
M  V30 19429 H 1788.04 0.753723 0.340339 0
M  V30 19430 H 1790.59 1.69624 -0.0506703 0
M  V30 19431 H 1789.36 3.90705 0.215641 0
M  V30 19432 H 1788.98 3.50227 1.8822 0
M  V30 19433 N 1789.98 -0.249655 1.5561 0
M  V30 19434 C 1790.93 -1.30906 1.90085 0
M  V30 19435 C 1791.9 -1.4796 0.754784 0
M  V30 19436 O 1793.08 -1.61988 1.00819 0
M  V30 19437 C 1790.22 -2.66 2.19859 0
M  V30 19438 C 1789.33 -2.56976 3.47257 0
M  V30 19439 C 1788.47 -3.84404 3.66615 0
M  V30 19440 C 1787.51 -3.69986 4.87623 0
M  V30 19441 N 1786.65 -4.89301 5.03517 0
M  V30 19442 H 1791.49 -1.00805 2.80432 0
M  V30 19443 H 1789.02 -0.486509 1.38822 0
M  V30 19444 H 1790.98 -3.44632 2.35126 0
M  V30 19445 H 1789.61 -2.94254 1.32719 0
M  V30 19446 H 1788.66 -1.69927 3.40337 0
M  V30 19447 H 1789.97 -2.42231 4.36034 0
M  V30 19448 H 1789.13 -4.7148 3.81826 0
M  V30 19449 H 1787.87 -4.02043 2.76066 0
M  V30 19450 H 1786.87 -2.81294 4.72391 0
M  V30 19451 H 1788.1 -3.53845 5.7963 0
M  V30 19452 H 1786.04 -5.07306 4.15905 0
M  V30 19453 H 1785.96 -4.77176 5.86378 0
M  V30 19454 H 1787.23 -5.77883 5.23137 0
M  V30 19455 N 1791.46 -1.48941 -0.515198 0
M  V30 19456 C 1792.7 -1.57943 -1.27207 0
M  V30 19457 C 1793.04 -0.259011 -1.92465 0
M  V30 19458 O 1792.31 0.736277 -1.80026 0
M  V30 19459 C 1792.59 -2.72846 -2.35005 0
M  V30 19460 C 1792.45 -4.14639 -1.74341 0
M  V30 19461 C 1793.77 -2.83444 -3.36672 0
M  V30 19462 H 1790.89 -0.574909 -0.461138 0
M  V30 19463 H 1793.53 -1.81172 -0.572413 0
M  V30 19464 H 1791.68 -2.5317 -2.94681 0
M  V30 19465 H 1793.35 -4.45793 -1.18602 0
M  V30 19466 H 1791.59 -4.20948 -1.0481 0
M  V30 19467 H 1792.26 -4.90883 -2.52463 0
M  V30 19468 H 1794.74 -3.01311 -2.86969 0
M  V30 19469 H 1793.62 -3.65542 -4.09475 0
M  V30 19470 H 1793.88 -1.92208 -3.98131 0
M  V30 19471 N 1792.94 0.765193 -1.37777 0
M  V30 19472 C 1794.18 1.52397 -1.33347 0
M  V30 19473 C 1794.51 1.94335 0.0800559 0
M  V30 19474 O 1793.77 1.64847 1.05469 0
M  V30 19475 C 1794.06 2.79732 -2.22452 0
M  V30 19476 C 1793.73 2.56814 -3.70618 0
M  V30 19477 C 1792.39 2.50272 -4.10996 0
M  V30 19478 C 1794.74 2.36494 -4.64457 0
M  V30 19479 C 1792.07 2.2141 -5.43318 0
M  V30 19480 C 1794.42 2.09155 -5.97024 0
M  V30 19481 C 1793.09 2.01062 -6.36499 0
M  V30 19482 H 1792.36 0.55766 -0.487951 0
M  V30 19483 H 1795.01 0.880853 -1.70039 0
M  V30 19484 H 1793.31 3.48635 -1.78777 0
M  V30 19485 H 1795.01 3.37639 -2.16335 0
M  V30 19486 H 1791.6 2.62771 -3.38599 0
M  V30 19487 H 1795.78 2.40534 -4.34117 0
M  V30 19488 H 1791.04 2.13644 -5.72858 0
M  V30 19489 H 1795.21 1.92433 -6.69285 0
M  V30 19490 H 1792.84 1.78462 -7.38956 0
M  V30 19491 N 1794.41 1.22455 0.992094 0
M  V30 19492 C 1795.66 1.0496 1.73175 0
M  V30 19493 C 1795.99 -0.41518 1.90017 0
M  V30 19494 O 1795.24 -1.32408 1.44107 0
M  V30 19495 C 1795.54 1.70683 3.1401 0
M  V30 19496 C 1795.21 3.20579 3.1708 0
M  V30 19497 C 1793.87 3.6148 3.17626 0
M  V30 19498 C 1796.22 4.16519 3.13308 0
M  V30 19499 C 1793.55 4.968 3.121 0
M  V30 19500 C 1795.9 5.51816 3.09324 0
M  V30 19501 C 1794.57 5.92096 3.08185 0
M  V30 19502 H 1793.84 0.384075 0.633694 0
M  V30 19503 H 1796.48 1.52228 1.16184 0
M  V30 19504 H 1794.79 1.15742 3.74314 0
M  V30 19505 H 1796.49 1.54636 3.69985 0
M  V30 19506 H 1793.08 2.88012 3.17406 0
M  V30 19507 H 1797.26 3.85937 3.12036 0
M  V30 19508 H 1792.52 5.27238 3.09564 0
M  V30 19509 H 1796.69 6.25882 3.0536 0
M  V30 19510 H 1794.32 6.96919 3.03658 0
M  V30 19511 N 1795.89 -1.18905 1.03437 0
M  V30 19512 C 1796.85 -2.20529 0.624461 0
M  V30 19513 C 1797.85 -1.57688 -0.314824 0
M  V30 19514 O 1799.04 -1.73906 -0.101082 0
M  V30 19515 C 1796.18 -3.40793 -0.0854166 0
M  V30 19516 H 1797.37 -2.58309 1.5237 0
M  V30 19517 H 1794.92 -1.32679 0.826189 0
M  V30 19518 H 1795.66 -3.08538 -0.998747 0
M  V30 19519 H 1795.44 -3.87642 0.589596 0
M  V30 19520 H 1796.93 -4.16055 -0.358938 0
M  V30 19521 N 1797.37 -0.812977 -1.35013 0
M  V30 19522 C 1798.59 -0.407969 -2.03348 0
M  V30 19523 C 1799.02 0.975148 -1.60849 0
M  V30 19524 O 1798.38 1.63267 -0.788256 0
M  V30 19525 C 1798.43 -0.506754 -3.57022 0
M  V30 19526 O 1797.53 0.477322 -4.09628 0
M  V30 19527 H 1796.87 -0.169416 -0.642023 0
M  V30 19528 H 1799.4 -1.10064 -1.72474 0
M  V30 19529 H 1799.41 -0.378883 -4.06237 0
M  V30 19530 H 1798.09 -1.51557 -3.87302 0
M  V30 19531 H 1796.66 0.309161 -3.71616 0
M  V30 19532 N 1798.85 1.47045 -0.567045 0
M  V30 19533 C 1800.09 2.02746 -0.046749 0
M  V30 19534 C 1800.43 1.4394 1.30364 0
M  V30 19535 O 1799.7 0.598616 1.85059 0
M  V30 19536 C 1799.98 3.60082 0.0358156 0
M  V30 19537 C 1799.84 4.29302 -1.34237 0
M  V30 19538 C 1801.16 4.3376 0.744338 0
M  V30 19539 H 1798.28 0.736769 -0.0184627 0
M  V30 19540 H 1800.92 1.75365 -0.73123 0
M  V30 19541 H 1799.07 3.83541 0.618745 0
M  V30 19542 H 1800.74 4.17155 -1.96926 0
M  V30 19543 H 1798.98 3.89273 -1.91439 0
M  V30 19544 H 1799.65 5.37956 -1.23722 0
M  V30 19545 H 1802.13 4.15353 0.249287 0
M  V30 19546 H 1801.01 5.43457 0.771095 0
M  V30 19547 H 1801.27 4.03686 1.80249 0
M  V30 19548 N 1800.33 0.304 1.5464 0
M  V30 19549 C 1801.74 -0.0492924 1.59524 0
M  V30 19550 C 1801.94 -1.52164 1.32093 0
M  V30 19551 O 1801 -2.27483 1.0958 0
M  V30 19552 C 1802.31 0.351346 2.9864 0
M  V30 19553 C 1803.86 0.300362 3.11555 0
M  V30 19554 C 1804.33 0.675867 4.52986 0
M  V30 19555 N 1805.82 0.628517 4.58916 0
M  V30 19556 C 1806.56 0.891504 5.66427 0
M  V30 19557 N 1806.06 1.22061 6.81962 0
M  V30 19558 N 1807.85 0.818366 5.56111 0
M  V30 19559 H 1800 1.26351 1.70731 0
M  V30 19560 H 1802.26 0.512457 0.797554 0
M  V30 19561 H 1801.97 1.37642 3.23647 0
M  V30 19562 H 1801.84 -0.293504 3.76056 0
M  V30 19563 H 1804.23 -0.715468 2.86295 0
M  V30 19564 H 1804.31 0.979876 2.36288 0
M  V30 19565 H 1803.95 1.68952 4.78976 0
M  V30 19566 H 1803.88 -0.0257498 5.26594 0
M  V30 19567 H 1806.38 0.385204 3.75932 0
M  V30 19568 H 1806.69 1.40718 7.5988 0
M  V30 19569 H 1805.03 1.25868 6.83507 0
M  V30 19570 H 1808.22 0.560885 4.64728 0
M  V30 19571 H 1808.4 1.02669 6.39815 0
M  V30 19572 N 1801.8 -1.57568 0.0317802 0
M  V30 19573 C 1803.03 -1.9662 -0.659953 0
M  V30 19574 C 1803.45 -0.908334 -1.64715 0
M  V30 19575 O 1802.81 0.130491 -1.8083 0
M  V30 19576 C 1802.86 -3.34765 -1.34033 0
M  V30 19577 O 1801.96 -3.31317 -2.45566 0
M  V30 19578 H 1801.3 -0.641024 -0.17316 0
M  V30 19579 H 1803.83 -2.04382 0.0944231 0
M  V30 19580 H 1803.84 -3.71056 -1.69651 0
M  V30 19581 H 1802.52 -4.11302 -0.616716 0
M  V30 19582 H 1801.1 -3.06746 -2.1204 0
M  V30 19583 N 1803.28 0.241399 -1.5574 0
M  V30 19584 C 1804.53 0.96675 -1.77478 0
M  V30 19585 C 1804.85 1.85644 -0.596757 0
M  V30 19586 O 1804.12 1.92035 0.387236 0
M  V30 19587 H 1802.7 0.35995 -0.654557 0
M  V30 19588 H 1805.36 0.258023 -1.93185 0
M  V30 19589 H 1804.46 1.58524 -2.68843 0
M  V30 19590 N 1804.76 1.49212 0.507292 0
M  V30 19591 C 1806.01 1.58068 1.25932 0
M  V30 19592 C 1806.33 0.266461 1.93171 0
M  V30 19593 O 1805.6 -0.713743 1.82435 0
M  V30 19594 H 1804.18 0.582384 0.467801 0
M  V30 19595 H 1806.84 1.85804 0.58847 0
M  V30 19596 H 1805.94 2.37351 2.0266 0
M  V30 19597 N 1806.24 -0.757876 1.38181 0
M  V30 19598 C 1807.46 -1.55221 1.37555 0
M  V30 19599 C 1807.89 -1.8807 -0.0336083 0
M  V30 19600 O 1807.25 -1.50258 -1.0145 0
M  V30 19601 C 1807.29 -2.83064 2.23399 0
M  V30 19602 O 1806.4 -3.78034 1.64814 0
M  V30 19603 H 1805.74 -0.469644 0.469394 0
M  V30 19604 H 1808.27 -0.936923 1.81887 0
M  V30 19605 H 1808.28 -3.32031 2.37106 0
M  V30 19606 H 1806.95 -2.58485 3.2582 0
M  V30 19607 H 1805.53 -3.36723 1.60225 0
M  V30 19608 N 1807.72 -1.22979 -0.985586 0
M  V30 19609 C 1808.94 -1.08615 -1.76685 0
M  V30 19610 C 1809.37 0.35859 -1.8465 0
M  V30 19611 O 1808.72 1.25924 -1.30433 0
M  V30 19612 C 1808.77 -1.71039 -3.17456 0
M  V30 19613 O 1807.88 -0.969018 -4.00854 0
M  V30 19614 H 1807.22 -0.38103 -0.543794 0
M  V30 19615 H 1809.75 -1.62927 -1.23757 0
M  V30 19616 H 1809.76 -1.76064 -3.68056 0
M  V30 19617 H 1808.43 -2.76168 -3.10973 0
M  V30 19618 H 1807.01 -0.995318 -3.59371 0
M  V30 19619 N 1809.19 1.18355 -1.04066 0
M  V30 19620 C 1810.13 2.21482 -0.58977 0
M  V30 19621 C 1811.14 1.59198 0.340576 0
M  V30 19622 O 1812.33 1.77988 0.135094 0
M  V30 19623 C 1809.43 3.3853 0.158397 0
M  V30 19624 C 1808.6 4.30392 -0.779824 0
M  V30 19625 C 1807.66 5.26147 -0.0749517 0
M  V30 19626 O 1806.69 5.64812 -0.705381 0
M  V30 19627 N 1807.89 5.68137 1.19168 0
M  V30 19628 H 1810.65 2.60791 -1.47676 0
M  V30 19629 H 1808.21 1.33141 -0.921151 0
M  V30 19630 H 1810.21 3.99611 0.639788 0
M  V30 19631 H 1808.78 2.97913 0.946929 0
M  V30 19632 H 1808 3.66915 -1.44107 0
M  V30 19633 H 1809.28 4.88668 -1.41707 0
M  V30 19634 H 1808.68 5.38777 1.7244 0
M  V30 19635 H 1807.24 6.31415 1.61735 0
M  V30 19636 N 1810.67 0.820125 1.3458 0
M  V30 19637 C 1811.92 0.407473 1.98664 0
M  V30 19638 C 1812.25 -1.02613 1.64877 0
M  V30 19639 O 1811.53 -1.71421 0.918964 0
M  V30 19640 C 1811.81 0.606744 3.54952 0
M  V30 19641 C 1811.66 2.08626 3.98491 0
M  V30 19642 C 1812.98 0.0409321 4.40081 0
M  V30 19643 H 1810.1 0.149524 0.721673 0
M  V30 19644 H 1812.74 1.03217 1.59519 0
M  V30 19645 H 1810.89 0.0749788 3.88428 0
M  V30 19646 H 1812.56 2.68144 3.75361 0
M  V30 19647 H 1810.81 2.57774 3.48905 0
M  V30 19648 H 1811.48 2.17651 5.07279 0
M  V30 19649 H 1813.95 0.495234 4.13142 0
M  V30 19650 H 1812.83 0.210182 5.48497 0
M  V30 19651 H 1813.09 -1.05389 4.29355 0
M  V30 19652 N 1812.15 -1.46743 0.574835 0
M  V30 19653 C 1813.38 -2.06505 0.0627081 0
M  V30 19654 C 1813.79 -1.42535 -1.2442 0
M  V30 19655 O 1813.13 -0.522043 -1.76126 0
M  V30 19656 C 1813.19 -3.59021 -0.185574 0
M  V30 19657 C 1812.86 -4.45136 1.03455 0
M  V30 19658 C 1813.85 -4.82163 1.94461 0
M  V30 19659 C 1811.54 -4.8639 1.25418 0
M  V30 19660 C 1813.53 -5.59262 3.05786 0
M  V30 19661 C 1811.22 -5.63251 2.37049 0
M  V30 19662 C 1812.22 -5.99599 3.27062 0
M  V30 19663 O 1811.91 -6.74908 4.36755 0
M  V30 19664 H 1811.64 -0.674082 0.0508932 0
M  V30 19665 H 1814.19 -1.89476 0.792968 0
M  V30 19666 H 1812.42 -3.74327 -0.970354 0
M  V30 19667 H 1814.11 -4.00739 -0.645242 0
M  V30 19668 H 1814.88 -4.50876 1.78705 0
M  V30 19669 H 1810.76 -4.57553 0.56266 0
M  V30 19670 H 1814.3 -5.87552 3.7607 0
M  V30 19671 H 1810.2 -5.93951 2.5277 0
M  V30 19672 H 1810.97 -6.93323 4.35024 0
M  V30 19673 N 1813.63 -0.312197 -1.54477 0
M  V30 19674 C 1814.88 0.293772 -2.00358 0
M  V30 19675 C 1815.2 1.5303 -1.2005 0
M  V30 19676 O 1814.46 1.93861 -0.267678 0
M  V30 19677 C 1814.76 0.684057 -3.50793 0
M  V30 19678 C 1814.42 -0.452004 -4.48629 0
M  V30 19679 C 1813.09 -0.763853 -4.75099 0
M  V30 19680 C 1815.44 -1.21567 -5.06824 0
M  V30 19681 C 1812.77 -1.84229 -5.57025 0
M  V30 19682 C 1815.12 -2.28412 -5.89924 0
M  V30 19683 C 1813.78 -2.60191 -6.14701 0
M  V30 19684 H 1813.05 0.107499 -0.733161 0
M  V30 19685 H 1815.7 -0.433618 -1.86526 0
M  V30 19686 H 1814 1.4917 -3.62292 0
M  V30 19687 H 1815.7 1.16428 -3.83726 0
M  V30 19688 H 1812.29 -0.198857 -4.28138 0
M  V30 19689 H 1816.47 -0.988007 -4.86366 0
M  V30 19690 H 1811.73 -2.09311 -5.74455 0
M  V30 19691 H 1815.9 -2.88037 -6.34041 0
M  V30 19692 H 1813.53 -3.43887 -6.77972 0
M  V30 19693 N 1815.11 1.57549 -0.040136 0
M  V30 19694 C 1816.04 2.06413 0.973089 0
M  V30 19695 C 1817.02 0.962235 1.31072 0
M  V30 19696 O 1818.2 1.23337 1.42549 0
M  V30 19697 C 1815.33 2.49541 2.29013 0
M  V30 19698 C 1814.37 3.70858 2.10634 0
M  V30 19699 S 1815.21 5.17013 1.39493 0
M  V30 19700 C 1816.36 5.63445 2.72544 0
M  V30 19701 H 1816.6 2.92032 0.557186 0
M  V30 19702 H 1814.13 1.53441 0.171846 0
M  V30 19703 H 1816.09 2.75052 3.04723 0
M  V30 19704 H 1814.75 1.64247 2.67734 0
M  V30 19705 H 1813.94 3.98918 3.08027 0
M  V30 19706 H 1813.54 3.45555 1.43065 0
M  V30 19707 H 1815.84 5.68357 3.68749 0
M  V30 19708 H 1816.78 6.62826 2.49134 0
M  V30 19709 H 1817.19 4.91133 2.78296 0
M  V30 19710 N 1816.58 -0.233136 1.55866 0
M  V30 19711 C 1817.81 -0.976415 1.82411 0
M  V30 19712 C 1818.23 -1.78409 0.617724 0
M  V30 19713 O 1817.58 -1.77749 -0.413709 0
M  V30 19714 C 1817.64 -1.90328 3.07339 0
M  V30 19715 O 1817.36 -1.12828 4.23322 0
M  V30 19716 C 1818.86 -2.76142 3.46786 0
M  V30 19717 H 1816.08 -0.2867 0.606666 0
M  V30 19718 H 1818.62 -0.251863 2.02943 0
M  V30 19719 H 1816.78 -2.58193 2.88816 0
M  V30 19720 H 1817.19 -1.75643 4.94216 0
M  V30 19721 H 1818.66 -3.36901 4.37266 0
M  V30 19722 H 1819.14 -3.47953 2.68003 0
M  V30 19723 H 1819.75 -2.13708 3.67708 0
M  V30 19724 N 1818.06 -1.49479 -0.499372 0
M  V30 19725 C 1818.99 -1.69182 -1.60934 0
M  V30 19726 C 1819.97 -0.54053 -1.61283 0
M  V30 19727 O 1821.16 -0.776554 -1.77998 0
M  V30 19728 C 1818.29 -1.75985 -2.99411 0
M  V30 19729 C 1817.24 -2.9092 -3.13926 0
M  V30 19730 C 1816.57 -2.82837 -4.5377 0
M  V30 19731 C 1817.87 -4.31833 -2.93799 0
M  V30 19732 H 1819.56 -2.62112 -1.44699 0
M  V30 19733 H 1817.11 -1.26135 -0.694688 0
M  V30 19734 H 1819.06 -1.88354 -3.76962 0
M  V30 19735 H 1817.79 -0.796557 -3.16737 0
M  V30 19736 H 1816.45 -2.78155 -2.388 0
M  V30 19737 H 1816.09 -1.84412 -4.67976 0
M  V30 19738 H 1815.79 -3.59979 -4.64423 0
M  V30 19739 H 1817.32 -2.97217 -5.3338 0
M  V30 19740 H 1818.73 -4.45271 -3.61119 0
M  V30 19741 H 1817.13 -5.10209 -3.15922 0
M  V30 19742 H 1818.2 -4.46165 -1.89908 0
M  V30 19743 N 1819.54 0.750537 -1.38581 0
M  V30 19744 C 1820.79 1.50676 -1.34689 0
M  V30 19745 C 1821.11 1.94903 0.0615414 0
M  V30 19746 O 1820.38 1.67867 1.00982 0
M  V30 19747 H 1818.96 0.558914 -0.495605 0
M  V30 19748 H 1821.62 0.891979 -1.73291 0
M  V30 19749 H 1820.72 2.39623 -1.99969 0
M  V30 19750 N 1821.02 1.235 0.979051 0
M  V30 19751 C 1822.44 0.997948 1.24552 0
M  V30 19752 C 1822.64 -0.300139 1.99252 0
M  V30 19753 O 1821.69 -1.01923 2.31015 0
M  V30 19754 C 1823 2.2057 2.04375 0
M  V30 19755 C 1824.55 2.25075 2.17509 0
M  V30 19756 C 1825.03 3.45441 3.00724 0
M  V30 19757 N 1826.52 3.45688 3.08308 0
M  V30 19758 C 1827.25 4.35478 3.73024 0
M  V30 19759 N 1826.75 5.35506 4.39551 0
M  V30 19760 N 1828.54 4.23218 3.69923 0
M  V30 19761 H 1820.69 2.06936 0.478649 0
M  V30 19762 H 1822.96 0.907514 0.274083 0
M  V30 19763 H 1822.66 3.14781 1.56863 0
M  V30 19764 H 1822.54 2.21765 3.05123 0
M  V30 19765 H 1824.92 1.31403 2.64229 0
M  V30 19766 H 1825 2.27912 1.16146 0
M  V30 19767 H 1824.65 4.3942 2.547 0
M  V30 19768 H 1824.58 3.39845 4.0226 0
M  V30 19769 H 1827.07 2.73315 2.60974 0
M  V30 19770 H 1827.38 6.00274 4.86715 0
M  V30 19771 H 1825.73 5.39404 4.38256 0
M  V30 19772 H 1828.92 3.44315 3.17119 0
M  V30 19773 H 1829.09 4.93396 4.20076 0
M  V30 19774 N 1822.5 -1.17802 1.04693 0
M  V30 19775 C 1823.73 -1.91867 0.774246 0
M  V30 19776 C 1824.14 -1.76534 -0.669425 0
M  V30 19777 O 1823.5 -1.09915 -1.45688 0
M  V30 19778 C 1823.55 -3.43086 1.13904 0
M  V30 19779 O 1823.27 -3.57943 2.52604 0
M  V30 19780 C 1824.77 -4.34238 0.891767 0
M  V30 19781 H 1821.99 -0.60892 0.281882 0
M  V30 19782 H 1824.53 -1.49414 1.39627 0
M  V30 19783 H 1822.69 -3.83304 0.561863 0
M  V30 19784 H 1823.1 -4.51599 2.66756 0
M  V30 19785 H 1824.58 -5.3887 1.1968 0
M  V30 19786 H 1825.05 -4.38858 -0.17323 0
M  V30 19787 H 1825.66 -3.99727 1.45254 0
M  V30 19788 N 1823.98 -0.827251 -1.34143 0
M  V30 19789 C 1825.2 -0.429514 -2.02904 0
M  V30 19790 C 1825.63 0.958033 -1.61874 0
M  V30 19791 O 1824.98 1.62422 -0.805528 0
M  V30 19792 C 1825.03 -0.544592 -3.56464 0
M  V30 19793 O 1824.14 0.433849 -4.10112 0
M  V30 19794 H 1823.48 -0.176216 -0.64019 0
M  V30 19795 H 1826.01 -1.11887 -1.71297 0
M  V30 19796 H 1826.02 -0.421949 -4.05812 0
M  V30 19797 H 1824.69 -1.55657 -3.85673 0
M  V30 19798 H 1823.27 0.269729 -3.71923 0
M  V30 19799 N 1825.45 1.46436 -0.582609 0
M  V30 19800 C 1826.38 2.33089 0.138477 0
M  V30 19801 C 1827.36 1.45339 0.883777 0
M  V30 19802 O 1828.55 1.74156 0.859257 0
M  V30 19803 C 1825.68 3.27611 1.15276 0
M  V30 19804 C 1824.63 4.24801 0.522308 0
M  V30 19805 C 1823.96 5.0883 1.64306 0
M  V30 19806 C 1825.26 5.19496 -0.540449 0
M  V30 19807 H 1826.95 2.93629 -0.585013 0
M  V30 19808 H 1824.5 1.41196 -0.282781 0
M  V30 19809 H 1826.45 3.87087 1.66558 0
M  V30 19810 H 1825.18 2.65177 1.90653 0
M  V30 19811 H 1823.84 3.66587 0.0305728 0
M  V30 19812 H 1823.48 4.42782 2.38649 0
M  V30 19813 H 1823.18 5.74649 1.22686 0
M  V30 19814 H 1824.71 5.7117 2.15864 0
M  V30 19815 H 1826.12 5.73189 -0.112706 0
M  V30 19816 H 1824.52 5.93658 -0.876957 0
M  V30 19817 H 1825.59 4.63434 -1.42677 0
M  V30 19818 N 1826.93 0.320385 1.54309 0
M  V30 19819 C 1827.86 -0.539789 2.27175 0
M  V30 19820 C 1828.84 -1.12198 1.2785 0
M  V30 19821 O 1830.03 -1.1477 1.56657 0
M  V30 19822 C 1827.16 -1.70236 3.02716 0
M  V30 19823 C 1826.11 -1.24962 4.09351 0
M  V30 19824 C 1825.44 -2.49888 4.72715 0
M  V30 19825 C 1826.74 -0.366788 5.21011 0
M  V30 19826 H 1828.43 0.0680079 2.99323 0
M  V30 19827 H 1825.98 0.0341488 1.4396 0
M  V30 19828 H 1827.93 -2.31037 3.5242 0
M  V30 19829 H 1826.65 -2.33669 2.2818 0
M  V30 19830 H 1825.31 -0.664556 3.60526 0
M  V30 19831 H 1824.96 -3.11679 3.94798 0
M  V30 19832 H 1824.66 -2.20288 5.44745 0
M  V30 19833 H 1826.19 -3.11458 5.25192 0
M  V30 19834 H 1827.6 -0.881001 5.6649 0
M  V30 19835 H 1826 -0.163707 5.99877 0
M  V30 19836 H 1827.07 0.603185 4.81134 0
M  V30 19837 N 1828.41 -1.57525 0.0484906 0
M  V30 19838 C 1829.63 -1.97309 -0.639062 0
M  V30 19839 C 1830.06 -0.925753 -1.63742 0
M  V30 19840 O 1829.42 0.111304 -1.80958 0
M  V30 19841 C 1829.47 -3.36168 -1.30475 0
M  V30 19842 O 1828.57 -3.33903 -2.42038 0
M  V30 19843 H 1827.91 -0.642824 -0.166351 0
M  V30 19844 H 1830.44 -2.0427 0.116095 0
M  V30 19845 H 1830.45 -3.72835 -1.65705 0
M  V30 19846 H 1829.13 -4.11933 -0.573057 0
M  V30 19847 H 1827.7 -3.08978 -2.08775 0
M  V30 19848 N 1829.89 0.224867 -1.55988 0
M  V30 19849 C 1831.13 0.946775 -1.80021 0
M  V30 19850 C 1831.49 1.82104 -0.620957 0
M  V30 19851 O 1830.78 1.8769 0.385108 0
M  V30 19852 C 1830.98 1.8227 -3.07429 0
M  V30 19853 C 1830.8 1.03472 -4.37634 0
M  V30 19854 C 1829.57 0.730974 -4.99985 0
M  V30 19855 C 1831.77 0.401622 -5.12729 0
M  V30 19856 N 1829.75 -0.0787572 -6.13849 0
M  V30 19857 C 1831.13 -0.271655 -6.19405 0
M  V30 19858 C 1833.18 0.314318 -4.96907 0
M  V30 19859 C 1831.88 -1.02388 -7.11976 0
M  V30 19860 C 1833.91 -0.424434 -5.89875 0
M  V30 19861 C 1833.27 -1.08627 -6.95974 0
M  V30 19862 H 1829.37 0.326825 -0.710429 0
M  V30 19863 H 1831.95 0.217939 -1.93476 0
M  V30 19864 H 1830.13 2.52338 -2.95263 0
M  V30 19865 H 1831.86 2.48183 -3.19668 0
M  V30 19866 H 1828.61 1.04818 -4.61855 0
M  V30 19867 H 1829.04 -0.472361 -6.7535 0
M  V30 19868 H 1833.68 0.811656 -4.14936 0
M  V30 19869 H 1831.4 -1.53275 -7.93431 0
M  V30 19870 H 1834.98 -0.492945 -5.79708 0
M  V30 19871 H 1833.86 -1.64877 -7.66672 0
M  V30 19872 O 1831.4 1.57196 0.370344 0
M  V30 19873 H 1832.1 1.64587 1.02131 0
M  V30 END ATOM
M  V30 BEGIN BOND
M  V30 END BOND
M  V30 END CTAB
M  END
$$$$
