drugbank_target|P0A6I9 Dephospho-CoA kinase (DB01690)
 OpenBabel12092119503D

  0  0  0     0  0            999 V3000
M  V30 BEGIN CTAB
M  V30 COUNTS 3198 3225 0 0 0
M  V30 BEGIN ATOM
M  V30 1 H -0.908 1.98254 -0.117106 0
M  V30 2 N 0 1.576 0 0
M  V30 3 C 0.933 2.03868 1.02534 0
M  V30 4 C 1.911 0.928543 1.3348 0
M  V30 5 O 3.095 1.19667 1.45644 0
M  V30 6 C 0.222 2.43627 2.35294 0
M  V30 7 C -0.732 3.65373 2.2001 0
M  V30 8 S 0.101 5.13292 1.52614 0
M  V30 9 C 1.257 5.56322 2.86805 0
M  V30 10 H 1.49 2.90518 0.631377 0
M  V30 11 H -0.977 1.52953 0.210867 0
M  V30 12 H 0.981 2.67203 3.11629 0
M  V30 13 H -0.358 1.57376 2.7183 0
M  V30 14 H -1.165 3.90944 3.18086 0
M  V30 15 H -1.563 3.418 1.51819 0
M  V30 16 H 0.729 5.58782 3.83104 0
M  V30 17 H 1.672 6.56266 2.65933 0
M  V30 18 H 2.08 4.83886 2.90714 0
M  V30 19 N 1.4781 -0.272755 1.55222 0
M  V30 20 C 2.8941 -0.619959 1.47067 0
M  V30 21 C 3.0941 -1.895 0.684978 0
M  V30 22 O 2.1501 -2.51675 0.203931 0
M  V30 23 C 3.4631 -0.746693 2.91282 0
M  V30 24 C 5.0111 -0.840731 3.01497 0
M  V30 25 C 5.4861 -0.99924 4.46967 0
M  V30 26 N 6.9771 -1.06476 4.50796 0
M  V30 27 C 7.7121 -1.20621 5.6057 0
M  V30 28 N 7.2081 -1.31483 6.80209 0
M  V30 29 N 9.0011 -1.23733 5.48312 0
M  V30 30 H 1.1521 0.564606 2.04758 0
M  V30 31 H 3.4151 0.191177 0.928523 0
M  V30 32 H 3.1211 0.119753 3.51496 0
M  V30 33 H 2.9951 -1.6269 3.40311 0
M  V30 34 H 5.3821 -1.69764 2.41379 0
M  V30 35 H 5.4631 0.0640874 2.5572 0
M  V30 36 H 5.1071 -0.146984 5.07687 0
M  V30 37 H 5.0371 -1.91871 4.90401 0
M  V30 38 H 7.5281 -0.993196 3.64615 0
M  V30 39 H 7.8411 -1.42111 7.59621 0
M  V30 40 H 6.1861 -1.28487 6.8302 0
M  V30 41 H 9.3771 -1.14877 4.53785 0
M  V30 42 H 9.5501 -1.34412 6.33906 0
M  V30 43 N 2.9562 -1.48159 -0.537278 0
M  V30 44 C 4.1862 -1.59223 -1.3165 0
M  V30 45 C 4.5942 -0.248849 -1.87556 0
M  V30 46 O 3.9372 0.770949 -1.6674 0
M  V30 47 C 3.9992 -2.57365 -2.51005 0
M  V30 48 C 3.6632 -4.02603 -2.16239 0
M  V30 49 C 4.6602 -4.90503 -1.72344 0
M  V30 50 C 2.3452 -4.48088 -2.26986 0
M  V30 51 C 4.3392 -6.21913 -1.39651 0
M  V30 52 C 2.0262 -5.7952 -1.93906 0
M  V30 53 C 3.0242 -6.66255 -1.50309 0
M  V30 54 O 2.7122 -7.95243 -1.17659 0
M  V30 55 H 2.4442 -0.539831 -0.406889 0
M  V30 56 H 4.9982 -1.94655 -0.655641 0
M  V30 57 H 3.2282 -2.1704 -3.20048 0
M  V30 58 H 4.9172 -2.58342 -3.13072 0
M  V30 59 H 5.6832 -4.56604 -1.63517 0
M  V30 60 H 1.5622 -3.80769 -2.59877 0
M  V30 61 H 5.1062 -6.89569 -1.0555 0
M  V30 62 H 1.0032 -6.12957 -2.02371 0
M  V30 63 H 1.7712 -8.0793 -1.31119 0
M  V30 64 N 4.4343 0.785586 -1.36625 0
M  V30 65 C 5.6833 1.53883 -1.30396 0
M  V30 66 C 5.9963 1.95271 0.113452 0
M  V30 67 O 7.2023 2.69858 0.298142 0
M  V30 68 C 5.6583 2.77808 -2.28802 0
M  V30 69 C 5.2663 2.43574 -3.75999 0
M  V30 70 C 7.0103 3.55783 -2.31558 0
M  V30 71 C 4.9173 3.63919 -4.66173 0
M  V30 72 H 3.8473 0.577678 -0.484566 0
M  V30 73 H 6.4983 0.861705 -1.62009 0
M  V30 74 H 4.8803 3.47339 -1.90188 0
M  V30 75 H 6.0543 1.81916 -4.23371 0
M  V30 76 H 4.3693 1.78803 -3.76056 0
M  V30 77 H 6.9663 4.45205 -2.96137 0
M  V30 78 H 7.3093 3.94644 -1.3252 0
M  V30 79 H 7.8423 2.93235 -2.68809 0
M  V30 80 H 4.5813 3.3015 -5.66287 0
M  V30 81 H 4.1013 4.2473 -4.23515 0
M  V30 82 H 5.7803 4.30901 -4.82632 0
M  V30 83 N 5.9124 1.20967 1.01018 0
M  V30 84 C 7.1584 1.02526 1.74975 0
M  V30 85 C 7.4914 -0.4408 1.89131 0
M  V30 86 O 6.7664 -1.32718 1.42184 0
M  V30 87 C 7.0494 1.71699 3.1653 0
M  V30 88 C 6.9024 3.25791 3.10129 0
M  V30 89 C 8.2214 1.45531 4.15342 0
M  V30 90 H 5.3404 0.373863 0.635134 0
M  V30 91 H 7.9824 1.49071 1.17805 0
M  V30 92 H 6.1324 1.32128 3.65341 0
M  V30 93 H 7.8044 3.74697 2.69072 0
M  V30 94 H 6.0474 3.56363 2.47362 0
M  V30 95 H 6.7184 3.69353 4.10222 0
M  V30 96 H 9.1944 1.79872 3.75213 0
M  V30 97 H 8.0704 1.96453 5.1254 0
M  V30 98 H 8.3314 0.384237 4.40427 0
M  V30 99 N 7.3905 -1.2043 1.01659 0
M  V30 100 C 8.3535 -2.21433 0.591616 0
M  V30 101 C 9.3535 -1.57203 -0.338226 0
M  V30 102 O 10.5435 -1.73737 -0.126918 0
M  V30 103 C 7.6755 -3.40628 -0.136058 0
M  V30 104 H 8.8685 -2.60545 1.48514 0
M  V30 105 H 6.4215 -1.33893 0.806379 0
M  V30 106 H 7.1565 -3.07019 -1.04449 0
M  V30 107 H 6.9415 -3.88475 0.531917 0
M  V30 108 H 8.4315 -4.15475 -0.420735 0
M  V30 109 N 8.8686 -0.792821 -1.36206 0
M  V30 110 C 9.7986 -0.207853 -2.32573 0
M  V30 111 C 10.7796 0.659055 -1.56813 0
M  V30 112 O 11.9646 0.592176 -1.84951 0
M  V30 113 C 9.0946 0.655449 -3.41059 0
M  V30 114 C 8.0486 -0.111842 -4.27854 0
M  V30 115 C 7.3746 0.872274 -5.27537 0
M  V30 116 C 8.6746 -1.30299 -5.05786 0
M  V30 117 H 10.3686 -1.01294 -2.81744 0
M  V30 118 H 7.9146 -0.48854 -1.3546 0
M  V30 119 H 9.8676 1.07464 -4.07467 0
M  V30 120 H 8.5916 1.49328 -2.90463 0
M  V30 121 H 7.2506 -0.512053 -3.63006 0
M  V30 122 H 6.8986 1.70523 -4.73214 0
M  V30 123 H 6.5986 0.363291 -5.86476 0
M  V30 124 H 8.1226 1.28996 -5.96818 0
M  V30 125 H 9.5366 -0.959379 -5.65216 0
M  V30 126 H 7.9336 -1.7455 -5.74154 0
M  V30 127 H 9.0036 -2.09663 -4.37229 0
M  V30 128 N 10.3467 1.47872 -0.545128 0
M  V30 129 C 11.5747 2.06889 -0.021084 0
M  V30 130 C 11.9897 1.39955 1.2672 0
M  V30 131 O 11.3467 0.492036 1.75742 0
M  V30 132 C 11.3977 3.60996 0.190817 0
M  V30 133 O 11.1187 4.25419 -1.04644 0
M  V30 134 C 12.6197 4.36849 0.753521 0
M  V30 135 H 9.8397 0.669785 -0.0403635 0
M  V30 136 H 12.3837 1.90049 -0.755095 0
M  V30 137 H 10.5387 3.77391 0.87492 0
M  V30 138 H 10.9527 5.17785 -0.836611 0
M  V30 139 H 12.4267 5.45399 0.851139 0
M  V30 140 H 12.9037 4.02306 1.762 0
M  V30 141 H 13.5097 4.25169 0.105503 0
M  V30 142 N 11.8248 0.280983 1.55075 0
M  V30 143 C 13.0728 -0.333455 1.9933 0
M  V30 144 C 13.3938 -1.55937 1.17085 0
M  V30 145 O 12.6638 -1.94143 0.261805 0
M  V30 146 H 11.2438 -0.126197 0.736263 0
M  V30 147 H 13.9058 0.387678 1.91005 0
M  V30 148 H 13.0018 -0.619292 3.05894 0
M  V30 149 N 13.3029 -1.57598 0.00835791 0
M  V30 150 C 14.5509 -1.90551 -0.6734 0
M  V30 151 C 14.8719 -0.883301 -1.73847 0
M  V30 152 O 14.1419 0.0781442 -1.95744 0
M  V30 153 H 12.7219 -0.703312 -0.251717 0
M  V30 154 H 15.3839 -1.94833 0.0512592 0
M  V30 155 H 14.4799 -2.9056 -1.13935 0
M  V30 156 N 14.781 0.264519 -1.55364 0
M  V30 157 C 16.03 0.992812 -1.75574 0
M  V30 158 C 16.343 1.87142 -0.568979 0
M  V30 159 O 17.549 2.63513 -0.653682 0
M  V30 160 C 16.005 1.81519 -3.10771 0
M  V30 161 C 15.613 0.984839 -4.37041 0
M  V30 162 C 17.357 2.53727 -3.40327 0
M  V30 163 C 15.264 1.80209 -5.63275 0
M  V30 164 H 14.194 0.374412 -0.65447 0
M  V30 165 H 16.845 0.248138 -1.81815 0
M  V30 166 H 15.227 2.60115 -2.98591 0
M  V30 167 H 16.401 0.242455 -4.60162 0
M  V30 168 H 14.716 0.37691 -4.14691 0
M  V30 169 H 17.313 3.15292 -4.3185 0
M  V30 170 H 17.656 3.24447 -2.60845 0
M  V30 171 H 18.189 1.82156 -3.53644 0
M  V30 172 H 14.928 1.13896 -6.45529 0
M  V30 173 H 14.448 2.52022 -5.44284 0
M  V30 174 H 16.127 2.37364 -6.01887 0
M  V30 175 N 16.2591 1.48442 0.529413 0
M  V30 176 C 17.5071 1.56179 1.28267 0
M  V30 177 C 17.8281 0.237721 1.93546 0
M  V30 178 O 17.0981 -0.740779 1.81354 0
M  V30 179 H 15.6781 0.575367 0.476405 0
M  V30 180 H 18.3401 1.84909 0.61602 0
M  V30 181 H 17.4361 2.34312 2.06165 0
M  V30 182 N 17.7372 -0.778329 1.37039 0
M  V30 183 C 18.9622 -1.57248 1.35233 0
M  V30 184 C 19.3872 -1.87999 -0.0615568 0
M  V30 185 O 18.7452 -1.48734 -1.03672 0
M  V30 186 C 18.7932 -2.86353 2.19167 0
M  V30 187 O 17.8972 -3.80442 1.59178 0
M  V30 188 H 17.2382 -0.476569 0.462362 0
M  V30 189 H 19.7682 -0.963853 1.80474 0
M  V30 190 H 19.7782 -3.35519 2.32145 0
M  V30 191 H 18.4532 -2.63299 3.21942 0
M  V30 192 H 17.0302 -3.39067 1.55203 0
M  V30 193 N 19.2153 -1.21501 -1.00376 0
M  V30 194 C 20.4633 -1.03095 -1.73827 0
M  V30 195 C 20.7843 0.436341 -1.90055 0
M  V30 196 O 20.0543 1.31466 -1.45236 0
M  V30 197 H 18.6343 -0.378487 -0.644016 0
M  V30 198 H 21.2963 -1.52831 -1.20949 0
M  V30 199 H 20.3923 -1.49991 -2.73695 0
M  V30 200 N 20.6934 1.19889 -1.02296 0
M  V30 201 C 21.6404 2.22901 -0.598651 0
M  V30 202 C 22.6104 1.61588 0.384521 0
M  V30 203 O 23.7954 1.88697 0.282522 0
M  V30 204 C 20.9354 3.45063 0.0504476 0
M  V30 205 C 20.0484 4.20783 -0.978053 0
M  V30 206 C 19.1834 5.30356 -0.299338 0
M  V30 207 C 18.2224 5.97826 -1.31416 0
M  V30 208 N 17.3594 6.98975 -0.661667 0
M  V30 209 H 22.1994 2.58554 -1.48169 0
M  V30 210 H 19.7364 1.27039 -0.741584 0
M  V30 211 H 21.6944 4.14831 0.443971 0
M  V30 212 H 20.3244 3.10084 0.897097 0
M  V30 213 H 19.3764 3.50018 -1.48969 0
M  V30 214 H 20.6884 4.67109 -1.74958 0
M  V30 215 H 19.8424 6.06516 0.149347 0
M  V30 216 H 18.5814 4.85084 0.504445 0
M  V30 217 H 17.5864 5.20422 -1.77317 0
M  V30 218 H 18.8114 6.45183 -2.11933 0
M  V30 219 H 16.7574 6.55886 0.122132 0
M  V30 220 H 16.6744 7.43461 -1.37117 0
M  V30 221 H 17.9424 7.7914 -0.236785 0
M  V30 222 N 22.1715 0.800033 1.35784 0
M  V30 223 C 23.3965 0.388511 2.03729 0
M  V30 224 C 23.8215 -0.990481 1.5991 0
M  V30 225 O 23.1795 -1.64013 0.772612 0
M  V30 226 C 23.2275 0.4726 3.5749 0
M  V30 227 O 22.3315 -0.51646 4.09153 0
M  V30 228 H 21.6725 0.163271 0.643614 0
M  V30 229 H 24.2025 1.0841 1.73518 0
M  V30 230 H 24.2125 0.34003 4.06581 0
M  V30 231 H 22.8875 1.47848 3.88734 0
M  V30 232 H 21.4645 -0.344673 3.71304 0
M  V30 233 N 23.6496 -1.47581 0.552962 0
M  V30 234 C 24.8776 -2.06875 0.0320556 0
M  V30 235 C 25.2926 -1.40625 -1.25976 0
M  V30 236 O 24.6496 -0.501349 -1.75479 0
M  V30 237 C 24.7006 -3.61092 -0.17167 0
M  V30 238 O 24.4216 -4.24858 1.06899 0
M  V30 239 C 25.9226 -4.37242 -0.730344 0
M  V30 240 H 23.1426 -0.669561 0.043915 0
M  V30 241 H 25.6866 -1.89646 0.765163 0
M  V30 242 H 23.8416 -3.7785 -0.854894 0
M  V30 243 H 24.2556 -5.17334 0.864059 0
M  V30 244 H 25.7296 -5.45842 -0.822203 0
M  V30 245 H 26.2066 -4.03235 -1.74064 0
M  V30 246 H 26.8126 -4.25219 -0.0829543 0
M  V30 247 N 25.1277 -0.289203 -1.54924 0
M  V30 248 C 26.3737 0.323998 -2.00195 0
M  V30 249 C 26.7067 1.54441 -1.17735 0
M  V30 250 O 25.9817 1.92875 -0.250878 0
M  V30 251 C 26.2647 0.692276 -3.53383 0
M  V30 252 C 26.1177 -0.536457 -4.46589 0
M  V30 253 C 27.4367 1.52335 -4.12895 0
M  V30 254 H 24.5557 0.116289 -0.727768 0
M  V30 255 H 27.1977 -0.398954 -1.85764 0
M  V30 256 H 25.3477 1.30822 -3.65811 0
M  V30 257 H 27.0197 -1.17499 -4.46085 0
M  V30 258 H 25.2627 -1.17192 -4.1767 0
M  V30 259 H 25.9337 -0.234806 -5.515 0
M  V30 260 H 28.4097 1.00302 -4.0383 0
M  V30 261 H 27.2857 1.74982 -5.20262 0
M  V30 262 H 27.5467 2.50886 -3.64018 0
M  V30 263 N 26.6058 1.57591 -0.0167156 0
M  V30 264 C 27.5688 2.08393 0.954204 0
M  V30 265 C 28.5688 0.996531 1.26198 0
M  V30 266 O 29.7588 1.25858 1.20438 0
M  V30 267 C 26.8908 2.5394 2.27436 0
M  V30 268 H 28.0838 2.95455 0.514451 0
M  V30 269 H 25.6368 1.54582 0.231089 0
M  V30 270 H 26.3718 1.70171 2.76066 0
M  V30 271 H 26.1568 3.33371 2.06412 0
M  V30 272 H 27.6468 2.93512 2.97053 0
M  V30 273 N 28.0839 -0.256276 1.55502 0
M  V30 274 C 29.0319 -1.33694 1.90338 0
M  V30 275 C 30.0259 -1.50299 0.781441 0
M  V30 276 O 31.2319 -1.51885 0.965966 0
M  V30 277 H 27.6069 -0.447483 0.60437 0
M  V30 278 H 29.5779 -1.01574 2.8058 0
M  V30 279 C 28.3269 -2.68724 2.20642 0
M  V30 280 H 27.6499 -2.56743 3.06469 0
M  V30 281 H 29.0899 -3.43237 2.48926 0
M  V30 282 C 27.5489 -3.21101 1.01959 0
M  V30 283 O 28.0789 -4.0084 0.262762 0
M  V30 284 N 26.2849 -2.79003 0.812746 0
M  V30 285 H 25.8319 -2.14271 1.42989 0
M  V30 286 H 25.7899 -3.14393 0.0203076 0
M  V30 287 N 29.562 -1.4872 -0.521534 0
M  V30 288 C 30.525 -1.63379 -1.60748 0
M  V30 289 C 31.525 -0.50661 -1.52611 0
M  V30 290 O 32.715 -0.772601 -1.5613 0
M  V30 291 C 29.847 -1.61192 -3.00383 0
M  V30 292 H 31.04 -2.60217 -1.49087 0
M  V30 293 H 28.593 -1.37444 -0.744235 0
M  V30 294 H 29.328 -0.65863 -3.17541 0
M  V30 295 H 29.113 -2.43032 -3.07698 0
M  V30 296 H 30.603 -1.7466 -3.7932 0
M  V30 297 N 31.0401 0.771051 -1.3745 0
M  V30 298 C 32.2871 1.52963 -1.32697 0
M  V30 299 C 32.6151 1.94299 0.0883274 0
M  V30 300 O 31.8701 1.64397 1.0617 0
M  V30 301 C 32.1691 2.80676 -2.2126 0
M  V30 302 C 31.8351 2.58389 -3.69521 0
M  V30 303 C 30.4971 2.52019 -4.09927 0
M  V30 304 C 32.8491 2.38469 -4.63446 0
M  V30 305 C 30.1771 2.23721 -5.42371 0
M  V30 306 C 32.5291 2.11694 -5.96128 0
M  V30 307 C 31.1931 2.03769 -6.35637 0
M  V30 308 H 30.4631 0.559732 -0.485573 0
M  V30 309 H 33.1101 0.888083 -1.69662 0
M  V30 310 H 31.4151 3.49392 -1.77291 0
M  V30 311 H 33.1121 3.38557 -2.14895 0
M  V30 312 H 29.7021 2.6421 -3.37478 0
M  V30 313 H 33.8861 2.4238 -4.33089 0
M  V30 314 H 29.1421 2.16081 -5.71943 0
M  V30 315 H 33.3161 1.9528 -6.6846 0
M  V30 316 H 30.9431 1.81606 -7.38189 0
M  V30 317 N 32.5182 1.22032 0.997298 0
M  V30 318 C 33.4812 0.987909 2.06816 0
M  V30 319 C 34.4812 -0.0440084 1.6074 0
M  V30 320 O 35.6712 0.194053 1.73116 0
M  V30 321 C 32.8032 0.49132 3.37341 0
M  V30 322 H 33.9962 1.93803 2.28868 0
M  V30 323 H 31.5492 1.03838 1.16822 0
M  V30 324 H 32.2842 -0.463364 3.20973 0
M  V30 325 H 32.0692 1.23575 3.72118 0
M  V30 326 H 33.5592 0.348824 4.16141 0
M  V30 327 N 33.9963 -1.19345 1.0293 0
M  V30 328 C 35.2733 -1.84811 0.640642 0
M  V30 329 C 35.6533 -1.91855 -0.88062 0
M  V30 330 O 35.0013 -1.43587 -1.7775 0
M  V30 331 C 35.2113 -3.23755 1.30321 0
M  V30 332 C 36.5593 -3.99912 1.42673 0
M  V30 333 O 37.5833 -3.33155 1.26041 0
M  V30 334 O 36.4423 -5.19494 1.6967 0
M  V30 335 H 33.5363 -0.796443 0.222726 0
M  V30 336 H 36.0823 -1.26831 1.12748 0
M  V30 337 H 34.8543 -3.13466 2.34211 0
M  V30 338 H 34.4773 -3.89381 0.804261 0
M  V30 339 N 35.4744 -0.807222 -1.35358 0
M  V30 340 C 36.4044 -0.232509 -2.3234 0
M  V30 341 C 37.3854 0.642386 -1.57504 0
M  V30 342 O 38.5704 0.572526 -1.85569 0
M  V30 343 C 35.7004 0.619238 -3.41735 0
M  V30 344 C 34.6544 -0.157215 -4.27711 0
M  V30 345 C 33.9804 0.816273 -5.28433 0
M  V30 346 C 35.2804 -1.35656 -5.04376 0
M  V30 347 H 36.9744 -1.04276 -2.80654 0
M  V30 348 H 34.5204 -0.50288 -1.34934 0
M  V30 349 H 36.4734 1.03137 -4.08584 0
M  V30 350 H 35.1974 1.46239 -2.92031 0
M  V30 351 H 33.8564 -0.550525 -3.62443 0
M  V30 352 H 33.5044 1.65494 -4.74996 0
M  V30 353 H 33.2044 0.301067 -5.86828 0
M  V30 354 H 34.7284 1.22659 -5.98153 0
M  V30 355 H 36.1424 -1.01927 -5.64166 0
M  V30 356 H 34.5394 -1.8063 -5.7227 0
M  V30 357 H 35.6094 -2.14288 -4.34981 0
M  V30 358 N 36.9525 1.47285 -0.560781 0
M  V30 359 C 38.2005 2.02064 -0.0379868 0
M  V30 360 C 38.5215 1.43711 1.31803 0
M  V30 361 O 37.7915 0.61362 1.86042 0
M  V30 362 H 36.3715 0.746918 -0.0110531 0
M  V30 363 H 39.0335 1.80648 -0.731598 0
M  V30 364 H 38.1295 3.12064 0.0474463 0
M  V30 365 N 38.4306 0.297415 1.54768 0
M  V30 366 C 39.6796 -0.313669 1.99246 0
M  V30 367 C 39.9926 -1.55281 1.18942 0
M  V30 368 O 41.1986 -2.23825 1.5367 0
M  V30 369 C 39.6546 -0.609407 3.54703 0
M  V30 370 C 39.2626 0.611192 4.43811 0
M  V30 371 C 41.0066 -1.18188 4.07715 0
M  V30 372 C 38.9136 0.288805 5.90694 0
M  V30 373 H 37.8436 -0.120979 0.744231 0
M  V30 374 H 40.4946 0.40556 1.78962 0
M  V30 375 H 38.8766 -1.38813 3.70873 0
M  V30 376 H 40.0506 1.3875 4.39414 0
M  V30 377 H 38.3656 1.10205 4.01552 0
M  V30 378 H 40.9626 -1.43727 5.15021 0
M  V30 379 H 41.3056 -2.12299 3.58099 0
M  V30 380 H 41.8386 -0.464944 3.95074 0
M  V30 381 H 38.5776 1.19838 6.44453 0
M  V30 382 H 38.0976 -0.450305 5.98107 0
M  V30 383 H 39.7766 -0.110933 6.46905 0
M  V30 384 N 39.9087 -1.5758 0.0250728 0
M  V30 385 C 40.8567 -2.11125 -0.97617 0
M  V30 386 C 41.8507 -1.03689 -1.33959 0
M  V30 387 O 43.0567 -1.22128 -1.3223 0
M  V30 388 H 39.4317 -0.674468 -0.332561 0
M  V30 389 H 41.4027 -2.94194 -0.499223 0
M  V30 390 C 40.1517 -2.65017 -2.2508 0
M  V30 391 H 39.4747 -3.47333 -1.9799 0
M  V30 392 H 40.9147 -3.06133 -2.93357 0
M  V30 393 C 39.3737 -1.57574 -2.97779 0
M  V30 394 O 39.9037 -0.973203 -3.89733 0
M  V30 395 N 38.1097 -1.29716 -2.60043 0
M  V30 396 H 37.6567 -1.789 -1.85345 0
M  V30 397 H 37.6147 -0.58051 -3.08994 0
M  V30 398 N 41.3868 0.248026 -1.55636 0
M  V30 399 C 42.6328 0.97767 -1.77678 0
M  V30 400 C 42.9658 1.85016 -0.590135 0
M  V30 401 O 42.2408 1.90095 0.411611 0
M  V30 402 C 42.5238 1.83914 -3.09593 0
M  V30 403 C 42.3768 0.99491 -4.38659 0
M  V30 404 C 43.6958 2.82183 -3.37729 0
M  V30 405 H 40.8148 0.354005 -0.646413 0
M  V30 406 H 43.4568 0.248253 -1.88371 0
M  V30 407 H 41.6068 2.46104 -3.00608 0
M  V30 408 H 43.2788 0.391789 -4.59633 0
M  V30 409 H 41.5218 0.299231 -4.32767 0
M  V30 410 H 42.1928 1.63145 -5.2734 0
M  V30 411 H 44.6688 2.30129 -3.4667 0
M  V30 412 H 43.5448 3.39582 -4.31249 0
M  V30 413 H 43.8058 3.58588 -2.58586 0
M  V30 414 N 42.8649 1.48995 0.513639 0
M  V30 415 C 44.1139 1.57093 1.2651 0
M  V30 416 C 44.4269 0.257091 1.93903 0
M  V30 417 O 45.6329 0.216478 2.70636 0
M  V30 418 C 44.0889 2.77118 2.29638 0
M  V30 419 C 43.6969 4.15209 1.68241 0
M  V30 420 C 45.4409 2.94538 3.05692 0
M  V30 421 C 43.3479 5.26474 2.69406 0
M  V30 422 H 42.2779 0.584876 0.475854 0
M  V30 423 H 44.9289 1.7536 0.540487 0
M  V30 424 H 43.3109 2.52319 3.05207 0
M  V30 425 H 44.4849 4.50094 0.987505 0
M  V30 426 H 42.7999 4.03042 1.04623 0
M  V30 427 H 45.3969 3.74832 3.8132 0
M  V30 428 H 45.7399 2.04614 3.62545 0
M  V30 429 H 46.2729 3.19316 2.37238 0
M  V30 430 H 43.0119 6.18417 2.17351 0
M  V30 431 H 42.5319 4.96058 3.37175 0
M  V30 432 H 44.2109 5.55277 3.32078 0
M  V30 433 N 44.343 -0.763751 1.37857 0
M  V30 434 C 45.62 -1.51244 1.24035 0
M  V30 435 C 46 -2.10472 -0.162649 0
M  V30 436 O 45.348 -1.96206 -1.17112 0
M  V30 437 C 45.558 -2.58694 2.34261 0
M  V30 438 C 46.906 -3.25878 2.72193 0
M  V30 439 O 47.93 -2.68993 2.33497 0
M  V30 440 O 46.789 -4.2874 3.38887 0
M  V30 441 H 43.883 -0.670243 0.484462 0
M  V30 442 H 46.429 -0.800031 1.49658 0
M  V30 443 H 45.201 -2.13105 3.2818 0
M  V30 444 H 44.824 -3.37527 2.10146 0
M  V30 445 N 45.8211 -1.22559 -0.990812 0
M  V30 446 C 46.7841 -0.998863 -2.0629 0
M  V30 447 C 47.7841 0.0354834 -1.60761 0
M  V30 448 O 48.9741 -0.203231 -1.7301 0
M  V30 449 C 46.1061 -0.509203 -3.37076 0
M  V30 450 H 47.2991 -1.95014 -2.27837 0
M  V30 451 H 44.8521 -1.04456 -1.16269 0
M  V30 452 H 45.5871 0.446335 -3.21214 0
M  V30 453 H 45.3721 -1.25547 -3.71457 0
M  V30 454 H 46.8621 -0.370888 -4.1595 0
M  V30 455 N 47.2992 1.18797 -1.03562 0
M  V30 456 C 48.5762 1.84469 -0.650434 0
M  V30 457 C 48.9562 1.92319 0.870433 0
M  V30 458 O 48.3042 1.44528 1.76986 0
M  V30 459 C 48.5142 3.2306 -1.32036 0
M  V30 460 C 49.8622 3.9915 -1.44792 0
M  V30 461 O 50.8862 3.32481 -1.27806 0
M  V30 462 O 49.7452 5.18587 -1.72423 0
M  V30 463 H 46.8392 0.795251 -0.226946 0
M  V30 464 H 49.3852 1.26231 -1.13419 0
M  V30 465 H 48.1572 3.1222 -2.3587 0
M  V30 466 H 47.7802 3.88949 -0.8249 0
M  V30 467 N 48.7773 0.814389 1.34928 0
M  V30 468 C 50.0263 0.394871 1.97797 0
M  V30 469 C 50.3393 -1.04555 1.65311 0
M  V30 470 O 51.5453 -1.56856 2.21604 0
M  V30 471 C 50.0013 0.655103 3.53888 0
M  V30 472 C 49.6093 2.10858 3.95276 0
M  V30 473 C 51.3533 0.301329 4.23429 0
M  V30 474 C 49.2603 2.31415 5.44244 0
M  V30 475 H 48.1903 0.143913 0.740139 0
M  V30 476 H 50.8413 0.999544 1.53888 0
M  V30 477 H 49.2233 -0.0196253 3.95995 0
M  V30 478 H 50.3973 2.82176 3.64298 0
M  V30 479 H 48.7123 2.42297 3.38646 0
M  V30 480 H 51.3093 0.432869 5.32945 0
M  V30 481 H 51.6523 -0.75331 4.09428 0
M  V30 482 H 52.1853 0.930288 3.86769 0
M  V30 483 H 48.9243 3.35353 5.63222 0
M  V30 484 H 48.4443 1.6463 5.76764 0
M  V30 485 H 50.1233 2.13352 6.10811 0
M  V30 486 N 50.2554 -1.46986 0.568584 0
M  V30 487 C 51.5044 -2.01646 0.0465894 0
M  V30 488 C 51.8174 -1.44721 -1.31587 0
M  V30 489 O 53.0234 -1.91113 -1.92842 0
M  V30 490 C 51.4794 -3.59885 0.032752 0
M  V30 491 C 51.0874 -4.25804 1.39266 0
M  V30 492 C 52.8314 -4.22255 -0.436038 0
M  V30 493 C 50.7384 -5.76081 1.33732 0
M  V30 494 H 49.6684 -0.753876 0.013647 0
M  V30 495 H 52.3194 -1.68864 0.718131 0
M  V30 496 H 50.7014 -3.8968 -0.704669 0
M  V30 497 H 51.8754 -4.07637 2.1487 0
M  V30 498 H 50.1904 -3.7547 1.80032 0
M  V30 499 H 52.7874 -5.32394 -0.49602 0
M  V30 500 H 53.1304 -3.90212 -1.45053 0
M  V30 501 H 53.6634 -3.97033 0.246877 0
M  V30 502 H 50.4024 -6.12761 2.32817 0
M  V30 503 H 49.9224 -5.96553 0.623267 0
M  V30 504 H 51.6014 -6.38518 1.0442 0
M  V30 505 N 51.7335 -0.305618 -1.54608 0
M  V30 506 C 52.6965 0.555591 -2.22364 0
M  V30 507 C 53.6965 1.05768 -1.21119 0
M  V30 508 O 54.8865 0.952972 -1.45822 0
M  V30 509 C 52.0185 1.76974 -2.91364 0
M  V30 510 H 53.2115 -0.0364572 -2.99878 0
M  V30 511 H 50.7645 -0.0565007 -1.56198 0
M  V30 512 H 51.4995 2.40151 -2.17941 0
M  V30 513 H 51.2845 1.41732 -3.65588 0
M  V30 514 H 52.7745 2.38148 -3.43038 0
M  V30 515 N 53.2116 1.57565 -0.0334293 0
M  V30 516 C 54.6276 1.56297 0.322997 0
M  V30 517 C 54.8276 1.03945 1.7262 0
M  V30 518 O 53.8836 0.688109 2.42943 0
M  V30 519 C 55.1966 3.00232 0.167664 0
M  V30 520 C 56.7446 3.12078 0.240107 0
M  V30 521 C 57.2196 4.57859 0.113513 0
M  V30 522 N 58.7106 4.62887 0.170359 0
M  V30 523 C 59.4456 5.73319 0.0962517 0
M  V30 524 N 58.9416 6.92794 -0.0291881 0
M  V30 525 N 60.7346 5.61898 0.150551 0
M  V30 526 H 52.8856 1.89923 -0.950956 0
M  V30 527 H 55.1486 0.873824 -0.367608 0
M  V30 528 H 54.8546 3.42501 -0.799102 0
M  V30 529 H 54.7286 3.654 0.936083 0
M  V30 530 H 57.1156 2.69718 1.19733 0
M  V30 531 H 57.1966 2.49623 -0.558763 0
M  V30 532 H 56.8406 5.009 -0.840314 0
M  V30 533 H 56.7706 5.18299 0.931302 0
M  V30 534 H 59.2616 3.76954 0.26728 0
M  V30 535 H 59.5746 7.7276 -0.0789252 0
M  V30 536 H 57.9196 6.94971 -0.0640299 0
M  V30 537 H 61.1106 4.67448 0.246981 0
M  V30 538 H 61.2836 6.47938 0.0893365 0
M  V30 539 N 54.6897 -0.239769 1.55765 0
M  V30 540 C 55.6217 -1.32001 1.87372 0
M  V30 541 C 56.6347 -1.43944 0.760522 0
M  V30 542 O 57.8237 -1.45167 1.0387 0
M  V30 543 C 54.9237 -2.69779 2.05115 0
M  V30 544 C 54.0967 -2.80014 3.36022 0
M  V30 545 C 53.1557 -3.98684 3.4342 0
M  V30 546 O 52.1817 -3.87877 4.16582 0
M  V30 547 N 53.3837 -5.12176 2.73232 0
M  V30 548 H 56.1487 -1.0522 2.80622 0
M  V30 549 H 53.7097 -0.429857 1.56089 0
M  V30 550 H 55.7017 -3.47517 2.07399 0
M  V30 551 H 54.2717 -2.89237 1.18577 0
M  V30 552 H 53.4917 -1.88896 3.45994 0
M  V30 553 H 54.7797 -2.83808 4.22292 0
M  V30 554 H 54.1777 -5.2385 2.13536 0
M  V30 555 H 52.7347 -5.88022 2.81199 0
M  V30 556 N 56.1678 -1.49265 -0.50573 0
M  V30 557 C 57.4138 -1.58748 -1.26202 0
M  V30 558 C 57.7468 -0.271227 -1.92297 0
M  V30 559 O 57.0218 0.724831 -1.80489 0
M  V30 560 C 57.3048 -2.74332 -2.33268 0
M  V30 561 C 57.1578 -4.15737 -1.71705 0
M  V30 562 C 58.4768 -2.85576 -3.34865 0
M  V30 563 H 55.5958 -0.577826 -0.457478 0
M  V30 564 H 58.2378 -1.81532 -0.560897 0
M  V30 565 H 56.3878 -2.55036 -2.93068 0
M  V30 566 H 58.0598 -4.46537 -1.15769 0
M  V30 567 H 56.3028 -4.21605 -1.02135 0
M  V30 568 H 56.9738 -4.92477 -2.49341 0
M  V30 569 H 59.4498 -3.03127 -2.8505 0
M  V30 570 H 58.3258 -3.68135 -4.07146 0
M  V30 571 H 58.5868 -1.94732 -3.96903 0
M  V30 572 N 57.6459 0.756429 -1.3826 0
M  V30 573 C 58.8919 1.51772 -1.34511 0
M  V30 574 C 59.2249 1.94089 0.0656691 0
M  V30 575 O 58.4999 1.65221 1.02626 0
M  V30 576 C 58.7829 2.77226 -2.29821 0
M  V30 577 C 58.6359 2.41065 -3.79747 0
M  V30 578 C 59.9549 3.79236 -2.23312 0
M  V30 579 H 57.0739 0.550578 -0.489931 0
M  V30 580 H 59.7159 0.866607 -1.69086 0
M  V30 581 H 57.8659 3.32784 -2.00467 0
M  V30 582 H 59.5379 1.91303 -4.19763 0
M  V30 583 H 57.7809 1.7356 -3.97567 0
M  V30 584 H 58.4519 3.3081 -4.41892 0
M  V30 585 H 60.9279 3.3321 -2.49219 0
M  V30 586 H 59.8039 4.64714 -2.92116 0
M  V30 587 H 60.0649 4.24615 -1.23102 0
M  V30 588 N 59.124 1.23083 0.984299 0
M  V30 589 C 60.034 1.02515 2.11016 0
M  V30 590 C 61.05 -0.0291702 1.73976 0
M  V30 591 O 62.226 0.165434 2.00719 0
M  V30 592 C 59.291 0.614673 3.41208 0
M  V30 593 C 58.352 1.74359 3.92297 0
M  V30 594 C 57.585 1.35261 5.16275 0
M  V30 595 O 57.808 0.235136 5.69915 0
M  V30 596 O 56.742 2.17227 5.61334 0
M  V30 597 H 60.568 1.96862 2.31255 0
M  V30 598 H 58.153 1.01753 1.09392 0
M  V30 599 H 60.035 0.396518 4.1953 0
M  V30 600 H 58.71 -0.299851 3.22308 0
M  V30 601 H 57.617 2.01635 3.1511 0
M  V30 602 H 58.95 2.63629 4.15645 0
M  V30 603 N 60.6021 -1.18246 1.0419 0
M  V30 604 C 62.0131 -1.69914 0.773698 0
M  V30 605 C 62.3641 -1.83085 -0.705297 0
M  V30 606 O 61.4891 -1.51123 -1.5489 0
M  V30 607 C 62.0841 -3.08619 1.39784 0
M  V30 608 C 60.6431 -3.57494 1.17792 0
M  V30 609 C 59.7901 -2.34013 1.48773 0
M  V30 610 H 62.7411 -1.02904 1.20816 0
M  V30 611 H 62.7621 -3.71958 0.801714 0
M  V30 612 H 62.2741 -2.99001 2.47426 0
M  V30 613 H 60.3751 -3.72406 0.120295 0
M  V30 614 H 60.4881 -4.40852 1.87581 0
M  V30 615 H 58.8521 -2.37986 0.907463 0
M  V30 616 H 59.6351 -2.27013 2.57527 0
M  V30 617 N 62.0802 -0.821533 -1.34494 0
M  V30 618 C 63.3282 -0.408139 -1.97936 0
M  V30 619 C 63.6492 1.03193 -1.65457 0
M  V30 620 O 62.9192 1.71622 -0.944595 0
M  V30 621 H 61.4992 -0.147928 -0.732206 0
M  V30 622 H 64.1612 -1.05067 -1.64155 0
M  V30 623 H 63.2572 -0.52601 -3.07635 0
M  V30 624 N 63.5583 1.46682 -0.576371 0
M  V30 625 C 64.5213 2.28707 0.150239 0
M  V30 626 C 65.5213 1.38035 0.824794 0
M  V30 627 O 66.7113 1.60476 0.677719 0
M  V30 628 C 63.8433 3.18248 1.22192 0
M  V30 629 H 65.0363 2.94423 -0.570521 0
M  V30 630 H 62.5893 1.52688 -0.334078 0
M  V30 631 H 63.3243 2.57265 1.97447 0
M  V30 632 H 63.1093 3.85 0.742812 0
M  V30 633 H 64.5993 3.80001 1.73172 0
M  V30 634 N 65.0364 0.313813 1.54444 0
M  V30 635 C 66.4474 -0.176243 1.85866 0
M  V30 636 C 66.7984 -1.52405 1.23561 0
M  V30 637 O 65.9234 -2.09605 0.538016 0
M  V30 638 C 66.5184 -0.32657 3.37222 0
M  V30 639 C 65.0774 -0.760846 3.6863 0
M  V30 640 C 64.2244 0.123247 2.77026 0
M  V30 641 H 67.1754 0.534418 1.49431 0
M  V30 642 H 67.1964 -1.15908 3.62416 0
M  V30 643 H 66.7084 0.654531 3.82541 0
M  V30 644 H 64.8094 -1.75204 3.28838 0
M  V30 645 H 64.9224 -0.571353 4.75681 0
M  V30 646 H 63.2864 -0.399597 2.51546 0
M  V30 647 H 64.0694 1.10094 3.25168 0
M  V30 648 N 66.5145 -1.57545 0.0417849 0
M  V30 649 C 67.4775 -2.09885 -0.92093 0
M  V30 650 C 68.4775 -1.01648 -1.24596 0
M  V30 651 O 69.6675 -1.27759 -1.1842 0
M  V30 652 C 66.7995 -2.57527 -2.23367 0
M  V30 653 H 67.9925 -2.96236 -0.467382 0
M  V30 654 H 65.5455 -1.5493 -0.206467 0
M  V30 655 H 66.2805 -1.74542 -2.73323 0
M  V30 656 H 66.0655 -3.36613 -2.01083 0
M  V30 657 H 67.5555 -2.98201 -2.92346 0
M  V30 658 N 67.9926 0.231505 -1.5589 0
M  V30 659 C 68.9226 1.29022 -1.94617 0
M  V30 660 C 69.9036 1.4941 -0.813067 0
M  V30 661 O 71.0886 1.6176 -1.07459 0
M  V30 662 C 68.2186 2.64199 -2.25424 0
M  V30 663 C 67.1726 2.58484 -3.41131 0
M  V30 664 C 66.4986 3.97599 -3.57518 0
M  V30 665 C 67.7986 2.1413 -4.76388 0
M  V30 666 H 69.4926 0.968563 -2.83301 0
M  V30 667 H 67.0386 0.464479 -1.36303 0
M  V30 668 H 68.9916 3.38413 -2.51107 0
M  V30 669 H 67.7156 2.98032 -1.33583 0
M  V30 670 H 66.3746 1.86727 -3.15481 0
M  V30 671 H 66.0226 4.28723 -2.6307 0
M  V30 672 H 65.7226 3.94659 -4.35337 0
M  V30 673 H 67.2466 4.7349 -3.85538 0
M  V30 674 H 68.6606 2.78083 -5.01341 0
M  V30 675 H 67.0576 2.2227 -5.57419 0
M  V30 676 H 68.1276 1.09331 -4.72414 0
M  V30 677 N 69.4707 1.49531 0.497807 0
M  V30 678 C 70.4207 1.62829 1.59596 0
M  V30 679 C 71.4047 0.483824 1.53453 0
M  V30 680 O 72.5967 0.736937 1.60929 0
M  V30 681 C 69.7257 1.7011 2.98191 0
M  V30 682 C 68.8117 2.90144 3.09317 0
M  V30 683 N 69.2027 4.1418 2.90324 0
M  V30 684 C 67.5007 2.88148 3.40422 0
M  V30 685 C 68.2017 4.94886 3.05717 0
M  V30 686 N 67.1777 4.28314 3.34736 0
M  V30 687 H 70.9797 2.56446 1.4357 0
M  V30 688 H 68.4937 1.46347 0.704001 0
M  V30 689 H 70.4907 1.77735 3.77115 0
M  V30 690 H 69.1507 0.776315 3.15283 0
M  V30 691 H 70.1617 4.44109 2.66436 0
M  V30 692 H 66.8387 2.05061 3.63671 0
M  V30 693 H 68.2287 6.03432 2.95499 0
M  V30 694 N 70.9488 -0.749086 1.3866 0
M  V30 695 C 71.9118 -1.84457 1.36045 0
M  V30 696 C 72.9118 -1.58682 0.260122 0
M  V30 697 O 74.1018 -1.66343 0.517261 0
M  V30 698 C 71.2338 -3.22008 1.11911 0
M  V30 699 H 72.4268 -1.88182 2.33512 0
M  V30 700 H 69.9798 -0.951266 1.24019 0
M  V30 701 H 70.7148 -3.2395 0.150686 0
M  V30 702 H 70.4998 -3.42111 1.91579 0
M  V30 703 H 71.9898 -4.0208 1.12788 0
M  V30 704 N 72.4269 -1.23603 -0.977757 0
M  V30 705 C 73.6759 -1.06377 -1.71368 0
M  V30 706 C 73.9889 0.399062 -1.91486 0
M  V30 707 O 75.1949 0.691312 -2.62551 0
M  V30 708 C 73.6509 -1.85512 -3.08404 0
M  V30 709 C 73.2589 -3.36141 -2.96164 0
M  V30 710 C 75.0029 -1.76783 -3.85938 0
M  V30 711 C 72.9099 -4.07659 -4.28449 0
M  V30 712 H 71.8399 -0.394452 -0.642591 0
M  V30 713 H 74.4909 -1.47594 -1.09034 0
M  V30 714 H 72.8729 -1.37103 -3.71509 0
M  V30 715 H 74.0469 -3.92056 -2.42133 0
M  V30 716 H 72.3619 -3.45712 -2.32104 0
M  V30 717 H 74.9589 -2.27526 -4.83876 0
M  V30 718 H 75.3019 -0.731116 -4.0983 0
M  V30 719 H 75.8349 -2.22818 -3.2954 0
M  V30 720 H 72.5739 -5.11648 -4.09752 0
M  V30 721 H 72.0939 -3.5653 -4.82334 0
M  V30 722 H 73.7729 -4.141 -4.97122 0
M  V30 723 N 73.905 1.17692 -1.04816 0
M  V30 724 C 74.868 2.19787 -0.650117 0
M  V30 725 C 75.868 1.58044 0.296427 0
M  V30 726 O 77.058 1.74012 0.0808097 0
M  V30 727 C 74.19 3.40869 0.0456987 0
M  V30 728 H 75.383 2.56516 -1.5537 0
M  V30 729 H 72.936 1.31708 -0.841594 0
M  V30 730 H 73.671 3.09681 0.962726 0
M  V30 731 H 73.456 3.86928 -0.634727 0
M  V30 732 H 74.946 4.16445 0.310432 0
M  V30 733 N 75.3831 0.828654 1.34056 0
M  V30 734 C 76.6601 0.341809 1.9259 0
M  V30 735 C 77.0401 -1.17158 1.75605 0
M  V30 736 O 76.3881 -1.98132 1.13824 0
M  V30 737 C 76.5981 0.777453 3.4023 0
M  V30 738 C 77.9461 0.779579 4.17382 0
M  V30 739 O 78.9701 0.7204 3.48839 0
M  V30 740 O 77.8291 0.857996 5.39723 0
M  V30 741 H 74.9231 0.0946085 0.821571 0
M  V30 742 H 77.4691 0.913827 1.42994 0
M  V30 743 H 76.2411 1.8196 3.46419 0
M  V30 744 H 75.8641 0.181444 3.97186 0
M  V30 745 N 76.8612 -1.46375 0.584142 0
M  V30 746 C 77.8112 -2.27371 -0.169232 0
M  V30 747 C 78.7952 -1.35955 -0.860523 0
M  V30 748 O 79.9872 -1.60119 -0.754382 0
M  V30 749 C 77.1162 -3.22334 -1.18134 0
M  V30 750 C 76.2022 -4.21235 -0.492088 0
M  V30 751 N 76.5932 -5.03766 0.453129 0
M  V30 752 C 74.8912 -4.39773 -0.742652 0
M  V30 753 C 75.5922 -5.75366 0.85609 0
M  V30 754 N 74.5682 -5.43214 0.204926 0
M  V30 755 H 78.3702 -2.88572 0.557097 0
M  V30 756 H 75.8842 -1.57242 0.406042 0
M  V30 757 H 77.8812 -3.79071 -1.73525 0
M  V30 758 H 76.5412 -2.62693 -1.90847 0
M  V30 759 H 77.5522 -5.11227 0.828723 0
M  V30 760 H 74.2292 -3.91279 -1.45625 0
M  V30 761 H 75.6192 -6.5172 1.63434 0
M  V30 762 N 78.3393 -0.321999 -1.54275 0
M  V30 763 C 79.5863 0.281044 -2.0054 0
M  V30 764 C 79.9143 1.52265 -1.21019 0
M  V30 765 O 79.1693 1.93687 -0.279982 0
M  V30 766 C 79.4683 0.661769 -3.5122 0
M  V30 767 C 79.1343 -0.480482 -4.48333 0
M  V30 768 C 77.7963 -0.794005 -4.74604 0
M  V30 769 C 80.1483 -1.24783 -5.06042 0
M  V30 770 C 77.4763 -1.87763 -5.55844 0
M  V30 771 C 79.8283 -2.32153 -5.88462 0
M  V30 772 C 78.4923 -2.64089 -6.13036 0
M  V30 773 H 77.7623 0.102841 -0.733829 0
M  V30 774 H 80.4093 -0.445453 -1.86247 0
M  V30 775 H 78.7143 1.46867 -3.63232 0
M  V30 776 H 80.4113 1.13989 -3.84457 0
M  V30 777 H 77.0013 -0.226039 -4.28004 0
M  V30 778 H 81.1853 -1.01887 -4.85729 0
M  V30 779 H 76.4413 -2.12954 -5.73115 0
M  V30 780 H 80.6153 -2.92057 -6.32199 0
M  V30 781 H 78.2423 -3.48185 -6.75775 0
M  V30 782 N 79.8174 1.5752 -0.0501392 0
M  V30 783 C 81.0654 1.9227 0.622642 0
M  V30 784 C 81.3864 0.929083 1.71444 0
M  V30 785 O 80.6564 -0.0262186 1.95882 0
M  V30 786 H 79.2364 0.709739 0.232981 0
M  V30 787 H 81.8984 1.94628 -0.102898 0
M  V30 788 H 80.9944 2.93479 1.06191 0
M  V30 789 N 81.2955 -0.223234 1.56011 0
M  V30 790 C 82.2585 -1.26014 1.9145 0
M  V30 791 C 83.2585 -1.3989 0.792937 0
M  V30 792 O 84.4485 -1.38184 1.0607 0
M  V30 793 C 81.5805 -2.63422 2.16383 0
M  V30 794 H 82.7735 -0.95796 2.84189 0
M  V30 795 H 80.3265 -0.463576 1.49267 0
M  V30 796 H 81.0615 -2.98741 1.2619 0
M  V30 797 H 80.8465 -2.54728 2.98088 0
M  V30 798 H 82.3365 -3.38249 2.44903 0
M  V30 799 N 82.7736 -1.49793 -0.48987 0
M  V30 800 C 83.7216 -1.67783 -1.61095 0
M  V30 801 C 84.7156 -0.543683 -1.60438 0
M  V30 802 O 85.9216 -0.723647 -1.64813 0
M  V30 803 H 82.2966 -0.529255 -0.534222 0
M  V30 804 H 84.2676 -2.61861 -1.43078 0
M  V30 805 C 83.0166 -1.77191 -2.99164 0
M  V30 806 H 82.3396 -2.63841 -3.0038 0
M  V30 807 H 83.7796 -1.93809 -3.77113 0
M  V30 808 C 82.2386 -0.519203 -3.32875 0
M  V30 809 O 82.7686 0.350124 -4.00171 0
M  V30 810 N 80.9746 -0.378816 -2.8812 0
M  V30 811 H 80.5216 -1.08725 -2.33531 0
M  V30 812 H 80.4796 0.458239 -3.11043 0
M  V30 813 N 84.2517 0.741722 -1.39055 0
M  V30 814 C 85.1847 1.86416 -1.31622 0
M  V30 815 C 86.1627 1.61473 -0.191076 0
M  V30 816 O 87.3467 1.84825 -0.370399 0
M  V30 817 C 84.4737 3.22266 -1.04221 0
M  V30 818 C 83.5197 3.66079 -2.18834 0
M  V30 819 S 84.3527 3.7623 -3.81066 0
M  V30 820 C 85.5087 5.14881 -3.55877 0
M  V30 821 H 85.7417 1.92437 -2.26617 0
M  V30 822 H 83.2747 0.905907 -1.25031 0
M  V30 823 H 85.2327 4.00714 -0.890964 0
M  V30 824 H 83.8937 3.1391 -0.109237 0
M  V30 825 H 83.0867 4.64648 -1.95238 0
M  V30 826 H 82.6887 2.94817 -2.30128 0
M  V30 827 H 84.9807 6.01006 -3.12726 0
M  V30 828 H 85.9237 5.43503 -4.53884 0
M  V30 829 H 86.3317 4.84239 -2.90126 0
M  V30 830 N 85.7298 1.2412 0.971189 0
M  V30 831 C 86.9788 1.07284 1.70801 0
M  V30 832 C 87.2918 -0.388902 1.91695 0
M  V30 833 O 88.4978 -0.677379 2.62914 0
M  V30 834 C 86.9538 1.87145 3.07416 0
M  V30 835 C 86.5618 3.37707 2.94377 0
M  V30 836 C 88.3058 1.78828 3.84995 0
M  V30 837 C 86.2128 4.09925 4.26281 0
M  V30 838 H 85.1428 0.397854 0.64049 0
M  V30 839 H 87.7938 1.4817 1.0825 0
M  V30 840 H 86.1758 1.39071 3.70777 0
M  V30 841 H 87.3498 3.93335 2.4005 0
M  V30 842 H 85.6648 3.46938 2.30267 0
M  V30 843 H 88.2618 2.30089 4.82662 0
M  V30 844 H 88.6048 0.75284 4.09436 0
M  V30 845 H 89.1378 2.24563 3.28354 0
M  V30 846 H 85.8768 5.13813 4.07033 0
M  V30 847 H 85.3968 3.59083 4.80437 0
M  V30 848 H 87.0758 4.1673 4.94919 0
M  V30 849 N 87.2079 -1.17134 1.05439 0
M  V30 850 C 88.1709 -2.19439 0.661764 0
M  V30 851 C 89.1709 -1.58199 -0.288042 0
M  V30 852 O 90.3609 -1.74053 -0.0715803 0
M  V30 853 C 87.4929 -3.40889 -0.0276209 0
M  V30 854 H 88.6859 -2.55688 1.56728 0
M  V30 855 H 86.2389 -1.31259 0.848567 0
M  V30 856 H 86.9739 -3.10187 -0.94629 0
M  V30 857 H 86.7589 -3.86586 0.655238 0
M  V30 858 H 88.2489 -4.16603 -0.288342 0
M  V30 859 N 88.686 -0.835752 -1.33615 0
M  V30 860 C 89.649 -0.272 -2.2758 0
M  V30 861 C 90.649 0.557487 -1.50827 0
M  V30 862 O 91.839 0.37173 -1.70188 0
M  V30 863 C 88.971 0.617173 -3.35267 0
M  V30 864 H 90.164 -1.10111 -2.78954 0
M  V30 865 H 87.717 -0.608594 -1.43965 0
M  V30 866 H 88.452 1.46884 -2.89129 0
M  V30 867 H 88.237 0.0237066 -3.92093 0
M  V30 868 H 89.727 1.005 -4.05326 0
M  V30 869 N 90.1641 1.46063 -0.591896 0
M  V30 870 C 91.4411 1.95595 -0.0137119 0
M  V30 871 C 91.8211 1.5345 1.4497 0
M  V30 872 O 91.1691 0.789543 2.14426 0
M  V30 873 C 91.3791 3.48453 -0.195373 0
M  V30 874 C 92.7271 4.24546 -0.0679765 0
M  V30 875 O 93.7511 3.55982 -0.124681 0
M  V30 876 O 92.6101 5.46467 0.0600579 0
M  V30 877 H 89.7041 0.825795 0.0446279 0
M  V30 878 H 92.2501 1.56303 -0.660859 0
M  V30 879 H 91.0221 3.72045 -1.21235 0
M  V30 880 H 90.6451 3.94597 0.487775 0
M  V30 881 N 91.6422 0.330177 1.54103 0
M  V30 882 C 92.8902 -0.269871 2.0029 0
M  V30 883 C 93.2112 -1.52133 1.21986 0
M  V30 884 O 92.4812 -1.93212 0.323438 0
M  V30 885 H 91.0612 -0.10271 0.739905 0
M  V30 886 H 93.7232 0.448249 1.89675 0
M  V30 887 H 92.8192 -0.52166 3.07709 0
M  V30 888 N 93.1203 -1.57491 0.0584922 0
M  V30 889 C 94.3483 -1.97296 -0.623037 0
M  V30 890 C 94.7633 -0.936338 -1.63946 0
M  V30 891 O 94.1203 0.0785981 -1.82331 0
M  V30 892 C 94.1713 -3.37183 -1.30345 0
M  V30 893 O 93.8923 -4.36872 -0.32773 0
M  V30 894 C 95.3933 -3.91788 -2.07406 0
M  V30 895 H 92.6133 -0.649153 -0.169826 0
M  V30 896 H 95.1573 -2.04106 0.12696 0
M  V30 897 H 93.3123 -3.31502 -2.00463 0
M  V30 898 H 93.7263 -5.18141 -0.814269 0
M  V30 899 H 95.2003 -4.91926 -2.50425 0
M  V30 900 H 95.6773 -3.27609 -2.92521 0
M  V30 901 H 96.2833 -4.00829 -1.42184 0
M  V30 902 N 94.5984 0.214957 -1.56127 0
M  V30 903 C 95.5284 1.2695 -1.95974 0
M  V30 904 C 96.5094 1.48539 -0.828868 0
M  V30 905 O 97.6944 1.60611 -1.09168 0
M  V30 906 C 94.8244 2.61794 -2.28214 0
M  V30 907 C 93.7784 2.54851 -3.43853 0
M  V30 908 C 93.1044 3.93785 -3.61715 0
M  V30 909 C 94.4044 2.09065 -4.78632 0
M  V30 910 H 96.0984 0.93846 -2.84312 0
M  V30 911 H 93.6444 0.449996 -1.36788 0
M  V30 912 H 95.5974 3.35731 -2.54682 0
M  V30 913 H 94.3214 2.96599 -1.36736 0
M  V30 914 H 92.9804 1.8337 -3.17444 0
M  V30 915 H 92.6284 4.25908 -2.67602 0
M  V30 916 H 92.3284 3.90019 -4.39498 0
M  V30 917 H 93.8524 4.69374 -3.90539 0
M  V30 918 H 95.2664 2.7275 -5.04262 0
M  V30 919 H 93.6634 2.16346 -5.59745 0
M  V30 920 H 94.7334 1.04315 -4.73547 0
M  V30 921 N 96.0765 1.50051 0.48192 0
M  V30 922 C 97.0085 1.64263 1.59844 0
M  V30 923 C 98.0215 0.52451 1.54119 0
M  V30 924 O 99.2105 0.797293 1.59704 0
M  V30 925 C 96.3105 1.60102 2.98698 0
M  V30 926 C 95.4835 2.87767 3.29407 0
M  V30 927 C 94.5425 2.76397 4.47762 0
M  V30 928 O 93.5685 3.50348 4.48603 0
M  V30 929 N 94.7705 1.89222 5.48794 0
M  V30 930 H 97.5355 2.60566 1.48073 0
M  V30 931 H 95.0965 1.47379 0.670149 0
M  V30 932 H 97.0885 1.50123 3.75826 0
M  V30 933 H 95.6585 0.715798 3.04294 0
M  V30 934 H 94.8785 3.11954 2.40994 0
M  V30 935 H 96.1665 3.72365 3.4673 0
M  V30 936 H 95.5645 1.28434 5.50928 0
M  V30 937 H 94.1215 1.85154 6.24949 0
M  V30 938 N 97.5546 -0.734337 1.39446 0
M  V30 939 C 98.9706 -1.03997 1.21065 0
M  V30 940 C 99.1706 -2.01369 0.0727019 0
M  V30 941 O 98.2266 -2.45856 -0.575426 0
M  V30 942 C 99.5396 -1.60163 2.54496 0
M  V30 943 C 101.088 -1.7224 2.61347 0
M  V30 944 C 101.563 -2.31814 3.95002 0
M  V30 945 N 103.054 -2.39223 3.96644 0
M  V30 946 C 103.789 -2.86258 4.96834 0
M  V30 947 N 103.285 -3.33184 6.07421 0
M  V30 948 N 105.078 -2.85473 4.84213 0
M  V30 949 H 97.2286 -0.0885624 2.12215 0
M  V30 950 H 99.4916 -0.10191 0.942506 0
M  V30 951 H 99.1976 -0.960811 3.38321 0
M  V30 952 H 99.0716 -2.5896 2.74262 0
M  V30 953 H 101.459 -2.35443 1.77906 0
M  V30 954 H 101.54 -0.720939 2.4543 0
M  V30 955 H 101.184 -1.69238 4.78875 0
M  V30 956 H 101.114 -3.32638 4.08239 0
M  V30 957 H 103.605 -2.06057 3.16779 0
M  V30 958 H 103.918 -3.67586 6.7978 0
M  V30 959 H 102.263 -3.31191 6.11013 0
M  V30 960 H 105.454 -2.48136 3.96921 0
M  V30 961 H 105.627 -3.21814 5.62441 0
M  V30 962 N 99.0327 -1.24633 -0.964593 0
M  V30 963 C 100.449 -1.01239 -1.2338 0
M  V30 964 C 100.649 0.2769 -1.99588 0
M  V30 965 O 99.7047 0.992241 -2.32187 0
M  V30 966 C 101.018 -2.22937 -2.01791 0
M  V30 967 C 102.566 -2.27594 -2.14872 0
M  V30 968 C 103.041 -3.48921 -2.96678 0
M  V30 969 N 104.532 -3.49257 -3.04259 0
M  V30 970 C 105.267 -4.39795 -3.67924 0
M  V30 971 N 104.763 -5.40591 -4.33281 0
M  V30 972 N 106.556 -4.275 -3.64966 0
M  V30 973 H 98.7067 -2.0748 -0.454502 0
M  V30 974 H 100.97 -0.910647 -0.26349 0
M  V30 975 H 100.676 -3.16587 -1.53184 0
M  V30 976 H 100.55 -2.25306 -3.02518 0
M  V30 977 H 102.937 -1.34473 -2.6268 0
M  V30 978 H 103.018 -2.2925 -1.13482 0
M  V30 979 H 102.662 -4.42359 -2.49562 0
M  V30 980 H 102.592 -3.4451 -3.98272 0
M  V30 981 H 105.083 -2.76337 -2.57771 0
M  V30 982 H 105.396 -6.05904 -4.79687 0
M  V30 983 H 103.741 -5.44475 -4.3194 0
M  V30 984 H 106.932 -3.47987 -3.13086 0
M  V30 985 H 107.105 -4.98258 -4.14298 0
M  V30 986 N 100.511 1.16574 -1.06058 0
M  V30 987 C 101.474 2.19085 -0.673392 0
M  V30 988 C 102.474 1.5835 0.279648 0
M  V30 989 O 103.664 1.74088 0.0623488 0
M  V30 990 C 100.796 3.40899 0.00954234 0
M  V30 991 H 101.989 2.54853 -1.58081 0
M  V30 992 H 99.5418 1.30808 -0.855516 0
M  V30 993 H 100.277 3.10684 0.929826 0
M  V30 994 H 100.062 3.86233 -0.67573 0
M  V30 995 H 101.552 4.1675 0.266245 0
M  V30 996 N 101.989 0.842826 1.3317 0
M  V30 997 C 102.919 0.294028 2.31641 0
M  V30 998 C 103.9 -0.600401 1.59151 0
M  V30 999 O 105.085 -0.523124 1.87022 0
M  V30 1000 C 102.215 -0.528416 3.43257 0
M  V30 1001 C 101.169 0.27056 4.27144 0
M  V30 1002 C 100.495 -0.675881 5.30411 0
M  V30 1003 C 101.795 1.48981 5.00602 0
M  V30 1004 H 103.489 1.11681 2.77791 0
M  V30 1005 H 101.035 0.538478 1.33553 0
M  V30 1006 H 102.988 -0.922674 4.11175 0
M  V30 1007 H 101.712 -1.38445 2.95805 0
M  V30 1008 H 100.371 0.646427 3.60856 0
M  V30 1009 H 100.019 -1.52842 4.79216 0
M  V30 1010 H 99.7189 -0.145374 5.8742 0
M  V30 1011 H 101.243 -1.06757 6.01195 0
M  V30 1012 H 102.657 1.16849 5.61266 0
M  V30 1013 H 101.054 1.95739 5.6728 0
M  V30 1014 H 102.124 2.25746 4.29147 0
M  V30 1015 N 103.467 -1.45747 0.599634 0
M  V30 1016 C 104.883 -1.57424 0.26264 0
M  V30 1017 C 105.083 -1.59222 -1.23493 0
M  V30 1018 O 104.139 -1.51825 -2.01756 0
M  V30 1019 C 105.452 -2.86061 0.926795 0
M  V30 1020 C 107 -2.99722 0.901967 0
M  V30 1021 C 107.475 -4.31119 1.54598 0
M  V30 1022 N 108.966 -4.37858 1.5111 0
M  V30 1023 C 109.701 -5.3818 1.97863 0
M  V30 1024 N 109.197 -6.45083 2.52666 0
M  V30 1025 N 110.99 -5.29487 1.88679 0
M  V30 1026 H 103.141 -1.42823 1.57211 0
M  V30 1027 H 105.404 -0.68235 0.658105 0
M  V30 1028 H 105.11 -2.90605 1.98095 0
M  V30 1029 H 104.984 -3.74563 0.445238 0
M  V30 1030 H 107.371 -2.9475 -0.143617 0
M  V30 1031 H 107.452 -2.12652 1.42171 0
M  V30 1032 H 107.096 -4.36849 2.59085 0
M  V30 1033 H 107.026 -5.16992 1.00132 0
M  V30 1034 H 109.517 -3.61209 1.11068 0
M  V30 1035 H 109.83 -7.17869 2.86155 0
M  V30 1036 H 108.175 -6.45856 2.56701 0
M  V30 1037 H 111.366 -4.44877 1.4561 0
M  V30 1038 H 111.539 -6.07524 2.25429 0
M  V30 1039 N 104.945 -0.338344 -1.53925 0
M  V30 1040 C 105.855 0.529421 -2.28548 0
M  V30 1041 C 106.871 1.11645 -1.3346 0
M  V30 1042 O 108.047 1.13325 -1.66492 0
M  V30 1043 C 105.112 1.66713 -3.03987 0
M  V30 1044 C 104.173 1.11041 -4.14691 0
M  V30 1045 C 103.406 2.19389 -4.86522 0
M  V30 1046 O 103.629 3.40013 -4.57982 0
M  V30 1047 O 102.563 1.83976 -5.73094 0
M  V30 1048 H 106.389 -0.0770399 -3.03602 0
M  V30 1049 H 103.974 -0.103555 -1.49041 0
M  V30 1050 H 105.856 2.32918 -3.5118 0
M  V30 1051 H 104.531 2.25949 -2.31794 0
M  V30 1052 H 103.438 0.413024 -3.71813 0
M  V30 1053 H 104.771 0.562975 -4.8897 0
M  V30 1054 N 106.423 1.57458 -0.0668435 0
M  V30 1055 C 107.839 1.56947 0.289772 0
M  V30 1056 C 108.039 1.07584 1.70376 0
M  V30 1057 O 107.095 0.739486 2.41429 0
M  V30 1058 C 108.408 3.0052 0.103943 0
M  V30 1059 C 109.956 3.12517 0.173857 0
M  V30 1060 C 110.431 4.57997 0.0163682 0
M  V30 1061 N 111.922 4.63144 0.0721352 0
M  V30 1062 C 112.657 5.73394 -0.0253794 0
M  V30 1063 N 112.153 6.92576 -0.176133 0
M  V30 1064 N 113.946 5.62091 0.0313305 0
M  V30 1065 H 106.097 1.87863 -0.991027 0
M  V30 1066 H 108.36 0.86583 -0.38606 0
M  V30 1067 H 108.066 3.40729 -0.871572 0
M  V30 1068 H 107.94 3.67304 0.858366 0
M  V30 1069 H 110.327 2.72197 1.13985 0
M  V30 1070 H 110.408 2.48381 -0.611586 0
M  V30 1071 H 110.052 4.99005 -0.946374 0
M  V30 1072 H 109.982 5.20158 0.821153 0
M  V30 1073 H 112.473 3.77436 0.187263 0
M  V30 1074 H 112.786 7.72418 -0.242821 0
M  V30 1075 H 111.131 6.94678 -0.211429 0
M  V30 1076 H 114.322 4.67867 0.147773 0
M  V30 1077 H 114.495 6.47982 -0.048121 0
M  V30 1078 N 107.901 -0.206675 1.56239 0
M  V30 1079 C 109.15 -0.926964 1.79138 0
M  V30 1080 C 109.463 -1.84901 0.638043 0
M  V30 1081 O 110.669 -2.60906 0.751033 0
M  V30 1082 C 109.125 -1.6986 3.17294 0
M  V30 1083 C 108.733 -0.821956 4.40395 0
M  V30 1084 C 110.477 -2.40922 3.4951 0
M  V30 1085 C 108.384 -1.59179 5.69575 0
M  V30 1086 H 107.314 -0.349864 0.667915 0
M  V30 1087 H 109.965 -0.180487 1.8261 0
M  V30 1088 H 108.347 -2.48853 3.08039 0
M  V30 1089 H 109.521 -0.0715019 4.60745 0
M  V30 1090 H 107.836 -0.222741 4.15804 0
M  V30 1091 H 110.433 -2.99047 4.43255 0
M  V30 1092 H 110.776 -3.14542 2.72707 0
M  V30 1093 H 111.309 -1.68905 3.60161 0
M  V30 1094 H 108.048 -0.898589 6.49312 0
M  V30 1095 H 107.568 -2.31648 5.53262 0
M  V30 1096 H 109.247 -2.14862 6.10281 0
M  V30 1097 N 109.379 -1.50304 -0.473955 0
M  V30 1098 C 110.626 -1.6115 -1.22625 0
M  V30 1099 C 110.954 -0.310517 -1.92005 0
M  V30 1100 O 110.209 0.703419 -1.82621 0
M  V30 1101 C 110.508 -2.73938 -2.29549 0
M  V30 1102 C 110.174 -4.14519 -1.7744 0
M  V30 1103 C 108.836 -4.5277 -1.62949 0
M  V30 1104 C 111.188 -5.02392 -1.3875 0
M  V30 1105 C 108.516 -5.76639 -1.08187 0
M  V30 1106 C 110.868 -6.26805 -0.854309 0
M  V30 1107 C 109.532 -6.63861 -0.696011 0
M  V30 1108 H 108.802 -0.589691 -0.448715 0
M  V30 1109 H 111.449 -1.84228 -0.522705 0
M  V30 1110 H 109.754 -2.44937 -3.05799 0
M  V30 1111 H 111.451 -2.79534 -2.87509 0
M  V30 1112 H 108.041 -3.8434 -1.89685 0
M  V30 1113 H 112.225 -4.73474 -1.4878 0
M  V30 1114 H 107.481 -6.04027 -0.946666 0
M  V30 1115 H 111.655 -6.94258 -0.545843 0
M  V30 1116 H 109.282 -7.59722 -0.26952 0
M  V30 1117 N 110.857 0.726932 -1.39834 0
M  V30 1118 C 111.82 1.82269 -1.38962 0
M  V30 1119 C 112.82 1.58248 -0.285334 0
M  V30 1120 O 114.01 1.65499 -0.54366 0
M  V30 1121 C 111.142 3.20186 -1.17019 0
M  V30 1122 H 112.335 1.84443 -2.36476 0
M  V30 1123 H 109.888 0.931416 -1.25516 0
M  V30 1124 H 110.623 3.23669 -0.202204 0
M  V30 1125 H 110.408 3.3902 -1.96998 0
M  V30 1126 H 111.898 4.00235 -1.1917 0
M  V30 1127 N 112.336 1.25143 0.95797 0
M  V30 1128 C 113.284 1.05019 2.07542 0
M  V30 1129 C 114.278 -0.0178751 1.69391 0
M  V30 1130 O 115.484 0.137472 1.79474 0
M  V30 1131 H 111.859 0.32265 0.679265 0
M  V30 1132 H 113.83 1.99759 2.21673 0
M  V30 1133 C 112.579 0.682074 3.40944 0
M  V30 1134 H 111.902 1.49573 3.70767 0
M  V30 1135 H 113.342 0.580945 4.20001 0
M  V30 1136 C 111.801 -0.611608 3.31302 0
M  V30 1137 O 112.331 -1.65465 3.66038 0
M  V30 1138 N 110.537 -0.595982 2.84423 0
M  V30 1139 H 110.084 0.253192 2.56353 0
M  V30 1140 H 110.042 -1.46173 2.78354 0
M  V30 1141 N 113.814 -1.1601 1.06675 0
M  V30 1142 C 115.225 -1.68235 0.809565 0
M  V30 1143 C 115.576 -1.8454 -0.666303 0
M  V30 1144 O 114.701 -1.54374 -1.5165 0
M  V30 1145 C 115.296 -3.05585 1.46299 0
M  V30 1146 C 113.855 -3.54915 1.25349 0
M  V30 1147 C 113.002 -2.30804 1.53703 0
M  V30 1148 H 115.953 -1.00318 1.22971 0
M  V30 1149 H 115.974 -3.70174 0.880431 0
M  V30 1150 H 115.486 -2.93686 2.53713 0
M  V30 1151 H 113.587 -3.72067 0.199261 0
M  V30 1152 H 113.7 -4.36774 1.9689 0
M  V30 1153 H 112.064 -2.36007 0.957739 0
M  V30 1154 H 112.847 -2.21499 2.62284 0
M  V30 1155 N 115.292 -0.849877 -1.32721 0
M  V30 1156 C 116.202 -0.293791 -2.32753 0
M  V30 1157 C 117.218 0.585906 -1.63839 0
M  V30 1158 O 118.394 0.487413 -1.95413 0
M  V30 1159 C 115.459 0.512752 -3.42887 0
M  V30 1160 C 114.52 -0.39252 -4.27502 0
M  V30 1161 C 113.753 0.375625 -5.32377 0
M  V30 1162 O 113.976 1.60613 -5.4732 0
M  V30 1163 O 112.91 -0.256094 -6.01355 0
M  V30 1164 H 116.736 -1.12242 -2.82197 0
M  V30 1165 H 114.321 -0.612685 -1.36259 0
M  V30 1166 H 116.203 0.970704 -4.10067 0
M  V30 1167 H 114.878 1.31826 -2.95641 0
M  V30 1168 H 113.785 -0.898547 -3.63149 0
M  V30 1169 H 115.118 -1.16309 -4.7826 0
M  V30 1170 N 116.77 1.45427 -0.607355 0
M  V30 1171 C 117.68 2.34325 0.113463 0
M  V30 1172 C 118.696 1.51226 0.860617 0
M  V30 1173 O 119.872 1.84029 0.818255 0
M  V30 1174 C 116.937 3.28839 1.09844 0
M  V30 1175 C 115.998 4.27844 0.353271 0
M  V30 1176 C 115.231 5.17842 1.29133 0
M  V30 1177 O 115.454 5.11264 2.52913 0
M  V30 1178 O 114.388 5.96713 0.788523 0
M  V30 1179 H 118.214 2.97364 -0.617094 0
M  V30 1180 H 115.799 1.44807 -0.367619 0
M  V30 1181 H 117.681 3.8708 1.66575 0
M  V30 1182 H 116.356 2.68365 1.81003 0
M  V30 1183 H 115.263 3.7322 -0.256494 0
M  V30 1184 H 116.596 4.91173 -0.317822 0
M  V30 1185 N 118.248 0.346503 1.53744 0
M  V30 1186 C 119.195 -0.508914 2.25119 0
M  V30 1187 C 120.165 -1.09315 1.25058 0
M  V30 1188 O 121.35 -1.12921 1.53797 0
M  V30 1189 C 118.49 -1.65246 3.02965 0
M  V30 1190 C 117.603 -1.09525 4.17886 0
M  V30 1191 C 116.738 -2.20634 4.83212 0
M  V30 1192 C 115.777 -1.62279 5.90196 0
M  V30 1193 N 114.914 -2.67143 6.49291 0
M  V30 1194 H 119.754 0.106283 2.9781 0
M  V30 1195 H 117.291 0.0642227 1.4696 0
M  V30 1196 H 119.249 -2.32574 3.4636 0
M  V30 1197 H 117.879 -2.2386 2.32565 0
M  V30 1198 H 116.931 -0.312818 3.79112 0
M  V30 1199 H 118.243 -0.628444 4.94825 0
M  V30 1200 H 117.397 -2.95821 5.29693 0
M  V30 1201 H 116.136 -2.70659 4.05703 0
M  V30 1202 H 115.141 -0.855989 5.43096 0
M  V30 1203 H 116.366 -1.13102 6.69615 0
M  V30 1204 H 114.312 -3.16417 5.74645 0
M  V30 1205 H 114.229 -2.25093 7.21713 0
M  V30 1206 H 115.497 -3.4209 7.00425 0
M  V30 1207 N 119.726 -1.57421 0.075193 0
M  V30 1208 C 120.674 -2.14124 -0.908508 0
M  V30 1209 C 121.668 -1.07898 -1.30592 0
M  V30 1210 O 122.874 -1.26273 -1.28277 0
M  V30 1211 H 119.249 -0.684707 -0.310935 0
M  V30 1212 H 121.22 -2.95634 -0.405374 0
M  V30 1213 C 119.969 -2.72044 -2.16535 0
M  V30 1214 H 119.292 -3.53456 -1.86839 0
M  V30 1215 H 120.732 -3.15311 -2.83469 0
M  V30 1216 C 119.191 -1.66968 -2.92615 0
M  V30 1217 O 119.721 -1.0967 -3.86439 0
M  V30 1218 N 117.927 -1.37923 -2.55784 0
M  V30 1219 H 117.474 -1.84706 -1.79559 0
M  V30 1220 H 117.432 -0.67852 -3.06991 0
M  V30 1221 N 121.204 0.198386 -1.56346 0
M  V30 1222 C 122.45 0.916115 -1.81601 0
M  V30 1223 C 122.805 1.81025 -0.651744 0
M  V30 1224 O 122.098 1.88316 0.353229 0
M  V30 1225 C 122.292 1.77031 -3.10475 0
M  V30 1226 C 122.121 0.960365 -4.39326 0
M  V30 1227 C 120.891 0.646093 -5.01152 0
M  V30 1228 C 123.089 0.314628 -5.13337 0
M  V30 1229 N 121.071 -0.182828 -6.13628 0
M  V30 1230 C 122.442 -0.37664 -6.18855 0
M  V30 1231 C 124.497 0.230019 -4.97368 0
M  V30 1232 C 123.2 -1.14445 -7.10137 0
M  V30 1233 C 125.226 -0.524389 -5.89071 0
M  V30 1234 C 124.588 -1.20412 -6.94032 0
M  V30 1235 H 120.687 0.314732 -0.715868 0
M  V30 1236 H 123.271 0.185102 -1.93818 0
M  V30 1237 H 121.442 2.47295 -2.99499 0
M  V30 1238 H 123.174 2.42727 -3.2383 0
M  V30 1239 H 119.929 0.969724 -4.63566 0
M  V30 1240 H 120.353 -0.586802 -6.74452 0
M  V30 1241 H 124.995 0.741184 -4.16253 0
M  V30 1242 H 122.713 -1.66706 -7.90718 0
M  V30 1243 H 126.299 -0.591167 -5.78789 0
M  V30 1244 H 125.179 -1.77853 -7.63766 0
M  V30 1245 N 122.682 1.50554 0.465978 0
M  V30 1246 C 123.612 1.72722 1.57128 0
M  V30 1247 C 124.593 0.576294 1.6004 0
M  V30 1248 O 125.778 0.81598 1.76225 0
M  V30 1249 C 122.908 1.82605 2.95419 0
M  V30 1250 C 121.862 2.97835 3.07373 0
M  V30 1251 C 121.188 2.92867 4.47363 0
M  V30 1252 C 122.488 4.38265 2.84114 0
M  V30 1253 H 124.182 2.65267 1.38829 0
M  V30 1254 H 121.728 1.2765 0.666441 0
M  V30 1255 H 123.681 1.96698 3.72677 0
M  V30 1256 H 122.405 0.866858 3.14886 0
M  V30 1257 H 121.064 2.83401 2.3255 0
M  V30 1258 H 120.712 1.94783 4.63755 0
M  V30 1259 H 120.412 3.70227 4.56296 0
M  V30 1260 H 121.936 3.09015 5.26633 0
M  V30 1261 H 123.35 4.53198 3.51118 0
M  V30 1262 H 121.747 5.17115 3.04487 0
M  V30 1263 H 122.817 4.50281 1.7993 0
M  V30 1264 N 124.16 -0.719506 1.40217 0
M  V30 1265 C 125.108 -1.85493 1.40339 0
M  V30 1266 C 126.102 -1.66995 0.284415 0
M  V30 1267 O 127.308 -1.74148 0.455252 0
M  V30 1268 H 123.683 -0.610857 0.438586 0
M  V30 1269 H 125.654 -1.82506 2.36081 0
M  V30 1270 C 124.403 -3.23321 1.27901 0
M  V30 1271 H 123.726 -3.38159 2.1328 0
M  V30 1272 H 125.166 -4.02914 1.32045 0
M  V30 1273 C 123.625 -3.36898 -0.0111355 0
M  V30 1274 O 124.155 -3.89674 -0.975538 0
M  V30 1275 N 122.361 -2.90492 -0.0793393 0
M  V30 1276 H 121.908 -2.47731 0.706183 0
M  V30 1277 H 121.866 -2.99955 -0.942038 0
M  V30 1278 N 125.638 -1.25649 -0.95132 0
M  V30 1279 C 126.601 -1.06399 -2.03007 0
M  V30 1280 C 127.601 -0.0156794 -1.60792 0
M  V30 1281 O 128.791 -0.25817 -1.72276 0
M  V30 1282 C 125.923 -0.616184 -3.35285 0
M  V30 1283 H 127.116 -2.02164 -2.21517 0
M  V30 1284 H 124.669 -1.08103 -1.12887 0
M  V30 1285 H 125.404 0.343917 -3.22471 0
M  V30 1286 H 125.189 -1.37301 -3.67275 0
M  V30 1287 H 126.679 -0.503032 -4.14559 0
M  V30 1288 N 127.117 1.15442 -1.07289 0
M  V30 1289 C 128.047 2.22312 -0.714107 0
M  V30 1290 C 129.028 1.67467 0.298155 0
M  V30 1291 O 130.213 1.93445 0.171048 0
M  V30 1292 C 127.343 3.47124 -0.110448 0
M  V30 1293 C 126.297 4.14926 -1.04979 0
M  V30 1294 C 125.623 5.33807 -0.308924 0
M  V30 1295 C 126.923 4.64762 -2.38314 0
M  V30 1296 H 128.617 2.5258 -1.6076 0
M  V30 1297 H 126.163 1.21404 -0.77441 0
M  V30 1298 H 128.116 4.21124 0.152482 0
M  V30 1299 H 126.84 3.16187 0.81812 0
M  V30 1300 H 125.499 3.42866 -1.29764 0
M  V30 1301 H 125.147 4.99126 0.623084 0
M  V30 1302 H 124.847 5.80113 -0.935036 0
M  V30 1303 H 126.371 6.10576 -0.0537771 0
M  V30 1304 H 127.785 5.30292 -2.1786 0
M  V30 1305 H 126.182 5.21728 -2.96514 0
M  V30 1306 H 127.252 3.80434 -3.00663 0
M  V30 1307 N 128.595 0.856903 1.32268 0
M  V30 1308 C 129.525 0.31858 2.31316 0
M  V30 1309 C 130.506 -0.583487 1.59779 0
M  V30 1310 O 131.691 -0.503259 1.87566 0
M  V30 1311 C 128.821 -0.491979 3.43798 0
M  V30 1312 C 127.775 0.315849 4.26833 0
M  V30 1313 C 127.101 -0.619586 5.31098 0
M  V30 1314 C 128.401 1.54282 4.98993 0
M  V30 1315 H 130.095 1.14621 2.76591 0
M  V30 1316 H 127.641 0.552613 1.32974 0
M  V30 1317 H 129.594 -0.879012 4.1213 0
M  V30 1318 H 128.318 -1.35299 2.97257 0
M  V30 1319 H 126.977 0.684664 3.6015 0
M  V30 1320 H 126.625 -1.47751 4.8081 0
M  V30 1321 H 126.325 -0.0830621 5.87541 0
M  V30 1322 H 127.849 -1.00375 6.02293 0
M  V30 1323 H 129.263 1.22796 5.59995 0
M  V30 1324 H 127.66 2.01745 5.65172 0
M  V30 1325 H 128.73 2.30285 4.26728 0
M  V30 1326 N 130.073 -1.45103 0.615059 0
M  V30 1327 C 131.023 -2.27679 -0.120966 0
M  V30 1328 C 132.007 -1.3775 -0.831491 0
M  V30 1329 O 133.199 -1.61683 -0.720249 0
M  V30 1330 C 130.328 -3.24767 -1.1127 0
M  V30 1331 C 129.414 -4.22184 -0.402627 0
M  V30 1332 N 129.805 -5.02692 0.559884 0
M  V30 1333 C 128.103 -4.4125 -0.649202 0
M  V30 1334 C 128.804 -5.73421 0.977942 0
M  V30 1335 N 127.78 -5.42657 0.320104 0
M  V30 1336 H 131.582 -2.87325 0.618181 0
M  V30 1337 H 129.096 -1.56345 0.439304 0
M  V30 1338 H 131.093 -3.82666 -1.65446 0
M  V30 1339 H 129.753 -2.66682 -1.85232 0
M  V30 1340 H 130.764 -5.09354 0.936976 0
M  V30 1341 H 127.441 -3.9428 -1.37293 0
M  V30 1342 H 128.831 -6.48107 1.77222 0
M  V30 1343 N 131.551 -0.354651 -1.53558 0
M  V30 1344 C 132.962 0.126902 -1.86268 0
M  V30 1345 C 133.313 1.49075 -1.27558 0
M  V30 1346 O 132.438 2.08105 -0.5934 0
M  V30 1347 C 133.033 0.237046 -3.3797 0
M  V30 1348 C 131.592 0.662842 -3.70518 0
M  V30 1349 C 130.739 -0.196652 -2.76602 0
M  V30 1350 H 133.69 -0.573849 -1.47962 0
M  V30 1351 H 133.711 1.06259 -3.65362 0
M  V30 1352 H 133.223 -0.755725 -3.80671 0
M  V30 1353 H 131.324 1.66424 -3.33367 0
M  V30 1354 H 131.437 0.445034 -4.77029 0
M  V30 1355 H 129.801 0.332763 -2.52517 0
M  V30 1356 H 130.584 -1.18676 -3.22135 0
M  V30 1357 N 133.029 1.57378 -0.0835403 0
M  V30 1358 C 133.959 2.1641 0.87686 0
M  V30 1359 C 134.94 1.09429 1.30228 0
M  V30 1360 O 136.125 1.37516 1.37124 0
M  V30 1361 C 133.255 2.73517 2.14022 0
M  V30 1362 C 132.209 3.85769 1.85381 0
M  V30 1363 C 131.535 4.29529 3.18448 0
M  V30 1364 C 132.835 5.09486 1.14984 0
M  V30 1365 H 134.529 2.96914 0.385059 0
M  V30 1366 H 132.075 1.42823 0.18377 0
M  V30 1367 H 134.028 3.13463 2.81636 0
M  V30 1368 H 132.752 1.90252 2.65465 0
M  V30 1369 H 131.411 3.46345 1.20169 0
M  V30 1370 H 131.059 3.43169 3.67755 0
M  V30 1371 H 130.759 5.05204 3.00071 0
M  V30 1372 H 132.283 4.72099 3.8724 0
M  V30 1373 H 133.697 5.46674 1.72687 0
M  V30 1374 H 132.094 5.90515 1.06826 0
M  V30 1375 H 133.164 4.84724 0.130749 0
M  V30 1376 N 134.507 -0.190092 1.56449 0
M  V30 1377 C 135.756 -0.907912 1.80111 0
M  V30 1378 C 136.069 -1.84214 0.657619 0
M  V30 1379 O 137.275 -2.60094 0.778663 0
M  V30 1380 C 135.731 -1.66485 3.19078 0
M  V30 1381 C 135.339 -0.7752 4.41242 0
M  V30 1382 C 137.083 -2.37201 3.52045 0
M  V30 1383 C 134.99 -1.53129 5.71231 0
M  V30 1384 H 133.92 -0.34276 0.671589 0
M  V30 1385 H 136.571 -0.161109 1.82791 0
M  V30 1386 H 134.953 -2.45572 3.10661 0
M  V30 1387 H 136.127 -0.0226298 4.60794 0
M  V30 1388 H 134.442 -0.178627 4.16017 0
M  V30 1389 H 137.039 -2.94329 4.46402 0
M  V30 1390 H 137.382 -3.11632 2.76028 0
M  V30 1391 H 137.915 -1.65075 3.61932 0
M  V30 1392 H 134.654 -0.82967 6.50228 0
M  V30 1393 H 134.174 -2.25767 5.55688 0
M  V30 1394 H 135.853 -2.08377 6.12526 0
M  V30 1395 N 135.985 -1.50799 -0.457987 0
M  V30 1396 C 136.917 -1.66786 -1.57211 0
M  V30 1397 C 137.93 -0.548962 -1.53265 0
M  V30 1398 O 139.119 -0.8226 -1.58416 0
M  V30 1399 C 136.219 -1.64834 -2.96113 0
M  V30 1400 C 135.392 -2.92971 -3.24787 0
M  V30 1401 C 134.451 -2.83485 -4.43309 0
M  V30 1402 O 133.477 -3.5744 -4.42973 0
M  V30 1403 N 134.679 -1.97929 -5.45714 0
M  V30 1404 H 137.444 -2.62889 -1.43909 0
M  V30 1405 H 135.005 -1.48427 -0.646617 0
M  V30 1406 H 136.997 -1.56084 -3.7339 0
M  V30 1407 H 135.567 -0.764118 -3.03117 0
M  V30 1408 H 134.787 -3.15749 -2.36 0
M  V30 1409 H 136.075 -3.77834 -3.40762 0
M  V30 1410 H 135.473 -1.37182 -5.48815 0
M  V30 1411 H 134.03 -1.95073 -6.21924 0
M  V30 1412 N 137.463 0.71206 -1.40597 0
M  V30 1413 C 138.395 1.83704 -1.37061 0
M  V30 1414 C 139.408 1.60453 -0.275426 0
M  V30 1415 O 140.597 1.70262 -0.53602 0
M  V30 1416 C 137.697 3.20172 -1.11099 0
M  V30 1417 C 136.87 3.7059 -2.3234 0
M  V30 1418 C 135.929 4.85681 -2.02485 0
M  V30 1419 O 134.955 4.9815 -2.75382 0
M  V30 1420 N 136.157 5.71735 -1.00497 0
M  V30 1421 H 138.922 1.87235 -2.34016 0
M  V30 1422 H 136.483 0.893739 -1.34996 0
M  V30 1423 H 138.475 3.94768 -0.891064 0
M  V30 1424 H 137.045 3.11767 -0.227989 0
M  V30 1425 H 136.265 2.87085 -2.7014 0
M  V30 1426 H 137.553 4.01011 -3.13157 0
M  V30 1427 H 136.951 5.64275 -0.401298 0
M  V30 1428 H 135.508 6.463 -0.844942 0
M  V30 1429 N 138.941 1.26152 0.944643 0
M  V30 1430 C 139.851 1.09176 2.07648 0
M  V30 1431 C 140.867 0.0261935 1.7398 0
M  V30 1432 O 142.043 0.229208 2.00091 0
M  V30 1433 C 139.108 0.722915 3.39079 0
M  V30 1434 C 138.169 1.86752 3.86552 0
M  V30 1435 C 137.402 1.51617 5.11711 0
M  V30 1436 O 137.625 0.416331 5.68879 0
M  V30 1437 O 136.559 2.34975 5.54139 0
M  V30 1438 H 140.385 2.0412 2.24875 0
M  V30 1439 H 137.97 1.05182 1.061 0
M  V30 1440 H 139.852 0.529787 4.18056 0
M  V30 1441 H 138.527 -0.197159 3.23099 0
M  V30 1442 H 137.434 2.11558 3.08535 0
M  V30 1443 H 138.767 2.76719 4.07047 0
M  V30 1444 N 140.419 -1.14872 1.07899 0
M  V30 1445 C 141.647 -1.89661 0.82683 0
M  V30 1446 C 142.062 -1.78312 -0.620519 0
M  V30 1447 O 141.419 -1.13888 -1.42604 0
M  V30 1448 C 141.47 -3.39817 1.23316 0
M  V30 1449 O 141.191 -3.50845 2.62372 0
M  V30 1450 C 142.692 -4.31615 1.0111 0
M  V30 1451 H 139.912 -0.60092 0.298557 0
M  V30 1452 H 142.456 -1.4551 1.43691 0
M  V30 1453 H 140.611 -3.8161 0.667286 0
M  V30 1454 H 141.025 -4.44076 2.79101 0
M  V30 1455 H 142.499 -5.35367 1.34486 0
M  V30 1456 H 142.976 -4.39169 -0.0522168 0
M  V30 1457 H 143.582 -3.95572 1.56215 0
M  V30 1458 N 141.898 -0.863906 -1.31812 0
M  V30 1459 C 142.83 -0.272485 -2.27575 0
M  V30 1460 C 143.843 0.56104 -1.52827 0
M  V30 1461 O 145.032 0.384021 -1.7432 0
M  V30 1462 C 142.132 0.63283 -3.32939 0
M  V30 1463 C 141.305 -0.166902 -4.37081 0
M  V30 1464 C 140.364 0.665608 -5.21973 0
M  V30 1465 O 139.39 0.0958091 -5.69119 0
M  V30 1466 N 140.592 1.9787 -5.45736 0
M  V30 1467 H 143.357 -1.0954 -2.78964 0
M  V30 1468 H 140.918 -0.724791 -1.4477 0
M  V30 1469 H 142.91 1.19532 -3.86645 0
M  V30 1470 H 141.48 1.35642 -2.81638 0
M  V30 1471 H 140.7 -0.910838 -3.83533 0
M  V30 1472 H 141.988 -0.715874 -5.03739 0
M  V30 1473 H 141.386 2.46484 -5.09178 0
M  V30 1474 H 139.943 2.48911 -6.024 0
M  V30 1475 N 143.376 1.44774 -0.622745 0
M  V30 1476 C 144.326 2.2774 0.108889 0
M  V30 1477 C 145.31 1.38189 0.824175 0
M  V30 1478 O 146.502 1.62063 0.711664 0
M  V30 1479 C 143.631 3.25353 1.09546 0
M  V30 1480 C 142.717 4.22392 0.380232 0
M  V30 1481 N 143.108 5.02388 -0.586535 0
M  V30 1482 C 141.406 4.41588 0.625792 0
M  V30 1483 C 142.107 5.72894 -1.00834 0
M  V30 1484 N 141.083 5.42479 -0.348878 0
M  V30 1485 H 144.885 2.86993 -0.63341 0
M  V30 1486 H 142.399 1.5611 -0.447589 0
M  V30 1487 H 144.396 3.83538 1.63414 0
M  V30 1488 H 143.056 2.6766 1.83815 0
M  V30 1489 H 144.067 5.0885 -0.963975 0
M  V30 1490 H 140.744 3.95003 1.352 0
M  V30 1491 H 142.134 6.47158 -1.80656 0
M  V30 1492 N 144.854 0.36279 1.53368 0
M  V30 1493 C 145.786 -0.519668 2.23231 0
M  V30 1494 C 146.799 -1.04844 1.24546 0
M  V30 1495 O 147.988 -0.955296 1.50786 0
M  V30 1496 C 145.088 -1.72995 2.9142 0
M  V30 1497 C 144.261 -1.33316 4.16588 0
M  V30 1498 C 143.32 -2.40521 4.68013 0
M  V30 1499 O 142.346 -2.03027 5.3176 0
M  V30 1500 N 143.548 -3.72065 4.45587 0
M  V30 1501 H 146.313 0.078751 2.99597 0
M  V30 1502 H 143.874 0.187833 1.60807 0
M  V30 1503 H 145.866 -2.44184 3.22733 0
M  V30 1504 H 144.436 -2.2353 2.18525 0
M  V30 1505 H 143.656 -0.451236 3.91609 0
M  V30 1506 H 144.944 -1.04432 4.97967 0
M  V30 1507 H 144.342 -4.05304 3.94646 0
M  V30 1508 H 142.899 -4.39366 4.81457 0
M  V30 1509 N 146.332 -1.57332 0.0918853 0
M  V30 1510 C 147.581 -1.93412 -0.572249 0
M  V30 1511 C 147.894 -0.975515 -1.69538 0
M  V30 1512 O 149.1 -1.22991 -2.42045 0
M  V30 1513 C 147.556 -3.43648 -1.0693 0
M  V30 1514 C 147.164 -4.47994 0.0239049 0
M  V30 1515 C 148.908 -3.88695 -1.70635 0
M  V30 1516 C 146.815 -5.89381 -0.488319 0
M  V30 1517 H 145.745 -0.721939 -0.217532 0
M  V30 1518 H 148.396 -1.82735 0.167369 0
M  V30 1519 H 146.778 -3.49466 -1.8625 0
M  V30 1520 H 147.952 -4.53815 0.799277 0
M  V30 1521 H 146.267 -4.12536 0.565946 0
M  V30 1522 H 148.864 -4.91725 -2.10025 0
M  V30 1523 H 149.207 -3.27166 -2.57426 0
M  V30 1524 H 149.74 -3.85564 -0.979023 0
M  V30 1525 H 146.479 -6.54602 0.342906 0
M  V30 1526 H 145.999 -5.87037 -1.23077 0
M  V30 1527 H 147.678 -6.39863 -0.958317 0
M  V30 1528 N 147.81 0.181792 -1.56548 0
M  V30 1529 C 148.742 1.24956 -1.92142 0
M  V30 1530 C 149.755 1.41022 -0.813422 0
M  V30 1531 O 150.944 1.41212 -1.09186 0
M  V30 1532 C 148.044 2.61981 -2.14987 0
M  V30 1533 C 147.217 2.6735 -3.46183 0
M  V30 1534 C 146.276 3.85664 -3.5798 0
M  V30 1535 O 145.302 3.72148 -4.30691 0
M  V30 1536 N 146.504 5.01683 -2.92053 0
M  V30 1537 H 149.269 0.947329 -2.84334 0
M  V30 1538 H 146.83 0.371629 -1.57577 0
M  V30 1539 H 148.822 3.3958 -2.20154 0
M  V30 1540 H 147.392 2.84637 -1.2923 0
M  V30 1541 H 146.612 1.75925 -3.52766 0
M  V30 1542 H 147.9 2.67939 -4.32534 0
M  V30 1543 H 147.298 5.15564 -2.32832 0
M  V30 1544 H 145.855 5.77181 -3.0283 0
M  V30 1545 N 149.288 1.51039 0.449983 0
M  V30 1546 C 150.22 1.67617 1.56324 0
M  V30 1547 C 151.233 0.557083 1.52972 0
M  V30 1548 O 152.422 0.830989 1.57977 0
M  V30 1549 C 149.522 1.66402 2.95235 0
M  V30 1550 C 148.695 2.9469 3.23229 0
M  V30 1551 C 147.754 2.85832 4.41799 0
M  V30 1552 O 146.78 3.59785 4.41071 0
M  V30 1553 N 147.982 2.00821 5.44657 0
M  V30 1554 H 150.747 2.63648 1.42512 0
M  V30 1555 H 148.308 1.48767 0.638737 0
M  V30 1556 H 150.3 1.58062 3.72557 0
M  V30 1557 H 148.87 0.780182 3.02708 0
M  V30 1558 H 148.09 3.16996 2.34323 0
M  V30 1559 H 149.378 3.79636 3.38754 0
M  V30 1560 H 148.776 1.40091 5.48079 0
M  V30 1561 H 147.333 1.98368 6.20881 0
M  V30 1562 N 150.766 -0.704594 1.40972 0
M  V30 1563 C 151.729 -1.80035 1.41845 0
M  V30 1564 C 152.729 -1.57774 0.310474 0
M  V30 1565 O 153.919 -1.64613 0.56992 0
M  V30 1566 C 151.051 -3.18284 1.22098 0
M  V30 1567 H 152.244 -1.80658 2.3938 0
M  V30 1568 H 149.797 -0.911329 1.26982 0
M  V30 1569 H 150.532 -3.23306 0.253672 0
M  V30 1570 H 150.317 -3.35843 2.02366 0
M  V30 1571 H 151.807 -3.98289 1.25522 0
M  V30 1572 N 152.244 -1.26651 -0.937939 0
M  V30 1573 C 153.472 -1.15173 -1.7188 0
M  V30 1574 C 153.887 0.292668 -1.86518 0
M  V30 1575 O 153.244 1.20014 -1.37488 0
M  V30 1576 C 153.295 -1.81925 -3.12387 0
M  V30 1577 O 153.016 -3.2072 -2.98446 0
M  V30 1578 C 154.517 -1.76442 -4.06673 0
M  V30 1579 H 151.737 -0.400911 -0.538063 0
M  V30 1580 H 154.281 -1.67332 -1.1756 0
M  V30 1581 H 152.436 -1.33696 -3.63599 0
M  V30 1582 H 152.85 -3.53802 -3.872 0
M  V30 1583 H 154.324 -2.27781 -5.02812 0
M  V30 1584 H 154.801 -0.731608 -4.33064 0
M  V30 1585 H 155.407 -2.24238 -3.61382 0
M  V30 1586 N 153.722 1.14298 -1.08507 0
M  V30 1587 C 154.947 1.8976 -0.837001 0
M  V30 1588 C 155.372 1.78097 0.605228 0
M  V30 1589 O 154.73 1.12188 1.4242 0
M  V30 1590 C 154.778 3.37685 -1.26495 0
M  V30 1591 O 153.882 4.10281 -0.417514 0
M  V30 1592 H 153.223 0.590365 -0.303917 0
M  V30 1593 H 155.753 1.44672 -1.44676 0
M  V30 1594 H 155.763 3.88501 -1.24625 0
M  V30 1595 H 154.438 3.45492 -2.31534 0
M  V30 1596 H 153.015 3.69536 -0.499722 0
M  V30 1597 N 155.201 0.870884 1.31352 0
M  V30 1598 C 156.612 0.534714 1.78879 0
M  V30 1599 C 156.963 -0.948423 1.71754 0
M  V30 1600 O 156.088 -1.74055 1.28584 0
M  V30 1601 C 156.683 0.963839 3.24801 0
M  V30 1602 C 155.242 0.679311 3.70219 0
M  V30 1603 C 154.389 1.15465 2.52117 0
M  V30 1604 H 157.34 1.05651 1.18421 0
M  V30 1605 H 157.361 0.286892 3.79417 0
M  V30 1606 H 156.873 2.04332 3.29955 0
M  V30 1607 H 154.974 -0.388769 3.70566 0
M  V30 1608 H 155.087 1.25698 4.62317 0
M  V30 1609 H 153.451 0.574383 2.48139 0
M  V30 1610 H 154.234 2.24157 2.60016 0
M  V30 1611 N 156.679 -1.44442 0.630414 0
M  V30 1612 C 157.909 -2.06115 0.141465 0
M  V30 1613 C 158.317 -1.47179 -1.1889 0
M  V30 1614 O 157.66 -0.588873 -1.74006 0
M  V30 1615 C 157.722 -3.59467 -0.0484355 0
M  V30 1616 C 157.386 -4.40864 1.20366 0
M  V30 1617 C 158.383 -4.74391 2.12719 0
M  V30 1618 C 156.068 -4.8125 1.43887 0
M  V30 1619 C 158.062 -5.47186 3.26904 0
M  V30 1620 C 155.749 -5.53795 2.5837 0
M  V30 1621 C 156.747 -5.86682 3.49705 0
M  V30 1622 O 156.435 -6.57749 4.62191 0
M  V30 1623 H 156.167 -0.671648 0.0765792 0
M  V30 1624 H 158.721 -1.86312 0.864695 0
M  V30 1625 H 156.951 -3.77758 -0.826803 0
M  V30 1626 H 158.64 -4.02909 -0.491849 0
M  V30 1627 H 159.406 -4.43728 1.95781 0
M  V30 1628 H 155.285 -4.55073 0.736853 0
M  V30 1629 H 158.829 -5.72773 3.98217 0
M  V30 1630 H 154.726 -5.83872 2.75251 0
M  V30 1631 H 155.494 -6.76217 4.61164 0
M  V30 1632 N 158.157 -0.370918 -1.53173 0
M  V30 1633 C 159.403 0.217423 -2.01631 0
M  V30 1634 C 159.736 1.47983 -1.25756 0
M  V30 1635 O 159.011 1.91274 -0.352764 0
M  V30 1636 C 159.294 0.503982 -3.56556 0
M  V30 1637 C 159.147 -0.77243 -4.43118 0
M  V30 1638 C 160.466 1.30234 -4.20389 0
M  V30 1639 H 157.585 0.0775486 -0.732909 0
M  V30 1640 H 160.227 -0.496863 -1.83388 0
M  V30 1641 H 158.377 1.11248 -3.72231 0
M  V30 1642 H 160.049 -1.4098 -4.39229 0
M  V30 1643 H 158.292 -1.39167 -4.10871 0
M  V30 1644 H 158.963 -0.526815 -5.4948 0
M  V30 1645 H 161.439 0.787546 -4.08579 0
M  V30 1646 H 160.315 1.47158 -5.28806 0
M  V30 1647 H 160.576 2.31237 -3.76805 0
M  V30 1648 N 159.635 1.57281 -0.100228 0
M  V30 1649 C 160.565 2.17328 0.853857 0
M  V30 1650 C 161.546 1.10804 1.2906 0
M  V30 1651 O 162.731 1.38963 1.35657 0
M  V30 1652 C 159.861 2.75772 2.11109 0
M  V30 1653 C 158.815 3.87713 1.81279 0
M  V30 1654 C 158.141 4.32882 3.13874 0
M  V30 1655 C 159.441 5.10677 1.09574 0
M  V30 1656 H 161.135 2.97305 0.353545 0
M  V30 1657 H 158.681 1.43009 0.168612 0
M  V30 1658 H 160.634 3.16433 2.78296 0
M  V30 1659 H 159.358 1.93057 2.63432 0
M  V30 1660 H 158.017 3.476 1.16489 0
M  V30 1661 H 157.665 3.47051 3.64095 0
M  V30 1662 H 157.365 5.08358 2.94696 0
M  V30 1663 H 158.889 4.7618 3.82211 0
M  V30 1664 H 160.303 5.48474 1.66879 0
M  V30 1665 H 158.7 5.91615 1.00557 0
M  V30 1666 H 159.77 4.84835 0.0793299 0
M  V30 1667 N 161.113 -0.173488 1.56642 0
M  V30 1668 C 162.359 -0.887108 1.83035 0
M  V30 1669 C 162.714 -1.79965 0.680461 0
M  V30 1670 O 162.007 -1.88854 -0.323225 0
M  V30 1671 C 162.201 -1.72069 3.13252 0
M  V30 1672 C 162.03 -0.89035 4.40798 0
M  V30 1673 C 160.8 -0.566282 5.02117 0
M  V30 1674 C 162.998 -0.232921 5.13772 0
M  V30 1675 N 160.98 0.280427 6.13259 0
M  V30 1676 C 162.351 0.475046 6.18177 0
M  V30 1677 C 164.406 -0.150863 4.97671 0
M  V30 1678 C 163.109 1.25729 7.08227 0
M  V30 1679 C 165.135 0.618039 5.88162 0
M  V30 1680 C 164.497 1.31438 6.92029 0
M  V30 1681 H 160.596 -0.303303 0.720785 0
M  V30 1682 H 163.18 -0.154244 1.94088 0
M  V30 1683 H 161.351 -2.42499 3.03395 0
M  V30 1684 H 163.083 -2.37545 3.2765 0
M  V30 1685 H 159.838 -0.895852 4.6505 0
M  V30 1686 H 160.262 0.694027 6.73433 0
M  V30 1687 H 164.904 -0.674868 4.17379 0
M  V30 1688 H 162.622 1.79265 7.87966 0
M  V30 1689 H 166.208 0.683173 5.77775 0
M  V30 1690 H 165.088 1.89981 7.6084 0
M  V30 1691 N 162.591 -1.51276 -0.441967 0
M  V30 1692 C 163.837 -1.63958 -1.19355 0
M  V30 1693 C 164.17 -0.352543 -1.90973 0
M  V30 1694 O 163.445 0.647627 -1.83401 0
M  V30 1695 C 163.728 -2.83979 -2.21422 0
M  V30 1696 C 163.581 -4.22646 -1.53918 0
M  V30 1697 C 164.9 -2.99521 -3.22451 0
M  V30 1698 H 162.019 -0.596709 -0.432559 0
M  V30 1699 H 164.661 -1.83748 -0.483398 0
M  V30 1700 H 162.811 -2.67237 -2.81987 0
M  V30 1701 H 164.483 -4.51045 -0.967256 0
M  V30 1702 H 162.726 -4.25558 -0.841615 0
M  V30 1703 H 163.397 -5.02609 -2.28229 0
M  V30 1704 H 165.873 -3.14944 -2.71937 0
M  V30 1705 H 164.749 -3.85072 -3.91166 0
M  V30 1706 H 165.01 -2.11391 -3.88287 0
M  V30 1707 N 164.069 0.697108 -1.41344 0
M  V30 1708 C 165.315 1.4593 -1.40827 0
M  V30 1709 C 165.648 1.94193 -0.0167098 0
M  V30 1710 O 164.923 1.69425 0.955263 0
M  V30 1711 C 165.206 2.67229 -2.41373 0
M  V30 1712 C 165.059 2.24741 -3.8963 0
M  V30 1713 C 166.378 3.69423 -2.39196 0
M  V30 1714 H 163.497 0.529303 -0.512842 0
M  V30 1715 H 166.139 0.794112 -1.72609 0
M  V30 1716 H 164.289 3.23982 -2.14401 0
M  V30 1717 H 165.961 1.73327 -4.27499 0
M  V30 1718 H 164.204 1.56542 -4.0457 0
M  V30 1719 H 164.875 3.1177 -4.55525 0
M  V30 1720 H 167.351 3.2234 -2.63128 0
M  V30 1721 H 166.227 4.51907 -3.11563 0
M  V30 1722 H 166.488 4.19012 -1.41001 0
M  V30 1723 N 165.547 1.27147 0.931209 0
M  V30 1724 C 166.958 1.12044 1.49342 0
M  V30 1725 C 167.309 -0.295795 1.93957 0
M  V30 1726 O 166.434 -1.18835 1.80852 0
M  V30 1727 C 167.029 2.02781 2.71414 0
M  V30 1728 C 165.588 1.91794 3.2387 0
M  V30 1729 C 164.735 1.95543 1.96617 0
M  V30 1730 H 167.686 1.40091 0.745672 0
M  V30 1731 H 167.707 1.58156 3.46074 0
M  V30 1732 H 167.219 3.05848 2.38911 0
M  V30 1733 H 165.32 0.916992 3.6114 0
M  V30 1734 H 165.433 2.77852 3.90302 0
M  V30 1735 H 163.797 1.39722 2.12955 0
M  V30 1736 H 164.58 3.00259 1.66432 0
M  V30 1737 N 167.025 -1.13721 1.09112 0
M  V30 1738 C 167.955 -2.21148 0.749385 0
M  V30 1739 C 168.936 -1.6792 -0.271475 0
M  V30 1740 O 170.121 -1.93693 -0.140251 0
M  V30 1741 C 167.251 -3.46905 0.165659 0
M  V30 1742 C 166.205 -4.13203 1.11567 0
M  V30 1743 C 165.531 -5.33248 0.393809 0
M  V30 1744 C 166.831 -4.60912 2.45678 0
M  V30 1745 H 168.525 -2.4999 1.64758 0
M  V30 1746 H 166.071 -1.20156 0.793626 0
M  V30 1747 H 168.024 -4.21313 -0.085466 0
M  V30 1748 H 166.748 -3.17449 -0.767714 0
M  V30 1749 H 165.407 -3.40758 1.35202 0
M  V30 1750 H 165.055 -5.00054 -0.543599 0
M  V30 1751 H 164.755 -5.78552 1.02721 0
M  V30 1752 H 166.279 -6.10413 0.150908 0
M  V30 1753 H 167.693 -5.26759 2.26269 0
M  V30 1754 H 166.09 -5.16944 3.04776 0
M  V30 1755 H 167.16 -3.75603 3.06677 0
M  V30 1756 N 168.503 -0.877838 -1.30888 0
M  V30 1757 C 169.433 -0.35534 -2.3078 0
M  V30 1758 C 170.414 0.557994 -1.60687 0
M  V30 1759 O 171.599 0.473355 -1.88343 0
M  V30 1760 C 168.729 0.437221 -3.44537 0
M  V30 1761 C 167.683 -0.383715 -4.26276 0
M  V30 1762 C 167.009 0.535014 -5.32017 0
M  V30 1763 C 168.309 -1.62201 -4.96476 0
M  V30 1764 H 170.003 -1.19007 -2.74732 0
M  V30 1765 H 167.549 -0.573698 -1.32078 0
M  V30 1766 H 169.502 0.813334 -4.13477 0
M  V30 1767 H 168.226 1.30553 -2.99372 0
M  V30 1768 H 166.885 -0.741874 -3.59015 0
M  V30 1769 H 166.533 1.40083 -4.831 0
M  V30 1770 H 166.233 -0.0104211 -5.87599 0
M  V30 1771 H 167.757 0.907799 -6.03814 0
M  V30 1772 H 169.171 -1.31689 -5.5797 0
M  V30 1773 H 167.568 -2.10711 -5.61891 0
M  V30 1774 H 168.638 -2.37044 -4.23011 0
M  V30 1775 N 169.982 1.44106 -0.638065 0
M  V30 1776 C 171.228 2.02277 -0.145546 0
M  V30 1777 C 171.561 1.50125 1.23191 0
M  V30 1778 O 170.836 0.688133 1.8192 0
M  V30 1779 C 171.119 3.59829 -0.139791 0
M  V30 1780 C 170.972 4.22247 -1.55008 0
M  V30 1781 C 172.291 4.36873 0.531966 0
M  V30 1782 H 169.41 0.734992 -0.0543632 0
M  V30 1783 H 172.052 1.71592 -0.815863 0
M  V30 1784 H 170.202 3.86102 0.431007 0
M  V30 1785 H 171.874 4.07057 -2.1703 0
M  V30 1786 H 170.117 3.79476 -2.10191 0
M  V30 1787 H 170.788 5.31284 -1.49804 0
M  V30 1788 H 173.264 4.16074 0.0464781 0
M  V30 1789 H 172.14 5.4657 0.505206 0
M  V30 1790 H 172.401 4.11995 1.60352 0
M  V30 1791 N 171.46 0.379036 1.52974 0
M  V30 1792 C 172.37 -0.468639 2.29872 0
M  V30 1793 C 173.386 -1.08067 1.36373 0
M  V30 1794 O 174.562 -1.08871 1.69438 0
M  V30 1795 C 171.627 -1.58594 3.083 0
M  V30 1796 C 170.688 -1.00007 4.17489 0
M  V30 1797 C 169.921 -2.06413 4.92168 0
M  V30 1798 O 170.144 -3.27751 4.66835 0
M  V30 1799 O 169.078 -1.68717 5.7777 0
M  V30 1800 H 172.904 0.157508 3.03291 0
M  V30 1801 H 170.489 0.143035 1.48714 0
M  V30 1802 H 172.371 -2.23525 3.57232 0
M  V30 1803 H 171.046 -2.19724 2.37703 0
M  V30 1804 H 169.953 -0.314299 3.72777 0
M  V30 1805 H 171.286 -0.433135 4.90291 0
M  V30 1806 N 172.938 -1.57226 0.108567 0
M  V30 1807 C 173.886 -2.16002 -0.862885 0
M  V30 1808 C 174.88 -1.10644 -1.28274 0
M  V30 1809 O 176.086 -1.28966 -1.2557 0
M  V30 1810 H 172.461 -0.691148 -0.296342 0
M  V30 1811 H 174.432 -2.96427 -0.342575 0
M  V30 1812 C 173.181 -2.76576 -2.10716 0
M  V30 1813 H 172.504 -3.5734 -1.793 0
M  V30 1814 H 173.944 -3.21253 -2.76717 0
M  V30 1815 C 172.403 -1.73137 -2.89007 0
M  V30 1816 O 172.933 -1.17842 -3.84026 0
M  V30 1817 N 171.139 -1.43317 -2.52801 0
M  V30 1818 H 170.686 -1.88473 -1.75601 0
M  V30 1819 H 170.644 -0.743485 -3.05483 0
M  V30 1820 N 174.416 0.165178 -1.56732 0
M  V30 1821 C 175.641 0.900253 -1.86843 0
M  V30 1822 C 176.066 1.74766 -0.695596 0
M  V30 1823 O 175.424 1.77786 0.35522 0
M  V30 1824 C 175.472 1.74777 -3.15413 0
M  V30 1825 O 174.576 2.85007 -2.98068 0
M  V30 1826 H 173.917 0.251832 -0.614391 0
M  V30 1827 H 176.447 0.161468 -2.03962 0
M  V30 1828 H 176.457 2.14646 -3.46974 0
M  V30 1829 H 175.132 1.12537 -4.00385 0
M  V30 1830 H 173.709 2.48676 -2.77875 0
M  V30 1831 N 175.894 1.51508 0.433938 0
M  V30 1832 C 176.824 1.76016 1.53429 0
M  V30 1833 C 177.805 0.610112 1.58782 0
M  V30 1834 O 178.99 0.853177 1.74455 0
M  V30 1835 C 176.12 1.88831 2.9148 0
M  V30 1836 C 175.074 3.04288 3.00987 0
M  V30 1837 C 174.4 3.0229 4.4105 0
M  V30 1838 C 175.7 4.44193 2.74754 0
M  V30 1839 H 177.394 2.68152 1.33171 0
M  V30 1840 H 174.94 1.29035 0.639214 0
M  V30 1841 H 176.893 2.04559 3.6842 0
M  V30 1842 H 175.617 0.933455 3.12976 0
M  V30 1843 H 174.276 2.8827 2.26486 0
M  V30 1844 H 173.924 2.04576 4.59519 0
M  V30 1845 H 173.624 3.79822 4.4834 0
M  V30 1846 H 175.148 3.20116 5.1996 0
M  V30 1847 H 176.562 4.60544 3.41426 0
M  V30 1848 H 174.959 5.23457 2.9345 0
M  V30 1849 H 176.029 4.53996 1.70339 0
M  V30 1850 N 177.372 -0.689602 1.41712 0
M  V30 1851 C 178.602 -1.47613 1.44548 0
M  V30 1852 C 179.01 -1.89132 0.0509034 0
M  V30 1853 O 178.353 -1.57741 -0.94146 0
M  V30 1854 C 178.415 -2.76596 2.2964 0
M  V30 1855 C 178.079 -2.57245 3.77722 0
M  V30 1856 C 179.076 -2.22804 4.69739 0
M  V30 1857 C 176.761 -2.727 4.2183 0
M  V30 1858 C 178.755 -2.04064 6.03851 0
M  V30 1859 C 176.442 -2.53576 5.56006 0
M  V30 1860 C 177.44 -2.1931 6.46832 0
M  V30 1861 O 177.128 -2.00359 7.78532 0
M  V30 1862 H 176.86 -0.461227 0.494212 0
M  V30 1863 H 179.414 -0.856045 1.86711 0
M  V30 1864 H 177.644 -3.41033 1.82301 0
M  V30 1865 H 179.333 -3.38424 2.24107 0
M  V30 1866 H 180.099 -2.10473 4.36951 0
M  V30 1867 H 175.978 -2.98353 3.51435 0
M  V30 1868 H 179.522 -1.77241 6.74708 0
M  V30 1869 H 175.419 -2.65499 5.88371 0
M  V30 1870 H 176.187 -2.15075 7.89737 0
M  V30 1871 N 178.85 -1.27639 -0.924453 0
M  V30 1872 C 179.797 -1.10644 -2.0255 0
M  V30 1873 C 180.767 -0.00658438 -1.66099 0
M  V30 1874 O 181.952 -0.16952 -1.90045 0
M  V30 1875 C 179.092 -0.76309 -3.36557 0
M  V30 1876 C 178.205 -1.94091 -3.85944 0
M  V30 1877 C 177.34 -1.53914 -5.08413 0
M  V30 1878 C 176.379 -2.68425 -5.50104 0
M  V30 1879 N 175.516 -2.28815 -6.63768 0
M  V30 1880 H 180.356 -2.04858 -2.16419 0
M  V30 1881 H 177.893 -1.01974 -1.06017 0
M  V30 1882 H 179.851 -0.544822 -4.13627 0
M  V30 1883 H 178.481 0.142102 -3.22487 0
M  V30 1884 H 177.533 -2.27162 -3.05125 0
M  V30 1885 H 178.845 -2.7998 -4.12811 0
M  V30 1886 H 177.999 -1.28231 -5.92994 0
M  V30 1887 H 176.738 -0.651391 -4.8333 0
M  V30 1888 H 175.743 -2.94819 -4.64071 0
M  V30 1889 H 176.968 -3.57826 -5.7718 0
M  V30 1890 H 174.914 -1.42495 -6.40337 0
M  V30 1891 H 174.831 -3.08242 -6.90306 0
M  V30 1892 H 176.099 -2.06387 -7.51681 0
M  V30 1893 N 180.328 1.1314 -1.09713 0
M  V30 1894 C 181.275 2.18642 -0.739196 0
M  V30 1895 C 182.245 1.63706 0.280978 0
M  V30 1896 O 183.43 1.90111 0.161946 0
M  V30 1897 C 180.57 3.44685 -0.169102 0
M  V30 1898 C 179.683 4.13711 -1.24367 0
M  V30 1899 C 178.818 5.27379 -0.636019 0
M  V30 1900 C 177.857 5.88259 -1.69169 0
M  V30 1901 N 176.994 6.93352 -1.10485 0
M  V30 1902 H 181.834 2.48607 -1.64312 0
M  V30 1903 H 179.371 1.22066 -0.820875 0
M  V30 1904 H 181.329 4.16815 0.179256 0
M  V30 1905 H 179.959 3.15161 0.698079 0
M  V30 1906 H 179.011 3.39835 -1.70927 0
M  V30 1907 H 180.323 4.55037 -2.04311 0
M  V30 1908 H 179.477 6.06238 -0.236677 0
M  V30 1909 H 178.216 4.8731 0.194928 0
M  V30 1910 H 177.221 5.08092 -2.10055 0
M  V30 1911 H 178.446 6.30399 -2.52536 0
M  V30 1912 H 176.392 6.55335 -0.295234 0
M  V30 1913 H 176.309 7.33236 -1.84121 0
M  V30 1914 H 177.577 7.76057 -0.73181 0
M  V30 1915 N 181.806 0.884767 1.30421 0
M  V30 1916 C 182.769 0.356277 2.26414 0
M  V30 1917 C 183.769 -0.501124 1.52792 0
M  V30 1918 O 184.959 -0.30831 1.7145 0
M  V30 1919 C 182.091 -0.492316 3.37326 0
M  V30 1920 H 183.284 1.20389 2.74675 0
M  V30 1921 H 180.837 0.661607 1.41607 0
M  V30 1922 H 181.572 -1.36052 2.94381 0
M  V30 1923 H 181.357 0.121832 3.91911 0
M  V30 1924 H 182.847 -0.853871 4.08777 0
M  V30 1925 N 183.284 -1.43765 0.645699 0
M  V30 1926 C 184.232 -2.32516 -0.0624849 0
M  V30 1927 C 185.226 -1.48183 -0.820855 0
M  V30 1928 O 186.432 -1.64439 -0.732106 0
M  V30 1929 H 182.807 -0.750989 -0.0389864 0
M  V30 1930 H 184.778 -2.89979 0.703892 0
M  V30 1931 C 183.527 -3.32389 -1.02044 0
M  V30 1932 H 182.85 -3.97301 -0.446312 0
M  V30 1933 H 184.29 -3.97138 -1.48517 0
M  V30 1934 C 182.749 -2.62416 -2.11281 0
M  V30 1935 O 183.279 -2.434 -3.19561 0
M  V30 1936 N 181.485 -2.21913 -1.87624 0
M  V30 1937 H 181.032 -2.37578 -0.995703 0
M  V30 1938 H 180.99 -1.75424 -2.6091 0
M  V30 1939 N 184.763 -0.387143 -1.52771 0
M  V30 1940 C 186.179 -0.037007 -1.59557 0
M  V30 1941 C 186.379 1.44801 -1.40124 0
M  V30 1942 O 185.435 2.21227 -1.21716 0
M  V30 1943 C 186.748 -0.512256 -2.96305 0
M  V30 1944 C 188.296 -0.468328 -3.09476 0
M  V30 1945 C 188.771 -0.919731 -4.4867 0
M  V30 1946 N 190.262 -0.875656 -4.54848 0
M  V30 1947 C 190.997 -1.19637 -5.6078 0
M  V30 1948 N 190.493 -1.58745 -6.74368 0
M  V30 1949 N 192.286 -1.11776 -5.50874 0
M  V30 1950 H 184.437 -1.35395 -1.63652 0
M  V30 1951 H 186.7 -0.554818 -0.768688 0
M  V30 1952 H 186.406 -1.54935 -3.15734 0
M  V30 1953 H 186.28 0.089805 -3.77093 0
M  V30 1954 H 188.667 0.559671 -2.89744 0
M  V30 1955 H 188.748 -1.10616 -2.30646 0
M  V30 1956 H 188.392 -1.94595 -4.69143 0
M  V30 1957 H 188.322 -0.258927 -5.25963 0
M  V30 1958 H 190.813 -0.587843 -3.733 0
M  V30 1959 H 191.126 -1.81586 -7.51163 0
M  V30 1960 H 189.471 -1.6263 -6.75705 0
M  V30 1961 H 192.662 -0.811264 -4.61016 0
M  V30 1962 H 192.835 -1.37103 -6.3333 0
M  V30 1963 N 186.241 1.57166 -0.116904 0
M  V30 1964 C 187.487 1.95412 0.542405 0
M  V30 1965 C 187.82 1.00019 1.66463 0
M  V30 1966 O 187.095 0.0370346 1.94465 0
M  V30 1967 C 187.378 3.43615 1.07708 0
M  V30 1968 C 187.231 4.49781 -0.0415868 0
M  V30 1969 C 188.55 3.93616 1.96861 0
M  V30 1970 H 185.669 0.710543 0.195696 0
M  V30 1971 H 188.311 1.89027 -0.192038 0
M  V30 1972 H 186.461 3.49187 1.70296 0
M  V30 1973 H 188.133 4.56308 -0.676793 0
M  V30 1974 H 186.376 4.28033 -0.705019 0
M  V30 1975 H 187.047 5.50733 0.373717 0
M  V30 1976 H 189.523 3.90335 1.44146 0
M  V30 1977 H 188.399 4.97838 2.3119 0
M  V30 1978 H 188.66 3.34188 2.89432 0
M  V30 1979 N 187.719 -0.156864 1.56817 0
M  V30 1980 C 188.649 -1.19589 2.00551 0
M  V30 1981 C 189.63 -1.4536 0.883426 0
M  V30 1982 O 190.815 -1.56449 1.15054 0
M  V30 1983 C 187.945 -2.53143 2.37773 0
M  V30 1984 C 186.899 -2.41913 3.53075 0
M  V30 1985 C 186.225 -3.80088 3.76081 0
M  V30 1986 C 187.525 -1.91157 4.86062 0
M  V30 1987 H 189.219 -0.832293 2.87599 0
M  V30 1988 H 186.765 -0.398918 1.38364 0
M  V30 1989 H 188.718 -3.26047 2.66967 0
M  V30 1990 H 187.442 -2.91319 1.4765 0
M  V30 1991 H 186.101 -1.71462 3.24031 0
M  V30 1992 H 185.749 -4.15683 2.83225 0
M  V30 1993 H 185.449 -3.73439 4.53671 0
M  V30 1994 H 186.973 -4.54556 4.0769 0
M  V30 1995 H 188.387 -2.53846 5.14038 0
M  V30 1996 H 186.784 -1.95422 5.67389 0
M  V30 1997 H 187.854 -0.866673 4.77092 0
M  V30 1998 N 189.197 -1.51736 -0.425897 0
M  V30 1999 C 190.443 -1.65214 -1.1761 0
M  V30 2000 C 190.776 -0.372778 -1.90589 0
M  V30 2001 O 190.051 0.628139 -1.84078 0
M  V30 2002 C 190.334 -2.86312 -2.18398 0
M  V30 2003 C 190.187 -4.24254 -1.49426 0
M  V30 2004 C 191.506 -3.02925 -3.19256 0
M  V30 2005 H 188.625 -0.601263 -0.426206 0
M  V30 2006 H 191.267 -1.8425 -0.463882 0
M  V30 2007 H 189.417 -2.70213 -2.79137 0
M  V30 2008 H 191.089 -4.52046 -0.919362 0
M  V30 2009 H 189.332 -4.26426 -0.796432 0
M  V30 2010 H 190.003 -5.05001 -2.22885 0
M  V30 2011 H 192.479 -3.1781 -2.68581 0
M  V30 2012 H 191.355 -3.89199 -3.8706 0
M  V30 2013 H 191.616 -2.15497 -3.86023 0
M  V30 2014 N 190.675 0.682077 -1.42076 0
M  V30 2015 C 191.921 1.44428 -1.42367 0
M  V30 2016 C 192.254 1.94164 -0.0373056 0
M  V30 2017 O 191.529 1.70429 0.937239 0
M  V30 2018 C 191.812 2.64654 -2.44194 0
M  V30 2019 C 191.665 2.20596 -3.91991 0
M  V30 2020 C 192.984 3.66865 -2.431 0
M  V30 2021 H 190.103 0.523834 -0.518428 0
M  V30 2022 H 192.745 0.77576 -1.73442 0
M  V30 2023 H 190.895 3.2169 -2.17826 0
M  V30 2024 H 192.567 1.68783 -4.29313 0
M  V30 2025 H 190.81 1.52242 -4.06208 0
M  V30 2026 H 191.481 3.06921 -4.58807 0
M  V30 2027 H 193.957 3.19531 -2.66532 0
M  V30 2028 H 192.833 4.48577 -3.16339 0
M  V30 2029 H 193.094 4.17493 -1.45437 0
M  V30 2030 N 192.153 1.28127 0.917671 0
M  V30 2031 C 193.43 1.05761 1.64542 0
M  V30 2032 C 193.81 -0.404344 2.07191 0
M  V30 2033 O 193.158 -1.38963 1.81388 0
M  V30 2034 C 193.368 2.02857 2.83989 0
M  V30 2035 C 194.716 2.32786 3.551 0
M  V30 2036 O 195.74 2.0091 2.94132 0
M  V30 2037 O 194.599 2.87169 4.64969 0
M  V30 2038 H 191.693 0.403916 0.721652 0
M  V30 2039 H 194.239 1.39431 0.967322 0
M  V30 2040 H 193.011 3.01407 2.49538 0
M  V30 2041 H 192.634 1.69809 3.59514 0
M  V30 2042 N 193.631 -1.12557 1.10312 0
M  V30 2043 C 194.877 -1.84311 0.846011 0
M  V30 2044 C 195.21 -1.83805 -0.626859 0
M  V30 2045 O 194.485 -1.28268 -1.46211 0
M  V30 2046 C 194.768 -3.32048 1.39341 0
M  V30 2047 C 194.621 -3.41016 2.93305 0
M  V30 2048 C 195.94 -4.27764 1.03468 0
M  V30 2049 H 193.059 -0.669192 0.30879 0
M  V30 2050 H 195.701 -1.32057 1.36605 0
M  V30 2051 H 193.851 -3.76678 0.951087 0
M  V30 2052 H 195.523 -3.05031 3.46055 0
M  V30 2053 H 193.766 -2.81603 3.29973 0
M  V30 2054 H 194.437 -4.44948 3.26689 0
M  V30 2055 H 196.913 -3.91253 1.41633 0
M  V30 2056 H 195.789 -5.29549 1.44463 0
M  V30 2057 H 196.05 -4.42064 -0.0560404 0
M  V30 2058 N 195.109 -0.891671 -1.2995 0
M  V30 2059 C 196.334 -0.527932 -2.00568 0
M  V30 2060 C 196.759 0.877969 -1.66353 0
M  V30 2061 O 196.117 1.58301 -0.883762 0
M  V30 2062 C 196.165 -0.717745 -3.53385 0
M  V30 2063 O 195.269 0.233376 -4.11739 0
M  V30 2064 H 194.61 -0.20722 -0.630837 0
M  V30 2065 H 197.14 -1.20105 -1.65638 0
M  V30 2066 H 197.15 -0.619307 -4.03272 0
M  V30 2067 H 195.825 -1.74276 -3.77625 0
M  V30 2068 H 194.402 0.0880706 -3.72796 0
M  V30 2069 N 196.587 1.43421 -0.653314 0
M  V30 2070 C 197.998 1.85065 -0.246537 0
M  V30 2071 C 198.349 1.54688 1.2069 0
M  V30 2072 O 197.474 0.995896 1.92122 0
M  V30 2073 C 198.069 3.35922 -0.440666 0
M  V30 2074 C 196.628 3.76297 -0.0882064 0
M  V30 2075 C 195.775 2.67147 -0.743484 0
M  V30 2076 H 198.726 1.33572 -0.856979 0
M  V30 2077 H 198.747 3.79204 0.313798 0
M  V30 2078 H 198.259 3.58 -1.49858 0
M  V30 2079 H 196.36 3.5983 0.96711 0
M  V30 2080 H 196.473 4.76338 -0.513738 0
M  V30 2081 H 194.837 2.54086 -0.176712 0
M  V30 2082 H 195.62 2.92053 -1.80443 0
M  V30 2083 N 198.065 0.39524 1.52563 0
M  V30 2084 C 198.975 -0.444232 2.30356 0
M  V30 2085 C 199.991 -1.06615 1.37511 0
M  V30 2086 O 201.167 -1.07067 1.70583 0
M  V30 2087 C 198.232 -1.55315 3.09964 0
M  V30 2088 C 197.293 -0.955734 4.18526 0
M  V30 2089 C 196.526 -2.01181 4.9433 0
M  V30 2090 O 196.749 -3.22781 4.70285 0
M  V30 2091 O 195.683 -1.62579 5.79527 0
M  V30 2092 H 199.509 0.189667 3.03107 0
M  V30 2093 H 197.094 0.1588 1.48554 0
M  V30 2094 H 198.976 -2.19724 3.59582 0
M  V30 2095 H 197.651 -2.17191 2.4002 0
M  V30 2096 H 196.558 -0.274743 3.7309 0
M  V30 2097 H 197.891 -0.381109 4.90722 0
M  V30 2098 N 199.544 -1.57102 0.125237 0
M  V30 2099 C 200.772 -1.99761 -0.538797 0
M  V30 2100 C 201.187 -1.00503 -1.59827 0
M  V30 2101 O 200.544 0.00119474 -1.825 0
M  V30 2102 C 200.595 -3.42408 -1.15927 0
M  V30 2103 O 200.316 -4.37869 -0.142143 0
M  V30 2104 C 201.817 -4.00232 -1.90602 0
M  V30 2105 H 199.037 -0.655772 -0.14214 0
M  V30 2106 H 201.581 -2.03383 0.213413 0
M  V30 2107 H 199.736 -3.39706 -1.86223 0
M  V30 2108 H 200.15 -5.21128 -0.593775 0
M  V30 2109 H 201.624 -5.02105 -2.29335 0
M  V30 2110 H 202.101 -3.39721 -2.78363 0
M  V30 2111 H 202.707 -4.06499 -1.25055 0
M  V30 2112 N 201.022 0.148545 -1.56898 0
M  V30 2113 C 201.954 1.20852 -1.9475 0
M  V30 2114 C 202.967 1.39265 -0.843152 0
M  V30 2115 O 204.156 1.38864 -1.12156 0
M  V30 2116 C 201.256 2.57362 -2.20495 0
M  V30 2117 C 200.429 2.59947 -3.51776 0
M  V30 2118 C 199.488 3.77984 -3.6608 0
M  V30 2119 O 198.514 3.62929 -4.38487 0
M  V30 2120 N 199.716 4.95375 -3.02629 0
M  V30 2121 H 202.481 0.886804 -2.86279 0
M  V30 2122 H 200.042 0.338121 -1.5833 0
M  V30 2123 H 202.034 3.34833 -2.27307 0
M  V30 2124 H 200.604 2.81832 -1.35238 0
M  V30 2125 H 199.824 1.68403 -3.56419 0
M  V30 2126 H 201.112 2.58704 -4.38121 0
M  V30 2127 H 200.51 5.10509 -2.43715 0
M  V30 2128 H 199.067 5.70627 -3.15004 0
M  V30 2129 N 202.5 1.5196 0.417844 0
M  V30 2130 C 203.43 1.77634 1.51554 0
M  V30 2131 C 204.411 0.626918 1.58126 0
M  V30 2132 O 205.596 0.871632 1.7354 0
M  V30 2133 C 202.726 1.91911 2.8946 0
M  V30 2134 C 201.68 3.07463 2.97743 0
M  V30 2135 C 201.006 3.06951 4.37819 0
M  V30 2136 C 202.306 4.47082 2.70027 0
M  V30 2137 H 204 2.6955 1.3032 0
M  V30 2138 H 201.546 1.29706 0.625492 0
M  V30 2139 H 203.499 2.08455 3.6623 0
M  V30 2140 H 202.223 0.966598 3.11969 0
M  V30 2141 H 200.882 2.90656 2.23416 0
M  V30 2142 H 200.53 2.09438 4.57323 0
M  V30 2143 H 200.23 3.84556 4.44286 0
M  V30 2144 H 201.754 3.25613 5.16535 0
M  V30 2145 H 203.168 4.6414 3.36522 0
M  V30 2146 H 201.565 5.2654 2.87881 0
M  V30 2147 H 202.635 4.55777 1.65514 0
M  V30 2148 N 203.978 -0.674533 1.42435 0
M  V30 2149 C 204.925 -1.78807 1.45934 0
M  V30 2150 C 205.895 -1.63157 0.311271 0
M  V30 2151 O 207.08 -1.83707 0.515383 0
M  V30 2152 C 204.22 -3.16839 1.36773 0
M  V30 2153 C 203.333 -3.43774 2.61617 0
M  V30 2154 C 202.468 -4.71536 2.44597 0
M  V30 2155 C 201.507 -4.91505 3.64814 0
M  V30 2156 N 200.644 -6.10508 3.46734 0
M  V30 2157 H 205.484 -1.75151 2.41093 0
M  V30 2158 H 203.021 -0.85504 1.19697 0
M  V30 2159 H 204.979 -3.96606 1.29459 0
M  V30 2160 H 203.609 -3.19619 0.452089 0
M  V30 2161 H 202.661 -2.58259 2.79297 0
M  V30 2162 H 203.973 -3.54423 3.50978 0
M  V30 2163 H 203.127 -5.59393 2.3487 0
M  V30 2164 H 201.866 -4.6317 1.52726 0
M  V30 2165 H 200.871 -4.0209 3.74972 0
M  V30 2166 H 202.096 -5.01716 4.57665 0
M  V30 2167 H 200.042 -6.03315 2.5758 0
M  V30 2168 H 199.959 -6.2202 4.29682 0
M  V30 2169 H 201.227 -7.01044 3.40819 0
M  V30 2170 N 205.456 -1.28612 -0.910864 0
M  V30 2171 C 206.872 -1.06381 -1.18976 0
M  V30 2172 C 207.072 0.191998 -2.00583 0
M  V30 2173 O 206.128 0.892869 -2.36187 0
M  V30 2174 C 207.441 -2.31295 -1.92154 0
M  V30 2175 C 208.989 -2.36503 -2.05025 0
M  V30 2176 C 209.464 -3.61191 -2.81612 0
M  V30 2177 N 210.955 -3.61847 -2.89172 0
M  V30 2178 C 211.69 -4.55004 -3.4894 0
M  V30 2179 N 211.186 -5.58482 -4.09963 0
M  V30 2180 N 212.979 -4.42594 -3.46506 0
M  V30 2181 H 205.13 -2.09221 -0.366094 0
M  V30 2182 H 207.393 -0.921003 -0.224629 0
M  V30 2183 H 207.099 -3.228 -1.39618 0
M  V30 2184 H 206.973 -2.37934 -2.9269 0
M  V30 2185 H 209.36 -1.45494 -2.5674 0
M  V30 2186 H 209.441 -2.33857 -1.03657 0
M  V30 2187 H 209.085 -4.52545 -2.30576 0
M  V30 2188 H 209.015 -3.61092 -3.83302 0
M  V30 2189 H 211.506 -2.87022 -2.45819 0
M  V30 2190 H 211.819 -6.25704 -4.53557 0
M  V30 2191 H 210.164 -5.62305 -4.08459 0
M  V30 2192 H 213.355 -3.60953 -2.98045 0
M  V30 2193 H 213.528 -5.15381 -3.92793 0
M  V30 2194 N 206.934 1.1197 -1.10907 0
M  V30 2195 C 208.162 1.87402 -0.876824 0
M  V30 2196 C 208.577 1.79894 0.573025 0
M  V30 2197 O 207.934 1.17629 1.39534 0
M  V30 2198 C 207.985 3.36428 -1.32282 0
M  V30 2199 O 207.706 3.43765 -2.71582 0
M  V30 2200 C 209.207 4.28783 -1.12518 0
M  V30 2201 H 206.427 0.592793 -0.314384 0
M  V30 2202 H 208.971 1.41649 -1.47499 0
M  V30 2203 H 207.126 3.79706 -0.768229 0
M  V30 2204 H 207.54 4.3652 -2.90776 0
M  V30 2205 H 209.014 5.31613 -1.48633 0
M  V30 2206 H 209.491 4.39153 -0.0642394 0
M  V30 2207 H 210.097 3.91291 -1.66648 0
M  V30 2208 N 208.412 0.89855 1.29475 0
M  V30 2209 C 209.345 0.319981 2.25945 0
M  V30 2210 C 210.323 -0.567189 1.52387 0
M  V30 2211 O 211.507 -0.514254 1.8135 0
M  V30 2212 C 208.634 -0.544013 3.34303 0
M  V30 2213 C 207.68 0.275682 4.25608 0
M  V30 2214 S 208.513 1.67272 5.08704 0
M  V30 2215 C 209.669 0.815621 6.20563 0
M  V30 2216 H 209.902 1.13767 2.74671 0
M  V30 2217 H 207.435 0.69882 1.3768 0
M  V30 2218 H 209.393 -1.03673 3.97193 0
M  V30 2219 H 208.054 -1.33593 2.84274 0
M  V30 2220 H 207.247 -0.384263 5.02533 0
M  V30 2221 H 206.849 0.701496 3.67362 0
M  V30 2222 H 209.141 0.0385042 6.77489 0
M  V30 2223 H 210.084 1.55691 6.90772 0
M  V30 2224 H 210.492 0.370516 5.63283 0
M  V30 2225 N 209.89 -1.43072 0.660911 0
M  V30 2226 C 210.822 -2.29108 -0.0647641 0
M  V30 2227 C 211.835 -1.42928 -0.779448 0
M  V30 2228 O 213.024 -1.66788 -0.635921 0
M  V30 2229 C 210.124 -3.20032 -1.11503 0
M  V30 2230 C 209.297 -4.34792 -0.476955 0
M  V30 2231 C 208.356 -5.06534 -1.42513 0
M  V30 2232 O 207.382 -5.61538 -0.930771 0
M  V30 2233 N 208.584 -5.1075 -2.75889 0
M  V30 2234 H 211.349 -2.92029 0.673731 0
M  V30 2235 H 208.91 -1.53846 0.50427 0
M  V30 2236 H 210.902 -3.64892 -1.75032 0
M  V30 2237 H 209.472 -2.58658 -1.75541 0
M  V30 2238 H 208.692 -3.92752 0.337572 0
M  V30 2239 H 209.98 -5.0879 -0.0318525 0
M  V30 2240 H 209.378 -4.67447 -3.18606 0
M  V30 2241 H 207.935 -5.59302 -3.347 0
M  V30 2242 N 211.368 -0.403325 -1.52352 0
M  V30 2243 C 212.784 -0.0539281 -1.59509 0
M  V30 2244 C 212.984 1.43307 -1.41652 0
M  V30 2245 O 212.04 2.19924 -1.24056 0
M  V30 2246 C 213.353 -0.543654 -2.95745 0
M  V30 2247 C 214.901 -0.501125 -3.08962 0
M  V30 2248 C 215.376 -0.967267 -4.47669 0
M  V30 2249 N 216.867 -0.923849 -4.53893 0
M  V30 2250 C 217.602 -1.25578 -5.5948 0
M  V30 2251 N 217.098 -1.65889 -6.72646 0
M  V30 2252 N 218.891 -1.17613 -5.49658 0
M  V30 2253 H 211.042 -1.37123 -1.62206 0
M  V30 2254 H 213.305 -0.56294 -0.76276 0
M  V30 2255 H 213.011 -1.58275 -3.14073 0
M  V30 2256 H 212.885 0.0498042 -3.77167 0
M  V30 2257 H 215.272 0.528909 -2.90321 0
M  V30 2258 H 215.353 -1.13056 -2.2946 0
M  V30 2259 H 214.997 -1.9956 -4.67053 0
M  V30 2260 H 214.927 -0.314698 -5.25659 0
M  V30 2261 H 217.418 -0.627403 -3.72655 0
M  V30 2262 H 217.731 -1.89543 -7.49195 0
M  V30 2263 H 216.076 -1.69787 -6.73942 0
M  V30 2264 H 219.267 -0.860115 -4.6013 0
M  V30 2265 H 219.44 -1.43812 -6.3184 0
M  V30 2266 N 212.846 1.57033 -0.133567 0
M  V30 2267 C 214.123 1.87256 0.56522 0
M  V30 2268 C 214.503 1.03726 1.83859 0
M  V30 2269 O 213.851 0.120247 2.28183 0
M  V30 2270 C 214.061 3.3865 0.843636 0
M  V30 2271 C 215.409 4.07574 1.19032 0
M  V30 2272 O 216.433 3.43752 0.933429 0
M  V30 2273 O 215.292 5.20259 1.67312 0
M  V30 2274 H 212.386 0.775678 0.286796 0
M  V30 2275 H 214.932 1.68855 -0.169168 0
M  V30 2276 H 213.704 3.91257 -0.0581149 0
M  V30 2277 H 213.327 3.62532 1.63268 0
M  V30 2278 N 214.325 -0.140222 1.56975 0
M  V30 2279 C 215.602 -0.880769 1.74648 0
M  V30 2280 C 215.982 -1.99036 0.703404 0
M  V30 2281 O 215.33 -2.26821 -0.27648 0
M  V30 2282 C 215.54 -1.417 3.18939 0
M  V30 2283 C 216.888 -1.87774 3.80823 0
M  V30 2284 O 217.912 -1.51427 3.2241 0
M  V30 2285 O 216.771 -2.54827 4.83452 0
M  V30 2286 H 213.865 -0.416713 0.714338 0
M  V30 2287 H 216.411 -0.125618 1.69234 0
M  V30 2288 H 215.183 -0.619902 3.86359 0
M  V30 2289 H 214.806 -2.23546 3.28805 0
M  V30 2290 N 215.803 -1.52179 -0.40978 0
M  V30 2291 C 217.049 -1.66453 -1.15851 0
M  V30 2292 C 217.382 -0.392972 -1.90182 0
M  V30 2293 O 216.657 0.608579 -1.84734 0
M  V30 2294 C 216.94 -2.88612 -2.15349 0
M  V30 2295 C 216.793 -4.25815 -1.44918 0
M  V30 2296 C 218.112 -3.06294 -3.16026 0
M  V30 2297 H 215.231 -0.60575 -0.419805 0
M  V30 2298 H 217.873 -1.84732 -0.444314 0
M  V30 2299 H 216.023 -2.73158 -2.76255 0
M  V30 2300 H 217.695 -4.52995 -0.871365 0
M  V30 2301 H 215.938 -4.27247 -0.751159 0
M  V30 2302 H 216.609 -5.07337 -2.17516 0
M  V30 2303 H 219.085 -3.20641 -2.65195 0
M  V30 2304 H 217.961 -3.93283 -3.8291 0
M  V30 2305 H 218.222 -2.19579 -3.83715 0
M  V30 2306 N 217.281 0.66697 -1.42791 0
M  V30 2307 C 218.509 1.45505 -1.47091 0
M  V30 2308 C 218.924 1.8861 -0.0845873 0
M  V30 2309 O 218.281 1.58632 0.90234 0
M  V30 2310 C 218.332 2.69906 -2.40485 0
M  V30 2311 O 218.053 2.28608 -3.73725 0
M  V30 2312 C 219.554 3.63396 -2.53886 0
M  V30 2313 H 216.774 0.447459 -0.500022 0
M  V30 2314 H 219.318 0.818866 -1.8739 0
M  V30 2315 H 217.473 3.29696 -2.03419 0
M  V30 2316 H 217.887 3.08997 -4.23817 0
M  V30 2317 H 219.361 4.47387 -3.2334 0
M  V30 2318 H 219.838 4.09824 -1.57927 0
M  V30 2319 H 220.444 3.09495 -2.91706 0
M  V30 2320 N 218.759 1.29093 0.90403 0
M  V30 2321 C 220.175 1.07011 1.1841 0
M  V30 2322 C 220.375 -0.181358 2.00682 0
M  V30 2323 O 219.431 -0.880331 2.36657 0
M  V30 2324 C 220.744 2.32311 1.90924 0
M  V30 2325 C 222.292 2.37587 2.03768 0
M  V30 2326 C 222.767 3.62679 2.79693 0
M  V30 2327 N 224.258 3.63376 2.87249 0
M  V30 2328 C 224.993 4.56848 3.46522 0
M  V30 2329 N 224.489 5.60648 4.06996 0
M  V30 2330 N 226.282 4.44426 3.44154 0
M  V30 2331 H 218.433 2.09412 0.354993 0
M  V30 2332 H 220.696 0.922181 0.219742 0
M  V30 2333 H 220.402 3.23536 1.37905 0
M  V30 2334 H 220.276 2.39483 2.91424 0
M  V30 2335 H 222.663 1.46853 2.55965 0
M  V30 2336 H 222.744 2.34403 1.02415 0
M  V30 2337 H 222.388 4.53762 2.28173 0
M  V30 2338 H 222.318 3.63119 3.81381 0
M  V30 2339 H 224.809 2.88321 2.44293 0
M  V30 2340 H 225.122 6.28101 4.50232 0
M  V30 2341 H 223.467 5.64463 4.05471 0
M  V30 2342 H 226.658 3.62529 2.96126 0
M  V30 2343 H 226.831 5.17457 3.90054 0
M  V30 2344 N 220.237 -1.11381 1.11499 0
M  V30 2345 C 221.147 -2.21019 0.786628 0
M  V30 2346 C 222.163 -1.72597 -0.220507 0
M  V30 2347 O 223.339 -2.01321 -0.0565251 0
M  V30 2348 C 220.404 -3.459 0.235333 0
M  V30 2349 C 219.465 -4.09107 1.30115 0
M  V30 2350 C 218.698 -5.28027 0.776068 0
M  V30 2351 O 218.921 -5.6904 -0.393661 0
M  V30 2352 O 217.855 -5.81835 1.54114 0
M  V30 2353 H 221.681 -2.51521 1.70209 0
M  V30 2354 H 219.266 -1.19928 0.890928 0
M  V30 2355 H 221.148 -4.21346 -0.067715 0
M  V30 2356 H 219.823 -3.17049 -0.652828 0
M  V30 2357 H 218.73 -3.35391 1.65722 0
M  V30 2358 H 220.063 -4.42139 2.16273 0
M  V30 2359 N 221.715 -0.905404 -1.28997 0
M  V30 2360 C 222.665 -0.358713 -2.25161 0
M  V30 2361 C 223.649 0.524449 -1.52113 0
M  V30 2362 O 224.841 0.365534 -1.73184 0
M  V30 2363 C 221.97 0.407609 -3.40872 0
M  V30 2364 C 221.056 -0.490797 -4.21251 0
M  V30 2365 N 221.447 -1.60061 -4.79806 0
M  V30 2366 C 219.745 -0.289636 -4.45059 0
M  V30 2367 C 220.446 -2.15757 -5.40207 0
M  V30 2368 N 219.422 -1.44988 -5.23908 0
M  V30 2369 H 223.224 -1.20642 -2.67998 0
M  V30 2370 H 220.738 -0.757103 -1.43672 0
M  V30 2371 H 222.735 0.816046 -4.08835 0
M  V30 2372 H 221.395 1.25251 -2.9957 0
M  V30 2373 H 222.406 -1.98329 -4.7842 0
M  V30 2374 H 219.083 0.51643 -4.14294 0
M  V30 2375 H 220.473 -3.09069 -5.96595 0
M  V30 2376 N 223.193 1.4272 -0.668489 0
M  V30 2377 C 224.439 2.01923 -0.188419 0
M  V30 2378 C 224.772 1.52704 1.19979 0
M  V30 2379 O 224.047 0.726566 1.8042 0
M  V30 2380 C 224.33 3.59451 -0.216085 0
M  V30 2381 C 224.183 4.18864 -1.6393 0
M  V30 2382 C 225.502 4.37903 0.439179 0
M  V30 2383 H 222.621 0.733674 -0.0699412 0
M  V30 2384 H 225.263 1.69822 -0.852076 0
M  V30 2385 H 223.413 3.86929 0.349012 0
M  V30 2386 H 225.085 4.02362 -2.25616 0
M  V30 2387 H 223.328 3.74933 -2.18193 0
M  V30 2388 H 223.999 5.27987 -1.61039 0
M  V30 2389 H 226.475 4.16079 -0.0417878 0
M  V30 2390 H 225.351 5.47519 0.389157 0
M  V30 2391 H 225.612 4.15303 1.51577 0
M  V30 2392 N 224.671 0.411399 1.52136 0
M  V30 2393 C 225.581 -0.419774 2.30814 0
M  V30 2394 C 226.597 -1.0515 1.38634 0
M  V30 2395 O 227.773 -1.05252 1.71709 0
M  V30 2396 C 224.838 -1.52019 3.11594 0
M  V30 2397 C 223.899 -0.91129 4.19516 0
M  V30 2398 C 223.132 -1.95927 4.96436 0
M  V30 2399 O 223.355 -3.17775 4.73683 0
M  V30 2400 O 222.289 -1.56423 5.81219 0
M  V30 2401 H 226.115 0.221805 3.02889 0
M  V30 2402 H 223.7 0.174547 1.48377 0
M  V30 2403 H 225.582 -2.15898 3.61892 0
M  V30 2404 H 224.257 -2.14633 2.42311 0
M  V30 2405 H 223.164 -0.235157 3.7336 0
M  V30 2406 H 224.497 -0.32904 4.91099 0
M  V30 2407 N 226.149 -1.5696 0.141893 0
M  V30 2408 C 227.081 -2.13619 -0.830627 0
M  V30 2409 C 228.094 -1.08439 -1.21428 0
M  V30 2410 O 229.283 -1.35734 -1.15925 0
M  V30 2411 C 226.383 -2.63978 -2.12529 0
M  V30 2412 C 225.556 -3.93504 -1.9098 0
M  V30 2413 C 224.615 -4.29225 -3.04388 0
M  V30 2414 O 223.641 -4.97641 -2.76302 0
M  V30 2415 N 224.843 -3.88393 -4.31429 0
M  V30 2416 H 227.608 -2.97691 -0.34641 0
M  V30 2417 H 225.169 -1.61846 -0.0418375 0
M  V30 2418 H 227.161 -2.84891 -2.87436 0
M  V30 2419 H 225.731 -1.84659 -2.52229 0
M  V30 2420 H 224.951 -3.81269 -1.00139 0
M  V30 2421 H 226.239 -4.78154 -1.73914 0
M  V30 2422 H 225.637 -3.33257 -4.57117 0
M  V30 2423 H 224.194 -4.14368 -5.03133 0
M  V30 2424 N 227.627 0.131896 -1.57047 0
M  V30 2425 C 228.876 0.84044 -1.83356 0
M  V30 2426 C 229.189 1.81646 -0.725535 0
M  V30 2427 O 230.395 2.57025 -0.874659 0
M  V30 2428 C 228.851 1.54528 -3.25037 0
M  V30 2429 C 228.459 0.610902 -4.43815 0
M  V30 2430 C 230.203 2.23972 -3.60606 0
M  V30 2431 C 228.11 1.31823 -5.76521 0
M  V30 2432 H 227.04 0.317599 -0.683847 0
M  V30 2433 H 229.691 0.0931561 -1.83263 0
M  V30 2434 H 228.073 2.33873 -3.19561 0
M  V30 2435 H 229.247 -0.148407 -4.60561 0
M  V30 2436 H 227.562 0.0241016 -4.16393 0
M  V30 2437 H 230.159 2.77558 -4.57018 0
M  V30 2438 H 230.502 3.01173 -2.87403 0
M  V30 2439 H 231.035 1.51529 -3.6781 0
M  V30 2440 H 227.774 0.587771 -6.52859 0
M  V30 2441 H 227.294 2.04987 -5.63685 0
M  V30 2442 H 228.973 1.855 -6.19838 0
M  V30 2443 N 229.106 1.52395 0.401703 0
M  V30 2444 C 230.036 1.79231 1.49661 0
M  V30 2445 C 231.017 0.643654 1.57452 0
M  V30 2446 O 232.202 0.889989 1.72606 0
M  V30 2447 C 229.332 1.94971 2.87409 0
M  V30 2448 C 228.286 3.10604 2.94465 0
M  V30 2449 C 227.612 3.11577 4.34538 0
M  V30 2450 C 228.912 4.49921 2.6527 0
M  V30 2451 H 230.606 2.70917 1.27454 0
M  V30 2452 H 228.152 1.30362 0.6117 0
M  V30 2453 H 230.105 2.12328 3.63999 0
M  V30 2454 H 228.829 0.999632 3.10926 0
M  V30 2455 H 227.488 2.93009 2.20321 0
M  V30 2456 H 227.136 2.14277 4.55076 0
M  V30 2457 H 226.836 3.89247 4.40183 0
M  V30 2458 H 228.36 3.31073 5.13053 0
M  V30 2459 H 229.774 4.67683 3.31581 0
M  V30 2460 H 228.171 5.29564 2.82281 0
M  V30 2461 H 229.241 4.57507 1.60671 0
M  V30 2462 N 230.584 -0.659388 1.43143 0
M  V30 2463 C 231.547 -1.75432 1.47501 0
M  V30 2464 C 232.547 -1.56707 0.360512 0
M  V30 2465 O 233.737 -1.62717 0.622002 0
M  V30 2466 C 230.869 -3.14239 1.32162 0
M  V30 2467 H 232.062 -1.7295 2.45006 0
M  V30 2468 H 229.615 -0.870469 1.29817 0
M  V30 2469 H 230.35 -3.22336 0.356401 0
M  V30 2470 H 230.135 -3.29235 2.12948 0
M  V30 2471 H 231.625 -3.94094 1.3813 0
M  V30 2472 N 232.062 -1.29571 -0.897171 0
M  V30 2473 C 233.025 -1.14913 -1.98312 0
M  V30 2474 C 234.025 -0.0838629 -1.60581 0
M  V30 2475 O 235.215 -0.331006 -1.71026 0
M  V30 2476 C 232.347 -0.757835 -3.3237 0
M  V30 2477 H 233.54 -2.11377 -2.12743 0
M  V30 2478 H 231.093 -1.12793 -1.08201 0
M  V30 2479 H 231.828 0.206837 -3.2364 0
M  V30 2480 H 231.613 -1.52755 -3.61121 0
M  V30 2481 H 233.103 -0.678408 -4.12053 0
M  V30 2482 N 233.54 1.10788 -1.12088 0
M  V30 2483 C 234.472 2.16816 -0.743213 0
M  V30 2484 C 235.485 1.6119 0.228412 0
M  V30 2485 O 236.674 1.78497 0.0102931 0
M  V30 2486 C 233.774 3.38809 -0.0787313 0
M  V30 2487 C 232.947 4.23885 -1.0789 0
M  V30 2488 C 232.006 5.24334 -0.442713 0
M  V30 2489 O 231.032 5.58497 -1.09864 0
M  V30 2490 N 232.234 5.75079 0.791457 0
M  V30 2491 H 234.999 2.49825 -1.65552 0
M  V30 2492 H 232.56 1.26373 -1.012 0
M  V30 2493 H 234.552 4.03107 0.358766 0
M  V30 2494 H 233.122 3.03805 0.736275 0
M  V30 2495 H 232.342 3.55939 -1.69414 0
M  V30 2496 H 233.63 4.77562 -1.75533 0
M  V30 2497 H 233.028 5.49517 1.3434 0
M  V30 2498 H 231.585 6.4118 1.17183 0
M  V30 2499 N 235.018 0.912232 1.28515 0
M  V30 2500 C 235.981 0.404223 2.25607 0
M  V30 2501 C 236.981 -0.468602 1.53821 0
M  V30 2502 O 238.171 -0.271873 1.72065 0
M  V30 2503 C 235.303 -0.420653 3.38295 0
M  V30 2504 H 236.496 1.26188 2.7206 0
M  V30 2505 H 234.049 0.691495 1.40171 0
M  V30 2506 H 234.784 -1.29777 2.97201 0
M  V30 2507 H 234.569 0.204935 3.91564 0
M  V30 2508 H 236.059 -0.766971 4.10496 0
M  V30 2509 N 236.496 -1.42363 0.676048 0
M  V30 2510 C 237.724 -2.05859 0.207268 0
M  V30 2511 C 238.139 -1.50796 -1.13605 0
M  V30 2512 O 237.496 -0.648265 -1.70598 0
M  V30 2513 C 237.547 -3.61248 0.134975 0
M  V30 2514 O 237.268 -4.1427 1.42521 0
M  V30 2515 C 238.769 -4.41859 -0.357151 0
M  V30 2516 H 235.989 -0.663431 0.100503 0
M  V30 2517 H 238.533 -1.82479 0.923136 0
M  V30 2518 H 236.688 -3.83735 -0.531588 0
M  V30 2519 H 237.102 -5.0815 1.29939 0
M  V30 2520 H 238.576 -5.50847 -0.356641 0
M  V30 2521 H 239.053 -4.16536 -1.39264 0
M  V30 2522 H 239.659 -4.24392 0.27772 0
M  V30 2523 N 237.974 -0.419461 -1.51915 0
M  V30 2524 C 239.39 -0.0708431 -1.59443 0
M  V30 2525 C 239.59 1.41796 -1.43164 0
M  V30 2526 O 238.646 2.18596 -1.26381 0
M  V30 2527 C 239.959 -0.574991 -2.95151 0
M  V30 2528 C 241.507 -0.533867 -3.08413 0
M  V30 2529 C 241.982 -1.01469 -4.46618 0
M  V30 2530 N 243.473 -0.971939 -4.52888 0
M  V30 2531 C 244.208 -1.31505 -5.58116 0
M  V30 2532 N 243.704 -1.73014 -6.70849 0
M  V30 2533 N 245.497 -1.23436 -5.48379 0
M  V30 2534 H 237.648 -1.38836 -1.60743 0
M  V30 2535 H 239.911 -0.570998 -0.756747 0
M  V30 2536 H 239.617 -1.61597 -3.12377 0
M  V30 2537 H 239.491 0.00979777 -3.77199 0
M  V30 2538 H 241.878 0.498086 -2.90866 0
M  V30 2539 H 241.959 -1.15484 -2.28248 0
M  V30 2540 H 241.603 -2.04502 -4.6491 0
M  V30 2541 H 241.533 -0.370433 -5.25295 0
M  V30 2542 H 244.024 -0.666893 -3.71969 0
M  V30 2543 H 244.337 -1.97479 -7.47143 0
M  V30 2544 H 242.682 -1.76926 -6.72103 0
M  V30 2545 H 245.873 -0.908869 -4.59192 0
M  V30 2546 H 246.046 -1.50506 -6.30279 0
M  V30 2547 N 239.452 1.56882 -0.150215 0
M  V30 2548 C 240.362 2.20494 0.801222 0
M  V30 2549 C 241.378 1.19019 1.26927 0
M  V30 2550 O 242.554 1.51607 1.32579 0
M  V30 2551 C 239.619 2.81659 2.02161 0
M  V30 2552 C 238.68 3.9827 1.60249 0
M  V30 2553 C 237.913 4.56508 2.7647 0
M  V30 2554 O 238.136 4.13627 3.92771 0
M  V30 2555 O 237.07 5.46719 2.51757 0
M  V30 2556 H 240.896 3.02315 0.289717 0
M  V30 2557 H 238.481 1.49202 0.0769684 0
M  V30 2558 H 240.363 3.20522 2.73576 0
M  V30 2559 H 239.038 2.02849 2.52258 0
M  V30 2560 H 237.945 3.64117 0.858477 0
M  V30 2561 H 239.278 4.78609 1.14864 0
M  V30 2562 N 240.93 -0.123565 1.57115 0
M  V30 2563 C 241.893 -1.13583 1.99076 0
M  V30 2564 C 242.893 -1.34564 0.880296 0
M  V30 2565 O 244.083 -1.31158 1.14644 0
M  V30 2566 C 241.215 -2.49128 2.32698 0
M  V30 2567 H 242.408 -0.775287 2.89706 0
M  V30 2568 H 239.961 -0.36771 1.51913 0
M  V30 2569 H 240.696 -2.90111 1.44934 0
M  V30 2570 H 240.481 -2.35255 3.13684 0
M  V30 2571 H 241.971 -3.2199 2.65918 0
M  V30 2572 N 242.408 -1.52605 -0.393616 0
M  V30 2573 C 243.824 -1.41753 -0.733357 0
M  V30 2574 C 244.024 -0.534293 -1.94287 0
M  V30 2575 O 243.08 -0.0059787 -2.52499 0
M  V30 2576 C 244.393 -2.84531 -0.972772 0
M  V30 2577 C 245.941 -2.93978 -1.07453 0
M  V30 2578 C 246.416 -4.37756 -1.3466 0
M  V30 2579 N 247.907 -4.4106 -1.41492 0
M  V30 2580 C 248.642 -5.49387 -1.642 0
M  V30 2581 N 248.138 -6.67806 -1.8441 0
M  V30 2582 N 249.931 -5.36923 -1.66342 0
M  V30 2583 H 242.082 -2.08555 0.402328 0
M  V30 2584 H 244.345 -0.940654 0.117789 0
M  V30 2585 H 244.051 -3.51353 -0.156204 0
M  V30 2586 H 243.925 -3.26508 -1.88871 0
M  V30 2587 H 246.312 -2.27326 -1.88167 0
M  V30 2588 H 246.393 -2.55435 -0.136605 0
M  V30 2589 H 246.037 -5.04972 -0.544581 0
M  V30 2590 H 245.967 -4.73848 -2.2973 0
M  V30 2591 H 248.458 -3.55705 -1.27601 0
M  V30 2592 H 248.771 -7.46141 -2.01231 0
M  V30 2593 H 247.116 -6.70843 -1.81644 0
M  V30 2594 H 250.307 -4.43381 -1.50102 0
M  V30 2595 H 250.48 -6.21416 -1.837 0
M  V30 2596 N 243.887 0.651787 -1.4349 0
M  V30 2597 C 244.817 1.77621 -1.51569 0
M  V30 2598 C 245.798 1.66022 -0.370253 0
M  V30 2599 O 246.983 1.85095 -0.587658 0
M  V30 2600 C 244.113 3.16056 -1.43966 0
M  V30 2601 C 243.067 3.4242 -2.56774 0
M  V30 2602 C 242.393 4.8067 -2.34223 0
M  V30 2603 C 243.693 3.37023 -3.99015 0
M  V30 2604 H 245.387 1.71117 -2.45681 0
M  V30 2605 H 242.933 0.821825 -1.18246 0
M  V30 2606 H 244.886 3.94472 -1.48221 0
M  V30 2607 H 243.61 3.23293 -0.463586 0
M  V30 2608 H 242.269 2.66375 -2.51873 0
M  V30 2609 H 241.917 4.84585 -1.34856 0
M  V30 2610 H 241.617 4.9927 -3.09844 0
M  V30 2611 H 243.141 5.61342 -2.40265 0
M  V30 2612 H 244.555 4.05374 -4.05395 0
M  V30 2613 H 242.952 3.67159 -4.74673 0
M  V30 2614 H 244.022 2.3518 -4.2405 0
M  V30 2615 N 245.365 1.30045 0.890287 0
M  V30 2616 C 246.328 1.15963 1.977 0
M  V30 2617 C 247.328 0.0923777 1.60534 0
M  V30 2618 O 248.518 0.340071 1.70848 0
M  V30 2619 C 245.65 0.775451 3.31963 0
M  V30 2620 H 246.843 2.12502 2.11619 0
M  V30 2621 H 244.396 1.13366 1.07601 0
M  V30 2622 H 245.131 -0.189671 3.23745 0
M  V30 2623 H 244.916 1.54668 3.60306 0
M  V30 2624 H 246.406 0.700251 4.11687 0
M  V30 2625 N 246.843 -1.10192 1.12674 0
M  V30 2626 C 248.089 -1.82475 0.884915 0
M  V30 2627 C 248.422 -1.85093 -0.58773 0
M  V30 2628 O 247.697 -1.3134 -1.43457 0
M  V30 2629 C 247.98 -3.29018 1.46353 0
M  V30 2630 C 247.833 -3.34718 3.00473 0
M  V30 2631 C 249.152 -4.25473 1.12519 0
M  V30 2632 H 246.271 -0.662492 0.322915 0
M  V30 2633 H 248.913 -1.2913 1.39375 0
M  V30 2634 H 247.063 -3.74576 1.03077 0
M  V30 2635 H 248.735 -2.97622 3.52447 0
M  V30 2636 H 246.978 -2.74541 3.35872 0
M  V30 2637 H 247.649 -4.37918 3.36053 0
M  V30 2638 H 250.125 -3.88161 1.499 0
M  V30 2639 H 249.001 -5.26365 1.55663 0
M  V30 2640 H 249.262 -4.42084 0.0377407 0
M  V30 2641 N 248.321 -0.919034 -1.28029 0
M  V30 2642 C 249.284 -0.416182 -2.2539 0
M  V30 2643 C 250.284 0.460438 -1.54067 0
M  V30 2644 O 251.474 0.262744 -1.72207 0
M  V30 2645 C 248.606 0.402707 -3.38513 0
M  V30 2646 H 249.799 -1.27629 -2.71387 0
M  V30 2647 H 247.352 -0.698919 -1.39803 0
M  V30 2648 H 248.087 1.282 -2.97885 0
M  V30 2649 H 247.872 -0.225698 -3.9145 0
M  V30 2650 H 249.362 0.745191 -4.10897 0
M  V30 2651 N 249.799 1.42003 -0.683588 0
M  V30 2652 C 251.076 1.95112 -0.138075 0
M  V30 2653 C 251.456 1.62359 1.34918 0
M  V30 2654 O 250.804 0.924311 2.08971 0
M  V30 2655 C 251.014 3.46505 -0.416581 0
M  V30 2656 C 252.362 4.23254 -0.337834 0
M  V30 2657 O 253.386 3.54468 -0.35082 0
M  V30 2658 O 252.245 5.45743 -0.287596 0
M  V30 2659 H 249.339 0.826961 -0.00797996 0
M  V30 2660 H 251.885 1.51784 -0.758924 0
M  V30 2661 H 250.657 3.63582 -1.4465 0
M  V30 2662 H 250.28 3.969 0.235839 0
M  V30 2663 N 251.277 0.427512 1.51691 0
M  V30 2664 C 252.554 -0.201684 1.94557 0
M  V30 2665 C 252.934 -1.60981 1.36559 0
M  V30 2666 O 252.282 -2.21814 0.548702 0
M  V30 2667 C 252.492 -0.189394 3.48486 0
M  V30 2668 C 253.84 -0.39978 4.22714 0
M  V30 2669 O 254.864 -0.267945 3.55191 0
M  V30 2670 O 253.723 -0.661249 5.42485 0
M  V30 2671 H 250.817 -0.135261 0.815864 0
M  V30 2672 H 253.363 0.484782 1.62628 0
M  V30 2673 H 252.135 0.795431 3.8313 0
M  V30 2674 H 251.758 -0.919187 3.86829 0
M  V30 2675 N 252.755 -1.56801 0.158532 0
M  V30 2676 C 254.001 -1.96781 -0.490405 0
M  V30 2677 C 254.334 -1.04397 -1.63753 0
M  V30 2678 O 253.609 -0.0885805 -1.94298 0
M  V30 2679 C 253.892 -3.4635 -0.985594 0
M  V30 2680 C 253.745 -4.49512 0.160824 0
M  V30 2681 C 255.064 -3.98697 -1.86355 0
M  V30 2682 H 252.183 -0.715482 -0.176788 0
M  V30 2683 H 254.825 -1.88451 0.242088 0
M  V30 2684 H 252.975 -3.53579 -1.60978 0
M  V30 2685 H 254.647 -4.54353 0.797537 0
M  V30 2686 H 252.89 -4.26013 0.818256 0
M  V30 2687 H 253.561 -5.51531 -0.227569 0
M  V30 2688 H 256.037 -3.94019 -1.33746 0
M  V30 2689 H 254.913 -5.03792 -2.17909 0
M  V30 2690 H 255.174 -3.41744 -2.8047 0
M  V30 2691 N 254.233 0.115231 -1.57178 0
M  V30 2692 C 255.482 0.820945 -1.84237 0
M  V30 2693 C 255.795 1.80866 -0.744761 0
M  V30 2694 O 257.001 2.56083 -0.901871 0
M  V30 2695 C 255.457 1.51072 -3.26658 0
M  V30 2696 C 255.065 0.563795 -4.44438 0
M  V30 2697 C 256.809 2.20134 -3.62962 0
M  V30 2698 C 254.716 1.25701 -5.77887 0
M  V30 2699 H 253.646 0.310328 -0.687177 0
M  V30 2700 H 256.297 0.0737134 -1.83352 0
M  V30 2701 H 254.679 2.30471 -3.22024 0
M  V30 2702 H 255.853 -0.197247 -4.60378 0
M  V30 2703 H 254.168 -0.0200638 -4.16395 0
M  V30 2704 H 256.765 2.72696 -4.59936 0
M  V30 2705 H 257.108 2.98107 -2.90582 0
M  V30 2706 H 257.641 1.47619 -3.69396 0
M  V30 2707 H 254.38 0.518493 -6.53446 0
M  V30 2708 H 253.9 1.98997 -5.65827 0
M  V30 2709 H 255.579 1.78915 -6.2177 0
M  V30 2710 N 255.711 1.52812 0.385517 0
M  V30 2711 C 256.988 1.5861 1.14465 0
M  V30 2712 C 257.368 0.381402 2.07626 0
M  V30 2713 O 256.716 -0.629999 2.19643 0
M  V30 2714 C 256.926 2.92664 1.90128 0
M  V30 2715 C 258.274 3.46526 2.45367 0
M  V30 2716 O 259.298 2.94562 2.0028 0
M  V30 2717 O 258.157 4.37323 3.27736 0
M  V30 2718 H 255.251 0.639855 0.523941 0
M  V30 2719 H 257.797 1.65149 0.390389 0
M  V30 2720 H 256.569 3.71788 1.22022 0
M  V30 2721 H 256.192 2.89527 2.72507 0
M  V30 2722 N 257.189 -0.644168 1.43834 0
M  V30 2723 C 258.137 -1.77793 1.49974 0
M  V30 2724 C 259.131 -1.65253 0.372536 0
M  V30 2725 O 260.337 -1.7149 0.546924 0
M  V30 2726 H 256.712 -0.58675 0.47035 0
M  V30 2727 H 258.683 -1.69736 2.45423 0
M  V30 2728 C 257.432 -3.16087 1.4486 0
M  V30 2729 H 256.755 -3.26378 2.30905 0
M  V30 2730 H 258.195 -3.95349 1.53217 0
M  V30 2731 C 256.654 -3.36484 0.167463 0
M  V30 2732 O 257.184 -3.94298 -0.767609 0
M  V30 2733 N 255.39 -2.90504 0.0747556 0
M  V30 2734 H 254.937 -2.4364 0.836507 0
M  V30 2735 H 254.895 -3.04527 -0.781714 0
M  V30 2736 N 258.668 -1.30515 -0.883378 0
M  V30 2737 C 259.616 -1.16941 -2.01066 0
M  V30 2738 C 260.61 -0.0809148 -1.69207 0
M  V30 2739 O 261.816 -0.241877 -1.78367 0
M  V30 2740 H 258.191 -0.361705 -0.659298 0
M  V30 2741 H 260.162 -2.12344 -2.09649 0
M  V30 2742 C 258.911 -0.879694 -3.36388 0
M  V30 2743 H 258.234 -1.70936 -3.61415 0
M  V30 2744 H 259.674 -0.82483 -4.159 0
M  V30 2745 C 258.133 0.417409 -3.34304 0
M  V30 2746 O 258.663 1.43843 -3.75063 0
M  V30 2747 N 256.869 0.429141 -2.87414 0
M  V30 2748 H 256.416 -0.402222 -2.5444 0
M  V30 2749 H 256.374 1.29696 -2.86403 0
M  V30 2750 N 260.146 1.09593 -1.13257 0
M  V30 2751 C 261.394 1.81375 -0.891492 0
M  V30 2752 C 261.715 1.86049 0.584009 0
M  V30 2753 O 260.985 1.34481 1.42449 0
M  V30 2754 H 259.565 0.671708 -0.326828 0
M  V30 2755 H 262.227 1.3256 -1.42877 0
M  V30 2756 H 261.323 2.84612 -1.28071 0
M  V30 2757 N 261.624 0.925811 1.2754 0
M  V30 2758 C 262.587 0.428129 2.25166 0
M  V30 2759 C 263.587 -0.452261 1.54309 0
M  V30 2760 O 264.777 -0.253608 1.72344 0
M  V30 2761 C 261.909 -0.384749 3.38722 0
M  V30 2762 H 263.102 1.29066 2.70706 0
M  V30 2763 H 260.655 0.706323 1.3943 0
M  V30 2764 H 261.39 -1.26618 2.98561 0
M  V30 2765 H 261.175 0.246454 3.91325 0
M  V30 2766 H 262.665 -0.723389 4.11287 0
M  V30 2767 N 263.102 -1.41638 0.69111 0
M  V30 2768 C 264.513 -1.84346 0.295517 0
M  V30 2769 C 264.864 -1.57833 -1.16547 0
M  V30 2770 O 263.989 -1.04648 -1.89414 0
M  V30 2771 C 264.584 -3.34636 0.529575 0
M  V30 2772 C 263.143 -3.7593 0.187944 0
M  V30 2773 C 262.29 -2.65082 0.814052 0
M  V30 2774 H 265.241 -1.31253 0.892092 0
M  V30 2775 H 265.262 -3.79903 -0.213148 0
M  V30 2776 H 264.774 -3.53901 1.59297 0
M  V30 2777 H 262.875 -3.62268 -0.871367 0
M  V30 2778 H 262.988 -4.74808 0.63985 0
M  V30 2779 H 261.352 -2.53528 0.244017 0
M  V30 2780 H 262.135 -2.87167 1.88123 0
M  V30 2781 N 264.58 -0.43555 -1.51462 0
M  V30 2782 C 265.857 0.191364 -1.94662 0
M  V30 2783 C 266.237 1.60254 -1.37411 0
M  V30 2784 O 265.585 2.2152 -0.560458 0
M  V30 2785 C 265.795 0.17091 -3.48581 0
M  V30 2786 C 267.143 0.377357 -4.2292 0
M  V30 2787 O 268.167 0.249104 -3.55328 0
M  V30 2788 O 267.026 0.63247 -5.42828 0
M  V30 2789 H 264.12 0.130932 -0.816569 0
M  V30 2790 H 266.666 -0.4934 -1.62369 0
M  V30 2791 H 265.438 -0.815738 -3.82703 0
M  V30 2792 H 265.061 0.898659 -3.87311 0
M  V30 2793 N 266.058 1.56714 -0.166846 0
M  V30 2794 C 267.021 2.16539 0.751232 0
M  V30 2795 C 268.021 1.11228 1.16125 0
M  V30 2796 O 269.211 1.36765 1.07894 0
M  V30 2797 C 266.343 2.74462 2.02196 0
M  V30 2798 H 267.536 2.99013 0.230499 0
M  V30 2799 H 265.089 1.56081 0.0826982 0
M  V30 2800 H 265.824 1.95709 2.58589 0
M  V30 2801 H 265.609 3.51527 1.73698 0
M  V30 2802 H 267.099 3.20489 2.67725 0
M  V30 2803 N 267.536 -0.106894 1.57237 0
M  V30 2804 C 268.785 -0.811163 1.8467 0
M  V30 2805 C 269.098 -1.80469 0.754342 0
M  V30 2806 O 270.304 -2.55601 0.915439 0
M  V30 2807 C 268.76 -1.49337 3.27454 0
M  V30 2808 C 268.368 -0.540217 4.44731 0
M  V30 2809 C 270.112 -2.18206 3.64124 0
M  V30 2810 C 268.019 -1.22634 5.78545 0
M  V30 2811 H 266.949 -0.306679 0.688813 0
M  V30 2812 H 269.6 -0.0639887 1.83388 0
M  V30 2813 H 267.982 -2.2876 3.23241 0
M  V30 2814 H 269.156 0.221659 4.60267 0
M  V30 2815 H 267.471 0.042146 4.16379 0
M  V30 2816 H 270.068 -2.70253 4.61376 0
M  V30 2817 H 270.411 -2.96562 2.92158 0
M  V30 2818 H 270.944 -1.45658 3.70174 0
M  V30 2819 H 267.683 -0.483832 6.53712 0
M  V30 2820 H 267.203 -1.95993 5.66874 0
M  V30 2821 H 268.882 -1.75615 6.2271 0
M  V30 2822 N 269.014 -1.53014 -0.377408 0
M  V30 2823 C 269.977 -1.77957 -1.44444 0
M  V30 2824 C 270.977 -0.649763 -1.47087 0
M  V30 2825 O 272.167 -0.917897 -1.48055 0
M  V30 2826 C 269.299 -1.89089 -2.83651 0
M  V30 2827 H 270.492 -2.73243 -1.23606 0
M  V30 2828 H 268.045 -1.43912 -0.609844 0
M  V30 2829 H 268.78 -0.958293 -3.09818 0
M  V30 2830 H 268.565 -2.71254 -2.83132 0
M  V30 2831 H 270.055 -2.1002 -3.60945 0
M  V30 2832 N 270.492 0.636531 -1.44174 0
M  V30 2833 C 271.717 1.42847 -1.50364 0
M  V30 2834 C 272.142 1.87665 -0.127867 0
M  V30 2835 O 271.5 1.58408 0.88185 0
M  V30 2836 C 271.548 2.62854 -2.4686 0
M  V30 2837 O 270.652 3.62501 -1.9664 0
M  V30 2838 H 269.993 0.427642 -0.507955 0
M  V30 2839 H 272.523 0.777422 -1.89255 0
M  V30 2840 H 272.533 3.10465 -2.64718 0
M  V30 2841 H 271.208 2.29578 -3.46795 0
M  V30 2842 H 269.785 3.21735 -1.88523 0
M  V30 2843 N 271.97 1.30982 0.876444 0
M  V30 2844 C 273.247 1.10942 1.61094 0
M  V30 2845 C 273.627 -0.338223 2.08373 0
M  V30 2846 O 272.975 -1.33122 1.85717 0
M  V30 2847 C 273.185 2.11789 2.77392 0
M  V30 2848 C 274.533 2.43965 3.47514 0
M  V30 2849 O 275.557 2.10166 2.87591 0
M  V30 2850 O 274.416 3.01817 4.55597 0
M  V30 2851 H 271.51 0.42667 0.708436 0
M  V30 2852 H 274.056 1.42438 0.922474 0
M  V30 2853 H 272.828 3.09194 2.39823 0
M  V30 2854 H 272.451 1.81161 3.5393 0
M  V30 2855 N 273.449 -1.08991 1.13837 0
M  V30 2856 C 274.695 -1.81526 0.90422 0
M  V30 2857 C 275.028 -1.85706 -0.568066 0
M  V30 2858 O 274.303 -1.32855 -1.42056 0
M  V30 2859 C 274.586 -3.27447 1.49835 0
M  V30 2860 C 274.439 -3.31512 3.04006 0
M  V30 2861 C 275.758 -4.24256 1.17025 0
M  V30 2862 H 272.877 -0.659029 0.329923 0
M  V30 2863 H 275.519 -1.27644 1.40737 0
M  V30 2864 H 273.669 -3.73462 1.07044 0
M  V30 2865 H 275.341 -2.93867 3.55584 0
M  V30 2866 H 273.584 -2.70963 3.38765 0
M  V30 2867 H 274.255 -4.34329 3.40679 0
M  V30 2868 H 276.731 -3.86549 1.54009 0
M  V30 2869 H 275.607 -5.24684 1.61237 0
M  V30 2870 H 275.868 -4.42019 0.0846274 0
M  V30 2871 N 274.927 -0.932562 -1.27047 0
M  V30 2872 C 275.89 -0.440064 -2.24936 0
M  V30 2873 C 276.89 0.444071 -1.54547 0
M  V30 2874 O 278.08 0.244465 -1.72476 0
M  V30 2875 C 275.212 0.36678 -3.38921 0
M  V30 2876 H 276.405 -1.305 -2.70018 0
M  V30 2877 H 273.958 -0.713707 -1.39054 0
M  V30 2878 H 274.693 1.25033 -2.99228 0
M  V30 2879 H 274.478 -0.267204 -3.91188 0
M  V30 2880 H 275.968 0.701567 -4.11665 0
M  V30 2881 N 276.405 1.4127 -0.698611 0
M  V30 2882 C 277.821 1.55241 -0.370462 0
M  V30 2883 C 278.021 1.67351 1.12231 0
M  V30 2884 O 277.077 1.65363 1.90818 0
M  V30 2885 C 278.39 2.78997 -1.12165 0
M  V30 2886 C 279.938 2.92797 -1.1063 0
M  V30 2887 C 280.413 4.19445 -1.8393 0
M  V30 2888 N 281.904 4.26409 -1.80914 0
M  V30 2889 C 282.639 5.23271 -2.34467 0
M  V30 2890 N 282.135 6.26145 -2.96504 0
M  V30 2891 N 283.928 5.15232 -2.24706 0
M  V30 2892 H 276.079 1.31654 -1.66676 0
M  V30 2893 H 278.342 0.635393 -0.703548 0
M  V30 2894 H 278.048 2.76268 -2.17644 0
M  V30 2895 H 277.922 3.70606 -0.702209 0
M  V30 2896 H 280.309 2.95039 -0.0597713 0
M  V30 2897 H 280.39 2.02353 -1.56483 0
M  V30 2898 H 280.034 4.17964 -2.88563 0
M  V30 2899 H 279.964 5.08866 -1.35509 0
M  V30 2900 H 282.455 3.527 -1.35687 0
M  V30 2901 H 282.768 6.96451 -3.34927 0
M  V30 2902 H 281.113 6.26638 -3.00583 0
M  V30 2903 H 284.304 4.33789 -1.7591 0
M  V30 2904 H 284.477 5.90552 -2.66745 0
M  V30 2905 N 277.883 0.443576 1.51229 0
M  V30 2906 C 278.813 -0.355142 2.30783 0
M  V30 2907 C 279.794 -1.0154 1.36468 0
M  V30 2908 O 280.979 -1.01785 1.65389 0
M  V30 2909 C 278.109 -1.45312 3.15439 0
M  V30 2910 C 277.063 -0.916002 4.18083 0
M  V30 2911 C 276.389 -2.1102 4.91299 0
M  V30 2912 C 277.689 0.0538602 5.22272 0
M  V30 2913 H 279.383 0.308767 2.97804 0
M  V30 2914 H 276.929 0.149937 1.43217 0
M  V30 2915 H 278.882 -2.01914 3.69876 0
M  V30 2916 H 277.606 -2.14541 2.46252 0
M  V30 2917 H 276.265 -0.372145 3.64706 0
M  V30 2918 H 275.913 -2.78882 4.18609 0
M  V30 2919 H 275.613 -1.75717 5.60712 0
M  V30 2920 H 277.137 -2.68164 5.48562 0
M  V30 2921 H 278.551 -0.422069 5.71744 0
M  V30 2922 H 276.948 0.319776 5.99247 0
M  V30 2923 H 278.018 0.98858 4.74716 0
M  V30 2924 N 279.361 -1.56624 0.175154 0
M  V30 2925 C 280.311 -2.14747 -0.766004 0
M  V30 2926 C 281.295 -1.08275 -1.19018 0
M  V30 2927 O 282.487 -1.34388 -1.15191 0
M  V30 2928 C 279.616 -2.79478 -1.99366 0
M  V30 2929 C 278.702 -3.93114 -1.5913 0
M  V30 2930 N 279.093 -4.97752 -0.89872 0
M  V30 2931 C 277.391 -4.04345 -1.88204 0
M  V30 2932 C 278.092 -5.77473 -0.700012 0
M  V30 2933 N 277.068 -5.29207 -1.24263 0
M  V30 2934 H 280.87 -2.93015 -0.22793 0
M  V30 2935 H 278.384 -1.6238 -0.0253843 0
M  V30 2936 H 280.381 -3.19498 -2.67818 0
M  V30 2937 H 279.041 -2.02692 -2.53665 0
M  V30 2938 H 280.052 -5.14903 -0.556347 0
M  V30 2939 H 276.729 -3.38667 -2.44153 0
M  V30 2940 H 278.119 -6.71728 -0.152047 0
M  V30 2941 N 280.839 0.0985539 -1.57292 0
M  V30 2942 C 281.802 1.10402 -2.00858 0
M  V30 2943 C 282.802 1.33146 -0.901593 0
M  V30 2944 O 283.992 1.29318 -1.16716 0
M  V30 2945 C 281.124 2.45394 -2.36632 0
M  V30 2946 H 282.317 0.729099 -2.90902 0
M  V30 2947 H 279.87 0.343495 -1.52479 0
M  V30 2948 H 280.605 2.87769 -1.49531 0
M  V30 2949 H 280.39 2.30235 -3.17387 0
M  V30 2950 H 281.88 3.17718 -2.71007 0
M  V30 2951 N 282.317 1.53212 0.369288 0
M  V30 2952 C 283.267 1.75769 1.45222 0
M  V30 2953 C 284.251 0.612136 1.48801 0
M  V30 2954 O 285.443 0.870674 1.54105 0
M  V30 2955 C 282.572 1.94769 2.82701 0
M  V30 2956 C 281.658 3.15315 2.83615 0
M  V30 2957 N 282.049 4.37295 2.54178 0
M  V30 2958 C 280.347 3.15962 3.14776 0
M  V30 2959 C 281.048 5.19015 2.62675 0
M  V30 2960 N 280.024 4.55142 2.97232 0
M  V30 2961 H 283.826 2.67691 1.2132 0
M  V30 2962 H 281.34 1.51787 0.577438 0
M  V30 2963 H 283.337 2.09056 3.60696 0
M  V30 2964 H 281.997 1.04073 3.07569 0
M  V30 2965 H 283.008 4.65091 2.27839 0
M  V30 2966 H 279.685 2.35144 3.44983 0
M  V30 2967 H 281.075 6.26305 2.43294 0
M  V30 2968 N 283.795 -0.628877 1.44509 0
M  V30 2969 C 285.025 -1.41349 1.50678 0
M  V30 2970 C 285.433 -1.88745 0.131075 0
M  V30 2971 O 284.776 -1.61592 -0.87371 0
M  V30 2972 C 284.838 -2.66608 2.41165 0
M  V30 2973 C 284.502 -2.40993 3.88293 0
M  V30 2974 C 285.499 -2.0268 4.78766 0
M  V30 2975 C 283.184 -2.54563 4.33016 0
M  V30 2976 C 285.178 -1.78269 6.11963 0
M  V30 2977 C 282.865 -2.29766 5.6626 0
M  V30 2978 C 283.863 -1.91678 6.55552 0
M  V30 2979 O 283.551 -1.67158 7.86329 0
M  V30 2980 H 283.283 -0.439851 0.51333 0
M  V30 2981 H 285.837 -0.776084 1.90174 0
M  V30 2982 H 284.067 -3.32994 1.96601 0
M  V30 2983 H 285.756 -3.28615 2.38259 0
M  V30 2984 H 286.522 -1.91751 4.45485 0
M  V30 2985 H 282.401 -2.83179 3.63773 0
M  V30 2986 H 285.945 -1.48465 6.81619 0
M  V30 2987 H 281.842 -2.40306 5.99102 0
M  V30 2988 H 282.61 -1.81386 7.98149 0
M  V30 2989 N 285.273 -1.31445 -0.869486 0
M  V30 2990 C 286.203 -1.21727 -1.99261 0
M  V30 2991 C 287.184 -0.104359 -1.6978 0
M  V30 2992 O 288.369 -0.289038 -1.92037 0
M  V30 2993 C 285.499 -0.924317 -3.34774 0
M  V30 2994 C 284.453 -1.99685 -3.78563 0
M  V30 2995 C 283.779 -1.55658 -5.11541 0
M  V30 2996 C 285.079 -3.41003 -3.95619 0
M  V30 2997 H 286.773 -2.1569 -2.07649 0
M  V30 2998 H 284.319 -1.03839 -0.997675 0
M  V30 2999 H 286.272 -0.842934 -4.12883 0
M  V30 3000 H 284.996 0.0509793 -3.2656 0
M  V30 3001 H 283.655 -2.06813 -3.02694 0
M  V30 3002 H 283.303 -0.569132 -4.9977 0
M  V30 3003 H 283.003 -2.27409 -5.41811 0
M  V30 3004 H 284.527 -1.48928 -5.92159 0
M  V30 3005 H 285.941 -3.36547 -4.64122 0
M  V30 3006 H 284.338 -4.10975 -4.37286 0
M  V30 3007 H 285.408 -3.81754 -2.98985 0
M  V30 3008 N 286.751 1.08385 -1.14413 0
M  V30 3009 C 287.683 2.1519 -0.789036 0
M  V30 3010 C 288.696 1.61638 0.19417 0
M  V30 3011 O 289.885 1.78479 -0.0275711 0
M  V30 3012 C 286.985 3.38565 -0.15058 0
M  V30 3013 C 286.158 4.21501 -1.16857 0
M  V30 3014 C 285.217 5.23277 -0.553832 0
M  V30 3015 O 284.243 5.56041 -1.21686 0
M  V30 3016 N 285.445 5.76629 0.669296 0
M  V30 3017 H 288.21 2.46257 -1.70814 0
M  V30 3018 H 285.771 1.24198 -1.03858 0
M  V30 3019 H 287.763 4.03777 0.273181 0
M  V30 3020 H 286.333 3.05299 0.671667 0
M  V30 3021 H 285.553 3.52265 -1.76926 0
M  V30 3022 H 286.841 4.73731 -1.85624 0
M  V30 3023 H 286.239 5.52243 1.22654 0
M  V30 3024 H 284.796 6.43521 1.03556 0
M  V30 3025 N 288.23 0.939286 1.26551 0
M  V30 3026 C 289.16 0.465044 2.28822 0
M  V30 3027 C 290.141 -0.480692 1.63167 0
M  V30 3028 O 291.326 -0.382955 1.90387 0
M  V30 3029 C 288.456 -0.27234 3.46231 0
M  V30 3030 C 287.41 0.58666 4.2396 0
M  V30 3031 C 286.736 -0.280573 5.33963 0
M  V30 3032 C 288.036 1.85704 4.88171 0
M  V30 3033 H 289.73 1.31979 2.68741 0
M  V30 3034 H 287.276 0.636061 1.29191 0
M  V30 3035 H 289.229 -0.615133 4.16886 0
M  V30 3036 H 287.953 -1.16121 3.0526 0
M  V30 3037 H 286.612 0.91232 3.55067 0
M  V30 3038 H 286.26 -1.16874 4.89234 0
M  V30 3039 H 285.96 0.29076 5.8688 0
M  V30 3040 H 287.484 -0.618678 6.07458 0
M  V30 3041 H 288.898 1.58161 5.51052 0
M  V30 3042 H 287.295 2.37279 5.51197 0
M  V30 3043 H 288.365 2.56957 4.11219 0
M  V30 3044 N 289.708 -1.40897 0.706093 0
M  V30 3045 C 290.671 -2.29131 0.0562841 0
M  V30 3046 C 291.671 -1.44901 -0.697166 0
M  V30 3047 O 292.861 -1.65926 -0.530484 0
M  V30 3048 C 289.993 -3.27957 -0.93043 0
M  V30 3049 H 291.186 -2.88091 0.833284 0
M  V30 3050 H 288.739 -1.4906 0.470192 0
M  V30 3051 H 289.474 -2.73997 -1.73482 0
M  V30 3052 H 289.259 -3.90124 -0.393166 0
M  V30 3053 H 290.749 -3.94049 -1.38256 0
M  V30 3054 N 291.186 -0.45159 -1.50991 0
M  V30 3055 C 292.411 0.110667 -2.07105 0
M  V30 3056 C 292.836 1.3446 -1.31538 0
M  V30 3057 O 292.194 1.77743 -0.357365 0
M  V30 3058 C 292.242 0.397238 -3.58405 0
M  V30 3059 O 291.346 1.48124 -3.84881 0
M  V30 3060 H 290.687 -0.00439271 -0.663985 0
M  V30 3061 H 293.217 -0.637026 -1.9443 0
M  V30 3062 H 293.227 0.64351 -4.02893 0
M  V30 3063 H 291.902 -0.504553 -4.12828 0
M  V30 3064 H 290.479 1.22381 -3.52246 0
M  V30 3065 N 292.664 1.56529 -0.183458 0
M  V30 3066 C 293.596 2.15747 0.773697 0
M  V30 3067 C 294.609 1.1162 1.1851 0
M  V30 3068 O 295.798 1.3876 1.12285 0
M  V30 3069 C 292.898 2.6952 2.05456 0
M  V30 3070 C 292.071 3.98429 1.8048 0
M  V30 3071 C 291.13 4.37145 2.92901 0
M  V30 3072 O 290.156 5.04791 2.6301 0
M  V30 3073 N 291.358 3.99695 4.2098 0
M  V30 3074 H 294.123 2.98505 0.26736 0
M  V30 3075 H 291.684 1.619 -0.0010878 0
M  V30 3076 H 293.676 2.92412 2.79781 0
M  V30 3077 H 292.246 1.91282 2.47245 0
M  V30 3078 H 291.466 3.8379 0.899947 0
M  V30 3079 H 292.754 4.82597 1.61175 0
M  V30 3080 H 292.152 3.4526 4.48121 0
M  V30 3081 H 290.709 4.27562 4.9197 0
M  V30 3082 N 294.142 -0.090211 1.57342 0
M  V30 3083 C 295.389 -0.792807 1.86335 0
M  V30 3084 C 295.717 -1.78494 0.772662 0
M  V30 3085 O 294.972 -1.94305 -0.233258 0
M  V30 3086 C 295.271 -1.55222 3.21933 0
M  V30 3087 C 294.937 -0.701765 4.45406 0
M  V30 3088 C 293.599 -0.467334 4.78925 0
M  V30 3089 C 295.951 -0.11086 5.21082 0
M  V30 3090 C 293.279 0.367785 5.85546 0
M  V30 3091 C 295.631 0.711609 6.28585 0
M  V30 3092 C 294.295 0.956086 6.60617 0
M  V30 3093 H 293.565 -0.290109 0.681849 0
M  V30 3094 H 296.212 -0.0541332 1.91423 0
M  V30 3095 H 294.517 -2.3626 3.12551 0
M  V30 3096 H 296.214 -2.10032 3.41595 0
M  V30 3097 H 292.804 -0.894598 4.1916 0
M  V30 3098 H 296.988 -0.279129 4.95514 0
M  V30 3099 H 292.244 0.566128 6.08773 0
M  V30 3100 H 296.418 1.17632 6.86393 0
M  V30 3101 H 294.045 1.60499 7.43064 0
M  V30 3102 N 295.62 -1.53406 -0.361157 0
M  V30 3103 C 296.866 -1.70054 -1.10496 0
M  V30 3104 C 297.199 -0.453278 -1.88836 0
M  V30 3105 O 296.474 0.5495 -1.86576 0
M  V30 3106 C 296.757 -2.95317 -2.06058 0
M  V30 3107 C 296.61 -4.3021 -1.31298 0
M  V30 3108 C 297.929 -3.16193 -3.06121 0
M  V30 3109 H 295.048 -0.618799 -0.400321 0
M  V30 3110 H 297.69 -1.86052 -0.385318 0
M  V30 3111 H 295.84 -2.81809 -2.67425 0
M  V30 3112 H 297.512 -4.55538 -0.726807 0
M  V30 3113 H 295.755 -4.29421 -0.614853 0
M  V30 3114 H 296.426 -5.14 -2.01265 0
M  V30 3115 H 298.902 -3.28916 -2.5486 0
M  V30 3116 H 297.778 -4.05266 -3.70204 0
M  V30 3117 H 298.039 -2.31676 -3.76535 0
M  V30 3118 N 297.098 0.621204 -1.44841 0
M  V30 3119 C 298.323 1.41244 -1.51871 0
M  V30 3120 C 298.748 1.87519 -0.147764 0
M  V30 3121 O 298.106 1.59334 0.865 0
M  V30 3122 C 298.154 2.60221 -2.49634 0
M  V30 3123 O 297.258 3.60395 -2.00473 0
M  V30 3124 H 296.599 0.42223 -0.512463 0
M  V30 3125 H 299.129 0.757305 -1.90069 0
M  V30 3126 H 299.139 3.0764 -2.67996 0
M  V30 3127 H 297.814 2.25887 -3.4921 0
M  V30 3128 H 296.391 3.19717 -1.91925 0
M  V30 3129 N 298.576 1.31904 0.862503 0
M  V30 3130 C 299.508 1.16005 1.97675 0
M  V30 3131 C 300.521 0.0971234 1.6251 0
M  V30 3132 O 301.71 0.345337 1.75128 0
M  V30 3133 C 298.81 0.751791 3.30456 0
M  V30 3134 C 297.983 1.90133 3.93914 0
M  V30 3135 C 297.042 1.4779 5.05019 0
M  V30 3136 O 296.068 2.18872 5.25437 0
M  V30 3137 N 297.27 0.369491 5.79323 0
M  V30 3138 H 300.035 2.11982 2.11857 0
M  V30 3139 H 297.596 1.24337 1.03691 0
M  V30 3140 H 299.588 0.451084 4.02178 0
M  V30 3141 H 298.158 -0.116593 3.12382 0
M  V30 3142 H 297.378 2.36896 3.15078 0
M  V30 3143 H 298.666 2.67111 4.33047 0
M  V30 3144 H 298.064 -0.222299 5.65263 0
M  V30 3145 H 296.621 0.128354 6.51674 0
M  V30 3146 N 300.054 -1.07777 1.14986 0
M  V30 3147 C 300.964 -2.18404 0.856546 0
M  V30 3148 C 301.98 -1.73211 -0.165485 0
M  V30 3149 O 303.156 -2.01399 0.00755219 0
M  V30 3150 C 300.221 -3.44977 0.34526 0
M  V30 3151 C 299.282 -4.0476 1.43065 0
M  V30 3152 C 298.515 -5.25291 0.943663 0
M  V30 3153 O 298.738 -5.70004 -0.212426 0
M  V30 3154 O 297.672 -5.76638 1.72547 0
M  V30 3155 H 301.498 -2.45978 1.78125 0
M  V30 3156 H 299.083 -1.17033 0.928631 0
M  V30 3157 H 300.965 -4.21348 0.0663671 0
M  V30 3158 H 299.64 -3.18965 -0.551631 0
M  V30 3159 H 298.547 -3.29949 1.76309 0
M  V30 3160 H 299.88 -4.35035 2.30229 0
M  V30 3161 N 301.532 -0.945985 -1.26051 0
M  V30 3162 C 302.479 -0.45809 -2.26208 0
M  V30 3163 C 303.449 0.484816 -1.58867 0
M  V30 3164 O 304.634 0.399969 -1.86561 0
M  V30 3165 C 301.774 0.266131 -3.44072 0
M  V30 3166 C 300.887 -0.713005 -4.26075 0
M  V30 3167 C 300.022 0.0329013 -5.3119 0
M  V30 3168 C 299.061 -0.93774 -6.04874 0
M  V30 3169 N 298.198 -0.223274 -7.01745 0
M  V30 3170 H 303.038 -1.3171 -2.67313 0
M  V30 3171 H 300.575 -0.66069 -1.31428 0
M  V30 3172 H 302.533 0.702514 -4.11243 0
M  V30 3173 H 301.163 1.08925 -3.03867 0
M  V30 3174 H 300.215 -1.26789 -3.58648 0
M  V30 3175 H 301.527 -1.45406 -4.77136 0
M  V30 3176 H 300.681 0.528335 -6.04395 0
M  V30 3177 H 299.42 0.806801 -4.8098 0
M  V30 3178 H 298.425 -1.44425 -5.30492 0
M  V30 3179 H 299.65 -1.71172 -6.57173 0
M  V30 3180 H 297.596 0.532046 -6.53839 0
M  V30 3181 H 297.513 -0.90357 -7.50581 0
M  V30 3182 H 298.781 0.250907 -7.79096 0
M  V30 3183 N 303.011 1.40521 -0.713556 0
M  V30 3184 C 304.422 1.83853 -0.324807 0
M  V30 3185 C 304.773 1.59667 1.14021 0
M  V30 3186 O 303.898 1.07649 1.87725 0
M  V30 3187 C 304.493 3.33751 -0.582746 0
M  V30 3188 C 303.052 3.75584 -0.247727 0
M  V30 3189 C 302.199 2.63753 -0.856121 0
M  V30 3190 H 305.15 1.29817 -0.91286 0
M  V30 3191 H 305.171 3.80194 0.152682 0
M  V30 3192 H 304.683 3.51322 -1.64908 0
M  V30 3193 H 302.784 3.63608 0.813624 0
M  V30 3194 H 302.897 4.7373 -0.715307 0
M  V30 3195 H 301.261 2.53108 -0.28432 0
M  V30 3196 H 302.044 2.84137 -1.92668 0
M  V30 3197 O 304.528 0.601524 1.4988 0
M  V30 3198 H 305.219 0.111623 1.93378 0
M  V30 END ATOM
M  V30 BEGIN BOND
M  V30 END BOND
M  V30 END CTAB
M  END
$$$$
