drugbank_target|Q15800 Methylsterol monooxygenase 1 (DB00157)
 OpenBabel12092119243D

  0  0  0     0  0            999 V3000
M  V30 BEGIN CTAB
M  V30 COUNTS 4909 5006 0 0 0
M  V30 BEGIN ATOM
M  V30 1 H -0.908 1.98254 -0.117106 0
M  V30 2 N 0 1.576 0 0
M  V30 3 C 0.933 2.03868 1.02534 0
M  V30 4 C 1.911 0.928543 1.3348 0
M  V30 5 O 3.095 1.19667 1.45644 0
M  V30 6 C 0.222 2.43627 2.35294 0
M  V30 7 C -0.732 3.65373 2.2001 0
M  V30 8 S 0.101 5.13292 1.52614 0
M  V30 9 C 1.257 5.56322 2.86805 0
M  V30 10 H 1.49 2.90518 0.631377 0
M  V30 11 H -0.977 1.52953 0.210867 0
M  V30 12 H 0.981 2.67203 3.11629 0
M  V30 13 H -0.358 1.57376 2.7183 0
M  V30 14 H -1.165 3.90944 3.18086 0
M  V30 15 H -1.563 3.418 1.51819 0
M  V30 16 H 0.729 5.58782 3.83104 0
M  V30 17 H 1.672 6.56266 2.65933 0
M  V30 18 H 2.08 4.83886 2.90714 0
M  V30 19 N 1.4781 -0.272755 1.55222 0
M  V30 20 C 2.4411 -1.32041 1.87344 0
M  V30 21 C 3.4411 -1.42342 0.74803 0
M  V30 22 O 4.6311 -1.41488 1.0162 0
M  V30 23 C 1.7631 -2.70173 2.07893 0
M  V30 24 H 2.9561 -1.04789 2.80997 0
M  V30 25 H 0.5091 -0.51083 1.47717 0
M  V30 26 H 1.2441 -3.02605 1.16622 0
M  V30 27 H 1.0291 -2.64082 2.89833 0
M  V30 28 H 2.5191 -3.45869 2.34017 0
M  V30 29 N 2.9562 -1.48159 -0.537278 0
M  V30 30 C 4.1842 -1.59454 -1.31841 0
M  V30 31 C 4.5992 -0.252065 -1.8711 0
M  V30 32 O 3.9562 0.757621 -1.66031 0
M  V30 33 C 4.0072 -2.63546 -2.47439 0
M  V30 34 O 3.7282 -3.92583 -1.94449 0
M  V30 35 C 5.2292 -2.85212 -3.39366 0
M  V30 36 H 2.4492 -0.53785 -0.401196 0
M  V30 37 H 4.9932 -1.93932 -0.648891 0
M  V30 38 H 3.1482 -2.31946 -3.1029 0
M  V30 39 H 3.5622 -4.49629 -2.70063 0
M  V30 40 H 5.0362 -3.61863 -4.16844 0
M  V30 41 H 5.5132 -1.93765 -3.94147 0
M  V30 42 H 6.1192 -3.18086 -2.82314 0
M  V30 43 N 4.4343 0.785586 -1.36625 0
M  V30 44 C 5.3823 1.91978 -1.31329 0
M  V30 45 C 6.3763 1.68162 -0.204416 0
M  V30 46 O 7.5823 1.76122 -0.371645 0
M  V30 47 H 3.9573 0.631087 -0.408942 0
M  V30 48 H 5.9283 1.93562 -2.27104 0
M  V30 49 C 4.6773 3.29055 -1.12329 0
M  V30 50 H 4.0003 3.4795 -1.96903 0
M  V30 51 H 5.4403 4.08756 -1.12671 0
M  V30 52 C 3.8993 3.36461 0.171861 0
M  V30 53 O 4.4293 3.84576 1.16035 0
M  V30 54 N 2.6353 2.89782 0.217846 0
M  V30 55 H 2.1823 2.50819 -0.587183 0
M  V30 56 H 2.1403 2.95119 1.08408 0
M  V30 57 N 5.9124 1.20967 1.01018 0
M  V30 58 C 6.8224 0.980157 2.13143 0
M  V30 59 C 7.8384 -0.0660665 1.73875 0
M  V30 60 O 9.0144 0.122821 2.01025 0
M  V30 61 C 6.0794 0.54216 3.42435 0
M  V30 62 C 5.1404 1.65999 3.95908 0
M  V30 63 C 4.3734 1.2428 5.19028 0
M  V30 64 O 4.5964 0.114196 5.70286 0
M  V30 65 O 3.5304 2.05271 5.65816 0
M  V30 66 H 7.3564 1.91913 2.35379 0
M  V30 67 H 4.9414 0.994099 1.11526 0
M  V30 68 H 6.8234 0.30744 4.20277 0
M  V30 69 H 5.4984 -0.36815 3.216 0
M  V30 70 H 4.4054 1.94906 3.19316 0
M  V30 71 H 5.7384 2.54753 4.21143 0
M  V30 72 N 7.3905 -1.2043 1.01659 0
M  V30 73 C 8.6155 -1.94318 0.724942 0
M  V30 74 C 9.0405 -1.74266 -0.708034 0
M  V30 75 O 8.3985 -1.03694 -1.48719 0
M  V30 76 C 8.4465 -3.44486 1.06591 0
M  V30 77 O 7.5505 -4.12017 0.177599 0
M  V30 78 H 6.8915 -0.60708 0.26898 0
M  V30 79 H 9.4215 -1.52861 1.35995 0
M  V30 80 H 9.4315 -3.95106 1.01762 0
M  V30 81 H 8.1065 -3.58404 2.10997 0
M  V30 82 H 6.6835 -3.71821 0.283421 0
M  V30 83 N 8.8686 -0.792821 -1.36206 0
M  V30 84 C 10.1146 -0.36733 -1.99446 0
M  V30 85 C 10.4476 1.05917 -1.62774 0
M  V30 86 O 9.7226 1.7324 -0.88421 0
M  V30 87 C 10.0056 -0.535044 -3.56103 0
M  V30 88 C 9.8586 -2.00548 -4.02617 0
M  V30 89 C 11.1776 0.0478191 -4.40074 0
M  V30 90 H 8.2966 -0.134941 -0.724541 0
M  V30 91 H 10.9386 -0.999794 -1.61568 0
M  V30 92 H 9.0886 0.00336329 -3.885 0
M  V30 93 H 10.7606 -2.60521 -3.80692 0
M  V30 94 H 9.0036 -2.50686 -3.54032 0
M  V30 95 H 9.6746 -2.07377 -5.11565 0
M  V30 96 H 12.1506 -0.411822 -4.14057 0
M  V30 97 H 11.0266 -0.0995336 -5.4881 0
M  V30 98 H 11.2876 1.14025 -4.27142 0
M  V30 99 N 10.3467 1.47872 -0.545128 0
M  V30 100 C 11.5717 2.07391 -0.0190611 0
M  V30 101 C 11.9967 1.39688 1.25971 0
M  V30 102 O 11.3547 0.467816 1.7516 0
M  V30 103 C 11.4027 3.60188 0.172335 0
M  V30 104 O 10.5067 3.9339 1.23766 0
M  V30 105 H 9.8477 0.662411 -0.0459059 0
M  V30 106 H 12.3777 1.90066 -0.757365 0
M  V30 107 H 12.3877 4.06129 0.390305 0
M  V30 108 H 11.0627 4.08865 -0.761725 0
M  V30 109 H 9.6397 3.5921 1.00114 0
M  V30 110 N 11.8248 0.280983 1.55075 0
M  V30 111 C 13.0738 -0.334784 1.98902 0
M  V30 112 C 13.3868 -1.56534 1.17288 0
M  V30 113 O 14.5928 -2.25443 1.51287 0
M  V30 114 C 13.0488 -0.646994 3.54037 0
M  V30 115 C 12.6568 0.564085 4.44435 0
M  V30 116 C 14.4008 -1.22506 4.06439 0
M  V30 117 C 12.3078 0.226137 5.90967 0
M  V30 118 H 11.2378 -0.128866 0.742906 0
M  V30 119 H 13.8888 0.386556 1.79382 0
M  V30 120 H 12.2708 -1.42739 3.6938 0
M  V30 121 H 13.4448 1.34082 4.40861 0
M  V30 122 H 11.7598 1.0594 4.02698 0
M  V30 123 H 14.3568 -1.49182 5.13468 0
M  V30 124 H 14.6998 -2.16085 3.55827 0
M  V30 125 H 15.2328 -0.50682 3.94558 0
M  V30 126 H 11.9718 1.12996 6.45687 0
M  V30 127 H 11.4918 -0.513717 5.97596 0
M  V30 128 H 13.1708 -0.179539 6.46751 0
M  V30 129 N 13.3029 -1.57598 0.00835791 0
M  V30 130 C 14.5499 -1.90928 -0.674732 0
M  V30 131 C 14.8779 -0.88277 -1.73313 0
M  V30 132 O 14.1329 0.111294 -1.95383 0
M  V30 133 C 14.4319 -3.3101 -1.34787 0
M  V30 134 C 14.0979 -4.48922 -0.421861 0
M  V30 135 C 12.7599 -4.8091 -0.166927 0
M  V30 136 C 15.1119 -5.20755 0.215211 0
M  V30 137 C 12.4399 -5.821 0.733232 0
M  V30 138 C 14.7919 -6.22905 1.1033 0
M  V30 139 C 13.4559 -6.53346 1.36733 0
M  V30 140 H 12.7259 -0.698656 -0.246902 0
M  V30 141 H 15.3729 -1.91387 0.0656779 0
M  V30 142 H 13.6779 -3.26714 -2.16253 0
M  V30 143 H 15.3749 -3.54061 -1.8826 0
M  V30 144 H 11.9649 -4.23934 -0.630729 0
M  V30 145 H 16.1489 -4.9629 0.0312829 0
M  V30 146 H 11.4049 -6.04042 0.945712 0
M  V30 147 H 15.5789 -6.77694 1.60325 0
M  V30 148 H 13.2059 -7.31573 2.06652 0
M  V30 149 N 14.781 0.264519 -1.55364 0
M  V30 150 C 16.006 1.01726 -1.80739 0
M  V30 151 C 16.431 1.78836 -0.583044 0
M  V30 152 O 15.789 1.75167 0.467566 0
M  V30 153 C 15.837 1.94482 -3.03659 0
M  V30 154 O 14.941 3.03386 -2.7934 0
M  V30 155 H 14.282 0.290395 -0.597132 0
M  V30 156 H 16.812 0.290854 -2.02522 0
M  V30 157 H 16.822 2.36278 -3.32621 0
M  V30 158 H 15.497 1.37772 -3.92418 0
M  V30 159 H 14.074 2.65844 -2.61498 0
M  V30 160 N 16.2591 1.48442 0.529413 0
M  V30 161 C 17.4841 1.60406 1.31471 0
M  V30 162 C 17.9091 0.264738 1.86228 0
M  V30 163 O 17.2671 -0.763668 1.64432 0
M  V30 164 C 17.3151 2.65419 2.44101 0
M  V30 165 O 16.4191 2.22618 3.47153 0
M  V30 166 H 15.7601 0.537863 0.389357 0
M  V30 167 H 18.2901 1.94432 0.636965 0
M  V30 168 H 18.3001 2.86709 2.90279 0
M  V30 169 H 16.9751 3.62652 2.03608 0
M  V30 170 H 15.5521 2.11543 3.0709 0
M  V30 171 N 17.7372 -0.778329 1.37039 0
M  V30 172 C 18.7002 -1.87301 1.32102 0
M  V30 173 C 19.7002 -1.59198 0.226405 0
M  V30 174 O 20.8902 -1.67403 0.481861 0
M  V30 175 C 18.0222 -3.24309 1.05055 0
M  V30 176 H 19.2152 -1.93093 2.29467 0
M  V30 177 H 16.7682 -0.977358 1.21973 0
M  V30 178 H 17.5032 -3.24196 0.0819373 0
M  V30 179 H 17.2882 -3.46098 1.84279 0
M  V30 180 H 18.7782 -4.04382 1.04234 0
M  V30 181 N 19.2153 -1.21501 -1.00376 0
M  V30 182 C 20.4403 -1.05977 -1.78279 0
M  V30 183 C 20.8653 0.385994 -1.84097 0
M  V30 184 O 20.2233 1.27849 -1.28547 0
M  V30 185 C 20.2713 -1.66302 -3.19963 0
M  V30 186 O 19.3753 -0.909333 -4.0225 0
M  V30 187 H 18.7163 -0.372906 -0.549397 0
M  V30 188 H 21.2463 -1.6107 -1.26165 0
M  V30 189 H 21.2563 -1.70574 -3.70632 0
M  V30 190 H 19.9313 -2.71515 -3.15043 0
M  V30 191 H 18.5083 -0.941795 -3.60811 0
M  V30 192 N 20.6934 1.19889 -1.02296 0
M  V30 193 C 21.6234 2.25141 -0.619174 0
M  V30 194 C 22.6044 1.66051 0.368915 0
M  V30 195 O 23.7894 1.92546 0.252941 0
M  V30 196 C 20.9194 3.4728 0.0368783 0
M  V30 197 C 19.8734 4.19005 -0.872865 0
M  V30 198 C 19.1994 5.34637 -0.0822402 0
M  V30 199 C 20.4994 4.74452 -2.18387 0
M  V30 200 H 22.1934 2.59171 -1.49903 0
M  V30 201 H 19.7394 1.24579 -0.722222 0
M  V30 202 H 21.6924 4.20098 0.330958 0
M  V30 203 H 20.4164 3.12433 0.95149 0
M  V30 204 H 19.0754 3.48061 -1.15105 0
M  V30 205 H 18.7234 4.96034 0.83422 0
M  V30 206 H 18.4234 5.83557 -0.688149 0
M  V30 207 H 19.9474 6.10255 0.205238 0
M  V30 208 H 21.3614 5.39055 -1.95172 0
M  V30 209 H 19.7584 5.33834 -2.74119 0
M  V30 210 H 20.8284 3.92844 -2.84257 0
M  V30 211 N 22.1715 0.800033 1.35784 0
M  V30 212 C 23.1345 0.211565 2.28221 0
M  V30 213 C 24.1345 -0.59728 1.49296 0
M  V30 214 O 25.3245 -0.416721 1.69142 0
M  V30 215 C 22.4565 -0.705846 3.33513 0
M  V30 216 H 23.6495 1.02677 2.81776 0
M  V30 217 H 21.2025 0.570211 1.45528 0
M  V30 218 H 21.9375 -1.54498 2.85133 0
M  V30 219 H 21.7225 -0.127655 3.91892 0
M  V30 220 H 23.2125 -1.11211 4.02519 0
M  V30 221 N 23.6496 -1.47581 0.552962 0
M  V30 222 C 24.8956 -2.02782 0.0273648 0
M  V30 223 C 25.2286 -1.42687 -1.31734 0
M  V30 224 O 24.5036 -0.580897 -1.85623 0
M  V30 225 C 24.7866 -3.60031 -0.0702371 0
M  V30 226 C 24.6396 -4.30566 1.30126 0
M  V30 227 C 25.9586 -4.33028 -0.785771 0
M  V30 228 H 23.0776 -0.736912 0.0114185 0
M  V30 229 H 25.7196 -1.76056 0.714432 0
M  V30 230 H 23.8696 -3.82932 -0.655382 0
M  V30 231 H 25.5416 -4.19018 1.92929 0
M  V30 232 H 23.7846 -3.91086 1.87709 0
M  V30 233 H 24.4556 -5.39114 1.18573 0
M  V30 234 H 26.9316 -4.15095 -0.288982 0
M  V30 235 H 25.8076 -5.42695 -0.823013 0
M  V30 236 H 26.0686 -4.01945 -1.841 0
M  V30 237 N 25.1277 -0.289203 -1.54924 0
M  V30 238 C 26.0377 0.601863 -2.26748 0
M  V30 239 C 27.0537 1.15834 -1.2984 0
M  V30 240 O 28.2297 1.18564 -1.62802 0
M  V30 241 C 25.2947 1.76299 -2.98529 0
M  V30 242 C 24.3557 1.24178 -4.10948 0
M  V30 243 C 23.5887 2.34757 -4.79296 0
M  V30 244 O 23.8117 3.54411 -4.46933 0
M  V30 245 O 22.7457 2.02115 -5.66951 0
M  V30 246 H 26.5717 0.0195879 -3.03694 0
M  V30 247 H 24.1567 -0.0560868 -1.49295 0
M  V30 248 H 26.0387 2.43973 -3.43592 0
M  V30 249 H 24.7137 2.33209 -2.24488 0
M  V30 250 H 23.6207 0.531104 -3.70311 0
M  V30 251 H 24.9537 0.718252 -4.86931 0
M  V30 252 N 26.6058 1.57591 -0.0167156 0
M  V30 253 C 27.8358 1.95292 0.674149 0
M  V30 254 C 28.2438 0.891097 1.66901 0
M  V30 255 O 27.5868 -0.136908 1.83189 0
M  V30 256 C 27.6488 3.29072 1.44747 0
M  V30 257 C 27.3128 4.52879 0.612331 0
M  V30 258 C 28.3098 5.1979 -0.107126 0
M  V30 259 C 25.9948 4.99242 0.553381 0
M  V30 260 C 27.9888 6.31375 -0.874339 0
M  V30 261 C 25.6758 6.10713 -0.217546 0
M  V30 262 C 26.6738 6.76637 -0.930123 0
M  V30 263 O 26.3618 7.85969 -1.68844 0
M  V30 264 H 26.0938 0.648275 0.191615 0
M  V30 265 H 28.6478 2.05284 -0.0690148 0
M  V30 266 H 26.8778 3.15535 2.2355 0
M  V30 267 H 28.5668 3.51764 2.02526 0
M  V30 268 H 29.3328 4.84948 -0.0708392 0
M  V30 269 H 25.2118 4.47744 1.09757 0
M  V30 270 H 28.7558 6.82764 -1.43106 0
M  V30 271 H 24.6528 6.44994 -0.255593 0
M  V30 272 H 25.4208 8.02571 -1.6069 0
M  V30 273 N 28.0839 -0.256276 1.55502 0
M  V30 274 C 29.3299 -0.987079 1.77157 0
M  V30 275 C 29.6629 -1.85327 0.580315 0
M  V30 276 O 28.9379 -1.89874 -0.421686 0
M  V30 277 C 29.2209 -1.85553 3.08613 0
M  V30 278 C 29.0739 -1.01816 4.38125 0
M  V30 279 C 30.3929 -2.8397 3.36228 0
M  V30 280 H 27.5119 -0.357428 0.644526 0
M  V30 281 H 30.1539 -0.258239 1.88237 0
M  V30 282 H 28.3039 -2.47695 2.99298 0
M  V30 283 H 29.9759 -0.416159 4.59419 0
M  V30 284 H 28.2189 -0.322178 4.32602 0
M  V30 285 H 28.8899 -1.65939 5.26468 0
M  V30 286 H 31.3659 -2.31964 3.45445 0
M  V30 287 H 30.2419 -3.41864 4.29442 0
M  V30 288 H 30.5029 -3.59955 2.56681 0
M  V30 289 N 29.562 -1.4872 -0.521534 0
M  V30 290 C 30.839 -1.4766 -1.2828 0
M  V30 291 C 31.219 -0.19292 -2.10217 0
M  V30 292 O 30.567 0.825193 -2.13079 0
M  V30 293 C 30.777 -2.74358 -2.15705 0
M  V30 294 C 32.125 -3.23028 -2.75569 0
M  V30 295 O 33.149 -2.75333 -2.25987 0
M  V30 296 O 32.008 -4.0604 -3.65778 0
M  V30 297 H 29.102 -0.590085 -0.579421 0
M  V30 298 H 31.648 -1.60963 -0.537492 0
M  V30 299 H 30.42 -3.59292 -1.54999 0
M  V30 300 H 30.043 -2.63816 -2.97467 0
M  V30 301 N 31.0401 0.771051 -1.3745 0
M  V30 302 C 32.2651 1.56529 -1.36065 0
M  V30 303 C 32.6901 1.88029 0.0515859 0
M  V30 304 O 32.0481 1.49282 1.02882 0
M  V30 305 C 32.0961 2.85187 -2.20683 0
M  V30 306 O 31.2001 3.79593 -1.61193 0
M  V30 307 H 30.5411 0.47411 -0.464883 0
M  V30 308 H 33.0711 0.954269 -1.80983 0
M  V30 309 H 33.0811 3.34283 -2.33921 0
M  V30 310 H 31.7561 2.61588 -3.23334 0
M  V30 311 H 30.3331 3.38239 -1.56999 0
M  V30 312 N 32.5182 1.22032 0.997298 0
M  V30 313 C 33.4482 1.01065 2.10495 0
M  V30 314 C 34.4292 -0.0669542 1.69968 0
M  V30 315 O 35.6142 0.0943987 1.9397 0
M  V30 316 C 32.7442 0.582874 3.42374 0
M  V30 317 C 31.6982 1.60592 3.96729 0
M  V30 318 C 31.0242 1.03412 5.24605 0
M  V30 319 C 32.3242 2.99478 4.27914 0
M  V30 320 H 34.0182 1.93708 2.28292 0
M  V30 321 H 31.5642 0.932761 1.09707 0
M  V30 322 H 33.5172 0.423332 4.19268 0
M  V30 323 H 32.2412 -0.379213 3.24391 0
M  V30 324 H 30.9002 1.75316 3.21963 0
M  V30 325 H 30.5482 0.063518 5.0296 0
M  V30 326 H 30.2482 1.71754 5.61938 0
M  V30 327 H 31.7722 0.886066 6.04137 0
M  V30 328 H 33.1862 2.88153 4.95622 0
M  V30 329 H 31.5832 3.64903 4.76409 0
M  V30 330 H 32.6532 3.49742 3.3587 0
M  V30 331 N 33.9963 -1.19345 1.0293 0
M  V30 332 C 34.9263 -2.2481 0.631105 0
M  V30 333 C 35.9073 -1.66245 -0.360104 0
M  V30 334 O 37.0923 -1.92677 -0.242726 0
M  V30 335 C 34.2223 -3.47295 -0.0184607 0
M  V30 336 C 33.1763 -4.18536 0.895073 0
M  V30 337 C 32.5023 -5.34586 0.110592 0
M  V30 338 C 33.8023 -4.73287 2.209 0
M  V30 339 H 35.4963 -2.58372 1.51275 0
M  V30 340 H 33.0423 -1.24194 0.728818 0
M  V30 341 H 34.9953 -4.20268 -0.308675 0
M  V30 342 H 33.7193 -3.12933 -0.934907 0
M  V30 343 H 32.3783 -3.47446 1.16949 0
M  V30 344 H 32.0263 -4.96469 -0.807902 0
M  V30 345 H 31.7263 -5.83183 0.719087 0
M  V30 346 H 33.2503 -6.10355 -0.172871 0
M  V30 347 H 34.6643 -5.38013 1.98028 0
M  V30 348 H 33.0613 -5.32373 2.76946 0
M  V30 349 H 34.1313 -3.91331 2.86336 0
M  V30 350 N 35.4744 -0.807222 -1.35358 0
M  V30 351 C 36.8854 -0.44876 -1.81226 0
M  V30 352 C 37.2364 1.02929 -1.67033 0
M  V30 353 O 36.3614 1.79991 -1.20133 0
M  V30 354 C 36.9564 -0.807774 -3.2903 0
M  V30 355 C 35.5154 -0.501901 -3.73039 0
M  V30 356 C 34.6624 -1.03304 -2.57339 0
M  V30 357 H 37.6134 -0.998808 -1.23327 0
M  V30 358 H 37.6344 -0.10554 -3.80354 0
M  V30 359 H 37.1464 -1.88357 -3.39328 0
M  V30 360 H 35.2474 0.565128 -3.68289 0
M  V30 361 H 35.3604 -1.03497 -4.67787 0
M  V30 362 H 33.7244 -0.455339 -2.50597 0
M  V30 363 H 34.5074 -2.11496 -2.70415 0
M  V30 364 N 36.9525 1.47285 -0.560781 0
M  V30 365 C 37.8625 2.33846 0.187954 0
M  V30 366 C 38.8785 1.48412 0.908293 0
M  V30 367 O 40.0545 1.81332 0.876388 0
M  V30 368 C 37.1195 3.25178 1.2025 0
M  V30 369 C 36.1805 4.26504 0.489208 0
M  V30 370 C 35.4135 5.13472 1.45542 0
M  V30 371 O 35.6365 5.02959 2.6905 0
M  V30 372 O 34.5705 5.93902 0.977963 0
M  V30 373 H 38.3965 2.99177 -0.522177 0
M  V30 374 H 35.9815 1.45903 -0.321364 0
M  V30 375 H 37.8635 3.81584 1.78805 0
M  V30 376 H 36.5385 2.6247 1.89449 0
M  V30 377 H 35.4455 3.73847 -0.137627 0
M  V30 378 H 36.7785 4.91935 -0.161399 0
M  V30 379 N 38.4306 0.297415 1.54768 0
M  V30 380 C 39.3786 -0.596051 2.24833 0
M  V30 381 C 40.3726 -1.13992 1.25308 0
M  V30 382 O 41.5786 -1.09098 1.4317 0
M  V30 383 H 37.9536 -0.210814 0.721846 0
M  V30 384 H 39.9246 0.0174667 2.98395 0
M  V30 385 C 38.6736 -1.75818 2.99972 0
M  V30 386 H 37.9966 -1.3489 3.76357 0
M  V30 387 H 39.4366 -2.35949 3.52284 0
M  V30 388 C 37.8956 -2.66014 2.06732 0
M  V30 389 O 38.4256 -3.67009 1.63302 0
M  V30 390 N 36.6316 -2.33669 1.72763 0
M  V30 391 H 36.1786 -1.51586 2.08277 0
M  V30 392 H 36.1366 -2.94285 1.10652 0
M  V30 393 N 39.9087 -1.5758 0.0250728 0
M  V30 394 C 41.3197 -1.79476 -0.514323 0
M  V30 395 C 41.6707 -0.934956 -1.72491 0
M  V30 396 O 40.7957 -0.144245 -2.15919 0
M  V30 397 C 41.3907 -3.25503 -0.939842 0
M  V30 398 C 39.9497 -3.48408 -1.42438 0
M  V30 399 C 39.0967 -2.74583 -0.387201 0
M  V30 400 H 42.0477 -1.567 0.25113 0
M  V30 401 H 42.0687 -3.34992 -1.80445 0
M  V30 402 H 41.5807 -3.88056 -0.0585628 0
M  V30 403 H 39.6817 -2.91103 -2.32572 0
M  V30 404 H 39.7947 -4.57119 -1.43455 0
M  V30 405 H 38.1587 -2.39942 -0.854409 0
M  V30 406 H 38.9417 -3.39849 0.485543 0
M  V30 407 N 41.3868 0.248026 -1.55636 0
M  V30 408 C 42.3168 1.31079 -1.93237 0
M  V30 409 C 43.2978 1.50264 -0.797174 0
M  V30 410 O 44.4828 1.62891 -1.05737 0
M  V30 411 C 41.6128 2.66575 -2.22609 0
M  V30 412 C 40.5668 2.62087 -3.3837 0
M  V30 413 C 39.8928 4.01369 -3.53281 0
M  V30 414 C 41.1928 2.19171 -4.7409 0
M  V30 415 H 42.8868 0.998556 -2.82257 0
M  V30 416 H 40.4328 0.47891 -1.35803 0
M  V30 417 H 42.3858 3.41057 -2.47503 0
M  V30 418 H 41.1098 2.99432 -1.30414 0
M  V30 419 H 39.7688 1.90063 -3.13483 0
M  V30 420 H 39.4168 4.31489 -2.58508 0
M  V30 421 H 39.1168 3.99254 -4.31127 0
M  V30 422 H 40.6408 4.77552 -3.80495 0
M  V30 423 H 42.0548 2.83384 -4.98363 0
M  V30 424 H 40.4518 2.2817 -5.5503 0
M  V30 425 H 41.5218 1.14336 -4.71227 0
M  V30 426 N 42.8649 1.48995 0.513639 0
M  V30 427 C 43.7969 1.60836 1.63293 0
M  V30 428 C 44.8099 0.491701 1.55197 0
M  V30 429 O 45.9989 0.763238 1.6136 0
M  V30 430 C 43.0989 1.53731 3.02027 0
M  V30 431 C 42.2719 2.80715 3.35437 0
M  V30 432 C 41.3309 2.66837 4.53525 0
M  V30 433 O 40.3569 3.40753 4.55934 0
M  V30 434 N 41.5589 1.77539 5.52684 0
M  V30 435 H 44.3239 2.57366 1.53566 0
M  V30 436 H 41.8849 1.45925 0.701259 0
M  V30 437 H 43.8769 1.42118 3.78926 0
M  V30 438 H 42.4469 0.651092 3.05744 0
M  V30 439 H 41.6669 3.06772 2.47557 0
M  V30 440 H 42.9549 3.64927 3.54551 0
M  V30 441 H 42.3529 1.16719 5.53528 0
M  V30 442 H 40.9099 1.71856 6.28736 0
M  V30 443 N 44.343 -0.763751 1.37857 0
M  V30 444 C 45.253 -1.90817 1.36478 0
M  V30 445 C 46.269 -1.71997 0.263248 0
M  V30 446 O 47.445 -1.95095 0.499979 0
M  V30 447 C 44.51 -3.2605 1.17864 0
M  V30 448 C 43.571 -3.57467 2.3773 0
M  V30 449 C 42.804 -4.86249 2.19995 0
M  V30 450 O 43.027 -5.57884 1.18836 0
M  V30 451 O 41.961 -5.16911 3.08361 0
M  V30 452 H 45.787 -1.94933 2.32884 0
M  V30 453 H 43.372 -0.907619 1.1867 0
M  V30 454 H 45.254 -4.06924 1.09504 0
M  V30 455 H 43.929 -3.22769 0.245372 0
M  V30 456 H 42.836 -2.76796 2.51664 0
M  V30 457 H 44.169 -3.655 3.29652 0
M  V30 458 N 45.8211 -1.22559 -0.990812 0
M  V30 459 C 47.2321 -1.04791 -1.54518 0
M  V30 460 C 47.5831 0.387998 -1.92325 0
M  V30 461 O 46.7081 1.27328 -1.74976 0
M  V30 462 C 47.3031 -1.896 -2.80779 0
M  V30 463 C 45.8621 -1.76124 -3.32652 0
M  V30 464 C 45.0091 -1.8594 -2.05722 0
M  V30 465 H 47.9601 -1.36374 -0.811662 0
M  V30 466 H 47.9811 -1.41464 -3.53225 0
M  V30 467 H 47.4931 -2.94101 -2.53231 0
M  V30 468 H 45.5941 -0.743643 -3.65104 0
M  V30 469 H 45.7071 -2.58913 -4.03114 0
M  V30 470 H 44.0711 -1.29403 -2.19379 0
M  V30 471 H 44.8541 -2.91976 -1.80568 0
M  V30 472 N 47.2992 1.18797 -1.03562 0
M  V30 473 C 48.5462 1.8865 -0.736023 0
M  V30 474 C 48.8742 1.80041 0.735889 0
M  V30 475 O 48.1292 1.19179 1.55225 0
M  V30 476 C 48.4282 3.38692 -1.14117 0
M  V30 477 C 48.0942 3.67504 -2.6125 0
M  V30 478 C 46.7562 3.75078 -3.01447 0
M  V30 479 C 49.1082 3.80293 -3.56408 0
M  V30 480 C 46.4362 3.92915 -4.35701 0
M  V30 481 C 48.7882 3.99645 -4.90374 0
M  V30 482 C 47.4522 4.05453 -5.30249 0
M  V30 483 H 46.7222 0.690321 -0.26933 0
M  V30 484 H 49.3692 1.40641 -1.29971 0
M  V30 485 H 47.6742 3.88645 -0.496202 0
M  V30 486 H 49.3712 3.91072 -0.886789 0
M  V30 487 H 45.9612 3.62223 -2.29113 0
M  V30 488 H 50.1452 3.73779 -3.26501 0
M  V30 489 H 45.4012 3.95653 -4.66121 0
M  V30 490 H 49.5752 4.08482 -5.64017 0
M  V30 491 H 47.2022 4.19027 -6.34288 0
M  V30 492 N 48.7773 0.814389 1.34928 0
M  V30 493 C 49.7243 0.22822 2.29669 0
M  V30 494 C 50.6943 -0.642164 1.53184 0
M  V30 495 O 51.8793 -0.585605 1.81591 0
M  V30 496 C 49.0193 -0.61089 3.3965 0
M  V30 497 C 48.1323 0.280792 4.31086 0
M  V30 498 C 47.2673 -0.567067 5.28165 0
M  V30 499 C 46.3063 0.324531 6.11239 0
M  V30 500 N 45.4433 -0.483756 7.00431 0
M  V30 501 H 50.2833 1.04153 2.79206 0
M  V30 502 H 47.8203 0.525133 1.37407 0
M  V30 503 H 49.7783 -1.11263 4.0209 0
M  V30 504 H 48.4083 -1.38939 2.91369 0
M  V30 505 H 47.4603 0.900688 3.69583 0
M  V30 506 H 48.7723 0.966723 4.89342 0
M  V30 507 H 47.9263 -1.13363 5.96015 0
M  V30 508 H 46.6653 -1.28654 4.70425 0
M  V30 509 H 45.6703 0.903298 5.42329 0
M  V30 510 H 46.8953 1.04198 6.71059 0
M  V30 511 H 44.8413 -1.18706 6.45171 0
M  V30 512 H 44.7583 0.143965 7.55863 0
M  V30 513 H 46.0263 -1.03334 7.7262 0
M  V30 514 N 50.2554 -1.46986 0.568584 0
M  V30 515 C 51.2034 -2.31858 -0.185649 0
M  V30 516 C 52.1974 -1.43624 -0.898249 0
M  V30 517 O 53.4034 -1.60327 -0.818242 0
M  V30 518 H 49.7784 -0.747866 -0.0787399 0
M  V30 519 H 51.7494 -2.93303 0.549191 0
M  V30 520 C 50.4984 -3.26513 -1.19519 0
M  V30 521 H 49.8214 -3.94377 -0.656285 0
M  V30 522 H 51.2614 -3.88707 -1.6936 0
M  V30 523 C 49.7204 -2.50847 -2.24894 0
M  V30 524 O 50.2504 -2.26119 -3.32014 0
M  V30 525 N 48.4564 -2.11656 -1.99124 0
M  V30 526 H 48.0034 -2.31966 -1.12024 0
M  V30 527 H 47.9614 -1.61347 -2.69842 0
M  V30 528 N 51.7335 -0.305618 -1.54608 0
M  V30 529 C 52.6965 0.555591 -2.22364 0
M  V30 530 C 53.6965 1.05768 -1.21119 0
M  V30 531 O 54.8865 0.952972 -1.45822 0
M  V30 532 C 52.0185 1.76974 -2.91364 0
M  V30 533 H 53.2115 -0.0364572 -2.99878 0
M  V30 534 H 50.7645 -0.0565007 -1.56198 0
M  V30 535 H 51.4995 2.40151 -2.17941 0
M  V30 536 H 51.2845 1.41732 -3.65588 0
M  V30 537 H 52.7745 2.38148 -3.43038 0
M  V30 538 N 53.2116 1.57565 -0.0334293 0
M  V30 539 C 54.4576 1.93088 0.639417 0
M  V30 540 C 54.8126 0.910589 1.69488 0
M  V30 541 O 54.1056 -0.0727725 1.91462 0
M  V30 542 C 54.2996 3.33112 1.29504 0
M  V30 543 C 54.1286 4.48667 0.304604 0
M  V30 544 C 52.8986 5.05207 -0.0970777 0
M  V30 545 C 55.0966 5.1239 -0.442845 0
M  V30 546 N 53.0786 6.04286 -1.08223 0
M  V30 547 C 54.4496 6.06609 -1.28161 0
M  V30 548 C 56.5046 4.95352 -0.50308 0
M  V30 549 C 55.2076 6.85622 -2.17519 0
M  V30 550 C 57.2336 5.74978 -1.38401 0
M  V30 551 C 56.5956 6.68816 -2.21054 0
M  V30 552 H 52.6946 0.754335 0.206161 0
M  V30 553 H 55.2786 1.94435 -0.101613 0
M  V30 554 H 53.4496 3.32576 2.00618 0
M  V30 555 H 55.1816 3.55972 1.92525 0
M  V30 556 H 51.9366 4.72782 0.278255 0
M  V30 557 H 52.3606 6.58516 -1.57117 0
M  V30 558 H 57.0026 4.22625 0.121694 0
M  V30 559 H 54.7206 7.57652 -2.81049 0
M  V30 560 H 58.3066 5.63826 -1.43496 0
M  V30 561 H 57.1866 7.29355 -2.88116 0
M  V30 562 N 54.6897 -0.239769 1.55765 0
M  V30 563 C 55.6377 -1.31668 1.91745 0
M  V30 564 C 56.6317 -1.49462 0.797338 0
M  V30 565 O 57.8377 -1.50852 0.982021 0
M  V30 566 H 54.2127 -0.441048 0.609082 0
M  V30 567 H 56.1837 -0.985923 2.81642 0
M  V30 568 C 54.9327 -2.66368 2.2348 0
M  V30 569 H 54.2557 -2.53478 3.09175 0
M  V30 570 H 55.6957 -3.40578 2.52553 0
M  V30 571 C 54.1547 -3.20002 1.05359 0
M  V30 572 O 54.6847 -4.00538 0.305261 0
M  V30 573 N 52.8907 -2.78126 0.842292 0
M  V30 574 H 52.4377 -2.12742 1.45253 0
M  V30 575 H 52.3957 -3.14354 0.053652 0
M  V30 576 N 56.1678 -1.49265 -0.50573 0
M  V30 577 C 57.3978 -1.61979 -1.28243 0
M  V30 578 C 57.8058 -0.288576 -1.86986 0
M  V30 579 O 57.1488 0.735408 -1.68337 0
M  V30 580 C 57.2108 -2.62632 -2.45489 0
M  V30 581 C 56.8748 -4.071 -2.07651 0
M  V30 582 C 57.8718 -4.94049 -1.61901 0
M  V30 583 C 55.5568 -4.52801 -2.17431 0
M  V30 584 C 57.5508 -6.24736 -1.26428 0
M  V30 585 C 55.2378 -5.83503 -1.8157 0
M  V30 586 C 56.2358 -6.69294 -1.36142 0
M  V30 587 O 55.9238 -7.9756 -1.00764 0
M  V30 588 H 55.6558 -0.54834 -0.395347 0
M  V30 589 H 58.2098 -1.96002 -0.614204 0
M  V30 590 H 56.4398 -2.2378 -3.15372 0
M  V30 591 H 58.1288 -2.64925 -3.07522 0
M  V30 592 H 58.8948 -4.5997 -1.53795 0
M  V30 593 H 54.7738 -3.86196 -2.51742 0
M  V30 594 H 58.3178 -6.91652 -0.908992 0
M  V30 595 H 54.2148 -6.17112 -1.89324 0
M  V30 596 H 54.9828 -8.10529 -1.13952 0
M  V30 597 N 57.6459 0.756429 -1.3826 0
M  V30 598 C 58.5789 1.87802 -1.29637 0
M  V30 599 C 59.5569 1.61667 -0.173939 0
M  V30 600 O 60.7409 1.85208 -0.350775 0
M  V30 601 C 57.8679 3.23354 -1.00797 0
M  V30 602 C 56.9139 3.68379 -2.14939 0
M  V30 603 S 57.7469 3.8025 -3.77054 0
M  V30 604 C 58.9029 5.18626 -3.50396 0
M  V30 605 H 59.1359 1.94829 -2.24564 0
M  V30 606 H 56.6689 0.919117 -1.24063 0
M  V30 607 H 58.6269 4.01637 -0.848413 0
M  V30 608 H 57.2879 3.14008 -0.0759369 0
M  V30 609 H 56.4809 4.66693 -1.90299 0
M  V30 610 H 56.0829 2.97242 -2.26988 0
M  V30 611 H 58.3749 6.04289 -3.06334 0
M  V30 612 H 59.3179 5.48286 -4.48094 0
M  V30 613 H 59.7259 4.87289 -2.84973 0
M  V30 614 N 59.124 1.23083 0.984299 0
M  V30 615 C 60.054 1.03292 2.09411 0
M  V30 616 C 61.035 -0.048923 1.7003 0
M  V30 617 O 62.22 0.114967 1.93859 0
M  V30 618 C 59.35 0.619155 3.41736 0
M  V30 619 C 58.304 1.64791 3.95004 0
M  V30 620 C 57.63 1.0897 5.23478 0
M  V30 621 C 58.93 3.03999 4.24714 0
M  V30 622 H 60.624 1.96119 2.26225 0
M  V30 623 H 58.17 0.944344 1.08711 0
M  V30 624 H 60.123 0.467777 4.18796 0
M  V30 625 H 58.847 -0.344786 3.24775 0
M  V30 626 H 57.506 1.78721 3.20085 0
M  V30 627 H 57.154 0.11686 5.02864 0
M  V30 628 H 56.854 1.77704 5.60085 0
M  V30 629 H 58.378 0.950093 6.03163 0
M  V30 630 H 59.792 2.93393 4.92538 0
M  V30 631 H 58.189 3.69936 4.72512 0
M  V30 632 H 59.259 3.53285 3.32142 0
M  V30 633 N 60.6021 -1.18246 1.0419 0
M  V30 634 C 61.5501 -2.23968 0.627792 0
M  V30 635 C 62.5441 -1.65828 -0.346019 0
M  V30 636 O 63.7501 -1.78733 -0.213175 0
M  V30 637 H 60.1251 -0.728939 0.184802 0
M  V30 638 H 62.0961 -2.56202 1.52981 0
M  V30 639 C 60.8451 -3.47699 0.00796591 0
M  V30 640 H 60.1681 -3.92734 0.748347 0
M  V30 641 H 61.6081 -4.23294 -0.24455 0
M  V30 642 C 60.0671 -3.13153 -1.24246 0
M  V30 643 O 60.5971 -3.27003 -2.33307 0
M  V30 644 N 58.8031 -2.67467 -1.13622 0
M  V30 645 H 58.3501 -2.56396 -0.248734 0
M  V30 646 H 58.3081 -2.44724 -1.97377 0
M  V30 647 N 62.0802 -0.821533 -1.34494 0
M  V30 648 C 63.0282 -0.230702 -2.31453 0
M  V30 649 C 64.0222 0.627793 -1.57338 0
M  V30 650 O 65.2282 0.519288 -1.72347 0
M  V30 651 H 61.6032 -0.0558577 -0.749923 0
M  V30 652 H 63.5742 -1.06332 -2.78812 0
M  V30 653 C 62.3232 0.59391 -3.4259 0
M  V30 654 H 61.6462 -0.0573588 -3.99759 0
M  V30 655 H 63.0862 0.973446 -4.12674 0
M  V30 656 C 61.5452 1.76568 -2.86924 0
M  V30 657 O 62.0752 2.8638 -2.81691 0
M  V30 658 N 60.2812 1.58198 -2.43766 0
M  V30 659 H 59.8282 0.68872 -2.48222 0
M  V30 660 H 59.7862 2.36752 -2.06871 0
M  V30 661 N 63.5583 1.46682 -0.576371 0
M  V30 662 C 64.7883 2.06498 -0.0648694 0
M  V30 663 C 65.1963 1.42665 1.24271 0
M  V30 664 O 64.5393 0.523886 1.76071 0
M  V30 665 C 64.6013 3.5904 0.181816 0
M  V30 666 C 64.2653 4.45028 -1.0392 0
M  V30 667 C 65.2623 4.81959 -1.94966 0
M  V30 668 C 62.9473 4.86259 -1.25927 0
M  V30 669 C 64.9413 5.58942 -3.06371 0
M  V30 670 C 62.6283 5.63002 -2.37638 0
M  V30 671 C 63.6263 5.99257 -3.2769 0
M  V30 672 O 63.3143 6.7445 -4.37461 0
M  V30 673 H 63.0463 0.674028 -0.0515987 0
M  V30 674 H 65.6003 1.89393 -0.794951 0
M  V30 675 H 63.8303 3.74429 0.966436 0
M  V30 676 H 65.5193 4.00806 0.641047 0
M  V30 677 H 66.2853 4.50689 -1.79177 0
M  V30 678 H 62.1643 4.57494 -0.567448 0
M  V30 679 H 65.7083 5.87158 -3.76684 0
M  V30 680 H 61.6053 5.93686 -2.53392 0
M  V30 681 H 62.3733 6.92867 -4.35749 0
M  V30 682 N 65.0364 0.313813 1.54444 0
M  V30 683 C 66.2644 -0.293918 2.04802 0
M  V30 684 C 66.6794 -1.46537 1.19047 0
M  V30 685 O 66.0364 -1.81182 0.218939 0
M  V30 686 C 66.0874 -0.737806 3.53891 0
M  V30 687 O 65.8084 0.387038 4.36387 0
M  V30 688 C 67.3094 -1.40936 4.203 0
M  V30 689 H 64.5294 -0.0620057 0.668129 0
M  V30 690 H 67.0734 0.457169 1.99324 0
M  V30 691 H 65.2284 -1.43889 3.59687 0
M  V30 692 H 65.6424 0.0391274 5.24485 0
M  V30 693 H 67.1164 -1.67099 5.26101 0
M  V30 694 H 67.5934 -2.35355 3.70816 0
M  V30 695 H 68.1994 -0.751117 4.18615 0
M  V30 696 N 66.5145 -1.57545 0.0417849 0
M  V30 697 C 67.4615 -2.10977 -0.935805 0
M  V30 698 C 68.4315 -1.01486 -1.31491 0
M  V30 699 O 69.6165 -1.2898 -1.40602 0
M  V30 700 C 66.7565 -2.65169 -2.2086 0
M  V30 701 C 65.8695 -3.88714 -1.88482 0
M  V30 702 C 65.0045 -4.31254 -3.1015 0
M  V30 703 C 64.0435 -5.47524 -2.7365 0
M  V30 704 N 63.1805 -5.85162 -3.87982 0
M  V30 705 H 68.0205 -2.94218 -0.473249 0
M  V30 706 H 65.5575 -1.45415 -0.221981 0
M  V30 707 H 67.5155 -2.94685 -2.95325 0
M  V30 708 H 66.1455 -1.8474 -2.64709 0
M  V30 709 H 65.1975 -3.65849 -1.04205 0
M  V30 710 H 66.5095 -4.73245 -1.57608 0
M  V30 711 H 65.6635 -4.62273 -3.92923 0
M  V30 712 H 64.4025 -3.45516 -3.44195 0
M  V30 713 H 63.4075 -5.16187 -1.89291 0
M  V30 714 H 64.6325 -6.34971 -2.40807 0
M  V30 715 H 62.5785 -5.02377 -4.21846 0
M  V30 716 H 62.4955 -6.64362 -3.60775 0
M  V30 717 H 63.7635 -6.20791 -4.71422 0
M  V30 718 N 67.9926 0.231505 -1.5589 0
M  V30 719 C 69.2396 0.957352 -1.78441 0
M  V30 720 C 69.5676 1.84726 -0.60882 0
M  V30 721 O 68.8226 1.91416 0.40725 0
M  V30 722 C 69.1216 1.83577 -3.0665 0
M  V30 723 C 68.7876 1.09993 -4.37278 0
M  V30 724 C 67.4496 0.896629 -4.72773 0
M  V30 725 C 69.8016 0.579558 -5.17968 0
M  V30 726 C 67.1296 0.160896 -5.86479 0
M  V30 727 C 69.4816 -0.142783 -6.32439 0
M  V30 728 C 68.1456 -0.357427 -6.66542 0
M  V30 729 H 67.4156 0.35032 -0.65296 0
M  V30 730 H 70.0626 0.226259 -1.90159 0
M  V30 731 H 68.3676 2.63441 -2.90011 0
M  V30 732 H 70.0646 2.39934 -3.21298 0
M  V30 733 H 66.6546 1.26835 -4.09403 0
M  V30 734 H 70.8386 0.724125 -4.90989 0
M  V30 735 H 66.0946 -0.0157293 -6.11398 0
M  V30 736 H 70.2686 -0.553559 -6.94196 0
M  V30 737 H 67.8956 -0.929466 -7.54497 0
M  V30 738 N 69.4707 1.49531 0.497807 0
M  V30 739 C 70.4027 1.62559 1.61578 0
M  V30 740 C 71.4157 0.508134 1.54667 0
M  V30 741 O 72.6047 0.780309 1.60541 0
M  V30 742 C 69.7047 1.56925 3.00379 0
M  V30 743 C 68.8777 2.84257 3.3244 0
M  V30 744 C 67.9367 2.71632 4.50669 0
M  V30 745 O 66.9627 3.4557 4.52294 0
M  V30 746 N 68.1647 1.83391 5.5077 0
M  V30 747 H 70.9297 2.58981 1.50828 0
M  V30 748 H 68.4907 1.4666 0.685743 0
M  V30 749 H 70.4827 1.46129 3.77397 0
M  V30 750 H 69.0527 0.683483 3.05037 0
M  V30 751 H 68.2727 3.09381 2.44289 0
M  V30 752 H 69.5607 3.68666 3.5066 0
M  V30 753 H 68.9587 1.22583 5.52259 0
M  V30 754 H 67.5157 1.78515 6.26878 0
M  V30 755 N 70.9488 -0.749086 1.3866 0
M  V30 756 C 72.1978 -1.50371 1.3443 0
M  V30 757 C 72.5108 -1.95503 -0.0616397 0
M  V30 758 O 73.7168 -2.70554 -0.226489 0
M  V30 759 C 72.1728 -2.71644 2.36088 0
M  V30 760 C 71.7808 -2.3352 3.82325 0
M  V30 761 C 73.5248 -3.49518 2.40909 0
M  V30 762 C 71.4318 -3.51431 4.75658 0
M  V30 763 H 70.3618 -0.564628 0.499712 0
M  V30 764 H 73.0128 -0.818449 1.64237 0
M  V30 765 H 71.3948 -3.42175 1.9933 0
M  V30 766 H 72.5688 -1.70627 4.28046 0
M  V30 767 H 70.8838 -1.6877 3.80665 0
M  V30 768 H 73.4808 -4.37197 3.07836 0
M  V30 769 H 73.8238 -3.90992 1.42937 0
M  V30 770 H 74.3568 -2.86005 2.76489 0
M  V30 771 H 71.0958 -3.15019 5.74842 0
M  V30 772 H 70.6158 -4.13352 4.34627 0
M  V30 773 H 72.2948 -4.17953 4.93887 0
M  V30 774 N 72.4269 -1.23603 -0.977757 0
M  V30 775 C 73.3899 -1.02069 -2.05218 0
M  V30 776 C 74.3899 0.0184305 -1.60789 0
M  V30 777 O 75.5799 -0.221569 -1.72785 0
M  V30 778 C 72.7119 -0.544926 -3.36517 0
M  V30 779 H 73.9049 -1.9742 -2.25755 0
M  V30 780 H 71.4579 -1.05684 -1.15155 0
M  V30 781 H 72.1929 0.412241 -3.21669 0
M  V30 782 H 71.9779 -1.2948 -3.70105 0
M  V30 783 H 73.4679 -0.414985 -4.15533 0
M  V30 784 N 73.905 1.17692 -1.04816 0
M  V30 785 C 75.133 1.91786 -0.776254 0
M  V30 786 C 75.548 1.76604 0.667577 0
M  V30 787 O 74.905 1.10067 1.45573 0
M  V30 788 C 74.956 3.42967 -1.14263 0
M  V30 789 O 74.677 3.57678 -2.52978 0
M  V30 790 C 76.178 4.34144 -0.896311 0
M  V30 791 H 73.398 0.608624 -0.282519 0
M  V30 792 H 75.942 1.49268 -1.39783 0
M  V30 793 H 74.097 3.83245 -0.565874 0
M  V30 794 H 74.511 4.51319 -2.67229 0
M  V30 795 H 75.985 5.38744 -1.20244 0
M  V30 796 H 76.462 4.38876 0.168636 0
M  V30 797 H 77.068 3.99574 -1.45672 0
M  V30 798 N 75.3831 0.828654 1.34056 0
M  V30 799 C 76.6291 0.429279 1.98818 0
M  V30 800 C 76.9841 -0.998011 1.64492 0
M  V30 801 O 76.2771 -1.68652 0.909228 0
M  V30 802 C 76.4711 0.575226 3.52741 0
M  V30 803 C 76.3001 2.01515 4.02022 0
M  V30 804 C 75.0701 2.64825 4.30344 0
M  V30 805 C 77.2681 2.98261 4.18981 0
M  V30 806 N 75.2501 3.99998 4.65698 0
M  V30 807 C 76.6211 4.18356 4.57578 0
M  V30 808 C 78.6761 2.94802 4.01243 0
M  V30 809 C 77.3791 5.35454 4.80293 0
M  V30 810 C 79.4051 4.11121 4.25128 0
M  V30 811 C 78.7671 5.29969 4.64018 0
M  V30 812 H 74.8661 0.205304 0.754569 0
M  V30 813 H 77.4501 1.07457 1.62361 0
M  V30 814 H 75.6211 -0.0401962 3.88379 0
M  V30 815 H 77.3531 0.148292 4.04428 0
M  V30 816 H 74.1081 2.16027 4.21461 0
M  V30 817 H 74.5321 4.69653 4.87601 0
M  V30 818 H 79.1741 2.04054 3.70299 0
M  V30 819 H 76.8921 6.26755 5.10102 0
M  V30 820 H 80.4781 4.0985 4.12934 0
M  V30 821 H 79.3581 6.18479 4.82134 0
M  V30 822 N 76.8612 -1.46375 0.584142 0
M  V30 823 C 78.1092 -2.01978 0.0701287 0
M  V30 824 C 78.4302 -1.4579 -1.295 0
M  V30 825 O 77.7002 -0.64314 -1.85042 0
M  V30 826 H 76.2802 -0.746648 0.0229345 0
M  V30 827 H 78.9422 -1.79461 0.760245 0
M  V30 828 H 78.0382 -3.121 0.0022064 0
M  V30 829 N 78.3393 -0.321999 -1.54275 0
M  V30 830 C 79.5643 0.285791 -2.05422 0
M  V30 831 C 79.9893 1.45124 -1.19669 0
M  V30 832 O 79.3473 1.80132 -0.205441 0
M  V30 833 C 79.3953 0.69956 -3.53749 0
M  V30 834 O 78.4993 1.8021 -3.70942 0
M  V30 835 H 77.8403 0.0518962 -0.661969 0
M  V30 836 H 80.3703 -0.469954 -1.9913 0
M  V30 837 H 80.3803 0.982649 -3.9599 0
M  V30 838 H 79.0553 -0.152864 -4.15619 0
M  V30 839 H 77.6323 1.51794 -3.40607 0
M  V30 840 N 79.8174 1.5752 -0.0501392 0
M  V30 841 C 80.7474 2.14502 0.922566 0
M  V30 842 C 81.7284 1.06642 1.3252 0
M  V30 843 O 82.9134 1.34577 1.4001 0
M  V30 844 C 80.0434 2.68916 2.19776 0
M  V30 845 C 78.9974 3.8175 1.93523 0
M  V30 846 C 78.3234 4.22677 3.27487 0
M  V30 847 C 79.6234 5.06932 1.25765 0
M  V30 848 H 81.3174 2.9603 0.447952 0
M  V30 849 H 78.8634 1.42401 0.214024 0
M  V30 850 H 80.8164 3.07419 2.88222 0
M  V30 851 H 79.5404 1.84578 2.69441 0
M  V30 852 H 78.1994 3.43718 1.27489 0
M  V30 853 H 77.8474 3.35291 3.74952 0
M  V30 854 H 77.5474 4.98725 3.1072 0
M  V30 855 H 79.0714 4.63779 3.97166 0
M  V30 856 H 80.4854 5.42888 1.84244 0
M  V30 857 H 78.8824 5.88116 1.19328 0
M  V30 858 H 79.9524 4.84337 0.233536 0
M  V30 859 N 81.2955 -0.223234 1.56011 0
M  V30 860 C 82.5445 -0.945912 1.78144 0
M  V30 861 C 82.8575 -1.85567 0.618396 0
M  V30 862 O 84.0635 -2.61688 0.723318 0
M  V30 863 C 82.5195 -1.73216 3.15475 0
M  V30 864 C 82.1275 -0.868619 4.39499 0
M  V30 865 C 83.8715 -2.44615 3.46935 0
M  V30 866 C 81.7785 -1.65212 5.67855 0
M  V30 867 H 80.7085 -0.356929 0.664167 0
M  V30 868 H 83.3595 -0.199845 1.82409 0
M  V30 869 H 81.7415 -2.52107 3.05382 0
M  V30 870 H 82.9155 -0.120366 4.60643 0
M  V30 871 H 81.2305 -0.26683 4.15544 0
M  V30 872 H 83.8275 -3.03732 4.40058 0
M  V30 873 H 84.1705 -3.17417 2.69355 0
M  V30 874 H 84.7035 -1.72715 3.58349 0
M  V30 875 H 81.4425 -0.967407 6.48322 0
M  V30 876 H 80.9625 -2.37503 5.50774 0
M  V30 877 H 82.6415 -2.21322 6.07968 0
M  V30 878 N 82.7736 -1.49793 -0.48987 0
M  V30 879 C 84.0196 -1.60078 -1.24511 0
M  V30 880 C 84.3526 -0.291608 -1.91998 0
M  V30 881 O 83.6276 0.705647 -1.81248 0
M  V30 882 C 83.9106 -2.76791 -2.30345 0
M  V30 883 C 83.7636 -4.17535 -1.67286 0
M  V30 884 C 85.0826 -2.89111 -3.31817 0
M  V30 885 H 82.2016 -0.582645 -0.451324 0
M  V30 886 H 84.8436 -1.82117 -0.541612 0
M  V30 887 H 82.9936 -2.5813 -2.90346 0
M  V30 888 H 84.6656 -4.4774 -1.11026 0
M  V30 889 H 82.9086 -4.22665 -0.976577 0
M  V30 890 H 83.5796 -4.95094 -2.44103 0
M  V30 891 H 86.0556 -3.06133 -2.81819 0
M  V30 892 H 84.9316 -3.72433 -4.03219 0
M  V30 893 H 85.1926 -1.9893 -3.94815 0
M  V30 894 N 84.2517 0.741722 -1.39055 0
M  V30 895 C 85.2017 1.84661 -1.33732 0
M  V30 896 C 86.1857 1.59397 -0.219401 0
M  V30 897 O 87.3777 1.71015 -0.456375 0
M  V30 898 C 84.5067 3.22512 -1.17647 0
M  V30 899 C 83.5927 3.53628 -2.34112 0
M  V30 900 N 83.9837 3.55723 -3.59576 0
M  V30 901 C 82.2817 3.83956 -2.26923 0
M  V30 902 C 82.9827 3.84443 -4.36553 0
M  V30 903 N 81.9587 4.01877 -3.66055 0
M  V30 904 H 85.7607 1.84576 -2.28711 0
M  V30 905 H 83.2747 0.939647 -1.32455 0
M  V30 906 H 85.2717 4.01597 -1.11917 0
M  V30 907 H 83.9317 3.2384 -0.236124 0
M  V30 908 H 84.9427 3.37196 -3.93089 0
M  V30 909 H 81.6197 3.92929 -1.41113 0
M  V30 910 H 83.0097 3.92588 -5.45274 0
M  V30 911 N 85.7298 1.2412 0.971189 0
M  V30 912 C 86.6398 1.04747 2.09917 0
M  V30 913 C 87.6558 -0.0107162 1.73997 0
M  V30 914 O 88.8318 0.186714 2.00533 0
M  V30 915 C 85.8968 0.650828 3.40537 0
M  V30 916 C 84.9578 1.7851 3.90426 0
M  V30 917 C 84.1908 1.40729 5.14812 0
M  V30 918 O 84.4138 0.29557 5.69634 0
M  V30 919 O 83.3478 2.23168 5.58999 0
M  V30 920 H 87.1738 1.99304 2.29154 0
M  V30 921 H 84.7588 1.02908 1.08307 0
M  V30 922 H 86.6408 0.440992 4.19086 0
M  V30 923 H 85.3158 -0.265649 3.22608 0
M  V30 924 H 84.2228 2.04966 3.12953 0
M  V30 925 H 85.5558 2.68023 4.12825 0
M  V30 926 N 87.2079 -1.17134 1.05439 0
M  V30 927 C 88.1709 -2.19439 0.661764 0
M  V30 928 C 89.1709 -1.58199 -0.288042 0
M  V30 929 O 90.3609 -1.74053 -0.0715803 0
M  V30 930 C 87.4929 -3.40889 -0.0276209 0
M  V30 931 H 88.6859 -2.55688 1.56728 0
M  V30 932 H 86.2389 -1.31259 0.848567 0
M  V30 933 H 86.9739 -3.10187 -0.94629 0
M  V30 934 H 86.7589 -3.86586 0.655238 0
M  V30 935 H 88.2489 -4.16603 -0.288342 0
M  V30 936 N 88.686 -0.835752 -1.33615 0
M  V30 937 C 89.616 -0.281739 -2.31794 0
M  V30 938 C 90.597 0.608833 -1.58831 0
M  V30 939 O 91.782 0.533035 -1.86741 0
M  V30 940 C 88.912 0.546612 -3.42971 0
M  V30 941 C 87.866 -0.247904 -4.27281 0
M  V30 942 C 87.192 0.704001 -5.30045 0
M  V30 943 C 88.492 -1.46324 -5.01385 0
M  V30 944 H 90.186 -1.10206 -2.78379 0
M  V30 945 H 87.732 -0.531388 -1.33837 0
M  V30 946 H 89.685 0.944467 -4.1068 0
M  V30 947 H 88.409 1.40011 -2.95067 0
M  V30 948 H 87.068 -0.627281 -3.61194 0
M  V30 949 H 86.716 1.55381 -4.78399 0
M  V30 950 H 86.416 0.176524 -5.87335 0
M  V30 951 H 87.94 1.09944 -6.0062 0
M  V30 952 H 89.354 -1.13871 -5.61877 0
M  V30 953 H 87.751 -1.92728 -5.6831 0
M  V30 954 H 88.821 -2.23467 -4.30338 0
M  V30 955 N 90.1641 1.46063 -0.591896 0
M  V30 956 C 91.3941 2.06418 -0.0867676 0
M  V30 957 C 91.8021 1.43975 1.22751 0
M  V30 958 O 91.1451 0.542531 1.75506 0
M  V30 959 C 91.2071 3.59213 0.143725 0
M  V30 960 C 90.8711 4.439 -1.08635 0
M  V30 961 C 91.8681 4.79864 -2.00067 0
M  V30 962 C 89.5531 4.84896 -1.31077 0
M  V30 963 C 91.5471 5.55661 -3.12282 0
M  V30 964 C 89.2341 5.6045 -2.43596 0
M  V30 965 C 90.2321 5.95747 -3.34027 0
M  V30 966 O 89.9201 6.69772 -4.4459 0
M  V30 967 H 89.6521 0.673443 -0.0587447 0
M  V30 968 H 92.2061 1.88539 -0.814994 0
M  V30 969 H 90.4361 3.75433 0.926668 0
M  V30 970 H 92.1251 4.01463 0.5985 0
M  V30 971 H 92.8911 4.48763 -1.83947 0
M  V30 972 H 88.7701 4.56867 -0.61594 0
M  V30 973 H 92.3141 5.8313 -3.82891 0
M  V30 974 H 88.2111 5.90965 -2.59674 0
M  V30 975 H 88.9791 6.88207 -4.43073 0
M  V30 976 N 91.6422 0.330177 1.54103 0
M  V30 977 C 92.8892 -0.270405 2.00686 0
M  V30 978 C 93.2172 -1.51621 1.21825 0
M  V30 979 O 92.4722 -1.93536 0.29025 0
M  V30 980 C 92.7712 -0.643134 3.51566 0
M  V30 981 C 92.4372 0.504251 4.48072 0
M  V30 982 C 91.0992 0.819163 4.74176 0
M  V30 983 C 93.4512 1.27465 5.05373 0
M  V30 984 C 90.7792 1.90708 5.5484 0
M  V30 985 C 93.1312 2.35271 5.87223 0
M  V30 986 C 91.7952 2.67336 6.11627 0
M  V30 987 H 91.0652 -0.0989482 0.734364 0
M  V30 988 H 93.7122 0.455324 1.86008 0
M  V30 989 H 92.0172 -1.44938 3.64006 0
M  V30 990 H 93.7142 -1.11949 3.85056 0
M  V30 991 H 90.3042 0.248733 4.27878 0
M  V30 992 H 94.4882 1.04462 4.85182 0
M  V30 993 H 89.7442 2.15991 5.71977 0
M  V30 994 H 93.9182 2.95405 6.30641 0
M  V30 995 H 91.5452 3.51763 6.73919 0
M  V30 996 N 93.1203 -1.57491 0.0584922 0
M  V30 997 C 94.0503 -2.14988 -0.911178 0
M  V30 998 C 95.0313 -1.07343 -1.31952 0
M  V30 999 O 96.2163 -1.35318 -1.39294 0
M  V30 1000 C 93.3463 -2.70078 -2.18347 0
M  V30 1001 C 92.3003 -3.82771 -1.91495 0
M  V30 1002 C 91.6263 -4.24408 -3.25241 0
M  V30 1003 C 92.9263 -5.07592 -1.23075 0
M  V30 1004 H 94.6203 -2.96263 -0.432246 0
M  V30 1005 H 92.1663 -1.42512 -0.206469 0
M  V30 1006 H 94.1193 -3.08943 -2.86587 0
M  V30 1007 H 92.8433 -1.86005 -2.68458 0
M  V30 1008 H 91.5023 -3.44389 -1.25664 0
M  V30 1009 H 91.1503 -3.37275 -3.73168 0
M  V30 1010 H 90.8503 -5.00366 -3.08071 0
M  V30 1011 H 92.3743 -4.65879 -3.94701 0
M  V30 1012 H 93.7883 -5.43857 -1.81362 0
M  V30 1013 H 92.1853 -5.88741 -1.16207 0
M  V30 1014 H 93.2553 -4.84454 -0.207847 0
M  V30 1015 N 94.5984 0.214957 -1.56127 0
M  V30 1016 C 95.8454 0.938372 -1.79446 0
M  V30 1017 C 96.1734 1.8407 -0.628378 0
M  V30 1018 O 95.4284 1.91837 0.386925 0
M  V30 1019 C 95.7274 1.80314 -3.0858 0
M  V30 1020 C 95.3934 1.05349 -4.3842 0
M  V30 1021 C 94.0554 0.846435 -4.73697 0
M  V30 1022 C 96.4074 0.524588 -5.18553 0
M  V30 1023 C 93.7354 0.098683 -5.86617 0
M  V30 1024 C 96.0874 -0.209853 -6.32252 0
M  V30 1025 C 94.7514 -0.428102 -6.66126 0
M  V30 1026 H 94.0214 0.343375 -0.656639 0
M  V30 1027 H 96.6684 0.206077 -1.90388 0
M  V30 1028 H 94.9734 2.6035 -2.92789 0
M  V30 1029 H 96.6704 2.36513 -3.23825 0
M  V30 1030 H 93.2604 1.22486 -4.10725 0
M  V30 1031 H 97.4444 0.672008 -4.91729 0
M  V30 1032 H 92.7004 -0.0805753 -6.11347 0
M  V30 1033 H 96.8744 -0.627157 -6.9357 0
M  V30 1034 H 94.5014 -1.00944 -7.53468 0
M  V30 1035 N 96.0765 1.50051 0.48192 0
M  V30 1036 C 97.3165 1.62128 1.24474 0
M  V30 1037 C 97.6805 0.309742 1.89485 0
M  V30 1038 O 98.8815 0.305854 2.67054 0
M  V30 1039 C 97.1525 2.76151 2.26882 0
M  V30 1040 S 98.7115 3.08297 3.12247 0
M  V30 1041 H 95.5295 0.571661 0.422759 0
M  V30 1042 H 98.1315 1.87791 0.54359 0
M  V30 1043 H 96.8355 3.69942 1.77683 0
M  V30 1044 H 96.3665 2.52541 3.0164 0
M  V30 1045 H 98.3815 2.51287 4.27866 0
M  V30 1046 N 97.5546 -0.734337 1.39446 0
M  V30 1047 C 98.4846 -1.86155 1.40955 0
M  V30 1048 C 99.4656 -1.67898 0.272827 0
M  V30 1049 O 100.651 -1.88207 0.478743 0
M  V30 1050 C 97.7806 -3.23912 1.25294 0
M  V30 1051 C 96.7346 -3.56808 2.36373 0
M  V30 1052 C 96.0606 -4.93508 2.058 0
M  V30 1053 C 97.3606 -3.59713 3.78687 0
M  V30 1054 H 99.0546 -1.8515 2.35287 0
M  V30 1055 H 96.6006 -0.889367 1.13253 0
M  V30 1056 H 98.5536 -4.02443 1.2497 0
M  V30 1057 H 97.2776 -3.25446 0.274308 0
M  V30 1058 H 95.9366 -2.80606 2.35914 0
M  V30 1059 H 95.5846 -4.91623 1.06374 0
M  V30 1060 H 95.2846 -5.16486 2.80208 0
M  V30 1061 H 96.8086 -5.74396 2.07128 0
M  V30 1062 H 98.2226 -4.2832 3.81071 0
M  V30 1063 H 96.6196 -3.94209 4.52459 0
M  V30 1064 H 97.6896 -2.59504 4.09617 0
M  V30 1065 N 99.0327 -1.24633 -0.964593 0
M  V30 1066 C 100.444 -1.08045 -1.5226 0
M  V30 1067 C 100.795 0.347116 -1.93105 0
M  V30 1068 O 99.9197 1.23588 -1.77637 0
M  V30 1069 C 100.515 -1.95514 -2.76695 0
M  V30 1070 C 99.0737 -1.8314 -3.28841 0
M  V30 1071 C 98.2207 -1.90262 -2.01732 0
M  V30 1072 H 101.172 -1.38064 -0.782553 0
M  V30 1073 H 101.193 -1.48925 -3.50145 0
M  V30 1074 H 100.705 -2.99407 -2.46936 0
M  V30 1075 H 98.8057 -0.82092 -3.63444 0
M  V30 1076 H 98.9187 -2.67406 -3.97531 0
M  V30 1077 H 97.2827 -1.34027 -2.16584 0
M  V30 1078 H 98.0657 -2.9574 -1.74334 0
M  V30 1079 N 100.511 1.16574 -1.06058 0
M  V30 1080 C 101.759 1.86677 -0.77434 0
M  V30 1081 C 102.08 1.81959 0.701147 0
M  V30 1082 O 101.35 1.2515 1.50713 0
M  V30 1083 H 99.9298 0.691134 -0.283449 0
M  V30 1084 H 102.592 1.41378 -1.34158 0
M  V30 1085 H 101.688 2.92181 -1.09711 0
M  V30 1086 N 101.989 0.842826 1.3317 0
M  V30 1087 C 103.236 0.440447 1.97652 0
M  V30 1088 C 103.564 -1.00123 1.6675 0
M  V30 1089 O 102.819 -1.7155 0.941761 0
M  V30 1090 C 103.118 0.612607 3.52111 0
M  V30 1091 C 102.784 2.02297 4.02972 0
M  V30 1092 C 101.446 2.40874 4.16573 0
M  V30 1093 C 103.798 2.94402 4.30089 0
M  V30 1094 C 101.126 3.70852 4.54627 0
M  V30 1095 C 103.478 4.23865 4.69597 0
M  V30 1096 C 102.142 4.62392 4.81404 0
M  V30 1097 H 101.412 0.161171 0.72326 0
M  V30 1098 H 104.059 1.07061 1.58777 0
M  V30 1099 H 102.364 -0.100849 3.9167 0
M  V30 1100 H 104.061 0.2815 4.00011 0
M  V30 1101 H 100.651 1.71338 3.92863 0
M  V30 1102 H 104.835 2.65835 4.19101 0
M  V30 1103 H 100.091 4.00501 4.61962 0
M  V30 1104 H 104.265 4.95306 4.89536 0
M  V30 1105 H 101.892 5.63154 5.10648 0
M  V30 1106 N 103.467 -1.45747 0.599634 0
M  V30 1107 C 104.397 -2.33235 -0.111306 0
M  V30 1108 C 105.378 -1.46359 -0.866781 0
M  V30 1109 O 106.563 -1.75146 -0.838904 0
M  V30 1110 C 103.693 -3.28932 -1.11451 0
M  V30 1111 C 102.647 -4.25381 -0.472772 0
M  V30 1112 C 101.973 -5.1071 -1.58365 0
M  V30 1113 C 103.273 -5.18831 0.600948 0
M  V30 1114 H 104.967 -2.92927 0.61919 0
M  V30 1115 H 102.513 -1.40857 0.299215 0
M  V30 1116 H 104.466 -3.89002 -1.62036 0
M  V30 1117 H 103.19 -2.67381 -1.8755 0
M  V30 1118 H 101.849 -3.66598 0.0121472 0
M  V30 1119 H 101.497 -4.45533 -2.33473 0
M  V30 1120 H 101.197 -5.7604 -1.15982 0
M  V30 1121 H 102.721 -5.73647 -2.09194 0
M  V30 1122 H 104.135 -5.73019 0.179491 0
M  V30 1123 H 102.532 -5.92595 0.946076 0
M  V30 1124 H 103.602 -4.6174 1.48068 0
M  V30 1125 N 104.945 -0.338344 -1.53925 0
M  V30 1126 C 106.192 0.259758 -2.00827 0
M  V30 1127 C 106.52 1.50973 -1.22628 0
M  V30 1128 O 105.775 1.93379 -0.300509 0
M  V30 1129 C 106.074 0.62448 -3.51902 0
M  V30 1130 C 105.74 -0.528006 -4.47798 0
M  V30 1131 C 104.402 -0.844298 -4.73735 0
M  V30 1132 C 106.754 -1.30143 -5.0469 0
M  V30 1133 C 104.082 -1.93648 -5.53821 0
M  V30 1134 C 106.434 -2.38382 -5.85967 0
M  V30 1135 C 105.098 -2.70576 -6.10201 0
M  V30 1136 H 104.368 0.0950523 -0.734878 0
M  V30 1137 H 107.015 -0.465182 -1.85764 0
M  V30 1138 H 105.32 1.43006 -3.64769 0
M  V30 1139 H 107.017 1.09905 -3.85645 0
M  V30 1140 H 103.607 -0.271421 -4.2774 0
M  V30 1141 H 107.791 -1.07033 -4.84621 0
M  V30 1142 H 103.047 -2.19021 -5.70824 0
M  V30 1143 H 107.221 -2.98746 -6.29066 0
M  V30 1144 H 104.848 -3.55333 -6.72044 0
M  V30 1145 N 106.423 1.57458 -0.0668435 0
M  V30 1146 C 107.355 2.09413 0.931601 0
M  V30 1147 C 108.368 1.02522 1.26464 0
M  V30 1148 O 109.557 1.30049 1.22269 0
M  V30 1149 C 106.657 2.53537 2.24882 0
M  V30 1150 C 105.83 3.83944 2.09537 0
M  V30 1151 C 104.889 4.14214 3.2452 0
M  V30 1152 O 103.915 4.83891 2.9973 0
M  V30 1153 N 105.117 3.67367 4.49469 0
M  V30 1154 H 107.882 2.95699 0.488048 0
M  V30 1155 H 105.443 1.61462 0.119009 0
M  V30 1156 H 107.435 2.70853 3.00701 0
M  V30 1157 H 106.005 1.72415 2.60753 0
M  V30 1158 H 105.225 3.76057 1.18215 0
M  V30 1159 H 106.513 4.69312 1.96529 0
M  V30 1160 H 105.911 3.11068 4.72497 0
M  V30 1161 H 104.468 3.89891 5.2233 0
M  V30 1162 N 107.901 -0.206675 1.56239 0
M  V30 1163 C 109.148 -0.928842 1.79941 0
M  V30 1164 C 109.476 -1.83734 0.638131 0
M  V30 1165 O 108.731 -1.92039 -0.376746 0
M  V30 1166 C 109.03 -1.78675 3.09532 0
M  V30 1167 C 108.696 -1.03022 4.38973 0
M  V30 1168 C 107.358 -0.821302 4.74139 0
M  V30 1169 C 109.71 -0.497081 5.18824 0
M  V30 1170 C 107.038 -0.0675719 5.86661 0
M  V30 1171 C 109.39 0.24338 6.32132 0
M  V30 1172 C 108.054 0.463422 6.65889 0
M  V30 1173 H 107.324 -0.339887 0.658451 0
M  V30 1174 H 109.971 -0.195977 1.90495 0
M  V30 1175 H 108.276 -2.58794 2.94165 0
M  V30 1176 H 109.973 -2.34792 3.25075 0
M  V30 1177 H 106.563 -1.20306 4.11369 0
M  V30 1178 H 110.747 -0.645921 4.92079 0
M  V30 1179 H 106.003 0.112995 6.11296 0
M  V30 1180 H 110.177 0.66393 6.93228 0
M  V30 1181 H 107.804 1.04938 7.52922 0
M  V30 1182 N 109.379 -1.50304 -0.473955 0
M  V30 1183 C 110.628 -1.60392 -1.22301 0
M  V30 1184 C 110.941 -0.308411 -1.93153 0
M  V30 1185 O 112.147 -0.288156 -2.69966 0
M  V30 1186 C 110.603 -2.83109 -2.2221 0
M  V30 1187 C 110.211 -4.19524 -1.57173 0
M  V30 1188 C 111.955 -3.0254 -2.97775 0
M  V30 1189 C 109.862 -5.33431 -2.55353 0
M  V30 1190 H 108.792 -0.597286 -0.460179 0
M  V30 1191 H 111.443 -1.76731 -0.493803 0
M  V30 1192 H 109.825 -2.60322 -2.9841 0
M  V30 1193 H 110.999 -4.52554 -0.867824 0
M  V30 1194 H 109.314 -4.05674 -0.939002 0
M  V30 1195 H 111.911 -3.84811 -3.71248 0
M  V30 1196 H 112.254 -2.14154 -3.56992 0
M  V30 1197 H 112.787 -3.25494 -2.28688 0
M  V30 1198 H 109.526 -6.23962 -2.00878 0
M  V30 1199 H 109.046 -5.04823 -3.23904 0
M  V30 1200 H 110.725 -5.63887 -3.17239 0
M  V30 1201 N 110.857 0.726932 -1.39834 0
M  V30 1202 C 112.268 1.30558 -1.3346 0
M  V30 1203 C 112.619 1.962 -0.00273003 0
M  V30 1204 O 111.744 1.96826 0.899371 0
M  V30 1205 C 112.339 2.37404 -2.41713 0
M  V30 1206 C 110.898 2.90921 -2.38835 0
M  V30 1207 C 110.045 1.64578 -2.2318 0
M  V30 1208 H 112.996 0.523862 -1.49804 0
M  V30 1209 H 113.017 3.17984 -2.08966 0
M  V30 1210 H 112.529 1.89599 -3.38635 0
M  V30 1211 H 110.63 3.42985 -1.45575 0
M  V30 1212 H 110.743 3.43487 -3.33997 0
M  V30 1213 H 109.107 1.89219 -1.70494 0
M  V30 1214 H 109.89 1.18814 -3.22084 0
M  V30 1215 N 112.336 1.25143 0.95797 0
M  V30 1216 C 113.566 1.12261 1.73439 0
M  V30 1217 C 113.974 -0.326715 1.86358 0
M  V30 1218 O 113.317 -1.2367 1.35836 0
M  V30 1219 C 113.379 1.69966 3.16784 0
M  V30 1220 C 113.043 3.18936 3.27305 0
M  V30 1221 C 114.04 4.15968 3.11877 0
M  V30 1222 C 111.725 3.59083 3.51234 0
M  V30 1223 C 113.719 5.51126 3.20217 0
M  V30 1224 C 111.406 4.9438 3.5921 0
M  V30 1225 C 112.404 5.90211 3.43716 0
M  V30 1226 O 112.092 7.23046 3.51368 0
M  V30 1227 H 111.824 0.392476 0.550399 0
M  V30 1228 H 114.378 1.65927 1.21068 0
M  V30 1229 H 112.608 1.10744 3.70503 0
M  V30 1230 H 114.297 1.52232 3.76272 0
M  V30 1231 H 115.063 3.86292 2.93264 0
M  V30 1232 H 110.942 2.84989 3.62356 0
M  V30 1233 H 114.486 6.25905 3.0804 0
M  V30 1234 H 110.383 5.23723 3.77339 0
M  V30 1235 H 111.151 7.31097 3.6802 0
M  V30 1236 N 113.814 -1.1601 1.06675 0
M  V30 1237 C 114.747 -2.1947 0.625168 0
M  V30 1238 C 115.725 -1.58699 -0.354041 0
M  V30 1239 O 116.909 -1.86669 -0.262098 0
M  V30 1240 C 114.036 -3.38598 -0.0829593 0
M  V30 1241 C 113.082 -4.1787 0.853611 0
M  V30 1242 S 113.915 -4.81135 2.35094 0
M  V30 1243 C 115.071 -6.03639 1.65441 0
M  V30 1244 H 115.304 -2.56587 1.50168 0
M  V30 1245 H 112.837 -1.26862 0.880078 0
M  V30 1246 H 114.795 -4.07621 -0.485288 0
M  V30 1247 H 113.456 -2.99839 -0.935716 0
M  V30 1248 H 112.649 -5.03078 0.304755 0
M  V30 1249 H 112.251 -3.54361 1.196 0
M  V30 1250 H 114.543 -6.70632 0.962201 0
M  V30 1251 H 115.486 -6.63081 2.48454 0
M  V30 1252 H 115.894 -5.52965 1.13534 0
M  V30 1253 N 115.292 -0.849877 -1.32721 0
M  V30 1254 C 116.239 -0.289033 -2.28983 0
M  V30 1255 C 117.209 0.601324 -1.54833 0
M  V30 1256 O 118.394 0.537253 -1.8308 0
M  V30 1257 C 115.534 0.520623 -3.4115 0
M  V30 1258 C 114.647 -0.394989 -4.3019 0
M  V30 1259 C 113.782 0.426834 -5.29482 0
M  V30 1260 C 112.821 -0.486476 -6.10164 0
M  V30 1261 N 111.958 0.297879 -7.01468 0
M  V30 1262 H 116.798 -1.11519 -2.76347 0
M  V30 1263 H 114.335 -0.56138 -1.35967 0
M  V30 1264 H 116.293 1.00563 -4.04899 0
M  V30 1265 H 114.923 1.31165 -2.9495 0
M  V30 1266 H 113.975 -0.99836 -3.67065 0
M  V30 1267 H 115.287 -1.09612 -4.86607 0
M  V30 1268 H 114.441 0.975205 -5.98811 0
M  V30 1269 H 113.18 1.16136 -4.73671 0
M  V30 1270 H 112.185 -1.04677 -5.39743 0
M  V30 1271 H 113.41 -1.21953 -6.6806 0
M  V30 1272 H 111.356 1.01558 -6.48091 0
M  V30 1273 H 111.273 -0.344318 -7.55216 0
M  V30 1274 H 112.541 0.828131 -7.75089 0
M  V30 1275 N 116.77 1.45427 -0.607355 0
M  V30 1276 C 117.717 2.3053 0.111625 0
M  V30 1277 C 118.687 1.4209 0.860216 0
M  V30 1278 O 119.872 1.71019 0.845998 0
M  V30 1279 C 117.012 3.26992 1.10319 0
M  V30 1280 C 116.125 4.30535 0.355493 0
M  V30 1281 C 115.26 5.14105 1.33676 0
M  V30 1282 C 114.299 6.09376 0.576862 0
M  V30 1283 N 113.436 6.85727 1.5074 0
M  V30 1284 H 118.276 2.91477 -0.620093 0
M  V30 1285 H 115.813 1.43631 -0.317594 0
M  V30 1286 H 117.771 3.81385 1.6912 0
M  V30 1287 H 116.401 2.67799 1.80232 0
M  V30 1288 H 115.453 3.78805 -0.348023 0
M  V30 1289 H 116.765 4.98235 -0.237423 0
M  V30 1290 H 115.919 5.72897 1.99684 0
M  V30 1291 H 114.658 4.46423 1.9636 0
M  V30 1292 H 113.663 5.49715 -0.0968519 0
M  V30 1293 H 114.888 6.79085 -0.0449341 0
M  V30 1294 H 112.834 6.20735 2.12189 0
M  V30 1295 H 112.751 7.49778 0.967913 0
M  V30 1296 H 114.019 7.4906 2.15706 0
M  V30 1297 N 118.248 0.346503 1.53744 0
M  V30 1298 C 119.478 -0.250047 2.05081 0
M  V30 1299 C 119.886 -1.44529 1.22098 0
M  V30 1300 O 119.229 -1.81992 0.249917 0
M  V30 1301 C 119.291 -0.725934 3.52094 0
M  V30 1302 C 118.955 0.350053 4.55657 0
M  V30 1303 C 119.952 1.19372 5.0601 0
M  V30 1304 C 117.637 0.504827 4.99757 0
M  V30 1305 C 119.631 2.17768 5.99046 0
M  V30 1306 C 117.318 1.49218 5.92602 0
M  V30 1307 C 118.316 2.32706 6.42135 0
M  V30 1308 O 118.004 3.2976 7.33153 0
M  V30 1309 H 117.736 -0.0515469 0.674032 0
M  V30 1310 H 120.29 0.497559 1.99282 0
M  V30 1311 H 118.52 -1.52483 3.55367 0
M  V30 1312 H 120.209 -1.24336 3.86388 0
M  V30 1313 H 120.975 1.08525 4.72702 0
M  V30 1314 H 116.854 -0.135178 4.60802 0
M  V30 1315 H 120.398 2.82971 6.37631 0
M  V30 1316 H 116.295 1.6012 6.25325 0
M  V30 1317 H 117.063 3.25265 7.51096 0
M  V30 1318 N 119.726 -1.57421 0.075193 0
M  V30 1319 C 120.673 -2.12915 -0.890843 0
M  V30 1320 C 121.643 -1.04252 -1.29309 0
M  V30 1321 O 122.828 -1.31933 -1.37834 0
M  V30 1322 C 119.968 -2.69795 -2.15186 0
M  V30 1323 C 119.081 -3.92624 -1.80194 0
M  V30 1324 C 118.216 -4.37736 -3.00933 0
M  V30 1325 C 117.255 -5.53205 -2.61974 0
M  V30 1326 N 116.392 -5.9326 -3.75483 0
M  V30 1327 H 121.232 -2.95156 -0.410735 0
M  V30 1328 H 118.769 -1.45854 -0.191086 0
M  V30 1329 H 120.727 -3.00883 -2.89008 0
M  V30 1330 H 119.357 -1.90313 -2.60731 0
M  V30 1331 H 118.409 -3.67977 -0.964218 0
M  V30 1332 H 119.721 -4.76482 -1.47534 0
M  V30 1333 H 118.875 -4.70503 -3.8303 0
M  V30 1334 H 117.614 -3.52739 -3.36789 0
M  V30 1335 H 116.619 -5.20086 -1.783 0
M  V30 1336 H 117.844 -6.39936 -2.27284 0
M  V30 1337 H 115.79 -5.11212 -4.11094 0
M  V30 1338 H 115.707 -6.71865 -3.46602 0
M  V30 1339 H 116.975 -6.30651 -4.58148 0
M  V30 1340 N 121.204 0.198386 -1.56346 0
M  V30 1341 C 122.453 0.917451 -1.79627 0
M  V30 1342 C 122.766 1.8456 -0.64784 0
M  V30 1343 O 123.972 2.60504 -0.764859 0
M  V30 1344 C 122.428 1.68175 -3.18191 0
M  V30 1345 C 122.036 0.798589 -4.40825 0
M  V30 1346 C 123.78 2.39065 -3.50782 0
M  V30 1347 C 121.687 1.56157 -5.70411 0
M  V30 1348 H 120.617 0.346317 -0.669762 0
M  V30 1349 H 123.268 0.170801 -1.82703 0
M  V30 1350 H 121.65 2.47216 -3.09354 0
M  V30 1351 H 122.824 0.0470665 -4.60776 0
M  V30 1352 H 121.139 0.200686 -4.15916 0
M  V30 1353 H 123.736 2.96692 -4.44835 0
M  V30 1354 H 124.079 3.13091 -2.74371 0
M  V30 1355 H 124.612 1.66993 -3.61052 0
M  V30 1356 H 121.351 0.864142 -6.49779 0
M  V30 1357 H 120.871 2.2871 -5.54483 0
M  V30 1358 H 122.55 2.11622 -6.11412 0
M  V30 1359 N 122.682 1.50554 0.465978 0
M  V30 1360 C 123.614 1.65949 1.58093 0
M  V30 1361 C 124.627 0.540827 1.53554 0
M  V30 1362 O 125.816 0.814187 1.5885 0
M  V30 1363 C 122.916 1.63261 2.96983 0
M  V30 1364 C 122.089 2.91245 3.26336 0
M  V30 1365 C 121.148 2.8113 4.44806 0
M  V30 1366 O 120.174 3.55086 4.44862 0
M  V30 1367 N 121.376 1.95032 5.46756 0
M  V30 1368 H 124.141 2.62122 1.45301 0
M  V30 1369 H 121.702 1.48082 0.65448 0
M  V30 1370 H 123.694 1.54101 3.74212 0
M  V30 1371 H 122.264 0.748032 3.03518 0
M  V30 1372 H 121.484 3.14493 2.37672 0
M  V30 1373 H 122.772 3.76022 3.42761 0
M  V30 1374 H 122.17 1.3427 5.49534 0
M  V30 1375 H 120.727 1.91772 6.2295 0
M  V30 1376 N 124.16 -0.719506 1.40217 0
M  V30 1377 C 125.107 -1.83359 1.40172 0
M  V30 1378 C 126.077 -1.64065 0.259206 0
M  V30 1379 O 127.262 -1.85254 0.456677 0
M  V30 1380 C 124.402 -3.2103 1.26624 0
M  V30 1381 C 123.515 -3.51923 2.50548 0
M  V30 1382 C 122.65 -4.79079 2.29471 0
M  V30 1383 C 121.689 -5.02863 3.48992 0
M  V30 1384 N 120.826 -6.2123 3.27135 0
M  V30 1385 H 125.666 -1.82733 2.35399 0
M  V30 1386 H 123.203 -0.892688 1.16917 0
M  V30 1387 H 125.161 -4.00524 1.16776 0
M  V30 1388 H 123.791 -3.20895 0.350176 0
M  V30 1389 H 122.843 -2.67014 2.70939 0
M  V30 1390 H 124.155 -3.6541 3.39525 0
M  V30 1391 H 123.309 -5.66582 2.16955 0
M  V30 1392 H 122.048 -4.67794 1.37913 0
M  V30 1393 H 121.053 -4.13816 3.6199 0
M  V30 1394 H 122.278 -5.16023 4.41472 0
M  V30 1395 H 120.224 -6.11204 2.38256 0
M  V30 1396 H 120.141 -6.35375 4.09675 0
M  V30 1397 H 121.409 -7.11532 3.18344 0
M  V30 1398 N 125.638 -1.25649 -0.95132 0
M  V30 1399 C 126.915 -1.01361 -1.67288 0
M  V30 1400 C 127.295 0.459135 -2.06046 0
M  V30 1401 O 126.643 1.43723 -1.7764 0
M  V30 1402 C 126.853 -1.95256 -2.89268 0
M  V30 1403 C 128.201 -2.23289 -3.61147 0
M  V30 1404 O 129.225 -1.93041 -2.99355 0
M  V30 1405 O 128.084 -2.74741 -4.72419 0
M  V30 1406 H 125.178 -0.38464 -0.732107 0
M  V30 1407 H 127.724 -1.36817 -1.00395 0
M  V30 1408 H 126.496 -2.94685 -2.57442 0
M  V30 1409 H 126.119 -1.60218 -3.6389 0
M  V30 1410 N 127.117 1.15442 -1.07289 0
M  V30 1411 C 128.064 2.20161 -0.692653 0
M  V30 1412 C 129.034 1.63073 0.31564 0
M  V30 1413 O 130.219 1.89725 0.202235 0
M  V30 1414 C 127.359 3.44967 -0.0959509 0
M  V30 1415 C 126.472 4.16256 -1.15564 0
M  V30 1416 C 125.607 5.28609 -0.524011 0
M  V30 1417 C 124.646 5.91715 -1.56653 0
M  V30 1418 N 123.783 6.9554 -0.957531 0
M  V30 1419 H 128.623 2.52037 -1.59002 0
M  V30 1420 H 126.16 1.2378 -0.794798 0
M  V30 1421 H 128.118 4.16341 0.267628 0
M  V30 1422 H 126.748 3.1361 0.764772 0
M  V30 1423 H 125.8 3.43385 -1.6368 0
M  V30 1424 H 127.112 4.59268 -1.94613 0
M  V30 1425 H 126.266 6.06604 -0.108032 0
M  V30 1426 H 125.005 4.86787 0.29825 0
M  V30 1427 H 124.01 5.12433 -1.9923 0
M  V30 1428 H 125.235 6.35614 -2.39107 0
M  V30 1429 H 123.181 6.55814 -0.156162 0
M  V30 1430 H 123.098 7.36977 -1.68526 0
M  V30 1431 H 124.366 7.77435 -0.567032 0
M  V30 1432 N 128.595 0.856903 1.32268 0
M  V30 1433 C 130.006 0.515711 1.79436 0
M  V30 1434 C 130.357 -0.966586 1.70738 0
M  V30 1435 O 129.482 -1.75409 1.26731 0
M  V30 1436 C 130.077 0.929335 3.25805 0
M  V30 1437 C 128.636 0.640006 3.70919 0
M  V30 1438 C 127.783 1.12784 2.53328 0
M  V30 1439 H 130.734 1.04389 1.19535 0
M  V30 1440 H 130.755 0.246633 3.797 0
M  V30 1441 H 130.267 2.00821 3.32103 0
M  V30 1442 H 128.368 -0.428051 3.70133 0
M  V30 1443 H 128.481 1.20788 4.63624 0
M  V30 1444 H 126.845 0.548033 2.48734 0
M  V30 1445 H 127.628 2.21387 2.62379 0
M  V30 1446 N 130.073 -1.45103 0.615059 0
M  V30 1447 C 130.983 -2.34382 -0.101034 0
M  V30 1448 C 131.999 -1.51681 -0.852585 0
M  V30 1449 O 133.175 -1.8446 -0.808484 0
M  V30 1450 C 130.24 -3.29417 -1.08099 0
M  V30 1451 C 129.301 -4.28025 -0.330577 0
M  V30 1452 C 128.534 -5.1852 -1.26385 0
M  V30 1453 O 128.757 -5.12598 -2.50198 0
M  V30 1454 O 127.691 -5.97122 -0.756866 0
M  V30 1455 H 131.517 -2.97033 0.632855 0
M  V30 1456 H 129.102 -1.4461 0.375293 0
M  V30 1457 H 130.984 -3.87958 -1.6452 0
M  V30 1458 H 129.659 -2.69321 -1.79577 0
M  V30 1459 H 128.566 -3.73078 0.276283 0
M  V30 1460 H 129.899 -4.90997 0.343866 0
M  V30 1461 N 131.551 -0.354651 -1.53558 0
M  V30 1462 C 132.779 0.239515 -2.05509 0
M  V30 1463 C 133.194 1.4333 -1.2289 0
M  V30 1464 O 132.551 1.80538 -0.266899 0
M  V30 1465 C 132.602 0.643719 -3.55723 0
M  V30 1466 O 132.323 -0.502602 -4.35207 0
M  V30 1467 C 133.824 1.29743 -4.23889 0
M  V30 1468 H 131.044 0.0442697 -0.669538 0
M  V30 1469 H 133.588 -0.509856 -1.98042 0
M  V30 1470 H 131.743 1.34302 -3.63376 0
M  V30 1471 H 132.157 -0.178172 -5.24197 0
M  V30 1472 H 133.631 1.53091 -5.30346 0
M  V30 1473 H 134.108 2.25441 -3.76926 0
M  V30 1474 H 134.714 0.639865 -4.20459 0
M  V30 1475 N 133.029 1.57378 -0.0835403 0
M  V30 1476 C 134.275 1.95025 0.577664 0
M  V30 1477 C 134.63 0.964049 1.66505 0
M  V30 1478 O 133.923 -0.0118235 1.91596 0
M  V30 1479 C 134.117 3.37063 1.1884 0
M  V30 1480 C 133.946 4.49409 0.16171 0
M  V30 1481 C 132.716 5.04642 -0.257756 0
M  V30 1482 C 134.914 5.10722 -0.605634 0
M  V30 1483 N 132.896 6.00537 -1.27393 0
M  V30 1484 C 134.267 6.02225 -1.47395 0
M  V30 1485 C 136.322 4.93501 -0.660418 0
M  V30 1486 C 135.025 6.78355 -2.39221 0
M  V30 1487 C 137.051 5.70283 -1.56623 0
M  V30 1488 C 136.413 6.61444 -2.4222 0
M  V30 1489 H 132.512 0.760512 0.182058 0
M  V30 1490 H 135.096 1.94013 -0.163419 0
M  V30 1491 H 133.267 3.3879 1.89936 0
M  V30 1492 H 134.999 3.61917 1.81103 0
M  V30 1493 H 131.754 4.73428 0.127702 0
M  V30 1494 H 132.178 6.53184 -1.77987 0
M  V30 1495 H 136.82 4.22798 -0.0128221 0
M  V30 1496 H 134.538 7.48327 -3.05011 0
M  V30 1497 H 138.124 5.58976 -1.61361 0
M  V30 1498 H 137.004 7.1982 -3.11174 0
M  V30 1499 N 134.507 -0.190092 1.56449 0
M  V30 1500 C 135.417 -1.25591 1.98152 0
M  V30 1501 C 136.433 -1.49519 0.889944 0
M  V30 1502 O 137.609 -1.62036 1.19609 0
M  V30 1503 C 134.674 -2.57916 2.3169 0
M  V30 1504 C 133.735 -2.42015 3.5458 0
M  V30 1505 C 132.968 -3.6803 3.8651 0
M  V30 1506 O 133.191 -4.72413 3.1966 0
M  V30 1507 O 132.125 -3.6326 4.79923 0
M  V30 1508 H 135.951 -0.931988 2.89046 0
M  V30 1509 H 133.536 -0.395488 1.4407 0
M  V30 1510 H 135.418 -3.36008 2.54316 0
M  V30 1511 H 134.093 -2.89925 1.43963 0
M  V30 1512 H 133 -1.62017 3.37196 0
M  V30 1513 H 134.333 -2.14937 4.4279 0
M  V30 1514 N 135.985 -1.50799 -0.457987 0
M  V30 1515 C 136.933 -1.71162 -1.575 0
M  V30 1516 C 137.927 -0.577592 -1.59249 0
M  V30 1517 O 139.133 -0.758443 -1.63241 0
M  V30 1518 H 135.508 -0.540468 -0.522875 0
M  V30 1519 H 137.479 -2.64837 -1.37492 0
M  V30 1520 C 136.228 -1.83496 -2.95338 0
M  V30 1521 H 135.551 -2.70153 -2.94716 0
M  V30 1522 H 136.991 -2.01765 -3.72917 0
M  V30 1523 C 135.45 -0.589694 -3.31699 0
M  V30 1524 O 135.98 0.265163 -4.00824 0
M  V30 1525 N 134.186 -0.439845 -2.87252 0
M  V30 1526 H 133.733 -1.13655 -2.31172 0
M  V30 1527 H 133.691 0.392159 -3.11945 0
M  V30 1528 N 137.463 0.71206 -1.40597 0
M  V30 1529 C 138.395 1.83704 -1.37061 0
M  V30 1530 C 139.408 1.60453 -0.275426 0
M  V30 1531 O 140.597 1.70262 -0.53602 0
M  V30 1532 C 137.697 3.20172 -1.11099 0
M  V30 1533 C 136.87 3.7059 -2.3234 0
M  V30 1534 C 135.929 4.85681 -2.02485 0
M  V30 1535 O 134.955 4.9815 -2.75382 0
M  V30 1536 N 136.157 5.71735 -1.00497 0
M  V30 1537 H 138.922 1.87235 -2.34016 0
M  V30 1538 H 136.483 0.893739 -1.34996 0
M  V30 1539 H 138.475 3.94768 -0.891064 0
M  V30 1540 H 137.045 3.11767 -0.227989 0
M  V30 1541 H 136.265 2.87085 -2.7014 0
M  V30 1542 H 137.553 4.01011 -3.13157 0
M  V30 1543 H 136.951 5.64275 -0.401298 0
M  V30 1544 H 135.508 6.463 -0.844942 0
M  V30 1545 N 138.941 1.26152 0.944643 0
M  V30 1546 C 140.187 1.12665 1.69346 0
M  V30 1547 C 140.542 -0.3273 1.89596 0
M  V30 1548 O 139.835 -1.23717 1.46303 0
M  V30 1549 C 140.029 1.82541 3.07268 0
M  V30 1550 C 139.858 3.34582 3.00475 0
M  V30 1551 C 138.628 4.03863 3.03681 0
M  V30 1552 C 140.826 4.30828 2.80877 0
M  V30 1553 N 138.808 5.42603 2.87151 0
M  V30 1554 C 140.179 5.5672 2.7288 0
M  V30 1555 C 142.234 4.21122 2.65633 0
M  V30 1556 C 140.937 6.74013 2.51196 0
M  V30 1557 C 142.963 5.38118 2.45323 0
M  V30 1558 C 142.325 6.62955 2.38055 0
M  V30 1559 H 138.424 0.467041 0.627214 0
M  V30 1560 H 141.008 1.59391 1.11815 0
M  V30 1561 H 139.179 1.38296 3.62945 0
M  V30 1562 H 140.911 1.61708 3.70989 0
M  V30 1563 H 137.666 3.55198 3.1326 0
M  V30 1564 H 138.09 6.15443 2.82063 0
M  V30 1565 H 142.732 3.25344 2.70021 0
M  V30 1566 H 140.45 7.6989 2.4555 0
M  V30 1567 H 144.036 5.32475 2.34439 0
M  V30 1568 H 142.916 7.51959 2.22546 0
M  V30 1569 N 140.419 -1.14872 1.07899 0
M  V30 1570 C 141.366 -2.19791 0.704319 0
M  V30 1571 C 142.336 -1.63238 -0.306987 0
M  V30 1572 O 143.521 -1.8983 -0.192171 0
M  V30 1573 C 140.661 -3.44911 0.114244 0
M  V30 1574 C 139.774 -4.15637 1.1777 0
M  V30 1575 C 138.909 -5.28324 0.552037 0
M  V30 1576 C 137.948 -5.90875 1.59789 0
M  V30 1577 N 137.085 -6.95022 0.994404 0
M  V30 1578 H 141.925 -2.5119 1.60336 0
M  V30 1579 H 139.462 -1.23356 0.801352 0
M  V30 1580 H 141.42 -4.16477 -0.245544 0
M  V30 1581 H 140.05 -3.14011 -0.74813 0
M  V30 1582 H 139.102 -3.42512 1.65499 0
M  V30 1583 H 140.414 -4.5823 1.97046 0
M  V30 1584 H 139.568 -6.06538 0.1402 0
M  V30 1585 H 138.307 -4.86939 -0.272431 0
M  V30 1586 H 137.312 -5.11369 2.01945 0
M  V30 1587 H 138.537 -6.34337 2.42474 0
M  V30 1588 H 136.483 -6.55722 0.190939 0
M  V30 1589 H 136.4 -7.36073 1.72432 0
M  V30 1590 H 137.668 -7.77123 0.608253 0
M  V30 1591 N 141.898 -0.863906 -1.31812 0
M  V30 1592 C 143.138 -0.47825 -1.98726 0
M  V30 1593 C 143.502 0.950397 -1.66828 0
M  V30 1594 O 144.703 1.44109 -2.26905 0
M  V30 1595 C 142.974 -0.721134 -3.50049 0
M  V30 1596 S 144.533 -0.434432 -4.36644 0
M  V30 1597 H 141.351 -0.178773 -0.688158 0
M  V30 1598 H 143.953 -1.11862 -1.60334 0
M  V30 1599 H 142.657 -1.75981 -3.70755 0
M  V30 1600 H 142.188 -0.0675315 -3.93342 0
M  V30 1601 H 144.203 0.735786 -4.90714 0
M  V30 1602 N 143.376 1.44774 -0.622745 0
M  V30 1603 C 144.623 2.02121 -0.1239 0
M  V30 1604 C 144.951 1.48915 1.25118 0
M  V30 1605 O 144.206 0.660045 1.84233 0
M  V30 1606 C 144.505 3.57364 -0.0508323 0
M  V30 1607 C 144.171 4.29787 -1.36358 0
M  V30 1608 C 142.833 4.4929 -1.72314 0
M  V30 1609 C 145.185 4.71062 -2.23048 0
M  V30 1610 C 142.513 5.07325 -2.94682 0
M  V30 1611 C 144.865 5.30452 -3.44679 0
M  V30 1612 C 143.529 5.48175 -3.80868 0
M  V30 1613 H 142.799 0.739612 -0.0453381 0
M  V30 1614 H 145.446 1.73648 -0.807389 0
M  V30 1615 H 143.751 3.85202 0.715991 0
M  V30 1616 H 145.448 3.99456 0.351533 0
M  V30 1617 H 142.038 4.14932 -1.07375 0
M  V30 1618 H 146.222 4.55715 -1.96565 0
M  V30 1619 H 141.478 5.19235 -3.22809 0
M  V30 1620 H 145.652 5.61385 -4.12092 0
M  V30 1621 H 143.279 5.92912 -4.75773 0
M  V30 1622 N 144.854 0.36279 1.53368 0
M  V30 1623 C 145.801 -0.485008 2.25646 0
M  V30 1624 C 146.771 -1.07982 1.2621 0
M  V30 1625 O 147.956 -1.11284 1.54986 0
M  V30 1626 C 145.096 -1.62023 3.04701 0
M  V30 1627 C 144.209 -1.05086 4.19024 0
M  V30 1628 C 143.344 -2.15496 4.85525 0
M  V30 1629 C 142.383 -1.5601 5.91884 0
M  V30 1630 N 141.52 -2.60241 6.52088 0
M  V30 1631 H 146.36 0.137864 2.97681 0
M  V30 1632 H 143.897 0.0798061 1.46883 0
M  V30 1633 H 145.855 -2.28887 3.48807 0
M  V30 1634 H 144.485 -2.2138 2.34927 0
M  V30 1635 H 143.537 -0.27259 3.79422 0
M  V30 1636 H 144.849 -0.575926 4.95464 0
M  V30 1637 H 144.003 -2.90186 5.32801 0
M  V30 1638 H 142.742 -2.66341 4.08551 0
M  V30 1639 H 141.747 -0.798338 5.43973 0
M  V30 1640 H 142.972 -1.05994 6.70777 0
M  V30 1641 H 140.918 -3.10304 5.77968 0
M  V30 1642 H 140.835 -2.17426 7.24059 0
M  V30 1643 H 142.103 -3.34641 7.04014 0
M  V30 1644 N 146.332 -1.57332 0.0918853 0
M  V30 1645 C 147.578 -1.94524 -0.573425 0
M  V30 1646 C 147.911 -0.973578 -1.68033 0
M  V30 1647 O 147.186 -0.00609226 -1.94499 0
M  V30 1648 C 147.469 -3.41858 -1.13161 0
M  V30 1649 C 147.322 -4.4979 -0.0299747 0
M  V30 1650 C 148.641 -3.90435 -2.03098 0
M  V30 1651 H 145.76 -0.70734 -0.206975 0
M  V30 1652 H 148.402 -1.89309 0.161942 0
M  V30 1653 H 146.552 -3.46433 -1.7583 0
M  V30 1654 H 148.224 -4.57327 0.604112 0
M  V30 1655 H 146.467 -4.291 0.636833 0
M  V30 1656 H 147.138 -5.50069 -0.461287 0
M  V30 1657 H 149.614 -3.87992 -1.50338 0
M  V30 1658 H 148.49 -4.94097 -2.39081 0
M  V30 1659 H 148.751 -3.29541 -2.94712 0
M  V30 1660 N 147.81 0.181792 -1.56548 0
M  V30 1661 C 148.74 1.22765 -1.98623 0
M  V30 1662 C 149.721 1.46747 -0.860189 0
M  V30 1663 O 150.906 1.58259 -1.12551 0
M  V30 1664 C 148.036 2.56894 -2.33715 0
M  V30 1665 C 146.99 2.475 -3.49182 0
M  V30 1666 C 146.316 3.86023 -3.69986 0
M  V30 1667 C 147.616 1.98866 -4.82959 0
M  V30 1668 H 149.31 0.877942 -2.86239 0
M  V30 1669 H 146.856 0.42088 -1.37712 0
M  V30 1670 H 148.809 3.30253 -2.61746 0
M  V30 1671 H 147.533 2.93632 -1.42997 0
M  V30 1672 H 146.192 1.76596 -3.21262 0
M  V30 1673 H 145.84 4.20136 -2.76576 0
M  V30 1674 H 145.54 3.80609 -4.47672 0
M  V30 1675 H 147.064 4.60984 -4.00407 0
M  V30 1676 H 148.478 2.61992 -5.09934 0
M  V30 1677 H 146.875 2.04424 -5.64208 0
M  V30 1678 H 147.945 0.942465 -4.75653 0
M  V30 1679 N 149.288 1.51039 0.449983 0
M  V30 1680 C 150.218 1.74379 1.55288 0
M  V30 1681 C 151.199 0.593236 1.5942 0
M  V30 1682 O 152.384 0.834625 1.7535 0
M  V30 1683 C 149.514 1.85728 2.93466 0
M  V30 1684 C 148.468 3.01078 3.04197 0
M  V30 1685 C 147.794 2.97595 4.44231 0
M  V30 1686 C 149.094 4.41254 2.7945 0
M  V30 1687 H 150.788 2.66725 1.36008 0
M  V30 1688 H 148.334 1.2835 0.652864 0
M  V30 1689 H 150.287 2.0064 3.70569 0
M  V30 1690 H 149.011 0.900207 3.13949 0
M  V30 1691 H 147.67 2.85851 2.29531 0
M  V30 1692 H 147.318 1.99691 4.61663 0
M  V30 1693 H 147.018 3.75046 4.52343 0
M  V30 1694 H 148.542 3.14583 5.23326 0
M  V30 1695 H 149.956 4.56897 3.46292 0
M  V30 1696 H 148.353 5.20315 2.98985 0
M  V30 1697 H 149.423 4.52164 1.75144 0
M  V30 1698 N 150.766 -0.704594 1.40972 0
M  V30 1699 C 152.013 -1.46458 1.39844 0
M  V30 1700 C 152.341 -1.94499 0.00447594 0
M  V30 1701 O 151.596 -1.69275 -0.982057 0
M  V30 1702 C 151.895 -2.698 2.34399 0
M  V30 1703 C 151.561 -2.40464 3.81429 0
M  V30 1704 C 150.223 -2.32174 4.21484 0
M  V30 1705 C 152.575 -2.16086 4.74296 0
M  V30 1706 C 149.903 -1.97589 5.52427 0
M  V30 1707 C 152.255 -1.83011 6.05549 0
M  V30 1708 C 150.919 -1.7321 6.44635 0
M  V30 1709 H 150.189 -0.535927 0.511725 0
M  V30 1710 H 152.836 -0.806124 1.73706 0
M  V30 1711 H 151.141 -3.40536 1.93759 0
M  V30 1712 H 152.838 -3.27919 2.30804 0
M  V30 1713 H 149.428 -2.47808 3.49699 0
M  V30 1714 H 153.612 -2.2144 4.4416 0
M  V30 1715 H 148.868 -1.88547 5.81601 0
M  V30 1716 H 153.042 -1.63164 6.77016 0
M  V30 1717 H 150.669 -1.46179 7.46013 0
M  V30 1718 N 152.244 -1.26651 -0.937939 0
M  V30 1719 C 153.192 -1.08308 -2.05845 0
M  V30 1720 C 154.186 -0.0090757 -1.69398 0
M  V30 1721 O 155.392 -0.166007 -1.79233 0
M  V30 1722 H 151.767 -0.333416 -0.674046 0
M  V30 1723 H 153.738 -2.03261 -2.18467 0
M  V30 1724 C 152.487 -0.736229 -3.39816 0
M  V30 1725 H 151.81 -1.55453 -3.6834 0
M  V30 1726 H 153.25 -0.64769 -4.19024 0
M  V30 1727 C 151.709 0.558824 -3.32233 0
M  V30 1728 O 152.239 1.59621 -3.68624 0
M  V30 1729 N 150.445 0.550657 -2.85335 0
M  V30 1730 H 149.992 -0.293943 -2.55917 0
M  V30 1731 H 149.95 1.41726 -2.80644 0
M  V30 1732 N 153.722 1.14298 -1.08507 0
M  V30 1733 C 154.672 2.17449 -0.685569 0
M  V30 1734 C 155.656 1.58167 0.295315 0
M  V30 1735 O 156.848 1.76675 0.107172 0
M  V30 1736 C 153.977 3.43161 -0.0975318 0
M  V30 1737 C 153.063 4.09471 -1.10426 0
M  V30 1738 N 153.454 4.51089 -2.28806 0
M  V30 1739 C 151.752 4.35976 -0.940258 0
M  V30 1740 C 152.453 5.02654 -2.9277 0
M  V30 1741 N 151.429 4.96927 -2.20374 0
M  V30 1742 H 155.231 2.47369 -1.587 0
M  V30 1743 H 152.745 1.30992 -0.959936 0
M  V30 1744 H 154.742 4.16388 0.20664 0
M  V30 1745 H 153.402 3.14719 0.798872 0
M  V30 1746 H 154.413 4.44097 -2.66455 0
M  V30 1747 H 151.09 4.17386 -0.0977441 0
M  V30 1748 H 152.48 5.44723 -3.93352 0
M  V30 1749 N 155.201 0.870884 1.31352 0
M  V30 1750 C 156.448 0.482273 1.96673 0
M  V30 1751 C 156.776 -0.965638 1.68836 0
M  V30 1752 O 156.031 -1.69514 0.977937 0
M  V30 1753 C 156.33 0.687157 3.50732 0
M  V30 1754 C 155.996 2.108 3.9859 0
M  V30 1755 C 154.658 2.49656 4.1137 0
M  V30 1756 C 157.01 3.03459 4.23748 0
M  V30 1757 C 154.338 3.80412 4.46659 0
M  V30 1758 C 156.69 4.3373 4.60501 0
M  V30 1759 C 155.354 4.725 4.71487 0
M  V30 1760 H 154.624 0.176476 0.719679 0
M  V30 1761 H 157.271 1.10405 1.56471 0
M  V30 1762 H 155.576 -0.0177476 3.91796 0
M  V30 1763 H 157.273 0.366284 3.99324 0
M  V30 1764 H 153.863 1.79633 3.8914 0
M  V30 1765 H 158.047 2.74665 4.13368 0
M  V30 1766 H 153.303 4.1021 4.53362 0
M  V30 1767 H 157.477 5.05578 4.78919 0
M  V30 1768 H 155.104 5.73859 4.98588 0
M  V30 1769 N 156.679 -1.44442 0.630414 0
M  V30 1770 C 157.919 -2.03934 0.137919 0
M  V30 1771 C 158.283 -1.48509 -1.21692 0
M  V30 1772 O 159.484 -1.99499 -1.80149 0
M  V30 1773 C 157.755 -3.57187 0.123373 0
M  V30 1774 S 159.314 -4.37741 -0.304604 0
M  V30 1775 H 156.132 -0.708401 0.0607353 0
M  V30 1776 H 158.734 -1.76835 0.833643 0
M  V30 1777 H 157.438 -3.95032 1.11256 0
M  V30 1778 H 156.969 -3.88895 -0.59362 0
M  V30 1779 H 158.984 -4.71403 -1.54897 0
M  V30 1780 N 158.157 -0.370918 -1.53173 0
M  V30 1781 C 159.406 0.218249 -2.00516 0
M  V30 1782 C 159.719 1.49429 -1.26215 0
M  V30 1783 O 160.925 2.16239 -1.64174 0
M  V30 1784 C 159.381 0.43948 -3.57207 0
M  V30 1785 C 158.989 -0.822244 -4.4039 0
M  V30 1786 C 160.733 0.986012 -4.1289 0
M  V30 1787 C 158.64 -0.570304 -5.88644 0
M  V30 1788 H 157.57 0.0853333 -0.749156 0
M  V30 1789 H 160.221 -0.490483 -1.76823 0
M  V30 1790 H 158.603 1.20961 -3.77074 0
M  V30 1791 H 159.777 -1.59557 -4.32294 0
M  V30 1792 H 158.092 -1.29238 -3.95836 0
M  V30 1793 H 160.689 1.18991 -5.21292 0
M  V30 1794 H 161.032 1.94972 -3.6782 0
M  V30 1795 H 161.565 0.27592 -3.96842 0
M  V30 1796 H 158.304 -1.50449 -6.38001 0
M  V30 1797 H 157.824 0.164427 -5.99575 0
M  V30 1798 H 159.503 -0.19784 -6.46697 0
M  V30 1799 N 159.635 1.57281 -0.100228 0
M  V30 1800 C 160.567 2.11342 0.886972 0
M  V30 1801 C 161.58 1.05182 1.24261 0
M  V30 1802 O 162.769 1.32613 1.19483 0
M  V30 1803 C 159.869 2.5825 2.19454 0
M  V30 1804 C 159.042 3.88302 2.01346 0
M  V30 1805 C 158.101 4.21004 3.15661 0
M  V30 1806 O 157.127 4.9014 2.89398 0
M  V30 1807 N 158.329 3.76818 4.41575 0
M  V30 1808 H 161.094 2.96668 0.425216 0
M  V30 1809 H 158.655 1.61678 0.0847334 0
M  V30 1810 H 160.647 2.7717 2.94888 0
M  V30 1811 H 159.217 1.77907 2.57037 0
M  V30 1812 H 158.437 3.7848 1.10212 0
M  V30 1813 H 159.725 4.73375 1.8653 0
M  V30 1814 H 159.123 3.2102 4.65792 0
M  V30 1815 H 157.68 4.00882 5.13942 0
M  V30 1816 N 161.113 -0.173488 1.56642 0
M  V30 1817 C 162.043 -1.2171 1.99271 0
M  V30 1818 C 163.024 -1.46289 0.867959 0
M  V30 1819 O 164.209 -1.5766 1.13388 0
M  V30 1820 C 161.339 -2.55651 2.35074 0
M  V30 1821 C 160.293 -2.45645 3.50489 0
M  V30 1822 C 159.619 -3.84056 3.72028 0
M  V30 1823 C 160.919 -1.96302 4.84007 0
M  V30 1824 H 162.613 -0.86275 2.867 0
M  V30 1825 H 160.159 -0.413571 1.37933 0
M  V30 1826 H 162.112 -3.2886 2.63494 0
M  V30 1827 H 160.836 -2.92869 1.44552 0
M  V30 1828 H 159.495 -1.7489 3.22194 0
M  V30 1829 H 159.143 -4.18664 2.788 0
M  V30 1830 H 158.843 -3.7823 4.49684 0
M  V30 1831 H 160.367 -4.58854 4.02846 0
M  V30 1832 H 161.781 -2.59284 5.11317 0
M  V30 1833 H 160.178 -2.01429 5.65284 0
M  V30 1834 H 161.248 -0.917226 4.76146 0
M  V30 1835 N 162.591 -1.51276 -0.441967 0
M  V30 1836 C 164.002 -1.56244 -1.02199 0
M  V30 1837 C 164.353 -0.383149 -1.92422 0
M  V30 1838 O 163.478 0.500613 -2.1053 0
M  V30 1839 C 164.073 -2.83162 -1.86024 0
M  V30 1840 C 162.632 -2.90716 -2.39084 0
M  V30 1841 C 161.779 -2.50858 -1.18175 0
M  V30 1842 H 164.73 -1.5712 -0.223416 0
M  V30 1843 H 164.751 -2.66663 -2.71425 0
M  V30 1844 H 164.263 -3.68974 -1.20331 0
M  V30 1845 H 162.364 -2.09323 -3.08244 0
M  V30 1846 H 162.477 -3.94266 -2.72198 0
M  V30 1847 H 160.841 -2.03951 -1.52565 0
M  V30 1848 H 161.624 -3.3901 -0.541001 0
M  V30 1849 N 164.069 0.697108 -1.41344 0
M  V30 1850 C 164.999 1.82353 -1.45841 0
M  V30 1851 C 165.98 1.67115 -0.317247 0
M  V30 1852 O 167.165 1.86871 -0.528474 0
M  V30 1853 C 164.295 3.20476 -1.33838 0
M  V30 1854 C 163.249 3.50415 -2.4575 0
M  V30 1855 C 162.575 4.87878 -2.18813 0
M  V30 1856 C 163.875 3.49546 -3.88091 0
M  V30 1857 H 165.569 1.78846 -2.40113 0
M  V30 1858 H 163.115 0.859028 -1.15571 0
M  V30 1859 H 165.068 3.98988 -1.35596 0
M  V30 1860 H 163.792 3.24604 -0.360498 0
M  V30 1861 H 162.451 2.74253 -2.43271 0
M  V30 1862 H 162.099 4.8863 -1.19371 0
M  V30 1863 H 161.799 5.08875 -2.93803 0
M  V30 1864 H 163.323 5.68702 -2.22284 0
M  V30 1865 H 164.737 4.18066 -3.92293 0
M  V30 1866 H 163.134 3.82075 -4.62751 0
M  V30 1867 H 164.204 2.48552 -4.16353 0
M  V30 1868 N 165.547 1.27147 0.931209 0
M  V30 1869 C 166.796 1.12664 1.67302 0
M  V30 1870 C 167.109 -0.327718 1.92835 0
M  V30 1871 O 168.315 -0.593392 2.64936 0
M  V30 1872 C 166.771 1.9683 3.01307 0
M  V30 1873 C 166.379 3.46901 2.83485 0
M  V30 1874 C 168.123 1.90985 3.79111 0
M  V30 1875 C 166.03 4.23279 4.13024 0
M  V30 1876 H 164.96 0.41803 0.627509 0
M  V30 1877 H 167.611 1.51539 1.03481 0
M  V30 1878 H 165.993 1.50797 3.66164 0
M  V30 1879 H 167.167 4.00773 2.27415 0
M  V30 1880 H 165.482 3.54088 2.19113 0
M  V30 1881 H 168.079 2.45328 4.75098 0
M  V30 1882 H 168.422 0.882718 4.06834 0
M  V30 1883 H 168.955 2.34895 3.21044 0
M  V30 1884 H 165.694 5.26503 3.90481 0
M  V30 1885 H 165.214 3.74186 4.6877 0
M  V30 1886 H 166.893 4.32265 4.81411 0
M  V30 1887 N 167.025 -1.13721 1.09112 0
M  V30 1888 C 168.265 -1.86576 0.834801 0
M  V30 1889 C 168.629 -1.81435 -0.628122 0
M  V30 1890 O 169.83 -2.49497 -1.00024 0
M  V30 1891 C 168.101 -3.30872 1.35124 0
M  V30 1892 S 169.66 -4.21257 1.22832 0
M  V30 1893 H 166.478 -0.643666 0.302017 0
M  V30 1894 H 169.08 -1.37085 1.39385 0
M  V30 1895 H 167.784 -3.32166 2.41027 0
M  V30 1896 H 167.315 -3.85423 0.788185 0
M  V30 1897 H 169.33 -4.95884 0.177191 0
M  V30 1898 N 168.503 -0.877838 -1.30888 0
M  V30 1899 C 169.751 -0.491723 -1.96027 0
M  V30 1900 C 170.072 0.960827 -1.69685 0
M  V30 1901 O 169.342 1.67462 -1.01654 0
M  V30 1902 H 167.922 -0.17885 -0.725273 0
M  V30 1903 H 170.584 -1.11935 -1.59551 0
M  V30 1904 H 169.68 -0.656016 -3.05128 0
M  V30 1905 N 169.982 1.44106 -0.638065 0
M  V30 1906 C 171.21 2.06336 -0.152615 0
M  V30 1907 C 171.625 1.47731 1.17563 0
M  V30 1908 O 170.982 0.602806 1.72257 0
M  V30 1909 C 171.033 3.61479 -0.0391491 0
M  V30 1910 O 170.754 4.17903 -1.31487 0
M  V30 1911 C 172.255 4.40757 0.474176 0
M  V30 1912 H 169.475 0.665862 -0.0828776 0
M  V30 1913 H 172.019 1.84862 -0.87443 0
M  V30 1914 H 170.174 3.82191 0.633142 0
M  V30 1915 H 170.588 5.11416 -1.16421 0
M  V30 1916 H 172.062 5.49707 0.502562 0
M  V30 1917 H 172.539 4.12697 1.50258 0
M  V30 1918 H 173.145 4.24979 -0.165102 0
M  V30 1919 N 171.46 0.379036 1.52974 0
M  V30 1920 C 172.69 -0.20649 2.05566 0
M  V30 1921 C 173.098 -1.41906 1.25137 0
M  V30 1922 O 172.441 -1.81421 0.288464 0
M  V30 1923 C 172.503 -0.651086 3.53555 0
M  V30 1924 C 172.167 0.446626 4.54812 0
M  V30 1925 C 173.164 1.30079 5.03364 0
M  V30 1926 C 170.849 0.610719 4.98573 0
M  V30 1927 C 172.843 2.30426 5.94292 0
M  V30 1928 C 170.53 1.61754 5.89304 0
M  V30 1929 C 171.528 2.46274 6.37054 0
M  V30 1930 O 171.216 3.45237 7.25994 0
M  V30 1931 H 170.948 -0.0372381 0.674974 0
M  V30 1932 H 173.502 0.539718 1.98182 0
M  V30 1933 H 171.732 -1.44911 3.58522 0
M  V30 1934 H 173.421 -1.16112 3.88938 0
M  V30 1935 H 174.187 1.18527 4.70294 0
M  V30 1936 H 170.066 -0.0374044 4.60985 0
M  V30 1937 H 173.61 2.96432 6.31485 0
M  V30 1938 H 169.507 1.73348 6.21788 0
M  V30 1939 H 170.275 3.41124 7.44027 0
M  V30 1940 N 172.938 -1.57226 0.108567 0
M  V30 1941 C 174.168 -1.9889 -0.559142 0
M  V30 1942 C 174.576 -0.986889 -1.61422 0
M  V30 1943 O 173.919 0.0298705 -1.83676 0
M  V30 1944 C 173.981 -3.36952 -1.25315 0
M  V30 1945 C 173.645 -4.55679 -0.347248 0
M  V30 1946 C 174.642 -5.18281 0.409996 0
M  V30 1947 C 172.327 -5.0162 -0.261367 0
M  V30 1948 C 174.321 -6.25203 1.24096 0
M  V30 1949 C 172.008 -6.08405 0.573238 0
M  V30 1950 C 173.006 -6.70063 1.32304 0
M  V30 1951 O 172.694 -7.74788 2.14381 0
M  V30 1952 H 172.426 -0.658343 -0.153492 0
M  V30 1953 H 174.98 -2.04532 0.188584 0
M  V30 1954 H 173.21 -3.28032 -2.04773 0
M  V30 1955 H 174.899 -3.62974 -1.81673 0
M  V30 1956 H 175.665 -4.8371 0.353457 0
M  V30 1957 H 171.544 -4.53381 -0.834656 0
M  V30 1958 H 175.088 -6.73259 1.82669 0
M  V30 1959 H 170.985 -6.42406 0.631208 0
M  V30 1960 H 171.753 -7.91837 2.07209 0
M  V30 1961 N 174.416 0.165178 -1.56732 0
M  V30 1962 C 175.663 0.880807 -1.8234 0
M  V30 1963 C 175.991 1.81977 -0.686621 0
M  V30 1964 O 175.246 1.92971 0.325697 0
M  V30 1965 C 175.545 1.70405 -3.1416 0
M  V30 1966 C 175.211 0.913475 -4.4155 0
M  V30 1967 C 173.873 0.695303 -4.7615 0
M  V30 1968 C 176.225 0.359349 -5.1996 0
M  V30 1969 C 173.553 -0.0879947 -5.86634 0
M  V30 1970 C 175.905 -0.410893 -6.31264 0
M  V30 1971 C 174.569 -0.639808 -6.64427 0
M  V30 1972 H 173.839 0.32231 -0.667231 0
M  V30 1973 H 176.486 0.145402 -1.90947 0
M  V30 1974 H 174.791 2.50903 -3.00923 0
M  V30 1975 H 176.488 2.26091 -3.31186 0
M  V30 1976 H 173.078 1.09357 -4.14414 0
M  V30 1977 H 177.262 0.515228 -4.93618 0
M  V30 1978 H 172.518 -0.27503 -6.10781 0
M  V30 1979 H 176.692 -0.847494 -6.91224 0
M  V30 1980 H 174.319 -1.24864 -7.49875 0
M  V30 1981 N 175.894 1.51508 0.433938 0
M  V30 1982 C 177.122 1.68157 1.20543 0
M  V30 1983 C 177.537 0.380362 1.84929 0
M  V30 1984 O 176.894 -0.641446 1.70856 0
M  V30 1985 C 176.945 2.79965 2.28696 0
M  V30 1986 O 176.666 4.05045 1.66943 0
M  V30 1987 C 178.167 3.07912 3.18912 0
M  V30 1988 H 175.387 0.56421 0.363191 0
M  V30 1989 H 177.931 1.97941 0.513754 0
M  V30 1990 H 176.086 2.5277 2.93574 0
M  V30 1991 H 176.5 4.67165 2.38448 0
M  V30 1992 H 177.974 3.89719 3.90926 0
M  V30 1993 H 178.451 2.20456 3.79863 0
M  V30 1994 H 179.057 3.36779 2.59731 0
M  V30 1995 N 177.372 -0.689602 1.41712 0
M  V30 1996 C 178.282 -1.83314 1.46401 0
M  V30 1997 C 179.298 -1.7036 0.35405 0
M  V30 1998 O 180.474 -1.92171 0.602692 0
M  V30 1999 C 177.539 -3.19344 1.34982 0
M  V30 2000 C 176.6 -3.44363 2.56344 0
M  V30 2001 C 175.833 -4.73904 2.45461 0
M  V30 2002 O 176.056 -5.508 1.48241 0
M  V30 2003 O 174.99 -4.99839 3.35328 0
M  V30 2004 H 178.816 -1.82314 2.42889 0
M  V30 2005 H 176.401 -0.843438 1.23315 0
M  V30 2006 H 178.283 -4.00547 1.3092 0
M  V30 2007 H 176.958 -3.21014 0.41612 0
M  V30 2008 H 175.865 -2.63067 2.65982 0
M  V30 2009 H 177.198 -3.47512 3.48563 0
M  V30 2010 N 178.85 -1.27639 -0.924453 0
M  V30 2011 C 180.08 -1.16819 -1.70402 0
M  V30 2012 C 180.488 0.277191 -1.87158 0
M  V30 2013 O 179.831 1.20025 -1.39067 0
M  V30 2014 C 179.893 -1.78305 -3.12166 0
M  V30 2015 C 179.557 -3.27502 -3.18734 0
M  V30 2016 C 180.554 -4.2409 -3.00738 0
M  V30 2017 C 178.239 -3.68269 -3.4159 0
M  V30 2018 C 180.233 -5.59422 -3.05492 0
M  V30 2019 C 177.92 -5.0373 -3.45977 0
M  V30 2020 C 178.918 -5.99116 -3.27946 0
M  V30 2021 O 178.606 -7.32108 -3.32074 0
M  V30 2022 H 178.338 -0.406931 -0.539799 0
M  V30 2023 H 180.892 -1.69078 -1.16626 0
M  V30 2024 H 179.122 -1.20528 -3.67437 0
M  V30 2025 H 180.811 -1.62154 -3.72103 0
M  V30 2026 H 181.577 -3.93931 -2.82919 0
M  V30 2027 H 177.456 -2.94496 -3.54673 0
M  V30 2028 H 181 -6.33852 -2.91337 0
M  V30 2029 H 176.897 -5.33543 -3.63321 0
M  V30 2030 H 177.665 -7.40598 -3.48507 0
M  V30 2031 N 180.328 1.1314 -1.09713 0
M  V30 2032 C 181.575 1.84484 -0.834987 0
M  V30 2033 C 181.903 1.83689 0.639418 0
M  V30 2034 O 181.158 1.2724 1.4869 0
M  V30 2035 C 181.457 3.32167 -1.3191 0
M  V30 2036 C 181.123 3.53139 -2.80363 0
M  V30 2037 C 179.785 3.58571 -3.20905 0
M  V30 2038 C 182.137 3.60866 -3.76065 0
M  V30 2039 C 179.465 3.69267 -4.55916 0
M  V30 2040 C 181.817 3.73089 -5.10869 0
M  V30 2041 C 180.481 3.76775 -5.50996 0
M  V30 2042 H 179.751 0.675073 -0.305544 0
M  V30 2043 H 182.398 1.33554 -1.37243 0
M  V30 2044 H 180.703 3.85469 -0.701517 0
M  V30 2045 H 182.4 3.85821 -1.09284 0
M  V30 2046 H 178.99 3.49569 -2.47991 0
M  V30 2047 H 183.174 3.55946 -3.45855 0
M  V30 2048 H 178.43 3.70388 -4.86438 0
M  V30 2049 H 182.604 3.78011 -5.84877 0
M  V30 2050 H 180.231 3.84815 -6.55608 0
M  V30 2051 N 181.806 0.884767 1.30421 0
M  V30 2052 C 182.754 0.340869 2.30089 0
M  V30 2053 C 183.748 -0.55201 1.60154 0
M  V30 2054 O 184.954 -0.436467 1.74628 0
M  V30 2055 H 181.329 0.0915739 0.746404 0
M  V30 2056 H 183.3 1.19513 2.73421 0
M  V30 2057 C 182.049 -0.429779 3.45034 0
M  V30 2058 H 181.372 0.248024 3.9903 0
M  V30 2059 H 182.812 -0.775445 4.16849 0
M  V30 2060 C 181.271 -1.62677 2.95022 0
M  V30 2061 O 181.801 -2.72614 2.95033 0
M  V30 2062 N 180.007 -1.46387 2.51036 0
M  V30 2063 H 179.554 -0.569506 2.51226 0
M  V30 2064 H 179.512 -2.26612 2.17932 0
M  V30 2065 N 183.284 -1.43765 0.645699 0
M  V30 2066 C 184.533 -2.01116 0.153412 0
M  V30 2067 C 184.846 -1.51493 -1.23731 0
M  V30 2068 O 186.052 -2.01067 -1.8244 0
M  V30 2069 C 184.508 -3.59206 0.223473 0
M  V30 2070 C 184.116 -4.17823 1.61642 0
M  V30 2071 C 185.86 -4.23972 -0.211597 0
M  V30 2072 C 183.767 -5.68183 1.64081 0
M  V30 2073 H 182.697 -0.752093 0.0535891 0
M  V30 2074 H 185.348 -1.6482 0.806633 0
M  V30 2075 H 183.73 -3.92867 -0.497118 0
M  V30 2076 H 184.904 -3.95674 2.36176 0
M  V30 2077 H 183.219 -3.65399 1.99681 0
M  V30 2078 H 185.816 -5.34275 -0.213112 0
M  V30 2079 H 186.159 -3.97352 -1.24165 0
M  V30 2080 H 186.692 -3.95166 0.456988 0
M  V30 2081 H 183.431 -5.99559 2.64971 0
M  V30 2082 H 182.951 -5.9241 0.938611 0
M  V30 2083 H 184.63 -6.32085 1.3812 0
M  V30 2084 N 184.763 -0.387143 -1.52771 0
M  V30 2085 C 186.174 0.0873634 -1.86495 0
M  V30 2086 C 186.525 1.46336 -1.30691 0
M  V30 2087 O 185.65 2.068 -0.637409 0
M  V30 2088 C 186.245 0.165305 -3.38396 0
M  V30 2089 C 184.804 0.584101 -3.7184 0
M  V30 2090 C 183.951 -0.255279 -2.76122 0
M  V30 2091 H 186.902 -0.605104 -1.46711 0
M  V30 2092 H 186.923 0.984848 -3.67534 0
M  V30 2093 H 186.435 -0.836301 -3.78982 0
M  V30 2094 H 184.536 1.59315 -3.36823 0
M  V30 2095 H 184.649 0.343749 -4.77865 0
M  V30 2096 H 183.013 0.279126 -2.53166 0
M  V30 2097 H 183.796 -1.25482 -3.19545 0
M  V30 2098 N 186.241 1.57166 -0.116904 0
M  V30 2099 C 187.471 1.99184 0.548586 0
M  V30 2100 C 187.879 0.995436 1.60897 0
M  V30 2101 O 187.222 -0.0201293 1.83689 0
M  V30 2102 C 187.284 3.37611 1.23526 0
M  V30 2103 C 186.948 4.55857 0.323077 0
M  V30 2104 C 187.945 5.18056 -0.437476 0
M  V30 2105 C 185.63 5.01751 0.234761 0
M  V30 2106 C 187.624 6.24536 -1.2741 0
M  V30 2107 C 185.311 6.08093 -0.605496 0
M  V30 2108 C 186.309 6.69352 -1.35856 0
M  V30 2109 O 185.997 7.7364 -2.18487 0
M  V30 2110 H 185.729 0.659148 0.149999 0
M  V30 2111 H 188.283 2.0443 -0.199428 0
M  V30 2112 H 186.513 3.29113 2.0303 0
M  V30 2113 H 188.202 3.63932 1.79745 0
M  V30 2114 H 188.968 4.83516 -0.379105 0
M  V30 2115 H 184.847 4.53817 0.810601 0
M  V30 2116 H 188.391 6.72281 -1.86237 0
M  V30 2117 H 184.288 6.42063 -0.665268 0
M  V30 2118 H 185.056 7.90727 -2.11406 0
M  V30 2119 N 187.719 -0.156864 1.56817 0
M  V30 2120 C 188.996 -0.899244 1.73704 0
M  V30 2121 C 189.376 -1.99771 0.682254 0
M  V30 2122 O 188.724 -2.26515 -0.300522 0
M  V30 2123 C 188.934 -1.45075 3.17418 0
M  V30 2124 C 190.282 -1.91802 3.7881 0
M  V30 2125 O 191.306 -1.54838 3.20786 0
M  V30 2126 O 190.165 -2.5994 4.80722 0
M  V30 2127 H 187.259 -0.424267 0.709878 0
M  V30 2128 H 189.805 -0.143561 1.69092 0
M  V30 2129 H 188.577 -0.660846 3.85679 0
M  V30 2130 H 188.2 -2.27021 3.26416 0
M  V30 2131 N 189.197 -1.51736 -0.425897 0
M  V30 2132 C 190.443 -1.66174 -1.17294 0
M  V30 2133 C 190.798 -0.37876 -1.88635 0
M  V30 2134 O 190.091 0.626021 -1.81084 0
M  V30 2135 C 190.285 -2.81103 -2.20717 0
M  V30 2136 C 190.114 -4.20453 -1.59529 0
M  V30 2137 C 188.884 -4.86225 -1.37525 0
M  V30 2138 C 191.082 -5.03146 -1.06528 0
M  V30 2139 N 189.064 -6.09657 -0.720537 0
M  V30 2140 C 190.435 -6.17674 -0.536506 0
M  V30 2141 C 192.49 -4.88594 -0.958127 0
M  V30 2142 C 191.193 -7.19245 0.0888917 0
M  V30 2143 C 193.219 -5.90383 -0.346608 0
M  V30 2144 C 192.581 -7.04191 0.171564 0
M  V30 2145 H 188.68 -0.661871 -0.416475 0
M  V30 2146 H 191.264 -1.88997 -0.467801 0
M  V30 2147 H 189.435 -2.59924 -2.88607 0
M  V30 2148 H 191.167 -2.84662 -2.87663 0
M  V30 2149 H 187.922 -4.44293 -1.64015 0
M  V30 2150 H 188.346 -6.75756 -0.410292 0
M  V30 2151 H 192.988 -4.0085 -1.34459 0
M  V30 2152 H 190.706 -8.06628 0.48746 0
M  V30 2153 H 194.292 -5.81194 -0.265451 0
M  V30 2154 H 193.172 -7.81606 0.637309 0
M  V30 2155 N 190.675 0.682077 -1.42076 0
M  V30 2156 C 191.585 1.82535 -1.47371 0
M  V30 2157 C 192.601 1.7017 -0.363079 0
M  V30 2158 O 193.777 1.91848 -0.612875 0
M  V30 2159 C 190.842 3.18624 -1.36674 0
M  V30 2160 C 189.903 3.42999 -2.58167 0
M  V30 2161 C 189.136 4.72595 -2.4797 0
M  V30 2162 O 189.359 5.50006 -1.5116 0
M  V30 2163 O 188.293 4.98054 -3.37974 0
M  V30 2164 H 192.119 1.81023 -2.43853 0
M  V30 2165 H 189.704 0.836887 -1.2376 0
M  V30 2166 H 191.586 3.99847 -1.33043 0
M  V30 2167 H 190.261 3.20789 -0.433138 0
M  V30 2168 H 189.168 2.61653 -2.67373 0
M  V30 2169 H 190.501 3.45659 -3.50401 0
M  V30 2170 N 192.153 1.28127 0.917671 0
M  V30 2171 C 193.569 1.05749 1.19538 0
M  V30 2172 C 193.769 -0.202633 2.00479 0
M  V30 2173 O 192.825 -0.905382 2.3571 0
M  V30 2174 C 194.138 2.30273 1.93378 0
M  V30 2175 C 195.686 2.35412 2.06277 0
M  V30 2176 C 196.161 3.59692 2.83524 0
M  V30 2177 N 197.652 3.60309 2.91087 0
M  V30 2178 C 198.387 4.53147 3.51348 0
M  V30 2179 N 197.883 5.563 4.12919 0
M  V30 2180 N 199.676 4.40751 3.48849 0
M  V30 2181 H 191.827 2.09024 0.377184 0
M  V30 2182 H 194.09 0.919798 0.22951 0
M  V30 2183 H 193.796 3.22055 1.41328 0
M  V30 2184 H 193.67 2.36378 2.93947 0
M  V30 2185 H 196.057 1.4413 2.57508 0
M  V30 2186 H 196.138 2.33304 1.04895 0
M  V30 2187 H 195.782 4.51316 2.32973 0
M  V30 2188 H 195.712 3.59054 3.85211 0
M  V30 2189 H 198.203 2.85714 2.47338 0
M  V30 2190 H 198.516 6.2329 4.56869 0
M  V30 2191 H 196.861 5.60131 4.11435 0
M  V30 2192 H 200.052 3.59367 2.99955 0
M  V30 2193 H 200.225 5.13291 3.9552 0
M  V30 2194 N 193.631 -1.12557 1.10312 0
M  V30 2195 C 194.564 -2.1737 0.694674 0
M  V30 2196 C 195.542 -1.59745 -0.303373 0
M  V30 2197 O 196.726 -1.87408 -0.202578 0
M  V30 2198 C 193.853 -3.38691 0.0248052 0
M  V30 2199 C 192.899 -4.14943 0.986121 0
M  V30 2200 S 193.732 -4.73413 2.50281 0
M  V30 2201 C 194.888 -5.9807 1.84562 0
M  V30 2202 H 195.121 -2.5168 1.58255 0
M  V30 2203 H 192.654 -1.23998 0.919992 0
M  V30 2204 H 194.612 -4.08959 -0.355361 0
M  V30 2205 H 193.273 -3.02664 -0.839851 0
M  V30 2206 H 192.466 -5.01854 0.464651 0
M  V30 2207 H 192.068 -3.50377 1.30813 0
M  V30 2208 H 194.36 -6.67232 1.17507 0
M  V30 2209 H 195.303 -6.54841 2.69423 0
M  V30 2210 H 195.711 -5.49073 1.31069 0
M  V30 2211 N 195.109 -0.891671 -1.2995 0
M  V30 2212 C 196.52 -0.563104 -1.78006 0
M  V30 2213 C 196.871 0.920978 -1.73241 0
M  V30 2214 O 195.996 1.71987 -1.31337 0
M  V30 2215 C 196.591 -1.01539 -3.23226 0
M  V30 2216 C 195.15 -0.738124 -3.69092 0
M  V30 2217 C 194.297 -1.19461 -2.50249 0
M  V30 2218 H 197.248 -1.07522 -1.16725 0
M  V30 2219 H 197.269 -0.347217 -3.78912 0
M  V30 2220 H 196.781 -2.09555 -3.26662 0
M  V30 2221 H 194.882 0.329766 -3.71138 0
M  V30 2222 H 194.995 -1.33037 -4.60259 0
M  V30 2223 H 193.359 -0.613787 -2.47194 0
M  V30 2224 H 194.142 -2.28265 -2.56417 0
M  V30 2225 N 196.587 1.43421 -0.653314 0
M  V30 2226 C 198.003 1.56341 -0.320886 0
M  V30 2227 C 198.203 1.63696 1.17499 0
M  V30 2228 O 197.259 1.59208 1.95982 0
M  V30 2229 C 198.572 2.82424 -1.03233 0
M  V30 2230 C 200.12 2.96168 -1.01259 0
M  V30 2231 C 200.595 4.25084 -1.70492 0
M  V30 2232 N 202.086 4.31948 -1.67257 0
M  V30 2233 C 202.821 5.30466 -2.17701 0
M  V30 2234 N 202.317 6.35261 -2.76434 0
M  V30 2235 N 204.11 5.2212 -2.082 0
M  V30 2236 H 196.261 1.3689 -1.62403 0
M  V30 2237 H 198.524 0.657455 -0.682977 0
M  V30 2238 H 198.23 2.83053 -2.08744 0
M  V30 2239 H 198.104 3.72653 -0.583948 0
M  V30 2240 H 200.491 2.9508 0.0341235 0
M  V30 2241 H 200.572 2.07229 -1.49966 0
M  V30 2242 H 200.216 4.26932 -2.7512 0
M  V30 2243 H 200.146 5.1292 -1.19251 0
M  V30 2244 H 202.637 3.56838 -1.24398 0
M  V30 2245 H 202.95 7.06754 -3.12601 0
M  V30 2246 H 201.295 6.35884 -2.80495 0
M  V30 2247 H 204.486 4.39166 -1.62021 0
M  V30 2248 H 204.659 5.98739 -2.47822 0
M  V30 2249 N 198.065 0.39524 1.52563 0
M  V30 2250 C 199.311 -0.177763 2.02622 0
M  V30 2251 C 199.666 -1.43974 1.27629 0
M  V30 2252 O 198.959 -1.87995 0.36992 0
M  V30 2253 C 199.153 -0.493444 3.53977 0
M  V30 2254 C 198.982 0.736392 4.4363 0
M  V30 2255 C 197.752 1.25744 4.89404 0
M  V30 2256 C 199.95 1.61046 4.88435 0
M  V30 2257 N 197.932 2.44421 5.63145 0
M  V30 2258 C 199.303 2.64359 5.60816 0
M  V30 2259 C 201.358 1.62985 4.70468 0
M  V30 2260 C 200.061 3.69505 6.17137 0
M  V30 2261 C 202.087 2.67042 5.27677 0
M  V30 2262 C 201.449 3.69077 5.99968 0
M  V30 2263 H 197.548 -0.0269794 0.781534 0
M  V30 2264 H 200.132 0.546466 1.86874 0
M  V30 2265 H 198.303 -1.18672 3.69826 0
M  V30 2266 H 200.035 -1.05412 3.90731 0
M  V30 2267 H 196.79 0.817546 4.6649 0
M  V30 2268 H 197.214 3.04485 6.04663 0
M  V30 2269 H 201.856 0.854442 4.14076 0
M  V30 2270 H 199.574 4.4791 6.72608 0
M  V30 2271 H 203.16 2.69433 5.15652 0
M  V30 2272 H 202.04 4.48273 6.43444 0
M  V30 2273 N 199.544 -1.57102 0.125237 0
M  V30 2274 C 200.774 -1.99472 -0.538015 0
M  V30 2275 C 201.182 -1.00395 -1.60366 0
M  V30 2276 O 200.525 0.0103875 -1.83697 0
M  V30 2277 C 200.587 -3.38262 -1.21734 0
M  V30 2278 C 200.251 -4.56021 -0.298897 0
M  V30 2279 C 201.248 -5.17817 0.464943 0
M  V30 2280 C 198.933 -5.01869 -0.208149 0
M  V30 2281 C 200.927 -6.23852 1.3072 0
M  V30 2282 C 198.614 -6.07763 0.637736 0
M  V30 2283 C 199.612 -6.68622 1.39403 0
M  V30 2284 O 199.3 -7.7247 2.22586 0
M  V30 2285 H 199.032 -0.659934 -0.146501 0
M  V30 2286 H 201.586 -2.04321 0.210267 0
M  V30 2287 H 199.816 -3.30185 -2.01282 0
M  V30 2288 H 201.505 -3.6488 -1.77813 0
M  V30 2289 H 202.271 -4.83308 0.404741 0
M  V30 2290 H 198.15 -4.54241 -0.786522 0
M  V30 2291 H 201.694 -6.71284 1.898 0
M  V30 2292 H 197.591 -6.41701 0.699309 0
M  V30 2293 H 198.359 -7.89595 2.15596 0
M  V30 2294 N 201.022 0.148545 -1.56898 0
M  V30 2295 C 202.269 0.861418 -1.83264 0
M  V30 2296 C 202.597 1.81239 -0.705883 0
M  V30 2297 O 201.852 1.93305 0.305212 0
M  V30 2298 C 202.151 1.67064 -3.1595 0
M  V30 2299 C 201.817 0.866591 -4.42494 0
M  V30 2300 C 200.479 0.644762 -4.76861 0
M  V30 2301 C 202.831 0.30418 -5.20312 0
M  V30 2302 C 200.159 -0.15021 -5.86508 0
M  V30 2303 C 202.511 -0.477824 -6.30793 0
M  V30 2304 C 201.175 -0.710244 -6.63711 0
M  V30 2305 H 200.445 0.315215 -0.670612 0
M  V30 2306 H 203.092 0.125142 -1.91091 0
M  V30 2307 H 201.397 2.47698 -3.03567 0
M  V30 2308 H 203.094 2.22566 -3.33565 0
M  V30 2309 H 199.684 1.04955 -4.15551 0
M  V30 2310 H 203.868 0.462844 -4.94137 0
M  V30 2311 H 199.124 -0.339796 -6.10455 0
M  V30 2312 H 203.298 -0.92076 -6.90286 0
M  V30 2313 H 200.925 -1.3281 -7.48509 0
M  V30 2314 N 202.5 1.5196 0.417844 0
M  V30 2315 C 203.43 1.77634 1.51554 0
M  V30 2316 C 204.411 0.626918 1.58126 0
M  V30 2317 O 205.596 0.871632 1.7354 0
M  V30 2318 C 202.726 1.91911 2.8946 0
M  V30 2319 C 201.68 3.07463 2.97743 0
M  V30 2320 C 201.006 3.06951 4.37819 0
M  V30 2321 C 202.306 4.47082 2.70027 0
M  V30 2322 H 204 2.6955 1.3032 0
M  V30 2323 H 201.546 1.29706 0.625492 0
M  V30 2324 H 203.499 2.08455 3.6623 0
M  V30 2325 H 202.223 0.966598 3.11969 0
M  V30 2326 H 200.882 2.90656 2.23416 0
M  V30 2327 H 200.53 2.09438 4.57323 0
M  V30 2328 H 200.23 3.84556 4.44286 0
M  V30 2329 H 201.754 3.25613 5.16535 0
M  V30 2330 H 203.168 4.6414 3.36522 0
M  V30 2331 H 201.565 5.2654 2.87881 0
M  V30 2332 H 202.635 4.55777 1.65514 0
M  V30 2333 N 203.978 -0.674533 1.42435 0
M  V30 2334 C 204.908 -1.80009 1.48724 0
M  V30 2335 C 205.889 -1.6659 0.343793 0
M  V30 2336 O 207.074 -1.86007 0.558137 0
M  V30 2337 C 204.204 -3.18306 1.38919 0
M  V30 2338 C 203.158 -3.46461 2.51294 0
M  V30 2339 C 202.484 -4.84335 2.26547 0
M  V30 2340 C 203.784 -3.43328 3.93603 0
M  V30 2341 H 205.478 -1.75004 2.42928 0
M  V30 2342 H 203.024 -0.840533 1.16923 0
M  V30 2343 H 204.977 -3.9678 1.41927 0
M  V30 2344 H 203.701 -3.2399 0.412094 0
M  V30 2345 H 202.36 -2.70348 2.47604 0
M  V30 2346 H 202.008 -4.86669 1.2713 0
M  V30 2347 H 201.708 -5.04136 3.01861 0
M  V30 2348 H 203.232 -5.65094 2.31304 0
M  V30 2349 H 204.646 -4.11772 3.98894 0
M  V30 2350 H 203.043 -3.74664 4.68771 0
M  V30 2351 H 204.113 -2.41897 4.20255 0
M  V30 2352 N 205.456 -1.28612 -0.910864 0
M  V30 2353 C 206.419 -1.12803 -1.9952 0
M  V30 2354 C 207.419 -0.0668264 -1.60661 0
M  V30 2355 O 208.609 -0.312847 -1.71368 0
M  V30 2356 C 205.741 -0.72254 -3.33155 0
M  V30 2357 H 206.934 -2.09109 -2.14973 0
M  V30 2358 H 204.487 -1.11639 -1.09391 0
M  V30 2359 H 205.222 0.241152 -3.23402 0
M  V30 2360 H 205.007 -1.48916 -3.62721 0
M  V30 2361 H 206.497 -0.634666 -4.12749 0
M  V30 2362 N 206.934 1.1197 -1.10907 0
M  V30 2363 C 208.35 1.35591 -0.841852 0
M  V30 2364 C 208.55 1.94233 0.536246 0
M  V30 2365 O 207.606 2.1717 1.28816 0
M  V30 2366 C 208.919 2.29284 -1.94549 0
M  V30 2367 C 210.467 2.42862 -1.97451 0
M  V30 2368 C 210.942 3.39873 -3.07002 0
M  V30 2369 N 212.433 3.47433 -3.06341 0
M  V30 2370 C 213.168 4.22421 -3.87748 0
M  V30 2371 N 212.664 5.00432 -4.79103 0
M  V30 2372 N 214.457 4.17876 -3.75946 0
M  V30 2373 H 206.608 0.722664 -1.99728 0
M  V30 2374 H 208.871 0.380635 -0.868229 0
M  V30 2375 H 208.577 1.93378 -2.93765 0
M  V30 2376 H 208.451 3.29452 -1.83688 0
M  V30 2377 H 210.838 2.78046 -0.988645 0
M  V30 2378 H 210.919 1.42566 -2.12388 0
M  V30 2379 H 210.563 3.05417 -4.05811 0
M  V30 2380 H 210.493 4.40011 -2.89306 0
M  V30 2381 H 212.984 2.91784 -2.40147 0
M  V30 2382 H 213.297 5.55002 -5.37766 0
M  V30 2383 H 211.642 4.99612 -4.83128 0
M  V30 2384 H 214.833 3.56016 -3.03924 0
M  V30 2385 H 215.006 4.76061 -4.39624 0
M  V30 2386 N 208.412 0.89855 1.29475 0
M  V30 2387 C 209.652 0.530771 1.97388 0
M  V30 2388 C 210.016 -0.905832 1.69289 0
M  V30 2389 O 211.217 -1.38042 2.30646 0
M  V30 2390 C 209.488 0.81369 3.48014 0
M  V30 2391 S 211.047 0.550048 4.35339 0
M  V30 2392 H 207.865 0.196956 0.683176 0
M  V30 2393 H 210.467 1.16074 1.57312 0
M  V30 2394 H 209.171 1.85749 3.65958 0
M  V30 2395 H 208.702 0.171795 3.93025 0
M  V30 2396 H 210.717 -0.605423 4.92493 0
M  V30 2397 N 209.89 -1.43072 0.660911 0
M  V30 2398 C 211.137 -2.01721 0.177445 0
M  V30 2399 C 211.465 -1.5218 -1.21126 0
M  V30 2400 O 210.72 -0.708659 -1.82419 0
M  V30 2401 C 211.019 -3.57103 0.145563 0
M  V30 2402 C 210.685 -4.26021 1.47705 0
M  V30 2403 C 209.347 -4.44563 1.84165 0
M  V30 2404 C 211.699 -4.64983 2.35458 0
M  V30 2405 C 209.027 -4.99334 3.0803 0
M  V30 2406 C 211.379 -5.21127 3.58622 0
M  V30 2407 C 210.043 -5.37884 3.95268 0
M  V30 2408 H 209.313 -0.73815 0.0649317 0
M  V30 2409 H 211.96 -1.71446 0.853144 0
M  V30 2410 H 210.265 -3.86965 -0.61361 0
M  V30 2411 H 211.962 -4.00248 -0.2455 0
M  V30 2412 H 208.552 -4.11939 1.18339 0
M  V30 2413 H 212.736 -4.50343 2.08579 0
M  V30 2414 H 207.992 -5.10493 3.36462 0
M  V30 2415 H 212.166 -5.50262 4.26831 0
M  V30 2416 H 209.793 -5.80089 4.91325 0
M  V30 2417 N 211.368 -0.403325 -1.52352 0
M  V30 2418 C 212.616 0.174003 -2.0135 0
M  V30 2419 C 212.937 1.46139 -1.29106 0
M  V30 2420 O 212.207 1.91448 -0.415253 0
M  V30 2421 H 210.787 0.0672911 -0.743963 0
M  V30 2422 H 213.449 -0.538235 -1.87321 0
M  V30 2423 H 212.545 0.374254 -3.09848 0
M  V30 2424 N 212.846 1.57033 -0.133567 0
M  V30 2425 C 214.086 1.97575 0.523789 0
M  V30 2426 C 214.45 1.01605 1.62912 0
M  V30 2427 O 215.651 1.3114 2.3464 0
M  V30 2428 C 213.922 3.42256 1.02935 0
M  V30 2429 S 215.481 4.04817 1.69319 0
M  V30 2430 H 212.299 0.690427 0.169799 0
M  V30 2431 H 214.901 1.94234 -0.222101 0
M  V30 2432 H 213.605 4.09842 0.213917 0
M  V30 2433 H 213.136 3.4928 1.81017 0
M  V30 2434 H 215.151 3.96767 2.97977 0
M  V30 2435 N 214.325 -0.140222 1.56975 0
M  V30 2436 C 215.288 -1.15689 1.97861 0
M  V30 2437 C 216.288 -1.3549 0.865974 0
M  V30 2438 O 217.478 -1.32367 1.13246 0
M  V30 2439 C 214.61 -2.51582 2.30042 0
M  V30 2440 H 215.803 -0.805971 2.88867 0
M  V30 2441 H 213.356 -0.383801 1.51515 0
M  V30 2442 H 214.091 -2.91632 1.41849 0
M  V30 2443 H 213.876 -2.38569 3.11171 0
M  V30 2444 H 215.366 -3.24792 2.62488 0
M  V30 2445 N 215.803 -1.52179 -0.40978 0
M  V30 2446 C 217.049 -1.66453 -1.15851 0
M  V30 2447 C 217.382 -0.392972 -1.90182 0
M  V30 2448 O 216.657 0.608579 -1.84734 0
M  V30 2449 C 216.94 -2.88612 -2.15349 0
M  V30 2450 C 216.793 -4.25815 -1.44918 0
M  V30 2451 C 218.112 -3.06294 -3.16026 0
M  V30 2452 H 215.231 -0.60575 -0.419805 0
M  V30 2453 H 217.873 -1.84732 -0.444314 0
M  V30 2454 H 216.023 -2.73158 -2.76255 0
M  V30 2455 H 217.695 -4.52995 -0.871365 0
M  V30 2456 H 215.938 -4.27247 -0.751159 0
M  V30 2457 H 216.609 -5.07337 -2.17516 0
M  V30 2458 H 219.085 -3.20641 -2.65195 0
M  V30 2459 H 217.961 -3.93283 -3.8291 0
M  V30 2460 H 218.222 -2.19579 -3.83715 0
M  V30 2461 N 217.281 0.66697 -1.42791 0
M  V30 2462 C 218.53 1.42278 -1.42968 0
M  V30 2463 C 218.843 1.9553 -0.0524489 0
M  V30 2464 O 220.049 2.71414 0.068363 0
M  V30 2465 C 218.505 2.57418 -2.51524 0
M  V30 2466 C 218.113 2.10832 -3.9529 0
M  V30 2467 C 219.857 3.34878 -2.60877 0
M  V30 2468 C 217.764 3.23101 -4.95338 0
M  V30 2469 H 216.694 0.534533 -0.531781 0
M  V30 2470 H 219.345 0.721302 -1.68729 0
M  V30 2471 H 217.727 3.29971 -2.18941 0
M  V30 2472 H 218.901 1.4538 -4.37266 0
M  V30 2473 H 217.216 1.46289 -3.89857 0
M  V30 2474 H 219.813 4.18505 -3.32802 0
M  V30 2475 H 220.156 3.81993 -1.6549 0
M  V30 2476 H 220.689 2.69398 -2.92693 0
M  V30 2477 H 217.428 2.80969 -5.9223 0
M  V30 2478 H 216.948 3.87309 -4.57987 0
M  V30 2479 H 218.627 3.88447 -5.17415 0
M  V30 2480 N 218.759 1.29093 0.90403 0
M  V30 2481 C 219.669 1.15727 2.0407 0
M  V30 2482 C 220.685 0.0815308 1.73809 0
M  V30 2483 O 221.861 0.292749 1.99261 0
M  V30 2484 C 218.926 0.830424 3.36608 0
M  V30 2485 C 217.987 1.98955 3.80415 0
M  V30 2486 C 217.22 1.6782 5.06628 0
M  V30 2487 O 217.443 0.597105 5.67266 0
M  V30 2488 O 216.377 2.52486 5.46383 0
M  V30 2489 H 220.203 2.11171 2.18267 0
M  V30 2490 H 217.788 1.08504 1.027 0
M  V30 2491 H 219.67 0.662521 4.16159 0
M  V30 2492 H 218.345 -0.0942678 3.23563 0
M  V30 2493 H 217.252 2.21267 3.01648 0
M  V30 2494 H 218.585 2.89529 3.98037 0
M  V30 2495 N 220.237 -1.11381 1.11499 0
M  V30 2496 C 221.514 -1.7955 0.775965 0
M  V30 2497 C 221.894 -1.97859 -0.73588 0
M  V30 2498 O 221.242 -1.56376 -1.66609 0
M  V30 2499 C 221.452 -3.13196 1.53977 0
M  V30 2500 C 222.8 -3.88227 1.71944 0
M  V30 2501 O 223.824 -3.22887 1.50407 0
M  V30 2502 O 222.683 -5.05477 2.07738 0
M  V30 2503 H 219.777 -0.777728 0.28119 0
M  V30 2504 H 222.323 -1.18118 1.21845 0
M  V30 2505 H 221.095 -2.95229 2.56818 0
M  V30 2506 H 220.718 -3.82342 1.09088 0
M  V30 2507 N 221.715 -0.905404 -1.28997 0
M  V30 2508 C 222.943 -0.549846 -1.9946 0
M  V30 2509 C 223.358 0.866834 -1.67724 0
M  V30 2510 O 222.715 1.57298 -0.925404 0
M  V30 2511 C 222.766 -0.739387 -3.53858 0
M  V30 2512 O 222.487 -2.10031 -3.84472 0
M  V30 2513 C 223.988 -0.389541 -4.41585 0
M  V30 2514 H 221.208 -0.210429 -0.637151 0
M  V30 2515 H 223.752 -1.21632 -1.64396 0
M  V30 2516 H 221.907 -0.120023 -3.87214 0
M  V30 2517 H 222.321 -2.13385 -4.79132 0
M  V30 2518 H 223.795 -0.572972 -5.49018 0
M  V30 2519 H 224.272 0.673756 -4.34001 0
M  V30 2520 H 224.878 -0.986089 -4.1371 0
M  V30 2521 N 223.193 1.4272 -0.668489 0
M  V30 2522 C 224.439 2.02443 -0.197076 0
M  V30 2523 C 224.794 1.51882 1.18109 0
M  V30 2524 O 224.087 0.708618 1.78015 0
M  V30 2525 C 224.281 3.57021 -0.164499 0
M  V30 2526 C 224.11 4.22583 -1.53797 0
M  V30 2527 C 222.88 4.58019 -2.13416 0
M  V30 2528 C 225.078 4.50588 -2.47941 0
M  V30 2529 N 223.06 5.08729 -3.4361 0
M  V30 2530 C 224.431 5.02782 -3.62782 0
M  V30 2531 C 226.486 4.32571 -2.46551 0
M  V30 2532 C 225.189 5.38852 -4.76478 0
M  V30 2533 C 227.215 4.69713 -3.59338 0
M  V30 2534 C 226.577 5.22053 -4.72906 0
M  V30 2535 H 222.676 0.773214 -0.116894 0
M  V30 2536 H 225.26 1.73673 -0.880108 0
M  V30 2537 H 223.431 3.85323 0.487925 0
M  V30 2538 H 225.163 4.03439 0.319207 0
M  V30 2539 H 221.918 4.43566 -1.65969 0
M  V30 2540 H 222.342 5.38521 -4.10273 0
M  V30 2541 H 226.984 3.91365 -1.59978 0
M  V30 2542 H 224.702 5.78993 -5.63731 0
M  V30 2543 H 228.288 4.57454 -3.59482 0
M  V30 2544 H 227.168 5.50258 -5.58736 0
M  V30 2545 N 224.671 0.411399 1.52136 0
M  V30 2546 C 225.621 -0.430376 2.23901 0
M  V30 2547 C 226.605 -1.0116 1.25121 0
M  V30 2548 O 227.797 -0.934044 1.50348 0
M  V30 2549 C 224.926 -1.54527 3.06556 0
M  V30 2550 C 224.012 -0.9747 4.12747 0
M  V30 2551 N 224.403 -0.130991 5.0563 0
M  V30 2552 C 222.701 -1.24497 4.28271 0
M  V30 2553 C 223.402 0.186689 5.814 0
M  V30 2554 N 222.378 -0.42304 5.41951 0
M  V30 2555 H 226.18 0.220509 2.93072 0
M  V30 2556 H 223.694 0.221952 1.60876 0
M  V30 2557 H 225.691 -2.16093 3.56524 0
M  V30 2558 H 224.351 -2.19875 2.38925 0
M  V30 2559 H 225.362 0.23349 5.17373 0
M  V30 2560 H 222.039 -1.89787 3.7187 0
M  V30 2561 H 223.429 0.871673 6.66222 0
M  V30 2562 N 226.149 -1.5696 0.141893 0
M  V30 2563 C 227.379 -2.00031 -0.516828 0
M  V30 2564 C 227.787 -1.02091 -1.59293 0
M  V30 2565 O 227.13 -0.00909657 -1.83698 0
M  V30 2566 C 227.192 -3.39534 -1.1814 0
M  V30 2567 C 226.856 -4.56313 -0.250513 0
M  V30 2568 C 227.853 -5.17295 0.519839 0
M  V30 2569 C 225.538 -5.02061 -0.154907 0
M  V30 2570 C 227.532 -6.2243 1.3733 0
M  V30 2571 C 225.219 -6.07053 0.702161 0
M  V30 2572 C 226.217 -6.67106 1.46487 0
M  V30 2573 O 225.905 -7.70066 2.30767 0
M  V30 2574 H 225.637 -0.661451 -0.139493 0
M  V30 2575 H 228.191 -2.04086 0.231926 0
M  V30 2576 H 226.421 -3.32302 -1.97769 0
M  V30 2577 H 228.11 -3.66745 -1.73933 0
M  V30 2578 H 228.876 -4.82852 0.45598 0
M  V30 2579 H 224.755 -4.5505 -0.7383 0
M  V30 2580 H 228.299 -6.69233 1.96909 0
M  V30 2581 H 224.196 -6.40923 0.76733 0
M  V30 2582 H 224.964 -7.87264 2.23959 0
M  V30 2583 N 227.627 0.131896 -1.57047 0
M  V30 2584 C 228.874 0.841932 -1.84168 0
M  V30 2585 C 229.202 1.8048 -0.725066 0
M  V30 2586 O 228.457 1.93618 0.284692 0
M  V30 2587 C 228.756 1.63703 -3.17704 0
M  V30 2588 C 228.422 0.81961 -4.43388 0
M  V30 2589 C 227.084 0.594148 -4.77518 0
M  V30 2590 C 229.436 0.248977 -5.20605 0
M  V30 2591 C 226.764 -0.212409 -5.86315 0
M  V30 2592 C 229.116 -0.544701 -6.30251 0
M  V30 2593 C 227.78 -0.780599 -6.6292 0
M  V30 2594 H 227.05 0.308085 -0.673917 0
M  V30 2595 H 229.697 0.104867 -1.91213 0
M  V30 2596 H 228.002 2.44464 -3.06177 0
M  V30 2597 H 229.699 2.19015 -3.35907 0
M  V30 2598 H 226.289 1.00542 -4.16641 0
M  V30 2599 H 230.473 0.410408 -4.946 0
M  V30 2600 H 225.729 -0.404524 -6.1006 0
M  V30 2601 H 229.903 -0.993922 -6.89271 0
M  V30 2602 H 227.53 -1.40742 -7.47058 0
M  V30 2603 N 229.106 1.52395 0.401703 0
M  V30 2604 C 230.036 1.79231 1.49661 0
M  V30 2605 C 231.017 0.643654 1.57452 0
M  V30 2606 O 232.202 0.889989 1.72606 0
M  V30 2607 C 229.332 1.94971 2.87409 0
M  V30 2608 C 228.286 3.10604 2.94465 0
M  V30 2609 C 227.612 3.11577 4.34538 0
M  V30 2610 C 228.912 4.49921 2.6527 0
M  V30 2611 H 230.606 2.70917 1.27454 0
M  V30 2612 H 228.152 1.30362 0.6117 0
M  V30 2613 H 230.105 2.12328 3.63999 0
M  V30 2614 H 228.829 0.999632 3.10926 0
M  V30 2615 H 227.488 2.93009 2.20321 0
M  V30 2616 H 227.136 2.14277 4.55076 0
M  V30 2617 H 226.836 3.89247 4.40183 0
M  V30 2618 H 228.36 3.31073 5.13053 0
M  V30 2619 H 229.774 4.67683 3.31581 0
M  V30 2620 H 228.171 5.29564 2.82281 0
M  V30 2621 H 229.241 4.57507 1.60671 0
M  V30 2622 N 230.584 -0.659388 1.43143 0
M  V30 2623 C 231.534 -1.7655 1.44271 0
M  V30 2624 C 232.518 -1.57847 0.311961 0
M  V30 2625 O 233.71 -1.68064 0.555306 0
M  V30 2626 C 230.839 -3.15104 1.36251 0
M  V30 2627 C 229.925 -3.39377 2.54331 0
M  V30 2628 N 230.316 -3.34153 3.79704 0
M  V30 2629 C 228.614 -3.70072 2.48922 0
M  V30 2630 C 229.315 -3.58337 4.58225 0
M  V30 2631 N 228.291 -3.79851 3.88863 0
M  V30 2632 H 232.093 -1.70928 2.39083 0
M  V30 2633 H 229.607 -0.860823 1.37708 0
M  V30 2634 H 231.604 -3.94389 1.35141 0
M  V30 2635 H 230.264 -3.21913 0.424531 0
M  V30 2636 H 231.275 -3.13704 4.1208 0
M  V30 2637 H 227.952 -3.84034 1.63781 0
M  V30 2638 H 229.342 -3.60129 5.67236 0
M  V30 2639 N 232.062 -1.29571 -0.897171 0
M  V30 2640 C 233.478 -1.07637 -1.17841 0
M  V30 2641 C 233.678 0.170713 -2.00776 0
M  V30 2642 O 232.734 0.867768 -2.3712 0
M  V30 2643 C 234.047 -2.3332 -1.8969 0
M  V30 2644 C 235.595 -2.38664 -2.02505 0
M  V30 2645 C 236.07 -3.64157 -2.77765 0
M  V30 2646 N 237.561 -3.64894 -2.85318 0
M  V30 2647 C 238.296 -4.58679 -3.44094 0
M  V30 2648 N 237.792 -5.62799 -4.04017 0
M  V30 2649 N 239.585 -4.46245 -3.41793 0
M  V30 2650 H 231.736 -2.09598 -0.343883 0
M  V30 2651 H 233.999 -0.923333 -0.214848 0
M  V30 2652 H 233.705 -3.24262 -1.36187 0
M  V30 2653 H 233.579 -2.41025 -2.9015 0
M  V30 2654 H 235.966 -1.48208 -2.55183 0
M  V30 2655 H 236.047 -2.34943 -1.01171 0
M  V30 2656 H 235.691 -4.54965 -2.25763 0
M  V30 2657 H 235.621 -3.65137 -3.7945 0
M  V30 2658 H 238.112 -2.89613 -2.42761 0
M  V30 2659 H 238.425 -6.3048 -4.46895 0
M  V30 2660 H 236.77 -5.66605 -4.02472 0
M  V30 2661 H 239.961 -3.64094 -2.94199 0
M  V30 2662 H 240.134 -5.19518 -3.87304 0
M  V30 2663 N 233.54 1.10788 -1.12088 0
M  V30 2664 C 234.47 2.19083 -0.807755 0
M  V30 2665 C 235.451 1.6858 0.226859 0
M  V30 2666 O 236.636 1.93997 0.0888475 0
M  V30 2667 C 233.766 3.46344 -0.257576 0
M  V30 2668 C 232.72 4.101 -1.22483 0
M  V30 2669 C 232.046 5.32016 -0.535052 0
M  V30 2670 C 233.346 4.54236 -2.57811 0
M  V30 2671 H 235.04 2.45534 -1.71328 0
M  V30 2672 H 232.586 1.1801 -0.825205 0
M  V30 2673 H 234.539 4.21392 -0.0262679 0
M  V30 2674 H 233.263 3.19373 0.683278 0
M  V30 2675 H 231.922 3.37054 -1.44189 0
M  V30 2676 H 231.57 5.01319 0.410827 0
M  V30 2677 H 231.27 5.75625 -1.18024 0
M  V30 2678 H 232.794 6.09799 -0.312695 0
M  V30 2679 H 234.208 5.20575 -2.40155 0
M  V30 2680 H 232.605 5.08682 -3.18375 0
M  V30 2681 H 233.675 3.6734 -3.16528 0
M  V30 2682 N 235.018 0.912232 1.28515 0
M  V30 2683 C 235.948 0.416403 2.29757 0
M  V30 2684 C 236.929 -0.515194 1.6211 0
M  V30 2685 O 238.114 -0.423253 1.89532 0
M  V30 2686 C 235.244 -0.34572 3.45575 0
M  V30 2687 C 234.198 0.496599 4.25109 0
M  V30 2688 C 233.524 -0.393771 5.33248 0
M  V30 2689 C 234.824 1.75307 4.92001 0
M  V30 2690 H 236.518 1.26249 2.7148 0
M  V30 2691 H 234.064 0.608515 1.30511 0
M  V30 2692 H 236.017 -0.703422 4.15488 0
M  V30 2693 H 234.741 -1.2257 3.02728 0
M  V30 2694 H 233.4 0.8368 3.56922 0
M  V30 2695 H 233.048 -1.27225 4.86644 0
M  V30 2696 H 232.748 0.166209 5.87365 0
M  V30 2697 H 234.272 -0.747389 6.06009 0
M  V30 2698 H 235.686 1.46437 5.54283 0
M  V30 2699 H 234.083 2.25534 5.56106 0
M  V30 2700 H 235.153 2.48176 4.16577 0
M  V30 2701 N 236.496 -1.42363 0.676048 0
M  V30 2702 C 237.446 -2.27987 -0.0242903 0
M  V30 2703 C 238.43 -1.41153 -0.772319 0
M  V30 2704 O 239.622 -1.64592 -0.651025 0
M  V30 2705 C 236.751 -3.29195 -0.973953 0
M  V30 2706 C 235.837 -4.23512 -0.223202 0
M  V30 2707 N 236.228 -4.99865 0.772589 0
M  V30 2708 C 234.526 -4.43606 -0.461469 0
M  V30 2709 C 235.227 -5.68757 1.22027 0
M  V30 2710 N 234.203 -5.40811 0.549975 0
M  V30 2711 H 238.005 -2.84445 0.73949 0
M  V30 2712 H 235.519 -1.54341 0.50522 0
M  V30 2713 H 237.516 -3.89339 -1.49067 0
M  V30 2714 H 236.176 -2.74298 -1.73755 0
M  V30 2715 H 237.187 -5.04921 1.15217 0
M  V30 2716 H 233.864 -3.99749 -1.20446 0
M  V30 2717 H 235.254 -6.40007 2.0455 0
M  V30 2718 N 237.974 -0.419461 -1.51915 0
M  V30 2719 C 238.924 0.418496 -2.24126 0
M  V30 2720 C 239.908 1.00495 -1.25656 0
M  V30 2721 O 241.1 0.926058 -1.50842 0
M  V30 2722 C 238.229 1.52899 -3.07371 0
M  V30 2723 C 237.315 0.952797 -4.13258 0
M  V30 2724 N 237.706 0.104175 -5.05693 0
M  V30 2725 C 236.004 1.22224 -4.28926 0
M  V30 2726 C 236.705 -0.21752 -5.81293 0
M  V30 2727 N 235.681 0.394293 -5.42168 0
M  V30 2728 H 239.483 -0.236048 -2.92951 0
M  V30 2729 H 236.997 -0.230481 -1.60756 0
M  V30 2730 H 238.994 2.14199 -3.57665 0
M  V30 2731 H 237.654 2.18605 -2.40088 0
M  V30 2732 H 238.665 -0.260924 -5.17242 0
M  V30 2733 H 235.342 1.87812 -3.72871 0
M  V30 2734 H 236.732 -0.906992 -6.6575 0
M  V30 2735 N 239.452 1.56882 -0.150215 0
M  V30 2736 C 240.399 2.16922 0.788244 0
M  V30 2737 C 241.369 1.10303 1.24187 0
M  V30 2738 O 242.554 1.38359 1.31383 0
M  V30 2739 C 239.694 2.79754 2.02068 0
M  V30 2740 C 238.807 4.00775 1.61257 0
M  V30 2741 C 237.942 4.51595 2.79705 0
M  V30 2742 C 236.981 5.65074 2.35282 0
M  V30 2743 N 236.118 6.10499 3.4675 0
M  V30 2744 H 240.958 2.96779 0.269444 0
M  V30 2745 H 238.495 1.46599 0.12128 0
M  V30 2746 H 240.453 3.14329 2.74323 0
M  V30 2747 H 239.083 2.02536 2.51354 0
M  V30 2748 H 238.135 3.72158 0.787553 0
M  V30 2749 H 239.447 4.82978 1.24633 0
M  V30 2750 H 238.601 4.88242 3.60145 0
M  V30 2751 H 237.34 3.68406 3.19576 0
M  V30 2752 H 236.345 5.28 1.53283 0
M  V30 2753 H 237.57 6.50052 1.96493 0
M  V30 2754 H 235.516 5.30243 3.86236 0
M  V30 2755 H 235.433 6.87637 3.14152 0
M  V30 2756 H 236.701 6.51791 4.27537 0
M  V30 2757 N 240.93 -0.123565 1.57115 0
M  V30 2758 C 242.346 -0.476961 1.52306 0
M  V30 2759 C 242.546 -1.82109 0.86248 0
M  V30 2760 O 241.602 -2.48586 0.442884 0
M  V30 2761 C 242.915 -0.465661 2.97073 0
M  V30 2762 C 244.463 -0.549534 3.08138 0
M  V30 2763 C 244.938 -0.568669 4.54456 0
M  V30 2764 N 246.429 -0.630237 4.58892 0
M  V30 2765 C 247.164 -0.666415 5.69514 0
M  V30 2766 N 246.66 -0.660514 6.89644 0
M  V30 2767 N 248.453 -0.709077 5.5761 0
M  V30 2768 H 240.604 0.757198 1.98445 0
M  V30 2769 H 242.867 0.278808 0.906074 0
M  V30 2770 H 242.573 0.454232 3.48754 0
M  V30 2771 H 242.447 -1.29513 3.54269 0
M  V30 2772 H 244.834 -1.45985 2.56461 0
M  V30 2773 H 244.915 0.307532 2.53945 0
M  V30 2774 H 244.559 0.337581 5.06777 0
M  V30 2775 H 244.489 -1.44256 5.06456 0
M  V30 2776 H 246.98 -0.641146 3.72421 0
M  V30 2777 H 247.293 -0.690616 7.69708 0
M  V30 2778 H 245.638 -0.628012 6.92157 0
M  V30 2779 H 248.829 -0.711019 4.62668 0
M  V30 2780 H 249.002 -0.733804 6.43832 0
M  V30 2781 N 242.408 -1.52605 -0.393616 0
M  V30 2782 C 243.657 -1.66649 -1.13627 0
M  V30 2783 C 243.97 -0.410364 -1.91247 0
M  V30 2784 O 245.176 -0.430854 -2.68059 0
M  V30 2785 C 243.632 -2.9449 -2.06891 0
M  V30 2786 C 243.24 -4.27266 -1.34714 0
M  V30 2787 C 244.984 -3.17899 -2.81319 0
M  V30 2788 C 242.891 -5.46217 -2.26717 0
M  V30 2789 H 241.821 -0.62084 -0.427871 0
M  V30 2790 H 244.472 -1.791 -0.399428 0
M  V30 2791 H 242.854 -2.75774 -2.84191 0
M  V30 2792 H 244.028 -4.56518 -0.626714 0
M  V30 2793 H 242.343 -4.10081 -0.722643 0
M  V30 2794 H 244.94 -4.03949 -3.50328 0
M  V30 2795 H 245.283 -2.32777 -3.45139 0
M  V30 2796 H 245.816 -3.37159 -2.11113 0
M  V30 2797 H 242.555 -6.33733 -1.67521 0
M  V30 2798 H 242.075 -5.21283 -2.96689 0
M  V30 2799 H 243.754 -5.7991 -2.86903 0
M  V30 2800 N 243.887 0.651787 -1.4349 0
M  V30 2801 C 245.117 1.43728 -1.48411 0
M  V30 2802 C 245.525 1.8893 -0.10103 0
M  V30 2803 O 244.868 1.60182 0.899307 0
M  V30 2804 C 244.93 2.70411 -2.36893 0
M  V30 2805 C 244.594 2.4714 -3.8441 0
M  V30 2806 C 245.591 2.10271 -4.75481 0
M  V30 2807 C 243.276 2.6142 -4.28912 0
M  V30 2808 C 245.27 1.87982 -6.0905 0
M  V30 2809 C 242.957 2.38746 -5.62533 0
M  V30 2810 C 243.955 2.02083 -6.5242 0
M  V30 2811 O 243.643 1.79647 -7.8357 0
M  V30 2812 H 243.375 0.447962 -0.506267 0
M  V30 2813 H 245.929 0.80624 -1.88915 0
M  V30 2814 H 244.159 3.36079 -1.91278 0
M  V30 2815 H 245.848 3.32364 -2.33 0
M  V30 2816 H 246.614 1.98814 -4.42378 0
M  V30 2817 H 242.493 2.88931 -3.59222 0
M  V30 2818 H 246.037 1.5929 -6.7917 0
M  V30 2819 H 241.934 2.49806 -5.95203 0
M  V30 2820 H 242.702 1.9406 -7.95162 0
M  V30 2821 N 245.365 1.30045 0.890287 0
M  V30 2822 C 246.312 1.15976 1.99545 0
M  V30 2823 C 247.282 0.0506202 1.66023 0
M  V30 2824 O 248.467 0.219847 1.89529 0
M  V30 2825 C 245.607 0.852054 3.34416 0
M  V30 2826 C 244.72 2.04255 3.80662 0
M  V30 2827 C 243.855 1.6734 5.04154 0
M  V30 2828 C 242.894 2.82916 5.42794 0
M  V30 2829 N 242.031 2.46333 6.57468 0
M  V30 2830 H 246.871 2.10524 2.10911 0
M  V30 2831 H 244.408 1.04749 1.03276 0
M  V30 2832 H 246.366 0.654296 4.12037 0
M  V30 2833 H 244.996 -0.0565502 3.2275 0
M  V30 2834 H 244.048 2.35172 2.98995 0
M  V30 2835 H 245.36 2.90826 4.05242 0
M  V30 2836 H 244.514 1.43908 5.89386 0
M  V30 2837 H 243.253 0.779308 4.81433 0
M  V30 2838 H 242.258 3.0702 4.56091 0
M  V30 2839 H 243.483 3.73004 5.6749 0
M  V30 2840 H 241.429 1.59423 6.36334 0
M  V30 2841 H 241.346 3.26436 6.81891 0
M  V30 2842 H 242.614 2.26244 7.45945 0
M  V30 2843 N 246.843 -1.10192 1.12674 0
M  V30 2844 C 248.073 -1.85713 0.905213 0
M  V30 2845 C 248.481 -1.81056 -0.549108 0
M  V30 2846 O 247.824 -1.19927 -1.39151 0
M  V30 2847 C 247.886 -3.34972 1.30516 0
M  V30 2848 C 247.55 -3.63385 2.77129 0
M  V30 2849 C 248.547 -3.59772 3.75313 0
M  V30 2850 C 246.232 -3.91981 3.14096 0
M  V30 2851 C 248.226 -3.84354 5.08479 0
M  V30 2852 C 245.913 -4.16218 4.47443 0
M  V30 2853 C 246.911 -4.12395 5.44444 0
M  V30 2854 O 246.599 -4.36014 6.75387 0
M  V30 2855 H 246.331 -0.593719 0.323223 0
M  V30 2856 H 248.885 -1.40198 1.50112 0
M  V30 2857 H 247.115 -3.81156 0.652463 0
M  V30 2858 H 248.804 -3.91886 1.05736 0
M  V30 2859 H 249.57 -3.37716 3.48099 0
M  V30 2860 H 245.449 -3.94085 2.39202 0
M  V30 2861 H 248.993 -3.81285 5.84181 0
M  V30 2862 H 244.89 -4.37754 4.74386 0
M  V30 2863 H 245.658 -4.53516 6.8137 0
M  V30 2864 N 248.321 -0.919034 -1.28029 0
M  V30 2865 C 249.57 -0.550802 -1.94034 0
M  V30 2866 C 249.883 0.910877 -1.73096 0
M  V30 2867 O 251.089 1.3875 -2.33368 0
M  V30 2868 C 249.545 -0.934249 -3.47563 0
M  V30 2869 C 249.153 -2.41602 -3.7727 0
M  V30 2870 C 250.897 -0.636854 -4.19696 0
M  V30 2871 C 248.804 -2.73932 -5.24133 0
M  V30 2872 H 247.734 -0.202273 -0.726362 0
M  V30 2873 H 250.385 -1.11867 -1.45458 0
M  V30 2874 H 248.767 -0.295115 -3.94899 0
M  V30 2875 H 249.941 -3.10233 -3.40723 0
M  V30 2876 H 248.256 -2.68441 -3.18321 0
M  V30 2877 H 250.853 -0.855005 -5.2782 0
M  V30 2878 H 251.196 0.425575 -4.14119 0
M  V30 2879 H 251.729 -1.23469 -3.78154 0
M  V30 2880 H 248.468 -3.79049 -5.34792 0
M  V30 2881 H 247.988 -2.09942 -5.61858 0
M  V30 2882 H 249.667 -2.61215 -5.91925 0
M  V30 2883 N 249.799 1.42003 -0.683588 0
M  V30 2884 C 250.749 2.27997 0.0121992 0
M  V30 2885 C 251.733 1.4156 0.764822 0
M  V30 2886 O 252.925 1.64935 0.642287 0
M  V30 2887 C 250.054 3.29706 0.956482 0
M  V30 2888 C 249.14 4.23625 0.200739 0
M  V30 2889 N 249.531 4.99448 -0.799087 0
M  V30 2890 C 247.829 4.43845 0.437937 0
M  V30 2891 C 248.53 5.68102 -1.25041 0
M  V30 2892 N 247.506 5.40511 -0.578648 0
M  V30 2893 H 251.308 2.84048 -0.754564 0
M  V30 2894 H 248.822 1.54071 -0.513398 0
M  V30 2895 H 250.819 3.90124 1.47 0
M  V30 2896 H 249.479 2.75216 1.72297 0
M  V30 2897 H 250.49 5.04303 -1.17893 0
M  V30 2898 H 247.167 4.00382 1.18325 0
M  V30 2899 H 248.557 6.38913 -2.07942 0
M  V30 2900 N 251.277 0.427512 1.51691 0
M  V30 2901 C 252.224 -0.388867 2.275 0
M  V30 2902 C 253.194 -1.02532 1.30677 0
M  V30 2903 O 254.379 -1.0461 1.59566 0
M  V30 2904 C 251.519 -1.48954 3.11298 0
M  V30 2905 C 250.632 -0.872194 4.23104 0
M  V30 2906 C 249.767 -1.94709 4.94228 0
M  V30 2907 C 248.806 -1.30766 5.97969 0
M  V30 2908 N 247.943 -2.32349 6.62539 0
M  V30 2909 H 252.783 0.263997 2.96828 0
M  V30 2910 H 250.32 0.142033 1.46413 0
M  V30 2911 H 252.278 -2.13887 3.58201 0
M  V30 2912 H 250.908 -2.11217 2.44105 0
M  V30 2913 H 249.96 -0.111419 3.80237 0
M  V30 2914 H 251.272 -0.365264 4.97461 0
M  V30 2915 H 250.426 -2.67327 5.44629 0
M  V30 2916 H 249.165 -2.48773 4.1948 0
M  V30 2917 H 248.17 -0.566902 5.4687 0
M  V30 2918 H 249.395 -0.774483 6.74669 0
M  V30 2919 H 247.341 -2.85511 5.90609 0
M  V30 2920 H 247.258 -1.8652 7.3263 0
M  V30 2921 H 248.526 -3.04481 7.17574 0
M  V30 2922 N 252.755 -1.56801 0.158532 0
M  V30 2923 C 254.001 -1.96781 -0.490405 0
M  V30 2924 C 254.334 -1.04397 -1.63753 0
M  V30 2925 O 253.609 -0.0885805 -1.94298 0
M  V30 2926 C 253.892 -3.4635 -0.985594 0
M  V30 2927 C 253.745 -4.49512 0.160824 0
M  V30 2928 C 255.064 -3.98697 -1.86355 0
M  V30 2929 H 252.183 -0.715482 -0.176788 0
M  V30 2930 H 254.825 -1.88451 0.242088 0
M  V30 2931 H 252.975 -3.53579 -1.60978 0
M  V30 2932 H 254.647 -4.54353 0.797537 0
M  V30 2933 H 252.89 -4.26013 0.818256 0
M  V30 2934 H 253.561 -5.51531 -0.227569 0
M  V30 2935 H 256.037 -3.94019 -1.33746 0
M  V30 2936 H 254.913 -5.03792 -2.17909 0
M  V30 2937 H 255.174 -3.41744 -2.8047 0
M  V30 2938 N 254.233 0.115231 -1.57178 0
M  V30 2939 C 255.183 1.14707 -1.97044 0
M  V30 2940 C 256.167 1.36866 -0.845957 0
M  V30 2941 O 257.359 1.37895 -1.10968 0
M  V30 2942 C 254.488 2.47266 -2.38148 0
M  V30 2943 C 253.574 2.28566 -3.57237 0
M  V30 2944 N 253.965 1.79685 -4.72807 0
M  V30 2945 C 252.263 2.59208 -3.62943 0
M  V30 2946 C 252.964 1.74781 -5.54821 0
M  V30 2947 N 251.94 2.19264 -4.97417 0
M  V30 2948 H 255.742 0.761754 -2.83857 0
M  V30 2949 H 253.256 0.322928 -1.59157 0
M  V30 2950 H 255.253 3.219 -2.64927 0
M  V30 2951 H 253.913 2.86552 -1.52702 0
M  V30 2952 H 254.924 1.49177 -4.9595 0
M  V30 2953 H 251.601 3.02154 -2.88113 0
M  V30 2954 H 252.991 1.38212 -6.57531 0
M  V30 2955 N 255.711 1.52812 0.385517 0
M  V30 2956 C 256.661 1.74219 1.47078 0
M  V30 2957 C 257.645 0.59632 1.49442 0
M  V30 2958 O 258.837 0.85428 1.5502 0
M  V30 2959 C 255.966 1.9176 2.84751 0
M  V30 2960 C 255.052 3.12289 2.86943 0
M  V30 2961 N 255.443 4.34575 2.58802 0
M  V30 2962 C 253.741 3.12605 3.1811 0
M  V30 2963 C 254.442 5.162 2.68166 0
M  V30 2964 N 253.418 4.51964 3.02043 0
M  V30 2965 H 257.22 2.6639 1.24152 0
M  V30 2966 H 254.734 1.51166 0.593504 0
M  V30 2967 H 256.731 2.05218 3.62893 0
M  V30 2968 H 255.391 1.00805 3.08656 0
M  V30 2969 H 256.402 4.62649 2.32759 0
M  V30 2970 H 253.079 2.31472 3.47458 0
M  V30 2971 H 254.469 6.23689 2.49923 0
M  V30 2972 N 257.189 -0.644168 1.43834 0
M  V30 2973 C 258.099 -1.78563 1.52159 0
M  V30 2974 C 259.115 -1.69147 0.408069 0
M  V30 2975 O 260.291 -1.90156 0.663524 0
M  V30 2976 C 257.356 -3.14888 1.45073 0
M  V30 2977 C 256.417 -3.36034 2.6717 0
M  V30 2978 C 255.65 -4.65855 2.60413 0
M  V30 2979 O 255.873 -5.45805 1.65689 0
M  V30 2980 O 254.807 -4.88918 3.5106 0
M  V30 2981 H 258.633 -1.74494 2.48567 0
M  V30 2982 H 256.218 -0.80378 1.25935 0
M  V30 2983 H 258.1 -3.96179 1.43597 0
M  V30 2984 H 256.775 -3.19528 0.518037 0
M  V30 2985 H 255.682 -2.54472 2.74217 0
M  V30 2986 H 257.015 -3.36247 3.59442 0
M  V30 2987 N 258.668 -1.30515 -0.883378 0
M  V30 2988 C 259.915 -1.1943 -1.63532 0
M  V30 2989 C 260.243 0.250627 -1.92878 0
M  V30 2990 O 259.498 1.19556 -1.54935 0
M  V30 2991 C 259.797 -1.96994 -2.98209 0
M  V30 2992 C 259.463 -3.466 -2.88408 0
M  V30 2993 C 258.125 -3.87397 -2.85442 0
M  V30 2994 C 260.477 -4.41863 -2.76418 0
M  V30 2995 C 257.805 -5.21745 -2.68327 0
M  V30 2996 C 260.157 -5.7632 -2.60841 0
M  V30 2997 C 258.821 -6.16354 -2.56251 0
M  V30 2998 H 258.091 -0.437025 -0.598406 0
M  V30 2999 H 260.738 -1.61635 -1.02696 0
M  V30 3000 H 259.043 -1.47429 -3.63004 0
M  V30 3001 H 260.74 -1.85808 -3.55354 0
M  V30 3002 H 257.33 -3.14182 -2.91527 0
M  V30 3003 H 261.514 -4.11285 -2.77775 0
M  V30 3004 H 256.77 -5.51853 -2.63189 0
M  V30 3005 H 260.944 -6.49772 -2.50538 0
M  V30 3006 H 258.571 -7.20401 -2.42748 0
M  V30 3007 N 260.146 1.09593 -1.13257 0
M  V30 3008 C 261.078 2.16015 -0.766167 0
M  V30 3009 C 262.091 1.61423 0.211303 0
M  V30 3010 O 263.28 1.78498 -0.00863946 0
M  V30 3011 C 260.38 3.38706 -0.114662 0
M  V30 3012 C 259.553 4.22717 -1.12379 0
M  V30 3013 C 258.612 5.23835 -0.498301 0
M  V30 3014 O 257.638 5.573 -1.15781 0
M  V30 3015 N 258.84 5.75886 0.730417 0
M  V30 3016 H 261.605 2.48055 -1.68193 0
M  V30 3017 H 259.166 1.25292 -1.02535 0
M  V30 3018 H 261.158 4.03464 0.315991 0
M  V30 3019 H 259.728 3.04569 0.704011 0
M  V30 3020 H 258.948 3.54122 -1.73179 0
M  V30 3021 H 260.236 4.75673 -1.80589 0
M  V30 3022 H 259.634 5.50911 1.28504 0
M  V30 3023 H 258.191 6.42387 1.10376 0
M  V30 3024 N 261.624 0.925811 1.2754 0
M  V30 3025 C 262.587 0.428129 2.25166 0
M  V30 3026 C 263.587 -0.452261 1.54309 0
M  V30 3027 O 264.777 -0.253608 1.72344 0
M  V30 3028 C 261.909 -0.384749 3.38722 0
M  V30 3029 H 263.102 1.29066 2.70706 0
M  V30 3030 H 260.655 0.706323 1.3943 0
M  V30 3031 H 261.39 -1.26618 2.98561 0
M  V30 3032 H 261.175 0.246454 3.91325 0
M  V30 3033 H 262.665 -0.723389 4.11287 0
M  V30 3034 N 263.102 -1.41638 0.69111 0
M  V30 3035 C 264.513 -1.84346 0.295517 0
M  V30 3036 C 264.864 -1.57833 -1.16547 0
M  V30 3037 O 263.989 -1.04648 -1.89414 0
M  V30 3038 C 264.584 -3.34636 0.529575 0
M  V30 3039 C 263.143 -3.7593 0.187944 0
M  V30 3040 C 262.29 -2.65082 0.814052 0
M  V30 3041 H 265.241 -1.31253 0.892092 0
M  V30 3042 H 265.262 -3.79903 -0.213148 0
M  V30 3043 H 264.774 -3.53901 1.59297 0
M  V30 3044 H 262.875 -3.62268 -0.871367 0
M  V30 3045 H 262.988 -4.74808 0.63985 0
M  V30 3046 H 261.352 -2.53528 0.244017 0
M  V30 3047 H 262.135 -2.87167 1.88123 0
M  V30 3048 N 264.58 -0.43555 -1.51462 0
M  V30 3049 C 265.827 0.131514 -2.02072 0
M  V30 3050 C 266.155 1.42868 -1.31981 0
M  V30 3051 O 265.41 1.91076 -0.422883 0
M  V30 3052 C 265.709 0.39942 -3.55161 0
M  V30 3053 C 265.375 -0.81172 -4.43533 0
M  V30 3054 C 264.037 -1.14387 -4.67407 0
M  V30 3055 C 266.389 -1.61976 -4.95392 0
M  V30 3056 C 263.717 -2.28477 -5.40384 0
M  V30 3057 C 266.069 -2.75164 -5.6962 0
M  V30 3058 C 264.733 -3.08835 -5.91758 0
M  V30 3059 H 264.003 0.0481244 -0.739436 0
M  V30 3060 H 266.65 -0.58238 -1.8243 0
M  V30 3061 H 264.955 1.19519 -3.73125 0
M  V30 3062 H 266.652 0.85157 -3.91854 0
M  V30 3063 H 263.242 -0.542898 -4.25148 0
M  V30 3064 H 267.426 -1.37637 -4.76833 0
M  V30 3065 H 262.682 -2.5488 -5.55739 0
M  V30 3066 H 266.856 -3.38147 -6.08793 0
M  V30 3067 H 264.483 -3.97353 -6.48086 0
M  V30 3068 N 266.058 1.56714 -0.166846 0
M  V30 3069 C 267.306 1.96358 0.478305 0
M  V30 3070 C 267.627 1.0537 1.6408 0
M  V30 3071 O 266.897 0.119154 1.95537 0
M  V30 3072 H 265.477 0.725065 0.179692 0
M  V30 3073 H 268.139 1.93329 -0.246985 0
M  V30 3074 H 267.235 3.00547 0.841292 0
M  V30 3075 N 267.536 -0.106894 1.57237 0
M  V30 3076 C 268.469 -1.16125 1.96444 0
M  V30 3077 C 269.447 -1.3947 0.835871 0
M  V30 3078 O 270.631 -1.53425 1.09513 0
M  V30 3079 C 267.758 -2.51277 2.27107 0
M  V30 3080 C 266.804 -2.44285 3.4961 0
M  V30 3081 S 267.637 -1.87077 5.01759 0
M  V30 3082 C 268.793 -3.23877 5.35588 0
M  V30 3083 H 269.026 -0.826971 2.85567 0
M  V30 3084 H 266.559 -0.314124 1.51171 0
M  V30 3085 H 268.517 -3.29035 2.45451 0
M  V30 3086 H 267.178 -2.81879 1.38576 0
M  V30 3087 H 266.371 -3.4387 3.68469 0
M  V30 3088 H 265.973 -1.74652 3.30715 0
M  V30 3089 H 268.265 -4.20122 5.31511 0
M  V30 3090 H 269.208 -3.09833 6.36717 0
M  V30 3091 H 269.616 -3.22864 4.63054 0
M  V30 3092 N 269.014 -1.53014 -0.377408 0
M  V30 3093 C 269.924 -1.81557 -1.48574 0
M  V30 3094 C 270.94 -0.703102 -1.59162 0
M  V30 3095 O 272.116 -0.99192 -1.75279 0
M  V30 3096 C 269.181 -1.9889 -2.83978 0
M  V30 3097 C 268.242 -3.22801 -2.83016 0
M  V30 3098 C 267.475 -3.39298 -4.11962 0
M  V30 3099 O 267.698 -2.60345 -5.0752 0
M  V30 3100 O 266.632 -4.32604 -4.18494 0
M  V30 3101 H 270.458 -2.75695 -1.27382 0
M  V30 3102 H 268.043 -1.38248 -0.566373 0
M  V30 3103 H 269.925 -2.11931 -3.6423 0
M  V30 3104 H 268.6 -1.07942 -3.05172 0
M  V30 3105 H 267.507 -3.15193 -2.01505 0
M  V30 3106 H 268.84 -4.13632 -2.66775 0
M  V30 3107 N 270.492 0.636531 -1.44174 0
M  V30 3108 C 271.455 1.73063 -1.50273 0
M  V30 3109 C 272.455 1.56113 -0.385397 0
M  V30 3110 O 273.645 1.61707 -0.64781 0
M  V30 3111 C 270.777 3.12096 -1.37145 0
M  V30 3112 H 271.97 1.69031 -2.47727 0
M  V30 3113 H 269.523 0.849706 -1.31186 0
M  V30 3114 H 270.258 3.21728 -0.407636 0
M  V30 3115 H 270.043 3.25805 -2.18159 0
M  V30 3116 H 271.533 3.91846 -1.44382 0
M  V30 3117 N 271.97 1.30982 0.876444 0
M  V30 3118 C 272.88 1.2003 2.01569 0
M  V30 3119 C 273.896 0.11838 1.73597 0
M  V30 3120 O 275.072 0.33495 1.98595 0
M  V30 3121 C 272.137 0.901637 3.34771 0
M  V30 3122 C 271.198 2.06979 3.76109 0
M  V30 3123 C 270.431 1.78529 5.02954 0
M  V30 3124 O 270.654 0.717296 5.65872 0
M  V30 3125 O 269.588 2.64019 5.40905 0
M  V30 3126 H 273.414 2.15753 2.13739 0
M  V30 3127 H 270.999 1.10658 1.00375 0
M  V30 3128 H 272.881 0.750645 4.1466 0
M  V30 3129 H 271.556 -0.0256141 3.2369 0
M  V30 3130 H 270.463 2.27616 2.96887 0
M  V30 3131 H 271.796 2.97907 3.91807 0
M  V30 3132 N 273.449 -1.08991 1.13837 0
M  V30 3133 C 274.679 -1.84743 0.924859 0
M  V30 3134 C 275.087 -1.81629 -0.529874 0
M  V30 3135 O 274.43 -1.21397 -1.37872 0
M  V30 3136 C 274.492 -3.33568 1.34061 0
M  V30 3137 C 274.156 -3.60425 2.80968 0
M  V30 3138 C 275.153 -3.55771 3.79108 0
M  V30 3139 C 272.838 -3.88627 3.18236 0
M  V30 3140 C 274.832 -3.78939 5.12527 0
M  V30 3141 C 272.519 -4.11449 4.51833 0
M  V30 3142 C 273.517 -4.06598 5.48787 0
M  V30 3143 O 273.205 -4.28826 6.79973 0
M  V30 3144 H 272.937 -0.590258 0.329502 0
M  V30 3145 H 275.491 -1.38598 1.51591 0
M  V30 3146 H 273.721 -3.80442 0.692853 0
M  V30 3147 H 275.41 -3.90743 1.09886 0
M  V30 3148 H 276.176 -3.34005 3.51661 0
M  V30 3149 H 272.055 -3.91526 2.43369 0
M  V30 3150 H 275.599 -3.75068 5.88192 0
M  V30 3151 H 271.496 -4.32698 4.79002 0
M  V30 3152 H 272.264 -4.46264 6.86142 0
M  V30 3153 N 274.927 -0.932562 -1.27047 0
M  V30 3154 C 275.89 -0.440064 -2.24936 0
M  V30 3155 C 276.89 0.444071 -1.54547 0
M  V30 3156 O 278.08 0.244465 -1.72476 0
M  V30 3157 C 275.212 0.36678 -3.38921 0
M  V30 3158 H 276.405 -1.305 -2.70018 0
M  V30 3159 H 273.958 -0.713707 -1.39054 0
M  V30 3160 H 274.693 1.25033 -2.99228 0
M  V30 3161 H 274.478 -0.267204 -3.91188 0
M  V30 3162 H 275.968 0.701567 -4.11665 0
M  V30 3163 N 276.405 1.4127 -0.698611 0
M  V30 3164 C 277.355 2.27997 -0.0119836 0
M  V30 3165 C 278.339 1.42363 0.749765 0
M  V30 3166 O 279.531 1.65607 0.624758 0
M  V30 3167 C 276.66 3.30702 0.921458 0
M  V30 3168 C 275.746 4.23814 0.155796 0
M  V30 3169 N 276.137 4.98572 -0.852015 0
M  V30 3170 C 274.435 4.44284 0.390836 0
M  V30 3171 C 275.136 5.66744 -1.3106 0
M  V30 3172 N 274.112 5.39867 -0.635944 0
M  V30 3173 H 277.914 2.83232 -0.784649 0
M  V30 3174 H 275.428 1.53518 -0.529711 0
M  V30 3175 H 277.425 3.91661 1.42854 0
M  V30 3176 H 276.085 2.77028 1.69369 0
M  V30 3177 H 277.096 5.03024 -1.23235 0
M  V30 3178 H 273.773 4.01614 1.14071 0
M  V30 3179 H 275.163 6.36672 -2.14707 0
M  V30 3180 N 277.883 0.443576 1.51229 0
M  V30 3181 C 279.294 -0.0180867 1.86691 0
M  V30 3182 C 279.645 -1.41384 1.36033 0
M  V30 3183 O 278.77 -2.04291 0.713722 0
M  V30 3184 C 279.365 -0.039597 3.38777 0
M  V30 3185 C 277.924 -0.445692 3.73752 0
M  V30 3186 C 277.071 0.357584 2.74985 0
M  V30 3187 H 280.022 0.659138 1.44364 0
M  V30 3188 H 280.043 -0.847761 3.70936 0
M  V30 3189 H 279.555 0.976382 3.75617 0
M  V30 3190 H 277.656 -1.46704 3.42503 0
M  V30 3191 H 277.769 -0.166155 4.78812 0
M  V30 3192 H 276.133 -0.184973 2.54027 0
M  V30 3193 H 276.916 1.37256 3.14668 0
M  V30 3194 N 279.361 -1.56624 0.175154 0
M  V30 3195 C 280.291 -2.21155 -0.749195 0
M  V30 3196 C 281.272 -1.16836 -1.23626 0
M  V30 3197 O 282.457 -1.45277 -1.28873 0
M  V30 3198 C 279.587 -2.8553 -1.97711 0
M  V30 3199 C 278.541 -3.95921 -1.62575 0
M  V30 3200 C 277.867 -4.47365 -2.92864 0
M  V30 3201 C 279.167 -5.15323 -0.850838 0
M  V30 3202 H 280.861 -2.98653 -0.211295 0
M  V30 3203 H 278.407 -1.43651 -0.100188 0
M  V30 3204 H 280.36 -3.2935 -2.62881 0
M  V30 3205 H 279.084 -2.05406 -2.53921 0
M  V30 3206 H 277.743 -3.52762 -0.997719 0
M  V30 3207 H 277.391 -3.64027 -3.47122 0
M  V30 3208 H 277.091 -5.21839 -2.70106 0
M  V30 3209 H 278.615 -4.93873 -3.59056 0
M  V30 3210 H 280.029 -5.55812 -1.40521 0
M  V30 3211 H 278.426 -5.95739 -0.722154 0
M  V30 3212 H 279.496 -4.84661 0.152082 0
M  V30 3213 N 280.839 0.0985539 -1.57292 0
M  V30 3214 C 281.749 1.13824 -2.05137 0
M  V30 3215 C 282.765 1.44076 -0.975604 0
M  V30 3216 O 283.941 1.54786 -1.28853 0
M  V30 3217 C 281.006 2.43969 -2.46333 0
M  V30 3218 C 280.067 2.2093 -3.68087 0
M  V30 3219 C 279.3 3.44869 -4.0731 0
M  V30 3220 O 279.523 4.52972 -3.46659 0
M  V30 3221 O 278.457 3.34661 -5.00285 0
M  V30 3222 H 282.283 0.761881 -2.93988 0
M  V30 3223 H 279.868 0.310818 -1.46131 0
M  V30 3224 H 281.75 3.20609 -2.73473 0
M  V30 3225 H 280.425 2.81038 -1.60621 0
M  V30 3226 H 279.332 1.42081 -3.46069 0
M  V30 3227 H 280.665 1.88755 -4.54568 0
M  V30 3228 N 282.317 1.53212 0.369288 0
M  V30 3229 C 283.545 1.73119 1.13303 0
M  V30 3230 C 283.96 0.458455 1.83149 0
M  V30 3231 O 283.317 -0.568403 1.73423 0
M  V30 3232 C 283.368 2.89413 2.16616 0
M  V30 3233 O 283.089 4.11761 1.49614 0
M  V30 3234 C 284.59 3.21161 3.05566 0
M  V30 3235 H 281.81 0.579107 0.338934 0
M  V30 3236 H 284.354 1.99942 0.429338 0
M  V30 3237 H 282.509 2.64994 2.82589 0
M  V30 3238 H 282.923 4.76858 2.18419 0
M  V30 3239 H 284.397 4.05949 3.74045 0
M  V30 3240 H 284.874 2.36369 3.70171 0
M  V30 3241 H 285.48 3.47492 2.45213 0
M  V30 3242 N 283.795 -0.628877 1.44509 0
M  V30 3243 C 284.725 -1.75187 1.54376 0
M  V30 3244 C 285.706 -1.65411 0.396618 0
M  V30 3245 O 286.891 -1.84137 0.617031 0
M  V30 3246 C 284.021 -3.13725 1.48976 0
M  V30 3247 C 282.975 -3.38291 2.62189 0
M  V30 3248 C 282.301 -4.76883 2.41841 0
M  V30 3249 C 283.601 -3.30632 4.04326 0
M  V30 3250 H 285.295 -1.67187 2.48373 0
M  V30 3251 H 282.841 -0.802909 1.19538 0
M  V30 3252 H 284.794 -3.92064 1.54478 0
M  V30 3253 H 283.518 -3.22515 0.514961 0
M  V30 3254 H 282.177 -2.62334 2.56079 0
M  V30 3255 H 281.825 -4.82378 1.42548 0
M  V30 3256 H 281.525 -4.94278 3.17747 0
M  V30 3257 H 283.049 -5.57449 2.49165 0
M  V30 3258 H 284.463 -3.98873 4.11793 0
M  V30 3259 H 282.86 -3.59561 4.80454 0
M  V30 3260 H 283.93 -2.28404 4.27738 0
M  V30 3261 N 285.273 -1.31445 -0.869486 0
M  V30 3262 C 286.522 -1.20517 -1.61736 0
M  V30 3263 C 286.835 0.235341 -1.94179 0
M  V30 3264 O 288.041 0.466312 -2.67465 0
M  V30 3265 C 286.497 -2.10982 -2.91573 0
M  V30 3266 C 286.105 -3.60032 -2.66611 0
M  V30 3267 C 287.849 -2.08856 -3.69567 0
M  V30 3268 C 285.756 -4.42503 -3.92358 0
M  V30 3269 H 284.686 -0.447493 -0.606849 0
M  V30 3270 H 287.337 -1.56303 -0.96133 0
M  V30 3271 H 285.719 -1.68095 -3.58553 0
M  V30 3272 H 286.893 -4.11167 -2.08035 0
M  V30 3273 H 285.208 -3.64139 -2.0197 0
M  V30 3274 H 287.805 -2.67716 -4.62852 0
M  V30 3275 H 288.148 -1.07582 -4.02159 0
M  V30 3276 H 288.681 -2.49945 -3.09471 0
M  V30 3277 H 285.42 -5.44533 -3.64916 0
M  V30 3278 H 284.94 -3.96125 -4.50383 0
M  V30 3279 H 286.619 -4.54741 -4.60238 0
M  V30 3280 N 286.751 1.08385 -1.14413 0
M  V30 3281 C 287.681 2.17321 -0.854044 0
M  V30 3282 C 288.662 1.69024 0.191049 0
M  V30 3283 O 289.847 1.94141 0.0476779 0
M  V30 3284 C 286.977 3.45719 -0.330983 0
M  V30 3285 C 285.931 4.07409 -1.31155 0
M  V30 3286 C 285.257 5.30762 -0.64778 0
M  V30 3287 C 286.557 4.48665 -2.67388 0
M  V30 3288 H 288.251 2.41845 -1.76498 0
M  V30 3289 H 285.797 1.16233 -0.850051 0
M  V30 3290 H 287.75 4.21241 -0.115645 0
M  V30 3291 H 286.474 3.2075 0.615381 0
M  V30 3292 H 285.133 3.33919 -1.51306 0
M  V30 3293 H 284.781 5.02078 0.304398 0
M  V30 3294 H 284.481 5.72992 -1.30207 0
M  V30 3295 H 286.005 6.08998 -0.441972 0
M  V30 3296 H 287.419 5.15364 -2.51143 0
M  V30 3297 H 285.816 5.01814 -3.29093 0
M  V30 3298 H 286.886 3.60543 -3.24248 0
M  V30 3299 N 288.23 0.939286 1.26551 0
M  V30 3300 C 289.478 0.58469 1.93457 0
M  V30 3301 C 289.799 -0.878774 1.74076 0
M  V30 3302 O 289.069 -1.62421 1.09528 0
M  V30 3303 H 287.649 0.21325 0.715914 0
M  V30 3304 H 290.311 1.1942 1.54029 0
M  V30 3305 H 289.407 0.800849 3.0165 0
M  V30 3306 N 289.708 -1.40897 0.706093 0
M  V30 3307 C 290.936 -2.05373 0.250887 0
M  V30 3308 C 291.351 -1.53172 -1.10381 0
M  V30 3309 O 290.708 -0.684305 -1.69185 0
M  V30 3310 C 290.759 -3.6088 0.211571 0
M  V30 3311 O 290.48 -4.11153 1.51276 0
M  V30 3312 C 291.981 -4.42517 -0.263346 0
M  V30 3313 H 289.201 -0.66115 0.114552 0
M  V30 3314 H 291.745 -1.80479 0.961635 0
M  V30 3315 H 289.9 -3.84777 -0.450073 0
M  V30 3316 H 290.314 -5.05279 1.40689 0
M  V30 3317 H 291.788 -5.51479 -0.239718 0
M  V30 3318 H 292.265 -4.19396 -1.30397 0
M  V30 3319 H 292.871 -4.23708 0.367677 0
M  V30 3320 N 291.186 -0.45159 -1.50991 0
M  V30 3321 C 292.434 0.109857 -2.01801 0
M  V30 3322 C 292.755 1.41958 -1.3369 0
M  V30 3323 O 292.025 1.9003 -0.475951 0
M  V30 3324 H 290.605 0.0435884 -0.745727 0
M  V30 3325 H 293.267 -0.597557 -1.85514 0
M  V30 3326 H 292.363 0.275489 -3.10882 0
M  V30 3327 N 292.664 1.56529 -0.183458 0
M  V30 3328 C 293.911 1.97244 0.458357 0
M  V30 3329 C 294.239 1.06992 1.62428 0
M  V30 3330 O 293.494 0.106542 1.9541 0
M  V30 3331 C 293.793 3.43939 0.971637 0
M  V30 3332 C 293.459 4.5083 -0.0796784 0
M  V30 3333 C 292.121 4.79786 -0.368584 0
M  V30 3334 C 294.473 5.15138 -0.792638 0
M  V30 3335 C 291.801 5.70345 -1.37563 0
M  V30 3336 C 294.153 6.06784 -1.78875 0
M  V30 3337 C 292.817 6.34102 -2.08497 0
M  V30 3338 H 292.087 0.721768 0.167725 0
M  V30 3339 H 294.734 1.89472 -0.277976 0
M  V30 3340 H 293.039 3.48724 1.78602 0
M  V30 3341 H 294.736 3.72791 1.47744 0
M  V30 3342 H 291.326 4.28317 0.155668 0
M  V30 3343 H 295.51 4.92868 -0.582659 0
M  V30 3344 H 290.766 5.89789 -1.61118 0
M  V30 3345 H 294.94 6.55677 -2.3465 0
M  V30 3346 H 292.567 7.04074 -2.86678 0
M  V30 3347 N 294.142 -0.090211 1.57342 0
M  V30 3348 C 295.389 -0.792807 1.86335 0
M  V30 3349 C 295.717 -1.78494 0.772662 0
M  V30 3350 O 294.972 -1.94305 -0.233258 0
M  V30 3351 C 295.271 -1.55222 3.21933 0
M  V30 3352 C 294.937 -0.701765 4.45406 0
M  V30 3353 C 293.599 -0.467334 4.78925 0
M  V30 3354 C 295.951 -0.11086 5.21082 0
M  V30 3355 C 293.279 0.367785 5.85546 0
M  V30 3356 C 295.631 0.711609 6.28585 0
M  V30 3357 C 294.295 0.956086 6.60617 0
M  V30 3358 H 293.565 -0.290109 0.681849 0
M  V30 3359 H 296.212 -0.0541332 1.91423 0
M  V30 3360 H 294.517 -2.3626 3.12551 0
M  V30 3361 H 296.214 -2.10032 3.41595 0
M  V30 3362 H 292.804 -0.894598 4.1916 0
M  V30 3363 H 296.988 -0.279129 4.95514 0
M  V30 3364 H 292.244 0.566128 6.08773 0
M  V30 3365 H 296.418 1.17632 6.86393 0
M  V30 3366 H 294.045 1.60499 7.43064 0
M  V30 3367 N 295.62 -1.53406 -0.361157 0
M  V30 3368 C 296.869 -1.69022 -1.10066 0
M  V30 3369 C 297.182 -0.450838 -1.90333 0
M  V30 3370 O 298.388 -0.487617 -2.67085 0
M  V30 3371 C 296.844 -2.98812 -2.00598 0
M  V30 3372 C 296.452 -4.30027 -1.25621 0
M  V30 3373 C 298.196 -3.23795 -2.74513 0
M  V30 3374 C 296.103 -5.50903 -2.1508 0
M  V30 3375 H 295.033 -0.629776 -0.414606 0
M  V30 3376 H 297.684 -1.79907 -0.361348 0
M  V30 3377 H 296.066 -2.8174 -2.78278 0
M  V30 3378 H 297.24 -4.57745 -0.529739 0
M  V30 3379 H 295.555 -4.11522 -0.635496 0
M  V30 3380 H 298.152 -4.11289 -3.41681 0
M  V30 3381 H 298.495 -2.40045 -3.40123 0
M  V30 3382 H 299.028 -3.41561 -2.03914 0
M  V30 3383 H 295.767 -6.37143 -1.54041 0
M  V30 3384 H 295.287 -5.27459 -2.85565 0
M  V30 3385 H 296.966 -5.85865 -2.74538 0
M  V30 3386 N 297.098 0.621204 -1.44841 0
M  V30 3387 C 298.346 1.37783 -1.47852 0
M  V30 3388 C 298.667 1.94653 -0.116224 0
M  V30 3389 O 297.937 1.76367 0.852737 0
M  V30 3390 H 296.517 0.511453 -0.544449 0
M  V30 3391 H 299.179 0.730446 -1.80694 0
M  V30 3392 H 298.275 2.20414 -2.20961 0
M  V30 3393 N 298.576 1.31904 0.862503 0
M  V30 3394 C 299.825 1.21373 1.61094 0
M  V30 3395 C 300.138 -0.22504 1.94301 0
M  V30 3396 O 301.344 -0.452121 2.67709 0
M  V30 3397 C 299.8 2.12525 2.9045 0
M  V30 3398 C 299.408 3.61441 2.64697 0
M  V30 3399 C 301.152 2.10813 3.68454 0
M  V30 3400 C 299.059 4.44578 3.90006 0
M  V30 3401 H 297.989 0.450705 0.604468 0
M  V30 3402 H 300.64 1.56811 0.953027 0
M  V30 3403 H 299.022 1.69994 3.57656 0
M  V30 3404 H 300.196 4.12264 2.05851 0
M  V30 3405 H 298.511 3.65205 2.00036 0
M  V30 3406 H 301.108 2.70167 4.61426 0
M  V30 3407 H 301.451 1.09713 4.01583 0
M  V30 3408 H 301.984 2.51583 3.08141 0
M  V30 3409 H 298.723 5.46461 3.62023 0
M  V30 3410 H 298.243 3.98508 4.48276 0
M  V30 3411 H 299.922 4.57176 4.5782 0
M  V30 3412 N 300.054 -1.07777 1.14986 0
M  V30 3413 C 301.3 -1.80557 0.923422 0
M  V30 3414 C 301.633 -1.86298 -0.548337 0
M  V30 3415 O 300.908 -1.34354 -1.40639 0
M  V30 3416 C 301.191 -3.25839 1.53299 0
M  V30 3417 C 301.044 -3.28269 3.07505 0
M  V30 3418 C 302.363 -4.22991 1.21518 0
M  V30 3419 H 299.482 -0.655493 0.336894 0
M  V30 3420 H 302.124 -1.26144 1.42083 0
M  V30 3421 H 300.274 -3.72306 1.10999 0
M  V30 3422 H 301.946 -2.90079 3.58681 0
M  V30 3423 H 300.189 -2.67355 3.4162 0
M  V30 3424 H 300.86 -4.30691 3.45266 0
M  V30 3425 H 303.336 -3.84894 1.581 0
M  V30 3426 H 302.212 -5.22945 1.66793 0
M  V30 3427 H 302.473 -4.41904 0.131505 0
M  V30 3428 N 301.532 -0.945985 -1.26051 0
M  V30 3429 C 302.462 -0.477172 -2.28572 0
M  V30 3430 C 303.443 0.472032 -1.63419 0
M  V30 3431 O 304.628 0.372853 -1.90587 0
M  V30 3432 C 301.758 0.253975 -3.4637 0
M  V30 3433 C 300.712 -0.609135 -4.23643 0
M  V30 3434 C 300.038 0.252252 -5.34105 0
M  V30 3435 C 301.338 -1.8829 -4.8718 0
M  V30 3436 H 303.032 -1.33402 -2.68038 0
M  V30 3437 H 300.578 -0.642904 -1.28852 0
M  V30 3438 H 302.531 0.593016 -4.17207 0
M  V30 3439 H 301.255 1.145 -3.05871 0
M  V30 3440 H 299.914 -0.931138 -3.54578 0
M  V30 3441 H 299.562 1.14278 -4.89846 0
M  V30 3442 H 299.262 -0.32188 -5.86718 0
M  V30 3443 H 300.786 0.586454 -6.07777 0
M  V30 3444 H 302.2 -1.61081 -5.50205 0
M  V30 3445 H 300.597 -2.40199 -5.49931 0
M  V30 3446 H 301.667 -2.59134 -4.09851 0
M  V30 3447 N 303.011 1.40521 -0.713556 0
M  V30 3448 C 303.941 2.33381 -0.0743864 0
M  V30 3449 C 304.922 1.52784 0.747735 0
M  V30 3450 O 306.107 1.81258 0.697071 0
M  V30 3451 C 303.237 3.36748 0.849598 0
M  V30 3452 C 302.191 4.27793 0.133247 0
M  V30 3453 C 301.517 5.21679 1.17281 0
M  V30 3454 C 302.817 5.12415 -1.01134 0
M  V30 3455 H 304.511 2.87081 -0.850007 0
M  V30 3456 H 302.057 1.38034 -0.410201 0
M  V30 3457 H 304.01 4.00648 1.30612 0
M  V30 3458 H 302.734 2.81439 1.65709 0
M  V30 3459 H 301.393 3.65342 -0.303426 0
M  V30 3460 H 301.041 4.62677 1.9733 0
M  V30 3461 H 300.741 5.83435 0.698397 0
M  V30 3462 H 302.265 5.88456 1.62947 0
M  V30 3463 H 303.679 5.69781 -0.634274 0
M  V30 3464 H 302.076 5.83203 -1.41399 0
M  V30 3465 H 303.146 4.48514 -1.84292 0
M  V30 3466 N 304.489 0.459591 1.5075 0
M  V30 3467 C 305.729 -0.09824 2.04164 0
M  V30 3468 C 306.093 -1.3801 1.33481 0
M  V30 3469 O 307.294 -2.01959 1.77387 0
M  V30 3470 C 305.565 -0.289467 3.56226 0
M  V30 3471 S 307.124 -0.807507 4.31306 0
M  V30 3472 H 303.942 -0.0213845 0.710678 0
M  V30 3473 H 306.544 0.624098 1.85271 0
M  V30 3474 H 305.248 0.649461 4.05229 0
M  V30 3475 H 304.779 -1.03825 3.79452 0
M  V30 3476 H 306.794 -2.0824 4.50389 0
M  V30 3477 N 305.967 -1.56429 0.191757 0
M  V30 3478 C 307.244 -1.89224 -0.495332 0
M  V30 3479 C 307.624 -1.10478 -1.79883 0
M  V30 3480 O 306.972 -0.204852 -2.2758 0
M  V30 3481 C 307.182 -3.41548 -0.717367 0
M  V30 3482 C 308.53 -4.11711 -1.03823 0
M  V30 3483 O 309.554 -3.4698 -0.805204 0
M  V30 3484 O 308.413 -5.2611 -1.47887 0
M  V30 3485 H 305.507 -0.785788 -0.25781 0
M  V30 3486 H 308.053 -1.68111 0.231721 0
M  V30 3487 H 306.825 -3.90772 0.203287 0
M  V30 3488 H 306.448 -3.68342 -1.497 0
M  V30 3489 N 307.445 0.0818655 -1.57387 0
M  V30 3490 C 308.395 1.10501 -1.99433 0
M  V30 3491 C 309.379 1.35041 -0.874798 0
M  V30 3492 O 310.571 1.35511 -1.13868 0
M  V30 3493 C 307.7 2.42159 -2.43339 0
M  V30 3494 C 306.786 2.20937 -3.62005 0
M  V30 3495 N 307.177 1.69616 -4.76512 0
M  V30 3496 C 305.475 2.51451 -3.68359 0
M  V30 3497 C 306.176 1.62973 -5.58404 0
M  V30 3498 N 305.152 2.08664 -5.01956 0
M  V30 3499 H 308.954 0.701373 -2.85408 0
M  V30 3500 H 306.468 0.289096 -1.59806 0
M  V30 3501 H 308.465 3.16208 -2.71695 0
M  V30 3502 H 307.125 2.83249 -1.58746 0
M  V30 3503 H 308.136 1.38624 -4.99003 0
M  V30 3504 H 304.813 2.95975 -2.94457 0
M  V30 3505 H 306.203 1.24233 -6.60315 0
M  V30 3506 N 308.923 1.53595 0.353017 0
M  V30 3507 C 310.169 1.70638 1.09593 0
M  V30 3508 C 310.502 0.463286 1.88593 0
M  V30 3509 O 309.777 -0.539597 1.86865 0
M  V30 3510 C 310.06 2.96406 2.04489 0
M  V30 3511 C 309.913 4.30901 1.29014 0
M  V30 3512 C 311.232 3.17812 3.0444 0
M  V30 3513 H 308.351 0.620913 0.397034 0
M  V30 3514 H 310.993 1.86254 0.375446 0
M  V30 3515 H 309.143 2.83223 2.65927 0
M  V30 3516 H 310.815 4.55917 0.702638 0
M  V30 3517 H 309.058 4.29741 0.592071 0
M  V30 3518 H 309.729 5.1506 1.98537 0
M  V30 3519 H 312.205 3.30263 2.53112 0
M  V30 3520 H 311.081 4.07223 3.6805 0
M  V30 3521 H 311.342 2.33669 3.75301 0
M  V30 3522 N 310.401 -0.613514 1.45168 0
M  V30 3523 C 311.65 -1.36874 1.4815 0
M  V30 3524 C 311.963 -1.952 0.124982 0
M  V30 3525 O 313.169 -2.71481 0.0324176 0
M  V30 3526 C 311.625 -2.47905 2.60904 0
M  V30 3527 C 311.233 -1.96016 4.02842 0
M  V30 3528 C 312.977 -3.24965 2.73126 0
M  V30 3529 C 310.884 -3.04494 5.06988 0
M  V30 3530 H 309.814 -0.514428 0.551253 0
M  V30 3531 H 312.465 -0.658182 1.7129 0
M  V30 3532 H 310.847 -3.21618 2.31037 0
M  V30 3533 H 312.021 -1.29051 4.4236 0
M  V30 3534 H 310.336 -1.31719 3.95018 0
M  V30 3535 H 312.933 -4.05865 3.48106 0
M  V30 3536 H 313.276 -3.75588 1.79553 0
M  V30 3537 H 313.809 -2.5835 3.0249 0
M  V30 3538 H 310.548 -2.58795 6.0225 0
M  V30 3539 H 310.068 -3.70044 4.72046 0
M  V30 3540 H 311.747 -3.68976 5.31475 0
M  V30 3541 N 311.879 -1.3236 -0.855495 0
M  V30 3542 C 312.809 -1.23833 -1.97958 0
M  V30 3543 C 313.79 -0.122361 -1.69659 0
M  V30 3544 O 314.975 -0.30939 -1.9172 0
M  V30 3545 C 312.105 -0.959772 -3.33775 0
M  V30 3546 C 311.059 -2.03689 -3.76424 0
M  V30 3547 C 310.385 -1.61075 -5.09862 0
M  V30 3548 C 311.685 -3.4518 -3.9198 0
M  V30 3549 H 313.379 -2.1788 -2.0535 0
M  V30 3550 H 310.925 -1.04891 -0.986605 0
M  V30 3551 H 312.878 -0.886678 -4.11966 0
M  V30 3552 H 311.602 0.0163404 -3.26596 0
M  V30 3553 H 310.261 -2.10012 -3.00484 0
M  V30 3554 H 309.909 -0.622107 -4.99138 0
M  V30 3555 H 309.609 -2.33143 -5.39368 0
M  V30 3556 H 311.133 -1.55201 -5.90546 0
M  V30 3557 H 312.547 -3.4145 -4.60526 0
M  V30 3558 H 310.944 -4.1559 -4.32903 0
M  V30 3559 H 312.014 -3.84903 -2.94919 0
M  V30 3560 N 313.357 1.07166 -1.15556 0
M  V30 3561 C 314.287 2.16403 -0.877046 0
M  V30 3562 C 315.268 1.69217 0.173111 0
M  V30 3563 O 316.453 1.94181 0.027084 0
M  V30 3564 C 313.583 3.45349 -0.367632 0
M  V30 3565 C 312.537 4.05995 -1.35468 0
M  V30 3566 C 311.863 5.30045 -0.704038 0
M  V30 3567 C 313.163 4.45804 -2.72132 0
M  V30 3568 H 314.857 2.39959 -1.79053 0
M  V30 3569 H 312.403 1.15325 -0.862331 0
M  V30 3570 H 314.356 4.21095 -0.160317 0
M  V30 3571 H 313.08 3.21385 0.581326 0
M  V30 3572 H 311.739 3.32296 -1.54839 0
M  V30 3573 H 311.387 5.02373 0.251128 0
M  V30 3574 H 311.087 5.71579 -1.36277 0
M  V30 3575 H 312.611 6.08495 -0.50654 0
M  V30 3576 H 314.025 5.12671 -2.56595 0
M  V30 3577 H 312.422 4.98296 -3.34397 0
M  V30 3578 H 313.492 3.57083 -3.28054 0
M  V30 3579 N 314.835 0.952656 1.25548 0
M  V30 3580 C 316.081 0.616826 1.93822 0
M  V30 3581 C 316.436 -0.836684 1.73255 0
M  V30 3582 O 315.729 -1.59218 1.06584 0
M  V30 3583 C 315.923 0.908818 3.45652 0
M  V30 3584 C 315.752 2.38916 3.80984 0
M  V30 3585 C 314.522 3.04637 4.03143 0
M  V30 3586 C 316.72 3.36838 3.88645 0
M  V30 3587 N 314.702 4.42565 4.25453 0
M  V30 3588 C 316.073 4.60065 4.1562 0
M  V30 3589 C 318.128 3.31704 3.71318 0
M  V30 3590 C 316.831 5.78795 4.2707 0
M  V30 3591 C 318.857 4.4977 3.84006 0
M  V30 3592 C 318.219 5.71783 4.11392 0
M  V30 3593 H 314.318 0.27629 0.731565 0
M  V30 3594 H 316.902 1.22443 1.5138 0
M  V30 3595 H 315.073 0.330166 3.86994 0
M  V30 3596 H 316.805 0.533093 4.01174 0
M  V30 3597 H 313.56 2.55215 3.98952 0
M  V30 3598 H 313.984 5.1399 4.40617 0
M  V30 3599 H 318.626 2.3842 3.49164 0
M  V30 3600 H 316.344 6.72521 4.48041 0
M  V30 3601 H 319.93 4.47342 3.71989 0
M  V30 3602 H 318.81 6.61617 4.2099 0
M  V30 3603 N 316.313 -1.40141 0.720998 0
M  V30 3604 C 317.276 -2.29058 0.0805834 0
M  V30 3605 C 318.276 -1.45632 -0.681758 0
M  V30 3606 O 319.466 -1.6648 -0.512856 0
M  V30 3607 C 316.598 -3.28925 -0.895593 0
M  V30 3608 H 317.791 -2.87191 0.863793 0
M  V30 3609 H 315.344 -1.48553 0.485975 0
M  V30 3610 H 316.079 -2.75822 -1.70566 0
M  V30 3611 H 315.864 -3.90519 -0.351766 0
M  V30 3612 H 317.354 -3.95494 -1.34069 0
M  V30 3613 N 317.792 -0.46758 -1.50504 0
M  V30 3614 C 319.038 0.0808869 -2.03239 0
M  V30 3615 C 319.393 1.37721 -1.34353 0
M  V30 3616 O 318.686 1.86016 -0.459194 0
M  V30 3617 C 318.88 0.323995 -3.55928 0
M  V30 3618 C 318.709 -0.947215 -4.39611 0
M  V30 3619 C 317.479 -1.48951 -4.82848 0
M  V30 3620 C 319.677 -1.84166 -4.80195 0
M  V30 3621 N 317.659 -2.71011 -5.50842 0
M  V30 3622 C 319.03 -2.90815 -5.47564 0
M  V30 3623 C 321.085 -1.85246 -4.62156 0
M  V30 3624 C 319.788 -3.98529 -5.98805 0
M  V30 3625 C 321.814 -2.91914 -5.14335 0
M  V30 3626 C 321.176 -3.97282 -5.81676 0
M  V30 3627 H 317.275 -0.0103394 -0.781932 0
M  V30 3628 H 319.859 -0.635003 -1.84054 0
M  V30 3629 H 318.03 1.00892 -3.75067 0
M  V30 3630 H 319.762 0.866492 -3.95315 0
M  V30 3631 H 316.517 -1.03918 -4.62058 0
M  V30 3632 H 316.941 -3.32988 -5.89447 0
M  V30 3633 H 321.583 -1.05103 -4.09528 0
M  V30 3634 H 319.301 -4.79491 -6.50472 0
M  V30 3635 H 322.887 -2.93729 -5.0221 0
M  V30 3636 H 321.767 -4.78462 -6.21324 0
M  V30 3637 N 319.27 1.56325 -0.20005 0
M  V30 3638 C 320.516 1.98012 0.438059 0
M  V30 3639 C 320.849 1.08702 1.60927 0
M  V30 3640 O 320.124 0.140064 1.93995 0
M  V30 3641 C 320.407 3.48841 0.893419 0
M  V30 3642 C 320.26 4.48928 -0.279947 0
M  V30 3643 C 321.579 4.03498 1.75719 0
M  V30 3644 H 318.698 0.719918 0.157757 0
M  V30 3645 H 321.34 1.87743 -0.291968 0
M  V30 3646 H 319.49 3.57723 1.51547 0
M  V30 3647 H 321.162 4.52079 -0.91772 0
M  V30 3648 H 319.405 4.23694 -0.930919 0
M  V30 3649 H 320.076 5.5194 0.0812601 0
M  V30 3650 H 322.552 3.97427 1.23253 0
M  V30 3651 H 321.428 5.09393 2.04476 0
M  V30 3652 H 321.689 3.4906 2.71311 0
M  V30 3653 N 320.748 -0.0735177 1.57428 0
M  V30 3654 C 321.976 -0.785969 1.9139 0
M  V30 3655 C 322.391 -1.71207 0.795847 0
M  V30 3656 O 321.748 -1.81033 -0.230915 0
M  V30 3657 C 321.799 -1.58107 3.25091 0
M  V30 3658 O 321.52 -0.6922 4.32597 0
M  V30 3659 C 323.021 -2.39467 3.73055 0
M  V30 3660 H 320.241 -0.223558 0.632663 0
M  V30 3661 H 322.785 -0.044302 2.04452 0
M  V30 3662 H 320.94 -2.27503 3.13562 0
M  V30 3663 H 321.354 -1.24504 5.09508 0
M  V30 3664 H 322.828 -2.90716 4.69242 0
M  V30 3665 H 323.305 -3.18913 3.01979 0
M  V30 3666 H 323.911 -1.7523 3.87523 0
M  V30 3667 N 322.226 -1.5378 -0.344866 0
M  V30 3668 C 323.475 -1.7018 -1.08267 0
M  V30 3669 C 323.788 -0.471 -1.89845 0
M  V30 3670 O 324.994 -0.515917 -2.66553 0
M  V30 3671 C 323.45 -3.00923 -1.97417 0
M  V30 3672 C 323.058 -4.31335 -1.21053 0
M  V30 3673 C 324.802 -3.26688 -2.71063 0
M  V30 3674 C 322.709 -5.53153 -2.09225 0
M  V30 3675 H 321.639 -0.634138 -0.407903 0
M  V30 3676 H 324.29 -1.8028 -0.342246 0
M  V30 3677 H 322.672 -2.84676 -2.75274 0
M  V30 3678 H 323.846 -4.58281 -0.481159 0
M  V30 3679 H 322.161 -4.12173 -0.591813 0
M  V30 3680 H 324.758 -4.1489 -3.37299 0
M  V30 3681 H 325.101 -2.43639 -3.37558 0
M  V30 3682 H 325.634 -3.43705 -2.0028 0
M  V30 3683 H 322.373 -6.38741 -1.47274 0
M  V30 3684 H 321.893 -5.30458 -2.79955 0
M  V30 3685 H 323.572 -5.88744 -2.68308 0
M  V30 3686 N 323.704 0.605807 -1.45491 0
M  V30 3687 C 325.12 0.926751 -1.29936 0
M  V30 3688 C 325.32 1.99896 -0.253706 0
M  V30 3689 O 324.376 2.50038 0.351737 0
M  V30 3690 C 325.689 1.36599 -2.67883 0
M  V30 3691 C 327.237 1.4801 -2.75793 0
M  V30 3692 C 327.712 1.95309 -4.14268 0
M  V30 3693 N 329.203 2.0254 -4.16571 0
M  V30 3694 C 329.938 2.40363 -5.20589 0
M  V30 3695 N 329.434 2.77143 -6.34952 0
M  V30 3696 N 331.227 2.40718 -5.07948 0
M  V30 3697 H 323.378 -0.102862 -2.12151 0
M  V30 3698 H 325.641 0.016639 -0.947854 0
M  V30 3699 H 325.347 0.652306 -3.45598 0
M  V30 3700 H 325.221 2.33215 -2.96463 0
M  V30 3701 H 327.608 2.1847 -1.98381 0
M  V30 3702 H 327.689 0.497041 -2.50925 0
M  V30 3703 H 327.333 1.25436 -4.92167 0
M  V30 3704 H 327.263 2.94532 -4.3653 0
M  V30 3705 H 329.754 1.76699 -3.34045 0
M  V30 3706 H 330.067 3.0489 -7.10114 0
M  V30 3707 H 328.412 2.74834 -6.3835 0
M  V30 3708 H 331.603 2.11392 -4.1765 0
M  V30 3709 H 331.776 2.69869 -5.89131 0
M  V30 3710 N 325.182 1.32811 0.848464 0
M  V30 3711 C 326.112 1.24882 1.97299 0
M  V30 3712 C 327.093 0.131357 1.69592 0
M  V30 3713 O 328.278 0.319553 1.91553 0
M  V30 3714 C 325.408 0.97746 3.33261 0
M  V30 3715 C 324.362 2.05682 3.75338 0
M  V30 3716 C 323.688 1.63777 5.09 0
M  V30 3717 C 324.988 3.47254 3.90144 0
M  V30 3718 H 326.682 2.18966 2.04191 0
M  V30 3719 H 324.228 1.05413 0.981029 0
M  V30 3720 H 326.181 0.908513 4.1149 0
M  V30 3721 H 324.905 0.000980011 3.266 0
M  V30 3722 H 323.564 2.11603 2.99366 0
M  V30 3723 H 323.212 0.648569 4.98801 0
M  V30 3724 H 322.912 2.36 5.38124 0
M  V30 3725 H 324.436 1.5833 5.89715 0
M  V30 3726 H 325.85 3.43888 4.58709 0
M  V30 3727 H 324.247 4.1788 4.30693 0
M  V30 3728 H 325.317 3.86462 2.92874 0
M  V30 3729 N 326.66 -1.06551 1.16123 0
M  V30 3730 C 327.59 -2.15935 0.88851 0
M  V30 3731 C 328.571 -1.69306 -0.164135 0
M  V30 3732 O 329.756 -1.94193 -0.0167857 0
M  V30 3733 C 326.886 -3.45149 0.385942 0
M  V30 3734 C 325.84 -4.05271 1.3762 0
M  V30 3735 C 325.166 -5.29664 0.732137 0
M  V30 3736 C 326.466 -4.44355 2.74493 0
M  V30 3737 H 328.16 -2.39006 1.80323 0
M  V30 3738 H 325.706 -1.14866 0.868435 0
M  V30 3739 H 327.659 -4.21004 0.182647 0
M  V30 3740 H 326.383 -3.21689 -0.564274 0
M  V30 3741 H 325.042 -3.3147 1.56599 0
M  V30 3742 H 324.69 -5.02499 -0.224483 0
M  V30 3743 H 324.39 -5.70848 1.39307 0
M  V30 3744 H 325.914 -6.08218 0.538802 0
M  V30 3745 H 327.328 -5.11303 2.59311 0
M  V30 3746 H 325.725 -4.96515 3.37035 0
M  V30 3747 H 326.795 -3.55339 3.29943 0
M  V30 3748 N 328.138 -0.959301 -1.25041 0
M  V30 3749 C 329.048 -0.489994 -2.29426 0
M  V30 3750 C 330.064 0.444944 -1.68215 0
M  V30 3751 O 331.24 0.320046 -1.98841 0
M  V30 3752 C 328.305 0.220309 -3.45999 0
M  V30 3753 C 327.366 -0.753418 -4.22637 0
M  V30 3754 C 326.599 -0.076918 -5.33645 0
M  V30 3755 O 326.822 1.13649 -5.58963 0
M  V30 3756 O 325.756 -0.764824 -5.97021 0
M  V30 3757 H 329.582 -1.35755 -2.71669 0
M  V30 3758 H 327.167 -0.725961 -1.30576 0
M  V30 3759 H 329.049 0.619677 -4.16819 0
M  V30 3760 H 327.724 1.06296 -3.0575 0
M  V30 3761 H 326.631 -1.20308 -3.54227 0
M  V30 3762 H 327.964 -1.56423 -4.66683 0
M  V30 3763 N 329.616 1.39756 -0.72842 0
M  V30 3764 C 330.844 2.04948 -0.283528 0
M  V30 3765 C 331.259 1.54908 1.0793 0
M  V30 3766 O 330.616 0.711135 1.68075 0
M  V30 3767 C 330.667 3.60498 -0.268957 0
M  V30 3768 O 330.388 4.08695 -1.57798 0
M  V30 3769 C 331.889 4.4288 0.192912 0
M  V30 3770 H 329.109 0.659243 -0.125056 0
M  V30 3771 H 331.653 1.78927 -0.990226 0
M  V30 3772 H 329.808 3.85444 0.388801 0
M  V30 3773 H 330.222 5.02977 -1.48709 0
M  V30 3774 H 331.696 5.51791 0.151952 0
M  V30 3775 H 332.173 4.21418 1.23708 0
M  V30 3776 H 332.779 4.23069 -0.435039 0
M  V30 3777 N 331.094 0.475555 1.50254 0
M  V30 3778 C 332.343 -0.0795996 2.01543 0
M  V30 3779 C 332.656 -1.4038 1.36209 0
M  V30 3780 O 333.862 -2.04415 1.7868 0
M  V30 3781 C 332.318 -0.192363 3.59386 0
M  V30 3782 C 331.926 1.12367 4.33679 0
M  V30 3783 C 333.67 -0.699238 4.18701 0
M  V30 3784 C 331.577 0.974453 5.83317 0
M  V30 3785 H 330.507 -0.0335228 0.753254 0
M  V30 3786 H 333.158 0.611128 1.73025 0
M  V30 3787 H 331.54 -0.946974 3.84511 0
M  V30 3788 H 332.714 1.88958 4.20276 0
M  V30 3789 H 331.029 1.562 3.85993 0
M  V30 3790 H 333.626 -0.827978 5.28251 0
M  V30 3791 H 333.969 -1.69171 3.80377 0
M  V30 3792 H 334.502 -0.00188807 3.978 0
M  V30 3793 H 331.241 1.94042 6.26121 0
M  V30 3794 H 330.761 0.248998 5.99283 0
M  V30 3795 H 332.44 0.642867 6.43798 0
M  V30 3796 N 332.573 -1.56217 0.208337 0
M  V30 3797 C 333.85 -1.89739 -0.475234 0
M  V30 3798 C 334.23 -1.1238 -1.78701 0
M  V30 3799 O 333.578 -0.228979 -2.2735 0
M  V30 3800 C 333.788 -3.42289 -0.681101 0
M  V30 3801 C 335.136 -4.12789 -0.994507 0
M  V30 3802 O 336.16 -3.47814 -0.768357 0
M  V30 3803 O 335.019 -5.27649 -1.42299 0
M  V30 3804 H 332.113 -0.788478 -0.249461 0
M  V30 3805 H 334.659 -1.67855 0.249538 0
M  V30 3806 H 333.431 -3.90534 0.244722 0
M  V30 3807 H 333.054 -3.69909 -1.45785 0
M  V30 3808 N 334.051 0.0651679 -1.57465 0
M  V30 3809 C 335.297 0.764193 -1.87851 0
M  V30 3810 C 335.63 1.76889 -0.801495 0
M  V30 3811 O 334.905 1.93594 0.187528 0
M  V30 3812 C 335.188 1.46625 -3.28897 0
M  V30 3813 C 335.041 0.477515 -4.47258 0
M  V30 3814 C 336.36 2.4095 -3.68281 0
M  V30 3815 H 333.479 0.276351 -0.683227 0
M  V30 3816 H 336.121 0.0272868 -1.8998 0
M  V30 3817 H 334.271 2.09438 -3.27212 0
M  V30 3818 H 335.943 -0.145922 -4.61069 0
M  V30 3819 H 334.186 -0.206576 -4.33308 0
M  V30 3820 H 334.857 1.0065 -5.42746 0
M  V30 3821 H 337.333 1.88209 -3.71102 0
M  V30 3822 H 336.209 2.87072 -4.67847 0
M  V30 3823 H 336.47 3.26049 -2.98571 0
M  V30 3824 N 335.529 1.53961 0.336706 0
M  V30 3825 C 336.479 1.7881 1.41461 0
M  V30 3826 C 337.463 0.643561 1.47469 0
M  V30 3827 O 338.655 0.903166 1.52223 0
M  V30 3828 C 335.784 2.00722 2.78506 0
M  V30 3829 C 334.87 3.2126 2.76862 0
M  V30 3830 N 335.261 4.42588 2.44845 0
M  V30 3831 C 333.559 3.22568 3.08004 0
M  V30 3832 C 334.26 5.2447 2.51607 0
M  V30 3833 N 333.236 4.61344 2.87511 0
M  V30 3834 H 337.038 2.70205 1.15615 0
M  V30 3835 H 334.552 1.52978 0.545112 0
M  V30 3836 H 336.549 2.1666 3.5618 0
M  V30 3837 H 335.209 1.10573 3.05293 0
M  V30 3838 H 336.22 4.69819 2.17922 0
M  V30 3839 H 332.897 2.42409 3.39918 0
M  V30 3840 H 334.287 6.31324 2.29955 0
M  V30 3841 N 337.007 -0.598083 1.45811 0
M  V30 3842 C 338.232 -1.3881 1.54099 0
M  V30 3843 C 338.657 -1.8726 0.177578 0
M  V30 3844 O 338.015 -1.6069 -0.839541 0
M  V30 3845 C 338.063 -2.56217 2.53743 0
M  V30 3846 O 337.167 -3.5716 2.06182 0
M  V30 3847 H 336.508 -0.414024 0.519115 0
M  V30 3848 H 339.038 -0.726971 1.91249 0
M  V30 3849 H 339.048 -3.03337 2.72856 0
M  V30 3850 H 337.723 -2.20303 3.5276 0
M  V30 3851 H 336.3 -3.16624 1.96987 0
M  V30 3852 N 338.485 -1.33259 -0.841409 0
M  V30 3853 C 339.733 -1.24326 -1.59334 0
M  V30 3854 C 340.054 0.191564 -1.94057 0
M  V30 3855 O 339.324 1.11967 -1.60749 0
M  V30 3856 H 337.904 -0.457174 -0.590763 0
M  V30 3857 H 340.566 -1.66947 -1.00571 0
M  V30 3858 H 339.662 -1.8352 -2.52442 0
M  V30 3859 N 339.963 1.05934 -1.16686 0
M  V30 3860 C 341.193 1.82226 -0.973515 0
M  V30 3861 C 341.601 1.8297 0.481532 0
M  V30 3862 O 340.944 1.25009 1.34604 0
M  V30 3863 C 341.006 3.29897 -1.42858 0
M  V30 3864 C 340.67 3.52849 -2.90425 0
M  V30 3865 C 341.667 3.45595 -3.88407 0
M  V30 3866 C 339.352 3.80053 -3.28428 0
M  V30 3867 C 341.346 3.65217 -5.22394 0
M  V30 3868 C 339.033 3.99325 -4.62583 0
M  V30 3869 C 340.031 3.91905 -5.59374 0
M  V30 3870 O 339.719 4.10647 -6.91104 0
M  V30 3871 H 339.451 0.581314 -0.345036 0
M  V30 3872 H 342.005 1.3453 -1.55212 0
M  V30 3873 H 340.235 3.78472 -0.793477 0
M  V30 3874 H 341.924 3.87692 -1.20207 0
M  V30 3875 H 342.69 3.24564 -3.60393 0
M  V30 3876 H 338.569 3.84936 -2.53664 0
M  V30 3877 H 342.113 3.59341 -5.9793 0
M  V30 3878 H 338.01 4.19846 -4.90306 0
M  V30 3879 H 338.778 4.27915 -6.97733 0
M  V30 3880 N 341.441 0.965919 1.2453 0
M  V30 3881 C 342.718 0.543777 1.87889 0
M  V30 3882 C 343.098 -0.97909 1.87021 0
M  V30 3883 O 342.446 -1.84969 1.3416 0
M  V30 3884 C 342.656 1.13327 3.30088 0
M  V30 3885 C 344.004 1.21707 4.06783 0
M  V30 3886 O 345.028 1.08566 3.39252 0
M  V30 3887 O 343.887 1.42456 5.27606 0
M  V30 3888 H 340.981 0.181054 0.806938 0
M  V30 3889 H 343.527 1.06007 1.32516 0
M  V30 3890 H 342.299 2.17612 3.25209 0
M  V30 3891 H 341.922 0.600911 3.93033 0
M  V30 3892 N 342.919 -1.39368 0.735821 0
M  V30 3893 C 344.168 -1.99733 0.281004 0
M  V30 3894 C 344.481 -1.59055 -1.13846 0
M  V30 3895 O 345.687 -2.12262 -1.69284 0
M  V30 3896 C 344.143 -3.57057 0.451462 0
M  V30 3897 C 343.751 -4.06697 1.87886 0
M  V30 3898 C 345.495 -4.2446 0.0584616 0
M  V30 3899 C 343.402 -5.56598 1.99883 0
M  V30 3900 H 342.332 -0.747163 0.101311 0
M  V30 3901 H 344.983 -1.59357 0.909819 0
M  V30 3902 H 343.365 -3.95234 -0.246263 0
M  V30 3903 H 344.539 -3.79853 2.60861 0
M  V30 3904 H 342.854 -3.5196 2.22515 0
M  V30 3905 H 345.451 -5.34549 0.127099 0
M  V30 3906 H 345.794 -4.04444 -0.986433 0
M  V30 3907 H 346.327 -3.9146 0.707374 0
M  V30 3908 H 343.066 -5.81494 3.02564 0
M  V30 3909 H 342.586 -5.85242 1.31346 0
M  V30 3910 H 344.265 -6.22022 1.78039 0
M  V30 3911 N 344.397 -0.483516 -1.5 0
M  V30 3912 C 345.808 -0.0314176 -1.86674 0
M  V30 3913 C 346.159 1.37728 -1.39733 0
M  V30 3914 O 345.284 2.02327 -0.767635 0
M  V30 3915 C 345.879 -0.0502376 -3.38763 0
M  V30 3916 C 344.438 0.346442 -3.74802 0
M  V30 3917 C 343.585 -0.430366 -2.7394 0
M  V30 3918 H 346.536 -0.697182 -1.42566 0
M  V30 3919 H 346.557 0.749116 -3.73053 0
M  V30 3920 H 346.069 -1.07563 -3.72897 0
M  V30 3921 H 344.17 1.37572 -3.46273 0
M  V30 3922 H 344.283 0.0391486 -4.79084 0
M  V30 3923 H 342.647 0.117557 -2.54429 0
M  V30 3924 H 343.43 -1.4555 -3.10918 0
M  V30 3925 N 345.875 1.56104 -0.216619 0
M  V30 3926 C 346.805 2.23063 0.690296 0
M  V30 3927 C 347.786 1.20072 1.20485 0
M  V30 3928 O 348.971 1.48643 1.24976 0
M  V30 3929 C 346.101 2.90672 1.90072 0
M  V30 3930 C 345.055 4.00092 1.5202 0
M  V30 3931 C 344.381 4.54972 2.80899 0
M  V30 3932 C 345.681 5.17398 0.71391 0
M  V30 3933 H 347.375 2.99109 0.132038 0
M  V30 3934 H 344.921 1.43866 0.0620664 0
M  V30 3935 H 346.874 3.36204 2.54057 0
M  V30 3936 H 345.598 2.12066 2.48386 0
M  V30 3937 H 344.257 3.55283 0.903839 0
M  V30 3938 H 343.905 3.73102 3.37348 0
M  V30 3939 H 343.605 5.28817 2.56176 0
M  V30 3940 H 345.129 5.0322 3.45836 0
M  V30 3941 H 346.543 5.59342 1.25735 0
M  V30 3942 H 344.94 5.97444 0.563951 0
M  V30 3943 H 346.01 4.84088 -0.280527 0
M  V30 3944 N 347.353 -0.0568162 1.57498 0
M  V30 3945 C 348.301 -1.08452 2.05769 0
M  V30 3946 C 349.295 -1.39164 0.965903 0
M  V30 3947 O 350.501 -1.38395 1.15095 0
M  V30 3948 H 346.876 -0.367148 0.656282 0
M  V30 3949 H 348.847 -0.651368 2.91204 0
M  V30 3950 C 347.596 -2.38543 2.52968 0
M  V30 3951 H 346.919 -2.15765 3.36579 0
M  V30 3952 H 348.359 -3.08863 2.90481 0
M  V30 3953 C 346.818 -3.05562 1.41893 0
M  V30 3954 O 347.348 -3.94262 0.769442 0
M  V30 3955 N 345.554 -2.6643 1.16032 0
M  V30 3956 H 345.101 -1.94387 1.6903 0
M  V30 3957 H 345.059 -3.11593 0.419219 0
M  V30 3958 N 348.832 -1.54138 -0.328536 0
M  V30 3959 C 350.243 -1.63395 -0.903272 0
M  V30 3960 C 350.594 -0.524828 -1.8905 0
M  V30 3961 O 349.719 0.343068 -2.13663 0
M  V30 3962 C 350.314 -2.9618 -1.64507 0
M  V30 3963 C 348.873 -3.0765 -2.1686 0
M  V30 3964 C 348.02 -2.58933 -0.992416 0
M  V30 3965 H 350.971 -1.58344 -0.106253 0
M  V30 3966 H 350.992 -2.86061 -2.50897 0
M  V30 3967 H 350.504 -3.76884 -0.926302 0
M  V30 3968 H 348.605 -2.31611 -2.91868 0
M  V30 3969 H 348.718 -4.1337 -2.42202 0
M  V30 3970 H 347.082 -2.14706 -1.37016 0
M  V30 3971 H 347.865 -3.42089 -0.288041 0
M  V30 3972 N 350.31 0.590341 -1.46126 0
M  V30 3973 C 351.24 1.71032 -1.58966 0
M  V30 3974 C 352.221 1.64302 -0.440335 0
M  V30 3975 O 353.406 1.82436 -0.665634 0
M  V30 3976 C 350.536 3.09665 -1.57241 0
M  V30 3977 C 349.49 3.31221 -2.71066 0
M  V30 3978 C 348.816 4.70303 -2.54399 0
M  V30 3979 C 350.116 3.19796 -4.1295 0
M  V30 3980 H 351.81 1.60543 -2.52718 0
M  V30 3981 H 349.356 0.770933 -1.21625 0
M  V30 3982 H 351.309 3.87831 -1.64819 0
M  V30 3983 H 350.033 3.21036 -0.600289 0
M  V30 3984 H 348.692 2.55452 -2.62944 0
M  V30 3985 H 348.34 4.78429 -1.55288 0
M  V30 3986 H 348.04 4.85679 -3.30741 0
M  V30 3987 H 349.564 5.50647 -2.63857 0
M  V30 3988 H 350.978 3.87815 -4.22223 0
M  V30 3989 H 349.375 3.46696 -4.89818 0
M  V30 3990 H 350.445 2.16983 -4.33643 0
M  V30 3991 N 351.788 1.33704 0.83433 0
M  V30 3992 C 352.736 1.24323 1.96587 0
M  V30 3993 C 353.73 0.143659 1.6879 0
M  V30 3994 O 354.936 0.30791 1.77347 0
M  V30 3995 H 351.311 0.385925 0.645419 0
M  V30 3996 H 353.282 2.19978 2.01624 0
M  V30 3997 C 352.031 1.00394 3.32891 0
M  V30 3998 H 351.354 1.84231 3.54822 0
M  V30 3999 H 352.794 0.97862 4.12552 0
M  V30 4000 C 351.253 -0.293047 3.35623 0
M  V30 4001 O 351.783 -1.29823 3.80143 0
M  V30 4002 N 349.989 -0.322174 2.88809 0
M  V30 4003 H 349.536 0.496379 2.52772 0
M  V30 4004 H 349.494 -1.18977 2.91019 0
M  V30 4005 N 353.266 -1.05314 1.17247 0
M  V30 4006 C 354.196 -2.1498 0.911362 0
M  V30 4007 C 355.177 -1.69471 -0.146169 0
M  V30 4008 O 356.362 -1.942 0.003812 0
M  V30 4009 C 353.492 -3.4472 0.422528 0
M  V30 4010 C 352.446 -4.03789 1.4191 0
M  V30 4011 C 351.772 -5.28858 0.788274 0
M  V30 4012 C 353.072 -4.41418 2.7919 0
M  V30 4013 H 354.766 -2.3708 1.82848 0
M  V30 4014 H 352.312 -1.13938 0.880569 0
M  V30 4015 H 354.265 -4.20787 0.227289 0
M  V30 4016 H 352.989 -3.22269 -0.530123 0
M  V30 4017 H 351.648 -3.2979 1.60106 0
M  V30 4018 H 351.296 -5.02709 -0.171173 0
M  V30 4019 H 350.996 -5.69338 1.45353 0
M  V30 4020 H 352.52 -6.07612 0.603282 0
M  V30 4021 H 353.934 -5.08524 2.64719 0
M  V30 4022 H 352.331 -4.92913 3.42282 0
M  V30 4023 H 353.401 -3.51819 3.33693 0
M  V30 4024 N 354.744 -0.972509 -1.24016 0
M  V30 4025 C 355.993 -0.632603 -1.91523 0
M  V30 4026 C 356.306 0.836641 -1.76804 0
M  V30 4027 O 357.512 1.28728 -2.39043 0
M  V30 4028 C 355.968 -1.08082 -3.43287 0
M  V30 4029 C 355.576 -2.57386 -3.66683 0
M  V30 4030 C 357.32 -0.814288 -4.16617 0
M  V30 4031 C 355.227 -2.95915 -5.12043 0
M  V30 4032 H 354.157 -0.232898 -0.717129 0
M  V30 4033 H 356.808 -1.17936 -1.40582 0
M  V30 4034 H 355.19 -0.462339 -3.93292 0
M  V30 4035 H 356.364 -3.24405 -3.27258 0
M  V30 4036 H 354.679 -2.81701 -3.06649 0
M  V30 4037 H 357.276 -1.0781 -5.23718 0
M  V30 4038 H 357.619 0.24955 -4.15551 0
M  V30 4039 H 358.152 -1.39397 -3.72577 0
M  V30 4040 H 354.891 -4.0139 -5.18234 0
M  V30 4041 H 354.411 -2.33584 -5.52448 0
M  V30 4042 H 356.09 -2.86086 -5.80314 0
M  V30 4043 N 356.222 1.38976 -0.743202 0
M  V30 4044 C 357.633 1.83123 -0.363732 0
M  V30 4045 C 357.984 1.6205 1.10609 0
M  V30 4046 O 357.109 1.11606 1.854 0
M  V30 4047 C 357.704 3.32439 -0.653408 0
M  V30 4048 C 356.263 3.74974 -0.327338 0
M  V30 4049 C 355.41 2.61878 -0.911875 0
M  V30 4050 H 358.361 1.27852 -0.940191 0
M  V30 4051 H 358.382 3.80432 0.0720031 0
M  V30 4052 H 357.894 3.47745 -1.72323 0
M  V30 4053 H 355.995 3.65252 0.736314 0
M  V30 4054 H 356.108 4.72106 -0.815631 0
M  V30 4055 H 354.472 2.52448 -0.337944 0
M  V30 4056 H 355.255 2.79987 -1.98651 0
M  V30 4057 N 357.7 0.491464 1.49741 0
M  V30 4058 C 358.947 -0.0564256 2.02421 0
M  V30 4059 C 359.275 -1.37872 1.37192 0
M  V30 4060 O 358.53 -1.89375 0.493508 0
M  V30 4061 C 358.829 -0.267329 3.56399 0
M  V30 4062 C 358.495 0.975775 4.40215 0
M  V30 4063 C 357.157 1.31655 4.62839 0
M  V30 4064 C 359.509 1.80251 4.89039 0
M  V30 4065 C 356.837 2.48375 5.31532 0
M  V30 4066 C 359.189 2.96116 5.59015 0
M  V30 4067 C 357.853 3.30585 5.79888 0
M  V30 4068 H 357.123 -0.0206476 0.740712 0
M  V30 4069 H 359.77 0.649686 1.80143 0
M  V30 4070 H 358.075 -1.05588 3.77304 0
M  V30 4071 H 359.772 -0.705549 3.94744 0
M  V30 4072 H 356.362 0.700315 4.2284 0
M  V30 4073 H 360.546 1.55239 4.71396 0
M  V30 4074 H 355.802 2.7533 5.45897 0
M  V30 4075 H 359.976 3.60509 5.95824 0
M  V30 4076 H 357.603 4.21132 6.32892 0
M  V30 4077 N 359.178 -1.55987 0.224894 0
M  V30 4078 C 360.408 -2.02489 -0.41007 0
M  V30 4079 C 360.816 -1.10391 -1.53657 0
M  V30 4080 O 360.159 -0.106458 -1.83391 0
M  V30 4081 C 360.221 -3.45319 -0.999757 0
M  V30 4082 C 359.885 -4.56999 -0.00827976 0
M  V30 4083 C 360.882 -5.13812 0.793314 0
M  V30 4084 C 358.567 -5.02176 0.111442 0
M  V30 4085 C 360.561 -6.14276 1.7013 0
M  V30 4086 C 358.248 -6.02477 1.02296 0
M  V30 4087 C 359.246 -6.58403 1.81643 0
M  V30 4088 O 358.934 -7.56751 2.71262 0
M  V30 4089 H 358.666 -0.667915 -0.104235 0
M  V30 4090 H 361.22 -2.0257 0.339782 0
M  V30 4091 H 359.45 -3.42318 -1.79876 0
M  V30 4092 H 361.139 -3.7545 -1.54248 0
M  V30 4093 H 361.905 -4.79756 0.711288 0
M  V30 4094 H 357.784 -4.58323 -0.49605 0
M  V30 4095 H 361.328 -6.57854 2.32107 0
M  V30 4096 H 357.225 -6.35954 1.10599 0
M  V30 4097 H 357.993 -7.74286 2.65375 0
M  V30 4098 N 360.656 0.0484629 -1.57525 0
M  V30 4099 C 361.619 1.03956 -2.04269 0
M  V30 4100 C 362.619 1.30211 -0.943496 0
M  V30 4101 O 363.809 1.25539 -1.20771 0
M  V30 4102 C 360.941 2.37742 -2.44319 0
M  V30 4103 H 362.134 0.636182 -2.93075 0
M  V30 4104 H 359.687 0.294811 -1.53494 0
M  V30 4105 H 360.422 2.82866 -1.5861 0
M  V30 4106 H 360.207 2.20021 -3.24551 0
M  V30 4107 H 361.697 3.08936 -2.80978 0
M  V30 4108 N 362.134 1.5431 0.320358 0
M  V30 4109 C 363.382 1.72327 1.05583 0
M  V30 4110 C 363.703 0.50149 1.88441 0
M  V30 4111 O 362.973 -0.48448 1.89815 0
M  V30 4112 H 361.553 0.635387 0.3928 0
M  V30 4113 H 364.215 1.91621 0.356019 0
M  V30 4114 H 363.311 2.60426 1.72003 0
M  V30 4115 N 363.613 -0.582584 1.46437 0
M  V30 4116 C 364.838 -1.37168 1.55563 0
M  V30 4117 C 365.263 -1.87061 0.19743 0
M  V30 4118 O 364.621 -1.61572 -0.822451 0
M  V30 4119 C 364.669 -2.53511 2.56446 0
M  V30 4120 O 363.773 -3.54953 2.09958 0
M  V30 4121 H 363.114 -0.408494 0.523477 0
M  V30 4122 H 365.644 -0.706646 1.9201 0
M  V30 4123 H 365.654 -3.00426 2.76058 0
M  V30 4124 H 364.329 -2.16549 3.55076 0
M  V30 4125 H 362.906 -3.14516 2.00334 0
M  V30 4126 N 365.091 -1.34144 -0.827227 0
M  V30 4127 C 366.507 -1.13732 -1.11969 0
M  V30 4128 C 366.707 0.0640463 -2.01398 0
M  V30 4129 O 365.763 0.740856 -2.41387 0
M  V30 4130 C 367.076 -2.43047 -1.77055 0
M  V30 4131 C 368.624 -2.49063 -1.89569 0
M  V30 4132 C 369.099 -3.78369 -2.58072 0
M  V30 4133 N 370.59 -3.79505 -2.65575 0
M  V30 4134 C 371.325 -4.76274 -3.19297 0
M  V30 4135 N 370.821 -5.83424 -3.73616 0
M  V30 4136 N 372.614 -4.63735 -3.17658 0
M  V30 4137 H 364.765 -2.11126 -0.232296 0
M  V30 4138 H 367.028 -0.933424 -0.165602 0
M  V30 4139 H 366.734 -3.31025 -1.18807 0
M  V30 4140 H 366.608 -2.56066 -2.76966 0
M  V30 4141 H 368.995 -1.61527 -2.46968 0
M  V30 4142 H 369.076 -2.39975 -0.885745 0
M  V30 4143 H 368.72 -4.66293 -2.01329 0
M  V30 4144 H 368.65 -3.84737 -3.59562 0
M  V30 4145 H 371.141 -3.02074 -2.27068 0
M  V30 4146 H 371.454 -6.53282 -4.12846 0
M  V30 4147 H 369.799 -5.87143 -3.71871 0
M  V30 4148 H 372.99 -3.79177 -2.74486 0
M  V30 4149 H 373.163 -5.39318 -3.59221 0
M  V30 4150 N 366.569 1.04691 -1.17803 0
M  V30 4151 C 367.519 2.10856 -0.867391 0
M  V30 4152 C 368.503 1.601 0.160206 0
M  V30 4153 O 369.695 1.76948 -0.042947 0
M  V30 4154 C 366.824 3.411 -0.388012 0
M  V30 4155 C 365.91 3.9864 -1.44732 0
M  V30 4156 N 366.301 4.30075 -2.66212 0
M  V30 4157 C 364.599 4.26439 -1.30637 0
M  V30 4158 C 365.3 4.76033 -3.34317 0
M  V30 4159 N 364.276 4.76462 -2.61696 0
M  V30 4160 H 368.078 2.33029 -1.79094 0
M  V30 4161 H 365.592 1.22386 -1.0675 0
M  V30 4162 H 367.589 4.16641 -0.146994 0
M  V30 4163 H 366.249 3.20357 0.529271 0
M  V30 4164 H 367.26 4.19917 -3.03134 0
M  V30 4165 H 363.937 4.15056 -0.451129 0
M  V30 4166 H 365.327 5.09427 -4.38103 0
M  V30 4167 N 368.047 0.979072 1.23499 0
M  V30 4168 C 368.997 0.489378 2.22686 0
M  V30 4169 C 369.981 -0.434871 1.54912 0
M  V30 4170 O 371.173 -0.263941 1.75021 0
M  V30 4171 C 368.302 -0.208178 3.42668 0
M  V30 4172 C 367.388 0.735563 4.17672 0
M  V30 4173 N 367.779 1.87763 4.69658 0
M  V30 4174 C 366.077 0.548625 4.42613 0
M  V30 4175 C 366.778 2.46886 5.26709 0
M  V30 4176 N 365.754 1.75287 5.14563 0
M  V30 4177 H 369.556 1.36062 2.60508 0
M  V30 4178 H 367.07 0.83958 1.39014 0
M  V30 4179 H 369.067 -0.576295 4.12898 0
M  V30 4180 H 367.727 -1.07572 3.06363 0
M  V30 4181 H 368.738 2.25885 4.66043 0
M  V30 4182 H 365.415 -0.274006 4.166 0
M  V30 4183 H 366.805 3.43326 5.77561 0
M  V30 4184 N 369.525 -1.3858 0.750561 0
M  V30 4185 C 370.802 -1.94231 0.231009 0
M  V30 4186 C 371.182 -1.68611 -1.27018 0
M  V30 4187 O 370.53 -1.02296 -2.04323 0
M  V30 4188 C 370.74 -3.44123 0.581428 0
M  V30 4189 C 372.088 -4.2116 0.539389 0
M  V30 4190 O 373.112 -3.52391 0.519541 0
M  V30 4191 O 371.971 -5.43749 0.54765 0
M  V30 4192 H 369.065 -0.825639 0.0474263 0
M  V30 4193 H 371.611 -1.4799 0.830478 0
M  V30 4194 H 370.383 -3.56267 1.61833 0
M  V30 4195 H 370.006 -3.97573 -0.0462047 0
M  V30 4196 N 371.003 -0.499398 -1.49478 0
M  V30 4197 C 372.25 0.0456899 -2.02448 0
M  V30 4198 C 372.578 1.37142 -1.37921 0
M  V30 4199 O 371.833 1.89111 -0.503544 0
M  V30 4200 C 372.132 0.248424 -3.56536 0
M  V30 4201 C 371.798 -0.999107 -4.39692 0
M  V30 4202 C 370.46 -1.34108 -4.62135 0
M  V30 4203 C 372.812 -1.82842 -4.88076 0
M  V30 4204 C 370.14 -2.51191 -5.30208 0
M  V30 4205 C 372.492 -2.99076 -5.57437 0
M  V30 4206 C 371.156 -3.33655 -5.78127 0
M  V30 4207 H 370.426 0.0167191 -0.740811 0
M  V30 4208 H 373.073 -0.65923 -1.79795 0
M  V30 4209 H 371.378 1.03586 -3.77859 0
M  V30 4210 H 373.075 0.684605 -3.95113 0
M  V30 4211 H 369.665 -0.722729 -4.22463 0
M  V30 4212 H 373.849 -1.57737 -4.70566 0
M  V30 4213 H 369.105 -2.78221 -5.44429 0
M  V30 4214 H 373.279 -3.63664 -5.93904 0
M  V30 4215 H 370.906 -4.24483 -6.30649 0
M  V30 4216 N 372.481 1.55866 -0.233164 0
M  V30 4217 C 373.431 2.17442 0.685774 0
M  V30 4218 C 374.415 1.12617 1.14918 0
M  V30 4219 O 375.607 1.3857 1.10124 0
M  V30 4220 C 372.736 2.86685 1.88856 0
M  V30 4221 C 371.822 3.98749 1.4443 0
M  V30 4222 N 372.213 5.00744 0.713364 0
M  V30 4223 C 370.511 4.11052 1.73068 0
M  V30 4224 C 371.212 5.79673 0.485205 0
M  V30 4225 N 370.188 5.33454 1.04536 0
M  V30 4226 H 373.99 2.93659 0.119022 0
M  V30 4227 H 371.504 1.62362 -0.0348995 0
M  V30 4228 H 373.501 3.29218 2.55776 0
M  V30 4229 H 372.161 2.11967 2.45967 0
M  V30 4230 H 373.172 5.16613 0.364861 0
M  V30 4231 H 369.849 3.47495 2.31416 0
M  V30 4232 H 371.239 6.71829 -0.097365 0
M  V30 4233 N 373.959 -0.0401083 1.57549 0
M  V30 4234 C 374.909 -1.05175 2.02292 0
M  V30 4235 C 375.893 -1.32674 0.910294 0
M  V30 4236 O 377.085 -1.32444 1.17421 0
M  V30 4237 C 374.214 -2.35622 2.49674 0
M  V30 4238 C 373.3 -2.11261 3.67736 0
M  V30 4239 N 373.691 -1.56923 4.80842 0
M  V30 4240 C 371.989 -2.41596 3.74897 0
M  V30 4241 C 372.69 -1.48111 5.62528 0
M  V30 4242 N 371.666 -1.95282 5.07312 0
M  V30 4243 H 375.468 -0.625455 2.87168 0
M  V30 4244 H 372.982 -0.246624 1.60516 0
M  V30 4245 H 374.979 -3.08893 2.79983 0
M  V30 4246 H 373.639 -2.7894 1.662 0
M  V30 4247 H 374.65 -1.25345 5.02503 0
M  V30 4248 H 371.327 -2.88064 3.02201 0
M  V30 4249 H 372.717 -1.06683 6.63377 0
M  V30 4250 N 375.437 -1.54477 -0.31217 0
M  V30 4251 C 376.37 -1.79519 -1.40884 0
M  V30 4252 C 377.348 -0.645753 -1.49227 0
M  V30 4253 O 378.532 -0.884468 -1.66461 0
M  V30 4254 C 375.659 -1.92194 -2.78889 0
M  V30 4255 C 374.705 -3.14555 -2.88023 0
M  V30 4256 S 375.538 -4.72893 -2.51262 0
M  V30 4257 C 376.694 -4.8849 -3.91317 0
M  V30 4258 H 376.927 -2.72256 -1.19432 0
M  V30 4259 H 374.46 -1.45746 -0.509654 0
M  V30 4260 H 376.418 -2.00182 -3.58382 0
M  V30 4261 H 375.079 -1.00414 -2.97617 0
M  V30 4262 H 374.272 -3.20193 -3.89221 0
M  V30 4263 H 373.874 -3.04955 -2.16514 0
M  V30 4264 H 376.166 -4.71826 -4.86196 0
M  V30 4265 H 377.109 -5.90588 -3.90656 0
M  V30 4266 H 377.517 -4.16715 -3.80801 0
M  V30 4267 N 376.915 0.57481 -1.46744 0
M  V30 4268 C 377.863 1.70435 -1.58286 0
M  V30 4269 C 378.857 1.63287 -0.450956 0
M  V30 4270 O 380.063 1.68685 -0.628121 0
M  V30 4271 H 376.438 0.56364 -0.497809 0
M  V30 4272 H 378.409 1.57833 -2.53242 0
M  V30 4273 C 377.158 3.08815 -1.59776 0
M  V30 4274 H 376.481 3.1499 -2.46214 0
M  V30 4275 H 377.921 3.87588 -1.71905 0
M  V30 4276 C 376.38 3.35301 -0.327812 0
M  V30 4277 O 376.91 3.97511 0.57861 0
M  V30 4278 N 375.116 2.89816 -0.213274 0
M  V30 4279 H 374.663 2.39371 -0.951798 0
M  V30 4280 H 374.621 3.0791 0.63553 0
M  V30 4281 N 378.394 1.34581 0.820102 0
M  V30 4282 C 379.641 1.27096 1.57648 0
M  V30 4283 C 379.969 -0.158317 1.93855 0
M  V30 4284 O 379.224 -1.12028 1.60463 0
M  V30 4285 C 379.523 2.10997 2.8847 0
M  V30 4286 C 379.189 3.59966 2.71543 0
M  V30 4287 C 377.851 4.00575 2.66634 0
M  V30 4288 C 380.203 4.54548 2.55021 0
M  V30 4289 C 377.531 5.33953 2.43128 0
M  V30 4290 C 379.883 5.88109 2.33047 0
M  V30 4291 C 378.547 6.27878 2.26552 0
M  V30 4292 H 377.817 0.465078 0.576874 0
M  V30 4293 H 380.464 1.6635 0.948671 0
M  V30 4294 H 378.769 1.6458 3.55557 0
M  V30 4295 H 380.466 2.0255 3.46084 0
M  V30 4296 H 377.056 3.27733 2.76205 0
M  V30 4297 H 381.24 4.24069 2.57835 0
M  V30 4298 H 376.496 5.63781 2.3656 0
M  V30 4299 H 380.67 6.60985 2.19251 0
M  V30 4300 H 378.297 7.31162 2.081 0
M  V30 4301 N 379.872 -1.04064 1.18357 0
M  V30 4302 C 381.121 -1.76662 0.973313 0
M  V30 4303 C 381.434 -1.89154 -0.497991 0
M  V30 4304 O 382.64 -2.58606 -0.826762 0
M  V30 4305 C 381.096 -3.17624 1.69242 0
M  V30 4306 C 380.704 -3.13225 3.20303 0
M  V30 4307 C 382.448 -3.946 1.56497 0
M  V30 4308 C 380.355 -4.49046 3.84853 0
M  V30 4309 H 379.285 -0.662214 0.36054 0
M  V30 4310 H 381.936 -1.16553 1.41731 0
M  V30 4311 H 380.318 -3.78129 1.1762 0
M  V30 4312 H 381.492 -2.62172 3.78949 0
M  V30 4313 H 379.807 -2.49749 3.33189 0
M  V30 4314 H 382.404 -4.95042 2.02084 0
M  V30 4315 H 382.747 -4.13074 0.517243 0
M  V30 4316 H 383.28 -3.4067 2.05399 0
M  V30 4317 H 380.019 -4.35777 4.89672 0
M  V30 4318 H 379.539 -5.00203 3.30994 0
M  V30 4319 H 381.218 -5.17961 3.87718 0
M  V30 4320 N 381.35 -0.985608 -1.22978 0
M  V30 4321 C 382.598 -0.656087 -1.91154 0
M  V30 4322 C 382.919 0.813561 -1.77218 0
M  V30 4323 O 382.189 1.58244 -1.1548 0
M  V30 4324 H 380.769 -0.239674 -0.707506 0
M  V30 4325 H 383.431 -1.25054 -1.49491 0
M  V30 4326 H 382.527 -0.912253 -2.9847 0
M  V30 4327 N 382.828 1.3818 -0.7579 0
M  V30 4328 C 383.776 2.32277 -0.122482 0
M  V30 4329 C 384.77 1.54238 0.700505 0
M  V30 4330 O 385.976 1.69737 0.599119 0
M  V30 4331 H 382.351 0.751712 -0.0208143 0
M  V30 4332 H 384.322 2.83469 -0.932099 0
M  V30 4333 C 383.071 3.39447 0.753076 0
M  V30 4334 H 382.394 3.99591 0.129184 0
M  V30 4335 H 383.834 4.07684 1.16489 0
M  V30 4336 C 382.293 2.78375 1.8976 0
M  V30 4337 O 382.823 2.68025 2.99208 0
M  V30 4338 N 381.029 2.36121 1.69397 0
M  V30 4339 H 380.576 2.4474 0.803762 0
M  V30 4340 H 380.534 1.95602 2.46145 0
M  V30 4341 N 384.306 0.507319 1.49211 0
M  V30 4342 C 385.536 -0.0315292 2.06576 0
M  V30 4343 C 385.944 -1.30791 1.36713 0
M  V30 4344 O 385.287 -1.78324 0.441181 0
M  V30 4345 C 385.349 -0.349104 3.57801 0
M  V30 4346 C 385.013 0.830475 4.49391 0
M  V30 4347 C 386.01 1.72271 4.90529 0
M  V30 4348 C 383.695 1.03107 4.91604 0
M  V30 4349 C 385.689 2.79964 5.72625 0
M  V30 4350 C 383.376 2.11116 5.73475 0
M  V30 4351 C 384.374 2.99379 6.1389 0
M  V30 4352 O 384.062 4.05523 6.94123 0
M  V30 4353 H 383.794 0.0201002 0.675701 0
M  V30 4354 H 386.348 0.705737 1.92895 0
M  V30 4355 H 384.578 -1.14005 3.69513 0
M  V30 4356 H 386.267 -0.827319 3.97379 0
M  V30 4357 H 387.033 1.57958 4.58557 0
M  V30 4358 H 382.912 0.353417 4.59643 0
M  V30 4359 H 386.456 3.48884 6.04091 0
M  V30 4360 H 382.353 2.25421 6.0486 0
M  V30 4361 H 383.121 4.02953 7.1244 0
M  V30 4362 N 385.784 -1.5574 0.241426 0
M  V30 4363 C 386.747 -2.19877 -0.647063 0
M  V30 4364 C 387.747 -1.16642 -1.10686 0
M  V30 4365 O 388.937 -1.41757 -1.01245 0
M  V30 4366 C 386.069 -2.83797 -1.88871 0
M  V30 4367 H 387.262 -2.99772 -0.087574 0
M  V30 4368 H 384.815 -1.56298 -0.00813574 0
M  V30 4369 H 385.55 -2.07824 -2.48957 0
M  V30 4370 H 385.335 -3.59414 -1.56728 0
M  V30 4371 H 386.825 -3.32898 -2.52129 0
M  V30 4372 N 387.262 0.0317525 -1.57568 0
M  V30 4373 C 388.487 0.738664 -1.938 0
M  V30 4374 C 388.912 1.68242 -0.841208 0
M  V30 4375 O 388.27 1.80157 0.203267 0
M  V30 4376 C 388.318 1.47417 -3.29091 0
M  V30 4377 O 387.422 2.5872 -3.2115 0
M  V30 4378 H 386.763 0.198856 -0.633524 0
M  V30 4379 H 389.293 -0.0119713 -2.04596 0
M  V30 4380 H 389.303 1.84468 -3.63917 0
M  V30 4381 H 387.978 0.781988 -4.08482 0
M  V30 4382 H 386.555 2.24231 -2.97951 0
M  V30 4383 N 388.74 1.54641 0.303973 0
M  V30 4384 C 389.968 1.77768 1.05858 0
M  V30 4385 C 390.383 0.535722 1.8104 0
M  V30 4386 O 389.74 -0.494337 1.75677 0
M  V30 4387 C 389.791 2.9834 2.04146 0
M  V30 4388 O 389.512 4.17736 1.32015 0
M  V30 4389 C 391.013 3.33832 2.91669 0
M  V30 4390 H 388.233 0.592961 0.314067 0
M  V30 4391 H 390.777 2.01583 0.344149 0
M  V30 4392 H 388.932 2.76742 2.71096 0
M  V30 4393 H 389.346 4.85693 1.97998 0
M  V30 4394 H 390.82 4.21448 3.56491 0
M  V30 4395 H 391.297 2.51857 3.59812 0
M  V30 4396 H 391.903 3.57579 2.30254 0
M  V30 4397 N 390.218 -0.567019 1.47046 0
M  V30 4398 C 391.465 -1.32462 1.53167 0
M  V30 4399 C 391.793 -1.93571 0.189841 0
M  V30 4400 O 391.048 -1.77865 -0.816243 0
M  V30 4401 C 391.347 -2.4623 2.59047 0
M  V30 4402 C 391.013 -2.03014 4.02612 0
M  V30 4403 C 389.675 -1.90944 4.41694 0
M  V30 4404 C 392.027 -1.69895 4.92732 0
M  V30 4405 C 389.355 -1.44035 5.68745 0
M  V30 4406 C 391.707 -1.2446 6.20236 0
M  V30 4407 C 390.371 -1.10979 6.5821 0
M  V30 4408 H 389.641 -0.484713 0.560477 0
M  V30 4409 H 392.288 -0.636888 1.80599 0
M  V30 4410 H 390.593 -3.20517 2.25335 0
M  V30 4411 H 392.29 -3.04427 2.61008 0
M  V30 4412 H 388.88 -2.13348 3.71726 0
M  V30 4413 H 393.064 -1.78098 4.63244 0
M  V30 4414 H 388.32 -1.32254 5.96925 0
M  V30 4415 H 392.494 -0.978924 6.89485 0
M  V30 4416 H 390.121 -0.744078 7.5655 0
M  V30 4417 N 391.696 -1.35014 -0.812953 0
M  V30 4418 C 392.924 -1.31031 -1.6012 0
M  V30 4419 C 393.339 0.113558 -1.88458 0
M  V30 4420 O 392.696 1.06363 -1.48301 0
M  V30 4421 C 392.747 -2.10872 -2.93624 0
M  V30 4422 O 392.468 -3.47706 -2.66518 0
M  V30 4423 C 393.969 -2.14401 -3.88004 0
M  V30 4424 H 391.189 -0.45037 -0.497401 0
M  V30 4425 H 393.733 -1.77775 -1.01076 0
M  V30 4426 H 391.888 -1.67744 -3.492 0
M  V30 4427 H 392.302 -3.89097 -3.51715 0
M  V30 4428 H 393.776 -2.74669 -4.78812 0
M  V30 4429 H 394.253 -1.14105 -4.24119 0
M  V30 4430 H 394.859 -2.57662 -3.38364 0
M  V30 4431 N 393.175 1.03435 -1.18907 0
M  V30 4432 C 394.421 1.7713 -0.99982 0
M  V30 4433 C 394.776 1.86695 0.465049 0
M  V30 4434 O 394.069 1.36866 1.34083 0
M  V30 4435 C 394.263 3.19792 -1.59586 0
M  V30 4436 C 394.092 3.24134 -3.11717 0
M  V30 4437 C 392.862 3.32398 -3.80578 0
M  V30 4438 C 395.06 3.11625 -4.09138 0
M  V30 4439 N 393.042 3.26055 -5.20155 0
M  V30 4440 C 394.413 3.12855 -5.35277 0
M  V30 4441 C 396.468 2.95713 -4.00572 0
M  V30 4442 C 395.171 2.99805 -6.53842 0
M  V30 4443 C 397.197 2.84011 -5.1874 0
M  V30 4444 C 396.559 2.8589 -6.43775 0
M  V30 4445 H 392.658 0.659683 -0.419931 0
M  V30 4446 H 395.242 1.2317 -1.50789 0
M  V30 4447 H 393.413 3.72085 -1.11389 0
M  V30 4448 H 395.145 3.81819 -1.3415 0
M  V30 4449 H 391.9 3.38392 -3.31342 0
M  V30 4450 H 392.324 3.26307 -5.93172 0
M  V30 4451 H 396.966 2.93086 -3.0473 0
M  V30 4452 H 394.684 3.01184 -7.49876 0
M  V30 4453 H 398.27 2.72744 -5.13909 0
M  V30 4454 H 397.15 2.76931 -7.33675 0
M  V30 4455 N 394.653 0.992116 1.22453 0
M  V30 4456 C 395.899 0.678177 1.91761 0
M  V30 4457 C 396.254 -0.781141 1.75829 0
M  V30 4458 O 395.547 -1.55747 1.11595 0
M  V30 4459 C 395.741 1.01832 3.42586 0
M  V30 4460 C 395.57 2.50916 3.73191 0
M  V30 4461 C 394.34 3.17308 3.93248 0
M  V30 4462 C 396.538 3.49032 3.77732 0
M  V30 4463 N 394.52 4.55876 4.11157 0
M  V30 4464 C 395.891 4.73055 4.00773 0
M  V30 4465 C 397.946 3.43349 3.60577 0
M  V30 4466 C 396.649 5.92089 4.0844 0
M  V30 4467 C 398.675 4.61759 3.69503 0
M  V30 4468 C 398.037 5.84582 3.92993 0
M  V30 4469 H 394.136 0.299425 0.722405 0
M  V30 4470 H 396.72 1.27197 1.47408 0
M  V30 4471 H 394.891 0.453118 3.85748 0
M  V30 4472 H 396.623 0.660454 3.99274 0
M  V30 4473 H 393.378 2.67778 3.9063 0
M  V30 4474 H 393.802 5.27748 4.24042 0
M  V30 4475 H 398.444 2.49408 3.41402 0
M  V30 4476 H 396.162 6.86435 4.26418 0
M  V30 4477 H 399.748 4.58951 3.57569 0
M  V30 4478 H 398.628 6.74676 3.99728 0
M  V30 4479 N 396.131 -1.37776 0.765217 0
M  V30 4480 C 397.408 -1.93975 0.251596 0
M  V30 4481 C 397.788 -1.69949 -1.25222 0
M  V30 4482 O 397.136 -1.04457 -2.03226 0
M  V30 4483 C 397.346 -3.43487 0.617895 0
M  V30 4484 C 398.694 -4.20564 0.584029 0
M  V30 4485 O 399.718 -3.5182 0.556888 0
M  V30 4486 O 398.577 -5.43138 0.605291 0
M  V30 4487 H 395.671 -0.82509 0.0561806 0
M  V30 4488 H 398.217 -1.47101 0.846128 0
M  V30 4489 H 396.989 -3.5453 1.65602 0
M  V30 4490 H 396.612 -3.976 -0.00403411 0
M  V30 4491 N 397.609 -0.515225 -1.4894 0
M  V30 4492 C 399.025 -0.172099 -1.58669 0
M  V30 4493 C 399.225 1.32405 -1.51892 0
M  V30 4494 O 398.281 2.10116 -1.40027 0
M  V30 4495 C 399.594 -0.761533 -2.90897 0
M  V30 4496 C 401.142 -0.728926 -3.04394 0
M  V30 4497 C 401.617 -1.29667 -4.39261 0
M  V30 4498 N 403.108 -1.25799 -4.4579 0
M  V30 4499 C 403.843 -1.66733 -5.48623 0
M  V30 4500 N 403.339 -2.15327 -6.58488 0
M  V30 4501 N 405.132 -1.58061 -5.39419 0
M  V30 4502 H 397.283 -1.48778 -1.51588 0
M  V30 4503 H 399.546 -0.617968 -0.718901 0
M  V30 4504 H 399.252 -1.81136 -3.01468 0
M  V30 4505 H 399.126 -0.230106 -3.76497 0
M  V30 4506 H 401.513 0.312098 -2.93445 0
M  V30 4507 H 401.594 -1.29766 -2.20442 0
M  V30 4508 H 401.238 -2.33655 -4.50963 0
M  V30 4509 H 401.168 -0.703752 -5.21876 0
M  V30 4510 H 403.659 -0.902102 -3.66975 0
M  V30 4511 H 403.972 -2.44594 -7.33071 0
M  V30 4512 H 402.317 -2.19311 -6.59491 0
M  V30 4513 H 405.508 -1.19906 -4.52482 0
M  V30 4514 H 405.681 -1.90284 -6.19432 0
M  V30 4515 N 399.087 1.5561 -0.249682 0
M  V30 4516 C 400.336 1.98187 0.37479 0
M  V30 4517 C 400.649 1.14111 1.58865 0
M  V30 4518 O 401.855 1.46714 2.28445 0
M  V30 4519 C 400.311 3.52661 0.718192 0
M  V30 4520 C 399.919 4.45481 -0.474428 0
M  V30 4521 C 401.663 4.03888 1.3067 0
M  V30 4522 C 399.57 5.91303 -0.107026 0
M  V30 4523 H 398.5 0.740159 0.143808 0
M  V30 4524 H 401.151 1.80125 -0.350336 0
M  V30 4525 H 399.533 3.66429 1.50152 0
M  V30 4526 H 400.707 4.43473 -1.25172 0
M  V30 4527 H 399.022 4.04751 -0.978052 0
M  V30 4528 H 401.619 5.10358 1.59496 0
M  V30 4529 H 401.962 3.51401 2.23211 0
M  V30 4530 H 402.495 3.93457 0.586211 0
M  V30 4531 H 399.234 6.47833 -0.999642 0
M  V30 4532 H 398.754 5.9644 0.634013 0
M  V30 4533 H 400.433 6.46258 0.309807 0
M  V30 4534 N 400.565 -0.0233959 1.57583 0
M  V30 4535 C 401.812 -0.713063 1.8953 0
M  V30 4536 C 402.14 -1.75056 0.847673 0
M  V30 4537 O 401.395 -1.95119 -0.150636 0
M  V30 4538 C 401.694 -1.41428 3.28227 0
M  V30 4539 C 401.36 -0.512222 4.47981 0
M  V30 4540 C 400.022 -0.263785 4.80476 0
M  V30 4541 C 402.374 0.110248 5.21083 0
M  V30 4542 C 399.702 0.615804 5.83459 0
M  V30 4543 C 402.054 0.977573 6.25001 0
M  V30 4544 C 400.718 1.23542 6.55968 0
M  V30 4545 H 399.988 -0.260928 0.69354 0
M  V30 4546 H 402.635 0.0271047 1.91481 0
M  V30 4547 H 400.94 -2.22791 3.22291 0
M  V30 4548 H 402.637 -1.95355 3.50196 0
M  V30 4549 H 399.227 -0.716013 4.22577 0
M  V30 4550 H 403.411 -0.0687137 4.96252 0
M  V30 4551 H 398.667 0.82382 6.05824 0
M  V30 4552 H 402.841 1.46638 6.80786 0
M  V30 4553 H 400.468 1.91871 7.35588 0
M  V30 4554 N 402.043 -1.548 -0.295768 0
M  V30 4555 C 403.291 -1.73985 -1.02828 0
M  V30 4556 C 403.612 -0.531406 -1.87619 0
M  V30 4557 O 402.882 0.454221 -1.90561 0
M  V30 4558 H 401.462 -0.641556 -0.382642 0
M  V30 4559 H 404.124 -1.92163 -0.325489 0
M  V30 4560 H 403.22 -2.63129 -1.67838 0
M  V30 4561 N 403.521 0.559213 -1.47345 0
M  V30 4562 C 404.749 1.34194 -1.57479 0
M  V30 4563 C 405.164 1.87463 -0.224261 0
M  V30 4564 O 404.521 1.64888 0.782185 0
M  V30 4565 C 404.572 2.51324 -2.59843 0
M  V30 4566 O 404.293 2.00256 -3.89653 0
M  V30 4567 C 405.794 3.43563 -2.80142 0
M  V30 4568 H 403.014 0.409136 -0.531835 0
M  V30 4569 H 405.558 0.677609 -1.92947 0
M  V30 4570 H 403.713 3.13699 -2.27314 0
M  V30 4571 H 404.127 2.76708 -4.4557 0
M  V30 4572 H 405.601 4.2217 -3.55635 0
M  V30 4573 H 406.078 3.9698 -1.87892 0
M  V30 4574 H 406.684 2.87005 -3.1386 0
M  V30 4575 N 404.999 1.35443 0.805782 0
M  V30 4576 C 406.276 1.19325 1.54987 0
M  V30 4577 C 406.656 -0.227294 2.09873 0
M  V30 4578 O 406.004 -1.2309 1.92512 0
M  V30 4579 C 406.214 2.26196 2.65775 0
M  V30 4580 C 407.562 2.62043 3.34094 0
M  V30 4581 O 408.586 2.25115 2.76046 0
M  V30 4582 O 407.445 3.25542 4.38958 0
M  V30 4583 H 404.539 0.463623 0.684823 0
M  V30 4584 H 407.085 1.47127 0.845674 0
M  V30 4585 H 405.857 3.21471 2.23096 0
M  V30 4586 H 405.48 1.99667 3.43829 0
M  V30 4587 N 406.477 -1.02803 1.19454 0
M  V30 4588 C 407.702 -1.80378 1.02364 0
M  V30 4589 C 408.127 -1.83282 -0.423007 0
M  V30 4590 O 407.485 -1.25945 -1.30413 0
M  V30 4591 C 407.533 -3.23248 1.59821 0
M  V30 4592 O 406.637 -4.04 0.828105 0
M  V30 4593 H 405.978 -0.556799 0.361761 0
M  V30 4594 H 408.508 -1.29385 1.58495 0
M  V30 4595 H 408.518 -3.73994 1.63073 0
M  V30 4596 H 407.193 -3.2045 2.65113 0
M  V30 4597 H 405.77 -3.62635 0.86891 0
M  V30 4598 N 407.956 -0.998596 -1.21925 0
M  V30 4599 C 408.888 -0.511879 -2.23411 0
M  V30 4600 C 409.901 0.396094 -1.57908 0
M  V30 4601 O 411.09 0.197316 -1.77406 0
M  V30 4602 C 408.19 0.276802 -3.37768 0
M  V30 4603 C 407.363 -0.628687 -4.32858 0
M  V30 4604 C 406.422 0.109272 -5.26087 0
M  V30 4605 O 405.448 -0.507237 -5.66935 0
M  V30 4606 N 406.65 1.38983 -5.63617 0
M  V30 4607 H 409.415 -1.38457 -2.658 0
M  V30 4608 H 406.976 -0.873981 -1.36283 0
M  V30 4609 H 408.968 0.77928 -3.97126 0
M  V30 4610 H 407.538 1.05063 -2.94415 0
M  V30 4611 H 406.758 -1.31175 -3.71735 0
M  V30 4612 H 408.046 -1.24514 -4.93329 0
M  V30 4613 H 407.444 1.91194 -5.32411 0
M  V30 4614 H 406.001 1.83739 -6.25367 0
M  V30 4615 N 409.434 1.37368 -0.772513 0
M  V30 4616 C 410.664 2.03647 -0.348082 0
M  V30 4617 C 411.072 1.58392 1.03482 0
M  V30 4618 O 410.415 0.760921 1.672 0
M  V30 4619 C 410.477 3.58131 -0.313404 0
M  V30 4620 C 410.141 4.2652 -1.64102 0
M  V30 4621 C 411.138 4.50587 -2.5936 0
M  V30 4622 C 408.823 4.64335 -1.91567 0
M  V30 4623 C 410.817 5.11526 -3.80289 0
M  V30 4624 C 408.504 5.24996 -3.12766 0
M  V30 4625 C 409.502 5.48529 -4.06946 0
M  V30 4626 O 409.19 6.07921 -5.26011 0
M  V30 4627 H 408.922 0.660538 -0.143753 0
M  V30 4628 H 411.476 1.76669 -1.04772 0
M  V30 4629 H 409.706 3.84159 0.442617 0
M  V30 4630 H 411.395 4.05813 0.0840613 0
M  V30 4631 H 412.161 4.21784 -2.39423 0
M  V30 4632 H 408.04 4.45353 -1.19088 0
M  V30 4633 H 411.584 5.29811 -4.53813 0
M  V30 4634 H 407.481 5.53223 -3.32588 0
M  V30 4635 H 408.249 6.26398 -5.26847 0
M  V30 4636 N 410.912 0.523116 1.48665 0
M  V30 4637 C 411.86 -0.256859 2.31177 0
M  V30 4638 C 412.854 -0.94199 1.40794 0
M  V30 4639 O 414.06 -0.867157 1.57735 0
M  V30 4640 H 410.435 -0.1017 0.745091 0
M  V30 4641 H 412.406 0.458739 2.94853 0
M  V30 4642 C 411.155 -1.29503 3.22683 0
M  V30 4643 H 410.478 -0.777248 3.92172 0
M  V30 4644 H 411.918 -1.81233 3.83315 0
M  V30 4645 C 410.377 -2.32501 2.43813 0
M  V30 4646 O 410.907 -3.3881 2.15803 0
M  V30 4647 N 409.113 -2.05538 2.05432 0
M  V30 4648 H 408.66 -1.19104 2.28412 0
M  V30 4649 H 408.618 -2.74676 1.52973 0
M  V30 4650 N 412.39 -1.55475 0.257931 0
M  V30 4651 C 413.353 -2.20551 -0.623706 0
M  V30 4652 C 414.353 -1.17809 -1.09443 0
M  V30 4653 O 415.543 -1.42823 -0.997362 0
M  V30 4654 C 412.675 -2.85784 -1.8585 0
M  V30 4655 H 413.868 -2.99848 -0.0557743 0
M  V30 4656 H 411.421 -1.56298 0.0084422 0
M  V30 4657 H 412.156 -2.10453 -2.46739 0
M  V30 4658 H 411.941 -3.61057 -1.52907 0
M  V30 4659 H 413.431 -3.35553 -2.48584 0
M  V30 4660 N 413.868 0.0150385 -1.57593 0
M  V30 4661 C 415.098 0.713359 -1.93894 0
M  V30 4662 C 415.506 1.68663 -0.857289 0
M  V30 4663 O 414.849 1.82876 0.173788 0
M  V30 4664 C 414.911 1.51348 -3.26089 0
M  V30 4665 C 414.575 0.703451 -4.51554 0
M  V30 4666 C 415.572 -0.00237924 -5.199 0
M  V30 4667 C 413.257 0.653854 -4.98026 0
M  V30 4668 C 415.251 -0.746955 -6.33008 0
M  V30 4669 C 412.938 -0.0944578 -6.11027 0
M  V30 4670 C 413.936 -0.793609 -6.78374 0
M  V30 4671 O 413.624 -1.52974 -7.89211 0
M  V30 4672 H 413.356 0.204637 -0.644282 0
M  V30 4673 H 415.91 -0.0276411 -2.05381 0
M  V30 4674 H 414.14 2.29862 -3.10967 0
M  V30 4675 H 415.829 2.09572 -3.47612 0
M  V30 4676 H 416.595 0.0268803 -4.84993 0
M  V30 4677 H 412.474 1.18756 -4.45441 0
M  V30 4678 H 416.018 -1.2932 -6.85509 0
M  V30 4679 H 411.915 -0.125591 -6.45378 0
M  V30 4680 H 412.683 -1.44488 -8.05646 0
M  V30 4681 N 415.346 1.54954 0.287554 0
M  V30 4682 C 416.294 1.87606 1.37502 0
M  V30 4683 C 417.288 0.751001 1.51843 0
M  V30 4684 O 418.494 0.935169 1.53801 0
M  V30 4685 H 414.869 0.595231 0.459569 0
M  V30 4686 H 416.84 2.78477 1.07206 0
M  V30 4687 C 415.589 2.15183 2.73115 0
M  V30 4688 H 414.912 3.01234 2.62866 0
M  V30 4689 H 416.352 2.4196 3.48183 0
M  V30 4690 C 414.811 0.954686 3.2309 0
M  V30 4691 O 415.341 0.181949 4.01288 0
M  V30 4692 N 413.547 0.756368 2.80584 0
M  V30 4693 H 413.094 1.38643 2.17108 0
M  V30 4694 H 413.052 -0.0430391 3.14371 0
M  V30 4695 N 416.824 -0.551391 1.4764 0
M  V30 4696 C 417.734 -1.68525 1.63207 0
M  V30 4697 C 418.75 -1.6621 0.514815 0
M  V30 4698 O 419.926 -1.85551 0.783113 0
M  V30 4699 C 416.991 -3.05025 1.64805 0
M  V30 4700 C 416.052 -3.18362 2.88 0
M  V30 4701 C 415.285 -4.4835 2.89513 0
M  V30 4702 O 415.508 -5.34163 2.00065 0
M  V30 4703 O 414.442 -4.65602 3.81443 0
M  V30 4704 H 418.268 -1.58333 2.59161 0
M  V30 4705 H 415.853 -0.722063 1.30792 0
M  V30 4706 H 417.735 -3.86245 1.68502 0
M  V30 4707 H 416.41 -3.15587 0.720197 0
M  V30 4708 H 415.317 -2.36518 2.89845 0
M  V30 4709 H 416.65 -3.12707 3.80099 0
M  V30 4710 N 418.302 -1.35869 -0.798587 0
M  V30 4711 C 419.249 -1.29446 -1.91082 0
M  V30 4712 C 420.219 -0.16487 -1.6528 0
M  V30 4713 O 421.404 -0.349888 -1.87564 0
M  V30 4714 C 418.544 -1.0804 -3.27752 0
M  V30 4715 C 417.657 -2.29993 -3.65687 0
M  V30 4716 C 416.792 -2.01673 -4.91428 0
M  V30 4717 C 415.831 -3.19636 -5.22015 0
M  V30 4718 N 414.968 -2.91039 -6.38937 0
M  V30 4719 H 419.808 -2.24553 -1.95907 0
M  V30 4720 H 417.345 -1.11615 -0.958148 0
M  V30 4721 H 419.303 -0.936586 -4.06551 0
M  V30 4722 H 417.933 -0.16592 -3.22373 0
M  V30 4723 H 416.985 -2.55211 -2.82085 0
M  V30 4724 H 418.297 -3.18052 -3.84245 0
M  V30 4725 H 417.451 -1.84168 -5.78072 0
M  V30 4726 H 416.19 -1.10911 -4.74921 0
M  V30 4727 H 415.195 -3.37709 -4.33858 0
M  V30 4728 H 416.42 -4.11211 -5.40447 0
M  V30 4729 H 414.366 -2.0288 -6.2384 0
M  V30 4730 H 414.283 -3.72635 -6.57784 0
M  V30 4731 H 415.551 -2.77093 -7.28587 0
M  V30 4732 N 419.78 1.02168 -1.19998 0
M  V30 4733 C 421.196 1.27969 -0.953737 0
M  V30 4734 C 421.396 1.98079 0.369703 0
M  V30 4735 O 420.452 2.27306 1.09947 0
M  V30 4736 C 421.765 2.11971 -2.13281 0
M  V30 4737 C 423.313 2.25255 -2.17323 0
M  V30 4738 C 423.788 3.12632 -3.34702 0
M  V30 4739 N 425.279 3.2022 -3.34684 0
M  V30 4740 C 426.014 3.88039 -4.22153 0
M  V30 4741 N 425.51 4.58027 -5.19791 0
M  V30 4742 N 427.303 3.84511 -4.10009 0
M  V30 4743 H 419.454 0.550794 -2.05134 0
M  V30 4744 H 421.717 0.305683 -0.897364 0
M  V30 4745 H 421.423 1.67785 -3.09097 0
M  V30 4746 H 421.297 3.12699 -2.10949 0
M  V30 4747 H 423.684 2.68667 -1.22073 0
M  V30 4748 H 423.765 1.24053 -2.23706 0
M  V30 4749 H 423.409 2.69926 -4.30235 0
M  V30 4750 H 423.339 4.13909 -3.25556 0
M  V30 4751 H 425.83 2.70382 -2.64012 0
M  V30 4752 H 426.143 5.07429 -5.82868 0
M  V30 4753 H 424.488 4.56869 -5.23733 0
M  V30 4754 H 427.679 3.28978 -3.33003 0
M  V30 4755 H 427.852 4.3709 -4.78389 0
M  V30 4756 N 421.258 1.00505 1.21394 0
M  V30 4757 C 422.205 0.565496 2.23765 0
M  V30 4758 C 423.175 -0.408466 1.60999 0
M  V30 4759 O 424.36 -0.310503 1.88257 0
M  V30 4760 C 421.5 -0.101667 3.4495 0
M  V30 4761 C 420.613 0.915479 4.22188 0
M  V30 4762 C 419.748 0.220574 5.30742 0
M  V30 4763 C 418.787 1.22527 5.99711 0
M  V30 4764 N 417.924 0.557831 6.9988 0
M  V30 4765 H 422.764 1.44314 2.60725 0
M  V30 4766 H 420.301 0.722643 1.28126 0
M  V30 4767 H 422.259 -0.505504 4.14126 0
M  V30 4768 H 420.889 -0.94303 3.08718 0
M  V30 4769 H 419.941 1.43756 3.52191 0
M  V30 4770 H 421.253 1.68005 4.69655 0
M  V30 4771 H 420.407 -0.239368 6.06228 0
M  V30 4772 H 419.146 -0.576401 4.84282 0
M  V30 4773 H 418.151 1.69571 5.22997 0
M  V30 4774 H 419.376 2.02332 6.48258 0
M  V30 4775 H 417.322 -0.219486 6.55633 0
M  V30 4776 H 417.239 1.26065 7.45415 0
M  V30 4777 H 418.507 0.121095 7.79406 0
M  V30 4778 N 422.737 -1.36956 0.779787 0
M  V30 4779 C 423.684 -2.30175 0.169697 0
M  V30 4780 C 424.654 -1.51501 -0.68094 0
M  V30 4781 O 425.839 -1.80042 -0.631629 0
M  V30 4782 C 422.979 -3.37985 -0.697131 0
M  V30 4783 C 422.092 -4.31661 0.170992 0
M  V30 4784 C 421.227 -5.2655 -0.701298 0
M  V30 4785 C 420.266 -6.11867 0.168869 0
M  V30 4786 N 419.403 -6.98973 -0.661855 0
M  V30 4787 H 424.243 -2.81767 0.970135 0
M  V30 4788 H 421.78 -1.38699 0.489994 0
M  V30 4789 H 423.738 -3.99128 -1.2146 0
M  V30 4790 H 422.368 -2.87739 -1.46309 0
M  V30 4791 H 421.42 -3.71756 0.80634 0
M  V30 4792 H 422.732 -4.91644 0.841875 0
M  V30 4793 H 421.886 -5.92937 -1.28494 0
M  V30 4794 H 420.625 -4.66998 -1.40584 0
M  V30 4795 H 419.63 -5.44452 0.764986 0
M  V30 4796 H 420.855 -6.73493 0.870863 0
M  V30 4797 H 418.801 -6.41941 -1.35086 0
M  V30 4798 H 418.718 -7.55984 -0.0484447 0
M  V30 4799 H 419.986 -7.6974 -1.22963 0
M  V30 4800 N 424.215 -0.530993 -1.48385 0
M  V30 4801 C 425.462 0.0027373 -2.025 0
M  V30 4802 C 425.79 1.34186 -1.40799 0
M  V30 4803 O 425.045 1.88 -0.543544 0
M  V30 4804 C 425.344 0.172742 -3.56982 0
M  V30 4805 C 425.01 -1.09215 -4.37473 0
M  V30 4806 C 423.672 -1.43881 -4.59186 0
M  V30 4807 C 426.024 -1.93153 -4.84088 0
M  V30 4808 C 423.352 -2.62381 -5.2476 0
M  V30 4809 C 425.704 -3.10833 -5.50968 0
M  V30 4810 C 424.368 -3.45843 -5.70919 0
M  V30 4811 H 423.638 0.00100165 -0.740999 0
M  V30 4812 H 426.285 -0.697219 -1.78357 0
M  V30 4813 H 424.59 0.955473 -3.79971 0
M  V30 4814 H 426.287 0.600642 -3.96476 0
M  V30 4815 H 422.877 -0.812177 -4.20834 0
M  V30 4816 H 427.061 -1.67683 -4.67115 0
M  V30 4817 H 422.317 -2.89707 -5.38405 0
M  V30 4818 H 426.491 -3.7618 -5.86056 0
M  V30 4819 H 424.118 -4.37764 -6.21503 0
M  V30 4820 N 425.693 1.55336 -0.266172 0
M  V30 4821 C 426.603 2.2583 0.635458 0
M  V30 4822 C 427.619 1.28106 1.17749 0
M  V30 4823 O 428.795 1.61024 1.20968 0
M  V30 4824 C 425.86 2.95879 1.80712 0
M  V30 4825 C 424.921 4.09059 1.30265 0
M  V30 4826 C 424.154 4.75759 2.41846 0
M  V30 4827 O 424.377 4.41622 3.61007 0
M  V30 4828 O 423.311 5.63888 2.1051 0
M  V30 4829 H 427.137 3.03631 0.0646693 0
M  V30 4830 H 424.722 1.49361 -0.0339177 0
M  V30 4831 H 426.604 3.39932 2.49047 0
M  V30 4832 H 425.279 2.21002 2.36516 0
M  V30 4833 H 424.186 3.69482 0.586019 0
M  V30 4834 H 425.519 4.85811 0.790458 0
M  V30 4835 N 427.171 -0.0066808 1.57599 0
M  V30 4836 C 428.118 -1.00024 2.08 0
M  V30 4837 C 429.088 -1.34549 0.973943 0
M  V30 4838 O 430.273 -1.44502 1.24595 0
M  V30 4839 C 427.413 -2.2891 2.58252 0
M  V30 4840 C 426.526 -2.00346 3.82734 0
M  V30 4841 C 425.661 -3.23265 4.21513 0
M  V30 4842 C 424.7 -2.90357 5.3885 0
M  V30 4843 N 423.837 -4.05793 5.72954 0
M  V30 4844 H 428.677 -0.563499 2.92624 0
M  V30 4845 H 426.214 -0.266592 1.44664 0
M  V30 4846 H 428.172 -3.04247 2.85464 0
M  V30 4847 H 426.802 -2.70265 1.76512 0
M  V30 4848 H 425.854 -1.15406 3.62471 0
M  V30 4849 H 427.166 -1.72086 4.68175 0
M  V30 4850 H 426.32 -4.06953 4.49971 0
M  V30 4851 H 425.059 -3.54657 3.34768 0
M  V30 4852 H 424.064 -2.05075 5.10122 0
M  V30 4853 H 425.289 -2.60219 6.27266 0
M  V30 4854 H 423.235 -4.37094 4.89167 0
M  V30 4855 H 423.152 -3.81034 6.52954 0
M  V30 4856 H 424.42 -4.90289 6.06001 0
M  V30 4857 N 428.649 -1.55105 -0.279332 0
M  V30 4858 C 429.596 -1.8755 -1.34513 0
M  V30 4859 C 430.566 -0.726384 -1.49375 0
M  V30 4860 O 431.751 -0.977063 -1.63884 0
M  V30 4861 C 428.891 -2.14738 -2.70151 0
M  V30 4862 C 428.004 -3.42285 -2.63562 0
M  V30 4863 C 427.139 -3.59206 -3.91337 0
M  V30 4864 C 426.178 -4.80467 -3.79233 0
M  V30 4865 N 425.315 -4.94079 -4.98829 0
M  V30 4866 H 430.155 -2.78456 -1.06143 0
M  V30 4867 H 427.692 -1.37867 -0.512936 0
M  V30 4868 H 429.65 -2.28501 -3.49061 0
M  V30 4869 H 428.28 -1.27075 -2.96735 0
M  V30 4870 H 427.332 -3.37029 -1.76397 0
M  V30 4871 H 428.644 -4.31328 -2.50515 0
M  V30 4872 H 427.798 -3.72751 -4.78687 0
M  V30 4873 H 426.537 -2.68337 -4.07243 0
M  V30 4874 H 425.542 -4.66932 -2.90266 0
M  V30 4875 H 426.767 -5.72765 -3.64852 0
M  V30 4876 H 424.713 -4.06139 -5.15158 0
M  V30 4877 H 424.63 -5.77156 -4.8829 0
M  V30 4878 H 425.898 -5.12003 -5.8777 0
M  V30 4879 N 430.127 0.543554 -1.4793 0
M  V30 4880 C 431.355 1.32516 -1.58894 0
M  V30 4881 C 431.77 1.87215 -0.244131 0
M  V30 4882 O 431.127 1.65709 0.764652 0
M  V30 4883 C 431.178 2.48554 -2.62494 0
M  V30 4884 O 430.899 1.96112 -3.91755 0
M  V30 4885 C 432.4 3.40572 -2.8377 0
M  V30 4886 H 429.62 0.403472 -0.536145 0
M  V30 4887 H 432.164 0.657106 -1.93655 0
M  V30 4888 H 430.319 3.1127 -2.30629 0
M  V30 4889 H 430.733 2.71967 -4.4848 0
M  V30 4890 H 432.207 4.18375 -3.60093 0
M  V30 4891 H 432.684 3.94965 -1.92092 0
M  V30 4892 H 433.29 2.8366 -3.16887 0
M  V30 4893 N 431.605 1.3629 0.791371 0
M  V30 4894 C 432.515 1.32606 1.93527 0
M  V30 4895 C 433.531 0.228541 1.72493 0
M  V30 4896 O 434.707 0.460571 1.96063 0
M  V30 4897 C 431.772 1.11271 3.28359 0
M  V30 4898 C 430.833 2.3048 3.62185 0
M  V30 4899 C 430.066 2.10154 4.90583 0
M  V30 4900 O 430.289 1.07572 5.60165 0
M  V30 4901 O 429.223 2.97884 5.23019 0
M  V30 4902 H 433.049 2.28909 1.99585 0
M  V30 4903 H 430.634 1.16818 0.931344 0
M  V30 4904 H 432.516 1.01283 4.09047 0
M  V30 4905 H 431.191 0.180292 3.23198 0
M  V30 4906 H 430.098 2.46036 2.81811 0
M  V30 4907 H 431.431 3.22221 3.72068 0
M  V30 4908 O 433.122 -0.93083 1.31977 0
M  V30 4909 H 433.813 -1.56227 1.14512 0
M  V30 END ATOM
M  V30 BEGIN BOND
M  V30 END BOND
M  V30 END CTAB
M  END
$$$$
