drugbank_target|P02679 Fibrinogen gamma chain (DB11300; DB11571; DB11572)
 OpenBabel12092120043D

  0  0  0     0  0            999 V3000
M  V30 BEGIN CTAB
M  V30 COUNTS 7085 7177 0 0 0
M  V30 BEGIN ATOM
M  V30 1 H -0.908 1.98254 -0.117106 0
M  V30 2 N 0 1.576 0 0
M  V30 3 C 0.933 2.03868 1.02534 0
M  V30 4 C 1.911 0.928543 1.3348 0
M  V30 5 O 3.095 1.19667 1.45644 0
M  V30 6 C 0.222 2.43627 2.35294 0
M  V30 7 C -0.732 3.65373 2.2001 0
M  V30 8 S 0.101 5.13292 1.52614 0
M  V30 9 C 1.257 5.56322 2.86805 0
M  V30 10 H 1.49 2.90518 0.631377 0
M  V30 11 H -0.977 1.52953 0.210867 0
M  V30 12 H 0.981 2.67203 3.11629 0
M  V30 13 H -0.358 1.57376 2.7183 0
M  V30 14 H -1.165 3.90944 3.18086 0
M  V30 15 H -1.563 3.418 1.51819 0
M  V30 16 H 0.729 5.58782 3.83104 0
M  V30 17 H 1.672 6.56266 2.65933 0
M  V30 18 H 2.08 4.83886 2.90714 0
M  V30 19 N 1.4781 -0.272755 1.55222 0
M  V30 20 C 2.7031 -1.02683 1.80197 0
M  V30 21 C 3.1281 -1.79142 0.573551 0
M  V30 22 O 2.4861 -1.74917 -0.476849 0
M  V30 23 C 2.5341 -1.9609 3.02624 0
M  V30 24 O 1.6381 -3.04863 2.77727 0
M  V30 25 H 0.9791 -0.293557 0.595584 0
M  V30 26 H 3.5091 -0.30159 2.02365 0
M  V30 27 H 3.5191 -2.38039 3.31363 0
M  V30 28 H 2.1941 -1.39851 3.91682 0
M  V30 29 H 0.7711 -2.67228 2.60084 0
M  V30 30 N 2.9562 -1.48159 -0.537278 0
M  V30 31 C 4.2022 -1.57015 -1.29297 0
M  V30 32 C 4.5572 -0.237791 -1.90925 0
M  V30 33 O 3.8502 0.758621 -1.75942 0
M  V30 34 C 4.0442 -2.63956 -2.40961 0
M  V30 35 C 3.8732 -4.07461 -1.90278 0
M  V30 36 C 2.6432 -4.74685 -1.73213 0
M  V30 37 C 4.8412 -4.93858 -1.43556 0
M  V30 38 N 2.8232 -6.02633 -1.17078 0
M  V30 39 C 4.1942 -6.11993 -0.993204 0
M  V30 40 C 6.2492 -4.80141 -1.31792 0
M  V30 41 C 4.9522 -7.17923 -0.444872 0
M  V30 42 C 6.9782 -5.86186 -0.783585 0
M  V30 43 C 6.3402 -7.03524 -0.351261 0
M  V30 44 H 2.4392 -0.629154 -0.464423 0
M  V30 45 H 5.0232 -1.85006 -0.606705 0
M  V30 46 H 3.1942 -2.378 -3.07093 0
M  V30 47 H 4.9262 -2.62539 -3.07986 0
M  V30 48 H 1.6812 -4.30902 -1.9652 0
M  V30 49 H 2.1052 -6.7085 -0.910421 0
M  V30 50 H 6.7472 -3.89772 -1.63823 0
M  V30 51 H 4.4652 -8.08022 -0.11222 0
M  V30 52 H 8.0512 -5.77624 -0.695835 0
M  V30 53 H 6.9312 -7.8418 0.055777 0
M  V30 54 N 4.4343 0.785586 -1.36625 0
M  V30 55 C 5.6593 1.57963 -1.34397 0
M  V30 56 C 6.0843 1.87964 0.071526 0
M  V30 57 O 5.4423 1.48182 1.0446 0
M  V30 58 C 5.4903 2.87511 -2.17646 0
M  V30 59 O 4.5943 3.81281 -1.57158 0
M  V30 60 H 3.9353 0.479014 -0.459828 0
M  V30 61 H 6.4653 0.973411 -1.79961 0
M  V30 62 H 6.4753 3.36745 -2.30362 0
M  V30 63 H 5.1503 2.65002 -3.20541 0
M  V30 64 H 3.7273 3.39885 -1.53403 0
M  V30 65 N 5.9124 1.20967 1.01018 0
M  V30 66 C 6.8424 0.988272 2.11555 0
M  V30 67 C 7.8234 -0.0849778 1.69888 0
M  V30 68 O 9.0084 0.0738202 1.9406 0
M  V30 69 C 6.1384 0.546528 3.42973 0
M  V30 70 C 5.0924 1.56375 3.9841 0
M  V30 71 C 4.4184 0.97842 5.25672 0
M  V30 72 C 5.7184 2.94922 4.31066 0
M  V30 73 H 7.4124 1.91276 2.30334 0
M  V30 74 H 4.9584 0.921073 1.1069 0
M  V30 75 H 6.9114 0.378839 4.19694 0
M  V30 76 H 5.6354 -0.413598 3.23971 0
M  V30 77 H 4.2944 1.71891 3.23804 0
M  V30 78 H 3.9424 0.0101688 5.02999 0
M  V30 79 H 3.6424 1.65784 5.63728 0
M  V30 80 H 5.1664 0.821939 6.05043 0
M  V30 81 H 6.5804 2.8288 4.9865 0
M  V30 82 H 4.9774 3.5983 4.80253 0
M  V30 83 H 6.0474 3.4616 3.39561 0
M  V30 84 N 7.3905 -1.2043 1.01659 0
M  V30 85 C 8.3405 -2.21076 0.557623 0
M  V30 86 C 9.3245 -1.56176 -0.387029 0
M  V30 87 O 10.5165 -1.7575 -0.209996 0
M  V30 88 C 7.6455 -3.43146 -0.102707 0
M  V30 89 C 6.7315 -4.15213 0.863652 0
M  V30 90 N 7.1225 -4.63662 2.02117 0
M  V30 91 C 5.4205 -4.40716 0.684472 0
M  V30 92 C 6.1215 -5.18868 2.62966 0
M  V30 93 N 5.0975 -5.0893 1.91027 0
M  V30 94 H 8.8995 -2.56201 1.44008 0
M  V30 95 H 6.4135 -1.36366 0.881931 0
M  V30 96 H 8.4105 -4.14475 -0.449054 0
M  V30 97 H 7.0705 -3.09526 -0.981003 0
M  V30 98 H 8.0815 -4.58877 2.40109 0
M  V30 99 H 4.7585 -4.17245 -0.14577 0
M  V30 100 H 6.1485 -5.6673 3.60924 0
M  V30 101 N 8.8686 -0.792821 -1.36206 0
M  V30 102 C 10.2796 -0.429513 -1.81692 0
M  V30 103 C 10.6306 1.04695 -1.65932 0
M  V30 104 O 9.7556 1.81256 -1.18218 0
M  V30 105 C 10.3506 -0.772831 -3.29868 0
M  V30 106 C 8.9096 -0.462307 -3.7355 0
M  V30 107 C 8.0566 -1.00569 -2.5842 0
M  V30 108 H 11.0076 -0.985672 -1.24379 0
M  V30 109 H 11.0286 -0.0651928 -3.80444 0
M  V30 110 H 10.5406 -1.84747 -3.41307 0
M  V30 111 H 8.6416 0.604158 -3.67669 0
M  V30 112 H 8.7546 -0.985299 -4.68859 0
M  V30 113 H 7.1186 -0.428734 -2.51066 0
M  V30 114 H 7.9016 -2.08616 -2.72643 0
M  V30 115 N 10.3467 1.47872 -0.545128 0
M  V30 116 C 11.7627 1.5829 -0.204032 0
M  V30 117 C 11.9627 1.54529 1.29317 0
M  V30 118 O 11.0187 1.44232 2.07252 0
M  V30 119 C 12.3317 2.89304 -0.819987 0
M  V30 120 C 13.8797 3.02864 -0.790105 0
M  V30 121 C 14.3547 4.3656 -1.38491 0
M  V30 122 N 15.8457 4.43165 -1.34755 0
M  V30 123 C 16.5807 5.45153 -1.77753 0
M  V30 124 N 16.0767 6.54016 -2.2855 0
M  V30 125 N 17.8697 5.36125 -1.68897 0
M  V30 126 H 10.0207 1.4856 -1.51802 0
M  V30 127 H 12.2837 0.706305 -0.632327 0
M  V30 128 H 11.9897 2.97757 -1.87173 0
M  V30 129 H 11.8637 3.75957 -0.305915 0
M  V30 130 H 14.2507 2.94014 0.252913 0
M  V30 131 H 14.3317 2.17782 -1.34181 0
M  V30 132 H 13.9757 4.46164 -2.42693 0
M  V30 133 H 13.9057 5.20353 -0.808754 0
M  V30 134 H 16.3967 3.65083 -0.975855 0
M  V30 135 H 16.7097 7.27994 -2.59314 0
M  V30 136 H 15.0547 6.54938 -2.32553 0
M  V30 137 H 18.2457 4.49975 -1.28998 0
M  V30 138 H 18.4187 6.15472 -2.02726 0
M  V30 139 N 11.8248 0.280983 1.55075 0
M  V30 140 C 12.7728 -0.619864 2.24188 0
M  V30 141 C 13.7668 -1.15315 1.24092 0
M  V30 142 O 14.9728 -1.1061 1.42005 0
M  V30 143 H 11.3478 -0.218459 0.719569 0
M  V30 144 H 13.3188 -0.0141831 2.98397 0
M  V30 145 C 12.0678 -1.7899 2.98091 0
M  V30 146 H 11.3908 -1.38874 3.74905 0
M  V30 147 H 12.8308 -2.39672 3.49762 0
M  V30 148 C 11.2898 -2.68192 2.03899 0
M  V30 149 O 11.8198 -3.6872 1.594 0
M  V30 150 N 10.0258 -2.35488 1.70275 0
M  V30 151 H 9.5728 -1.53787 2.06658 0
M  V30 152 H 9.5308 -2.95442 1.07524 0
M  V30 153 N 13.3029 -1.57598 0.00835791 0
M  V30 154 C 14.2329 -2.1198 -0.979113 0
M  V30 155 C 15.2139 -1.03091 -1.35301 0
M  V30 156 O 16.3989 -1.30818 -1.43528 0
M  V30 157 C 13.5289 -2.62995 -2.26828 0
M  V30 158 C 12.4829 -3.76485 -2.03576 0
M  V30 159 C 11.8089 -4.13846 -3.38579 0
M  V30 160 C 13.1089 -5.0342 -1.39161 0
M  V30 161 H 14.8029 -2.94738 -0.526281 0
M  V30 162 H 12.3489 -1.41783 -0.251704 0
M  V30 163 H 14.3019 -2.99669 -2.96271 0
M  V30 164 H 13.0259 -1.7737 -2.7424 0
M  V30 165 H 11.6849 -3.40217 -1.36557 0
M  V30 166 H 11.3329 -3.25232 -3.83709 0
M  V30 167 H 11.0329 -4.90312 -3.23834 0
M  V30 168 H 12.5569 -4.53086 -4.09323 0
M  V30 169 H 13.9709 -5.37812 -1.98573 0
M  V30 170 H 12.3679 -5.84746 -1.34878 0
M  V30 171 H 13.4379 -4.83548 -0.361868 0
M  V30 172 N 14.781 0.264519 -1.55364 0
M  V30 173 C 16.03 0.992812 -1.75574 0
M  V30 174 C 16.343 1.87142 -0.568979 0
M  V30 175 O 17.549 2.63513 -0.653682 0
M  V30 176 C 16.005 1.81519 -3.10771 0
M  V30 177 C 15.613 0.984839 -4.37041 0
M  V30 178 C 17.357 2.53727 -3.40327 0
M  V30 179 C 15.264 1.80209 -5.63275 0
M  V30 180 H 14.194 0.374412 -0.65447 0
M  V30 181 H 16.845 0.248138 -1.81815 0
M  V30 182 H 15.227 2.60115 -2.98591 0
M  V30 183 H 16.401 0.242455 -4.60162 0
M  V30 184 H 14.716 0.37691 -4.14691 0
M  V30 185 H 17.313 3.15292 -4.3185 0
M  V30 186 H 17.656 3.24447 -2.60845 0
M  V30 187 H 18.189 1.82156 -3.53644 0
M  V30 188 H 14.928 1.13896 -6.45529 0
M  V30 189 H 14.448 2.52022 -5.44284 0
M  V30 190 H 16.127 2.37364 -6.01887 0
M  V30 191 N 16.2591 1.48442 0.529413 0
M  V30 192 C 17.1891 1.65902 1.64313 0
M  V30 193 C 18.1701 0.507897 1.6234 0
M  V30 194 O 19.3551 0.740503 1.79528 0
M  V30 195 C 16.4851 1.69911 3.02898 0
M  V30 196 C 15.4391 2.8453 3.19729 0
M  V30 197 C 14.7651 2.73629 4.59381 0
M  V30 198 C 16.0651 4.25821 3.02447 0
M  V30 199 H 17.7591 2.5914 1.49955 0
M  V30 200 H 15.3051 1.24709 0.719982 0
M  V30 201 H 17.2581 1.80715 3.80684 0
M  V30 202 H 15.9821 0.732524 3.18279 0
M  V30 203 H 14.6411 2.73283 2.44361 0
M  V30 204 H 14.2891 1.74938 4.71599 0
M  V30 205 H 13.9891 3.50541 4.71588 0
M  V30 206 H 15.5131 2.86401 5.39265 0
M  V30 207 H 16.9271 4.37898 3.70024 0
M  V30 208 H 15.3241 5.03735 3.26146 0
M  V30 209 H 16.3941 4.42244 1.98867 0
M  V30 210 N 17.7372 -0.778329 1.37039 0
M  V30 211 C 18.9672 -1.56507 1.34868 0
M  V30 212 C 19.3752 -1.89072 -0.0694802 0
M  V30 213 O 18.7182 -1.51434 -1.03987 0
M  V30 214 C 18.7802 -2.90641 2.11585 0
M  V30 215 C 18.4442 -2.80746 3.60598 0
M  V30 216 C 19.4412 -2.52226 4.54618 0
M  V30 217 C 17.1262 -2.98974 4.03633 0
M  V30 218 C 19.1202 -2.42054 5.89651 0
M  V30 219 C 16.8072 -2.88423 5.38754 0
M  V30 220 C 17.8052 -2.60002 6.31576 0
M  V30 221 O 17.4932 -2.49465 7.64214 0
M  V30 222 H 17.2252 -0.491723 0.463879 0
M  V30 223 H 19.7792 -0.973053 1.80889 0
M  V30 224 H 18.0092 -3.51936 1.60243 0
M  V30 225 H 19.6982 -3.51992 2.0213 0
M  V30 226 H 20.4642 -2.37835 4.22681 0
M  V30 227 H 16.3432 -3.20099 3.31749 0
M  V30 228 H 19.8872 -2.19791 6.62071 0
M  V30 229 H 15.7842 -3.0238 5.70295 0
M  V30 230 H 16.5522 -2.64864 7.74461 0
M  V30 231 N 19.2153 -1.21501 -1.00376 0
M  V30 232 C 20.4623 -1.03299 -1.74171 0
M  V30 233 C 20.7903 0.433326 -1.89612 0
M  V30 234 O 20.0453 1.33779 -1.42834 0
M  V30 235 C 20.3443 -1.67673 -3.15627 0
M  V30 236 C 20.0103 -3.17533 -3.2013 0
M  V30 237 C 18.6723 -3.58427 -3.21067 0
M  V30 238 C 21.0243 -4.13504 -3.17275 0
M  V30 239 C 18.3523 -4.93794 -3.16835 0
M  V30 240 C 20.7043 -5.48834 -3.14585 0
M  V30 241 C 19.3683 -5.89123 -3.13831 0
M  V30 242 H 18.6383 -0.377999 -0.637336 0
M  V30 243 H 21.2853 -1.51111 -1.17634 0
M  V30 244 H 19.5903 -1.12158 -3.75404 0
M  V30 245 H 21.2873 -1.51091 -3.71446 0
M  V30 246 H 17.8773 -2.84965 -3.20145 0
M  V30 247 H 22.0613 -3.82936 -3.15711 0
M  V30 248 H 17.3173 -5.24255 -3.1459 0
M  V30 249 H 21.4913 -6.22934 -3.1133 0
M  V30 250 H 19.1183 -6.93984 -3.10307 0
M  V30 251 N 20.6934 1.19889 -1.02296 0
M  V30 252 C 21.9234 1.93109 -0.734332 0
M  V30 253 C 22.3314 1.75377 0.709889 0
M  V30 254 O 21.6744 1.06912 1.49384 0
M  V30 255 C 21.7364 3.45362 -0.99827 0
M  V30 256 C 21.4004 3.8686 -2.43287 0
M  V30 257 C 22.3974 3.92102 -3.41397 0
M  V30 258 C 20.0824 4.18668 -2.77529 0
M  V30 259 C 22.0764 4.28573 -4.71809 0
M  V30 260 C 19.7634 4.54813 -4.08153 0
M  V30 261 C 20.7614 4.59739 -5.05103 0
M  V30 262 O 20.4494 4.95051 -6.33388 0
M  V30 263 H 20.1814 0.620409 -0.268456 0
M  V30 264 H 22.7354 1.53144 -1.3688 0
M  V30 265 H 20.9654 3.85482 -0.306645 0
M  V30 266 H 22.6544 3.99814 -0.700234 0
M  V30 267 H 23.4204 3.67685 -3.1628 0
M  V30 268 H 19.2994 4.14021 -2.0275 0
M  V30 269 H 22.8434 4.32333 -5.4748 0
M  V30 270 H 18.7404 4.78687 -4.33047 0
M  V30 271 H 19.5084 5.1302 -6.37772 0
M  V30 272 N 22.1715 0.800033 1.35784 0
M  V30 273 C 23.1345 0.211565 2.28221 0
M  V30 274 C 24.1345 -0.59728 1.49296 0
M  V30 275 O 25.3245 -0.416721 1.69142 0
M  V30 276 C 22.4565 -0.705846 3.33513 0
M  V30 277 H 23.6495 1.02677 2.81776 0
M  V30 278 H 21.2025 0.570211 1.45528 0
M  V30 279 H 21.9375 -1.54498 2.85133 0
M  V30 280 H 21.7225 -0.127655 3.91892 0
M  V30 281 H 23.2125 -1.11211 4.02519 0
M  V30 282 N 23.6496 -1.47581 0.552962 0
M  V30 283 C 24.5796 -2.32762 -0.185451 0
M  V30 284 C 25.5606 -1.43527 -0.912905 0
M  V30 285 O 26.7456 -1.72388 -0.894201 0
M  V30 286 C 23.8756 -3.25219 -1.21859 0
M  V30 287 C 22.8296 -4.23661 -0.607864 0
M  V30 288 C 22.1556 -5.05413 -1.74533 0
M  V30 289 C 23.4556 -5.20481 0.435582 0
M  V30 290 H 25.1496 -2.94749 0.525684 0
M  V30 291 H 22.6956 -1.41738 0.254251 0
M  V30 292 H 24.6486 -3.8365 -1.7433 0
M  V30 293 H 23.3726 -2.61279 -1.95961 0
M  V30 294 H 22.0316 -3.66451 -0.104489 0
M  V30 295 H 21.6796 -4.3788 -2.47529 0
M  V30 296 H 21.3796 -5.72059 -1.34249 0
M  V30 297 H 22.9036 -5.66701 -2.27338 0
M  V30 298 H 24.3176 -5.733 -0.00290157 0
M  V30 299 H 22.7146 -5.95305 0.757067 0
M  V30 300 H 23.7846 -4.66217 1.33303 0
M  V30 301 N 25.1277 -0.289203 -1.54924 0
M  V30 302 C 26.0577 0.58549 -2.2604 0
M  V30 303 C 27.0387 1.14753 -1.25562 0
M  V30 304 O 28.2237 1.17906 -1.54311 0
M  V30 305 C 25.3537 1.76305 -2.99222 0
M  V30 306 C 24.3077 1.33191 -4.06748 0
M  V30 307 C 23.6337 2.5937 -4.6758 0
M  V30 308 C 24.9337 0.471775 -5.20165 0
M  V30 309 H 26.6277 -0.00763532 -2.99399 0
M  V30 310 H 24.1737 -0.00511229 -1.43999 0
M  V30 311 H 26.1267 2.38097 -3.47689 0
M  V30 312 H 24.8507 2.38223 -2.23422 0
M  V30 313 H 23.5097 0.737121 -3.59113 0
M  V30 314 H 23.1577 3.19576 -3.88433 0
M  V30 315 H 22.8577 2.31228 -5.40192 0
M  V30 316 H 24.3817 3.21985 -5.18804 0
M  V30 317 H 25.7957 0.995056 -5.64599 0
M  V30 318 H 24.1927 0.284639 -5.99425 0
M  V30 319 H 25.2627 -0.506041 -4.82252 0
M  V30 320 N 26.6058 1.57591 -0.0167156 0
M  V30 321 C 27.8528 1.91283 0.664597 0
M  V30 322 C 28.1808 0.891949 1.72842 0
M  V30 323 O 27.4358 -0.100931 1.9544 0
M  V30 324 C 27.7348 3.3172 1.33029 0
M  V30 325 C 27.4008 4.4914 0.398047 0
M  V30 326 C 26.0628 4.80992 0.141421 0
M  V30 327 C 28.4148 5.20634 -0.242825 0
M  V30 328 C 25.7428 5.81703 -0.764092 0
M  V30 329 C 28.0948 6.22311 -1.13632 0
M  V30 330 C 26.7588 6.52611 -1.40196 0
M  V30 331 H 26.0288 0.699956 0.243193 0
M  V30 332 H 28.6758 1.9135 -0.0758267 0
M  V30 333 H 26.9808 3.27856 2.14517 0
M  V30 334 H 28.6778 3.55055 1.86379 0
M  V30 335 H 25.2678 4.24262 0.608238 0
M  V30 336 H 29.4518 4.96267 -0.0576019 0
M  V30 337 H 24.7078 6.03532 -0.977732 0
M  V30 338 H 28.8818 6.76834 -1.63917 0
M  V30 339 H 26.5088 7.30467 -2.10529 0
M  V30 340 N 28.0839 -0.256276 1.55502 0
M  V30 341 C 29.0139 -1.32102 1.92539 0
M  V30 342 C 29.9949 -1.50684 0.789194 0
M  V30 343 O 31.1799 -1.63449 1.04872 0
M  V30 344 C 28.3099 -2.67752 2.21192 0
M  V30 345 C 27.2639 -2.63878 3.36975 0
M  V30 346 C 26.5899 -4.03236 3.51147 0
M  V30 347 C 27.8899 -2.21682 4.72921 0
M  V30 348 H 29.5839 -1.01351 2.81724 0
M  V30 349 H 27.1299 -0.486105 1.35547 0
M  V30 350 H 29.0829 -3.42365 2.45691 0
M  V30 351 H 27.8069 -3.0012 1.28824 0
M  V30 352 H 26.4659 -1.91722 3.12471 0
M  V30 353 H 26.1139 -4.32854 2.56216 0
M  V30 354 H 25.8139 -4.01535 4.29003 0
M  V30 355 H 27.3379 -4.79563 3.77957 0
M  V30 356 H 28.7519 -2.86023 4.96854 0
M  V30 357 H 27.1489 -2.3111 5.53812 0
M  V30 358 H 28.2189 -1.16833 4.70615 0
M  V30 359 N 29.562 -1.4872 -0.521534 0
M  V30 360 C 30.787 -1.61101 -1.30618 0
M  V30 361 C 31.212 -0.274611 -1.86085 0
M  V30 362 O 30.57 0.754937 -1.64834 0
M  V30 363 C 30.618 -2.66709 -2.4269 0
M  V30 364 O 29.722 -2.24456 -3.45967 0
M  V30 365 H 29.063 -0.539921 -0.386499 0
M  V30 366 H 31.593 -1.94767 -0.626645 0
M  V30 367 H 31.603 -2.88245 -2.88754 0
M  V30 368 H 30.278 -3.63727 -2.01682 0
M  V30 369 H 28.855 -2.13168 -3.05964 0
M  V30 370 N 31.0401 0.771051 -1.3745 0
M  V30 371 C 32.2651 1.56529 -1.36065 0
M  V30 372 C 32.6901 1.88029 0.0515859 0
M  V30 373 O 32.0481 1.49282 1.02882 0
M  V30 374 C 32.0961 2.85187 -2.20683 0
M  V30 375 O 31.2001 3.79593 -1.61193 0
M  V30 376 H 30.5411 0.47411 -0.464883 0
M  V30 377 H 33.0711 0.954269 -1.80983 0
M  V30 378 H 33.0811 3.34283 -2.33921 0
M  V30 379 H 31.7561 2.61588 -3.23334 0
M  V30 380 H 30.3331 3.38239 -1.56999 0
M  V30 381 N 32.5182 1.22032 0.997298 0
M  V30 382 C 33.7462 1.06841 1.7718 0
M  V30 383 C 34.1612 -0.381325 1.84909 0
M  V30 384 O 33.5182 -1.26437 1.31605 0
M  V30 385 C 33.5692 1.66814 3.20711 0
M  V30 386 O 33.2902 3.06116 3.13408 0
M  V30 387 C 34.7912 1.56838 4.14628 0
M  V30 388 H 32.0112 0.374782 0.556578 0
M  V30 389 H 34.5552 1.61532 1.2541 0
M  V30 390 H 32.7102 1.16196 3.69564 0
M  V30 391 H 33.1242 3.34926 4.0364 0
M  V30 392 H 34.5982 2.03532 5.13107 0
M  V30 393 H 35.0752 0.524155 4.36061 0
M  V30 394 H 35.6812 2.06741 3.7167 0
M  V30 395 N 33.9963 -1.19345 1.0293 0
M  V30 396 C 35.2363 -1.90738 0.734727 0
M  V30 397 C 35.6003 -1.7785 -0.723414 0
M  V30 398 O 36.8013 -2.43844 -1.13108 0
M  V30 399 C 35.0723 -3.37569 1.17396 0
M  V30 400 S 36.6313 -4.27176 1.00329 0
M  V30 401 H 33.4493 -0.658771 0.267474 0
M  V30 402 H 36.0513 -1.4428 1.31922 0
M  V30 403 H 34.7553 -3.44475 2.23081 0
M  V30 404 H 34.2863 -3.8906 0.582772 0
M  V30 405 H 36.3013 -4.96126 -0.0859152 0
M  V30 406 N 35.4744 -0.807222 -1.35358 0
M  V30 407 C 36.7204 -0.388463 -1.99045 0
M  V30 408 C 37.0534 1.04184 -1.63888 0
M  V30 409 O 36.3284 1.72292 -0.902535 0
M  V30 410 C 36.6114 -0.572783 -3.55515 0
M  V30 411 C 36.4644 -2.04807 -4.00468 0
M  V30 412 C 37.7834 0.00114064 -4.401 0
M  V30 413 H 34.9024 -0.142619 -0.723069 0
M  V30 414 H 37.5444 -1.01687 -1.60498 0
M  V30 415 H 35.6944 -0.0378425 -3.88482 0
M  V30 416 H 37.3664 -2.64544 -3.77908 0
M  V30 417 H 35.6094 -2.54427 -3.51353 0
M  V30 418 H 36.2804 -2.12792 -5.09337 0
M  V30 419 H 38.7564 -0.455716 -4.13597 0
M  V30 420 H 37.6324 -0.157737 -5.48673 0
M  V30 421 H 37.8934 1.09488 -4.28328 0
M  V30 422 N 36.9525 1.47285 -0.560781 0
M  V30 423 C 37.9155 2.28535 0.174488 0
M  V30 424 C 38.9155 1.37153 0.839388 0
M  V30 425 O 40.1055 1.59748 0.694702 0
M  V30 426 C 37.2375 3.16934 1.25561 0
M  V30 427 H 38.4305 2.95012 -0.539262 0
M  V30 428 H 35.9835 1.53034 -0.317865 0
M  V30 429 H 36.7185 2.55157 2.00164 0
M  V30 430 H 36.5035 3.8419 0.783604 0
M  V30 431 H 37.9935 3.78143 1.77193 0
M  V30 432 N 38.4306 0.297415 1.54768 0
M  V30 433 C 39.6606 -0.315165 2.04182 0
M  V30 434 C 40.0686 -1.4834 1.17439 0
M  V30 435 O 39.4116 -1.82695 0.191891 0
M  V30 436 C 39.4736 -0.837583 3.49607 0
M  V30 437 C 39.1376 0.204912 4.5654 0
M  V30 438 C 40.1346 1.03214 5.09552 0
M  V30 439 C 37.8196 0.345578 5.0111 0
M  V30 440 C 39.8136 1.986 6.05671 0
M  V30 441 C 37.5006 1.30289 5.97049 0
M  V30 442 C 38.4986 2.12159 6.49213 0
M  V30 443 O 38.1866 3.06268 7.43273 0
M  V30 444 H 37.9186 -0.0729646 0.672051 0
M  V30 445 H 40.4726 0.433907 2.00765 0
M  V30 446 H 38.7026 -1.63712 3.50336 0
M  V30 447 H 40.3916 -1.36566 3.82236 0
M  V30 448 H 41.1576 0.934312 4.75916 0
M  V30 449 H 37.0366 -0.28171 4.60138 0
M  V30 450 H 40.5806 2.62542 6.46311 0
M  V30 451 H 36.4776 1.40145 6.30103 0
M  V30 452 H 37.2456 3.01205 7.61064 0
M  V30 453 N 39.9087 -1.5758 0.0250728 0
M  V30 454 C 41.1547 -1.91917 -0.655413 0
M  V30 455 C 41.4877 -0.901433 -1.72011 0
M  V30 456 O 40.7627 0.0764069 -1.9435 0
M  V30 457 C 41.0457 -3.36751 -1.27558 0
M  V30 458 C 40.8987 -4.49258 -0.220719 0
M  V30 459 C 42.2177 -3.81469 -2.19475 0
M  V30 460 H 39.3367 -0.697925 -0.23679 0
M  V30 461 H 41.9787 -1.89825 0.0815036 0
M  V30 462 H 40.1287 -3.38664 -1.90365 0
M  V30 463 H 41.8007 -4.59478 0.409601 0
M  V30 464 H 40.0437 -4.31415 0.454264 0
M  V30 465 H 40.7147 -5.47618 -0.694175 0
M  V30 466 H 43.1907 -3.81266 -1.66659 0
M  V30 467 H 42.0667 -4.83512 -2.59822 0
M  V30 468 H 42.3277 -3.16744 -3.08424 0
M  V30 469 N 41.3868 0.248026 -1.55636 0
M  V30 470 C 42.3498 1.29044 -1.89421 0
M  V30 471 C 43.3498 1.41134 -0.770581 0
M  V30 472 O 44.5398 1.39854 -1.03858 0
M  V30 473 C 41.6718 2.66831 -2.12165 0
M  V30 474 H 42.8648 1.00305 -2.82629 0
M  V30 475 H 40.4178 0.487265 -1.48511 0
M  V30 476 H 41.1528 3.00711 -1.21422 0
M  V30 477 H 40.9378 2.59438 -2.93997 0
M  V30 478 H 42.4278 3.42103 -2.3949 0
M  V30 479 N 42.8649 1.48995 0.513639 0
M  V30 480 C 44.0929 1.61531 1.29288 0
M  V30 481 C 44.5079 0.281801 1.86685 0
M  V30 482 O 43.8649 -0.731111 1.67215 0
M  V30 483 C 43.9159 2.67449 2.43215 0
M  V30 484 O 43.6369 3.95626 1.88179 0
M  V30 485 C 45.1379 2.90575 3.34785 0
M  V30 486 H 42.3579 0.544165 0.392588 0
M  V30 487 H 44.9019 1.9494 0.617956 0
M  V30 488 H 43.0569 2.36853 3.0656 0
M  V30 489 H 43.4709 4.53868 2.62876 0
M  V30 490 H 44.9449 3.68449 4.11035 0
M  V30 491 H 45.4219 2.00011 3.91015 0
M  V30 492 H 46.0279 3.22538 2.77218 0
M  V30 493 N 44.343 -0.763751 1.37857 0
M  V30 494 C 45.759 -1.06542 1.18832 0
M  V30 495 C 45.959 -2.01478 0.0299722 0
M  V30 496 O 45.015 -2.4458 -0.627447 0
M  V30 497 C 46.328 -1.65525 2.51042 0
M  V30 498 C 47.876 -1.77745 2.57635 0
M  V30 499 C 48.351 -2.4014 3.89996 0
M  V30 500 N 49.842 -2.47582 3.91481 0
M  V30 501 C 50.577 -2.96732 4.9065 0
M  V30 502 N 50.073 -3.45993 6.00217 0
M  V30 503 N 51.866 -2.95679 4.78048 0
M  V30 504 H 44.017 -0.133556 2.1198 0
M  V30 505 H 46.28 -0.121879 0.940133 0
M  V30 506 H 45.986 -1.03236 3.36207 0
M  V30 507 H 45.86 -2.64719 2.68707 0
M  V30 508 H 48.247 -2.39164 1.72872 0
M  V30 509 H 48.328 -0.772836 2.43846 0
M  V30 510 H 47.972 -1.79358 4.75177 0
M  V30 511 H 47.902 -3.41223 4.01092 0
M  V30 512 H 50.393 -2.1273 3.12337 0
M  V30 513 H 50.706 -3.81922 6.7183 0
M  V30 514 H 49.051 -3.44077 6.03851 0
M  V30 515 H 52.242 -2.56499 3.91568 0
M  V30 516 H 52.415 -3.33672 5.55488 0
M  V30 517 N 45.8211 -1.22559 -0.990812 0
M  V30 518 C 47.0981 -0.959875 -1.70428 0
M  V30 519 C 47.4781 0.524455 -2.04481 0
M  V30 520 O 46.8261 1.49302 -1.72977 0
M  V30 521 C 47.0361 -1.85955 -2.95333 0
M  V30 522 C 48.3841 -2.11687 -3.68068 0
M  V30 523 O 49.4081 -1.8342 -3.05345 0
M  V30 524 O 48.2671 -2.59572 -4.80921 0
M  V30 525 H 45.3611 -0.361154 -0.743974 0
M  V30 526 H 47.9071 -1.33554 -1.04697 0
M  V30 527 H 46.6791 -2.86346 -2.66687 0
M  V30 528 H 46.3021 -1.4856 -3.68803 0
M  V30 529 N 47.2992 1.18797 -1.03562 0
M  V30 530 C 48.2472 2.24297 -0.615905 0
M  V30 531 C 49.2412 1.65643 0.354808 0
M  V30 532 O 50.4472 1.78618 0.22265 0
M  V30 533 H 46.8222 0.729909 -0.180934 0
M  V30 534 H 48.7932 2.5701 -1.5162 0
M  V30 535 C 47.5422 3.47698 0.0104735 0
M  V30 536 H 46.8652 3.93125 -0.727509 0
M  V30 537 H 48.3052 4.23159 0.266995 0
M  V30 538 C 46.7642 3.12489 1.25905 0
M  V30 539 O 47.2942 3.25761 2.35038 0
M  V30 540 N 45.5002 2.6686 1.15039 0
M  V30 541 H 45.0472 2.56261 0.262328 0
M  V30 542 H 45.0052 2.43674 1.98672 0
M  V30 543 N 48.7773 0.814389 1.34928 0
M  V30 544 C 50.0173 0.404165 2.00364 0
M  V30 545 C 50.3813 -1.01166 1.63185 0
M  V30 546 O 51.5823 -1.52431 2.21401 0
M  V30 547 C 49.8533 0.590718 3.52484 0
M  V30 548 S 51.4123 0.272075 4.37956 0
M  V30 549 H 48.2303 0.15311 0.694319 0
M  V30 550 H 50.8323 1.05834 1.64376 0
M  V30 551 H 49.5363 1.62099 3.77031 0
M  V30 552 H 49.0673 -0.0785013 3.93322 0
M  V30 553 H 51.0823 -0.917405 4.87645 0
M  V30 554 N 50.2554 -1.46986 0.568584 0
M  V30 555 C 51.4954 -2.04336 0.0512999 0
M  V30 556 C 51.8594 -1.43214 -1.27881 0
M  V30 557 O 53.0604 -1.91679 -1.88448 0
M  V30 558 C 51.3314 -3.57389 -0.0282328 0
M  V30 559 S 52.8904 -4.36056 -0.489991 0
M  V30 560 H 49.7084 -0.71034 0.0306349 0
M  V30 561 H 52.3104 -1.80212 0.757891 0
M  V30 562 H 51.0144 -3.99395 0.944011 0
M  V30 563 H 50.5454 -3.86028 -0.75803 0
M  V30 564 H 52.5604 -4.6441 -1.74752 0
M  V30 565 N 51.7335 -0.305618 -1.54608 0
M  V30 566 C 52.9825 0.303098 -1.9941 0
M  V30 567 C 53.2955 1.54648 -1.19764 0
M  V30 568 O 54.5015 2.23007 -1.54855 0
M  V30 569 C 52.9575 0.590588 -3.55021 0
M  V30 570 C 52.5655 -0.634719 -4.43481 0
M  V30 571 C 54.3095 1.16025 -4.08336 0
M  V30 572 C 52.2165 -0.320126 -5.90533 0
M  V30 573 H 51.1465 0.117031 -0.744862 0
M  V30 574 H 53.7975 -0.415045 -1.78745 0
M  V30 575 H 52.1795 1.36845 -3.71604 0
M  V30 576 H 53.3535 -1.41079 -4.38672 0
M  V30 577 H 51.6685 -1.12333 -4.00962 0
M  V30 578 H 54.2655 1.40994 -5.15776 0
M  V30 579 H 54.6085 2.10397 -3.5922 0
M  V30 580 H 55.1415 0.443985 -3.95315 0
M  V30 581 H 51.8805 -1.23254 -6.43808 0
M  V30 582 H 51.4005 0.418579 -5.98338 0
M  V30 583 H 53.0795 0.0766241 -6.46955 0
M  V30 584 N 53.2116 1.57565 -0.0334293 0
M  V30 585 C 54.1416 2.13511 0.945265 0
M  V30 586 C 55.1226 1.05231 1.33643 0
M  V30 587 O 56.3076 1.33084 1.41429 0
M  V30 588 C 53.4376 2.6657 2.22616 0
M  V30 589 C 52.3916 3.79676 1.97561 0
M  V30 590 C 51.7176 4.1918 3.31952 0
M  V30 591 C 53.0176 5.0557 1.31135 0
M  V30 592 H 54.7116 2.95538 0.479325 0
M  V30 593 H 52.2576 1.42166 0.229115 0
M  V30 594 H 54.2106 3.04344 2.91466 0
M  V30 595 H 52.9346 1.8171 2.71384 0
M  V30 596 H 51.5936 3.42347 1.31127 0
M  V30 597 H 51.2416 3.31296 3.78487 0
M  V30 598 H 50.9416 4.95402 3.15992 0
M  V30 599 H 52.4656 4.59541 4.02063 0
M  V30 600 H 53.8796 5.40903 1.89992 0
M  V30 601 H 52.2766 5.86818 1.25559 0
M  V30 602 H 53.3466 4.84062 0.284894 0
M  V30 603 N 54.6897 -0.239769 1.55765 0
M  V30 604 C 55.9667 -0.990056 1.68693 0
M  V30 605 C 56.3467 -2.03107 0.5754 0
M  V30 606 O 55.6947 -2.24604 -0.42017 0
M  V30 607 C 55.9047 -1.61696 3.09282 0
M  V30 608 C 57.2527 -2.11613 3.6811 0
M  V30 609 O 58.2767 -1.71624 3.12127 0
M  V30 610 O 57.1357 -2.85057 4.66267 0
M  V30 611 H 54.2297 -0.461299 0.686391 0
M  V30 612 H 56.7757 -0.232991 1.68093 0
M  V30 613 H 55.5477 -0.864357 3.81634 0
M  V30 614 H 55.1707 -2.44005 3.13923 0
M  V30 615 N 56.1678 -1.49265 -0.50573 0
M  V30 616 C 57.0778 -1.68312 -1.63427 0
M  V30 617 C 58.0938 -0.565682 -1.64548 0
M  V30 618 O 59.2698 -0.839801 -1.83055 0
M  V30 619 C 56.3348 -1.74107 -2.99813 0
M  V30 620 C 55.3958 -2.97653 -3.09356 0
M  V30 621 C 54.6288 -3.03163 -4.39236 0
M  V30 622 O 54.8518 -2.16396 -5.27758 0
M  V30 623 O 53.7858 -3.9558 -4.53652 0
M  V30 624 H 57.6118 -2.63907 -1.50289 0
M  V30 625 H 55.1968 -1.32951 -0.681502 0
M  V30 626 H 57.0788 -1.803 -3.80881 0
M  V30 627 H 55.7538 -0.816901 -3.13223 0
M  V30 628 H 54.6608 -2.96981 -2.27493 0
M  V30 629 H 55.9938 -3.89535 -3.00871 0
M  V30 630 N 57.6459 0.756429 -1.3826 0
M  V30 631 C 59.0619 1.0591 -1.19395 0
M  V30 632 C 59.2619 2.01459 -0.0406567 0
M  V30 633 O 58.3179 2.44909 0.614467 0
M  V30 634 C 59.6309 1.64191 -2.51916 0
M  V30 635 C 61.1789 1.76376 -2.58574 0
M  V30 636 C 61.6539 2.38069 -3.91264 0
M  V30 637 N 63.1449 2.45503 -3.92788 0
M  V30 638 C 63.8799 2.94126 -4.92217 0
M  V30 639 N 63.3759 3.42805 -6.02043 0
M  V30 640 N 65.1689 2.9314 -4.7961 0
M  V30 641 H 57.3199 0.122313 -2.12048 0
M  V30 642 H 59.5829 0.116892 -0.940766 0
M  V30 643 H 59.2889 1.01451 -3.3675 0
M  V30 644 H 59.1629 2.6329 -2.70108 0
M  V30 645 H 61.5499 2.38244 -1.74137 0
M  V30 646 H 61.6309 0.759894 -2.44252 0
M  V30 647 H 61.2749 1.76835 -4.76121 0
M  V30 648 H 61.2049 3.39091 -4.02895 0
M  V30 649 H 63.6959 2.1107 -3.13461 0
M  V30 650 H 64.0089 3.78354 -6.73846 0
M  V30 651 H 62.3539 3.4087 -6.05667 0
M  V30 652 H 65.5449 2.54419 -3.92923 0
M  V30 653 H 65.7179 3.30721 -5.5725 0
M  V30 654 N 59.124 1.23083 0.984299 0
M  V30 655 C 60.371 1.06057 1.72505 0
M  V30 656 C 60.699 -0.403105 1.90277 0
M  V30 657 O 59.954 -1.3149 1.44944 0
M  V30 658 C 60.253 1.72673 3.1292 0
M  V30 659 C 59.919 3.22586 3.15038 0
M  V30 660 C 58.581 3.63489 3.15324 0
M  V30 661 C 60.933 4.185 3.10657 0
M  V30 662 C 58.261 4.98772 3.08939 0
M  V30 663 C 60.613 5.53769 3.05814 0
M  V30 664 C 59.277 5.94041 3.04419 0
M  V30 665 H 58.547 0.388091 0.631242 0
M  V30 666 H 61.194 1.52963 1.15215 0
M  V30 667 H 59.499 1.18116 3.73572 0
M  V30 668 H 61.196 1.56982 3.68996 0
M  V30 669 H 57.786 2.90022 3.15571 0
M  V30 670 H 61.97 3.87911 3.09579 0
M  V30 671 H 57.226 5.29193 3.0621 0
M  V30 672 H 61.4 6.27808 3.0138 0
M  V30 673 H 59.027 6.98833 2.99227 0
M  V30 674 N 60.6021 -1.18246 1.0419 0
M  V30 675 C 61.8501 -1.87886 0.744543 0
M  V30 676 C 62.1711 -1.8082 -0.730006 0
M  V30 677 O 61.4411 -1.22736 -1.52685 0
M  V30 678 H 60.0211 -0.695556 0.272417 0
M  V30 679 H 62.6831 -1.43494 1.31892 0
M  V30 680 H 61.7791 -2.9389 1.05049 0
M  V30 681 N 62.0802 -0.821533 -1.34494 0
M  V30 682 C 63.3052 -0.420873 -2.03085 0
M  V30 683 C 63.7302 0.964915 -1.61465 0
M  V30 684 O 63.0882 1.62763 -0.798607 0
M  V30 685 C 63.1362 -0.529414 -3.56693 0
M  V30 686 O 62.2402 0.451302 -4.09923 0
M  V30 687 H 61.5812 -0.173489 -0.640935 0
M  V30 688 H 64.1112 -1.11157 -1.71771 0
M  V30 689 H 64.1212 -0.404671 -4.05988 0
M  V30 690 H 62.7962 -1.54014 -3.86332 0
M  V30 691 H 61.3732 0.285558 -3.71805 0
M  V30 692 N 63.5583 1.46682 -0.576371 0
M  V30 693 C 64.7883 2.06498 -0.0648694 0
M  V30 694 C 65.1963 1.42665 1.24271 0
M  V30 695 O 64.5393 0.523886 1.76071 0
M  V30 696 C 64.6013 3.5904 0.181816 0
M  V30 697 C 64.2653 4.45028 -1.0392 0
M  V30 698 C 65.2623 4.81959 -1.94966 0
M  V30 699 C 62.9473 4.86259 -1.25927 0
M  V30 700 C 64.9413 5.58942 -3.06371 0
M  V30 701 C 62.6283 5.63002 -2.37638 0
M  V30 702 C 63.6263 5.99257 -3.2769 0
M  V30 703 O 63.3143 6.7445 -4.37461 0
M  V30 704 H 63.0463 0.674028 -0.0515987 0
M  V30 705 H 65.6003 1.89393 -0.794951 0
M  V30 706 H 63.8303 3.74429 0.966436 0
M  V30 707 H 65.5193 4.00806 0.641047 0
M  V30 708 H 66.2853 4.50689 -1.79177 0
M  V30 709 H 62.1643 4.57494 -0.567448 0
M  V30 710 H 65.7083 5.87158 -3.76684 0
M  V30 711 H 61.6053 5.93686 -2.53392 0
M  V30 712 H 62.3733 6.92867 -4.35749 0
M  V30 713 N 65.0364 0.313813 1.54444 0
M  V30 714 C 66.2764 -0.292389 2.02298 0
M  V30 715 C 66.6404 -1.50105 1.19719 0
M  V30 716 O 67.8414 -2.17947 1.5733 0
M  V30 717 C 66.1124 -0.627682 3.51845 0
M  V30 718 S 67.6714 -1.21493 4.21646 0
M  V30 719 H 64.4894 -0.0890247 0.705405 0
M  V30 720 H 67.0914 0.444668 1.90376 0
M  V30 721 H 65.7954 0.260265 4.09574 0
M  V30 722 H 65.3264 -1.39519 3.67829 0
M  V30 723 H 67.3414 -2.5022 4.28491 0
M  V30 724 N 66.5145 -1.57545 0.0417849 0
M  V30 725 C 67.9255 -1.80011 -0.495259 0
M  V30 726 C 68.2765 -0.953199 -1.71489 0
M  V30 727 O 67.4015 -0.167138 -2.15754 0
M  V30 728 C 67.9965 -3.26482 -0.905265 0
M  V30 729 C 66.5555 -3.499 -1.38734 0
M  V30 730 C 65.7025 -2.74979 -0.358056 0
M  V30 731 H 68.6535 -1.56425 0.267736 0
M  V30 732 H 68.6745 -3.36887 -1.76882 0
M  V30 733 H 68.1865 -3.88096 -0.017401 0
M  V30 734 H 66.2875 -2.93553 -2.29471 0
M  V30 735 H 66.4005 -4.58615 -1.38598 0
M  V30 736 H 64.7645 -2.40834 -0.828912 0
M  V30 737 H 65.5475 -3.39315 0.521561 0
M  V30 738 N 67.9926 0.231505 -1.5589 0
M  V30 739 C 69.2206 0.974505 -1.82513 0
M  V30 740 C 69.6356 1.78344 -0.619591 0
M  V30 741 O 68.9926 1.77792 0.411848 0
M  V30 742 C 69.0436 1.90007 -3.07538 0
M  V30 743 O 68.7646 1.12385 -4.2344 0
M  V30 744 C 70.2656 2.75779 -3.47075 0
M  V30 745 H 67.4856 0.286065 -0.606966 0
M  V30 746 H 70.0296 0.249739 -2.02969 0
M  V30 747 H 68.1846 2.57891 -2.89086 0
M  V30 748 H 68.5986 1.75125 -4.944 0
M  V30 749 H 70.0726 3.36443 -4.37619 0
M  V30 750 H 70.5496 3.47672 -2.68367 0
M  V30 751 H 71.1556 2.13323 -3.67931 0
M  V30 752 N 69.4707 1.49531 0.497807 0
M  V30 753 C 70.6987 1.62893 1.27567 0
M  V30 754 C 71.1137 0.301585 1.86376 0
M  V30 755 O 70.4707 -0.713335 1.67982 0
M  V30 756 C 70.5217 2.70013 2.40364 0
M  V30 757 O 70.2427 3.976 1.83972 0
M  V30 758 C 71.7437 2.94109 3.31685 0
M  V30 759 H 68.9637 0.548298 0.386794 0
M  V30 760 H 71.5077 1.95584 0.597245 0
M  V30 761 H 69.6627 2.40092 3.04031 0
M  V30 762 H 70.0767 4.56631 2.58047 0
M  V30 763 H 71.5507 3.72788 4.07104 0
M  V30 764 H 72.0277 2.04147 3.88871 0
M  V30 765 H 72.6337 3.2546 2.73781 0
M  V30 766 N 70.9488 -0.749086 1.3866 0
M  V30 767 C 72.1888 -1.52112 1.36534 0
M  V30 768 C 72.5528 -1.91951 -0.0432316 0
M  V30 769 O 73.7538 -2.68132 -0.189396 0
M  V30 770 C 72.0248 -2.73704 2.29828 0
M  V30 771 S 73.5838 -3.63519 2.45763 0
M  V30 772 H 70.4018 -0.520482 0.484375 0
M  V30 773 H 73.0038 -0.878963 1.74627 0
M  V30 774 H 71.7078 -2.42552 3.31054 0
M  V30 775 H 71.2388 -3.4286 1.929 0
M  V30 776 H 73.2538 -4.66712 1.68505 0
M  V30 777 N 72.4269 -1.23603 -0.977757 0
M  V30 778 C 73.6749 -1.06759 -1.71601 0
M  V30 779 C 73.9959 0.395929 -1.90938 0
M  V30 780 O 73.2659 1.28356 -1.47992 0
M  V30 781 H 71.8459 -0.392062 -0.635843 0
M  V30 782 H 74.5079 -1.55362 -1.1768 0
M  V30 783 H 73.6039 -1.55763 -2.70452 0
M  V30 784 N 73.905 1.17692 -1.04816 0
M  V30 785 C 75.154 1.87192 -0.751132 0
M  V30 786 C 75.467 1.8169 0.724441 0
M  V30 787 O 76.673 2.46625 1.13527 0
M  V30 788 C 75.129 3.35857 -1.29338 0
M  V30 789 C 74.737 3.4987 -2.79812 0
M  V30 790 C 76.481 4.10709 -1.07322 0
M  V30 791 C 74.388 4.92536 -3.27356 0
M  V30 792 H 73.318 0.701162 -0.277288 0
M  V30 793 H 75.969 1.32932 -1.26496 0
M  V30 794 H 74.351 3.89631 -0.707376 0
M  V30 795 H 75.525 3.06332 -3.44235 0
M  V30 796 H 73.84 2.88433 -3.00325 0
M  V30 797 H 76.437 5.15952 -1.4035 0
M  V30 798 H 76.78 4.16299 -0.0108001 0
M  V30 799 H 77.313 3.6313 -1.62423 0
M  V30 800 H 74.052 4.92119 -4.33012 0
M  V30 801 H 73.572 5.3676 -2.67673 0
M  V30 802 H 75.251 5.61288 -3.21815 0
M  V30 803 N 75.3831 0.828654 1.34056 0
M  V30 804 C 76.3461 0.259927 2.27721 0
M  V30 805 C 77.3461 -0.565478 1.50529 0
M  V30 806 O 78.5361 -0.38075 1.69988 0
M  V30 807 C 75.6681 -0.634944 3.34935 0
M  V30 808 H 76.8611 1.0863 2.79534 0
M  V30 809 H 74.4141 0.600951 1.44285 0
M  V30 810 H 75.1491 -1.48416 2.88346 0
M  V30 811 H 74.9341 -0.0444999 3.92075 0
M  V30 812 H 76.4241 -1.02648 4.04788 0
M  V30 813 N 76.8612 -1.46375 0.584142 0
M  V30 814 C 78.1382 -1.956 0.0033388 0
M  V30 815 C 78.5182 -1.52679 -1.45782 0
M  V30 816 O 77.8662 -0.77816 -2.14842 0
M  V30 817 C 78.0762 -3.48551 0.176891 0
M  V30 818 C 79.4242 -4.24576 0.0454609 0
M  V30 819 O 80.4482 -3.56043 0.105801 0
M  V30 820 O 79.3072 -5.46427 -0.0890376 0
M  V30 821 H 76.4012 -0.825547 -0.0490066 0
M  V30 822 H 78.9472 -1.56652 0.65256 0
M  V30 823 H 77.7192 -3.72683 1.1926 0
M  V30 824 H 77.3422 -3.94332 -0.508695 0
M  V30 825 N 78.3393 -0.321999 -1.54275 0
M  V30 826 C 79.5863 0.281044 -2.0054 0
M  V30 827 C 79.9143 1.52265 -1.21019 0
M  V30 828 O 79.1693 1.93687 -0.279982 0
M  V30 829 C 79.4683 0.661769 -3.5122 0
M  V30 830 C 79.1343 -0.480482 -4.48333 0
M  V30 831 C 77.7963 -0.794005 -4.74604 0
M  V30 832 C 80.1483 -1.24783 -5.06042 0
M  V30 833 C 77.4763 -1.87763 -5.55844 0
M  V30 834 C 79.8283 -2.32153 -5.88462 0
M  V30 835 C 78.4923 -2.64089 -6.13036 0
M  V30 836 H 77.7623 0.102841 -0.733829 0
M  V30 837 H 80.4093 -0.445453 -1.86247 0
M  V30 838 H 78.7143 1.46867 -3.63232 0
M  V30 839 H 80.4113 1.13989 -3.84457 0
M  V30 840 H 77.0013 -0.226039 -4.28004 0
M  V30 841 H 81.1853 -1.01887 -4.85729 0
M  V30 842 H 76.4413 -2.12954 -5.73115 0
M  V30 843 H 80.6153 -2.92057 -6.32199 0
M  V30 844 H 78.2423 -3.48185 -6.75775 0
M  V30 845 N 79.8174 1.5752 -0.0501392 0
M  V30 846 C 80.7474 2.14502 0.922566 0
M  V30 847 C 81.7284 1.06642 1.3252 0
M  V30 848 O 82.9134 1.34577 1.4001 0
M  V30 849 C 80.0434 2.68916 2.19776 0
M  V30 850 C 78.9974 3.8175 1.93523 0
M  V30 851 C 78.3234 4.22677 3.27487 0
M  V30 852 C 79.6234 5.06932 1.25765 0
M  V30 853 H 81.3174 2.9603 0.447952 0
M  V30 854 H 78.8634 1.42401 0.214024 0
M  V30 855 H 80.8164 3.07419 2.88222 0
M  V30 856 H 79.5404 1.84578 2.69441 0
M  V30 857 H 78.1994 3.43718 1.27489 0
M  V30 858 H 77.8474 3.35291 3.74952 0
M  V30 859 H 77.5474 4.98725 3.1072 0
M  V30 860 H 79.0714 4.63779 3.97166 0
M  V30 861 H 80.4854 5.42888 1.84244 0
M  V30 862 H 78.8824 5.88116 1.19328 0
M  V30 863 H 79.9524 4.84337 0.233536 0
M  V30 864 N 81.2955 -0.223234 1.56011 0
M  V30 865 C 82.5205 -0.968978 1.83373 0
M  V30 866 C 82.9455 -1.77227 0.630254 0
M  V30 867 O 82.3035 -1.76345 -0.420959 0
M  V30 868 C 82.3515 -1.86363 3.08709 0
M  V30 869 O 81.4555 -2.95873 2.87285 0
M  V30 870 H 80.7965 -0.274461 0.604622 0
M  V30 871 H 83.3265 -0.237056 2.03222 0
M  V30 872 H 83.3365 -2.27376 3.38768 0
M  V30 873 H 82.0115 -1.27319 3.95933 0
M  V30 874 H 80.5885 -2.58818 2.68454 0
M  V30 875 N 82.7736 -1.49793 -0.48987 0
M  V30 876 C 84.0016 -1.63568 -1.26701 0
M  V30 877 C 84.4166 -0.311465 -1.86213 0
M  V30 878 O 83.7736 0.704416 -1.68357 0
M  V30 879 C 83.8246 -2.71284 -2.38929 0
M  V30 880 O 83.5456 -3.9857 -1.81861 0
M  V30 881 C 85.0466 -2.95864 -3.3012 0
M  V30 882 H 82.2666 -0.550342 -0.383881 0
M  V30 883 H 84.8106 -1.95898 -0.586864 0
M  V30 884 H 82.9656 -2.417 -3.02753 0
M  V30 885 H 83.3796 -4.57993 -2.55622 0
M  V30 886 H 84.8536 -3.74941 -4.05121 0
M  V30 887 H 85.3306 -2.06206 -3.87783 0
M  V30 888 H 85.9366 -3.26907 -2.72051 0
M  V30 889 N 84.2517 0.741722 -1.39055 0
M  V30 890 C 85.4817 1.52876 -1.3897 0
M  V30 891 C 85.8897 1.8919 0.0193266 0
M  V30 892 O 85.2327 1.54138 0.999356 0
M  V30 893 C 85.2947 2.84929 -2.19216 0
M  V30 894 C 84.9587 2.71086 -3.67915 0
M  V30 895 C 85.9557 2.40084 -4.61146 0
M  V30 896 C 83.6407 2.88168 -4.11418 0
M  V30 897 C 85.6347 2.26335 -5.95862 0
M  V30 898 C 83.3217 2.74037 -5.46211 0
M  V30 899 C 84.3197 2.43166 -6.38247 0
M  V30 900 O 84.0077 2.29115 -7.70559 0
M  V30 901 H 83.7397 0.479252 -0.476753 0
M  V30 902 H 86.2937 0.924751 -1.83405 0
M  V30 903 H 84.5237 3.47564 -1.69518 0
M  V30 904 H 86.2127 3.46509 -2.11392 0
M  V30 905 H 86.9787 2.26545 -4.28838 0
M  V30 906 H 82.8577 3.11191 -3.40119 0
M  V30 907 H 86.4017 2.0216 -6.67665 0
M  V30 908 H 82.2987 2.87153 -5.78112 0
M  V30 909 H 83.0667 2.44237 -7.81211 0
M  V30 910 N 85.7298 1.2412 0.971189 0
M  V30 911 C 86.6618 0.988349 2.06795 0
M  V30 912 C 87.6748 -0.0409541 1.62748 0
M  V30 913 O 88.8638 0.195673 1.77424 0
M  V30 914 C 85.9638 0.469023 3.35639 0
M  V30 915 C 85.1368 1.56065 4.08611 0
M  V30 916 C 84.1958 1.04458 5.15728 0
M  V30 917 O 83.2218 1.73553 5.42096 0
M  V30 918 N 84.4238 -0.122817 5.8037 0
M  V30 919 H 87.1888 1.93265 2.29061 0
M  V30 920 H 84.7498 1.15102 1.13856 0
M  V30 921 H 86.7418 0.108613 4.04554 0
M  V30 922 H 85.3118 -0.380919 3.1027 0
M  V30 923 H 84.5318 2.09341 3.34021 0
M  V30 924 H 85.8198 2.29449 4.54126 0
M  V30 925 H 85.2178 -0.700563 5.61345 0
M  V30 926 H 83.7748 -0.424404 6.50417 0
M  V30 927 N 87.2079 -1.17134 1.05439 0
M  V30 928 C 88.4359 -1.91372 0.786414 0
M  V30 929 C 88.8509 -1.76955 -0.658202 0
M  V30 930 O 88.2079 -1.10838 -1.44987 0
M  V30 931 C 88.2589 -3.42356 1.1608 0
M  V30 932 O 87.9799 -3.56332 2.54871 0
M  V30 933 C 89.4809 -4.33663 0.919322 0
M  V30 934 H 86.7009 -0.607118 0.285743 0
M  V30 935 H 89.2449 -1.48525 1.40572 0
M  V30 936 H 87.3999 -3.82939 0.586191 0
M  V30 937 H 87.8139 -4.49896 2.69618 0
M  V30 938 H 89.2879 -5.38099 1.231 0
M  V30 939 H 89.7649 -4.38959 -0.145359 0
M  V30 940 H 90.3709 -3.98796 1.47789 0
M  V30 941 N 88.686 -0.835752 -1.33615 0
M  V30 942 C 89.633 -0.26473 -2.29277 0
M  V30 943 C 90.603 0.617712 -1.54187 0
M  V30 944 O 91.788 0.556641 -1.825 0
M  V30 945 C 88.928 0.556777 -3.40579 0
M  V30 946 C 88.041 -0.349339 -4.30585 0
M  V30 947 C 87.176 0.482969 -5.29 0
M  V30 948 C 86.215 -0.421732 -6.10645 0
M  V30 949 N 85.352 0.372262 -7.01112 0
M  V30 950 H 90.192 -1.08582 -2.77514 0
M  V30 951 H 87.729 -0.546927 -1.36554 0
M  V30 952 H 89.687 1.04852 -4.03809 0
M  V30 953 H 88.317 1.34286 -2.93542 0
M  V30 954 H 87.369 -0.959372 -3.68104 0
M  V30 955 H 88.681 -1.04445 -4.87742 0
M  V30 956 H 87.835 1.03866 -5.97743 0
M  V30 957 H 86.574 1.21153 -4.72412 0
M  V30 958 H 85.579 -0.989464 -5.40823 0
M  V30 959 H 86.804 -1.14861 -6.69316 0
M  V30 960 H 84.75 1.08426 -6.46977 0
M  V30 961 H 84.667 -0.264198 -7.55538 0
M  V30 962 H 85.935 0.910293 -7.74167 0
M  V30 963 N 90.1641 1.46063 -0.591896 0
M  V30 964 C 91.4101 2.02638 -0.0811191 0
M  V30 965 C 91.7431 1.4613 1.27905 0
M  V30 966 O 91.0181 0.629908 1.84017 0
M  V30 967 C 91.3011 3.60091 -0.0252436 0
M  V30 968 C 91.1541 4.26965 -1.41496 0
M  V30 969 C 92.4731 4.3496 0.670685 0
M  V30 970 H 89.5921 0.73635 -0.0309524 0
M  V30 971 H 92.2341 1.741 -0.760859 0
M  V30 972 H 90.3841 3.84535 0.553624 0
M  V30 973 H 92.0561 4.13756 -2.0397 0
M  V30 974 H 90.2991 3.85971 -1.98011 0
M  V30 975 H 90.9701 5.35781 -1.32825 0
M  V30 976 H 93.4461 4.15716 0.178825 0
M  V30 977 H 92.3221 5.44686 0.678837 0
M  V30 978 H 92.5831 4.06685 1.73379 0
M  V30 979 N 91.6422 0.330177 1.54103 0
M  V30 980 C 92.9192 -0.325007 1.92881 0
M  V30 981 C 93.2992 -1.6934 1.26045 0
M  V30 982 O 92.6472 -2.24855 0.406526 0
M  V30 983 C 92.8572 -0.410634 3.46576 0
M  V30 984 C 94.2052 -0.667801 4.19316 0
M  V30 985 O 95.2292 -0.49329 3.52768 0
M  V30 986 O 94.0882 -1.00491 5.37181 0
M  V30 987 H 91.1822 -0.186873 0.80561 0
M  V30 988 H 93.7282 0.380376 1.65382 0
M  V30 989 H 92.5002 0.550164 3.87413 0
M  V30 990 H 92.1232 -1.16333 3.802 0
M  V30 991 N 93.1203 -1.57491 0.0584922 0
M  V30 992 C 94.0673 -2.11958 -0.913376 0
M  V30 993 C 95.0373 -1.02875 -1.30407 0
M  V30 994 O 96.2223 -1.30464 -1.39226 0
M  V30 995 C 93.3623 -2.67497 -2.18035 0
M  V30 996 C 92.4753 -3.90691 -1.84349 0
M  V30 997 C 91.6103 -4.3452 -3.05559 0
M  V30 998 C 90.6493 -5.50395 -2.67827 0
M  V30 999 N 89.7863 -5.89244 -3.81754 0
M  V30 1000 H 94.6263 -2.94704 -0.442017 0
M  V30 1001 H 92.1633 -1.45643 -0.206545 0
M  V30 1002 H 94.1213 -2.978 -2.92183 0
M  V30 1003 H 92.7513 -1.87537 -2.62735 0
M  V30 1004 H 91.8033 -3.66934 -1.00319 0
M  V30 1005 H 93.1153 -4.7489 -1.5258 0
M  V30 1006 H 92.2693 -4.66414 -3.87998 0
M  V30 1007 H 91.0083 -3.49147 -3.40511 0
M  V30 1008 H 90.0133 -5.18165 -1.83806 0
M  V30 1009 H 91.2383 -6.3749 -2.34059 0
M  V30 1010 H 89.1843 -5.06823 -4.16493 0
M  V30 1011 H 89.1013 -6.68151 -3.53708 0
M  V30 1012 H 90.3693 -6.25756 -4.64811 0
M  V30 1013 N 94.5984 0.214957 -1.56127 0
M  V30 1014 C 95.8754 0.963093 -1.70247 0
M  V30 1015 C 96.2554 2.02166 -0.60764 0
M  V30 1016 O 95.6034 2.25244 0.384385 0
M  V30 1017 C 95.8134 1.56756 -3.11815 0
M  V30 1018 C 97.1614 2.0573 -3.7143 0
M  V30 1019 O 98.1854 1.66637 -3.14818 0
M  V30 1020 O 97.0444 2.77603 -4.70743 0
M  V30 1021 H 94.1384 0.450321 -0.693643 0
M  V30 1022 H 96.6844 0.206219 -1.68442 0
M  V30 1023 H 95.4564 0.803533 -3.82961 0
M  V30 1024 H 95.0794 2.3898 -3.17765 0
M  V30 1025 N 96.0765 1.50051 0.48192 0
M  V30 1026 C 97.0065 1.71046 1.58951 0
M  V30 1027 C 97.9875 0.559288 1.60642 0
M  V30 1028 O 99.1725 0.797243 1.77081 0
M  V30 1029 C 96.3025 1.79462 2.97339 0
M  V30 1030 C 95.2565 2.94558 3.10515 0
M  V30 1031 C 94.5825 2.88105 4.50444 0
M  V30 1032 C 95.8825 4.35227 2.88747 0
M  V30 1033 H 97.5765 2.6378 1.41635 0
M  V30 1034 H 95.1225 1.26936 0.679942 0
M  V30 1035 H 97.0755 1.92734 3.74742 0
M  V30 1036 H 95.7995 0.833412 3.15788 0
M  V30 1037 H 94.4585 2.80918 2.35543 0
M  V30 1038 H 94.1065 1.89853 4.65795 0
M  V30 1039 H 93.8065 3.65366 4.60197 0
M  V30 1040 H 95.3305 3.03412 5.29881 0
M  V30 1041 H 96.7445 4.49449 3.55905 0
M  V30 1042 H 95.1415 5.13856 3.09955 0
M  V30 1043 H 96.2115 4.48347 1.84696 0
M  V30 1044 N 97.5546 -0.734337 1.39446 0
M  V30 1045 C 98.4866 -1.85861 1.34121 0
M  V30 1046 C 99.4996 -1.60871 0.249864 0
M  V30 1047 O 100.689 -1.71093 0.508865 0
M  V30 1048 C 97.7886 -3.21899 1.05991 0
M  V30 1049 C 96.9616 -3.74239 2.26415 0
M  V30 1050 C 96.0206 -4.88841 1.94733 0
M  V30 1051 O 95.0466 -5.02468 2.67422 0
M  V30 1052 N 96.2486 -5.73261 0.913884 0
M  V30 1053 H 99.0136 -1.90934 2.31007 0
M  V30 1054 H 96.5746 -0.915102 1.33557 0
M  V30 1055 H 98.5666 -3.96136 0.828147 0
M  V30 1056 H 97.1366 -3.12091 0.178361 0
M  V30 1057 H 96.3566 -2.91347 2.65539 0
M  V30 1058 H 97.6446 -4.05942 3.06738 0
M  V30 1059 H 97.0426 -5.64842 0.311476 0
M  V30 1060 H 95.5996 -6.47563 0.742015 0
M  V30 1061 N 99.0327 -1.24633 -0.964593 0
M  V30 1062 C 100.258 -1.11596 -1.74818 0
M  V30 1063 C 100.683 0.32723 -1.85232 0
M  V30 1064 O 100.041 1.23695 -1.32549 0
M  V30 1065 C 100.089 -1.76397 -3.1451 0
M  V30 1066 O 99.1927 -1.03685 -3.99153 0
M  V30 1067 H 98.5337 -0.390196 -0.537255 0
M  V30 1068 H 101.064 -1.65002 -1.20977 0
M  V30 1069 H 101.074 -1.8228 -3.65018 0
M  V30 1070 H 99.7487 -2.81401 -3.06246 0
M  V30 1071 H 98.3257 -1.05611 -3.57632 0
M  V30 1072 N 100.511 1.16574 -1.06058 0
M  V30 1073 C 101.441 2.23057 -0.690488 0
M  V30 1074 C 102.422 1.67141 0.315901 0
M  V30 1075 O 103.607 1.93253 0.191556 0
M  V30 1076 C 100.737 3.47222 -0.073625 0
M  V30 1077 C 99.6908 4.16016 -1.00573 0
M  V30 1078 C 99.0168 5.34104 -0.252289 0
M  V30 1079 C 100.317 4.67264 -2.33371 0
M  V30 1080 H 102.011 2.54271 -1.58072 0
M  V30 1081 H 99.5568 1.22218 -0.76149 0
M  V30 1082 H 101.51 4.20939 0.19714 0
M  V30 1083 H 100.234 3.15302 0.85161 0
M  V30 1084 H 98.8928 3.44223 -1.2612 0
M  V30 1085 H 98.5408 4.98437 0.675988 0
M  V30 1086 H 98.2408 5.81072 -0.873455 0
M  V30 1087 H 99.7648 6.10599 0.0109857 0
M  V30 1088 H 101.179 5.32573 -2.12223 0
M  V30 1089 H 99.5758 5.24843 -2.90963 0
M  V30 1090 H 100.646 3.83602 -2.96611 0
M  V30 1091 N 101.989 0.842826 1.3317 0
M  V30 1092 C 102.899 0.281444 2.32906 0
M  V30 1093 C 103.915 -0.594587 1.63526 0
M  V30 1094 O 105.091 -0.49777 1.95152 0
M  V30 1095 C 102.156 -0.530929 3.42611 0
M  V30 1096 C 101.217 0.369843 4.27704 0
M  V30 1097 C 100.45 -0.403853 5.3217 0
M  V30 1098 O 100.673 -1.63513 5.46461 0
M  V30 1099 O 99.6069 0.224199 6.01482 0
M  V30 1100 H 103.433 1.10744 2.82789 0
M  V30 1101 H 101.018 0.60545 1.36582 0
M  V30 1102 H 102.9 -0.992437 4.09547 0
M  V30 1103 H 101.575 -1.33392 2.94938 0
M  V30 1104 H 100.482 0.879275 3.6362 0
M  V30 1105 H 101.815 1.13771 4.78871 0
M  V30 1106 N 103.467 -1.45747 0.599634 0
M  V30 1107 C 104.744 -1.95585 0.0240846 0
M  V30 1108 C 105.124 -1.54217 -1.44154 0
M  V30 1109 O 104.472 -0.800903 -2.14004 0
M  V30 1110 C 104.682 -3.48344 0.21385 0
M  V30 1111 C 106.03 -4.24504 0.0904902 0
M  V30 1112 O 107.054 -3.55911 0.143558 0
M  V30 1113 O 105.913 -5.46491 -0.0310766 0
M  V30 1114 H 103.007 -0.82602 -0.0402478 0
M  V30 1115 H 105.553 -1.55951 0.669139 0
M  V30 1116 H 104.325 -3.71397 1.23206 0
M  V30 1117 H 103.948 -3.9485 -0.466842 0
M  V30 1118 N 104.945 -0.338344 -1.53925 0
M  V30 1119 C 106.194 0.260732 -2.00008 0
M  V30 1120 C 106.507 1.52073 -1.23017 0
M  V30 1121 O 107.713 2.19672 -1.5955 0
M  V30 1122 C 106.169 0.51515 -3.56194 0
M  V30 1123 C 105.777 -0.728645 -4.42035 0
M  V30 1124 C 107.521 1.07337 -4.10706 0
M  V30 1125 C 105.428 -0.445315 -5.89721 0
M  V30 1126 H 104.358 0.101205 -0.747177 0
M  V30 1127 H 107.009 -0.452866 -1.77824 0
M  V30 1128 H 105.391 1.28932 -3.74423 0
M  V30 1129 H 106.565 -1.50352 -4.35581 0
M  V30 1130 H 104.88 -1.20813 -3.98489 0
M  V30 1131 H 107.477 1.30022 -5.18651 0
M  V30 1132 H 107.82 2.0273 -3.63602 0
M  V30 1133 H 108.353 0.360034 -3.96167 0
M  V30 1134 H 105.092 -1.36883 -6.41049 0
M  V30 1135 H 104.612 0.291569 -5.99091 0
M  V30 1136 H 106.291 -0.0606218 -6.46972 0
M  V30 1137 N 106.423 1.57458 -0.0668435 0
M  V30 1138 C 107.353 2.15468 0.899764 0
M  V30 1139 C 108.334 1.08042 1.31381 0
M  V30 1140 O 109.519 1.36054 1.38574 0
M  V30 1141 C 106.649 2.71232 2.16911 0
M  V30 1142 C 105.603 3.83781 1.89463 0
M  V30 1143 C 104.929 4.26127 3.22986 0
M  V30 1144 C 106.229 5.08238 1.20381 0
M  V30 1145 H 107.923 2.96488 0.416529 0
M  V30 1146 H 105.469 1.4262 0.198908 0
M  V30 1147 H 107.422 3.10458 2.84945 0
M  V30 1148 H 106.146 1.87426 2.67468 0
M  V30 1149 H 104.805 3.45051 1.23836 0
M  V30 1150 H 104.453 3.39249 3.71374 0
M  V30 1151 H 104.153 5.01993 3.05413 0
M  V30 1152 H 105.677 4.67966 3.92225 0
M  V30 1153 H 107.091 5.44811 1.78475 0
M  V30 1154 H 105.488 5.89349 1.13083 0
M  V30 1155 H 106.558 4.84558 0.182153 0
M  V30 1156 N 107.901 -0.206675 1.56239 0
M  V30 1157 C 108.851 -1.26 1.90021 0
M  V30 1158 C 109.835 -1.41566 0.764721 0
M  V30 1159 O 111.027 -1.44131 1.02739 0
M  V30 1160 C 108.156 -2.6073 2.23326 0
M  V30 1161 C 107.242 -2.49005 3.43304 0
M  V30 1162 N 107.633 -2.06946 4.61527 0
M  V30 1163 C 105.931 -2.79927 3.47213 0
M  V30 1164 C 106.632 -2.06832 5.43687 0
M  V30 1165 N 105.608 -2.47892 4.83788 0
M  V30 1166 H 109.41 -0.925955 2.78932 0
M  V30 1167 H 106.924 -0.415172 1.57003 0
M  V30 1168 H 108.921 -3.36798 2.45708 0
M  V30 1169 H 107.581 -2.94968 1.35735 0
M  V30 1170 H 108.592 -1.77839 4.86409 0
M  V30 1171 H 105.269 -3.18438 2.70006 0
M  V30 1172 H 106.659 -1.76312 6.48354 0
M  V30 1173 N 109.379 -1.50304 -0.473955 0
M  V30 1174 C 110.311 -1.65109 -1.58971 0
M  V30 1175 C 111.324 -0.532676 -1.53839 0
M  V30 1176 O 112.513 -0.805751 -1.59279 0
M  V30 1177 C 109.613 -1.61684 -2.97845 0
M  V30 1178 C 108.786 -2.8951 -3.27876 0
M  V30 1179 C 107.845 -2.78768 -4.4629 0
M  V30 1180 O 106.871 -3.52722 -4.46739 0
M  V30 1181 N 108.073 -1.9213 -5.47783 0
M  V30 1182 H 110.838 -2.61347 -1.46689 0
M  V30 1183 H 108.399 -1.47732 -0.662324 0
M  V30 1184 H 110.391 -1.52114 -3.75024 0
M  V30 1185 H 108.961 -0.731925 -3.03911 0
M  V30 1186 H 108.181 -3.13228 -2.39336 0
M  V30 1187 H 109.469 -3.74199 -3.4475 0
M  V30 1188 H 108.867 -1.31353 -5.50239 0
M  V30 1189 H 107.424 -1.88466 -6.23958 0
M  V30 1190 N 110.857 0.726932 -1.39834 0
M  V30 1191 C 112.103 1.48884 -1.377 0
M  V30 1192 C 112.436 1.94185 0.0244852 0
M  V30 1193 O 111.711 1.67361 0.990986 0
M  V30 1194 C 111.994 2.72288 -2.3565 0
M  V30 1195 C 111.847 2.32956 -3.84775 0
M  V30 1196 C 113.166 3.74414 -2.31306 0
M  V30 1197 H 110.285 0.540062 -0.5015 0
M  V30 1198 H 112.927 0.830547 -1.70886 0
M  V30 1199 H 111.077 3.28457 -2.07481 0
M  V30 1200 H 112.749 1.82356 -4.23726 0
M  V30 1201 H 110.992 1.65088 -4.01159 0
M  V30 1202 H 111.663 3.21362 -4.4881 0
M  V30 1203 H 114.139 3.27849 -2.56231 0
M  V30 1204 H 113.015 4.58414 -3.01907 0
M  V30 1205 H 113.276 4.21909 -1.32081 0
M  V30 1206 N 112.336 1.25143 0.95797 0
M  V30 1207 C 113.246 1.06968 2.08794 0
M  V30 1208 C 114.262 0.00773911 1.73998 0
M  V30 1209 O 115.438 0.207972 2.00323 0
M  V30 1210 C 112.503 0.68691 3.39827 0
M  V30 1211 C 111.564 1.82641 3.88511 0
M  V30 1212 C 110.797 1.46181 5.1329 0
M  V30 1213 O 111.02 0.355971 5.69288 0
M  V30 1214 O 109.954 2.29085 5.566 0
M  V30 1215 H 113.78 2.01723 2.27027 0
M  V30 1216 H 111.365 1.04051 1.07209 0
M  V30 1217 H 113.247 0.485417 4.18595 0
M  V30 1218 H 111.922 -0.231417 3.22872 0
M  V30 1219 H 110.829 2.08274 3.10762 0
M  V30 1220 H 112.162 2.72386 4.09959 0
M  V30 1221 N 113.814 -1.1601 1.06675 0
M  V30 1222 C 114.762 -2.22586 0.675157 0
M  V30 1223 C 115.756 -1.66525 -0.310766 0
M  V30 1224 O 116.962 -1.79145 -0.175215 0
M  V30 1225 H 113.337 -0.724855 0.200223 0
M  V30 1226 H 115.308 -2.52899 1.58381 0
M  V30 1227 C 114.057 -3.47604 0.0817162 0
M  V30 1228 H 113.38 -3.91058 0.831484 0
M  V30 1229 H 114.82 -4.23718 -0.154708 0
M  V30 1230 C 113.279 -3.15718 -1.17576 0
M  V30 1231 O 113.809 -3.31878 -2.26318 0
M  V30 1232 N 112.015 -2.69816 -1.07923 0
M  V30 1233 H 111.562 -2.56866 -0.194293 0
M  V30 1234 H 111.52 -2.48855 -1.92141 0
M  V30 1235 N 115.292 -0.849877 -1.32721 0
M  V30 1236 C 116.239 -0.289033 -2.28983 0
M  V30 1237 C 117.209 0.601324 -1.54833 0
M  V30 1238 O 118.394 0.537253 -1.8308 0
M  V30 1239 C 115.534 0.520623 -3.4115 0
M  V30 1240 C 114.647 -0.394989 -4.3019 0
M  V30 1241 C 113.782 0.426834 -5.29482 0
M  V30 1242 C 112.821 -0.486476 -6.10164 0
M  V30 1243 N 111.958 0.297879 -7.01468 0
M  V30 1244 H 116.798 -1.11519 -2.76347 0
M  V30 1245 H 114.335 -0.56138 -1.35967 0
M  V30 1246 H 116.293 1.00563 -4.04899 0
M  V30 1247 H 114.923 1.31165 -2.9495 0
M  V30 1248 H 113.975 -0.99836 -3.67065 0
M  V30 1249 H 115.287 -1.09612 -4.86607 0
M  V30 1250 H 114.441 0.975205 -5.98811 0
M  V30 1251 H 113.18 1.16136 -4.73671 0
M  V30 1252 H 112.185 -1.04677 -5.39743 0
M  V30 1253 H 113.41 -1.21953 -6.6806 0
M  V30 1254 H 111.356 1.01558 -6.48091 0
M  V30 1255 H 111.273 -0.344318 -7.55216 0
M  V30 1256 H 112.541 0.828131 -7.75089 0
M  V30 1257 N 116.77 1.45427 -0.607355 0
M  V30 1258 C 117.998 2.06614 -0.108814 0
M  V30 1259 C 118.413 1.45204 1.2067 0
M  V30 1260 O 117.77 0.566132 1.73497 0
M  V30 1261 C 117.821 3.61481 0.0375347 0
M  V30 1262 O 117.542 4.20598 -1.22593 0
M  V30 1263 C 119.043 4.39652 0.567561 0
M  V30 1264 H 116.263 0.66747 -0.0687351 0
M  V30 1265 H 118.807 1.86675 -0.835022 0
M  V30 1266 H 116.962 3.80762 0.714068 0
M  V30 1267 H 117.376 5.1377 -1.05547 0
M  V30 1268 H 118.85 5.48518 0.61905 0
M  V30 1269 H 119.327 4.09417 1.58978 0
M  V30 1270 H 119.933 4.25234 -0.0749202 0
M  V30 1271 N 118.248 0.346503 1.53744 0
M  V30 1272 C 119.473 -0.253074 2.0585 0
M  V30 1273 C 119.898 -1.43202 1.21962 0
M  V30 1274 O 119.256 -1.79783 0.234073 0
M  V30 1275 C 119.304 -0.643193 3.54817 0
M  V30 1276 O 118.408 -1.74286 3.73762 0
M  V30 1277 H 117.749 -0.0413583 0.662711 0
M  V30 1278 H 120.279 0.501574 1.98357 0
M  V30 1279 H 120.289 -0.919526 3.97503 0
M  V30 1280 H 118.964 0.218966 4.15323 0
M  V30 1281 H 117.541 -1.46356 3.42979 0
M  V30 1282 N 119.726 -1.57421 0.075193 0
M  V30 1283 C 120.636 -2.1642 -0.905511 0
M  V30 1284 C 121.652 -1.12828 -1.32461 0
M  V30 1285 O 122.828 -1.45109 -1.39661 0
M  V30 1286 C 119.893 -2.71693 -2.15369 0
M  V30 1287 C 118.954 -3.90171 -1.79068 0
M  V30 1288 C 118.187 -4.42798 -2.97936 0
M  V30 1289 O 118.41 -3.94416 -4.12058 0
M  V30 1290 O 117.344 -5.34085 -2.77555 0
M  V30 1291 H 121.17 -3.00588 -0.433626 0
M  V30 1292 H 118.755 -1.48664 -0.148067 0
M  V30 1293 H 120.637 -3.07104 -2.88557 0
M  V30 1294 H 119.312 -1.90582 -2.61649 0
M  V30 1295 H 118.219 -3.59606 -1.03122 0
M  V30 1296 H 119.552 -4.72584 -1.37569 0
M  V30 1297 N 121.204 0.198386 -1.56346 0
M  V30 1298 C 122.45 0.920648 -1.80698 0
M  V30 1299 C 122.783 1.83045 -0.648697 0
M  V30 1300 O 122.058 1.91308 0.350925 0
M  V30 1301 C 122.341 1.73971 -3.15287 0
M  V30 1302 C 122.194 0.85485 -4.41602 0
M  V30 1303 C 123.513 2.71296 -3.46535 0
M  V30 1304 H 120.632 0.333261 -0.657348 0
M  V30 1305 H 123.274 0.188198 -1.89066 0
M  V30 1306 H 121.424 2.36416 -3.08285 0
M  V30 1307 H 123.096 0.245362 -4.60647 0
M  V30 1308 H 121.339 0.161398 -4.335 0
M  V30 1309 H 122.01 1.46286 -5.32264 0
M  V30 1310 H 124.486 2.18983 -3.53816 0
M  V30 1311 H 123.362 3.2569 -4.41834 0
M  V30 1312 H 123.623 3.5018 -2.69864 0
M  V30 1313 N 122.682 1.50554 0.465978 0
M  V30 1314 C 123.629 1.6979 1.56333 0
M  V30 1315 C 124.599 0.539239 1.57103 0
M  V30 1316 O 125.784 0.770401 1.74555 0
M  V30 1317 C 122.924 1.80273 2.94271 0
M  V30 1318 C 122.037 3.07674 3.0325 0
M  V30 1319 C 121.172 3.08922 4.32135 0
M  V30 1320 C 120.211 4.30755 4.34875 0
M  V30 1321 N 119.348 4.29714 5.55239 0
M  V30 1322 H 124.188 2.63472 1.39235 0
M  V30 1323 H 121.725 1.30602 0.676873 0
M  V30 1324 H 123.683 1.84332 3.74269 0
M  V30 1325 H 122.313 0.900258 3.09992 0
M  V30 1326 H 121.365 3.13062 2.16094 0
M  V30 1327 H 122.677 3.97642 3.01135 0
M  V30 1328 H 121.831 3.11738 5.20485 0
M  V30 1329 H 120.57 2.16792 4.36866 0
M  V30 1330 H 119.575 4.28146 3.44922 0
M  V30 1331 H 120.8 5.24117 4.31831 0
M  V30 1332 H 118.746 3.4044 5.60746 0
M  V30 1333 H 118.663 5.13456 5.54886 0
M  V30 1334 H 119.931 4.36683 6.457 0
M  V30 1335 N 124.16 -0.719506 1.40217 0
M  V30 1336 C 125.092 -1.84428 1.36084 0
M  V30 1337 C 126.105 -1.60597 0.266913 0
M  V30 1338 O 127.294 -1.70544 0.526983 0
M  V30 1339 C 124.394 -3.20757 1.094 0
M  V30 1340 C 123.567 -3.71817 2.30372 0
M  V30 1341 C 122.626 -4.86748 1.99907 0
M  V30 1342 O 121.652 -4.99603 2.72737 0
M  V30 1343 N 122.854 -5.7226 0.974635 0
M  V30 1344 H 125.619 -1.88473 2.33019 0
M  V30 1345 H 123.18 -0.900885 1.3452 0
M  V30 1346 H 125.172 -3.95235 0.870116 0
M  V30 1347 H 123.742 -3.11884 0.211452 0
M  V30 1348 H 122.962 -2.88514 2.68614 0
M  V30 1349 H 124.25 -4.02666 3.11026 0
M  V30 1350 H 123.648 -5.6448 0.371368 0
M  V30 1351 H 122.205 -6.46739 0.810656 0
M  V30 1352 N 125.638 -1.25649 -0.95132 0
M  V30 1353 C 126.568 -1.08808 -2.06599 0
M  V30 1354 C 127.549 0.00382547 -1.701 0
M  V30 1355 O 128.734 -0.166325 -1.93486 0
M  V30 1356 C 125.864 -0.709542 -3.39975 0
M  V30 1357 C 124.818 -1.75206 -3.90496 0
M  V30 1358 C 124.144 -1.22811 -5.20405 0
M  V30 1359 C 125.444 -3.15153 -4.16504 0
M  V30 1360 H 127.138 -2.02048 -2.20946 0
M  V30 1361 H 124.684 -0.972835 -1.06169 0
M  V30 1362 H 126.637 -0.578649 -4.17408 0
M  V30 1363 H 125.361 0.258556 -3.25575 0
M  V30 1364 H 124.02 -1.87145 -3.15234 0
M  V30 1365 H 123.668 -0.250145 -5.02378 0
M  V30 1366 H 123.368 -1.92492 -5.55176 0
M  V30 1367 H 124.892 -1.10968 -6.00432 0
M  V30 1368 H 126.306 -3.06349 -4.84586 0
M  V30 1369 H 124.703 -3.82333 -4.62538 0
M  V30 1370 H 125.773 -3.61966 -3.22658 0
M  V30 1371 N 127.117 1.15442 -1.07289 0
M  V30 1372 C 128.366 1.85557 -0.790669 0
M  V30 1373 C 128.679 1.83186 0.685739 0
M  V30 1374 O 129.885 2.48977 1.0827 0
M  V30 1375 C 128.341 3.33038 -1.36433 0
M  V30 1376 C 127.949 3.43856 -2.8717 0
M  V30 1377 C 129.693 4.0834 -1.1601 0
M  V30 1378 C 127.6 4.85482 -3.3773 0
M  V30 1379 H 126.53 0.695122 -0.292098 0
M  V30 1380 H 129.181 1.30219 -1.29287 0
M  V30 1381 H 127.563 3.88043 -0.789864 0
M  V30 1382 H 128.737 2.98961 -3.50655 0
M  V30 1383 H 127.052 2.81998 -3.06376 0
M  V30 1384 H 129.649 5.12859 -1.51262 0
M  V30 1385 H 129.992 4.16182 -0.0991007 0
M  V30 1386 H 130.525 3.59603 -1.70089 0
M  V30 1387 H 127.264 4.82823 -4.43353 0
M  V30 1388 H 126.784 5.30961 -2.78999 0
M  V30 1389 H 128.463 5.54335 -3.33648 0
M  V30 1390 N 128.595 0.856903 1.32268 0
M  V30 1391 C 129.542 0.301172 2.28827 0
M  V30 1392 C 130.512 -0.593104 1.5515 0
M  V30 1393 O 131.697 -0.527537 1.83362 0
M  V30 1394 C 128.837 -0.502523 3.41422 0
M  V30 1395 C 127.95 0.417797 4.29975 0
M  V30 1396 C 127.085 -0.398749 5.29701 0
M  V30 1397 C 126.124 0.518827 6.09897 0
M  V30 1398 N 125.261 -0.260674 7.01616 0
M  V30 1399 H 130.101 1.12983 2.75751 0
M  V30 1400 H 127.638 0.568582 1.35667 0
M  V30 1401 H 129.596 -0.984141 4.05426 0
M  V30 1402 H 128.226 -1.29599 2.95642 0
M  V30 1403 H 127.278 1.01781 3.66531 0
M  V30 1404 H 128.59 1.12191 4.86019 0
M  V30 1405 H 127.744 -0.943435 5.9932 0
M  V30 1406 H 126.483 -1.13622 4.7428 0
M  V30 1407 H 125.488 1.07538 5.39181 0
M  V30 1408 H 126.713 1.25495 6.67404 0
M  V30 1409 H 124.659 -0.981198 6.4862 0
M  V30 1410 H 124.576 0.384364 7.55022 0
M  V30 1411 H 125.844 -0.787014 7.75517 0
M  V30 1412 N 130.073 -1.45103 0.615059 0
M  V30 1413 C 131.036 -2.29025 -0.0895485 0
M  V30 1414 C 132.036 -1.40174 -0.787906 0
M  V30 1415 O 133.226 -1.62217 -0.634933 0
M  V30 1416 C 130.358 -3.21376 -1.13711 0
M  V30 1417 H 131.551 -2.92807 0.648382 0
M  V30 1418 H 129.104 -1.51749 0.374444 0
M  V30 1419 H 129.839 -2.6241 -1.90556 0
M  V30 1420 H 129.624 -3.86834 -0.640475 0
M  V30 1421 H 131.114 -3.84459 -1.63036 0
M  V30 1422 N 131.551 -0.354651 -1.53558 0
M  V30 1423 C 132.8 0.239504 -2.00273 0
M  V30 1424 C 133.113 1.50759 -1.24623 0
M  V30 1425 O 134.319 2.17968 -1.61871 0
M  V30 1426 C 132.775 0.477341 -3.5672 0
M  V30 1427 C 132.383 -0.775488 -4.41237 0
M  V30 1428 C 134.127 1.02975 -4.11821 0
M  V30 1429 C 132.034 -0.507838 -5.89216 0
M  V30 1430 H 130.964 0.0932743 -0.748208 0
M  V30 1431 H 133.615 -0.471701 -1.77334 0
M  V30 1432 H 131.997 1.24953 -3.7577 0
M  V30 1433 H 133.171 -1.54963 -4.33962 0
M  V30 1434 H 131.486 -1.25033 -3.97185 0
M  V30 1435 H 134.083 1.24513 -5.2 0
M  V30 1436 H 134.426 1.98862 -3.65731 0
M  V30 1437 H 134.959 0.317994 -3.96527 0
M  V30 1438 H 131.698 -1.43674 -6.39561 0
M  V30 1439 H 131.218 0.228011 -5.99366 0
M  V30 1440 H 132.897 -0.129238 -6.46871 0
M  V30 1441 N 133.029 1.57378 -0.0835403 0
M  V30 1442 C 133.961 2.10389 0.909338 0
M  V30 1443 C 134.974 1.03858 1.25369 0
M  V30 1444 O 136.163 1.31338 1.20882 0
M  V30 1445 C 133.263 2.55908 2.2218 0
M  V30 1446 C 132.436 3.86145 2.05453 0
M  V30 1447 C 131.495 4.17633 3.20108 0
M  V30 1448 O 130.521 4.87043 2.94581 0
M  V30 1449 N 131.723 3.72113 4.45547 0
M  V30 1450 H 134.488 2.962 0.456657 0
M  V30 1451 H 132.049 1.61579 0.101877 0
M  V30 1452 H 134.041 2.74027 2.97811 0
M  V30 1453 H 132.611 1.75171 2.58909 0
M  V30 1454 H 131.831 3.7729 1.1422 0
M  V30 1455 H 133.119 4.7137 1.91541 0
M  V30 1456 H 132.517 3.16062 4.69171 0
M  V30 1457 H 131.074 3.95409 5.18165 0
M  V30 1458 N 134.507 -0.190092 1.56449 0
M  V30 1459 C 135.437 -1.23816 1.97969 0
M  V30 1460 C 136.418 -1.47201 0.852395 0
M  V30 1461 O 137.603 -1.58854 1.1171 0
M  V30 1462 C 134.733 -2.5813 2.3235 0
M  V30 1463 C 133.687 -2.49348 3.47864 0
M  V30 1464 C 133.013 -3.8798 3.67934 0
M  V30 1465 C 134.313 -2.01424 4.81898 0
M  V30 1466 H 136.007 -0.89311 2.85769 0
M  V30 1467 H 133.553 -0.428177 1.37487 0
M  V30 1468 H 135.506 -3.31637 2.59991 0
M  V30 1469 H 134.23 -2.94386 1.41438 0
M  V30 1470 H 132.889 -1.78297 3.20321 0
M  V30 1471 H 132.537 -4.21597 2.74344 0
M  V30 1472 H 132.237 -3.82978 4.45648 0
M  V30 1473 H 133.761 -4.63101 3.97957 0
M  V30 1474 H 135.175 -2.64693 5.08538 0
M  V30 1475 H 133.572 -2.07413 5.63116 0
M  V30 1476 H 134.642 -0.967677 4.75146 0
M  V30 1477 N 135.985 -1.50799 -0.457987 0
M  V30 1478 C 137.213 -1.66218 -1.23203 0
M  V30 1479 C 137.628 -0.350894 -1.85511 0
M  V30 1480 O 136.985 0.668546 -1.69814 0
M  V30 1481 C 137.036 -2.76291 -2.33121 0
M  V30 1482 O 136.757 -4.02338 -1.73366 0
M  V30 1483 C 138.258 -3.028 -3.2377 0
M  V30 1484 H 135.478 -0.558361 -0.372121 0
M  V30 1485 H 138.022 -1.97099 -0.545179 0
M  V30 1486 H 136.177 -2.48068 -2.97558 0
M  V30 1487 H 136.591 -4.63312 -2.4585 0
M  V30 1488 H 138.065 -3.8345 -3.97077 0
M  V30 1489 H 138.542 -2.14385 -3.83322 0
M  V30 1490 H 139.148 -3.32604 -2.65056 0
M  V30 1491 N 137.463 0.71206 -1.40597 0
M  V30 1492 C 138.693 1.49894 -1.42181 0
M  V30 1493 C 139.101 1.89189 -0.0208078 0
M  V30 1494 O 138.444 1.56223 0.966436 0
M  V30 1495 C 138.506 2.80215 -2.25211 0
M  V30 1496 C 138.17 2.63221 -3.73582 0
M  V30 1497 C 139.167 2.30249 -4.66135 0
M  V30 1498 C 136.852 2.79376 -4.17438 0
M  V30 1499 C 138.846 2.13645 -6.00529 0
M  V30 1500 C 136.533 2.6239 -5.51901 0
M  V30 1501 C 137.531 2.29573 -6.43262 0
M  V30 1502 O 137.219 2.12719 -7.75246 0
M  V30 1503 H 136.951 0.469031 -0.486812 0
M  V30 1504 H 139.505 0.88564 -1.85326 0
M  V30 1505 H 137.735 3.4389 -1.76852 0
M  V30 1506 H 139.424 3.41947 -2.18694 0
M  V30 1507 H 140.19 2.17398 -4.33547 0
M  V30 1508 H 136.069 3.03906 -3.46644 0
M  V30 1509 H 139.613 1.87953 -6.71803 0
M  V30 1510 H 135.51 2.74826 -5.84073 0
M  V30 1511 H 136.278 2.27611 -7.86216 0
M  V30 1512 N 138.941 1.26152 0.944643 0
M  V30 1513 C 139.889 1.07215 2.06417 0
M  V30 1514 C 140.883 9.2007e-05 1.694 0
M  V30 1515 O 142.089 0.1565 1.79318 0
M  V30 1516 H 138.464 0.329837 0.675805 0
M  V30 1517 H 140.435 2.02099 2.19541 0
M  V30 1518 C 139.184 0.718197 3.40202 0
M  V30 1519 H 138.507 1.53497 3.69159 0
M  V30 1520 H 139.947 0.625459 4.19361 0
M  V30 1521 C 138.406 -0.576435 3.31932 0
M  V30 1522 O 138.936 -1.61574 3.67773 0
M  V30 1523 N 137.142 -0.565781 2.85039 0
M  V30 1524 H 136.689 0.280367 2.5607 0
M  V30 1525 H 136.647 -1.43213 2.79888 0
M  V30 1526 N 140.419 -1.14872 1.07899 0
M  V30 1527 C 141.83 -1.67367 0.827363 0
M  V30 1528 C 142.181 -1.85236 -0.646693 0
M  V30 1529 O 141.306 -1.55974 -1.50004 0
M  V30 1530 C 141.901 -3.04016 1.49532 0
M  V30 1531 C 140.46 -3.53566 1.29106 0
M  V30 1532 C 139.607 -2.29161 1.56143 0
M  V30 1533 H 142.558 -0.990083 1.24028 0
M  V30 1534 H 142.579 -3.69219 0.919643 0
M  V30 1535 H 142.091 -2.90978 2.56814 0
M  V30 1536 H 140.192 -3.71835 0.238713 0
M  V30 1537 H 140.305 -4.34661 2.01511 0
M  V30 1538 H 138.669 -2.34978 0.982717 0
M  V30 1539 H 139.452 -2.18705 2.64619 0
M  V30 1540 N 141.898 -0.863906 -1.31812 0
M  V30 1541 C 143.175 -0.39275 -1.91616 0
M  V30 1542 C 143.555 1.12461 -1.7865 0
M  V30 1543 O 142.903 1.95045 -1.19037 0
M  V30 1544 C 143.113 -0.867385 -3.38049 0
M  V30 1545 C 144.461 -0.889966 -4.15168 0
M  V30 1546 O 145.485 -0.812635 -3.46806 0
M  V30 1547 O 144.344 -1.00079 -5.37258 0
M  V30 1548 H 141.438 -0.116358 -0.818773 0
M  V30 1549 H 143.984 -0.951418 -1.40521 0
M  V30 1550 H 142.756 -1.91081 -3.41473 0
M  V30 1551 H 142.379 -0.286687 -3.96565 0
M  V30 1552 N 143.376 1.44774 -0.622745 0
M  V30 1553 C 144.286 2.34433 0.0886031 0
M  V30 1554 C 145.302 1.52131 0.844529 0
M  V30 1555 O 146.478 1.84886 0.798691 0
M  V30 1556 C 143.543 3.29986 1.0635 0
M  V30 1557 C 142.604 4.28195 0.307873 0
M  V30 1558 C 141.837 5.19183 1.23633 0
M  V30 1559 O 142.06 5.13918 2.47476 0
M  V30 1560 O 140.994 5.97515 0.725189 0
M  V30 1561 H 144.82 2.96693 -0.648599 0
M  V30 1562 H 142.405 1.44408 -0.382957 0
M  V30 1563 H 144.287 3.88825 1.6246 0
M  V30 1564 H 142.962 2.70269 1.78146 0
M  V30 1565 H 141.869 3.72927 -0.296064 0
M  V30 1566 H 143.202 4.90808 -0.3699 0
M  V30 1567 N 144.854 0.36279 1.53368 0
M  V30 1568 C 146.079 -0.231226 2.06107 0
M  V30 1569 C 146.504 -1.419 1.23474 0
M  V30 1570 O 145.862 -1.79524 0.253128 0
M  V30 1571 C 145.91 -0.605523 3.5548 0
M  V30 1572 O 145.014 -1.70312 3.7559 0
M  V30 1573 H 144.355 -0.034327 0.663112 0
M  V30 1574 H 146.885 0.522584 1.97814 0
M  V30 1575 H 146.895 -0.877314 3.98456 0
M  V30 1576 H 145.57 0.263004 4.15068 0
M  V30 1577 H 144.147 -1.4271 3.44512 0
M  V30 1578 N 146.332 -1.57332 0.0918853 0
M  V30 1579 C 147.557 -1.98995 -0.584442 0
M  V30 1580 C 147.982 -0.970528 -1.61128 0
M  V30 1581 O 147.34 0.0613904 -1.81196 0
M  V30 1582 C 147.388 -3.39636 -1.21161 0
M  V30 1583 O 146.492 -3.40447 -2.32744 0
M  V30 1584 H 145.833 -0.647165 -0.148572 0
M  V30 1585 H 148.363 -2.03873 0.172347 0
M  V30 1586 H 148.373 -3.7726 -1.55367 0
M  V30 1587 H 147.048 -4.13356 -0.459313 0
M  V30 1588 H 145.625 -3.14614 -2.0018 0
M  V30 1589 N 147.81 0.181792 -1.56548 0
M  V30 1590 C 148.757 1.22521 -1.95595 0
M  V30 1591 C 149.727 1.4454 -0.818373 0
M  V30 1592 O 150.912 1.57454 -1.07763 0
M  V30 1593 C 148.052 2.56193 -2.31212 0
M  V30 1594 C 147.165 2.41641 -3.58097 0
M  V30 1595 C 146.3 3.68108 -3.82975 0
M  V30 1596 C 145.339 3.48445 -5.03242 0
M  V30 1597 N 144.476 4.66956 -5.24306 0
M  V30 1598 H 149.316 0.885226 -2.84548 0
M  V30 1599 H 146.853 0.425718 -1.40805 0
M  V30 1600 H 148.811 3.34088 -2.49882 0
M  V30 1601 H 147.441 2.88208 -1.45382 0
M  V30 1602 H 146.493 1.54976 -3.474 0
M  V30 1603 H 147.805 2.23052 -4.46149 0
M  V30 1604 H 146.959 4.54441 -4.01956 0
M  V30 1605 H 145.698 3.89666 -2.93278 0
M  V30 1606 H 144.703 2.60499 -4.8417 0
M  V30 1607 H 145.928 3.2832 -5.9446 0
M  V30 1608 H 143.874 4.88752 -4.37559 0
M  V30 1609 H 143.791 4.51242 -6.06561 0
M  V30 1610 H 145.059 5.54602 -5.47756 0
M  V30 1611 N 149.288 1.51039 0.449983 0
M  V30 1612 C 150.699 1.557 1.03026 0
M  V30 1613 C 151.05 0.372939 1.92623 0
M  V30 1614 O 150.175 -0.511771 2.10261 0
M  V30 1615 C 150.77 2.82171 1.87523 0
M  V30 1616 C 149.329 2.89444 2.40622 0
M  V30 1617 C 148.476 2.50228 1.19504 0
M  V30 1618 H 151.427 1.56999 0.231745 0
M  V30 1619 H 151.448 2.65219 2.72835 0
M  V30 1620 H 150.96 3.68331 1.22286 0
M  V30 1621 H 149.061 2.07685 3.0935 0
M  V30 1622 H 149.174 3.92816 2.74285 0
M  V30 1623 H 147.538 2.03139 1.53644 0
M  V30 1624 H 148.321 3.38719 0.558972 0
M  V30 1625 N 150.766 -0.704594 1.40972 0
M  V30 1626 C 151.714 -1.83994 1.42299 0
M  V30 1627 C 152.708 -1.66684 0.302111 0
M  V30 1628 O 153.914 -1.73655 0.473697 0
M  V30 1629 H 150.289 -0.606171 0.44504 0
M  V30 1630 H 152.26 -1.79992 2.38003 0
M  V30 1631 C 151.009 -3.21946 1.31323 0
M  V30 1632 H 150.332 -3.35878 2.16855 0
M  V30 1633 H 151.772 -4.01491 1.36311 0
M  V30 1634 C 150.231 -3.36891 0.0245977 0
M  V30 1635 O 150.761 -3.90687 -0.934153 0
M  V30 1636 N 148.967 -2.90559 -0.0485243 0
M  V30 1637 H 148.514 -2.46968 0.732419 0
M  V30 1638 H 148.472 -3.00937 -0.910171 0
M  V30 1639 N 152.244 -1.26651 -0.937939 0
M  V30 1640 C 153.177 -1.02811 -2.03728 0
M  V30 1641 C 154.155 0.0481915 -1.62529 0
M  V30 1642 O 155.339 -0.0948839 -1.88261 0
M  V30 1643 C 152.466 -0.557517 -3.3408 0
M  V30 1644 C 151.512 -1.62686 -3.94253 0
M  V30 1645 S 152.345 -3.21667 -4.28125 0
M  V30 1646 C 153.501 -2.76384 -5.61572 0
M  V30 1647 H 153.734 -1.95891 -2.23638 0
M  V30 1648 H 151.267 -1.10367 -1.07974 0
M  V30 1649 H 153.225 -0.292674 -4.09455 0
M  V30 1650 H 151.886 0.353062 -3.12109 0
M  V30 1651 H 151.079 -1.24866 -4.88287 0
M  V30 1652 H 150.681 -1.84324 -3.25424 0
M  V30 1653 H 152.973 -2.2105 -6.40424 0
M  V30 1654 H 153.916 -3.69123 -6.0428 0
M  V30 1655 H 154.324 -2.15847 -5.21604 0
M  V30 1656 N 153.722 1.14298 -1.08507 0
M  V30 1657 C 154.971 1.84708 -0.810305 0
M  V30 1658 C 155.284 1.83903 0.666271 0
M  V30 1659 O 156.49 2.50112 1.05624 0
M  V30 1660 C 154.946 3.31572 -1.39957 0
M  V30 1661 C 154.554 3.40791 -2.90801 0
M  V30 1662 C 156.298 4.07087 -1.20334 0
M  V30 1663 C 154.205 4.81872 -3.4286 0
M  V30 1664 H 153.135 0.691985 -0.299454 0
M  V30 1665 H 155.786 1.28841 -1.30661 0
M  V30 1666 H 154.168 3.87183 -0.830976 0
M  V30 1667 H 155.342 2.95225 -3.53806 0
M  V30 1668 H 153.657 2.78732 -3.0935 0
M  V30 1669 H 156.254 5.11225 -1.56693 0
M  V30 1670 H 156.597 4.16054 -0.143237 0
M  V30 1671 H 157.13 3.57779 -1.73893 0
M  V30 1672 H 153.869 4.78094 -4.48449 0
M  V30 1673 H 153.389 5.27972 -2.84615 0
M  V30 1674 H 155.068 5.50765 -3.39509 0
M  V30 1675 N 155.201 0.870884 1.31352 0
M  V30 1676 C 156.478 0.402907 1.91405 0
M  V30 1677 C 156.858 -1.11512 1.79244 0
M  V30 1678 O 156.206 -1.94411 1.2007 0
M  V30 1679 C 156.416 0.885301 3.37585 0
M  V30 1680 C 157.764 0.911971 4.14691 0
M  V30 1681 O 158.788 0.831016 3.46371 0
M  V30 1682 O 157.647 1.02927 5.3672 0
M  V30 1683 H 154.741 0.120698 0.818145 0
M  V30 1684 H 157.287 0.958857 1.40014 0
M  V30 1685 H 156.059 1.92889 3.40455 0
M  V30 1686 H 155.682 0.307714 3.96407 0
M  V30 1687 N 156.679 -1.44442 0.630414 0
M  V30 1688 C 157.642 -2.29107 -0.0652523 0
M  V30 1689 C 158.642 -1.41002 -0.772995 0
M  V30 1690 O 159.832 -1.62881 -0.617692 0
M  V30 1691 C 156.964 -3.22564 -1.10296 0
M  V30 1692 H 158.157 -2.92103 0.679401 0
M  V30 1693 H 155.71 -1.51343 0.390517 0
M  V30 1694 H 156.445 -2.64416 -1.87762 0
M  V30 1695 H 156.23 -3.87491 -0.59941 0
M  V30 1696 H 157.72 -3.86167 -1.5895 0
M  V30 1697 N 158.157 -0.370918 -1.53173 0
M  V30 1698 C 159.12 0.460778 -2.24521 0
M  V30 1699 C 160.12 1.00536 -1.25496 0
M  V30 1700 O 161.31 0.890266 -1.49733 0
M  V30 1701 C 158.442 1.64457 -2.98608 0
M  V30 1702 H 159.635 -0.163613 -2.99453 0
M  V30 1703 H 157.188 -0.122699 -1.55818 0
M  V30 1704 H 157.923 2.30691 -2.2793 0
M  V30 1705 H 157.708 1.26099 -3.7127 0
M  V30 1706 H 159.198 2.23384 -3.5283 0
M  V30 1707 N 159.635 1.57281 -0.100228 0
M  V30 1708 C 160.863 1.98879 0.570509 0
M  V30 1709 C 161.278 0.979476 1.61405 0
M  V30 1710 O 160.635 -0.0302288 1.82475 0
M  V30 1711 C 160.686 3.4052 1.2136 0
M  V30 1712 O 160.407 4.37588 0.211786 0
M  V30 1713 C 161.908 3.97149 1.96945 0
M  V30 1714 H 159.128 0.653428 0.152555 0
M  V30 1715 H 161.672 2.03697 -0.18103 0
M  V30 1716 H 159.827 3.367 1.91603 0
M  V30 1717 H 160.241 5.20118 0.676607 0
M  V30 1718 H 161.715 4.98393 2.37294 0
M  V30 1719 H 162.192 3.3525 2.83733 0
M  V30 1720 H 162.798 4.04458 1.31506 0
M  V30 1721 N 161.113 -0.173488 1.56642 0
M  V30 1722 C 162.043 -1.2171 1.99271 0
M  V30 1723 C 163.024 -1.46289 0.867959 0
M  V30 1724 O 164.209 -1.5766 1.13388 0
M  V30 1725 C 161.339 -2.55651 2.35074 0
M  V30 1726 C 160.293 -2.45645 3.50489 0
M  V30 1727 C 159.619 -3.84056 3.72028 0
M  V30 1728 C 160.919 -1.96302 4.84007 0
M  V30 1729 H 162.613 -0.86275 2.867 0
M  V30 1730 H 160.159 -0.413571 1.37933 0
M  V30 1731 H 162.112 -3.2886 2.63494 0
M  V30 1732 H 160.836 -2.92869 1.44552 0
M  V30 1733 H 159.495 -1.7489 3.22194 0
M  V30 1734 H 159.143 -4.18664 2.788 0
M  V30 1735 H 158.843 -3.7823 4.49684 0
M  V30 1736 H 160.367 -4.58854 4.02846 0
M  V30 1737 H 161.781 -2.59284 5.11317 0
M  V30 1738 H 160.178 -2.01429 5.65284 0
M  V30 1739 H 161.248 -0.917226 4.76146 0
M  V30 1740 N 162.591 -1.51276 -0.441967 0
M  V30 1741 C 163.538 -1.72256 -1.53612 0
M  V30 1742 C 164.508 -0.564164 -1.56225 0
M  V30 1743 O 165.693 -0.798074 -1.73307 0
M  V30 1744 C 162.833 -1.84932 -2.91366 0
M  V30 1745 C 161.946 -3.12459 -2.98317 0
M  V30 1746 C 161.081 -3.15758 -4.27166 0
M  V30 1747 C 160.12 -4.37619 -4.27967 0
M  V30 1748 N 159.257 -4.38493 -5.48333 0
M  V30 1749 H 164.097 -2.65654 -1.35026 0
M  V30 1750 H 161.634 -1.31662 -0.656009 0
M  V30 1751 H 163.592 -1.90263 -3.7129 0
M  V30 1752 H 162.222 -0.949461 -3.08521 0
M  V30 1753 H 161.274 -3.1646 -2.11086 0
M  V30 1754 H 162.586 -4.02382 -2.94771 0
M  V30 1755 H 161.74 -3.19979 -5.15459 0
M  V30 1756 H 160.479 -2.23715 -4.33362 0
M  V30 1757 H 159.484 -4.33579 -3.38067 0
M  V30 1758 H 160.709 -5.30921 -4.23438 0
M  V30 1759 H 158.655 -3.49318 -5.55259 0
M  V30 1760 H 158.572 -5.22219 -5.46647 0
M  V30 1761 H 159.84 -4.469 -6.38671 0
M  V30 1762 N 164.069 0.697108 -1.41344 0
M  V30 1763 C 165.294 1.49096 -1.44171 0
M  V30 1764 C 165.719 1.88038 -0.0481568 0
M  V30 1765 O 165.077 1.54525 0.948243 0
M  V30 1766 C 165.125 2.73088 -2.3549 0
M  V30 1767 O 164.229 3.70514 -1.81088 0
M  V30 1768 H 163.57 0.448801 -0.489361 0
M  V30 1769 H 166.1 0.856992 -1.85787 0
M  V30 1770 H 166.11 3.21413 -2.51312 0
M  V30 1771 H 164.785 2.44081 -3.36745 0
M  V30 1772 H 163.362 3.29441 -1.74708 0
M  V30 1773 N 165.547 1.27147 0.931209 0
M  V30 1774 C 166.963 1.04475 1.20653 0
M  V30 1775 C 167.163 -0.223885 2.00252 0
M  V30 1776 O 166.219 -0.930332 2.34736 0
M  V30 1777 C 167.532 2.28209 1.95809 0
M  V30 1778 C 169.08 2.33211 2.08762 0
M  V30 1779 C 169.555 3.56665 2.87323 0
M  V30 1780 N 171.046 3.57201 2.94892 0
M  V30 1781 C 171.781 4.49395 3.56134 0
M  V30 1782 N 171.277 5.51889 4.18796 0
M  V30 1783 N 173.07 4.37026 3.53504 0
M  V30 1784 H 165.221 2.08612 0.399333 0
M  V30 1785 H 167.484 0.917312 0.239253 0
M  V30 1786 H 167.19 3.20538 1.44736 0
M  V30 1787 H 167.064 2.33247 2.96438 0
M  V30 1788 H 169.451 1.41391 2.59023 0
M  V30 1789 H 169.532 2.32178 1.07364 0
M  V30 1790 H 169.176 4.4882 2.37746 0
M  V30 1791 H 169.106 3.54948 3.88998 0
M  V30 1792 H 171.597 2.83074 2.50354 0
M  V30 1793 H 171.91 6.18409 4.63454 0
M  V30 1794 H 170.255 5.55735 4.17353 0
M  V30 1795 H 173.446 3.56166 3.03749 0
M  V30 1796 H 173.619 5.09067 4.00942 0
M  V30 1797 N 167.025 -1.13721 1.09112 0
M  V30 1798 C 167.972 -2.19031 0.727591 0
M  V30 1799 C 168.942 -1.63555 -0.289656 0
M  V30 1800 O 170.127 -1.90023 -0.172026 0
M  V30 1801 C 167.267 -3.4477 0.15082 0
M  V30 1802 C 166.38 -4.14365 1.22172 0
M  V30 1803 C 165.515 -5.27709 0.608042 0
M  V30 1804 C 164.554 -5.89147 1.66047 0
M  V30 1805 N 163.691 -6.93929 1.06806 0
M  V30 1806 H 168.531 -2.49475 1.62991 0
M  V30 1807 H 166.068 -1.22499 0.81439 0
M  V30 1808 H 168.026 -4.16714 -0.201358 0
M  V30 1809 H 166.656 -3.14787 -0.714783 0
M  V30 1810 H 165.708 -3.40737 1.69122 0
M  V30 1811 H 167.02 -4.56114 2.01895 0
M  V30 1812 H 166.174 -6.06355 0.204523 0
M  V30 1813 H 164.913 -4.872 -0.220769 0
M  V30 1814 H 163.918 -5.09198 2.07357 0
M  V30 1815 H 165.143 -6.31729 2.49189 0
M  V30 1816 H 163.089 -6.55483 0.260476 0
M  V30 1817 H 163.006 -7.34202 1.8023 0
M  V30 1818 H 164.274 -7.76434 0.690644 0
M  V30 1819 N 168.503 -0.877838 -1.30888 0
M  V30 1820 C 169.436 -0.283995 -2.26426 0
M  V30 1821 C 170.414 0.591361 -1.51465 0
M  V30 1822 O 171.598 0.54304 -1.80509 0
M  V30 1823 C 168.725 0.597129 -3.33395 0
M  V30 1824 C 167.771 -0.207937 -4.25993 0
M  V30 1825 S 168.604 -1.59158 -5.11301 0
M  V30 1826 C 169.76 -0.716791 -6.21782 0
M  V30 1827 H 169.993 -1.09383 -2.76446 0
M  V30 1828 H 167.526 -0.676828 -1.38775 0
M  V30 1829 H 169.484 1.09978 -3.95493 0
M  V30 1830 H 168.145 1.38099 -2.82113 0
M  V30 1831 H 167.338 0.464163 -5.01858 0
M  V30 1832 H 166.94 -0.642963 -3.68432 0
M  V30 1833 H 169.232 0.0692833 -6.77465 0
M  V30 1834 H 170.175 -1.44682 -6.93161 0
M  V30 1835 H 170.583 -0.280855 -5.63801 0
M  V30 1836 N 169.982 1.44106 -0.638065 0
M  V30 1837 C 170.912 2.33448 0.0494287 0
M  V30 1838 C 171.893 1.48606 0.827672 0
M  V30 1839 O 173.078 1.77308 0.792173 0
M  V30 1840 C 170.208 3.31771 1.02691 0
M  V30 1841 C 169.162 4.26485 0.359823 0
M  V30 1842 C 168.488 5.14729 1.44769 0
M  V30 1843 C 169.788 5.17056 -0.738296 0
M  V30 1844 H 171.482 2.91183 -0.696636 0
M  V30 1845 H 169.028 1.40014 -0.336456 0
M  V30 1846 H 170.981 3.93161 1.51666 0
M  V30 1847 H 169.705 2.7226 1.80395 0
M  V30 1848 H 168.364 3.66437 -0.10934 0
M  V30 1849 H 168.012 4.51566 2.21578 0
M  V30 1850 H 167.712 5.78913 1.00668 0
M  V30 1851 H 169.236 5.78991 1.93911 0
M  V30 1852 H 170.65 5.72342 -0.331354 0
M  V30 1853 H 169.047 5.89879 -1.10286 0
M  V30 1854 H 170.117 4.57652 -1.60258 0
M  V30 1855 N 171.46 0.379036 1.52974 0
M  V30 1856 C 172.37 -0.468639 2.29872 0
M  V30 1857 C 173.386 -1.08067 1.36373 0
M  V30 1858 O 174.562 -1.08871 1.69438 0
M  V30 1859 C 171.627 -1.58594 3.083 0
M  V30 1860 C 170.688 -1.00007 4.17489 0
M  V30 1861 C 169.921 -2.06413 4.92168 0
M  V30 1862 O 170.144 -3.27751 4.66835 0
M  V30 1863 O 169.078 -1.68717 5.7777 0
M  V30 1864 H 172.904 0.157508 3.03291 0
M  V30 1865 H 170.489 0.143035 1.48714 0
M  V30 1866 H 172.371 -2.23525 3.57232 0
M  V30 1867 H 171.046 -2.19724 2.37703 0
M  V30 1868 H 169.953 -0.314299 3.72777 0
M  V30 1869 H 171.286 -0.433135 4.90291 0
M  V30 1870 N 172.938 -1.57226 0.108567 0
M  V30 1871 C 173.848 -2.18292 -0.859401 0
M  V30 1872 C 174.864 -1.15612 -1.30038 0
M  V30 1873 O 176.04 -1.48039 -1.36552 0
M  V30 1874 C 173.105 -2.762 -2.09558 0
M  V30 1875 C 172.166 -3.93881 -1.70752 0
M  V30 1876 C 171.399 -4.49018 -2.88477 0
M  V30 1877 O 171.622 -4.03068 -4.036 0
M  V30 1878 O 170.556 -5.39852 -2.66164 0
M  V30 1879 H 174.382 -3.01441 -0.369769 0
M  V30 1880 H 171.967 -1.48945 -0.1165 0
M  V30 1881 H 173.849 -3.13156 -2.81978 0
M  V30 1882 H 172.524 -1.96089 -2.57548 0
M  V30 1883 H 171.431 -3.61713 -0.954714 0
M  V30 1884 H 172.764 -4.75396 -1.27513 0
M  V30 1885 N 174.416 0.165178 -1.56732 0
M  V30 1886 C 175.665 0.879143 -1.81532 0
M  V30 1887 C 175.978 1.83144 -0.686842 0
M  V30 1888 O 177.184 2.58823 -0.819944 0
M  V30 1889 C 175.64 1.61388 -3.21686 0
M  V30 1890 C 175.248 0.704904 -4.4242 0
M  V30 1891 C 176.992 2.3157 -3.55774 0
M  V30 1892 C 174.899 1.44022 -5.73595 0
M  V30 1893 H 173.829 0.332033 -0.676957 0
M  V30 1894 H 176.48 0.132008 -1.83025 0
M  V30 1895 H 174.862 2.40599 -3.14529 0
M  V30 1896 H 176.036 -0.0506815 -4.60772 0
M  V30 1897 H 174.351 0.112419 -4.16248 0
M  V30 1898 H 176.948 2.8719 -4.51028 0
M  V30 1899 H 177.291 3.07201 -2.8095 0
M  V30 1900 H 177.824 1.59297 -3.64513 0
M  V30 1901 H 174.563 0.72612 -6.51466 0
M  V30 1902 H 174.083 2.16898 -5.5921 0
M  V30 1903 H 175.762 1.98606 -6.15764 0
M  V30 1904 N 175.894 1.51508 0.433938 0
M  V30 1905 C 176.827 1.67756 1.54704 0
M  V30 1906 C 177.805 0.525127 1.53887 0
M  V30 1907 O 178.989 0.749393 1.72963 0
M  V30 1908 C 176.116 1.69424 2.9328 0
M  V30 1909 C 175.162 2.90673 3.12108 0
M  V30 1910 S 175.995 4.51431 2.88046 0
M  V30 1911 C 177.151 4.55849 4.28897 0
M  V30 1912 H 177.384 2.61904 1.40689 0
M  V30 1913 H 174.917 1.41235 0.62386 0
M  V30 1914 H 176.875 1.7107 3.73156 0
M  V30 1915 H 175.536 0.764464 3.04655 0
M  V30 1916 H 174.729 2.88251 4.13434 0
M  V30 1917 H 174.331 2.86786 2.40062 0
M  V30 1918 H 176.623 4.31699 5.22152 0
M  V30 1919 H 177.566 5.57676 4.36351 0
M  V30 1920 H 177.974 3.85137 4.12711 0
M  V30 1921 N 177.372 -0.689602 1.41712 0
M  V30 1922 C 178.319 -1.80345 1.44029 0
M  V30 1923 C 179.289 -1.63478 0.293948 0
M  V30 1924 O 180.474 -1.84244 0.495869 0
M  V30 1925 C 177.614 -3.18272 1.33405 0
M  V30 1926 C 176.727 -3.46529 2.57956 0
M  V30 1927 C 175.862 -4.74103 2.39582 0
M  V30 1928 C 174.901 -4.95347 3.5958 0
M  V30 1929 N 174.038 -6.14151 3.40239 0
M  V30 1930 H 178.878 -1.77698 2.39222 0
M  V30 1931 H 176.415 -0.867688 1.18784 0
M  V30 1932 H 178.373 -3.97956 1.25246 0
M  V30 1933 H 177.003 -3.2008 0.418164 0
M  V30 1934 H 176.055 -2.61207 2.76542 0
M  V30 1935 H 177.367 -3.58126 3.47199 0
M  V30 1936 H 176.521 -5.61853 2.28924 0
M  V30 1937 H 175.26 -4.64763 1.47805 0
M  V30 1938 H 174.265 -4.06044 3.70686 0
M  V30 1939 H 175.49 -5.06542 4.52318 0
M  V30 1940 H 173.436 -6.06013 2.51167 0
M  V30 1941 H 173.353 -6.26543 4.23061 0
M  V30 1942 H 174.621 -7.04619 3.33365 0
M  V30 1943 N 178.85 -1.27639 -0.924453 0
M  V30 1944 C 180.08 -1.16819 -1.70402 0
M  V30 1945 C 180.488 0.277191 -1.87158 0
M  V30 1946 O 179.831 1.20025 -1.39067 0
M  V30 1947 C 179.893 -1.78305 -3.12166 0
M  V30 1948 C 179.557 -3.27502 -3.18734 0
M  V30 1949 C 180.554 -4.2409 -3.00738 0
M  V30 1950 C 178.239 -3.68269 -3.4159 0
M  V30 1951 C 180.233 -5.59422 -3.05492 0
M  V30 1952 C 177.92 -5.0373 -3.45977 0
M  V30 1953 C 178.918 -5.99116 -3.27946 0
M  V30 1954 O 178.606 -7.32108 -3.32074 0
M  V30 1955 H 178.338 -0.406931 -0.539799 0
M  V30 1956 H 180.892 -1.69078 -1.16626 0
M  V30 1957 H 179.122 -1.20528 -3.67437 0
M  V30 1958 H 180.811 -1.62154 -3.72103 0
M  V30 1959 H 181.577 -3.93931 -2.82919 0
M  V30 1960 H 177.456 -2.94496 -3.54673 0
M  V30 1961 H 181 -6.33852 -2.91337 0
M  V30 1962 H 176.897 -5.33543 -3.63321 0
M  V30 1963 H 177.665 -7.40598 -3.48507 0
M  V30 1964 N 180.328 1.1314 -1.09713 0
M  V30 1965 C 181.238 2.22242 -0.751367 0
M  V30 1966 C 182.254 1.72224 0.247938 0
M  V30 1967 O 183.43 2.01205 0.0885463 0
M  V30 1968 C 180.495 3.46231 -0.180274 0
M  V30 1969 C 179.556 4.11125 -1.2359 0
M  V30 1970 C 178.789 5.29195 -0.691966 0
M  V30 1971 O 179.012 5.68342 0.48414 0
M  V30 1972 O 177.946 5.84214 -1.44838 0
M  V30 1973 H 181.772 2.54197 -1.66186 0
M  V30 1974 H 179.357 1.21331 -0.871735 0
M  V30 1975 H 181.239 4.21185 0.134739 0
M  V30 1976 H 179.914 3.1597 0.703185 0
M  V30 1977 H 178.821 3.37985 -1.60366 0
M  V30 1978 H 180.154 4.45524 -2.09211 0
M  V30 1979 N 181.806 0.884767 1.30421 0
M  V30 1980 C 182.769 0.356277 2.26414 0
M  V30 1981 C 183.769 -0.501124 1.52792 0
M  V30 1982 O 184.959 -0.30831 1.7145 0
M  V30 1983 C 182.091 -0.492316 3.37326 0
M  V30 1984 H 183.284 1.20389 2.74675 0
M  V30 1985 H 180.837 0.661607 1.41607 0
M  V30 1986 H 181.572 -1.36052 2.94381 0
M  V30 1987 H 181.357 0.121832 3.91911 0
M  V30 1988 H 182.847 -0.853871 4.08777 0
M  V30 1989 N 183.284 -1.43765 0.645699 0
M  V30 1990 C 184.509 -2.06767 0.161883 0
M  V30 1991 C 184.934 -1.48034 -1.16049 0
M  V30 1992 O 184.292 -0.587369 -1.71522 0
M  V30 1993 C 184.34 -3.60519 0.0762003 0
M  V30 1994 O 183.444 -4.00982 -0.963721 0
M  V30 1995 H 182.785 -0.657675 0.091429 0
M  V30 1996 H 185.315 -1.84397 0.886499 0
M  V30 1997 H 185.325 -4.07853 -0.109604 0
M  V30 1998 H 184 -4.02646 1.04157 0
M  V30 1999 H 182.577 -3.65253 -0.751312 0
M  V30 2000 N 184.763 -0.387143 -1.52771 0
M  V30 2001 C 186.012 0.19697 -2.00736 0
M  V30 2002 C 186.325 1.48082 -1.27793 0
M  V30 2003 O 187.531 2.14485 -1.66458 0
M  V30 2004 C 185.987 0.401568 -3.57653 0
M  V30 2005 C 185.595 -0.868907 -4.39493 0
M  V30 2006 C 187.339 0.942164 -4.13912 0
M  V30 2007 C 185.246 -0.632705 -5.88006 0
M  V30 2008 H 184.176 0.0773827 -0.750019 0
M  V30 2009 H 186.827 -0.50921 -1.76293 0
M  V30 2010 H 185.209 1.16954 -3.78335 0
M  V30 2011 H 186.383 -1.64133 -4.30577 0
M  V30 2012 H 184.698 -1.33429 -3.94443 0
M  V30 2013 H 187.295 1.13455 -5.22525 0
M  V30 2014 H 187.638 1.9106 -3.69867 0
M  V30 2015 H 188.171 0.233814 -3.97112 0
M  V30 2016 H 184.91 -1.57208 -6.36369 0
M  V30 2017 H 184.43 0.100825 -5.99715 0
M  V30 2018 H 186.109 -0.26642 -6.46451 0
M  V30 2019 N 186.241 1.57166 -0.116904 0
M  V30 2020 C 187.171 2.18222 0.830759 0
M  V30 2021 C 188.152 1.12167 1.27877 0
M  V30 2022 O 189.337 1.40394 1.34176 0
M  V30 2023 C 186.467 2.77996 2.08172 0
M  V30 2024 C 185.421 3.89614 1.77157 0
M  V30 2025 C 184.747 4.36187 3.09265 0
M  V30 2026 C 186.047 5.1181 1.04151 0
M  V30 2027 H 187.741 2.97664 0.321992 0
M  V30 2028 H 185.287 1.4318 0.153434 0
M  V30 2029 H 187.24 3.19366 2.74924 0
M  V30 2030 H 185.964 1.9584 2.6137 0
M  V30 2031 H 184.623 3.48816 1.12796 0
M  V30 2032 H 184.271 3.50893 3.60393 0
M  V30 2033 H 183.971 5.11455 2.89288 0
M  V30 2034 H 185.495 4.80207 3.77139 0
M  V30 2035 H 186.909 5.50214 1.61052 0
M  V30 2036 H 185.306 5.92648 0.942762 0
M  V30 2037 H 186.376 4.84892 0.0279022 0
M  V30 2038 N 187.719 -0.156864 1.56817 0
M  V30 2039 C 188.947 -0.886316 1.86955 0
M  V30 2040 C 189.362 -1.75185 0.703975 0
M  V30 2041 O 188.719 -1.79555 -0.326552 0
M  V30 2042 C 188.77 -1.75117 3.16253 0
M  V30 2043 O 188.491 -0.920537 4.2832 0
M  V30 2044 C 189.992 -2.58905 3.59837 0
M  V30 2045 H 187.212 -0.25678 0.619923 0
M  V30 2046 H 189.756 -0.152615 2.0393 0
M  V30 2047 H 187.911 -2.43805 3.01062 0
M  V30 2048 H 188.325 -1.51337 5.02192 0
M  V30 2049 H 189.799 -3.1518 4.53172 0
M  V30 2050 H 190.276 -3.34472 2.84649 0
M  V30 2051 H 190.882 -1.95526 3.7769 0
M  V30 2052 N 189.197 -1.51736 -0.425897 0
M  V30 2053 C 190.147 -1.70258 -1.51645 0
M  V30 2054 C 191.131 -0.556488 -1.5097 0
M  V30 2055 O 192.323 -0.812879 -1.5723 0
M  V30 2056 C 189.452 -1.84143 -2.89735 0
M  V30 2057 C 188.538 -3.04572 -2.95122 0
M  V30 2058 N 188.929 -4.2756 -2.70233 0
M  V30 2059 C 187.227 -3.04061 -3.26286 0
M  V30 2060 C 187.928 -5.08908 -2.81757 0
M  V30 2061 N 186.904 -4.43797 -3.13919 0
M  V30 2062 H 190.706 -2.63004 -1.31172 0
M  V30 2063 H 188.22 -1.4954 -0.633375 0
M  V30 2064 H 190.217 -1.95525 -3.68206 0
M  V30 2065 H 188.877 -0.925857 -3.1122 0
M  V30 2066 H 189.888 -4.56315 -2.44943 0
M  V30 2067 H 186.565 -2.22179 -3.53473 0
M  V30 2068 H 187.955 -6.16843 -2.66372 0
M  V30 2069 N 190.675 0.682077 -1.42076 0
M  V30 2070 C 191.952 1.43755 -1.32642 0
M  V30 2071 C 192.332 2.11063 0.0396611 0
M  V30 2072 O 191.68 2.02701 1.05474 0
M  V30 2073 C 191.89 2.44596 -2.48946 0
M  V30 2074 C 193.238 3.09454 -2.9073 0
M  V30 2075 O 194.262 2.54922 -2.48783 0
M  V30 2076 O 193.121 4.08253 -3.63307 0
M  V30 2077 H 190.215 0.640857 -0.522715 0
M  V30 2078 H 192.761 0.711415 -1.54068 0
M  V30 2079 H 191.533 1.93609 -3.40046 0
M  V30 2080 H 191.156 3.24701 -2.29467 0
M  V30 2081 N 192.153 1.28127 0.917671 0
M  V30 2082 C 193.378 1.18007 1.70555 0
M  V30 2083 C 193.803 -0.258257 1.86319 0
M  V30 2084 O 193.161 -1.1869 1.37049 0
M  V30 2085 C 193.209 1.87948 3.07746 0
M  V30 2086 O 192.313 1.18427 3.9503 0
M  V30 2087 H 191.654 0.409867 0.522403 0
M  V30 2088 H 194.184 1.69379 1.1477 0
M  V30 2089 H 194.194 1.95701 3.58001 0
M  V30 2090 H 192.869 2.92573 2.95591 0
M  V30 2091 H 191.446 1.18811 3.53466 0
M  V30 2092 N 193.631 -1.12557 1.10312 0
M  V30 2093 C 194.856 -1.88405 0.867085 0
M  V30 2094 C 195.281 -1.79038 -0.576817 0
M  V30 2095 O 194.639 -1.14439 -1.40618 0
M  V30 2096 C 194.687 -3.3563 1.31851 0
M  V30 2097 O 193.791 -4.09565 0.482734 0
M  V30 2098 H 193.132 -0.585455 0.313271 0
M  V30 2099 H 195.662 -1.42352 1.4696 0
M  V30 2100 H 195.672 -3.86469 1.3079 0
M  V30 2101 H 194.347 -3.41765 2.37001 0
M  V30 2102 H 192.924 -3.68695 0.558448 0
M  V30 2103 N 195.109 -0.891671 -1.2995 0
M  V30 2104 C 196.358 -0.509521 -1.95158 0
M  V30 2105 C 196.671 0.947388 -1.71125 0
M  V30 2106 O 197.877 1.43669 -2.30372 0
M  V30 2107 C 196.333 -0.860315 -3.49466 0
M  V30 2108 C 195.941 -2.33545 -3.8231 0
M  V30 2109 C 197.685 -0.547687 -4.20952 0
M  V30 2110 C 195.592 -2.62752 -5.29826 0
M  V30 2111 H 194.522 -0.18682 -0.730489 0
M  V30 2112 H 197.173 -1.08756 -1.47798 0
M  V30 2113 H 195.555 -0.211285 -3.95436 0
M  V30 2114 H 196.729 -3.02936 -3.47227 0
M  V30 2115 H 195.044 -2.61629 -3.23944 0
M  V30 2116 H 197.641 -0.742854 -5.29515 0
M  V30 2117 H 197.984 0.51332 -4.13123 0
M  V30 2118 H 198.517 -1.1542 -3.80688 0
M  V30 2119 H 195.256 -3.6762 -5.42712 0
M  V30 2120 H 194.776 -1.97977 -5.66185 0
M  V30 2121 H 196.455 -2.48601 -5.97333 0
M  V30 2122 N 196.587 1.43421 -0.653314 0
M  V30 2123 C 198.003 1.56341 -0.320886 0
M  V30 2124 C 198.203 1.63696 1.17499 0
M  V30 2125 O 197.259 1.59208 1.95982 0
M  V30 2126 C 198.572 2.82424 -1.03233 0
M  V30 2127 C 200.12 2.96168 -1.01259 0
M  V30 2128 C 200.595 4.25084 -1.70492 0
M  V30 2129 N 202.086 4.31948 -1.67257 0
M  V30 2130 C 202.821 5.30466 -2.17701 0
M  V30 2131 N 202.317 6.35261 -2.76434 0
M  V30 2132 N 204.11 5.2212 -2.082 0
M  V30 2133 H 196.261 1.3689 -1.62403 0
M  V30 2134 H 198.524 0.657455 -0.682977 0
M  V30 2135 H 198.23 2.83053 -2.08744 0
M  V30 2136 H 198.104 3.72653 -0.583948 0
M  V30 2137 H 200.491 2.9508 0.0341235 0
M  V30 2138 H 200.572 2.07229 -1.49966 0
M  V30 2139 H 200.216 4.26932 -2.7512 0
M  V30 2140 H 200.146 5.1292 -1.19251 0
M  V30 2141 H 202.637 3.56838 -1.24398 0
M  V30 2142 H 202.95 7.06754 -3.12601 0
M  V30 2143 H 201.295 6.35884 -2.80495 0
M  V30 2144 H 204.486 4.39166 -1.62021 0
M  V30 2145 H 204.659 5.98739 -2.47822 0
M  V30 2146 N 198.065 0.39524 1.52563 0
M  V30 2147 C 199.295 -0.184675 2.05773 0
M  V30 2148 C 199.703 -1.40571 1.26635 0
M  V30 2149 O 199.046 -1.81105 0.30769 0
M  V30 2150 C 199.108 -0.613551 3.54226 0
M  V30 2151 C 198.772 0.49484 4.54313 0
M  V30 2152 C 199.769 1.3541 5.01956 0
M  V30 2153 C 197.454 0.663565 4.97898 0
M  V30 2154 C 199.448 2.36716 5.91814 0
M  V30 2155 C 197.135 1.67996 5.87555 0
M  V30 2156 C 198.133 2.53017 6.34406 0
M  V30 2157 O 197.821 3.52917 7.22291 0
M  V30 2158 H 197.553 -0.030077 0.675331 0
M  V30 2159 H 200.107 0.560708 1.97599 0
M  V30 2160 H 198.337 -1.411 3.60038 0
M  V30 2161 H 200.026 -1.11981 3.90148 0
M  V30 2162 H 200.792 1.23509 4.6901 0
M  V30 2163 H 196.671 0.0114913 4.60999 0
M  V30 2164 H 200.215 3.03113 6.28306 0
M  V30 2165 H 196.112 1.79933 6.19915 0
M  V30 2166 H 196.88 3.48996 7.40367 0
M  V30 2167 N 199.544 -1.57102 0.125237 0
M  V30 2168 C 200.474 -2.18659 -0.819174 0
M  V30 2169 C 201.455 -1.12843 -1.27281 0
M  V30 2170 O 202.64 -1.41104 -1.33429 0
M  V30 2171 C 199.77 -2.79096 -2.06695 0
M  V30 2172 C 198.724 -3.90548 -1.75088 0
M  V30 2173 C 198.05 -4.37821 -3.06948 0
M  V30 2174 C 199.35 -5.12356 -1.01435 0
M  V30 2175 H 201.044 -2.9783 -0.306202 0
M  V30 2176 H 198.59 -1.4326 -0.145839 0
M  V30 2177 H 200.543 -3.2082 -2.73226 0
M  V30 2178 H 199.267 -1.97223 -2.60328 0
M  V30 2179 H 197.926 -3.49409 -1.10944 0
M  V30 2180 H 197.574 -3.52799 -3.58527 0
M  V30 2181 H 197.274 -5.12982 -2.86571 0
M  V30 2182 H 198.798 -4.822 -3.74587 0
M  V30 2183 H 200.212 -5.5106 -1.58132 0
M  V30 2184 H 198.609 -5.9314 -0.911319 0
M  V30 2185 H 199.679 -4.849 -0.00218681 0
M  V30 2186 N 201.022 0.148545 -1.56898 0
M  V30 2187 C 201.954 1.20852 -1.9475 0
M  V30 2188 C 202.967 1.39265 -0.843152 0
M  V30 2189 O 204.156 1.38864 -1.12156 0
M  V30 2190 C 201.256 2.57362 -2.20495 0
M  V30 2191 C 200.429 2.59947 -3.51776 0
M  V30 2192 C 199.488 3.77984 -3.6608 0
M  V30 2193 O 198.514 3.62929 -4.38487 0
M  V30 2194 N 199.716 4.95375 -3.02629 0
M  V30 2195 H 202.481 0.886804 -2.86279 0
M  V30 2196 H 200.042 0.338121 -1.5833 0
M  V30 2197 H 202.034 3.34833 -2.27307 0
M  V30 2198 H 200.604 2.81832 -1.35238 0
M  V30 2199 H 199.824 1.68403 -3.56419 0
M  V30 2200 H 201.112 2.58704 -4.38121 0
M  V30 2201 H 200.51 5.10509 -2.43715 0
M  V30 2202 H 199.067 5.70627 -3.15004 0
M  V30 2203 N 202.5 1.5196 0.417844 0
M  V30 2204 C 203.41 1.77554 1.53336 0
M  V30 2205 C 204.426 0.660655 1.6097 0
M  V30 2206 O 205.602 0.945099 1.77848 0
M  V30 2207 C 202.667 1.91291 2.89152 0
M  V30 2208 C 201.728 3.15183 2.91475 0
M  V30 2209 C 200.961 3.28256 4.20813 0
M  V30 2210 O 201.184 2.46798 5.14244 0
M  V30 2211 O 200.118 4.21356 4.29817 0
M  V30 2212 H 203.944 2.7222 1.34647 0
M  V30 2213 H 201.529 1.36698 0.602828 0
M  V30 2214 H 203.411 2.02199 3.69721 0
M  V30 2215 H 202.086 0.998129 3.07927 0
M  V30 2216 H 200.993 3.09739 2.09791 0
M  V30 2217 H 202.326 4.06414 2.77648 0
M  V30 2218 N 203.978 -0.674533 1.42435 0
M  V30 2219 C 205.227 -1.43034 1.42212 0
M  V30 2220 C 205.54 -1.95555 0.0420788 0
M  V30 2221 O 206.746 -2.71374 -0.0827558 0
M  V30 2222 C 205.202 -2.58748 2.50155 0
M  V30 2223 C 204.81 -2.12925 3.94166 0
M  V30 2224 C 206.554 -3.36257 2.59098 0
M  V30 2225 C 204.461 -3.25723 4.93618 0
M  V30 2226 H 203.391 -0.537345 0.528939 0
M  V30 2227 H 206.042 -0.73024 1.68344 0
M  V30 2228 H 204.424 -3.31128 2.17188 0
M  V30 2229 H 205.598 -1.47697 4.36488 0
M  V30 2230 H 203.913 -1.48354 3.89076 0
M  V30 2231 H 206.51 -4.20264 3.30578 0
M  V30 2232 H 206.853 -3.82866 1.63461 0
M  V30 2233 H 207.386 -2.70947 2.9126 0
M  V30 2234 H 204.125 -2.84105 5.90732 0
M  V30 2235 H 203.645 -3.89732 4.55926 0
M  V30 2236 H 205.324 -3.91186 5.15347 0
M  V30 2237 N 205.456 -1.28612 -0.910864 0
M  V30 2238 C 206.686 -1.1862 -1.69153 0
M  V30 2239 C 207.094 0.257324 -1.87442 0
M  V30 2240 O 206.437 1.18543 -1.40332 0
M  V30 2241 C 206.499 -1.81606 -3.10257 0
M  V30 2242 C 206.163 -3.30864 -3.15243 0
M  V30 2243 C 207.16 -4.27256 -2.96223 0
M  V30 2244 C 204.845 -3.71871 -3.37664 0
M  V30 2245 C 206.839 -5.62631 -2.99541 0
M  V30 2246 C 204.526 -5.07371 -3.40614 0
M  V30 2247 C 205.524 -6.02561 -3.21573 0
M  V30 2248 O 205.212 -7.35589 -3.2429 0
M  V30 2249 H 204.944 -0.412633 -0.535453 0
M  V30 2250 H 207.498 -1.70306 -1.14827 0
M  V30 2251 H 205.728 -1.24418 -3.66138 0
M  V30 2252 H 207.417 -1.66092 -3.70362 0
M  V30 2253 H 208.183 -3.9691 -2.78725 0
M  V30 2254 H 204.062 -2.98241 -3.5153 0
M  V30 2255 H 207.606 -6.36907 -2.84597 0
M  V30 2256 H 203.503 -5.37366 -3.57642 0
M  V30 2257 H 204.271 -7.44252 -3.40633 0
M  V30 2258 N 206.934 1.1197 -1.10907 0
M  V30 2259 C 207.882 2.19927 -0.757303 0
M  V30 2260 C 208.876 1.67564 0.248747 0
M  V30 2261 O 210.082 1.79672 0.108605 0
M  V30 2262 H 206.457 0.716925 -0.226987 0
M  V30 2263 H 208.428 2.46847 -1.67658 0
M  V30 2264 C 207.177 3.47061 -0.210671 0
M  V30 2265 H 206.5 3.87703 -0.976049 0
M  V30 2266 H 207.94 4.24 -0.0026584 0
M  V30 2267 C 206.399 3.19864 1.05777 0
M  V30 2268 O 206.929 3.40049 2.13845 0
M  V30 2269 N 205.135 2.73636 0.978349 0
M  V30 2270 H 204.682 2.5741 0.0988246 0
M  V30 2271 H 204.64 2.55815 1.82773 0
M  V30 2272 N 208.412 0.89855 1.29475 0
M  V30 2273 C 209.637 0.538561 2.00285 0
M  V30 2274 C 210.062 -0.869135 1.66816 0
M  V30 2275 O 209.42 -1.57831 0.892145 0
M  V30 2276 C 209.468 0.736475 3.52999 0
M  V30 2277 O 208.572 -0.211537 4.11857 0
M  V30 2278 H 207.913 0.210563 0.62973 0
M  V30 2279 H 210.443 1.20982 1.64998 0
M  V30 2280 H 210.453 0.640685 4.02938 0
M  V30 2281 H 209.128 1.76276 3.76696 0
M  V30 2282 H 207.705 -0.0682991 3.72837 0
M  V30 2283 N 209.89 -1.43072 0.660911 0
M  V30 2284 C 210.838 -2.32569 -0.0378199 0
M  V30 2285 C 211.832 -1.49046 -0.805092 0
M  V30 2286 O 213.038 -1.65206 -0.714624 0
M  V30 2287 H 209.413 -0.75136 -0.031019 0
M  V30 2288 H 211.384 -2.89216 0.734609 0
M  V30 2289 C 210.133 -3.33453 -0.985124 0
M  V30 2290 H 209.456 -3.97752 -0.404147 0
M  V30 2291 H 210.896 -3.98691 -1.44297 0
M  V30 2292 C 209.355 -2.64642 -2.08486 0
M  V30 2293 O 209.885 -2.46776 -3.16961 0
M  V30 2294 N 208.091 -2.23891 -1.8526 0
M  V30 2295 H 207.638 -2.38621 -0.970449 0
M  V30 2296 H 207.596 -1.78181 -2.59034 0
M  V30 2297 N 211.368 -0.403325 -1.52352 0
M  V30 2298 C 212.316 0.439752 -2.28405 0
M  V30 2299 C 213.31 1.05089 -1.32863 0
M  V30 2300 O 214.516 0.989759 -1.50345 0
M  V30 2301 H 210.891 0.160587 -0.734653 0
M  V30 2302 H 212.862 -0.222983 -2.97566 0
M  V30 2303 C 211.611 1.54736 -3.11371 0
M  V30 2304 H 210.934 1.08643 -3.84755 0
M  V30 2305 H 212.374 2.1112 -3.67701 0
M  V30 2306 C 210.833 2.51141 -2.24566 0
M  V30 2307 O 211.363 3.54887 -1.88196 0
M  V30 2308 N 209.569 2.21213 -1.8845 0
M  V30 2309 H 209.116 1.36878 -2.18225 0
M  V30 2310 H 209.074 2.85963 -1.30662 0
M  V30 2311 N 212.846 1.57033 -0.133567 0
M  V30 2312 C 213.778 2.13176 0.841944 0
M  V30 2313 C 214.791 1.07794 1.22001 0
M  V30 2314 O 215.98 1.35117 1.16643 0
M  V30 2315 C 213.08 2.62847 2.13926 0
M  V30 2316 C 212.253 3.92486 1.93064 0
M  V30 2317 C 211.312 4.27605 3.0666 0
M  V30 2318 O 210.338 4.96168 2.78937 0
M  V30 2319 N 211.54 3.861 4.33483 0
M  V30 2320 H 214.305 2.97503 0.362192 0
M  V30 2321 H 211.866 1.61821 0.05042 0
M  V30 2322 H 213.858 2.83363 2.88942 0
M  V30 2323 H 212.428 1.83319 2.53205 0
M  V30 2324 H 211.648 3.80732 1.02159 0
M  V30 2325 H 212.936 4.77225 1.76447 0
M  V30 2326 H 212.334 3.30828 4.58878 0
M  V30 2327 H 210.891 4.11694 5.05323 0
M  V30 2328 N 214.325 -0.140222 1.56975 0
M  V30 2329 C 215.272 -1.17292 1.98774 0
M  V30 2330 C 216.242 -1.4232 0.856408 0
M  V30 2331 O 217.427 -1.54541 1.119 0
M  V30 2332 C 214.567 -2.49973 2.37923 0
M  V30 2333 C 213.68 -2.32062 3.64378 0
M  V30 2334 C 212.815 -3.57825 3.926 0
M  V30 2335 C 211.854 -3.3498 5.12303 0
M  V30 2336 N 210.991 -4.52891 5.36502 0
M  V30 2337 H 215.831 -0.809472 2.86795 0
M  V30 2338 H 213.368 -0.388237 1.41884 0
M  V30 2339 H 215.326 -3.27346 2.58652 0
M  V30 2340 H 213.956 -2.84252 1.52972 0
M  V30 2341 H 213.008 -1.45711 3.51387 0
M  V30 2342 H 214.32 -2.11145 4.51906 0
M  V30 2343 H 213.474 -4.43624 4.13863 0
M  V30 2344 H 212.213 -3.81753 3.03506 0
M  V30 2345 H 211.218 -2.4757 4.90906 0
M  V30 2346 H 212.443 -3.12444 6.02956 0
M  V30 2347 H 210.389 -4.76979 4.50363 0
M  V30 2348 H 210.306 -4.35001 6.18312 0
M  V30 2349 H 211.574 -5.39884 5.62268 0
M  V30 2350 N 215.803 -1.52179 -0.40978 0
M  V30 2351 C 217.052 -1.65434 -1.15388 0
M  V30 2352 C 217.365 -0.390056 -1.91671 0
M  V30 2353 O 218.571 -0.402399 -2.68501 0
M  V30 2354 C 217.027 -2.92279 -2.10003 0
M  V30 2355 C 216.635 -4.25813 -1.39239 0
M  V30 2356 C 218.379 -3.14897 -2.84675 0
M  V30 2357 C 216.286 -5.43782 -2.32498 0
M  V30 2358 H 215.216 -0.616267 -0.434432 0
M  V30 2359 H 217.867 -1.78666 -0.418401 0
M  V30 2360 H 216.249 -2.72744 -2.871 0
M  V30 2361 H 217.423 -4.55828 -0.675099 0
M  V30 2362 H 215.738 -4.09292 -0.766097 0
M  V30 2363 H 218.335 -4.0021 -3.54593 0
M  V30 2364 H 218.678 -2.29103 -3.47588 0
M  V30 2365 H 219.211 -3.34901 -2.14677 0
M  V30 2366 H 215.95 -6.3192 -1.74233 0
M  V30 2367 H 215.47 -5.18106 -3.02201 0
M  V30 2368 H 217.149 -5.76834 -2.93038 0
M  V30 2369 N 217.281 0.66697 -1.42791 0
M  V30 2370 C 218.527 1.4291 -1.43891 0
M  V30 2371 C 218.86 1.94114 -0.0578972 0
M  V30 2372 O 218.135 1.71414 0.91911 0
M  V30 2373 C 218.418 2.62049 -2.46987 0
M  V30 2374 C 218.271 2.16426 -3.94309 0
M  V30 2375 C 219.59 3.64266 -2.46978 0
M  V30 2376 H 216.709 0.518306 -0.523954 0
M  V30 2377 H 219.351 0.757321 -1.74255 0
M  V30 2378 H 217.501 3.19361 -2.21225 0
M  V30 2379 H 219.173 1.64221 -4.31079 0
M  V30 2380 H 217.416 1.47925 -4.078 0
M  V30 2381 H 218.087 3.02038 -4.62036 0
M  V30 2382 H 220.563 3.16686 -2.69906 0
M  V30 2383 H 219.439 4.45196 -3.21079 0
M  V30 2384 H 219.7 4.15927 -1.49857 0
M  V30 2385 N 218.759 1.29093 0.90403 0
M  V30 2386 C 219.707 1.13727 2.02901 0
M  V30 2387 C 220.701 0.0539853 1.69314 0
M  V30 2388 O 221.907 0.213469 1.7873 0
M  V30 2389 H 218.282 0.35117 0.664969 0
M  V30 2390 H 220.253 2.08982 2.13001 0
M  V30 2391 C 219.002 0.826066 3.37745 0
M  V30 2392 H 218.325 1.65164 3.64089 0
M  V30 2393 H 219.765 0.758559 4.17159 0
M  V30 2394 C 218.224 -0.470541 3.33598 0
M  V30 2395 O 218.754 -1.49792 3.72727 0
M  V30 2396 N 216.96 -0.474812 2.86695 0
M  V30 2397 H 216.507 0.361692 2.55048 0
M  V30 2398 H 216.465 -1.34236 2.84303 0
M  V30 2399 N 220.237 -1.11381 1.11499 0
M  V30 2400 C 221.167 -2.19509 0.796125 0
M  V30 2401 C 222.148 -1.68458 -0.235796 0
M  V30 2402 O 223.333 -1.93947 -0.0991344 0
M  V30 2403 C 220.463 -3.46475 0.239205 0
M  V30 2404 C 219.417 -4.10744 1.20307 0
M  V30 2405 C 218.743 -5.32293 0.50683 0
M  V30 2406 C 220.043 -4.55597 2.55399 0
M  V30 2407 H 221.737 -2.46439 1.70024 0
M  V30 2408 H 219.283 -1.18446 0.818935 0
M  V30 2409 H 221.236 -4.214 0.00392006 0
M  V30 2410 H 219.96 -3.19006 -0.700206 0
M  V30 2411 H 218.619 -3.37813 1.42399 0
M  V30 2412 H 218.267 -5.01095 -0.437408 0
M  V30 2413 H 217.967 -5.76243 1.1497 0
M  V30 2414 H 219.491 -6.09956 0.280351 0
M  V30 2415 H 220.905 -5.21841 2.37391 0
M  V30 2416 H 219.302 -5.10363 3.15673 0
M  V30 2417 H 220.372 -3.69013 3.14575 0
M  V30 2418 N 221.715 -0.905404 -1.28997 0
M  V30 2419 C 222.662 -0.385892 -2.27551 0
M  V30 2420 C 223.632 0.535113 -1.57244 0
M  V30 2421 O 224.817 0.459119 -1.85194 0
M  V30 2422 C 221.957 0.375461 -3.43051 0
M  V30 2423 C 221.07 -0.577092 -4.28128 0
M  V30 2424 C 220.205 0.201879 -5.30816 0
M  V30 2425 C 219.244 -0.744829 -6.07551 0
M  V30 2426 N 218.381 9.42587e-05 -7.021 0
M  V30 2427 H 223.221 -1.23139 -2.71368 0
M  V30 2428 H 220.758 -0.618542 -1.33463 0
M  V30 2429 H 222.716 0.832992 -4.088 0
M  V30 2430 H 221.346 1.18537 -3.00248 0
M  V30 2431 H 220.398 -1.15315 -3.62501 0
M  V30 2432 H 221.71 -1.30152 -4.8152 0
M  V30 2433 H 220.864 0.720351 -6.02408 0
M  V30 2434 H 219.603 0.959413 -4.7817 0
M  V30 2435 H 218.608 -1.27475 -5.34818 0
M  V30 2436 H 219.833 -1.50178 -6.62286 0
M  V30 2437 H 217.779 0.739791 -6.51815 0
M  V30 2438 H 217.696 -0.664321 -7.53076 0
M  V30 2439 H 218.964 0.498644 -7.77903 0
M  V30 2440 N 223.193 1.4272 -0.668489 0
M  V30 2441 C 224.103 2.34596 0.0139753 0
M  V30 2442 C 225.119 1.5474 0.795703 0
M  V30 2443 O 226.295 1.87334 0.739466 0
M  V30 2444 C 223.36 3.33202 0.957982 0
M  V30 2445 C 222.421 4.28957 0.17149 0
M  V30 2446 C 221.654 5.22853 1.07053 0
M  V30 2447 O 221.877 5.21531 2.31001 0
M  V30 2448 O 220.811 5.9952 0.534727 0
M  V30 2449 H 224.637 2.9448 -0.742661 0
M  V30 2450 H 222.222 1.43117 -0.428705 0
M  V30 2451 H 224.104 3.93796 1.50008 0
M  V30 2452 H 222.779 2.758 1.69458 0
M  V30 2453 H 221.686 3.71796 -0.414558 0
M  V30 2454 H 223.019 4.89383 -0.52586 0
M  V30 2455 N 224.671 0.411399 1.52136 0
M  V30 2456 C 225.618 -0.412975 2.27075 0
M  V30 2457 C 226.588 -1.03912 1.29582 0
M  V30 2458 O 227.773 -1.06296 1.58448 0
M  V30 2459 C 224.913 -1.52247 3.09701 0
M  V30 2460 C 224.026 -0.917021 4.22155 0
M  V30 2461 C 223.161 -1.9994 4.92135 0
M  V30 2462 C 222.2 -1.37101 5.96548 0
M  V30 2463 N 221.337 -2.39364 6.60038 0
M  V30 2464 H 226.177 0.232499 2.97092 0
M  V30 2465 H 223.714 0.126496 1.46555 0
M  V30 2466 H 225.672 -2.17674 3.55913 0
M  V30 2467 H 224.302 -2.13794 2.41851 0
M  V30 2468 H 223.354 -0.151742 3.80097 0
M  V30 2469 H 224.666 -0.418006 4.97045 0
M  V30 2470 H 223.82 -2.73088 5.41763 0
M  V30 2471 H 222.559 -2.53208 4.16818 0
M  V30 2472 H 221.564 -0.624873 5.46237 0
M  V30 2473 H 222.789 -0.845998 6.7381 0
M  V30 2474 H 220.735 -2.91759 5.87548 0
M  V30 2475 H 220.652 -1.9428 7.3061 0
M  V30 2476 H 221.92 -3.12074 7.14304 0
M  V30 2477 N 226.149 -1.5696 0.141893 0
M  V30 2478 C 227.395 -1.9625 -0.511248 0
M  V30 2479 C 227.728 -1.02654 -1.64851 0
M  V30 2480 O 227.003 -0.0679676 -1.94381 0
M  V30 2481 C 227.286 -3.45285 -1.02227 0
M  V30 2482 C 227.139 -4.49658 0.113138 0
M  V30 2483 C 228.458 -3.96698 -1.90574 0
M  V30 2484 H 225.577 -0.713567 -0.184367 0
M  V30 2485 H 228.219 -1.88698 0.222087 0
M  V30 2486 H 226.369 -3.51852 -1.64719 0
M  V30 2487 H 228.041 -4.55174 0.749302 0
M  V30 2488 H 226.284 -4.26857 0.773026 0
M  V30 2489 H 226.955 -5.51258 -0.286053 0
M  V30 2490 H 229.431 -3.92578 -1.37918 0
M  V30 2491 H 228.307 -5.01453 -2.2324 0
M  V30 2492 H 228.568 -3.3875 -2.84079 0
M  V30 2493 N 227.627 0.131896 -1.57047 0
M  V30 2494 C 228.59 1.14638 -1.98471 0
M  V30 2495 C 229.59 1.35029 -0.873148 0
M  V30 2496 O 230.78 1.31764 -1.13946 0
M  V30 2497 C 227.912 2.50358 -2.31373 0
M  V30 2498 H 229.105 0.79064 -2.8929 0
M  V30 2499 H 226.658 0.375761 -1.51716 0
M  V30 2500 H 227.393 2.90876 -1.43393 0
M  V30 2501 H 227.178 2.36915 -3.12432 0
M  V30 2502 H 228.668 3.23395 -2.64207 0
M  V30 2503 N 229.106 1.52395 0.401703 0
M  V30 2504 C 230.038 1.72505 1.50912 0
M  V30 2505 C 231.051 0.605468 1.51122 0
M  V30 2506 O 232.24 0.880828 1.55254 0
M  V30 2507 C 229.34 1.75711 2.89791 0
M  V30 2508 C 228.513 3.04824 3.1369 0
M  V30 2509 C 227.572 2.99743 4.32482 0
M  V30 2510 O 226.598 3.73635 4.29402 0
M  V30 2511 N 227.8 2.18047 5.37992 0
M  V30 2512 H 230.565 2.68049 1.34052 0
M  V30 2513 H 228.126 1.50724 0.591084 0
M  V30 2514 H 230.118 1.69834 3.6734 0
M  V30 2515 H 228.688 0.876092 3.00072 0
M  V30 2516 H 227.908 3.2429 2.24119 0
M  V30 2517 H 229.196 3.90221 3.26504 0
M  V30 2518 H 228.594 1.57456 5.43345 0
M  V30 2519 H 227.151 2.18021 6.14256 0
M  V30 2520 N 230.584 -0.659388 1.43143 0
M  V30 2521 C 231.514 -1.78422 1.50625 0
M  V30 2522 C 232.495 -1.66216 0.361443 0
M  V30 2523 O 233.68 -1.85404 0.577834 0
M  V30 2524 C 230.81 -3.16815 1.42287 0
M  V30 2525 C 229.764 -3.43777 2.54954 0
M  V30 2526 C 229.09 -4.81905 2.31671 0
M  V30 2527 C 230.39 -3.39134 3.97222 0
M  V30 2528 H 232.084 -1.72417 2.44771 0
M  V30 2529 H 229.63 -0.828084 1.17808 0
M  V30 2530 H 231.583 -3.95253 1.46127 0
M  V30 2531 H 230.307 -3.23534 0.446435 0
M  V30 2532 H 228.966 -2.67707 2.50457 0
M  V30 2533 H 228.614 -4.85294 1.32284 0
M  V30 2534 H 228.314 -5.00906 3.07192 0
M  V30 2535 H 229.838 -5.62609 2.37284 0
M  V30 2536 H 231.252 -4.07518 4.03239 0
M  V30 2537 H 229.649 -3.69671 4.72719 0
M  V30 2538 H 230.719 -2.37426 4.22797 0
M  V30 2539 N 232.062 -1.29571 -0.897171 0
M  V30 2540 C 232.972 -1.16808 -2.03453 0
M  V30 2541 C 233.988 -0.0907471 -1.73763 0
M  V30 2542 O 235.164 -0.303312 -1.99103 0
M  V30 2543 C 232.229 -0.848264 -3.36163 0
M  V30 2544 C 231.29 -2.0097 -3.79354 0
M  V30 2545 C 230.523 -1.70505 -5.05731 0
M  V30 2546 O 230.746 -0.62718 -5.66941 0
M  V30 2547 O 229.68 -2.5538 -5.45036 0
M  V30 2548 H 233.506 -2.12325 -2.17144 0
M  V30 2549 H 231.091 -1.09047 -1.02123 0
M  V30 2550 H 232.973 -0.684581 -4.15802 0
M  V30 2551 H 231.648 0.0771071 -3.23608 0
M  V30 2552 H 230.555 -2.22863 -3.00471 0
M  V30 2553 H 231.888 -2.91636 -3.96496 0
M  V30 2554 N 233.54 1.10788 -1.12088 0
M  V30 2555 C 234.503 2.15207 -0.788577 0
M  V30 2556 C 235.503 1.59609 0.195317 0
M  V30 2557 O 236.693 1.74174 -0.0300193 0
M  V30 2558 C 233.825 3.4047 -0.171174 0
M  V30 2559 H 235.018 2.46116 -1.71368 0
M  V30 2560 H 232.571 1.26089 -0.923652 0
M  V30 2561 H 233.306 3.15176 0.763832 0
M  V30 2562 H 233.091 3.82109 -0.879514 0
M  V30 2563 H 234.581 4.17576 0.04496 0
M  V30 2564 N 235.018 0.912232 1.28515 0
M  V30 2565 C 235.95 0.35676 2.26406 0
M  V30 2566 C 236.963 -0.503933 1.54804 0
M  V30 2567 O 238.152 -0.319059 1.75625 0
M  V30 2568 C 235.252 -0.508825 3.35058 0
M  V30 2569 C 234.425 0.329007 4.36161 0
M  V30 2570 C 233.484 -0.471422 5.24084 0
M  V30 2571 O 232.51 0.115482 5.69083 0
M  V30 2572 N 233.712 -1.77479 5.52704 0
M  V30 2573 H 236.477 1.19818 2.74707 0
M  V30 2574 H 234.038 0.778022 1.4198 0
M  V30 2575 H 236.03 -1.051 3.90815 0
M  V30 2576 H 234.6 -1.25095 2.86478 0
M  V30 2577 H 233.82 1.05256 3.79888 0
M  V30 2578 H 235.108 0.90234 5.00735 0
M  V30 2579 H 234.506 -2.27417 5.17975 0
M  V30 2580 H 233.063 -2.26382 6.11224 0
M  V30 2581 N 236.496 -1.42363 0.676048 0
M  V30 2582 C 237.736 -2.03392 0.20273 0
M  V30 2583 C 238.1 -1.52306 -1.16906 0
M  V30 2584 O 239.301 -2.05129 -1.73711 0
M  V30 2585 C 237.572 -3.56614 0.236947 0
M  V30 2586 S 239.131 -4.38489 -0.165186 0
M  V30 2587 H 235.949 -0.70611 0.0832418 0
M  V30 2588 H 238.551 -1.74093 0.88948 0
M  V30 2589 H 237.255 -3.91293 1.23767 0
M  V30 2590 H 236.786 -3.90587 -0.469596 0
M  V30 2591 H 238.801 -4.76093 -1.39822 0
M  V30 2592 N 237.974 -0.419461 -1.51915 0
M  V30 2593 C 238.906 0.43646 -2.25006 0
M  V30 2594 C 239.919 1.00149 -1.28351 0
M  V30 2595 O 241.108 0.898674 -1.54227 0
M  V30 2596 C 238.208 1.6206 -2.9764 0
M  V30 2597 C 237.381 1.17763 -4.21249 0
M  V30 2598 C 236.44 2.22985 -4.76617 0
M  V30 2599 O 235.466 1.83151 -5.38929 0
M  V30 2600 N 236.668 3.55271 -4.59089 0
M  V30 2601 H 239.433 -0.18989 -2.99098 0
M  V30 2602 H 236.994 -0.247386 -1.59999 0
M  V30 2603 H 238.986 2.32038 -3.31573 0
M  V30 2604 H 237.556 2.15266 -2.2667 0
M  V30 2605 H 236.776 0.305582 -3.93014 0
M  V30 2606 H 238.064 0.858781 -5.015 0
M  V30 2607 H 237.462 3.90377 -4.09417 0
M  V30 2608 H 236.019 4.21195 -4.97432 0
M  V30 2609 N 239.452 1.56882 -0.150215 0
M  V30 2610 C 240.362 2.20494 0.801222 0
M  V30 2611 C 241.378 1.19019 1.26927 0
M  V30 2612 O 242.554 1.51607 1.32579 0
M  V30 2613 C 239.619 2.81659 2.02161 0
M  V30 2614 C 238.68 3.9827 1.60249 0
M  V30 2615 C 237.913 4.56508 2.7647 0
M  V30 2616 O 238.136 4.13627 3.92771 0
M  V30 2617 O 237.07 5.46719 2.51757 0
M  V30 2618 H 240.896 3.02315 0.289717 0
M  V30 2619 H 238.481 1.49202 0.0769684 0
M  V30 2620 H 240.363 3.20522 2.73576 0
M  V30 2621 H 239.038 2.02849 2.52258 0
M  V30 2622 H 237.945 3.64117 0.858477 0
M  V30 2623 H 239.278 4.78609 1.14864 0
M  V30 2624 N 240.93 -0.123565 1.57115 0
M  V30 2625 C 242.341 -0.681198 1.73829 0
M  V30 2626 C 242.692 -1.80535 0.768214 0
M  V30 2627 O 241.817 -2.16317 -0.0599103 0
M  V30 2628 C 242.412 -1.24246 3.15196 0
M  V30 2629 C 240.971 -1.74643 3.33432 0
M  V30 2630 C 240.118 -0.644284 2.69711 0
M  V30 2631 H 243.069 0.102315 1.5837 0
M  V30 2632 H 243.09 -2.11216 3.16493 0
M  V30 2633 H 242.602 -0.424062 3.85776 0
M  V30 2634 H 240.703 -2.58974 2.67886 0
M  V30 2635 H 240.816 -1.85902 4.41562 0
M  V30 2636 H 239.18 -1.07676 2.3082 0
M  V30 2637 H 239.963 0.163058 3.42913 0
M  V30 2638 N 242.408 -1.52605 -0.393616 0
M  V30 2639 C 243.648 -1.6911 -1.1481 0
M  V30 2640 C 244.012 -0.41969 -1.87357 0
M  V30 2641 O 245.213 -0.461034 -2.64817 0
M  V30 2642 C 243.484 -2.88909 -2.10395 0
M  V30 2643 S 245.043 -3.25977 -2.93742 0
M  V30 2644 H 241.861 -0.595337 -0.38871 0
M  V30 2645 H 244.463 -1.90641 -0.433178 0
M  V30 2646 H 243.167 -3.79672 -1.55812 0
M  V30 2647 H 242.698 -2.69698 -2.86403 0
M  V30 2648 H 244.713 -2.75806 -4.12487 0
M  V30 2649 N 243.887 0.651787 -1.4349 0
M  V30 2650 C 244.834 1.76462 -1.4876 0
M  V30 2651 C 245.804 1.62641 -0.337189 0
M  V30 2652 O 246.989 1.82864 -0.544544 0
M  V30 2653 C 244.129 3.14623 -1.41796 0
M  V30 2654 C 243.242 3.39568 -2.67053 0
M  V30 2655 C 242.377 4.67585 -2.52068 0
M  V30 2656 C 241.416 4.85639 -3.72587 0
M  V30 2657 N 240.553 6.04915 -3.56402 0
M  V30 2658 H 245.393 1.71293 -2.43849 0
M  V30 2659 H 242.93 0.835889 -1.21043 0
M  V30 2660 H 244.888 3.94496 -1.35753 0
M  V30 2661 H 243.518 3.18859 -0.50288 0
M  V30 2662 H 242.57 2.53783 -2.8337 0
M  V30 2663 H 243.882 3.48795 -3.56572 0
M  V30 2664 H 243.036 5.55586 -2.4374 0
M  V30 2665 H 241.775 4.60681 -1.60075 0
M  V30 2666 H 240.78 3.96073 -3.81321 0
M  V30 2667 H 242.005 4.94372 -4.65589 0
M  V30 2668 H 239.951 5.9914 -2.67146 0
M  V30 2669 H 239.868 6.15106 -4.39524 0
M  V30 2670 H 241.136 6.95533 -3.51929 0
M  V30 2671 N 245.365 1.30045 0.890287 0
M  V30 2672 C 246.642 1.09227 1.62262 0
M  V30 2673 C 247.022 -0.360305 2.08002 0
M  V30 2674 O 246.37 -1.35084 1.84295 0
M  V30 2675 C 246.58 2.08835 2.79623 0
M  V30 2676 C 247.928 2.40266 3.50082 0
M  V30 2677 O 248.952 2.07104 2.89804 0
M  V30 2678 O 247.811 2.96967 4.58773 0
M  V30 2679 H 244.905 0.419132 0.712922 0
M  V30 2680 H 247.451 1.41451 0.937529 0
M  V30 2681 H 246.223 3.06633 2.43089 0
M  V30 2682 H 245.846 1.77397 3.55832 0
M  V30 2683 N 246.843 -1.10192 1.12674 0
M  V30 2684 C 248.071 -1.85983 0.906527 0
M  V30 2685 C 248.486 -1.80783 -0.544333 0
M  V30 2686 O 247.843 -1.19834 -1.37645 0
M  V30 2687 C 247.894 -3.34281 1.37618 0
M  V30 2688 O 247.615 -3.39401 2.77017 0
M  V30 2689 C 249.116 -4.26938 1.19325 0
M  V30 2690 H 246.336 -0.587716 0.323775 0
M  V30 2691 H 248.88 -1.39284 1.49734 0
M  V30 2692 H 247.035 -3.78436 0.828539 0
M  V30 2693 H 247.449 -4.31838 2.97684 0
M  V30 2694 H 248.923 -5.29181 1.57071 0
M  V30 2695 H 249.4 -4.38995 0.134097 0
M  V30 2696 H 250.006 -3.8859 1.72852 0
M  V30 2697 N 248.321 -0.919034 -1.28029 0
M  V30 2698 C 249.567 -0.555757 -1.95036 0
M  V30 2699 C 249.9 0.899198 -1.72128 0
M  V30 2700 O 249.175 1.64023 -1.04531 0
M  V30 2701 C 249.458 -0.872024 -3.49382 0
M  V30 2702 C 249.311 -2.3801 -3.81669 0
M  V30 2703 C 250.63 -0.37185 -4.38526 0
M  V30 2704 H 247.749 -0.203386 -0.708381 0
M  V30 2705 H 250.391 -1.14924 -1.51303 0
M  V30 2706 H 248.541 -0.366946 -3.86763 0
M  V30 2707 H 250.213 -2.9562 -3.54128 0
M  V30 2708 H 248.456 -2.83289 -3.28526 0
M  V30 2709 H 249.127 -2.55192 -4.8947 0
M  V30 2710 H 251.603 -0.804602 -4.08247 0
M  V30 2711 H 250.479 -0.622173 -5.45362 0
M  V30 2712 H 250.74 0.727934 -4.36066 0
M  V30 2713 N 249.799 1.42003 -0.683588 0
M  V30 2714 C 250.731 2.29183 0.0283068 0
M  V30 2715 C 251.744 1.4415 0.756611 0
M  V30 2716 O 252.933 1.67779 0.609306 0
M  V30 2717 C 250.033 3.21765 1.06398 0
M  V30 2718 C 249.206 4.35496 0.407723 0
M  V30 2719 C 248.265 5.08737 1.34437 0
M  V30 2720 O 247.291 5.62948 0.841318 0
M  V30 2721 N 248.493 5.15075 2.67728 0
M  V30 2722 H 251.258 2.9092 -0.720105 0
M  V30 2723 H 248.819 1.53025 -0.528682 0
M  V30 2724 H 250.811 3.6763 1.69204 0
M  V30 2725 H 249.381 2.61418 1.71404 0
M  V30 2726 H 248.601 3.92165 -0.400012 0
M  V30 2727 H 249.889 5.08776 -0.0490956 0
M  V30 2728 H 249.287 4.72457 3.11129 0
M  V30 2729 H 247.844 5.64556 3.2576 0
M  V30 2730 N 251.277 0.427512 1.51691 0
M  V30 2731 C 252.526 -0.143679 2.01188 0
M  V30 2732 C 252.839 -1.44642 1.31674 0
M  V30 2733 O 254.045 -2.09997 1.72086 0
M  V30 2734 C 252.501 -0.306602 3.58592 0
M  V30 2735 C 252.109 0.985125 4.37035 0
M  V30 2736 C 253.853 -0.832091 4.16265 0
M  V30 2737 C 251.76 0.788382 5.86122 0
M  V30 2738 H 250.69 -0.0574701 0.751807 0
M  V30 2739 H 253.341 0.555772 1.74881 0
M  V30 2740 H 251.723 -1.06882 3.81303 0
M  V30 2741 H 252.897 1.75492 4.26074 0
M  V30 2742 H 251.212 1.4384 3.90767 0
M  V30 2743 H 253.809 -0.995617 5.25349 0
M  V30 2744 H 254.152 -1.81186 3.74803 0
M  V30 2745 H 254.685 -0.128444 3.97593 0
M  V30 2746 H 251.424 1.74025 6.31978 0
M  V30 2747 H 250.944 0.0582143 5.99772 0
M  V30 2748 H 252.623 0.437722 6.45518 0
M  V30 2749 N 252.755 -1.56801 0.158532 0
M  V30 2750 C 253.705 -2.13923 -0.788738 0
M  V30 2751 C 254.689 -1.07006 -1.2016 0
M  V30 2752 O 255.881 -1.33159 -1.1661 0
M  V30 2753 C 253.01 -2.77348 -2.02319 0
M  V30 2754 C 252.096 -3.91404 -1.6329 0
M  V30 2755 N 252.487 -4.9677 -0.951463 0
M  V30 2756 C 250.785 -4.02326 -1.92482 0
M  V30 2757 C 251.486 -5.76698 -0.761221 0
M  V30 2758 N 250.462 -5.27859 -1.29869 0
M  V30 2759 H 254.264 -2.92757 -0.258995 0
M  V30 2760 H 251.778 -1.62344 -0.0426055 0
M  V30 2761 H 253.775 -3.16639 -2.71192 0
M  V30 2762 H 252.435 -1.99991 -2.558 0
M  V30 2763 H 253.446 -5.14284 -0.610928 0
M  V30 2764 H 250.123 -3.36059 -2.47732 0
M  V30 2765 H 251.513 -6.71529 -0.223284 0
M  V30 2766 N 254.233 0.115231 -1.57178 0
M  V30 2767 C 255.51 0.852873 -1.76027 0
M  V30 2768 C 255.89 1.97892 -0.73498 0
M  V30 2769 O 255.238 2.27232 0.24036 0
M  V30 2770 C 255.448 1.36608 -3.21153 0
M  V30 2771 C 256.796 1.81692 -3.83762 0
M  V30 2772 O 257.82 1.46278 -3.24779 0
M  V30 2773 O 256.679 2.47104 -4.87444 0
M  V30 2774 H 253.773 0.405296 -0.720877 0
M  V30 2775 H 256.319 0.0986785 -1.69413 0
M  V30 2776 H 255.091 0.558357 -3.87296 0
M  V30 2777 H 254.714 2.18287 -3.3232 0
M  V30 2778 N 255.711 1.52812 0.385517 0
M  V30 2779 C 256.96 1.67249 1.12741 0
M  V30 2780 C 257.273 0.4205 1.91027 0
M  V30 2781 O 258.479 0.445064 2.67827 0
M  V30 2782 C 256.935 2.95583 2.05326 0
M  V30 2783 C 256.543 4.27974 1.32447 0
M  V30 2784 C 258.287 3.19386 2.7963 0
M  V30 2785 C 256.194 5.47412 2.23818 0
M  V30 2786 H 255.124 0.6231 0.424573 0
M  V30 2787 H 257.775 1.79309 0.389924 0
M  V30 2788 H 256.157 2.77277 2.82725 0
M  V30 2789 H 257.331 4.56844 0.602495 0
M  V30 2790 H 255.646 4.10459 0.700885 0
M  V30 2791 H 258.243 4.05801 3.48181 0
M  V30 2792 H 258.586 2.34604 3.43899 0
M  V30 2793 H 259.119 3.38274 2.09322 0
M  V30 2794 H 255.858 6.34612 1.64157 0
M  V30 2795 H 255.378 5.22849 2.93921 0
M  V30 2796 H 257.057 5.81423 2.83824 0
M  V30 2797 N 257.189 -0.644168 1.43834 0
M  V30 2798 C 258.417 -1.43147 1.49387 0
M  V30 2799 C 258.832 -1.88452 0.114583 0
M  V30 2800 O 258.189 -1.60047 -0.876989 0
M  V30 2801 C 258.24 -2.66046 2.44748 0
M  V30 2802 O 257.961 -2.22633 3.77314 0
M  V30 2803 C 259.462 -3.59311 2.59635 0
M  V30 2804 H 256.682 -0.439447 0.507077 0
M  V30 2805 H 259.226 -0.78895 1.88669 0
M  V30 2806 H 257.381 -3.26418 2.08638 0
M  V30 2807 H 257.795 -3.02216 4.28679 0
M  V30 2808 H 259.269 -4.42187 3.30416 0
M  V30 2809 H 259.746 -4.07259 1.64427 0
M  V30 2810 H 260.352 -3.04816 2.96593 0
M  V30 2811 N 258.668 -1.30515 -0.883378 0
M  V30 2812 C 259.916 -1.19194 -1.63209 0
M  V30 2813 C 260.237 0.253205 -1.93349 0
M  V30 2814 O 259.507 1.17025 -1.57105 0
M  V30 2815 H 258.087 -0.438148 -0.605009 0
M  V30 2816 H 260.749 -1.63663 -1.05832 0
M  V30 2817 H 259.845 -1.75396 -2.58153 0
M  V30 2818 N 260.146 1.09593 -1.13257 0
M  V30 2819 C 261.093 2.1618 -0.808381 0
M  V30 2820 C 262.063 1.64517 0.228754 0
M  V30 2821 O 263.248 1.9053 0.101381 0
M  V30 2822 C 260.388 3.43973 -0.278675 0
M  V30 2823 C 259.501 4.09545 -1.37466 0
M  V30 2824 C 258.636 5.25088 -0.803479 0
M  V30 2825 C 257.675 5.82579 -1.87799 0
M  V30 2826 N 256.812 6.89486 -1.32488 0
M  V30 2827 H 261.652 2.43254 -1.72138 0
M  V30 2828 H 259.189 1.19392 -0.859294 0
M  V30 2829 H 261.147 4.17174 0.0465583 0
M  V30 2830 H 259.777 3.17223 0.597459 0
M  V30 2831 H 258.829 3.34226 -1.81652 0
M  V30 2832 H 260.141 4.48307 -2.18684 0
M  V30 2833 H 259.295 6.05178 -0.429427 0
M  V30 2834 H 258.034 4.87684 0.0397956 0
M  V30 2835 H 257.039 5.01152 -2.26113 0
M  V30 2836 H 258.264 6.22045 -2.72463 0
M  V30 2837 H 256.21 6.54064 -0.503575 0
M  V30 2838 H 256.127 7.27007 -2.07355 0
M  V30 2839 H 257.395 7.73336 -0.978336 0
M  V30 2840 N 261.624 0.925811 1.2754 0
M  V30 2841 C 262.901 0.483726 1.89524 0
M  V30 2842 C 263.281 -1.03809 1.83812 0
M  V30 2843 O 262.629 -1.89143 1.28207 0
M  V30 2844 C 262.839 1.02769 3.33526 0
M  V30 2845 C 264.187 1.08703 4.10449 0
M  V30 2846 O 265.211 0.977175 3.42534 0
M  V30 2847 O 264.07 1.25599 5.31871 0
M  V30 2848 H 261.164 0.15529 0.812289 0
M  V30 2849 H 263.71 1.01738 1.35822 0
M  V30 2850 H 262.482 2.07155 3.31967 0
M  V30 2851 H 262.105 0.475567 3.94746 0
M  V30 2852 N 263.102 -1.41638 0.69111 0
M  V30 2853 C 264.342 -2.03166 0.224291 0
M  V30 2854 C 264.706 -1.53537 -1.15284 0
M  V30 2855 O 265.907 -2.0696 -1.71525 0
M  V30 2856 C 264.178 -3.56342 0.274758 0
M  V30 2857 S 265.737 -4.3864 -0.118669 0
M  V30 2858 H 262.555 -0.705188 0.0907263 0
M  V30 2859 H 265.157 -1.7314 0.907895 0
M  V30 2860 H 263.861 -3.89958 1.2791 0
M  V30 2861 H 263.392 -3.91063 -0.428142 0
M  V30 2862 H 265.407 -4.77549 -1.34764 0
M  V30 2863 N 264.58 -0.43555 -1.51462 0
M  V30 2864 C 265.512 0.41257 -2.25456 0
M  V30 2865 C 266.525 0.987822 -1.29406 0
M  V30 2866 O 267.714 0.882266 -1.55172 0
M  V30 2867 C 264.814 1.58894 -2.99342 0
M  V30 2868 C 263.987 1.13288 -4.22474 0
M  V30 2869 C 263.046 2.17917 -4.78956 0
M  V30 2870 O 262.072 1.77425 -5.40841 0
M  V30 2871 N 263.274 3.50382 -4.62832 0
M  V30 2872 H 266.039 -0.221603 -2.9888 0
M  V30 2873 H 263.6 -0.264342 -1.59727 0
M  V30 2874 H 265.592 2.28508 -3.34015 0
M  V30 2875 H 264.162 2.12849 -2.28941 0
M  V30 2876 H 263.382 0.263881 -3.93316 0
M  V30 2877 H 264.67 0.805542 -5.02383 0
M  V30 2878 H 264.068 3.86013 -4.13534 0
M  V30 2879 H 262.625 4.15895 -5.01871 0
M  V30 2880 N 266.058 1.56714 -0.166846 0
M  V30 2881 C 267.335 1.88412 0.525373 0
M  V30 2882 C 267.715 1.07602 1.81618 0
M  V30 2883 O 267.063 0.168621 2.27877 0
M  V30 2884 C 267.273 3.40363 0.771613 0
M  V30 2885 C 268.621 4.10007 1.1036 0
M  V30 2886 O 269.645 3.45655 0.860304 0
M  V30 2887 O 268.504 5.2369 1.56239 0
M  V30 2888 H 265.598 0.781587 0.270278 0
M  V30 2889 H 268.144 1.68458 -0.204946 0
M  V30 2890 H 266.916 3.91046 -0.141093 0
M  V30 2891 H 266.539 3.65914 1.55541 0
M  V30 2892 N 267.536 -0.106894 1.57237 0
M  V30 2893 C 268.785 -0.811163 1.8467 0
M  V30 2894 C 269.098 -1.80469 0.754342 0
M  V30 2895 O 270.304 -2.55601 0.915439 0
M  V30 2896 C 268.76 -1.49337 3.27454 0
M  V30 2897 C 268.368 -0.540217 4.44731 0
M  V30 2898 C 270.112 -2.18206 3.64124 0
M  V30 2899 C 268.019 -1.22634 5.78545 0
M  V30 2900 H 266.949 -0.306679 0.688813 0
M  V30 2901 H 269.6 -0.0639887 1.83388 0
M  V30 2902 H 267.982 -2.2876 3.23241 0
M  V30 2903 H 269.156 0.221659 4.60267 0
M  V30 2904 H 267.471 0.042146 4.16379 0
M  V30 2905 H 270.068 -2.70253 4.61376 0
M  V30 2906 H 270.411 -2.96562 2.92158 0
M  V30 2907 H 270.944 -1.45658 3.70174 0
M  V30 2908 H 267.683 -0.483832 6.53712 0
M  V30 2909 H 267.203 -1.95993 5.66874 0
M  V30 2910 H 268.882 -1.75615 6.2271 0
M  V30 2911 N 269.014 -1.53014 -0.377408 0
M  V30 2912 C 269.977 -1.77957 -1.44444 0
M  V30 2913 C 270.977 -0.649763 -1.47087 0
M  V30 2914 O 272.167 -0.917897 -1.48055 0
M  V30 2915 C 269.299 -1.89089 -2.83651 0
M  V30 2916 H 270.492 -2.73243 -1.23606 0
M  V30 2917 H 268.045 -1.43912 -0.609844 0
M  V30 2918 H 268.78 -0.958293 -3.09818 0
M  V30 2919 H 268.565 -2.71254 -2.83132 0
M  V30 2920 H 270.055 -2.1002 -3.60945 0
M  V30 2921 N 270.492 0.636531 -1.44174 0
M  V30 2922 C 271.44 1.76995 -1.50915 0
M  V30 2923 C 272.434 1.65053 -0.381295 0
M  V30 2924 O 273.64 1.71197 -0.55601 0
M  V30 2925 H 270.015 0.584247 -0.473455 0
M  V30 2926 H 271.986 1.68432 -2.4632 0
M  V30 2927 C 270.735 3.15314 -1.46534 0
M  V30 2928 H 270.058 3.25149 -2.32633 0
M  V30 2929 H 271.498 3.9453 -1.55312 0
M  V30 2930 C 269.957 3.3639 -0.185305 0
M  V30 2931 O 270.487 3.94699 0.746688 0
M  V30 2932 N 268.693 2.9046 -0.0901606 0
M  V30 2933 H 268.24 2.43193 -0.849416 0
M  V30 2934 H 268.198 3.04937 0.765553 0
M  V30 2935 N 271.97 1.30982 0.876444 0
M  V30 2936 C 272.917 1.18085 1.98304 0
M  V30 2937 C 273.887 0.0682263 1.6596 0
M  V30 2938 O 275.072 0.239937 1.89285 0
M  V30 2939 C 272.212 0.887475 3.33493 0
M  V30 2940 C 271.325 2.08281 3.78475 0
M  V30 2941 C 270.46 1.72678 5.0235 0
M  V30 2942 C 269.499 2.88657 5.39762 0
M  V30 2943 N 268.636 2.53292 6.54819 0
M  V30 2944 H 273.476 2.1275 2.08666 0
M  V30 2945 H 271.013 1.05839 1.02159 0
M  V30 2946 H 272.971 0.697961 4.1132 0
M  V30 2947 H 271.601 -0.022315 3.22792 0
M  V30 2948 H 270.653 2.3833 2.96484 0
M  V30 2949 H 271.965 2.95108 4.02135 0
M  V30 2950 H 271.119 1.50151 5.87826 0
M  V30 2951 H 269.858 0.830327 4.8058 0
M  V30 2952 H 268.863 3.1184 4.52809 0
M  V30 2953 H 270.088 3.79002 5.63502 0
M  V30 2954 H 268.034 1.66163 6.34607 0
M  V30 2955 H 267.951 3.3365 6.7839 0
M  V30 2956 H 269.219 2.34143 7.43503 0
M  V30 2957 N 273.449 -1.08991 1.13837 0
M  V30 2958 C 274.697 -1.80899 0.901098 0
M  V30 2959 C 275.018 -1.86356 -0.574134 0
M  V30 2960 O 274.288 -1.35235 -1.41733 0
M  V30 2961 H 272.868 -0.669966 0.330386 0
M  V30 2962 H 275.53 -1.318 1.43578 0
M  V30 2963 H 274.626 -2.83929 1.29578 0
M  V30 2964 N 274.927 -0.932562 -1.27047 0
M  V30 2965 C 275.89 -0.440064 -2.24936 0
M  V30 2966 C 276.89 0.444071 -1.54547 0
M  V30 2967 O 278.08 0.244465 -1.72476 0
M  V30 2968 C 275.212 0.36678 -3.38921 0
M  V30 2969 H 276.405 -1.305 -2.70018 0
M  V30 2970 H 273.958 -0.713707 -1.39054 0
M  V30 2971 H 274.693 1.25033 -2.99228 0
M  V30 2972 H 274.478 -0.267204 -3.91188 0
M  V30 2973 H 275.968 0.701567 -4.11665 0
M  V30 2974 N 276.405 1.4127 -0.698611 0
M  V30 2975 C 277.352 2.30773 -0.0352094 0
M  V30 2976 C 278.322 1.47273 0.768111 0
M  V30 2977 O 279.507 1.76053 0.735524 0
M  V30 2978 C 276.647 3.33346 0.893 0
M  V30 2979 C 275.76 4.31924 0.0809695 0
M  V30 2980 C 274.895 5.21566 1.0071 0
M  V30 2981 C 273.934 6.11811 0.188155 0
M  V30 2982 N 273.071 6.93926 1.06825 0
M  V30 2983 H 277.911 2.86943 -0.804207 0
M  V30 2984 H 275.448 1.4132 -0.408294 0
M  V30 2985 H 277.406 3.91368 1.44523 0
M  V30 2986 H 276.036 2.78719 1.62836 0
M  V30 2987 H 275.088 3.75825 -0.588224 0
M  V30 2988 H 276.4 4.95716 -0.553801 0
M  V30 2989 H 275.554 5.84437 1.62845 0
M  V30 2990 H 274.293 4.58008 1.67572 0
M  V30 2991 H 273.298 5.47986 -0.446254 0
M  V30 2992 H 274.523 6.77425 -0.476716 0
M  V30 2993 H 272.469 6.32973 1.72283 0
M  V30 2994 H 272.386 7.54416 0.489123 0
M  V30 2995 H 273.654 7.61262 1.67632 0
M  V30 2996 N 277.883 0.443576 1.51229 0
M  V30 2997 C 278.815 -0.400608 2.25672 0
M  V30 2998 C 279.828 -0.980945 1.29928 0
M  V30 2999 O 281.017 -0.874024 1.55638 0
M  V30 3000 C 278.117 -1.57304 3.00181 0
M  V30 3001 C 277.29 -1.11046 4.23069 0
M  V30 3002 C 276.349 -2.15374 4.80105 0
M  V30 3003 O 275.375 -1.74554 5.41774 0
M  V30 3004 N 276.577 -3.47922 4.64683 0
M  V30 3005 H 279.342 0.23745 2.98758 0
M  V30 3006 H 276.903 0.272809 1.59585 0
M  V30 3007 H 278.895 -2.26733 3.35223 0
M  V30 3008 H 277.465 -2.11632 2.30066 0
M  V30 3009 H 276.685 -0.243019 3.9345 0
M  V30 3010 H 277.973 -0.778888 5.02803 0
M  V30 3011 H 277.371 -3.83815 4.15575 0
M  V30 3012 H 275.928 -4.13228 5.0407 0
M  V30 3013 N 279.361 -1.56624 0.175154 0
M  V30 3014 C 280.586 -2.01813 -0.478137 0
M  V30 3015 C 281.011 -1.05457 -1.55757 0
M  V30 3016 O 280.369 -0.0347439 -1.81267 0
M  V30 3017 C 280.417 -3.45581 -1.02987 0
M  V30 3018 O 279.521 -3.52305 -2.14371 0
M  V30 3019 H 278.862 -0.65413 -0.114059 0
M  V30 3020 H 281.392 -2.02673 0.280173 0
M  V30 3021 H 281.402 -3.84965 -1.35151 0
M  V30 3022 H 280.077 -4.1521 -0.239556 0
M  V30 3023 H 278.654 -3.24783 -1.83222 0
M  V30 3024 N 280.839 0.0985539 -1.57292 0
M  V30 3025 C 282.087 0.801092 -1.85545 0
M  V30 3026 C 282.408 1.79438 -0.763353 0
M  V30 3027 O 281.678 1.94763 0.21073 0
M  V30 3028 H 280.258 0.29884 -0.684619 0
M  V30 3029 H 282.92 0.0810064 -1.94732 0
M  V30 3030 H 282.016 1.3338 -2.82163 0
M  V30 3031 N 282.317 1.53212 0.369288 0
M  V30 3032 C 283.247 1.82365 1.45826 0
M  V30 3033 C 284.228 0.676907 1.56051 0
M  V30 3034 O 285.413 0.926401 1.70679 0
M  V30 3035 C 282.543 2.01023 2.83208 0
M  V30 3036 C 281.497 3.1678 2.8781 0
M  V30 3037 C 280.823 3.20724 4.27832 0
M  V30 3038 C 282.123 4.55447 2.55667 0
M  V30 3039 H 283.817 2.73559 1.21678 0
M  V30 3040 H 281.363 1.3163 0.583911 0
M  V30 3041 H 283.316 2.20001 3.59413 0
M  V30 3042 H 282.04 1.06536 3.08736 0
M  V30 3043 H 280.699 2.97616 2.14056 0
M  V30 3044 H 280.347 2.23882 4.50429 0
M  V30 3045 H 280.047 3.98496 4.31827 0
M  V30 3046 H 281.571 3.41881 5.05915 0
M  V30 3047 H 282.985 4.74611 3.21586 0
M  V30 3048 H 281.382 5.35432 2.70984 0
M  V30 3049 H 282.452 4.60812 1.5093 0
M  V30 3050 N 283.795 -0.628877 1.44509 0
M  V30 3051 C 285.025 -1.41349 1.50678 0
M  V30 3052 C 285.433 -1.88745 0.131075 0
M  V30 3053 O 284.776 -1.61592 -0.87371 0
M  V30 3054 C 284.838 -2.66608 2.41165 0
M  V30 3055 C 284.502 -2.40993 3.88293 0
M  V30 3056 C 285.499 -2.0268 4.78766 0
M  V30 3057 C 283.184 -2.54563 4.33016 0
M  V30 3058 C 285.178 -1.78269 6.11963 0
M  V30 3059 C 282.865 -2.29766 5.6626 0
M  V30 3060 C 283.863 -1.91678 6.55552 0
M  V30 3061 O 283.551 -1.67158 7.86329 0
M  V30 3062 H 283.283 -0.439851 0.51333 0
M  V30 3063 H 285.837 -0.776084 1.90174 0
M  V30 3064 H 284.067 -3.32994 1.96601 0
M  V30 3065 H 285.756 -3.28615 2.38259 0
M  V30 3066 H 286.522 -1.91751 4.45485 0
M  V30 3067 H 282.401 -2.83179 3.63773 0
M  V30 3068 H 285.945 -1.48465 6.81619 0
M  V30 3069 H 281.842 -2.40306 5.99102 0
M  V30 3070 H 282.61 -1.81386 7.98149 0
M  V30 3071 N 285.273 -1.31445 -0.869486 0
M  V30 3072 C 286.52 -1.21158 -1.62256 0
M  V30 3073 C 286.848 0.230155 -1.93133 0
M  V30 3074 O 286.103 1.17906 -1.56194 0
M  V30 3075 C 286.402 -2.00145 -2.96102 0
M  V30 3076 C 286.068 -3.4964 -2.84715 0
M  V30 3077 C 284.73 -3.90403 -2.81317 0
M  V30 3078 C 287.082 -4.44769 -2.71716 0
M  V30 3079 C 284.41 -5.24561 -2.62778 0
M  V30 3080 C 286.762 -5.79054 -2.54714 0
M  V30 3081 C 285.426 -6.19037 -2.49699 0
M  V30 3082 H 284.696 -0.443348 -0.593737 0
M  V30 3083 H 287.343 -1.62715 -1.00976 0
M  V30 3084 H 285.648 -1.5127 -3.6142 0
M  V30 3085 H 287.345 -1.89566 -3.53363 0
M  V30 3086 H 283.935 -3.17256 -2.88178 0
M  V30 3087 H 288.119 -4.14208 -2.73397 0
M  V30 3088 H 283.375 -5.54613 -2.57321 0
M  V30 3089 H 287.549 -6.52393 -2.43632 0
M  V30 3090 H 285.176 -7.22935 -2.35093 0
M  V30 3091 N 286.751 1.08385 -1.14413 0
M  V30 3092 C 288 1.80153 -0.907076 0
M  V30 3093 C 288.313 1.87176 0.567851 0
M  V30 3094 O 289.519 2.55359 0.922172 0
M  V30 3095 C 287.975 3.23687 -1.57336 0
M  V30 3096 C 287.583 3.24897 -3.08457 0
M  V30 3097 C 289.327 4.00136 -1.41744 0
M  V30 3098 C 287.234 4.6302 -3.67921 0
M  V30 3099 H 286.164 0.675139 -0.335714 0
M  V30 3100 H 288.815 1.21733 -1.37307 0
M  V30 3101 H 287.197 3.82234 -1.03505 0
M  V30 3102 H 288.371 2.76055 -3.68958 0
M  V30 3103 H 286.686 2.61943 -3.2369 0
M  V30 3104 H 289.283 5.02201 -1.83572 0
M  V30 3105 H 289.626 4.14709 -0.363576 0
M  V30 3106 H 290.159 3.48058 -1.92614 0
M  V30 3107 H 286.898 4.5365 -4.73161 0
M  V30 3108 H 286.418 5.12143 -3.12201 0
M  V30 3109 H 288.097 5.31994 -3.68227 0
M  V30 3110 N 288.23 0.939286 1.26551 0
M  V30 3111 C 289.177 0.446088 2.26448 0
M  V30 3112 C 290.147 -0.493234 1.58608 0
M  V30 3113 O 291.332 -0.409857 1.86346 0
M  V30 3114 C 288.472 -0.284375 3.43926 0
M  V30 3115 C 287.585 0.690399 4.26448 0
M  V30 3116 C 286.72 -0.0610712 5.31165 0
M  V30 3117 C 285.759 0.905649 6.05363 0
M  V30 3118 N 284.896 0.186055 7.01853 0
M  V30 3119 H 289.736 1.30291 2.68008 0
M  V30 3120 H 287.273 0.65371 1.31776 0
M  V30 3121 H 289.231 -0.724313 4.10864 0
M  V30 3122 H 287.861 -1.10535 3.03285 0
M  V30 3123 H 286.913 1.24885 3.59316 0
M  V30 3124 H 288.225 1.42873 4.779 0
M  V30 3125 H 287.379 -0.56038 6.04106 0
M  V30 3126 H 286.118 -0.832297 4.80546 0
M  V30 3127 H 285.123 1.4161 5.3125 0
M  V30 3128 H 286.348 1.67685 6.58072 0
M  V30 3129 H 284.294 -0.566714 6.53548 0
M  V30 3130 H 284.211 0.863752 7.51049 0
M  V30 3131 H 285.479 -0.292221 7.78952 0
M  V30 3132 N 289.708 -1.40897 0.706093 0
M  V30 3133 C 291.119 -1.84023 0.315052 0
M  V30 3134 C 291.47 -1.5906 -1.14866 0
M  V30 3135 O 290.595 -1.06651 -1.88293 0
M  V30 3136 C 291.19 -3.34055 0.565038 0
M  V30 3137 C 289.749 -3.7571 0.227806 0
M  V30 3138 C 288.896 -2.64204 0.842122 0
M  V30 3139 H 291.847 -1.303 0.905963 0
M  V30 3140 H 291.868 -3.80107 -0.172843 0
M  V30 3141 H 291.38 -3.52192 1.63042 0
M  V30 3142 H 289.481 -3.63172 -0.832895 0
M  V30 3143 H 289.594 -4.74103 0.690174 0
M  V30 3144 H 287.958 -2.53255 0.270893 0
M  V30 3145 H 288.741 -2.85155 1.91158 0
M  V30 3146 N 291.186 -0.45159 -1.50991 0
M  V30 3147 C 292.116 0.342898 -2.30969 0
M  V30 3148 C 293.097 1.00815 -1.37005 0
M  V30 3149 O 294.282 1.00907 -1.65926 0
M  V30 3150 C 291.412 1.43637 -3.16205 0
M  V30 3151 C 290.366 0.893818 -4.18563 0
M  V30 3152 C 289.692 2.08411 -4.92411 0
M  V30 3153 C 290.992 -0.0815568 -5.22236 0
M  V30 3154 H 292.686 -0.324556 -2.97636 0
M  V30 3155 H 290.232 -0.157531 -1.43136 0
M  V30 3156 H 292.185 1.9995 -3.70942 0
M  V30 3157 H 290.909 2.13232 -2.47386 0
M  V30 3158 H 289.568 0.352798 -3.64898 0
M  V30 3159 H 289.216 2.76658 -4.20082 0
M  V30 3160 H 288.916 1.72741 -5.61636 0
M  V30 3161 H 290.44 2.65251 -5.49976 0
M  V30 3162 H 291.854 0.391742 -5.7196 0
M  V30 3163 H 290.251 -0.351551 -5.99069 0
M  V30 3164 H 291.321 -1.01374 -4.74185 0
M  V30 3165 N 292.664 1.56529 -0.183458 0
M  V30 3166 C 293.611 2.18546 0.742055 0
M  V30 3167 C 294.581 1.12912 1.2182 0
M  V30 3168 O 295.766 1.41115 1.28418 0
M  V30 3169 C 292.906 2.83977 1.96089 0
M  V30 3170 C 292.019 4.04105 1.52719 0
M  V30 3171 C 291.154 4.57427 2.70063 0
M  V30 3172 C 290.193 5.69938 2.23243 0
M  V30 3173 N 289.33 6.17717 3.33722 0
M  V30 3174 H 294.17 2.97284 0.206432 0
M  V30 3175 H 291.707 1.46823 0.0901571 0
M  V30 3176 H 293.665 3.20077 2.67594 0
M  V30 3177 H 292.295 2.07822 2.47002 0
M  V30 3178 H 291.347 3.73745 0.708436 0
M  V30 3179 H 292.659 4.85513 1.1436 0
M  V30 3180 H 291.813 4.95772 3.49708 0
M  V30 3181 H 290.552 3.75101 3.11689 0
M  V30 3182 H 289.557 5.31133 1.42048 0
M  V30 3183 H 290.782 6.54073 1.82661 0
M  V30 3184 H 288.728 5.38317 3.74902 0
M  V30 3185 H 288.645 6.94146 2.99495 0
M  V30 3186 H 289.913 6.60713 4.13616 0
M  V30 3187 N 294.142 -0.090211 1.57342 0
M  V30 3188 C 295.105 -1.09335 2.01441 0
M  V30 3189 C 296.105 -1.32666 0.908641 0
M  V30 3190 O 297.295 -1.28697 1.174 0
M  V30 3191 C 294.427 -2.44136 2.3793 0
M  V30 3192 H 295.62 -0.713662 2.91285 0
M  V30 3193 H 293.173 -0.335404 1.52659 0
M  V30 3194 H 293.908 -2.86972 1.51055 0
M  V30 3195 H 293.693 -2.28548 3.18603 0
M  V30 3196 H 295.183 -3.16277 2.72688 0
M  V30 3197 N 295.62 -1.53406 -0.361157 0
M  V30 3198 C 296.568 -1.80832 -1.46296 0
M  V30 3199 C 297.562 -0.677699 -1.55253 0
M  V30 3200 O 298.768 -0.860723 -1.58087 0
M  V30 3201 H 295.143 -0.572627 -0.487445 0
M  V30 3202 H 297.114 -2.73045 -1.20371 0
M  V30 3203 C 295.863 -2.01907 -2.8307 0
M  V30 3204 H 295.186 -2.88349 -2.76938 0
M  V30 3205 H 296.626 -2.25072 -3.59331 0
M  V30 3206 C 295.085 -0.799449 -3.27277 0
M  V30 3207 O 295.615 0.00971761 -4.01699 0
M  V30 3208 N 293.821 -0.621637 -2.83873 0
M  V30 3209 H 293.368 -1.28126 -2.23476 0
M  V30 3210 H 293.326 0.19298 -3.13807 0
M  V30 3211 N 297.098 0.621204 -1.44841 0
M  V30 3212 C 298.03 1.74615 -1.48466 0
M  V30 3213 C 299.043 1.58377 -0.37691 0
M  V30 3214 O 300.232 1.66508 -0.643215 0
M  V30 3215 C 297.332 3.12459 -1.31236 0
M  V30 3216 C 296.505 3.55064 -2.55438 0
M  V30 3217 C 295.564 4.71821 -2.32963 0
M  V30 3218 O 294.59 4.79628 -3.06505 0
M  V30 3219 N 295.792 5.64186 -1.36654 0
M  V30 3220 H 298.557 1.71973 -2.45449 0
M  V30 3221 H 296.118 0.806077 -1.40407 0
M  V30 3222 H 298.11 3.88302 -1.14032 0
M  V30 3223 H 296.68 3.09686 -0.4258 0
M  V30 3224 H 295.9 2.69324 -2.87851 0
M  V30 3225 H 297.188 3.80284 -3.38026 0
M  V30 3226 H 296.586 5.6058 -0.759344 0
M  V30 3227 H 295.143 6.39618 -1.25425 0
M  V30 3228 N 298.576 1.31904 0.862503 0
M  V30 3229 C 299.508 1.16005 1.97675 0
M  V30 3230 C 300.521 0.0971234 1.6251 0
M  V30 3231 O 301.71 0.345337 1.75128 0
M  V30 3232 C 298.81 0.751791 3.30456 0
M  V30 3233 C 297.983 1.90133 3.93914 0
M  V30 3234 C 297.042 1.4779 5.05019 0
M  V30 3235 O 296.068 2.18872 5.25437 0
M  V30 3236 N 297.27 0.369491 5.79323 0
M  V30 3237 H 300.035 2.11982 2.11857 0
M  V30 3238 H 297.596 1.24337 1.03691 0
M  V30 3239 H 299.588 0.451084 4.02178 0
M  V30 3240 H 298.158 -0.116593 3.12382 0
M  V30 3241 H 297.378 2.36896 3.15078 0
M  V30 3242 H 298.666 2.67111 4.33047 0
M  V30 3243 H 298.064 -0.222299 5.65263 0
M  V30 3244 H 296.621 0.128354 6.51674 0
M  V30 3245 N 300.054 -1.07777 1.14986 0
M  V30 3246 C 301.301 -1.8029 0.922056 0
M  V30 3247 C 301.629 -1.86531 -0.55105 0
M  V30 3248 O 300.884 -1.34189 -1.42449 0
M  V30 3249 C 301.183 -3.25495 1.47608 0
M  V30 3250 C 300.849 -3.39361 2.96893 0
M  V30 3251 C 299.511 -3.42852 3.37647 0
M  V30 3252 C 301.863 -3.42512 3.92854 0
M  V30 3253 C 299.191 -3.47094 4.73015 0
M  V30 3254 C 301.543 -3.4829 5.28088 0
M  V30 3255 C 300.207 -3.50058 5.68345 0
M  V30 3256 H 299.477 -0.659727 0.337404 0
M  V30 3257 H 302.124 -1.26854 1.43459 0
M  V30 3258 H 300.429 -3.81683 0.88463 0
M  V30 3259 H 302.126 -3.80168 1.27568 0
M  V30 3260 H 298.716 -3.37339 2.64387 0
M  V30 3261 H 302.9 -3.3904 3.62444 0
M  V30 3262 H 298.156 -3.46758 5.03556 0
M  V30 3263 H 302.33 -3.49675 6.02246 0
M  V30 3264 H 299.957 -3.53097 6.73221 0
M  V30 3265 N 301.532 -0.945985 -1.26051 0
M  V30 3266 C 302.462 -0.477172 -2.28572 0
M  V30 3267 C 303.443 0.472032 -1.63419 0
M  V30 3268 O 304.628 0.372853 -1.90587 0
M  V30 3269 C 301.758 0.253975 -3.4637 0
M  V30 3270 C 300.712 -0.609135 -4.23643 0
M  V30 3271 C 300.038 0.252252 -5.34105 0
M  V30 3272 C 301.338 -1.8829 -4.8718 0
M  V30 3273 H 303.032 -1.33402 -2.68038 0
M  V30 3274 H 300.578 -0.642904 -1.28852 0
M  V30 3275 H 302.531 0.593016 -4.17207 0
M  V30 3276 H 301.255 1.145 -3.05871 0
M  V30 3277 H 299.914 -0.931138 -3.54578 0
M  V30 3278 H 299.562 1.14278 -4.89846 0
M  V30 3279 H 299.262 -0.32188 -5.86718 0
M  V30 3280 H 300.786 0.586454 -6.07777 0
M  V30 3281 H 302.2 -1.61081 -5.50205 0
M  V30 3282 H 300.597 -2.40199 -5.49931 0
M  V30 3283 H 301.667 -2.59134 -4.09851 0
M  V30 3284 N 303.011 1.40521 -0.713556 0
M  V30 3285 C 304.257 2.01221 -0.252564 0
M  V30 3286 C 304.59 1.56444 1.1506 0
M  V30 3287 O 303.865 0.783597 1.78017 0
M  V30 3288 C 304.148 3.58582 -0.330332 0
M  V30 3289 C 304.001 4.13437 -1.77173 0
M  V30 3290 C 305.32 4.39079 0.299641 0
M  V30 3291 H 302.439 0.731077 -0.0932471 0
M  V30 3292 H 305.081 1.67026 -0.905673 0
M  V30 3293 H 303.231 3.87844 0.225737 0
M  V30 3294 H 304.903 3.9498 -2.38303 0
M  V30 3295 H 303.146 3.67801 -2.3001 0
M  V30 3296 H 303.817 5.22597 -1.77755 0
M  V30 3297 H 306.293 4.15735 -0.174139 0
M  V30 3298 H 305.169 5.4848 0.214771 0
M  V30 3299 H 305.43 4.19915 1.38288 0
M  V30 3300 N 304.489 0.459591 1.5075 0
M  V30 3301 C 305.719 -0.0972338 2.06371 0
M  V30 3302 C 306.127 -1.35074 1.32483 0
M  V30 3303 O 305.47 -1.79637 0.384226 0
M  V30 3304 C 305.532 -0.462759 3.56509 0
M  V30 3305 C 305.196 0.687084 4.51805 0
M  V30 3306 C 306.193 1.56578 4.95761 0
M  V30 3307 C 303.878 0.874144 4.94635 0
M  V30 3308 C 305.872 2.61604 5.81242 0
M  V30 3309 C 303.559 1.92765 5.79901 0
M  V30 3310 C 304.557 2.79697 6.23104 0
M  V30 3311 O 304.245 3.83235 7.06673 0
M  V30 3312 H 303.977 -0.00140687 0.675999 0
M  V30 3313 H 306.531 0.644011 1.95043 0
M  V30 3314 H 304.761 -1.25703 3.65699 0
M  V30 3315 H 306.45 -0.953323 3.94546 0
M  V30 3316 H 307.216 1.4329 4.6335 0
M  V30 3317 H 303.095 0.207006 4.60535 0
M  V30 3318 H 306.639 3.29489 6.14884 0
M  V30 3319 H 302.536 2.06064 6.11725 0
M  V30 3320 H 303.304 3.80084 7.24899 0
M  V30 3321 N 305.967 -1.56429 0.191757 0
M  V30 3322 C 307.207 -1.99383 -0.450099 0
M  V30 3323 C 307.571 -1.07581 -1.59029 0
M  V30 3324 O 308.772 -1.39758 -2.29611 0
M  V30 3325 C 307.043 -3.45841 -0.901611 0
M  V30 3326 S 308.602 -4.10822 -1.54177 0
M  V30 3327 H 305.42 -0.696253 -0.144057 0
M  V30 3328 H 308.022 -1.93276 0.294036 0
M  V30 3329 H 306.726 -4.10354 -0.0616596 0
M  V30 3330 H 306.257 -3.55757 -1.67929 0
M  V30 3331 H 308.272 -4.07553 -2.83046 0
M  V30 3332 N 307.445 0.0818655 -1.57387 0
M  V30 3333 C 308.355 1.11642 -2.06333 0
M  V30 3334 C 309.371 1.43033 -0.99083 0
M  V30 3335 O 310.547 1.53411 -1.30488 0
M  V30 3336 C 307.612 2.41342 -2.48907 0
M  V30 3337 C 306.673 2.17014 -3.7041 0
M  V30 3338 C 305.906 3.4053 -4.10944 0
M  V30 3339 O 306.129 4.4927 -3.51444 0
M  V30 3340 O 305.063 3.29336 -5.03807 0
M  V30 3341 H 308.889 0.730657 -2.9478 0
M  V30 3342 H 306.474 0.295301 -1.46452 0
M  V30 3343 H 308.356 3.17691 -2.76858 0
M  V30 3344 H 307.031 2.79319 -1.63593 0
M  V30 3345 H 305.938 1.38403 -3.47556 0
M  V30 3346 H 307.271 1.83923 -4.56545 0
M  V30 3347 N 308.923 1.53595 0.353017 0
M  V30 3348 C 310.172 1.69603 1.09168 0
M  V30 3349 C 310.485 0.460925 1.90092 0
M  V30 3350 O 311.691 0.501774 2.66823 0
M  V30 3351 C 310.147 2.99872 1.9901 0
M  V30 3352 C 309.755 4.30687 1.23339 0
M  V30 3353 C 311.499 3.25246 2.72792 0
M  V30 3354 C 309.406 5.52036 2.12156 0
M  V30 3355 H 308.336 0.631966 0.411261 0
M  V30 3356 H 310.987 1.80096 0.351802 0
M  V30 3357 H 309.369 2.83212 2.7678 0
M  V30 3358 H 310.543 4.58019 0.505456 0
M  V30 3359 H 308.858 4.11853 0.613663 0
M  V30 3360 H 311.455 4.13095 3.39495 0
M  V30 3361 H 311.798 2.41846 3.38846 0
M  V30 3362 H 312.331 3.42638 2.021 0
M  V30 3363 H 309.07 6.37951 1.50659 0
M  V30 3364 H 308.59 5.28966 2.82764 0
M  V30 3365 H 310.269 5.87313 2.71427 0
M  V30 3366 N 310.401 -0.613514 1.45168 0
M  V30 3367 C 311.678 -1.37263 1.39349 0
M  V30 3368 C 312.058 -2.11012 0.0610848 0
M  V30 3369 O 311.406 -2.07502 -0.956825 0
M  V30 3370 C 311.616 -2.3244 2.60332 0
M  V30 3371 C 312.964 -2.9523 3.05163 0
M  V30 3372 O 313.988 -2.42762 2.60663 0
M  V30 3373 O 312.847 -3.90454 3.82372 0
M  V30 3374 H 309.941 -0.615188 0.552696 0
M  V30 3375 H 312.487 -0.637097 1.57287 0
M  V30 3376 H 311.259 -1.77164 3.48896 0
M  V30 3377 H 310.882 -3.13383 2.44698 0
M  V30 3378 N 311.879 -1.3236 -0.855495 0
M  V30 3379 C 313.127 -1.22629 -1.60644 0
M  V30 3380 C 313.448 0.212136 -1.93843 0
M  V30 3381 O 312.718 1.13666 -1.59552 0
M  V30 3382 H 311.298 -0.450882 -0.595579 0
M  V30 3383 H 313.96 -1.65871 -1.02337 0
M  V30 3384 H 313.056 -1.80832 -2.54374 0
M  V30 3385 N 313.357 1.07166 -1.15556 0
M  V30 3386 C 314.582 1.84053 -0.955988 0
M  V30 3387 C 315.007 1.81586 0.490739 0
M  V30 3388 O 314.365 1.21018 1.34997 0
M  V30 3389 C 314.413 3.28957 -1.47714 0
M  V30 3390 O 313.517 4.06795 -0.677593 0
M  V30 3391 H 312.858 0.569842 -0.340847 0
M  V30 3392 H 315.388 1.35178 -1.53584 0
M  V30 3393 H 315.398 3.79788 -1.4908 0
M  V30 3394 H 314.073 3.30068 -2.53037 0
M  V30 3395 H 312.65 3.6561 -0.733721 0
M  V30 3396 N 314.835 0.952656 1.25548 0
M  V30 3397 C 316.083 0.605176 1.92826 0
M  V30 3398 C 316.404 -0.860261 1.74999 0
M  V30 3399 O 315.674 -1.6125 1.11244 0
M  V30 3400 H 314.254 0.220832 0.713612 0
M  V30 3401 H 316.916 1.21047 1.52754 0
M  V30 3402 H 316.012 0.832798 3.00784 0
M  V30 3403 N 316.313 -1.40141 0.720998 0
M  V30 3404 C 317.261 -2.3252 0.0608547 0
M  V30 3405 C 318.255 -1.52326 -0.741152 0
M  V30 3406 O 319.461 -1.68089 -0.643911 0
M  V30 3407 H 315.836 -0.751999 0.000876664 0
M  V30 3408 H 317.807 -2.8584 0.856614 0
M  V30 3409 C 316.556 -3.37331 -0.842809 0
M  V30 3410 H 315.879 -3.99108 -0.235084 0
M  V30 3411 H 317.319 -4.04452 -1.27257 0
M  V30 3412 C 315.778 -2.73246 -1.97074 0
M  V30 3413 O 316.308 -2.59998 -3.06209 0
M  V30 3414 N 314.514 -2.31547 -1.75597 0
M  V30 3415 H 314.061 -2.42522 -0.868368 0
M  V30 3416 H 314.019 -1.89007 -2.51244 0
M  V30 3417 N 317.792 -0.46758 -1.50504 0
M  V30 3418 C 319.04 0.0884469 -2.01906 0
M  V30 3419 C 319.361 1.40532 -1.35188 0
M  V30 3420 O 318.631 1.89515 -0.496079 0
M  V30 3421 H 317.211 0.0356765 -0.746148 0
M  V30 3422 H 319.873 -0.6172 -1.84869 0
M  V30 3423 H 318.969 0.2425 -3.11156 0
M  V30 3424 N 319.27 1.56325 -0.20005 0
M  V30 3425 C 320.516 1.98772 0.431408 0
M  V30 3426 C 320.871 1.0849 1.58895 0
M  V30 3427 O 320.164 0.130331 1.91156 0
M  V30 3428 C 320.358 3.4495 0.935103 0
M  V30 3429 C 320.187 4.49371 -0.172096 0
M  V30 3430 C 318.957 5.0134 -0.631377 0
M  V30 3431 C 321.155 5.04822 -0.982806 0
M  V30 3432 N 319.137 5.89433 -1.71588 0
M  V30 3433 C 320.508 5.89632 -1.91661 0
M  V30 3434 C 322.563 4.87242 -1.02467 0
M  V30 3435 C 321.266 6.58741 -2.88881 0
M  V30 3436 C 323.292 5.57094 -1.98494 0
M  V30 3437 C 322.654 6.41655 -2.90617 0
M  V30 3438 H 318.753 0.771922 0.125144 0
M  V30 3439 H 321.337 1.92266 -0.306883 0
M  V30 3440 H 319.508 3.51946 1.64282 0
M  V30 3441 H 321.24 3.74354 1.53758 0
M  V30 3442 H 317.995 4.73071 -0.223827 0
M  V30 3443 H 318.419 6.38182 -2.25948 0
M  V30 3444 H 323.061 4.21538 -0.326408 0
M  V30 3445 H 320.779 7.23641 -3.5968 0
M  V30 3446 H 324.365 5.45466 -2.0238 0
M  V30 3447 H 323.245 6.94755 -3.63711 0
M  V30 3448 N 320.748 -0.0735177 1.57428 0
M  V30 3449 C 321.976 -0.785969 1.9139 0
M  V30 3450 C 322.391 -1.71207 0.795847 0
M  V30 3451 O 321.748 -1.81033 -0.230915 0
M  V30 3452 C 321.799 -1.58107 3.25091 0
M  V30 3453 O 321.52 -0.6922 4.32597 0
M  V30 3454 C 323.021 -2.39467 3.73055 0
M  V30 3455 H 320.241 -0.223558 0.632663 0
M  V30 3456 H 322.785 -0.044302 2.04452 0
M  V30 3457 H 320.94 -2.27503 3.13562 0
M  V30 3458 H 321.354 -1.24504 5.09508 0
M  V30 3459 H 322.828 -2.90716 4.69242 0
M  V30 3460 H 323.305 -3.18913 3.01979 0
M  V30 3461 H 323.911 -1.7523 3.87523 0
M  V30 3462 N 322.226 -1.5378 -0.344866 0
M  V30 3463 C 323.472 -1.71216 -1.08687 0
M  V30 3464 C 323.805 -0.473281 -1.88345 0
M  V30 3465 O 323.08 0.52968 -1.87149 0
M  V30 3466 C 323.363 -2.97486 -2.02914 0
M  V30 3467 C 323.216 -4.31579 -1.26727 0
M  V30 3468 C 324.535 -3.19422 -3.0275 0
M  V30 3469 H 321.654 -0.62301 -0.393735 0
M  V30 3470 H 324.296 -1.8645 -0.365563 0
M  V30 3471 H 322.446 -2.84629 -2.64421 0
M  V30 3472 H 324.118 -4.56284 -0.67845 0
M  V30 3473 H 322.361 -4.30049 -0.569273 0
M  V30 3474 H 323.032 -5.16106 -1.95803 0
M  V30 3475 H 325.508 -3.316 -2.51357 0
M  V30 3476 H 324.384 -4.09169 -3.65885 0
M  V30 3477 H 324.645 -2.35656 -3.74057 0
M  V30 3478 N 323.704 0.605807 -1.45491 0
M  V30 3479 C 324.951 1.36476 -1.49601 0
M  V30 3480 C 325.279 1.94007 -0.138452 0
M  V30 3481 O 324.534 1.75638 0.863114 0
M  V30 3482 C 324.833 2.53012 -2.52428 0
M  V30 3483 C 324.499 2.13617 -3.97087 0
M  V30 3484 C 323.161 2.02587 -4.36477 0
M  V30 3485 C 325.513 1.82899 -4.88055 0
M  V30 3486 C 322.841 1.59064 -5.64726 0
M  V30 3487 C 325.193 1.40861 -6.16718 0
M  V30 3488 C 323.857 1.28391 -6.55036 0
M  V30 3489 H 323.127 0.499402 -0.547429 0
M  V30 3490 H 325.774 0.684546 -1.78847 0
M  V30 3491 H 324.079 3.26379 -2.16758 0
M  V30 3492 H 325.776 3.1124 -2.52845 0
M  V30 3493 H 322.366 2.23129 -3.65939 0
M  V30 3494 H 326.55 1.90317 -4.58359 0
M  V30 3495 H 321.806 1.48034 -5.93208 0
M  V30 3496 H 325.98 1.16138 -6.86648 0
M  V30 3497 H 323.607 0.944403 -7.54311 0
M  V30 3498 N 325.182 1.32811 0.848464 0
M  V30 3499 C 326.114 1.18095 1.96433 0
M  V30 3500 C 327.127 0.114354 1.62398 0
M  V30 3501 O 328.316 0.363892 1.74751 0
M  V30 3502 C 325.416 0.786798 3.2964 0
M  V30 3503 C 324.589 1.943 3.91875 0
M  V30 3504 C 323.648 1.53138 5.03423 0
M  V30 3505 O 322.674 2.24432 5.23086 0
M  V30 3506 N 323.876 0.430915 5.78898 0
M  V30 3507 H 326.641 2.14218 2.09597 0
M  V30 3508 H 324.202 1.2543 1.02367 0
M  V30 3509 H 326.194 0.493715 4.01677 0
M  V30 3510 H 324.764 -0.0834541 3.12489 0
M  V30 3511 H 323.984 2.40224 3.12547 0
M  V30 3512 H 325.272 2.71689 4.30189 0
M  V30 3513 H 324.67 -0.162333 5.65467 0
M  V30 3514 H 323.227 0.197466 6.51501 0
M  V30 3515 N 326.66 -1.06551 1.16123 0
M  V30 3516 C 327.607 -2.13961 0.865414 0
M  V30 3517 C 328.577 -1.65066 -0.185055 0
M  V30 3518 O 329.762 -1.90732 -0.05083 0
M  V30 3519 C 326.902 -3.43113 0.369776 0
M  V30 3520 C 326.015 -4.05756 1.48276 0
M  V30 3521 C 325.15 -5.22773 0.942414 0
M  V30 3522 C 324.189 -5.77395 2.03179 0
M  V30 3523 N 323.326 -6.85731 1.50721 0
M  V30 3524 H 328.166 -2.38605 1.78527 0
M  V30 3525 H 325.703 -1.17072 0.890646 0
M  V30 3526 H 327.661 -4.17151 0.0640643 0
M  V30 3527 H 326.291 -3.18695 -0.513143 0
M  V30 3528 H 325.343 -3.29292 1.9045 0
M  V30 3529 H 326.655 -4.42351 2.30493 0
M  V30 3530 H 325.809 -6.03827 0.589729 0
M  V30 3531 H 324.548 -4.87618 0.0895191 0
M  V30 3532 H 323.553 -4.94981 2.3932 0
M  V30 3533 H 324.778 -6.14603 2.8886 0
M  V30 3534 H 322.724 -6.52499 0.676811 0
M  V30 3535 H 322.641 -7.21254 2.26557 0
M  V30 3536 H 323.909 -7.7047 1.18303 0
M  V30 3537 N 328.138 -0.959301 -1.25041 0
M  V30 3538 C 329.554 -0.664474 -1.4511 0
M  V30 3539 C 329.754 0.776481 -1.85938 0
M  V30 3540 O 328.81 1.55128 -1.99227 0
M  V30 3541 C 330.123 -1.64139 -2.5195 0
M  V30 3542 C 331.671 -1.65309 -2.65786 0
M  V30 3543 C 332.146 -2.61777 -3.75815 0
M  V30 3544 N 333.637 -2.60169 -3.83231 0
M  V30 3545 C 334.372 -3.31489 -4.6787 0
M  V30 3546 N 333.868 -4.12298 -5.56761 0
M  V30 3547 N 335.661 -3.20354 -4.61876 0
M  V30 3548 H 327.812 -1.89043 -0.968332 0
M  V30 3549 H 330.075 -0.813408 -0.4869 0
M  V30 3550 H 329.781 -2.67086 -2.28819 0
M  V30 3551 H 329.655 -1.40756 -3.49954 0
M  V30 3552 H 332.042 -0.630778 -2.8828 0
M  V30 3553 H 332.123 -1.92753 -1.68167 0
M  V30 3554 H 331.767 -3.64137 -3.54071 0
M  V30 3555 H 331.697 -2.31616 -4.72929 0
M  V30 3556 H 334.188 -2.01507 -3.19692 0
M  V30 3557 H 334.501 -4.63625 -6.18281 0
M  V30 3558 H 332.846 -4.16395 -5.56454 0
M  V30 3559 H 336.037 -2.56692 -3.91442 0
M  V30 3560 H 336.21 -3.76201 -5.27614 0
M  V30 3561 N 329.616 1.39756 -0.72842 0
M  V30 3562 C 330.546 2.33289 -0.0991354 0
M  V30 3563 C 331.527 1.53568 0.731489 0
M  V30 3564 O 332.712 1.81987 0.677807 0
M  V30 3565 C 329.842 3.3763 0.813834 0
M  V30 3566 C 328.796 4.2791 0.0878663 0
M  V30 3567 C 328.122 5.22894 1.11741 0
M  V30 3568 C 329.422 5.11314 -1.06563 0
M  V30 3569 H 331.116 2.86163 -0.880408 0
M  V30 3570 H 328.662 1.37591 -0.424819 0
M  V30 3571 H 330.615 4.0201 1.26355 0
M  V30 3572 H 329.339 2.83181 1.62715 0
M  V30 3573 H 327.998 3.65 -0.342159 0
M  V30 3574 H 327.646 4.64744 1.92412 0
M  V30 3575 H 327.346 5.84143 0.636477 0
M  V30 3576 H 328.87 5.90151 1.56697 0
M  V30 3577 H 330.284 5.69076 -0.694671 0
M  V30 3578 H 328.681 5.81671 -1.47577 0
M  V30 3579 H 329.751 4.46534 -1.89038 0
M  V30 3580 N 331.094 0.475555 1.50254 0
M  V30 3581 C 332.371 -0.139685 1.95101 0
M  V30 3582 C 332.751 -1.56555 1.41611 0
M  V30 3583 O 332.099 -2.19956 0.618993 0
M  V30 3584 C 332.309 -0.0784298 3.48912 0
M  V30 3585 C 333.657 -0.265095 4.23772 0
M  V30 3586 O 334.681 -0.154808 3.55863 0
M  V30 3587 O 333.54 -0.488327 5.44314 0
M  V30 3588 H 330.634 -0.109236 0.819754 0
M  V30 3589 H 333.18 0.536276 1.61004 0
M  V30 3590 H 331.952 0.916918 3.80405 0
M  V30 3591 H 331.575 -0.795655 3.89558 0
M  V30 3592 N 332.573 -1.56217 0.208337 0
M  V30 3593 C 333.821 -1.97558 -0.426076 0
M  V30 3594 C 334.142 -1.09683 -1.61229 0
M  V30 3595 O 333.412 -0.170956 -1.95153 0
M  V30 3596 H 331.992 -0.729575 -0.160405 0
M  V30 3597 H 334.654 -1.92606 0.298155 0
M  V30 3598 H 333.75 -3.02672 -0.761312 0
M  V30 3599 N 334.051 0.0651679 -1.57465 0
M  V30 3600 C 335.276 0.779605 -1.9219 0
M  V30 3601 C 335.701 1.69988 -0.805333 0
M  V30 3602 O 335.059 1.79685 0.241435 0
M  V30 3603 C 335.107 1.54364 -3.2589 0
M  V30 3604 O 334.211 2.65474 -3.1559 0
M  V30 3605 H 333.552 0.212249 -0.629163 0
M  V30 3606 H 336.082 0.0314294 -2.04576 0
M  V30 3607 H 336.092 1.92146 -3.59922 0
M  V30 3608 H 334.767 0.868457 -4.06732 0
M  V30 3609 H 333.344 2.30501 -2.93128 0
M  V30 3610 N 335.529 1.53961 0.336706 0
M  V30 3611 C 336.775 1.7179 1.07777 0
M  V30 3612 C 337.108 0.483263 1.88091 0
M  V30 3613 O 336.383 -0.519747 1.87427 0
M  V30 3614 C 336.666 2.98558 2.01334 0
M  V30 3615 C 336.519 4.32245 1.24437 0
M  V30 3616 C 337.838 3.21023 3.01052 0
M  V30 3617 H 334.957 0.625089 0.390426 0
M  V30 3618 H 337.599 1.86641 0.35567 0
M  V30 3619 H 335.749 2.86028 2.62908 0
M  V30 3620 H 337.421 4.56637 0.654243 0
M  V30 3621 H 335.664 4.30344 0.546458 0
M  V30 3622 H 336.335 5.17137 1.93063 0
M  V30 3623 H 338.811 3.32929 2.49595 0
M  V30 3624 H 337.687 4.11104 3.6371 0
M  V30 3625 H 337.948 2.37637 3.72802 0
M  V30 3626 N 337.007 -0.598083 1.45811 0
M  V30 3627 C 338.284 -1.35777 1.40797 0
M  V30 3628 C 338.664 -2.10935 0.083462 0
M  V30 3629 O 338.012 -2.08505 -0.934763 0
M  V30 3630 C 338.222 -2.29666 2.62783 0
M  V30 3631 C 339.57 -2.91977 3.08277 0
M  V30 3632 O 340.594 -2.39984 2.63223 0
M  V30 3633 O 339.453 -3.86376 3.86491 0
M  V30 3634 H 336.547 -0.609291 0.55919 0
M  V30 3635 H 339.093 -0.620379 1.57954 0
M  V30 3636 H 337.865 -1.73454 3.50756 0
M  V30 3637 H 337.488 -3.1077 2.48008 0
M  V30 3638 N 338.485 -1.33259 -0.841409 0
M  V30 3639 C 339.732 -1.24572 -1.5965 0
M  V30 3640 C 340.06 0.189137 -1.93578 0
M  V30 3641 O 339.315 1.14566 -1.5866 0
M  V30 3642 C 339.614 -2.06381 -2.9179 0
M  V30 3643 C 339.28 -3.556 -2.77235 0
M  V30 3644 C 337.942 -3.96282 -2.72973 0
M  V30 3645 C 340.294 -4.50433 -2.62221 0
M  V30 3646 C 337.622 -5.30017 -2.51592 0
M  V30 3647 C 339.974 -5.84327 -2.42374 0
M  V30 3648 C 338.638 -6.24194 -2.36512 0
M  V30 3649 H 337.908 -0.455842 -0.5842 0
M  V30 3650 H 340.555 -1.6482 -0.975016 0
M  V30 3651 H 338.86 -1.58903 -3.5813 0
M  V30 3652 H 340.557 -1.97019 -3.49263 0
M  V30 3653 H 337.147 -3.23298 -2.81384 0
M  V30 3654 H 341.331 -4.19914 -2.64549 0
M  V30 3655 H 336.587 -5.59947 -2.45499 0
M  V30 3656 H 340.761 -6.57414 -2.29739 0
M  V30 3657 H 338.388 -7.27759 -2.19706 0
M  V30 3658 N 339.963 1.05934 -1.16686 0
M  V30 3659 C 340.91 2.13499 -0.876748 0
M  V30 3660 C 341.88 1.65162 0.176299 0
M  V30 3661 O 343.065 1.90757 0.0407143 0
M  V30 3662 C 340.205 3.42912 -0.387967 0
M  V30 3663 C 339.318 4.04964 -1.50426 0
M  V30 3664 C 338.453 5.22266 -0.970125 0
M  V30 3665 C 337.492 5.76309 -2.06238 0
M  V30 3666 N 336.629 6.84922 -1.54356 0
M  V30 3667 H 341.469 2.37654 -1.7979 0
M  V30 3668 H 339.006 1.16598 -0.896843 0
M  V30 3669 H 340.964 4.17111 -0.086186 0
M  V30 3670 H 339.594 3.18963 0.496235 0
M  V30 3671 H 338.646 3.28277 -1.92193 0
M  V30 3672 H 339.958 4.41122 -2.32836 0
M  V30 3673 H 339.112 6.03506 -0.621743 0
M  V30 3674 H 337.851 4.87564 -0.115377 0
M  V30 3675 H 336.856 4.93704 -2.41942 0
M  V30 3676 H 338.081 6.13062 -2.92115 0
M  V30 3677 H 336.027 6.52131 -0.711406 0
M  V30 3678 H 335.944 7.20043 -2.30379 0
M  V30 3679 H 337.212 7.69832 -1.22387 0
M  V30 3680 N 341.441 0.965919 1.2453 0
M  V30 3681 C 342.388 0.49402 2.25451 0
M  V30 3682 C 343.358 -0.45948 1.59618 0
M  V30 3683 O 344.543 -0.370238 1.87173 0
M  V30 3684 C 341.683 -0.211359 3.44452 0
M  V30 3685 C 340.796 0.7807 4.24887 0
M  V30 3686 C 339.931 0.0516105 5.31175 0
M  V30 3687 C 338.97 1.03385 6.03306 0
M  V30 3688 N 338.107 0.334887 7.01301 0
M  V30 3689 H 342.947 1.35946 2.65184 0
M  V30 3690 H 340.484 0.681515 1.3036 0
M  V30 3691 H 342.442 -0.637 4.12308 0
M  V30 3692 H 341.072 -1.04077 3.05562 0
M  V30 3693 H 340.124 1.32479 3.56586 0
M  V30 3694 H 341.436 1.52978 4.74762 0
M  V30 3695 H 340.59 -0.432114 6.05159 0
M  V30 3696 H 339.329 -0.730179 4.82203 0
M  V30 3697 H 338.334 1.52847 5.28127 0
M  V30 3698 H 339.559 1.81606 6.54367 0
M  V30 3699 H 337.505 -0.427959 6.54603 0
M  V30 3700 H 337.422 1.02287 7.49048 0
M  V30 3701 H 338.69 -0.126928 7.79397 0
M  V30 3702 N 342.919 -1.39368 0.735821 0
M  V30 3703 C 343.867 -2.32443 0.0855131 0
M  V30 3704 C 344.861 -1.53104 -0.724954 0
M  V30 3705 O 346.067 -1.68762 -0.626047 0
M  V30 3706 H 342.442 -0.751948 0.00885257 0
M  V30 3707 H 344.413 -2.84916 0.886883 0
M  V30 3708 C 343.162 -3.38206 -0.806983 0
M  V30 3709 H 342.485 -3.99335 -0.19274 0
M  V30 3710 H 343.925 -4.05779 -1.2296 0
M  V30 3711 C 342.384 -2.75321 -1.94165 0
M  V30 3712 O 342.914 -2.63231 -3.03435 0
M  V30 3713 N 341.12 -2.33396 -1.73132 0
M  V30 3714 H 340.667 -2.4343 -0.842596 0
M  V30 3715 H 340.625 -1.91661 -2.49225 0
M  V30 3716 N 344.397 -0.483516 -1.5 0
M  V30 3717 C 345.643 0.0593261 -2.03313 0
M  V30 3718 C 345.998 1.36288 -1.35806 0
M  V30 3719 O 345.291 1.85519 -0.478897 0
M  V30 3720 C 345.485 0.286226 -3.56252 0
M  V30 3721 C 345.314 -0.993788 -4.38582 0
M  V30 3722 C 344.084 -1.54064 -4.81241 0
M  V30 3723 C 346.282 -1.89249 -4.78215 0
M  V30 3724 N 344.264 -2.76838 -5.47936 0
M  V30 3725 C 345.635 -2.96606 -5.44449 0
M  V30 3726 C 347.69 -1.90138 -4.60165 0
M  V30 3727 C 346.393 -4.04857 -5.94544 0
M  V30 3728 C 348.419 -2.97353 -5.1121 0
M  V30 3729 C 347.781 -4.03429 -5.77429 0
M  V30 3730 H 343.88 -0.0186322 -0.781778 0
M  V30 3731 H 346.464 -0.654489 -1.8337 0
M  V30 3732 H 344.635 0.969086 -3.76116 0
M  V30 3733 H 346.367 0.824515 -3.96212 0
M  V30 3734 H 343.122 -1.08813 -4.6093 0
M  V30 3735 H 343.546 -3.39221 -5.85882 0
M  V30 3736 H 348.188 -1.09441 -4.0839 0
M  V30 3737 H 345.906 -4.86363 -6.4535 0
M  V30 3738 H 349.492 -2.99039 -4.99066 0
M  V30 3739 H 348.372 -4.85025 -6.16214 0
M  V30 3740 N 345.875 1.56104 -0.216619 0
M  V30 3741 C 347.124 1.97348 0.416744 0
M  V30 3742 C 347.437 1.10715 1.6125 0
M  V30 3743 O 348.643 1.41836 2.31506 0
M  V30 3744 C 347.099 3.51059 0.792835 0
M  V30 3745 C 346.707 4.46387 -0.379828 0
M  V30 3746 C 348.451 4.01026 1.39208 0
M  V30 3747 C 346.358 5.91397 0.0184223 0
M  V30 3748 H 345.288 0.736942 0.159475 0
M  V30 3749 H 347.939 1.80827 -0.31205 0
M  V30 3750 H 346.321 3.63162 1.57891 0
M  V30 3751 H 347.495 4.46029 -1.15737 0
M  V30 3752 H 345.81 4.06734 -0.891979 0
M  V30 3753 H 348.407 5.0686 1.70286 0
M  V30 3754 H 348.75 3.46587 2.30614 0
M  V30 3755 H 349.283 3.92125 0.669537 0
M  V30 3756 H 346.022 6.49807 -0.862002 0
M  V30 3757 H 345.542 5.94961 0.760384 0
M  V30 3758 H 347.221 6.45455 0.446818 0
M  V30 3759 N 347.353 -0.0568162 1.57498 0
M  V30 3760 C 348.285 -1.09292 2.01464 0
M  V30 3761 C 349.298 -1.34112 0.922913 0
M  V30 3762 O 350.487 -1.32089 1.20062 0
M  V30 3763 C 347.587 -2.44068 2.35125 0
M  V30 3764 C 346.76 -2.38995 3.66333 0
M  V30 3765 C 345.819 -3.55997 3.87495 0
M  V30 3766 O 344.845 -3.36746 4.58901 0
M  V30 3767 N 346.047 -4.76888 3.30996 0
M  V30 3768 H 348.812 -0.718386 2.90963 0
M  V30 3769 H 346.373 -0.245235 1.60032 0
M  V30 3770 H 348.365 -3.21011 2.46443 0
M  V30 3771 H 346.935 -2.73468 1.5144 0
M  V30 3772 H 346.155 -1.47336 3.65631 0
M  V30 3773 H 347.443 -2.3272 4.52458 0
M  V30 3774 H 346.841 -4.95431 2.73065 0
M  V30 3775 H 345.398 -5.51291 3.47738 0
M  V30 3776 N 348.832 -1.54138 -0.328536 0
M  V30 3777 C 350.062 -1.75807 -1.08516 0
M  V30 3778 C 350.47 -0.50428 -1.82356 0
M  V30 3779 O 349.813 0.534451 -1.75754 0
M  V30 3780 C 349.875 -2.89423 -2.13248 0
M  V30 3781 C 349.539 -4.28504 -1.5885 0
M  V30 3782 C 350.536 -5.09536 -1.03289 0
M  V30 3783 C 348.221 -4.75034 -1.63243 0
M  V30 3784 C 350.215 -6.35206 -0.52845 0
M  V30 3785 C 347.902 -6.00672 -1.12411 0
M  V30 3786 C 348.9 -6.80592 -0.573062 0
M  V30 3787 O 348.588 -8.03867 -0.0723692 0
M  V30 3788 H 348.32 -0.590633 -0.328829 0
M  V30 3789 H 350.874 -2.01819 -0.381868 0
M  V30 3790 H 349.104 -2.5897 -2.87178 0
M  V30 3791 H 350.793 -2.98921 -2.74592 0
M  V30 3792 H 351.559 -4.74745 -0.99206 0
M  V30 3793 H 347.438 -4.12875 -2.05074 0
M  V30 3794 H 350.982 -6.97532 -0.0976774 0
M  V30 3795 H 346.879 -6.34955 -1.162 0
M  V30 3796 H 347.647 -8.18283 -0.188258 0
M  V30 3797 N 350.31 0.590341 -1.46126 0
M  V30 3798 C 351.257 1.69994 -1.56111 0
M  V30 3799 C 352.227 1.61065 -0.405867 0
M  V30 3800 O 353.412 1.8039 -0.621613 0
M  V30 3801 C 350.552 3.08326 -1.55013 0
M  V30 3802 C 349.665 3.27936 -2.81215 0
M  V30 3803 C 348.8 4.56473 -2.71673 0
M  V30 3804 C 347.839 4.694 -3.92849 0
M  V30 3805 N 346.976 5.89254 -3.81738 0
M  V30 3806 H 351.816 1.60797 -2.50895 0
M  V30 3807 H 349.353 0.783799 -1.24479 0
M  V30 3808 H 351.311 3.88383 -1.52362 0
M  V30 3809 H 349.941 3.16439 -0.637667 0
M  V30 3810 H 348.993 2.41536 -2.93879 0
M  V30 3811 H 350.305 3.33357 -3.71045 0
M  V30 3812 H 349.459 5.44748 -2.67085 0
M  V30 3813 H 348.198 4.53477 -1.7947 0
M  V30 3814 H 347.203 3.79544 -3.97777 0
M  V30 3815 H 348.428 4.7418 -4.86138 0
M  V30 3816 H 346.374 5.87271 -2.92317 0
M  V30 3817 H 346.291 5.95911 -4.65217 0
M  V30 3818 H 347.559 6.79981 -3.81112 0
M  V30 3819 N 351.788 1.33704 0.83433 0
M  V30 3820 C 352.698 1.26382 1.97648 0
M  V30 3821 C 353.714 0.173548 1.73132 0
M  V30 3822 O 354.89 0.397962 1.97429 0
M  V30 3823 C 351.955 1.00769 3.31733 0
M  V30 3824 C 351.016 2.1884 3.69334 0
M  V30 3825 C 350.249 1.9444 4.9702 0
M  V30 3826 O 350.472 0.896961 5.63303 0
M  V30 3827 O 349.406 2.81093 5.32231 0
M  V30 3828 H 353.232 2.22444 2.06767 0
M  V30 3829 H 350.817 1.13795 0.968037 0
M  V30 3830 H 352.699 0.882186 4.12062 0
M  V30 3831 H 351.374 0.0773783 3.23608 0
M  V30 3832 H 350.281 2.36946 2.89495 0
M  V30 3833 H 351.614 3.10221 3.82131 0
M  V30 3834 N 353.266 -1.05314 1.17247 0
M  V30 3835 C 354.514 -1.77941 0.958194 0
M  V30 3836 C 354.835 -1.88089 -0.514556 0
M  V30 3837 O 354.105 -1.39676 -1.37359 0
M  V30 3838 H 352.685 -0.659116 0.351533 0
M  V30 3839 H 355.347 -1.27166 1.47699 0
M  V30 3840 H 354.443 -2.79663 1.38546 0
M  V30 3841 N 354.744 -0.972509 -1.24016 0
M  V30 3842 C 355.991 -0.637034 -1.92219 0
M  V30 3843 C 356.319 0.828418 -1.75976 0
M  V30 3844 O 355.574 1.61206 -1.10955 0
M  V30 3845 C 355.873 -0.963694 -3.44162 0
M  V30 3846 C 355.539 -2.41807 -3.80579 0
M  V30 3847 C 354.201 -2.81556 -3.9023 0
M  V30 3848 C 356.553 -3.36172 -3.98293 0
M  V30 3849 C 353.881 -4.14702 -4.15017 0
M  V30 3850 C 356.233 -4.68952 -4.24578 0
M  V30 3851 C 354.897 -5.08472 -4.32449 0
M  V30 3852 H 354.167 -0.233107 -0.703379 0
M  V30 3853 H 356.814 -1.2249 -1.47202 0
M  V30 3854 H 355.119 -0.29365 -3.90698 0
M  V30 3855 H 356.816 -0.682449 -3.9515 0
M  V30 3856 H 353.406 -2.09988 -3.73635 0
M  V30 3857 H 357.59 -3.06644 -3.90234 0
M  V30 3858 H 352.846 -4.4494 -4.19331 0
M  V30 3859 H 357.02 -5.42037 -4.37229 0
M  V30 3860 H 354.647 -6.11665 -4.51409 0
M  V30 3861 N 356.222 1.38976 -0.743202 0
M  V30 3862 C 357.47 1.99948 -0.29417 0
M  V30 3863 C 357.791 1.59279 1.12495 0
M  V30 3864 O 357.061 0.844808 1.76748 0
M  V30 3865 H 355.641 0.739473 -0.105774 0
M  V30 3866 H 358.303 1.699 -0.954986 0
M  V30 3867 H 357.399 3.10142 -0.349056 0
M  V30 3868 N 357.7 0.491464 1.49741 0
M  V30 3869 C 358.65 -0.311086 2.25868 0
M  V30 3870 C 359.634 -0.943857 1.30308 0
M  V30 3871 O 360.826 -0.853035 1.55088 0
M  V30 3872 C 357.955 -1.38059 3.14316 0
M  V30 3873 C 357.041 -0.754541 4.17334 0
M  V30 3874 N 357.432 0.137216 5.05614 0
M  V30 3875 C 355.73 -1.01621 4.34269 0
M  V30 3876 C 356.431 0.494614 5.79593 0
M  V30 3877 N 355.407 -0.135169 5.43432 0
M  V30 3878 H 359.209 0.37555 2.91491 0
M  V30 3879 H 356.723 0.306917 1.59473 0
M  V30 3880 H 358.72 -1.96891 3.67477 0
M  V30 3881 H 357.38 -2.06901 2.50244 0
M  V30 3882 H 358.391 0.50741 5.15408 0
M  V30 3883 H 355.068 -1.69808 3.81407 0
M  V30 3884 H 356.458 1.2236 6.60665 0
M  V30 3885 N 359.178 -1.55987 0.224894 0
M  V30 3886 C 360.108 -2.23426 -0.678457 0
M  V30 3887 C 361.089 -1.20709 -1.19847 0
M  V30 3888 O 362.274 -1.49304 -1.24186 0
M  V30 3889 C 359.404 -2.91676 -1.88527 0
M  V30 3890 C 358.358 -4.00893 -1.49896 0
M  V30 3891 C 357.684 -4.56455 -2.78483 0
M  V30 3892 C 358.984 -5.17769 -0.686461 0
M  V30 3893 H 360.678 -2.99175 -0.116173 0
M  V30 3894 H 358.224 -1.43897 -0.054436 0
M  V30 3895 H 360.177 -3.37547 -2.5227 0
M  V30 3896 H 358.901 -2.1338 -2.47258 0
M  V30 3897 H 357.56 -3.55758 -0.884985 0
M  V30 3898 H 357.208 -3.74886 -3.35365 0
M  V30 3899 H 356.908 -5.30169 -2.53368 0
M  V30 3900 H 358.432 -5.05047 -3.43162 0
M  V30 3901 H 359.846 -5.60001 -1.22767 0
M  V30 3902 H 358.243 -5.97735 -0.532259 0
M  V30 3903 H 359.313 -4.83932 0.306196 0
M  V30 3904 N 360.656 0.0484629 -1.57525 0
M  V30 3905 C 361.881 0.759177 -1.93006 0
M  V30 3906 C 362.306 1.69125 -0.823317 0
M  V30 3907 O 361.664 1.79931 0.222364 0
M  V30 3908 C 361.712 1.50899 -3.27509 0
M  V30 3909 O 360.816 2.62112 -3.18388 0
M  V30 3910 H 360.157 0.205564 -0.631379 0
M  V30 3911 H 362.687 0.00972959 -2.04598 0
M  V30 3912 H 362.697 1.88317 -3.6194 0
M  V30 3913 H 361.372 0.825269 -4.0763 0
M  V30 3914 H 359.949 2.27379 -2.95556 0
M  V30 3915 N 362.134 1.5431 0.320358 0
M  V30 3916 C 363.545 1.63872 0.894594 0
M  V30 3917 C 363.896 0.534847 1.88769 0
M  V30 3918 O 363.021 -0.331732 2.13842 0
M  V30 3919 C 363.616 2.97049 1.62934 0
M  V30 3920 C 362.175 3.08796 2.15226 0
M  V30 3921 C 361.322 2.59456 0.978671 0
M  V30 3922 H 364.273 1.58398 0.0978544 0
M  V30 3923 H 364.294 2.87388 2.49376 0
M  V30 3924 H 363.806 3.7737 0.906302 0
M  V30 3925 H 361.907 2.33156 2.90636 0
M  V30 3926 H 362.02 4.14649 2.40006 0
M  V30 3927 H 360.384 2.1543 1.35875 0
M  V30 3928 H 361.167 3.42237 0.269895 0
M  V30 3929 N 363.613 -0.582584 1.46437 0
M  V30 3930 C 364.841 -1.36682 1.55324 0
M  V30 3931 C 365.256 -1.87796 0.194409 0
M  V30 3932 O 364.613 -1.63623 -0.808318 0
M  V30 3933 C 364.664 -2.55426 2.55812 0
M  V30 3934 O 364.385 -2.0643 3.86417 0
M  V30 3935 C 365.886 -3.47976 2.74641 0
M  V30 3936 H 363.106 -0.417545 0.525259 0
M  V30 3937 H 365.65 -0.708219 1.91845 0
M  V30 3938 H 363.805 -3.17275 2.22295 0
M  V30 3939 H 364.219 -2.83762 4.41111 0
M  V30 3940 H 365.693 -4.27775 3.48874 0
M  V30 3941 H 366.17 -3.99919 1.81553 0
M  V30 3942 H 366.776 -2.91962 3.09255 0
M  V30 3943 N 365.091 -1.34144 -0.827227 0
M  V30 3944 C 366.339 -1.26009 -1.58007 0
M  V30 3945 C 366.66 0.170971 -1.94249 0
M  V30 3946 O 365.93 1.10256 -1.61927 0
M  V30 3947 H 364.51 -0.463414 -0.585881 0
M  V30 3948 H 367.172 -1.68005 -0.987951 0
M  V30 3949 H 366.268 -1.86187 -2.50481 0
M  V30 3950 N 366.569 1.04691 -1.17803 0
M  V30 3951 C 367.797 1.81446 -0.99423 0
M  V30 3952 C 368.212 1.83174 0.457459 0
M  V30 3953 O 367.569 1.26265 1.31771 0
M  V30 3954 C 367.62 3.27334 -1.5341 0
M  V30 3955 O 367.341 3.25798 -2.92895 0
M  V30 3956 C 368.842 4.20759 -1.39559 0
M  V30 3957 H 366.062 0.571599 -0.351447 0
M  V30 3958 H 368.606 1.31982 -1.56208 0
M  V30 3959 H 366.761 3.74052 -1.00815 0
M  V30 3960 H 367.175 4.17144 -3.17949 0
M  V30 3961 H 368.649 5.21084 -1.82141 0
M  V30 3962 H 369.126 4.37856 -0.343394 0
M  V30 3963 H 369.732 3.79901 -1.91195 0
M  V30 3964 N 368.047 0.979072 1.23499 0
M  V30 3965 C 369.275 0.665202 1.95915 0
M  V30 3966 C 369.69 -0.767571 1.72493 0
M  V30 3967 O 369.047 -1.51635 1.01554 0
M  V30 3968 C 369.098 0.944438 3.48945 0
M  V30 3969 O 368.819 2.3209 3.71572 0
M  V30 3970 C 370.32 0.646336 4.38563 0
M  V30 3971 H 367.54 0.247218 0.623798 0
M  V30 3972 H 370.084 1.31009 1.57025 0
M  V30 3973 H 368.239 0.345575 3.85856 0
M  V30 3974 H 368.653 2.40957 4.65876 0
M  V30 3975 H 370.127 0.892091 5.44744 0
M  V30 3976 H 370.604 -0.419575 4.37191 0
M  V30 3977 H 371.21 1.22562 4.07258 0
M  V30 3978 N 369.525 -1.3858 0.750561 0
M  V30 3979 C 370.435 -2.34278 0.122825 0
M  V30 3980 C 371.451 -1.59116 -0.704131 0
M  V30 3981 O 372.627 -1.91326 -0.628987 0
M  V30 3982 C 369.692 -3.38221 -0.762086 0
M  V30 3983 C 368.753 -4.29227 0.078896 0
M  V30 3984 C 367.986 -5.28205 -0.763874 0
M  V30 3985 O 368.209 -5.34112 -2.00201 0
M  V30 3986 O 367.143 -6.01618 -0.18428 0
M  V30 3987 H 370.969 -2.89649 0.913088 0
M  V30 3988 H 368.554 -1.40374 0.511417 0
M  V30 3989 H 370.436 -4.01872 -1.26793 0
M  V30 3990 H 369.111 -2.85211 -1.5309 0
M  V30 3991 H 368.018 -3.68747 0.630621 0
M  V30 3992 H 369.351 -4.85484 0.810289 0
M  V30 3993 N 371.003 -0.499398 -1.49478 0
M  V30 3994 C 372.25 0.0456899 -2.02448 0
M  V30 3995 C 372.578 1.37142 -1.37921 0
M  V30 3996 O 371.833 1.89111 -0.503544 0
M  V30 3997 C 372.132 0.248424 -3.56536 0
M  V30 3998 C 371.798 -0.999107 -4.39692 0
M  V30 3999 C 370.46 -1.34108 -4.62135 0
M  V30 4000 C 372.812 -1.82842 -4.88076 0
M  V30 4001 C 370.14 -2.51191 -5.30208 0
M  V30 4002 C 372.492 -2.99076 -5.57437 0
M  V30 4003 C 371.156 -3.33655 -5.78127 0
M  V30 4004 H 370.426 0.0167191 -0.740811 0
M  V30 4005 H 373.073 -0.65923 -1.79795 0
M  V30 4006 H 371.378 1.03586 -3.77859 0
M  V30 4007 H 373.075 0.684605 -3.95113 0
M  V30 4008 H 369.665 -0.722729 -4.22463 0
M  V30 4009 H 373.849 -1.57737 -4.70566 0
M  V30 4010 H 369.105 -2.78221 -5.44429 0
M  V30 4011 H 373.279 -3.63664 -5.93904 0
M  V30 4012 H 370.906 -4.24483 -6.30649 0
M  V30 4013 N 372.481 1.55866 -0.233164 0
M  V30 4014 C 373.727 1.99643 0.389148 0
M  V30 4015 C 374.082 1.11836 1.56558 0
M  V30 4016 O 373.375 0.170848 1.90837 0
M  V30 4017 C 373.569 3.46856 0.861724 0
M  V30 4018 C 373.398 4.48904 -0.267376 0
M  V30 4019 C 372.168 4.99888 -0.737577 0
M  V30 4020 C 374.366 5.02624 -1.08966 0
M  V30 4021 N 372.348 5.8566 -1.84052 0
M  V30 4022 C 373.719 5.85434 -2.04125 0
M  V30 4023 C 375.774 4.84959 -1.12779 0
M  V30 4024 C 374.477 6.52466 -3.02789 0
M  V30 4025 C 376.503 5.52759 -2.10266 0
M  V30 4026 C 375.865 6.35346 -3.04162 0
M  V30 4027 H 371.964 0.774402 0.108742 0
M  V30 4028 H 374.548 1.91572 -0.347596 0
M  V30 4029 H 372.719 3.55352 1.5678 0
M  V30 4030 H 374.451 3.77531 1.45783 0
M  V30 4031 H 371.206 4.7249 -0.324122 0
M  V30 4032 H 371.63 6.33246 -2.39434 0
M  V30 4033 H 376.272 4.20751 -0.415749 0
M  V30 4034 H 373.99 7.15849 -3.74948 0
M  V30 4035 H 377.576 5.41051 -2.13905 0
M  V30 4036 H 376.456 6.86883 -3.78366 0
M  V30 4037 N 373.959 -0.0401083 1.57549 0
M  V30 4038 C 374.889 -1.04384 2.08869 0
M  V30 4039 C 375.87 -1.38407 0.988817 0
M  V30 4040 O 377.055 -1.47483 1.26342 0
M  V30 4041 C 374.185 -2.34808 2.55895 0
M  V30 4042 C 373.139 -2.15057 3.70047 0
M  V30 4043 C 372.465 -3.51145 4.03239 0
M  V30 4044 C 373.765 -1.54576 4.98902 0
M  V30 4045 H 375.459 -0.616666 2.92981 0
M  V30 4046 H 373.005 -0.295184 1.40942 0
M  V30 4047 H 374.958 -3.05346 2.90417 0
M  V30 4048 H 373.682 -2.79565 1.68853 0
M  V30 4049 H 372.341 -1.46954 3.35857 0
M  V30 4050 H 371.989 -3.93529 3.13279 0
M  V30 4051 H 371.689 -3.38758 4.80122 0
M  V30 4052 H 373.213 -4.23062 4.40285 0
M  V30 4053 H 374.627 -2.15017 5.31451 0
M  V30 4054 H 373.024 -1.52796 5.80322 0
M  V30 4055 H 374.094 -0.51039 4.82206 0
M  V30 4056 N 375.437 -1.54477 -0.31217 0
M  V30 4057 C 376.685 -1.72884 -1.04668 0
M  V30 4058 C 377.006 -0.511477 -1.88173 0
M  V30 4059 O 376.276 0.474407 -1.90069 0
M  V30 4060 H 374.856 -0.637461 -0.389425 0
M  V30 4061 H 377.518 -1.91807 -0.345852 0
M  V30 4062 H 376.614 -2.61334 -1.70619 0
M  V30 4063 N 376.915 0.57481 -1.46744 0
M  V30 4064 C 377.863 1.70435 -1.58286 0
M  V30 4065 C 378.857 1.63287 -0.450956 0
M  V30 4066 O 380.063 1.68685 -0.628121 0
M  V30 4067 H 376.438 0.56364 -0.497809 0
M  V30 4068 H 378.409 1.57833 -2.53242 0
M  V30 4069 C 377.158 3.08815 -1.59776 0
M  V30 4070 H 376.481 3.1499 -2.46214 0
M  V30 4071 H 377.921 3.87588 -1.71905 0
M  V30 4072 C 376.38 3.35301 -0.327812 0
M  V30 4073 O 376.91 3.97511 0.57861 0
M  V30 4074 N 375.116 2.89816 -0.213274 0
M  V30 4075 H 374.663 2.39371 -0.951798 0
M  V30 4076 H 374.621 3.0791 0.63553 0
M  V30 4077 N 378.394 1.34581 0.820102 0
M  V30 4078 C 379.304 1.28471 1.96297 0
M  V30 4079 C 380.32 0.191902 1.72939 0
M  V30 4080 O 381.496 0.418879 1.96996 0
M  V30 4081 C 378.561 1.04281 3.30645 0
M  V30 4082 C 377.622 2.22745 3.66992 0
M  V30 4083 C 376.855 1.997 4.9493 0
M  V30 4084 O 377.078 0.956656 5.6232 0
M  V30 4085 O 376.012 2.86723 5.2922 0
M  V30 4086 H 379.838 2.24624 2.04396 0
M  V30 4087 H 377.423 1.14816 0.955913 0
M  V30 4088 H 379.305 0.925841 4.11104 0
M  V30 4089 H 377.98 0.111697 3.23507 0
M  V30 4090 H 376.887 2.40003 2.86966 0
M  V30 4091 H 378.22 3.14257 3.78819 0
M  V30 4092 N 379.872 -1.04064 1.18357 0
M  V30 4093 C 380.819 -2.12077 0.910603 0
M  V30 4094 C 381.789 -1.65421 -0.15 0
M  V30 4095 O 382.974 -1.90797 -0.0103614 0
M  V30 4096 C 380.114 -3.42252 0.442472 0
M  V30 4097 C 379.227 -4.0252 1.5685 0
M  V30 4098 C 378.362 -5.20657 1.05309 0
M  V30 4099 C 377.401 -5.72955 2.1538 0
M  V30 4100 N 376.538 -6.8238 1.65233 0
M  V30 4101 H 381.378 -2.34764 1.83548 0
M  V30 4102 H 378.915 -1.15157 0.915279 0
M  V30 4103 H 380.873 -4.16921 0.152534 0
M  V30 4104 H 379.503 -3.19712 -0.445428 0
M  V30 4105 H 378.555 -3.25178 1.97391 0
M  V30 4106 H 379.867 -4.37362 2.39824 0
M  V30 4107 H 379.021 -6.0244 0.717677 0
M  V30 4108 H 377.76 -4.87318 0.19293 0
M  V30 4109 H 376.765 -4.89793 2.49766 0
M  V30 4110 H 377.99 -6.08337 3.01832 0
M  V30 4111 H 375.936 -6.50917 0.815064 0
M  V30 4112 H 375.853 -7.16286 2.41805 0
M  V30 4113 H 377.121 -7.67788 1.34619 0
M  V30 4114 N 381.35 -0.985608 -1.22978 0
M  V30 4115 C 382.599 -0.652881 -1.90841 0
M  V30 4116 C 382.912 0.817842 -1.77681 0
M  V30 4117 O 384.118 1.26185 -2.40395 0
M  V30 4118 C 382.574 -1.11717 -3.42122 0
M  V30 4119 C 382.182 -2.6126 -3.63933 0
M  V30 4120 C 383.926 -0.85843 -4.1573 0
M  V30 4121 C 381.833 -3.0133 -5.08876 0
M  V30 4122 H 380.763 -0.240491 -0.714619 0
M  V30 4123 H 383.414 -1.1942 -1.39324 0
M  V30 4124 H 381.796 -0.504027 -3.92779 0
M  V30 4125 H 382.97 -3.27858 -3.23799 0
M  V30 4126 H 381.285 -2.84937 -3.03644 0
M  V30 4127 H 383.882 -1.13359 -5.22546 0
M  V30 4128 H 384.225 0.205461 -4.15793 0
M  V30 4129 H 384.758 -1.43341 -3.71077 0
M  V30 4130 H 381.497 -4.06864 -5.13947 0
M  V30 4131 H 381.017 -2.3943 -5.49939 0
M  V30 4132 H 382.696 -2.92224 -5.77247 0
M  V30 4133 N 382.828 1.3818 -0.7579 0
M  V30 4134 C 383.778 2.27741 -0.108674 0
M  V30 4135 C 384.762 1.45415 0.688709 0
M  V30 4136 O 385.954 1.68108 0.553956 0
M  V30 4137 C 383.083 3.34313 0.780367 0
M  V30 4138 C 382.169 4.24093 -0.0240977 0
M  V30 4139 N 382.56 4.9451 -1.06271 0
M  V30 4140 C 380.858 4.45542 0.202049 0
M  V30 4141 C 381.559 5.60675 -1.54979 0
M  V30 4142 N 380.535 5.36684 -0.864348 0
M  V30 4143 H 384.337 2.79649 -0.904071 0
M  V30 4144 H 381.851 1.51133 -0.594346 0
M  V30 4145 H 383.848 3.97368 1.26114 0
M  V30 4146 H 382.508 2.83962 1.57467 0
M  V30 4147 H 383.519 4.97345 -1.44459 0
M  V30 4148 H 380.196 4.06091 0.96935 0
M  V30 4149 H 381.586 6.26992 -2.41517 0
M  V30 4150 N 384.306 0.507319 1.49211 0
M  V30 4151 C 385.236 -0.256939 2.32082 0
M  V30 4152 C 386.217 -0.956609 1.40652 0
M  V30 4153 O 387.402 -0.946788 1.69557 0
M  V30 4154 C 384.532 -1.31802 3.21318 0
M  V30 4155 C 383.486 -0.737855 4.21592 0
M  V30 4156 C 382.812 -1.89992 4.99807 0
M  V30 4157 C 384.112 0.275325 5.21574 0
M  V30 4158 H 385.806 0.434798 2.96226 0
M  V30 4159 H 383.352 0.210546 1.42452 0
M  V30 4160 H 385.305 -1.86045 3.78107 0
M  V30 4161 H 384.029 -2.03903 2.5513 0
M  V30 4162 H 382.688 -0.217126 3.65956 0
M  V30 4163 H 382.336 -2.60877 4.30061 0
M  V30 4164 H 382.036 -1.51777 5.6766 0
M  V30 4165 H 383.56 -2.44657 5.59442 0
M  V30 4166 H 384.974 -0.179193 5.7302 0
M  V30 4167 H 383.371 0.573649 5.97352 0
M  V30 4168 H 384.441 1.18903 4.70096 0
M  V30 4169 N 385.784 -1.5574 0.241426 0
M  V30 4170 C 387.033 -1.97986 -0.385295 0
M  V30 4171 C 387.346 -1.13267 -1.59468 0
M  V30 4172 O 388.552 -1.45501 -2.2922 0
M  V30 4173 C 387.008 -3.52275 -0.736884 0
M  V30 4174 C 386.616 -4.45726 0.450796 0
M  V30 4175 C 388.36 -4.03189 -1.3281 0
M  V30 4176 C 386.267 -5.91352 0.0756662 0
M  V30 4177 H 385.197 -0.739386 -0.147731 0
M  V30 4178 H 387.848 -1.80308 0.340779 0
M  V30 4179 H 386.23 -3.65628 -1.52094 0
M  V30 4180 H 387.404 -4.44131 1.22819 0
M  V30 4181 H 385.719 -4.05264 0.956573 0
M  V30 4182 H 388.316 -5.09505 -1.62201 0
M  V30 4183 H 388.659 -3.50212 -2.25071 0
M  V30 4184 H 389.192 -3.93141 -0.607069 0
M  V30 4185 H 385.931 -6.48354 0.965272 0
M  V30 4186 H 385.451 -5.96095 -0.665635 0
M  V30 4187 H 387.13 -6.46084 -0.344075 0
M  V30 4188 N 387.262 0.0317525 -1.57568 0
M  V30 4189 C 388.487 0.738664 -1.938 0
M  V30 4190 C 388.912 1.68242 -0.841208 0
M  V30 4191 O 388.27 1.80157 0.203267 0
M  V30 4192 C 388.318 1.47417 -3.29091 0
M  V30 4193 O 387.422 2.5872 -3.2115 0
M  V30 4194 H 386.763 0.198856 -0.633524 0
M  V30 4195 H 389.293 -0.0119713 -2.04596 0
M  V30 4196 H 389.303 1.84468 -3.63917 0
M  V30 4197 H 387.978 0.781988 -4.08482 0
M  V30 4198 H 386.555 2.24231 -2.97951 0
M  V30 4199 N 388.74 1.54641 0.303973 0
M  V30 4200 C 389.968 1.77768 1.05858 0
M  V30 4201 C 390.383 0.535722 1.8104 0
M  V30 4202 O 389.74 -0.494337 1.75677 0
M  V30 4203 C 389.791 2.9834 2.04146 0
M  V30 4204 O 389.512 4.17736 1.32015 0
M  V30 4205 C 391.013 3.33832 2.91669 0
M  V30 4206 H 388.233 0.592961 0.314067 0
M  V30 4207 H 390.777 2.01583 0.344149 0
M  V30 4208 H 388.932 2.76742 2.71096 0
M  V30 4209 H 389.346 4.85693 1.97998 0
M  V30 4210 H 390.82 4.21448 3.56491 0
M  V30 4211 H 391.297 2.51857 3.59812 0
M  V30 4212 H 391.903 3.57579 2.30254 0
M  V30 4213 N 390.218 -0.567019 1.47046 0
M  V30 4214 C 391.15 -1.68985 1.54844 0
M  V30 4215 C 392.163 -1.56869 0.435431 0
M  V30 4216 O 393.352 -1.64006 0.70457 0
M  V30 4217 C 390.452 -3.07373 1.42742 0
M  V30 4218 C 389.625 -3.45339 2.6844 0
M  V30 4219 C 388.684 -4.62849 2.50314 0
M  V30 4220 O 387.71 -4.67922 3.24095 0
M  V30 4221 N 388.912 -5.58726 1.57499 0
M  V30 4222 H 391.677 -1.62745 2.51663 0
M  V30 4223 H 389.238 -0.753411 1.43302 0
M  V30 4224 H 391.23 -3.83803 1.28365 0
M  V30 4225 H 389.8 -3.07893 0.540445 0
M  V30 4226 H 389.02 -2.58455 2.97648 0
M  V30 4227 H 390.308 -3.67476 3.51907 0
M  V30 4228 H 389.706 -5.57376 0.966876 0
M  V30 4229 H 388.263 -6.34523 1.49078 0
M  V30 4230 N 391.696 -1.35014 -0.812953 0
M  V30 4231 C 392.921 -1.31187 -1.60639 0
M  V30 4232 C 393.346 0.109382 -1.87782 0
M  V30 4233 O 392.704 1.07424 -1.46047 0
M  V30 4234 C 392.752 -2.11809 -2.91838 0
M  V30 4235 O 391.856 -1.49444 -3.8437 0
M  V30 4236 H 391.197 -0.450084 -0.488181 0
M  V30 4237 H 393.727 -1.77963 -1.00947 0
M  V30 4238 H 393.737 -2.23531 -3.41318 0
M  V30 4239 H 392.412 -3.15137 -2.71407 0
M  V30 4240 H 390.989 -1.46524 -3.42907 0
M  V30 4241 N 393.175 1.03435 -1.18907 0
M  V30 4242 C 394.138 2.09756 -0.923844 0
M  V30 4243 C 395.138 1.60528 0.093416 0
M  V30 4244 O 396.328 1.73631 -0.140727 0
M  V30 4245 C 393.46 3.38692 -0.387354 0
M  V30 4246 H 394.653 2.34719 -1.86674 0
M  V30 4247 H 392.206 1.19959 -1.00197 0
M  V30 4248 H 392.941 3.19396 0.561845 0
M  V30 4249 H 392.726 3.75742 -1.12074 0
M  V30 4250 H 394.216 4.17016 -0.220694 0
M  V30 4251 N 394.653 0.992116 1.22453 0
M  V30 4252 C 395.902 0.662992 1.90492 0
M  V30 4253 C 396.215 -0.808407 1.78113 0
M  V30 4254 O 397.421 -1.24908 2.41061 0
M  V30 4255 C 395.877 1.1353 3.41524 0
M  V30 4256 C 395.485 2.63187 3.62542 0
M  V30 4257 C 397.229 0.880465 4.15269 0
M  V30 4258 C 395.136 3.04024 5.0727 0
M  V30 4259 H 394.066 0.244278 0.713333 0
M  V30 4260 H 396.717 1.20157 1.38688 0
M  V30 4261 H 395.099 0.52485 3.92506 0
M  V30 4262 H 396.273 3.2957 3.22056 0
M  V30 4263 H 394.588 2.86543 3.02129 0
M  V30 4264 H 397.185 1.16128 5.21937 0
M  V30 4265 H 397.528 -0.183408 4.15896 0
M  V30 4266 H 398.061 1.45307 3.70312 0
M  V30 4267 H 394.8 4.09584 5.11782 0
M  V30 4268 H 394.32 2.42343 5.48662 0
M  V30 4269 H 395.999 2.95282 5.75689 0
M  V30 4270 N 396.131 -1.37776 0.765217 0
M  V30 4271 C 397.542 -1.82521 0.392819 0
M  V30 4272 C 397.893 -1.63789 -1.08017 0
M  V30 4273 O 397.018 -1.14542 -1.83601 0
M  V30 4274 C 397.613 -3.31358 0.706214 0
M  V30 4275 C 396.172 -3.74406 0.386952 0
M  V30 4276 C 395.319 -2.60394 0.953422 0
M  V30 4277 H 398.27 -1.2634 0.960412 0
M  V30 4278 H 398.291 -3.80498 -0.0114706 0
M  V30 4279 H 397.803 -3.44959 1.77833 0
M  V30 4280 H 395.904 -3.66377 -0.678112 0
M  V30 4281 H 396.017 -4.70749 0.890636 0
M  V30 4282 H 394.381 -2.51878 0.378064 0
M  V30 4283 H 395.164 -2.76791 2.03081 0
M  V30 4284 N 397.609 -0.515225 -1.4894 0
M  V30 4285 C 398.839 0.0205735 -2.0659 0
M  V30 4286 C 399.247 1.30064 -1.37405 0
M  V30 4287 O 398.59 1.78087 -0.450632 0
M  V30 4288 C 398.652 0.330124 -3.57981 0
M  V30 4289 C 398.316 -0.854295 -4.48944 0
M  V30 4290 C 399.313 -1.7487 -4.89609 0
M  V30 4291 C 396.998 -1.05712 -4.9105 0
M  V30 4292 C 398.992 -2.82996 -5.71132 0
M  V30 4293 C 396.679 -2.14154 -5.72347 0
M  V30 4294 C 397.677 -3.0263 -6.12294 0
M  V30 4295 O 397.365 -4.09198 -6.91962 0
M  V30 4296 H 397.097 -0.0236833 -0.675585 0
M  V30 4297 H 399.651 -0.715956 -1.92518 0
M  V30 4298 H 397.881 1.12044 -3.70112 0
M  V30 4299 H 399.57 0.806233 -3.97812 0
M  V30 4300 H 400.336 -1.60388 -4.57712 0
M  V30 4301 H 396.215 -0.377788 -4.59449 0
M  V30 4302 H 399.759 -3.52083 -6.02232 0
M  V30 4303 H 395.656 -2.28626 -6.03656 0
M  V30 4304 H 396.424 -4.06726 -7.10293 0
M  V30 4305 N 399.087 1.5561 -0.249682 0
M  V30 4306 C 400.05 2.20217 0.635394 0
M  V30 4307 C 401.05 1.17227 1.10066 0
M  V30 4308 O 402.24 1.42292 1.00492 0
M  V30 4309 C 399.372 2.84794 1.87363 0
M  V30 4310 H 400.565 2.99814 0.0716752 0
M  V30 4311 H 398.118 1.563 -0.000153234 0
M  V30 4312 H 398.853 2.09142 2.47851 0
M  V30 4313 H 398.638 3.60241 1.5482 0
M  V30 4314 H 400.128 3.3423 2.5036 0
M  V30 4315 N 400.565 -0.0233959 1.57583 0
M  V30 4316 C 401.495 -1.02162 2.09965 0
M  V30 4317 C 402.476 -1.3735 1.00344 0
M  V30 4318 O 403.661 -1.46135 1.27899 0
M  V30 4319 C 400.791 -2.32081 2.58371 0
M  V30 4320 C 399.745 -2.1112 3.72307 0
M  V30 4321 C 399.071 -3.46848 4.06941 0
M  V30 4322 C 400.371 -1.49276 5.00514 0
M  V30 4323 H 402.065 -0.585557 2.93618 0
M  V30 4324 H 399.611 -0.280218 1.41247 0
M  V30 4325 H 401.564 -3.02249 2.93639 0
M  V30 4326 H 400.288 -2.77758 1.71808 0
M  V30 4327 H 398.947 -1.43384 3.37397 0
M  V30 4328 H 398.595 -3.90184 3.17436 0
M  V30 4329 H 398.295 -3.33646 4.83688 0
M  V30 4330 H 399.819 -4.18369 4.44747 0
M  V30 4331 H 401.233 -2.09368 5.33702 0
M  V30 4332 H 399.63 -1.46632 5.8191 0
M  V30 4333 H 400.7 -0.459217 4.82721 0
M  V30 4334 N 402.043 -1.548 -0.295768 0
M  V30 4335 C 403.459 -1.4613 -0.641722 0
M  V30 4336 C 403.659 -0.656771 -1.90496 0
M  V30 4337 O 402.715 -0.166547 -2.5195 0
M  V30 4338 C 404.028 -2.90141 -0.789852 0
M  V30 4339 C 405.576 -3.00216 -0.885396 0
M  V30 4340 C 406.051 -4.45434 -1.06548 0
M  V30 4341 N 407.542 -4.49166 -1.13156 0
M  V30 4342 C 408.277 -5.58717 -1.28929 0
M  V30 4343 N 407.773 -6.78182 -1.41567 0
M  V30 4344 N 409.566 -5.46415 -1.31859 0
M  V30 4345 H 401.717 -2.05574 0.534147 0
M  V30 4346 H 403.98 -0.931259 0.177372 0
M  V30 4347 H 403.686 -3.51635 0.0675598 0
M  V30 4348 H 403.56 -3.37859 -1.67724 0
M  V30 4349 H 405.947 -2.38833 -1.73329 0
M  V30 4350 H 406.028 -2.55787 0.0261185 0
M  V30 4351 H 405.672 -5.07413 -0.222335 0
M  V30 4352 H 405.602 -4.87499 -1.9913 0
M  V30 4353 H 408.093 -3.631 -1.04721 0
M  V30 4354 H 408.406 -7.57428 -1.53372 0
M  V30 4355 H 406.751 -6.81037 -1.38613 0
M  V30 4356 H 409.942 -4.5203 -1.21601 0
M  V30 4357 H 410.115 -6.31841 -1.43808 0
M  V30 4358 N 403.521 0.559213 -1.47345 0
M  V30 4359 C 404.767 1.31843 -1.54095 0
M  V30 4360 C 405.1 1.93149 -0.201726 0
M  V30 4361 O 404.375 1.77759 0.789428 0
M  V30 4362 C 404.658 2.43006 -2.65744 0
M  V30 4363 C 404.511 1.86581 -4.09277 0
M  V30 4364 C 405.83 3.44943 -2.73318 0
M  V30 4365 H 402.949 0.478012 -0.560957 0
M  V30 4366 H 405.591 0.625977 -1.79392 0
M  V30 4367 H 403.741 3.02072 -2.44305 0
M  V30 4368 H 405.413 1.31792 -4.42073 0
M  V30 4369 H 403.656 1.17268 -4.17649 0
M  V30 4370 H 404.327 2.66933 -4.83168 0
M  V30 4371 H 406.803 2.95793 -2.92653 0
M  V30 4372 H 405.679 4.20153 -3.53218 0
M  V30 4373 H 405.94 4.03665 -1.80296 0
M  V30 4374 N 404.999 1.35443 0.805782 0
M  V30 4375 C 405.909 1.30546 1.94923 0
M  V30 4376 C 406.925 0.210233 1.72725 0
M  V30 4377 O 408.101 0.43975 1.9654 0
M  V30 4378 C 405.166 1.07782 3.29521 0
M  V30 4379 C 404.227 2.26625 3.64609 0
M  V30 4380 C 403.46 2.04938 4.92784 0
M  V30 4381 O 403.683 1.01624 5.61274 0
M  V30 4382 O 402.617 2.9232 5.26149 0
M  V30 4383 H 406.443 2.26779 2.02002 0
M  V30 4384 H 404.028 1.15823 0.943682 0
M  V30 4385 H 405.91 0.969392 4.10098 0
M  V30 4386 H 404.585 0.146003 3.23371 0
M  V30 4387 H 403.492 2.43033 2.84404 0
M  V30 4388 H 404.825 3.18257 3.75464 0
M  V30 4389 N 406.477 -1.02803 1.19454 0
M  V30 4390 C 407.407 -2.12999 0.956758 0
M  V30 4391 C 408.388 -1.69743 -0.110188 0
M  V30 4392 O 409.573 -1.94148 0.0450038 0
M  V30 4393 C 406.703 -3.43746 0.495553 0
M  V30 4394 C 405.657 -4.00688 1.50443 0
M  V30 4395 C 404.983 -5.27067 0.900275 0
M  V30 4396 C 406.283 -4.35397 2.8849 0
M  V30 4397 H 407.977 -2.33148 1.87836 0
M  V30 4398 H 405.523 -1.12045 0.904539 0
M  V30 4399 H 407.476 -4.2021 0.316493 0
M  V30 4400 H 406.2 -3.23321 -0.461646 0
M  V30 4401 H 404.859 -3.2632 1.67065 0
M  V30 4402 H 404.507 -5.02959 -0.064503 0
M  V30 4403 H 404.207 -5.66127 1.57397 0
M  V30 4404 H 405.731 -6.06196 0.73203 0
M  V30 4405 H 407.145 -5.02795 2.75446 0
M  V30 4406 H 405.542 -4.85541 3.52661 0
M  V30 4407 H 406.612 -3.44662 3.41081 0
M  V30 4408 N 407.956 -0.998596 -1.21925 0
M  V30 4409 C 408.866 -0.562736 -2.27751 0
M  V30 4410 C 409.882 0.391203 -1.69545 0
M  V30 4411 O 411.058 0.256625 -1.99758 0
M  V30 4412 C 408.123 0.11012 -3.46525 0
M  V30 4413 C 407.184 -0.887495 -4.20026 0
M  V30 4414 C 406.417 -0.246654 -5.3313 0
M  V30 4415 O 406.64 0.958088 -5.62296 0
M  V30 4416 O 405.574 -0.954374 -5.94286 0
M  V30 4417 H 409.4 -1.44329 -2.67213 0
M  V30 4418 H 406.985 -0.767135 -1.28201 0
M  V30 4419 H 408.867 0.486756 -4.18579 0
M  V30 4420 H 407.542 0.965154 -3.08976 0
M  V30 4421 H 406.449 -1.31517 -3.5022 0
M  V30 4422 H 407.782 -1.71191 -4.6147 0
M  V30 4423 N 409.434 1.37368 -0.772513 0
M  V30 4424 C 410.711 1.93839 -0.26188 0
M  V30 4425 C 411.091 1.7061 1.24319 0
M  V30 4426 O 410.439 1.05534 2.02669 0
M  V30 4427 C 410.649 3.43154 -0.636102 0
M  V30 4428 C 411.997 4.20249 -0.606324 0
M  V30 4429 O 413.021 3.5152 -0.575538 0
M  V30 4430 O 411.88 5.42809 -0.634086 0
M  V30 4431 H 408.974 0.82478 -0.0605555 0
M  V30 4432 H 411.52 1.4665 -0.853917 0
M  V30 4433 H 410.292 3.53647 -1.6748 0
M  V30 4434 H 409.915 3.97596 -0.0170516 0
M  V30 4435 N 410.912 0.523116 1.48665 0
M  V30 4436 C 412.158 -0.00540031 2.03399 0
M  V30 4437 C 412.513 -1.3264 1.39372 0
M  V30 4438 O 411.806 -1.84184 0.527916 0
M  V30 4439 C 412 -0.191671 3.56886 0
M  V30 4440 C 411.829 1.10972 4.35793 0
M  V30 4441 C 410.599 1.66769 4.76987 0
M  V30 4442 C 412.797 2.01861 4.73029 0
M  V30 4443 N 410.779 2.91268 5.40404 0
M  V30 4444 C 412.15 3.10937 5.36394 0
M  V30 4445 C 414.205 2.02271 4.54962 0
M  V30 4446 C 412.908 4.20478 5.83601 0
M  V30 4447 C 414.934 3.10802 5.03146 0
M  V30 4448 C 414.296 4.18597 5.6653 0
M  V30 4449 H 410.395 0.0393531 0.781009 0
M  V30 4450 H 412.979 0.702876 1.8157 0
M  V30 4451 H 411.15 -0.869025 3.78553 0
M  V30 4452 H 412.882 -0.719177 3.98259 0
M  V30 4453 H 409.637 1.20996 4.57883 0
M  V30 4454 H 410.061 3.54635 5.76683 0
M  V30 4455 H 414.703 1.2023 4.05345 0
M  V30 4456 H 412.421 5.03303 6.32228 0
M  V30 4457 H 416.007 3.12166 4.90962 0
M  V30 4458 H 414.887 5.01193 6.03138 0
M  V30 4459 N 412.39 -1.55475 0.257931 0
M  V30 4460 C 413.338 -2.23244 -0.653076 0
M  V30 4461 C 414.332 -1.22366 -1.17144 0
M  V30 4462 O 415.538 -1.40347 -1.12706 0
M  V30 4463 H 411.913 -0.716247 -0.229117 0
M  V30 4464 H 413.884 -2.98343 -0.0584788 0
M  V30 4465 C 412.633 -2.95401 -1.83395 0
M  V30 4466 H 411.956 -3.72802 -1.44424 0
M  V30 4467 H 413.396 -3.46165 -2.44838 0
M  V30 4468 C 411.855 -1.99895 -2.71189 0
M  V30 4469 O 412.385 -1.53909 -3.71046 0
M  V30 4470 N 410.591 -1.6676 -2.3799 0
M  V30 4471 H 410.138 -2.04352 -1.56837 0
M  V30 4472 H 410.096 -1.03127 -2.97005 0
M  V30 4473 N 413.868 0.0150385 -1.57593 0
M  V30 4474 C 415.116 0.701613 -1.8953 0
M  V30 4475 C 415.437 1.75139 -0.857396 0
M  V30 4476 O 414.707 1.95607 0.107194 0
M  V30 4477 H 413.287 0.26213 -0.699498 0
M  V30 4478 H 415.949 -0.0223304 -1.94887 0
M  V30 4479 H 415.045 1.18236 -2.88837 0
M  V30 4480 N 415.346 1.54954 0.287554 0
M  V30 4481 C 416.762 1.46469 0.633964 0
M  V30 4482 C 416.962 0.666865 1.90145 0
M  V30 4483 O 416.018 0.179906 2.51858 0
M  V30 4484 C 417.331 2.90556 0.774454 0
M  V30 4485 C 418.879 3.00681 0.869462 0
M  V30 4486 C 419.354 4.45993 1.04184 0
M  V30 4487 N 420.845 4.4976 1.10772 0
M  V30 4488 C 421.58 5.59393 1.25964 0
M  V30 4489 N 421.076 6.78923 1.37968 0
M  V30 4490 N 422.869 5.47107 1.28959 0
M  V30 4491 H 415.02 2.05288 -0.545041 0
M  V30 4492 H 417.283 0.930305 -0.182308 0
M  V30 4493 H 416.989 3.51594 -0.086207 0
M  V30 4494 H 416.863 3.38743 1.6593 0
M  V30 4495 H 419.25 2.39749 1.7206 0
M  V30 4496 H 419.331 2.55769 -0.0396831 0
M  V30 4497 H 418.975 5.07524 0.195422 0
M  V30 4498 H 418.905 4.88548 1.96542 0
M  V30 4499 H 421.396 3.63651 1.02794 0
M  V30 4500 H 421.709 7.58231 1.49353 0
M  V30 4501 H 420.054 6.81763 1.34999 0
M  V30 4502 H 423.245 4.52668 1.19202 0
M  V30 4503 H 423.418 6.32595 1.40455 0
M  V30 4504 N 416.824 -0.551391 1.4764 0
M  V30 4505 C 418.052 -1.33357 1.58189 0
M  V30 4506 C 418.467 -1.87342 0.234199 0
M  V30 4507 O 417.824 -1.65301 -0.77343 0
M  V30 4508 C 417.875 -2.49942 2.61173 0
M  V30 4509 O 417.596 -1.98187 3.90709 0
M  V30 4510 C 419.097 -3.42072 2.8196 0
M  V30 4511 H 416.317 -0.40631 0.533998 0
M  V30 4512 H 418.861 -0.667367 1.93304 0
M  V30 4513 H 417.016 -3.12489 2.28975 0
M  V30 4514 H 417.43 -2.74342 4.47031 0
M  V30 4515 H 418.904 -4.20278 3.57869 0
M  V30 4516 H 419.381 -3.95978 1.89995 0
M  V30 4517 H 419.987 -2.85336 3.15378 0
M  V30 4518 N 418.302 -1.35869 -0.798587 0
M  V30 4519 C 419.527 -1.32883 -1.59238 0
M  V30 4520 C 419.952 0.0894587 -1.87887 0
M  V30 4521 O 419.31 1.05869 -1.47178 0
M  V30 4522 C 419.358 -2.14892 -2.89575 0
M  V30 4523 O 418.462 -1.53512 -3.82763 0
M  V30 4524 H 417.803 -0.455236 -0.48338 0
M  V30 4525 H 420.333 -1.79024 -0.990539 0
M  V30 4526 H 420.343 -2.27139 -3.38928 0
M  V30 4527 H 419.018 -3.17998 -2.68049 0
M  V30 4528 H 417.595 -1.50153 -3.41334 0
M  V30 4529 N 419.78 1.02168 -1.19998 0
M  V30 4530 C 421.008 1.79296 -1.03249 0
M  V30 4531 C 421.423 1.84103 0.418502 0
M  V30 4532 O 420.78 1.29031 1.29063 0
M  V30 4533 C 420.831 3.24007 -1.60319 0
M  V30 4534 O 420.552 3.19512 -2.99739 0
M  V30 4535 C 422.053 4.17704 -1.48453 0
M  V30 4536 H 419.273 0.564016 -0.363493 0
M  V30 4537 H 421.817 1.28639 -1.58973 0
M  V30 4538 H 419.972 3.7183 -1.08727 0
M  V30 4539 H 420.386 4.10306 -3.26725 0
M  V30 4540 H 421.86 5.17104 -1.93153 0
M  V30 4541 H 422.337 4.37029 -0.436193 0
M  V30 4542 H 422.943 3.7576 -1.99211 0
M  V30 4543 N 421.258 1.00505 1.21394 0
M  V30 4544 C 422.221 0.570459 2.21987 0
M  V30 4545 C 423.221 -0.353211 1.56873 0
M  V30 4546 O 424.411 -0.14349 1.73608 0
M  V30 4547 C 421.543 -0.168555 3.40483 0
M  V30 4548 H 422.736 1.46021 2.6195 0
M  V30 4549 H 420.289 0.793565 1.34656 0
M  V30 4550 H 421.024 -1.07374 3.06009 0
M  V30 4551 H 420.809 0.494823 3.88965 0
M  V30 4552 H 422.299 -0.460362 4.15055 0
M  V30 4553 N 422.737 -1.36956 0.779787 0
M  V30 4554 C 424.014 -1.93697 0.272156 0
M  V30 4555 C 424.394 -1.71267 -1.23413 0
M  V30 4556 O 423.742 -1.06607 -2.02107 0
M  V30 4557 C 423.952 -3.42812 0.654291 0
M  V30 4558 C 425.3 -4.19921 0.628602 0
M  V30 4559 O 426.324 -3.51209 0.594172 0
M  V30 4560 O 425.183 -5.42465 0.662864 0
M  V30 4561 H 422.277 -0.824447 0.0649286 0
M  V30 4562 H 424.823 -1.46196 0.861682 0
M  V30 4563 H 423.595 -3.52754 1.69353 0
M  V30 4564 H 423.218 -3.97582 0.0381369 0
M  V30 4565 N 424.215 -0.530993 -1.48385 0
M  V30 4566 C 425.445 -0.00133928 -2.066 0
M  V30 4567 C 425.853 1.28599 -1.38777 0
M  V30 4568 O 425.196 1.77599 -0.469495 0
M  V30 4569 C 425.258 0.292137 -3.58311 0
M  V30 4570 C 424.922 -0.901864 -4.48013 0
M  V30 4571 C 425.919 -1.80053 -4.87726 0
M  V30 4572 C 423.604 -1.10915 -4.89901 0
M  V30 4573 C 425.598 -2.89038 -5.68098 0
M  V30 4574 C 423.285 -2.20213 -5.70043 0
M  V30 4575 C 424.283 -3.09107 -6.0905 0
M  V30 4576 O 423.971 -4.16514 -6.87583 0
M  V30 4577 H 423.703 -0.0308475 -0.675296 0
M  V30 4578 H 426.257 -0.736335 -1.91748 0
M  V30 4579 H 424.487 1.08112 -3.7128 0
M  V30 4580 H 426.176 0.763994 -3.98645 0
M  V30 4581 H 426.942 -1.65234 -4.55986 0
M  V30 4582 H 422.821 -0.426498 -4.59023 0
M  V30 4583 H 426.365 -3.58451 -5.98464 0
M  V30 4584 H 422.262 -2.35016 -6.01197 0
M  V30 4585 H 423.03 -4.14237 -7.05939 0
M  V30 4586 N 425.693 1.55336 -0.266172 0
M  V30 4587 C 426.656 2.20878 0.612001 0
M  V30 4588 C 427.656 1.18388 1.08816 0
M  V30 4589 O 428.846 1.4335 0.989774 0
M  V30 4590 C 425.978 2.86765 1.84332 0
M  V30 4591 H 427.171 2.99873 0.0398718 0
M  V30 4592 H 424.724 1.56291 -0.0167309 0
M  V30 4593 H 425.459 2.11759 2.45619 0
M  V30 4594 H 425.244 3.61862 1.5099 0
M  V30 4595 H 426.734 3.36867 2.46801 0
M  V30 4596 N 427.171 -0.0066808 1.57599 0
M  V30 4597 C 428.104 -1.03397 2.03431 0
M  V30 4598 C 429.082 -1.33872 0.922877 0
M  V30 4599 O 430.266 -1.4615 1.19048 0
M  V30 4600 C 427.393 -2.36325 2.42628 0
M  V30 4601 C 426.439 -2.21557 3.64438 0
M  V30 4602 S 427.272 -1.54789 5.12641 0
M  V30 4603 C 428.428 -2.8916 5.55101 0
M  V30 4604 H 428.661 -0.643687 2.90248 0
M  V30 4605 H 426.194 -0.217349 1.52863 0
M  V30 4606 H 428.152 -3.12759 2.65879 0
M  V30 4607 H 426.813 -2.72495 1.56222 0
M  V30 4608 H 426.006 -3.1974 3.89592 0
M  V30 4609 H 425.608 -1.53267 3.41153 0
M  V30 4610 H 427.9 -3.8547 5.57153 0
M  V30 4611 H 428.843 -2.68713 6.55133 0
M  V30 4612 H 429.251 -2.92762 4.82649 0
M  V30 4613 N 428.649 -1.55105 -0.279332 0
M  V30 4614 C 429.896 -1.75412 -1.01177 0
M  V30 4615 C 430.224 -0.551728 -1.86511 0
M  V30 4616 O 429.479 0.465919 -1.90073 0
M  V30 4617 C 429.778 -3.0086 -1.92919 0
M  V30 4618 C 429.444 -4.33689 -1.23387 0
M  V30 4619 C 428.106 -4.69792 -1.04159 0
M  V30 4620 C 430.458 -5.15941 -0.738562 0
M  V30 4621 C 427.786 -5.85707 -0.341166 0
M  V30 4622 C 430.138 -6.32579 -0.0517636 0
M  V30 4623 C 428.802 -6.67326 0.152292 0
M  V30 4624 H 428.072 -0.641879 -0.370233 0
M  V30 4625 H 430.719 -1.89373 -0.284627 0
M  V30 4626 H 429.024 -2.81773 -2.72234 0
M  V30 4627 H 430.721 -3.13768 -2.49701 0
M  V30 4628 H 427.311 -4.05309 -1.39364 0
M  V30 4629 H 431.495 -4.8853 -0.874764 0
M  V30 4630 H 426.751 -6.11157 -0.172287 0
M  V30 4631 H 430.925 -6.9557 0.339828 0
M  V30 4632 H 428.552 -7.56998 0.697014 0
M  V30 4633 N 430.127 0.543554 -1.4793 0
M  V30 4634 C 431.074 1.64942 -1.6144 0
M  V30 4635 C 432.044 1.59692 -0.456903 0
M  V30 4636 O 433.229 1.78321 -0.678688 0
M  V30 4637 C 430.369 3.03238 -1.64744 0
M  V30 4638 C 429.482 3.18823 -2.91506 0
M  V30 4639 C 428.617 4.47599 -2.86057 0
M  V30 4640 C 427.656 4.56664 -4.07584 0
M  V30 4641 N 426.793 5.76811 -4.00292 0
M  V30 4642 H 431.633 1.52733 -2.55884 0
M  V30 4643 H 429.17 0.7438 -1.2691 0
M  V30 4644 H 431.128 3.83339 -1.64641 0
M  V30 4645 H 429.758 3.1425 -0.738017 0
M  V30 4646 H 428.81 2.32064 -3.01414 0
M  V30 4647 H 430.122 3.21384 -3.81463 0
M  V30 4648 H 429.276 5.35975 -2.84281 0
M  V30 4649 H 428.015 4.47538 -1.93807 0
M  V30 4650 H 427.02 3.66697 -4.09651 0
M  V30 4651 H 428.245 4.58474 -5.00978 0
M  V30 4652 H 426.191 5.77673 -3.10853 0
M  V30 4653 H 426.108 5.80808 -4.8394 0
M  V30 4654 H 427.376 6.67512 -4.02553 0
M  V30 4655 N 431.605 1.3629 0.791371 0
M  V30 4656 C 432.851 1.30605 1.55146 0
M  V30 4657 C 433.184 -0.115042 1.93859 0
M  V30 4658 O 432.459 -1.06798 1.62556 0
M  V30 4659 C 432.742 2.22692 2.82985 0
M  V30 4660 C 432.595 3.73489 2.50651 0
M  V30 4661 C 433.914 2.13588 3.84796 0
M  V30 4662 H 431.033 0.475761 0.562868 0
M  V30 4663 H 433.675 1.66825 0.909358 0
M  V30 4664 H 431.825 1.91933 3.37778 0
M  V30 4665 H 433.497 4.14758 2.01924 0
M  V30 4666 H 431.74 3.93021 1.83622 0
M  V30 4667 H 432.411 4.3333 3.41949 0
M  V30 4668 H 434.887 2.40659 3.39445 0
M  V30 4669 H 433.763 2.80195 4.71998 0
M  V30 4670 H 434.024 1.12256 4.27611 0
M  V30 4671 N 433.083 -1.0153 1.20538 0
M  V30 4672 C 434.331 -1.74803 1.01432 0
M  V30 4673 C 434.652 -1.8963 -0.454456 0
M  V30 4674 O 433.922 -1.43975 -1.32846 0
M  V30 4675 H 432.502 -0.647598 0.372324 0
M  V30 4676 H 435.164 -1.22402 1.5167 0
M  V30 4677 H 434.26 -2.75114 1.47373 0
M  V30 4678 N 434.561 -1.01147 -1.20859 0
M  V30 4679 C 435.972 -0.730205 -1.71828 0
M  V30 4680 C 436.323 0.751662 -1.8123 0
M  V30 4681 O 435.448 1.58686 -1.47132 0
M  V30 4682 C 436.043 -1.31885 -3.12077 0
M  V30 4683 C 434.602 -1.08656 -3.60376 0
M  V30 4684 C 433.749 -1.42769 -2.37723 0
M  V30 4685 H 436.7 -1.18158 -1.05945 0
M  V30 4686 H 436.721 -0.706793 -3.73878 0
M  V30 4687 H 436.233 -2.39737 -3.05201 0
M  V30 4688 H 434.334 -0.0254814 -3.72591 0
M  V30 4689 H 434.447 -1.76301 -4.45483 0
M  V30 4690 H 432.811 -0.846603 -2.40218 0
M  V30 4691 H 433.594 -2.51666 -2.33493 0
M  V30 4692 N 436.039 1.36541 -0.78704 0
M  V30 4693 C 436.949 2.3387 -0.184896 0
M  V30 4694 C 437.965 1.60927 0.661697 0
M  V30 4695 O 439.141 1.92927 0.57804 0
M  V30 4696 C 436.206 3.40122 0.672145 0
M  V30 4697 C 435.267 4.28867 -0.19267 0
M  V30 4698 C 434.5 5.30045 0.623561 0
M  V30 4699 O 434.723 5.39232 1.8597 0
M  V30 4700 O 433.657 6.01895 0.0247068 0
M  V30 4701 H 437.483 2.87126 -0.989562 0
M  V30 4702 H 435.068 1.38969 -0.548455 0
M  V30 4703 H 436.95 4.05093 1.16094 0
M  V30 4704 H 435.625 2.89169 1.45474 0
M  V30 4705 H 434.532 3.66945 -0.728166 0
M  V30 4706 H 435.865 4.83165 -0.938722 0
M  V30 4707 N 437.518 0.538854 1.48102 0
M  V30 4708 C 438.481 -0.208395 2.28251 0
M  V30 4709 C 439.481 -0.859656 1.35892 0
M  V30 4710 O 440.671 -0.71834 1.58699 0
M  V30 4711 C 437.803 -1.30252 3.15035 0
M  V30 4712 H 438.996 0.495407 2.9578 0
M  V30 4713 H 436.549 0.295112 1.53489 0
M  V30 4714 H 437.284 -2.0393 2.52157 0
M  V30 4715 H 437.069 -0.840551 3.82985 0
M  V30 4716 H 438.559 -1.82787 3.75471 0
M  V30 4717 N 438.996 -1.55193 0.274407 0
M  V30 4718 C 440.273 -1.91584 -0.394331 0
M  V30 4719 C 440.653 -1.19858 -1.73774 0
M  V30 4720 O 440.001 -0.3252 -2.26174 0
M  V30 4721 C 440.211 -3.4487 -0.535311 0
M  V30 4722 C 441.559 -4.16636 -0.818534 0
M  V30 4723 O 442.583 -3.5076 -0.620146 0
M  V30 4724 O 441.442 -5.33209 -1.19792 0
M  V30 4725 H 438.536 -0.798349 -0.215794 0
M  V30 4726 H 441.082 -1.66646 0.320507 0
M  V30 4727 H 439.854 -3.89145 0.410141 0
M  V30 4728 H 439.477 -3.75759 -1.29964 0
M  V30 4729 N 440.474 -0.00167713 -1.576 0
M  V30 4730 C 441.421 0.989195 -2.08527 0
M  V30 4731 C 442.391 1.34031 -0.981065 0
M  V30 4732 O 443.576 1.43839 -1.2536 0
M  V30 4733 C 440.716 2.27537 -2.59463 0
M  V30 4734 C 439.829 1.98314 -3.83791 0
M  V30 4735 C 438.964 3.21025 -4.23222 0
M  V30 4736 C 438.003 2.87495 -5.40382 0
M  V30 4737 N 437.14 4.02749 -5.75098 0
M  V30 4738 H 441.98 0.547973 -2.92919 0
M  V30 4739 H 439.517 0.258917 -1.44803 0
M  V30 4740 H 441.475 3.02729 -2.87073 0
M  V30 4741 H 440.105 2.69325 -1.77943 0
M  V30 4742 H 439.157 1.13482 -3.63078 0
M  V30 4743 H 440.469 1.69601 -4.69081 0
M  V30 4744 H 439.623 4.04561 -4.52123 0
M  V30 4745 H 438.362 3.52877 -3.36644 0
M  V30 4746 H 437.367 2.02367 -5.11202 0
M  V30 4747 H 438.592 2.56889 -6.28637 0
M  V30 4748 H 436.538 4.34494 -4.91478 0
M  V30 4749 H 436.455 3.77566 -6.54966 0
M  V30 4750 H 437.723 4.87068 -6.08592 0
M  V30 4751 N 441.952 1.55251 0.271103 0
M  V30 4752 C 443.182 1.79713 1.01916 0
M  V30 4753 C 443.59 0.571613 1.80359 0
M  V30 4754 O 442.933 -0.468853 1.77616 0
M  V30 4755 C 442.995 2.97138 2.02359 0
M  V30 4756 C 442.659 4.34104 1.42837 0
M  V30 4757 C 443.656 5.13019 0.843071 0
M  V30 4758 C 441.341 4.80765 1.455 0
M  V30 4759 C 443.335 6.36729 0.292333 0
M  V30 4760 C 441.022 6.0443 0.900402 0
M  V30 4761 C 442.02 6.8225 0.32007 0
M  V30 4762 O 441.708 8.03582 -0.226031 0
M  V30 4763 H 441.44 0.602431 0.306681 0
M  V30 4764 H 443.994 2.03097 0.306701 0
M  V30 4765 H 442.224 2.6945 2.77369 0
M  V30 4766 H 443.913 3.08907 2.63309 0
M  V30 4767 H 444.679 4.781 0.815178 0
M  V30 4768 H 440.558 4.20202 1.89609 0
M  V30 4769 H 444.102 6.97414 -0.161274 0
M  V30 4770 H 439.999 6.3883 0.925541 0
M  V30 4771 H 440.767 8.18418 -0.115572 0
M  V30 4772 N 443.43 -0.535701 1.48216 0
M  V30 4773 C 444.846 -0.863701 1.3421 0
M  V30 4774 C 445.046 -1.98458 0.34879 0
M  V30 4775 O 444.102 -2.51432 -0.23204 0
M  V30 4776 C 445.415 -1.23662 2.74095 0
M  V30 4777 C 446.963 -1.34683 2.82541 0
M  V30 4778 C 447.438 -1.75322 4.23115 0
M  V30 4779 N 448.929 -1.82434 4.2576 0
M  V30 4780 C 449.664 -2.15252 5.31464 0
M  V30 4781 N 449.16 -2.46533 6.47452 0
M  V30 4782 N 450.953 -2.16209 5.18855 0
M  V30 4783 H 443.104 0.203965 2.11418 0
M  V30 4784 H 445.367 0.0286033 0.947568 0
M  V30 4785 H 445.073 -0.486674 3.48316 0
M  V30 4786 H 444.947 -2.18805 3.07253 0
M  V30 4787 H 447.334 -2.08756 2.08579 0
M  V30 4788 H 447.415 -0.376756 2.5301 0
M  V30 4789 H 447.059 -1.01812 4.97591 0
M  V30 4790 H 446.989 -2.7337 4.50085 0
M  V30 4791 H 449.48 -1.6056 3.42095 0
M  V30 4792 H 449.793 -2.70662 7.23852 0
M  V30 4793 H 448.138 -2.44065 6.50736 0
M  V30 4794 H 451.329 -1.91224 4.2726 0
M  V30 4795 H 451.502 -2.41453 6.01335 0
M  V30 4796 N 444.908 -1.36708 -0.784132 0
M  V30 4797 C 445.838 -1.34153 -1.91116 0
M  V30 4798 C 446.819 -0.212121 -1.68772 0
M  V30 4799 O 448.004 -0.410581 -1.8981 0
M  V30 4800 C 445.134 -1.13535 -3.28218 0
M  V30 4801 C 444.088 -2.23356 -3.65097 0
M  V30 4802 C 443.414 -1.87875 -5.00607 0
M  V30 4803 C 444.714 -3.65473 -3.73131 0
M  V30 4804 H 446.408 -2.28459 -1.93512 0
M  V30 4805 H 443.954 -1.09973 -0.929618 0
M  V30 4806 H 445.907 -1.10381 -4.06687 0
M  V30 4807 H 444.631 -0.156804 -3.26223 0
M  V30 4808 H 443.29 -2.25645 -2.88929 0
M  V30 4809 H 442.938 -0.885814 -4.95139 0
M  V30 4810 H 442.638 -2.61406 -5.26252 0
M  V30 4811 H 444.162 -1.86286 -5.81489 0
M  V30 4812 H 445.576 -3.65382 -4.41779 0
M  V30 4813 H 443.973 -4.37953 -4.10265 0
M  V30 4814 H 445.043 -3.99995 -2.74102 0
M  V30 4815 N 446.386 1.0089 -1.21074 0
M  V30 4816 C 447.614 1.78191 -1.05145 0
M  V30 4817 C 448.029 1.84537 0.398952 0
M  V30 4818 O 447.386 1.30393 1.27687 0
M  V30 4819 C 447.437 3.22288 -1.63746 0
M  V30 4820 O 447.158 3.16315 -3.03111 0
M  V30 4821 C 448.659 4.16106 -1.52875 0
M  V30 4822 H 445.879 0.560129 -0.369454 0
M  V30 4823 H 448.423 1.26945 -1.60328 0
M  V30 4824 H 446.578 3.70655 -1.12664 0
M  V30 4825 H 446.992 4.06817 -3.31059 0
M  V30 4826 H 448.466 5.15026 -1.98626 0
M  V30 4827 H 448.943 4.36541 -0.482521 0
M  V30 4828 H 449.549 3.73625 -2.03185 0
M  V30 4829 N 447.864 1.01787 1.20321 0
M  V30 4830 C 449.094 0.72614 1.93419 0
M  V30 4831 C 449.502 -0.717317 1.75075 0
M  V30 4832 O 448.845 -1.49836 1.06278 0
M  V30 4833 C 448.907 0.983621 3.45782 0
M  V30 4834 C 448.571 2.41645 3.87888 0
M  V30 4835 C 449.568 3.39732 3.93545 0
M  V30 4836 C 447.253 2.75752 4.19841 0
M  V30 4837 C 449.247 4.69988 4.30569 0
M  V30 4838 C 446.934 4.06221 4.56539 0
M  V30 4839 C 447.932 5.0315 4.61876 0
M  V30 4840 O 447.62 6.31284 4.97731 0
M  V30 4841 H 447.352 0.265824 0.621541 0
M  V30 4842 H 449.906 1.3623 1.53722 0
M  V30 4843 H 448.136 0.290301 3.85609 0
M  V30 4844 H 449.825 0.683279 4.00108 0
M  V30 4845 H 450.591 3.14718 3.69022 0
M  V30 4846 H 446.47 2.00993 4.14877 0
M  V30 4847 H 450.014 5.45642 4.3465 0
M  V30 4848 H 445.911 4.31013 4.80518 0
M  V30 4849 H 446.679 6.35591 5.15719 0
M  V30 4850 N 449.342 -1.36122 0.79427 0
M  V30 4851 C 450.305 -2.28309 0.201889 0
M  V30 4852 C 451.305 -1.49041 -0.603603 0
M  V30 4853 O 452.495 -1.68964 -0.423888 0
M  V30 4854 C 449.627 -3.3321 -0.719978 0
M  V30 4855 H 450.82 -2.82208 1.01481 0
M  V30 4856 H 448.373 -1.45768 0.564037 0
M  V30 4857 H 449.108 -2.84475 -1.55706 0
M  V30 4858 H 448.893 -3.91835 -0.144266 0
M  V30 4859 H 450.383 -4.02044 -1.12916 0
M  V30 4860 N 450.82 -0.546701 -1.47814 0
M  V30 4861 C 452.05 -0.0232519 -2.06587 0
M  V30 4862 C 452.458 1.2712 -1.40133 0
M  V30 4863 O 451.801 1.77091 -0.488305 0
M  V30 4864 C 451.863 0.254117 -3.58601 0
M  V30 4865 C 451.527 -0.949331 -4.47031 0
M  V30 4866 C 452.524 -1.85216 -4.85789 0
M  V30 4867 C 450.209 -1.16104 -4.88697 0
M  V30 4868 C 452.203 -2.95047 -5.65001 0
M  V30 4869 C 449.89 -2.26247 -5.67676 0
M  V30 4870 C 450.888 -3.1555 -6.05737 0
M  V30 4871 O 450.576 -4.23784 -6.83127 0
M  V30 4872 H 450.308 -0.0380082 -0.674931 0
M  V30 4873 H 452.862 -0.756631 -1.90956 0
M  V30 4874 H 451.092 1.04168 -3.72406 0
M  V30 4875 H 452.781 0.72167 -3.99433 0
M  V30 4876 H 453.547 -1.70061 -4.54207 0
M  V30 4877 H 449.426 -0.475159 -4.58545 0
M  V30 4878 H 452.97 -3.64778 -5.94628 0
M  V30 4879 H 448.867 -2.41379 -5.98671 0
M  V30 4880 H 449.635 -4.21701 -7.01506 0
M  V30 4881 N 452.299 1.55045 -0.282633 0
M  V30 4882 C 453.546 1.9976 0.33199 0
M  V30 4883 C 453.874 1.17105 1.55295 0
M  V30 4884 O 453.129 0.230599 1.94337 0
M  V30 4885 C 453.428 3.49422 0.750938 0
M  V30 4886 C 453.094 4.4941 -0.366228 0
M  V30 4887 C 451.756 4.76471 -0.672964 0
M  V30 4888 C 454.108 5.09054 -1.11864 0
M  V30 4889 C 451.436 5.60442 -1.73556 0
M  V30 4890 C 453.788 5.9418 -2.17102 0
M  V30 4891 C 452.452 6.19558 -2.48402 0
M  V30 4892 H 451.722 0.730974 0.121484 0
M  V30 4893 H 454.369 1.8732 -0.39791 0
M  V30 4894 H 452.674 3.59377 1.56063 0
M  V30 4895 H 454.371 3.81432 1.23736 0
M  V30 4896 H 450.961 4.2844 -0.117041 0
M  V30 4897 H 455.145 4.88165 -0.894925 0
M  V30 4898 H 450.401 5.78349 -1.983 0
M  V30 4899 H 454.575 6.39427 -2.75873 0
M  V30 4900 H 452.202 6.84417 -3.30874 0
M  V30 4901 N 453.777 0.010035 1.57597 0
M  V30 4902 C 454.74 -0.963029 2.07986 0
M  V30 4903 C 455.74 -1.26619 0.991173 0
M  V30 4904 O 456.93 -1.2097 1.25347 0
M  V30 4905 C 454.062 -2.2851 2.52974 0
M  V30 4906 H 455.255 -0.526971 2.95234 0
M  V30 4907 H 452.808 -0.237639 1.54483 0
M  V30 4908 H 453.543 -2.76784 1.69 0
M  V30 4909 H 453.328 -2.07824 3.32493 0
M  V30 4910 H 454.818 -2.98294 2.9225 0
M  V30 4911 N 455.255 -1.55392 -0.262866 0
M  V30 4912 C 456.503 -1.76127 -0.991147 0
M  V30 4913 C 456.824 -0.571083 -1.8645 0
M  V30 4914 O 456.094 0.413698 -1.91482 0
M  V30 4915 H 454.674 -0.649528 -0.368948 0
M  V30 4916 H 457.336 -1.9281 -0.284655 0
M  V30 4917 H 456.432 -2.6663 -1.62219 0
M  V30 4918 N 456.733 0.527833 -1.48498 0
M  V30 4919 C 457.981 1.28101 -1.56316 0
M  V30 4920 C 458.302 1.9352 -0.239781 0
M  V30 4921 O 457.572 1.81433 0.738849 0
M  V30 4922 H 456.152 0.475793 -0.575873 0
M  V30 4923 H 458.814 0.614052 -1.84974 0
M  V30 4924 H 457.91 2.05916 -2.34532 0
M  V30 4925 N 458.211 1.37122 0.776871 0
M  V30 4926 C 459.488 1.22586 1.52421 0
M  V30 4927 C 459.868 -0.182726 2.10308 0
M  V30 4928 O 459.216 -1.18979 1.9508 0
M  V30 4929 C 459.426 2.31782 2.60918 0
M  V30 4930 C 460.774 2.69071 3.2846 0
M  V30 4931 O 461.798 2.3092 2.71209 0
M  V30 4932 O 460.657 3.3478 4.31954 0
M  V30 4933 H 457.751 0.478045 0.674835 0
M  V30 4934 H 460.297 1.48888 0.814275 0
M  V30 4935 H 459.069 3.26131 2.16227 0
M  V30 4936 H 458.692 2.06916 3.39517 0
M  V30 4937 N 459.689 -1.00246 1.21608 0
M  V30 4938 C 460.652 -2.07233 0.979133 0
M  V30 4939 C 461.652 -1.6072 -0.0508219 0
M  V30 4940 O 462.842 -1.73196 0.186712 0
M  V30 4941 C 459.974 -3.37546 0.477016 0
M  V30 4942 H 461.167 -2.29687 1.92831 0
M  V30 4943 H 458.72 -1.17261 1.03342 0
M  V30 4944 H 459.455 -3.20773 -0.476966 0
M  V30 4945 H 459.24 -3.72638 1.21997 0
M  V30 4946 H 460.73 -4.16285 0.331181 0
M  V30 4947 N 461.167 -1.02423 -1.1978 0
M  V30 4948 C 462.415 -0.716569 -1.8897 0
M  V30 4949 C 462.736 0.756769 -1.79716 0
M  V30 4950 O 462.006 1.5449 -1.20456 0
M  V30 4951 H 460.586 -0.262062 -0.699523 0
M  V30 4952 H 463.248 -1.29747 -1.45436 0
M  V30 4953 H 462.344 -1.00675 -2.95417 0
M  V30 4954 N 462.645 1.35699 -0.801477 0
M  V30 4955 C 463.922 1.9324 -0.302937 0
M  V30 4956 C 464.302 1.73209 1.20672 0
M  V30 4957 O 463.65 1.09809 2.00385 0
M  V30 4958 C 463.86 3.41728 -0.708747 0
M  V30 4959 C 465.208 4.18868 -0.695328 0
M  V30 4960 O 466.232 3.5022 -0.649971 0
M  V30 4961 O 465.091 5.41342 -0.749081 0
M  V30 4962 H 462.185 0.82331 -0.0780367 0
M  V30 4963 H 464.731 1.44806 -0.884832 0
M  V30 4964 H 463.503 3.50015 -1.74944 0
M  V30 4965 H 463.126 3.97471 -0.101384 0
M  V30 4966 N 464.123 0.554532 1.47522 0
M  V30 4967 C 465.086 -0.184174 2.28459 0
M  V30 4968 C 466.086 -0.845195 1.36796 0
M  V30 4969 O 467.276 -0.701467 1.59452 0
M  V30 4970 C 464.408 -1.26903 3.16399 0
M  V30 4971 H 465.601 0.526751 2.95238 0
M  V30 4972 H 463.154 0.311375 1.53167 0
M  V30 4973 H 463.889 -2.01244 2.54306 0
M  V30 4974 H 463.674 -0.799883 3.83854 0
M  V30 4975 H 465.164 -1.78794 3.77389 0
M  V30 4976 N 465.601 -1.54893 0.290851 0
M  V30 4977 C 466.848 -1.99933 -0.321391 0
M  V30 4978 C 467.176 -1.17927 -1.54672 0
M  V30 4979 O 466.431 -0.240902 -1.94212 0
M  V30 4980 C 466.73 -3.49815 -0.732397 0
M  V30 4981 C 466.396 -4.4921 0.390056 0
M  V30 4982 C 465.058 -4.76107 0.698223 0
M  V30 4983 C 467.41 -5.08453 1.14562 0
M  V30 4984 C 464.738 -5.59514 1.76526 0
M  V30 4985 C 467.09 -5.9302 2.2025 0
M  V30 4986 C 465.754 -6.18232 2.51684 0
M  V30 4987 H 465.024 -0.731608 -0.117605 0
M  V30 4988 H 467.671 -1.87107 0.407839 0
M  V30 4989 H 465.976 -3.60199 -1.54155 0
M  V30 4990 H 467.673 -3.82083 -1.21712 0
M  V30 4991 H 464.263 -4.28372 0.13976 0
M  V30 4992 H 468.447 -4.87683 0.920801 0
M  V30 4993 H 463.703 -5.77289 2.01364 0
M  V30 4994 H 467.877 -6.37955 2.7926 0
M  V30 4995 H 465.504 -6.82653 3.34499 0
M  V30 4996 N 467.08 -0.0183926 -1.57589 0
M  V30 4997 C 468.357 0.700621 -1.82622 0
M  V30 4998 C 468.737 1.90951 -0.90005 0
M  V30 4999 O 468.085 2.28452 0.0469145 0
M  V30 5000 C 468.295 1.08899 -3.31575 0
M  V30 5001 C 469.643 1.48514 -3.9778 0
M  V30 5002 O 470.667 1.18227 -3.36007 0
M  V30 5003 O 469.526 2.04903 -5.06633 0
M  V30 5004 H 466.62 0.342743 -0.752633 0
M  V30 5005 H 469.166 -0.0452548 -1.6964 0
M  V30 5006 H 467.938 0.228113 -3.90635 0
M  V30 5007 H 467.561 1.89338 -3.49624 0
M  V30 5008 N 468.558 1.5553 0.254621 0
M  V30 5009 C 469.806 1.7665 0.981793 0
M  V30 5010 C 470.127 0.580963 1.86145 0
M  V30 5011 O 469.397 -0.403537 1.91699 0
M  V30 5012 H 467.977 0.651475 0.365498 0
M  V30 5013 H 470.639 1.92958 0.274426 0
M  V30 5014 H 469.735 2.67486 1.60802 0
M  V30 5015 N 470.036 -0.519951 1.48776 0
M  V30 5016 C 471.283 -1.27522 1.57303 0
M  V30 5017 C 471.611 -1.92869 0.251328 0
M  V30 5018 O 470.866 -1.80372 -0.759243 0
M  V30 5019 C 471.165 -2.37864 2.6675 0
M  V30 5020 C 470.831 -1.90103 4.08867 0
M  V30 5021 C 469.493 -1.76795 4.47546 0
M  V30 5022 C 471.845 -1.54133 4.97888 0
M  V30 5023 C 469.173 -1.25868 5.73039 0
M  V30 5024 C 471.525 -1.04665 6.23881 0
M  V30 5025 C 470.189 -0.899823 6.61407 0
M  V30 5026 H 469.459 -0.466636 0.575614 0
M  V30 5027 H 472.106 -0.579109 1.82534 0
M  V30 5028 H 470.411 -3.13186 2.35418 0
M  V30 5029 H 472.108 -2.95969 2.70561 0
M  V30 5030 H 468.698 -2.01414 3.78326 0
M  V30 5031 H 472.882 -1.6327 4.68675 0
M  V30 5032 H 468.138 -1.13196 6.0083 0
M  V30 5033 H 472.312 -0.759074 6.92251 0
M  V30 5034 H 469.939 -0.503011 7.58534 0
M  V30 5035 N 471.514 -1.37532 -0.769588 0
M  V30 5036 C 472.791 -1.23392 -1.51768 0
M  V30 5037 C 473.171 0.17157 -2.10402 0
M  V30 5038 O 472.519 1.17943 -1.95708 0
M  V30 5039 C 472.729 -2.33163 -2.59685 0
M  V30 5040 C 474.077 -2.70809 -3.27028 0
M  V30 5041 O 475.101 -2.32355 -2.69981 0
M  V30 5042 O 473.96 -3.37066 -4.30173 0
M  V30 5043 H 471.054 -0.481617 -0.67229 0
M  V30 5044 H 473.6 -1.49318 -0.806368 0
M  V30 5045 H 472.372 -3.27273 -2.14494 0
M  V30 5046 H 471.995 -2.08713 -3.38415 0
M  V30 5047 N 472.992 0.995999 -1.22138 0
M  V30 5048 C 474.239 1.7351 -1.04406 0
M  V30 5049 C 474.567 1.89884 0.421244 0
M  V30 5050 O 473.822 1.43683 1.32867 0
M  V30 5051 C 474.121 3.14553 -1.6968 0
M  V30 5052 C 473.787 3.18102 -3.19565 0
M  V30 5053 C 472.449 3.18778 -3.60464 0
M  V30 5054 C 474.801 3.14636 -4.15516 0
M  V30 5055 C 472.129 3.13684 -4.95801 0
M  V30 5056 C 474.481 3.11084 -5.50826 0
M  V30 5057 C 473.145 3.10074 -5.91109 0
M  V30 5058 H 472.415 0.634916 -0.38205 0
M  V30 5059 H 475.062 1.1667 -1.51857 0
M  V30 5060 H 473.367 3.74682 -1.14546 0
M  V30 5061 H 475.064 3.70477 -1.53454 0
M  V30 5062 H 471.654 3.18324 -2.86998 0
M  V30 5063 H 475.838 3.13266 -3.84939 0
M  V30 5064 H 471.094 3.11245 -5.26247 0
M  V30 5065 H 475.268 3.07357 -6.24904 0
M  V30 5066 H 472.895 3.05882 -6.95946 0
M  V30 5067 N 474.47 1.03057 1.19235 0
M  V30 5068 C 475.718 0.726581 1.88587 0
M  V30 5069 C 476.039 -0.747227 1.80115 0
M  V30 5070 O 475.309 -1.53849 1.21274 0
M  V30 5071 H 473.889 0.265768 0.698124 0
M  V30 5072 H 476.551 1.30516 1.44746 0
M  V30 5073 H 475.647 1.0224 2.94879 0
M  V30 5074 N 475.948 -1.35272 0.808662 0
M  V30 5075 C 477.225 -1.93077 0.313181 0
M  V30 5076 C 477.605 -1.73847 -1.19752 0
M  V30 5077 O 476.953 -1.1087 -1.998 0
M  V30 5078 C 477.163 -3.41347 0.726859 0
M  V30 5079 C 478.511 -4.18493 0.717532 0
M  V30 5080 O 479.535 -3.4987 0.668535 0
M  V30 5081 O 478.394 -5.40937 0.777779 0
M  V30 5082 H 475.488 -0.822885 0.0824018 0
M  V30 5083 H 478.034 -1.44335 0.892499 0
M  V30 5084 H 476.806 -3.49082 1.76797 0
M  V30 5085 H 476.429 -3.97411 0.122461 0
M  V30 5086 N 477.426 -0.562348 -1.47226 0
M  V30 5087 C 478.703 0.0256985 -1.95583 0
M  V30 5088 C 479.083 1.48032 -1.50498 0
M  V30 5089 O 478.431 2.15973 -0.746181 0
M  V30 5090 C 478.641 -0.125129 -3.48776 0
M  V30 5091 C 479.989 0.0175728 -4.24596 0
M  V30 5092 O 481.013 -0.0529341 -3.56161 0
M  V30 5093 O 479.872 0.170145 -5.46235 0
M  V30 5094 H 476.966 0.0612565 -0.824728 0
M  V30 5095 H 479.512 -0.629233 -1.57603 0
M  V30 5096 H 478.284 -1.13715 -3.74412 0
M  V30 5097 H 477.907 0.567178 -3.93534 0
M  V30 5098 N 478.904 1.54736 -0.299062 0
M  V30 5099 C 480.315 1.8569 0.193971 0
M  V30 5100 C 480.666 1.22101 1.53577 0
M  V30 5101 O 479.791 0.51799 2.10109 0
M  V30 5102 C 480.386 3.36895 0.358733 0
M  V30 5103 C 478.945 3.67887 0.795986 0
M  V30 5104 C 478.092 2.77131 -0.096807 0
M  V30 5105 H 481.043 1.49934 -0.520134 0
M  V30 5106 H 481.064 3.61294 1.19361 0
M  V30 5107 H 480.576 3.83148 -0.617998 0
M  V30 5108 H 478.677 3.27151 1.78334 0
M  V30 5109 H 478.79 4.75114 0.616718 0
M  V30 5110 H 477.154 2.51153 0.423581 0
M  V30 5111 H 477.937 3.26204 -1.06986 0
M  V30 5112 N 480.382 0.0267497 1.57577 0
M  V30 5113 C 481.607 -0.666227 1.96408 0
M  V30 5114 C 482.032 -1.65004 0.903071 0
M  V30 5115 O 481.39 -1.80787 -0.136263 0
M  V30 5116 C 481.438 -1.35101 3.34335 0
M  V30 5117 O 480.542 -2.46623 3.30531 0
M  V30 5118 H 479.883 -0.175206 0.640468 0
M  V30 5119 H 482.413 0.0878977 2.04411 0
M  V30 5120 H 482.423 -1.70834 3.70513 0
M  V30 5121 H 481.098 -0.629844 4.11103 0
M  V30 5122 H 479.675 -2.13019 3.06068 0
M  V30 5123 N 481.861 -1.55662 -0.24637 0
M  V30 5124 C 483.138 -1.68272 -0.997198 0
M  V30 5125 C 483.518 -0.566785 -2.03349 0
M  V30 5126 O 482.866 0.429688 -2.24424 0
M  V30 5127 C 483.076 -3.08594 -1.63006 0
M  V30 5128 C 484.424 -3.6721 -2.13171 0
M  V30 5129 O 485.448 -3.11397 -1.72946 0
M  V30 5130 O 484.307 -4.65054 -2.87031 0
M  V30 5131 H 481.401 -0.684429 -0.464205 0
M  V30 5132 H 483.947 -1.67993 -0.240114 0
M  V30 5133 H 482.719 -3.81264 -0.880527 0
M  V30 5134 H 482.342 -3.12886 -2.45333 0
M  V30 5135 N 483.339 0.512053 -1.4905 0
M  V30 5136 C 484.286 1.6148 -1.64902 0
M  V30 5137 C 485.256 1.58687 -0.490673 0
M  V30 5138 O 486.441 1.76842 -0.71636 0
M  V30 5139 C 483.581 2.99676 -1.71139 0
M  V30 5140 C 482.694 3.12568 -2.98203 0
M  V30 5141 C 481.829 4.4143 -2.95487 0
M  V30 5142 C 480.868 4.47916 -4.17179 0
M  V30 5143 N 480.005 5.68191 -4.12437 0
M  V30 5144 H 484.845 1.47271 -2.59066 0
M  V30 5145 H 482.382 0.716713 -1.28459 0
M  V30 5146 H 484.34 3.79761 -1.72736 0
M  V30 5147 H 482.97 3.12614 -0.804508 0
M  V30 5148 H 482.022 2.25618 -3.06269 0
M  V30 5149 H 483.334 3.1322 -3.88194 0
M  V30 5150 H 482.488 5.29825 -2.95585 0
M  V30 5151 H 481.227 4.43326 -2.03256 0
M  V30 5152 H 480.232 3.57925 -4.17337 0
M  V30 5153 H 481.457 4.47744 -5.1059 0
M  V30 5154 H 479.403 5.7095 -3.23036 0
M  V30 5155 H 479.32 5.70413 -4.96151 0
M  V30 5156 H 480.588 6.58823 -4.16621 0
M  V30 5157 N 484.817 1.37938 0.762283 0
M  V30 5158 C 486.064 1.33668 1.52115 0
M  V30 5159 C 486.392 -0.0759538 1.94352 0
M  V30 5160 O 485.647 -1.05121 1.6507 0
M  V30 5161 C 485.946 2.23042 2.79261 0
M  V30 5162 C 485.612 3.71159 2.56031 0
M  V30 5163 C 484.274 4.11523 2.49404 0
M  V30 5164 C 486.626 4.64955 2.35513 0
M  V30 5165 C 483.954 5.43784 2.20263 0
M  V30 5166 C 486.306 5.97464 2.07894 0
M  V30 5167 C 484.97 6.36922 1.99718 0
M  V30 5168 H 484.24 0.489127 0.556629 0
M  V30 5169 H 486.887 1.70224 0.877262 0
M  V30 5170 H 485.192 1.79512 3.48256 0
M  V30 5171 H 486.889 2.17047 3.37182 0
M  V30 5172 H 483.479 3.39153 2.62056 0
M  V30 5173 H 487.663 4.34623 2.39617 0
M  V30 5174 H 482.919 5.73307 2.12435 0
M  V30 5175 H 487.093 6.6969 1.91019 0
M  V30 5176 H 484.72 7.39331 1.76902 0
M  V30 5177 N 486.295 -0.989507 1.22664 0
M  V30 5178 C 487.542 -1.72953 1.05325 0
M  V30 5179 C 487.87 -1.90104 -0.411168 0
M  V30 5180 O 487.125 -1.44386 -1.32103 0
M  V30 5181 C 487.424 -3.13649 1.71345 0
M  V30 5182 C 487.09 -3.16403 3.21248 0
M  V30 5183 C 485.752 -3.16862 3.62149 0
M  V30 5184 C 488.104 -3.12428 4.17179 0
M  V30 5185 C 485.432 -3.11051 4.97458 0
M  V30 5186 C 487.784 -3.08159 5.52468 0
M  V30 5187 C 486.448 -3.06935 5.92746 0
M  V30 5188 H 485.718 -0.632881 0.385412 0
M  V30 5189 H 488.365 -1.15863 1.52473 0
M  V30 5190 H 486.67 -3.74069 1.16532 0
M  V30 5191 H 488.367 -3.69658 1.55416 0
M  V30 5192 H 484.957 -3.16798 2.88682 0
M  V30 5193 H 489.141 -3.11221 3.86595 0
M  V30 5194 H 484.397 -3.0845 5.27891 0
M  V30 5195 H 488.571 -3.04039 6.26525 0
M  V30 5196 H 486.198 -3.02186 6.97558 0
M  V30 5197 N 487.773 -1.03688 -1.18687 0
M  V30 5198 C 489.001 -0.757918 -1.92518 0
M  V30 5199 C 489.416 0.684398 -1.75959 0
M  V30 5200 O 488.773 1.46617 -1.08673 0
M  V30 5201 C 488.824 -1.10985 -3.44042 0
M  V30 5202 O 488.545 -2.49554 -3.60076 0
M  V30 5203 C 490.046 -0.854844 -4.3498 0
M  V30 5204 H 487.266 -0.276699 -0.611293 0
M  V30 5205 H 489.81 -1.38352 -1.50595 0
M  V30 5206 H 487.965 -0.529279 -3.83767 0
M  V30 5207 H 488.379 -2.6291 -4.53849 0
M  V30 5208 H 489.853 -1.15098 -5.39867 0
M  V30 5209 H 490.33 0.210507 -4.38695 0
M  V30 5210 H 490.936 -1.41853 -4.00946 0
M  V30 5211 N 489.251 1.34841 -0.815825 0
M  V30 5212 C 490.476 2.03261 -0.41226 0
M  V30 5213 C 490.901 1.61055 0.971751 0
M  V30 5214 O 490.259 0.7917 1.63101 0
M  V30 5215 C 490.307 3.56914 -0.514289 0
M  V30 5216 O 489.411 4.09728 0.468675 0
M  V30 5217 H 488.752 0.641664 -0.170771 0
M  V30 5218 H 491.282 1.72241 -1.10427 0
M  V30 5219 H 491.292 4.06156 -0.387457 0
M  V30 5220 H 489.967 3.86982 -1.52375 0
M  V30 5221 H 488.544 3.71681 0.301316 0
M  V30 5222 N 490.729 0.570148 1.46925 0
M  V30 5223 C 491.679 -0.190921 2.27199 0
M  V30 5224 C 492.663 -0.873457 1.35128 0
M  V30 5225 O 493.855 -0.769627 1.59392 0
M  V30 5226 C 490.984 -1.21204 3.21192 0
M  V30 5227 C 490.07 -0.532261 4.20747 0
M  V30 5228 N 490.461 0.405038 5.04176 0
M  V30 5229 C 488.759 -0.784582 4.39045 0
M  V30 5230 C 489.46 0.801149 5.76157 0
M  V30 5231 N 488.436 0.153082 5.43384 0
M  V30 5232 H 492.238 0.529535 2.8909 0
M  V30 5233 H 489.752 0.391019 1.57622 0
M  V30 5234 H 491.749 -1.77135 3.77398 0
M  V30 5235 H 490.409 -1.93345 2.6086 0
M  V30 5236 H 491.42 0.779903 5.11994 0
M  V30 5237 H 488.097 -1.49352 3.89872 0
M  V30 5238 H 489.487 1.57208 6.5325 0
M  V30 5239 N 492.207 -1.54576 0.307264 0
M  V30 5240 C 493.155 -2.25208 -0.581723 0
M  V30 5241 C 494.149 -1.26031 -1.13192 0
M  V30 5242 O 495.355 -1.43862 -1.08184 0
M  V30 5243 H 491.73 -0.723173 -0.206214 0
M  V30 5244 H 493.701 -2.98378 0.0364663 0
M  V30 5245 C 492.45 -3.01086 -1.73904 0
M  V30 5246 H 491.773 -3.77208 -1.32491 0
M  V30 5247 H 493.213 -3.5378 -2.33701 0
M  V30 5248 C 491.672 -2.08422 -2.64692 0
M  V30 5249 O 492.202 -1.65636 -3.65961 0
M  V30 5250 N 490.408 -1.74247 -2.32564 0
M  V30 5251 H 489.955 -2.09238 -1.50257 0
M  V30 5252 H 489.913 -1.12524 -2.93574 0
M  V30 5253 N 493.685 -0.035106 -1.57561 0
M  V30 5254 C 494.933 0.64096 -1.91667 0
M  V30 5255 C 495.254 1.72323 -0.912681 0
M  V30 5256 O 494.524 1.95849 0.0449089 0
M  V30 5257 H 493.104 0.239743 -0.707483 0
M  V30 5258 H 495.766 -0.084321 -1.94718 0
M  V30 5259 H 494.862 1.08987 -2.92452 0
M  V30 5260 N 495.163 1.55791 0.238111 0
M  V30 5261 C 496.096 1.86036 1.32158 0
M  V30 5262 C 497.074 0.716216 1.45976 0
M  V30 5263 O 498.258 0.962882 1.62052 0
M  V30 5264 C 495.385 2.05281 2.69402 0
M  V30 5265 C 494.431 3.27939 2.72687 0
M  V30 5266 S 495.264 4.84342 2.28413 0
M  V30 5267 C 496.42 5.06604 3.67565 0
M  V30 5268 H 496.653 2.77644 1.06306 0
M  V30 5269 H 494.186 1.48012 0.439537 0
M  V30 5270 H 496.144 2.17053 3.48423 0
M  V30 5271 H 494.805 1.14499 2.92487 0
M  V30 5272 H 493.998 3.38398 3.73501 0
M  V30 5273 H 493.6 3.14938 2.01717 0
M  V30 5274 H 495.892 4.94486 4.6313 0
M  V30 5275 H 496.835 6.08554 3.62033 0
M  V30 5276 H 497.243 4.34409 3.60485 0
M  V30 5277 N 496.642 -0.504142 1.49319 0
M  V30 5278 C 497.574 -1.62265 1.61872 0
M  V30 5279 C 498.587 -1.54881 0.501573 0
M  V30 5280 O 499.776 -1.6087 0.773497 0
M  V30 5281 C 496.876 -3.01042 1.55651 0
M  V30 5282 C 496.049 -3.33642 2.82845 0
M  V30 5283 C 495.108 -4.51816 2.69719 0
M  V30 5284 O 494.134 -4.53755 3.4365 0
M  V30 5285 N 495.336 -5.51543 1.81055 0
M  V30 5286 H 498.101 -1.51924 2.58339 0
M  V30 5287 H 495.662 -0.691954 1.46368 0
M  V30 5288 H 497.654 -3.78013 1.44528 0
M  V30 5289 H 496.224 -3.05323 0.670546 0
M  V30 5290 H 495.444 -2.45598 3.08343 0
M  V30 5291 H 496.732 -3.5222 3.67177 0
M  V30 5292 H 496.13 -5.52774 1.20241 0
M  V30 5293 H 494.687 -6.27629 1.75856 0
M  V30 5294 N 498.12 -1.38341 -0.754957 0
M  V30 5295 C 499.367 -1.34473 -1.51404 0
M  V30 5296 C 499.695 0.0656458 -1.94389 0
M  V30 5297 O 498.95 1.04244 -1.65625 0
M  V30 5298 C 499.249 -2.2452 -2.78075 0
M  V30 5299 C 498.915 -3.72512 -2.54059 0
M  V30 5300 C 497.577 -4.1284 -2.47218 0
M  V30 5301 C 499.929 -4.66197 -2.33044 0
M  V30 5302 C 497.257 -5.44945 -2.17376 0
M  V30 5303 C 499.609 -5.98558 -2.04723 0
M  V30 5304 C 498.273 -6.37972 -1.96337 0
M  V30 5305 H 497.543 -0.492072 -0.554027 0
M  V30 5306 H 500.19 -1.70687 -0.868223 0
M  V30 5307 H 498.495 -1.81357 -3.473 0
M  V30 5308 H 500.192 -2.18832 -3.36026 0
M  V30 5309 H 496.782 -3.40538 -2.60253 0
M  V30 5310 H 500.966 -4.35888 -2.37309 0
M  V30 5311 H 496.222 -5.74426 -2.09391 0
M  V30 5312 H 500.396 -6.70693 -1.87465 0
M  V30 5313 H 498.023 -7.40258 -1.72978 0
M  V30 5314 N 499.598 0.982988 -1.23187 0
M  V30 5315 C 500.823 1.76455 -1.08988 0
M  V30 5316 C 501.248 1.84726 0.354691 0
M  V30 5317 O 500.606 1.30699 1.25649 0
M  V30 5318 C 500.654 3.17094 -1.71708 0
M  V30 5319 O 499.758 4.00648 -0.977477 0
M  V30 5320 H 499.099 0.542988 -0.382177 0
M  V30 5321 H 501.629 1.23413 -1.63188 0
M  V30 5322 H 501.639 3.67684 -1.76841 0
M  V30 5323 H 500.314 3.10389 -2.76823 0
M  V30 5324 H 498.891 3.59161 -1.0029 0
M  V30 5325 N 501.076 1.04316 1.18135 0
M  V30 5326 C 502.304 0.768117 1.92113 0
M  V30 5327 C 502.719 -0.675057 1.76319 0
M  V30 5328 O 502.076 -1.46038 1.09449 0
M  V30 5329 C 502.127 1.12808 3.43448 0
M  V30 5330 O 501.848 2.5146 3.58747 0
M  V30 5331 C 503.349 0.8779 4.3452 0
M  V30 5332 H 500.569 0.279937 0.609817 0
M  V30 5333 H 503.113 1.39149 1.49859 0
M  V30 5334 H 501.268 0.549623 3.83481 0
M  V30 5335 H 501.682 2.65313 4.52448 0
M  V30 5336 H 503.156 1.17959 5.39249 0
M  V30 5337 H 503.633 -0.187239 4.38801 0
M  V30 5338 H 504.239 1.43977 4.00188 0
M  V30 5339 N 502.554 -1.34406 0.822964 0
M  V30 5340 C 503.8 -1.98999 0.420847 0
M  V30 5341 C 504.155 -1.64067 -1.00498 0
M  V30 5342 O 503.448 -0.902071 -1.69036 0
M  V30 5343 C 503.642 -3.52981 0.560268 0
M  V30 5344 C 503.471 -4.02873 1.99809 0
M  V30 5345 C 502.241 -4.31463 2.62998 0
M  V30 5346 C 504.439 -4.20241 2.96483 0
M  V30 5347 N 502.421 -4.6739 3.9802 0
M  V30 5348 C 503.792 -4.59348 4.16413 0
M  V30 5349 C 505.847 -4.02489 2.93098 0
M  V30 5350 C 504.55 -4.82559 5.33413 0
M  V30 5351 C 506.576 -4.26866 4.09315 0
M  V30 5352 C 505.938 -4.6626 5.27997 0
M  V30 5353 H 502.037 -0.755432 0.202104 0
M  V30 5354 H 504.621 -1.62815 1.06767 0
M  V30 5355 H 502.792 -3.88359 -0.0566596 0
M  V30 5356 H 504.524 -4.04487 0.131146 0
M  V30 5357 H 501.279 -4.22373 2.14238 0
M  V30 5358 H 501.703 -4.89588 4.67582 0
M  V30 5359 H 506.345 -3.71161 2.02483 0
M  V30 5360 H 504.063 -5.12754 6.24587 0
M  V30 5361 H 507.649 -4.14667 4.08096 0
M  V30 5362 H 506.529 -4.84752 6.16429 0
M  V30 5363 N 504.032 -0.577932 -1.46621 0
M  V30 5364 C 505.309 0.00495287 -1.95599 0
M  V30 5365 C 505.689 1.46428 -1.5206 0
M  V30 5366 O 505.037 2.1517 -0.769046 0
M  V30 5367 C 505.247 -0.162114 -3.48623 0
M  V30 5368 C 506.595 -0.0274623 -4.24591 0
M  V30 5369 O 507.619 -0.0907067 -3.56084 0
M  V30 5370 O 506.478 0.1122 -5.46385 0
M  V30 5371 H 503.572 0.0525057 -0.825332 0
M  V30 5372 H 506.118 -0.645914 -1.56927 0
M  V30 5373 H 504.89 -1.17679 -3.73185 0
M  V30 5374 H 504.513 0.525407 -3.94113 0
M  V30 5375 N 505.51 1.54411 -0.315457 0
M  V30 5376 C 506.458 2.25514 0.569771 0
M  V30 5377 C 507.452 1.2663 1.12522 0
M  V30 5378 O 508.658 1.44434 1.07419 0
M  V30 5379 H 505.033 0.724257 0.202376 0
M  V30 5380 H 507.004 2.98354 -0.0522895 0
M  V30 5381 C 505.753 3.02004 1.72305 0
M  V30 5382 H 505.076 3.77906 1.30488 0
M  V30 5383 H 506.516 3.55014 2.31821 0
M  V30 5384 C 504.975 2.09822 2.63583 0
M  V30 5385 O 505.505 1.67574 3.65078 0
M  V30 5386 N 503.711 1.75478 2.31637 0
M  V30 5387 H 503.258 2.10032 1.49145 0
M  V30 5388 H 503.216 1.14079 2.92973 0
M  V30 5389 N 506.988 0.0434614 1.5754 0
M  V30 5390 C 508.265 -0.671479 1.83713 0
M  V30 5391 C 508.645 -1.89495 0.930315 0
M  V30 5392 O 507.993 -2.28498 -0.0105639 0
M  V30 5393 C 508.203 -1.0361 3.33266 0
M  V30 5394 C 509.551 -1.42167 4.00092 0
M  V30 5395 O 510.575 -1.12866 3.37846 0
M  V30 5396 O 509.434 -1.96817 5.09829 0
M  V30 5397 H 506.528 -0.330726 0.75799 0
M  V30 5398 H 509.074 0.0722373 1.69546 0
M  V30 5399 H 507.846 -0.165938 3.90948 0
M  V30 5400 H 507.469 -1.83751 3.52592 0
M  V30 5401 N 508.466 -1.55915 -0.229846 0
M  V30 5402 C 509.414 -1.9258 -1.30444 0
M  V30 5403 C 510.408 -0.806839 -1.48951 0
M  V30 5404 O 511.614 -0.991606 -1.50224 0
M  V30 5405 H 507.989 -0.611878 -0.437161 0
M  V30 5406 H 509.96 -2.82264 -0.96797 0
M  V30 5407 C 508.709 -2.25171 -2.6494 0
M  V30 5408 H 508.032 -3.10782 -2.51504 0
M  V30 5409 H 509.472 -2.54716 -3.38963 0
M  V30 5410 C 507.931 -1.07394 -3.19324 0
M  V30 5411 O 508.461 -0.330759 -4.00336 0
M  V30 5412 N 506.667 -0.859984 -2.77584 0
M  V30 5413 H 506.214 -1.46605 -2.11813 0
M  V30 5414 H 506.172 -0.0736671 -3.14314 0
M  V30 5415 N 509.944 0.496216 -1.49584 0
M  V30 5416 C 511.221 1.25755 -1.49816 0
M  V30 5417 C 511.601 2.09859 -0.228572 0
M  V30 5418 O 510.949 2.14449 0.788908 0
M  V30 5419 C 511.159 2.11017 -2.7798 0
M  V30 5420 C 512.507 2.70047 -3.27658 0
M  V30 5421 O 513.531 2.21281 -2.79129 0
M  V30 5422 O 512.39 3.58834 -4.1219 0
M  V30 5423 H 509.484 0.569322 -0.599834 0
M  V30 5424 H 512.03 0.510094 -1.61852 0
M  V30 5425 H 510.802 1.48879 -3.61871 0
M  V30 5426 H 510.425 2.92947 -2.68827 0
M  V30 5427 N 511.423 1.38739 0.74761 0
M  V30 5428 C 512.37 1.36449 1.86146 0
M  V30 5429 C 513.34 0.226098 1.64554 0
M  V30 5430 O 514.525 0.41926 1.86137 0
M  V30 5431 C 511.665 1.2013 3.23516 0
M  V30 5432 C 510.778 2.43407 3.56899 0
M  V30 5433 C 509.913 2.19773 4.83605 0
M  V30 5434 C 508.952 3.3879 5.09792 0
M  V30 5435 N 508.089 3.14553 6.27695 0
M  V30 5436 H 512.929 2.3167 1.87438 0
M  V30 5437 H 510.466 1.15094 0.916063 0
M  V30 5438 H 512.424 1.08683 4.02795 0
M  V30 5439 H 511.054 0.285453 3.21535 0
M  V30 5440 H 510.106 2.65504 2.72418 0
M  V30 5441 H 511.418 3.32094 3.72176 0
M  V30 5442 H 510.572 2.05496 5.70838 0
M  V30 5443 H 509.311 1.28461 4.70478 0
M  V30 5444 H 508.316 3.53579 4.21025 0
M  V30 5445 H 509.541 4.30986 5.24812 0
M  V30 5446 H 507.487 2.25893 6.1588 0
M  V30 5447 H 507.404 3.96791 6.435 0
M  V30 5448 H 508.672 3.03943 7.17801 0
M  V30 5449 N 512.901 -0.976442 1.23707 0
M  V30 5450 C 514.148 -1.71827 1.07153 0
M  V30 5451 C 514.476 -1.9053 -0.390982 0
M  V30 5452 O 513.731 -1.45779 -1.30564 0
M  V30 5453 C 514.03 -3.11814 1.74662 0
M  V30 5454 C 513.696 -3.12978 3.24585 0
M  V30 5455 C 512.358 -3.13003 3.6549 0
M  V30 5456 C 514.71 -3.07986 4.20469 0
M  V30 5457 C 512.038 -3.05757 5.00729 0
M  V30 5458 C 514.39 -3.02282 5.55705 0
M  V30 5459 C 513.054 -3.00631 5.95968 0
M  V30 5460 H 512.324 -0.628758 0.392102 0
M  V30 5461 H 514.971 -1.14239 1.53693 0
M  V30 5462 H 513.276 -3.72812 1.20492 0
M  V30 5463 H 514.973 -3.67989 1.59328 0
M  V30 5464 H 511.563 -3.13718 2.92026 0
M  V30 5465 H 515.747 -3.07103 3.89874 0
M  V30 5466 H 511.003 -3.02834 5.31132 0
M  V30 5467 H 515.177 -2.97376 6.29714 0
M  V30 5468 H 512.804 -2.94771 7.00724 0
M  V30 5469 N 514.379 -1.04941 -1.1758 0
M  V30 5470 C 515.289 -0.658826 -2.25159 0
M  V30 5471 C 516.305 0.318941 -1.71052 0
M  V30 5472 O 517.481 0.171669 -2.00667 0
M  V30 5473 C 514.546 -0.0369522 -3.4668 0
M  V30 5474 C 513.607 -1.06484 -4.15884 0
M  V30 5475 C 512.84 -0.472551 -5.31604 0
M  V30 5476 O 513.063 0.718736 -5.65854 0
M  V30 5477 O 511.997 -1.20557 -5.89703 0
M  V30 5478 H 515.823 -1.55533 -2.60851 0
M  V30 5479 H 513.408 -0.820819 -1.24832 0
M  V30 5480 H 515.29 0.308784 -4.20267 0
M  V30 5481 H 513.965 0.833238 -3.12792 0
M  V30 5482 H 512.872 -1.46253 -3.44327 0
M  V30 5483 H 514.205 -1.9061 -4.53794 0
M  V30 5484 N 515.857 1.33968 -0.830081 0
M  V30 5485 C 517.105 1.97672 -0.420734 0
M  V30 5486 C 517.426 1.66111 1.02138 0
M  V30 5487 O 516.696 0.955503 1.71017 0
M  V30 5488 H 515.276 0.73125 -0.152587 0
M  V30 5489 H 517.938 1.63483 -1.0611 0
M  V30 5490 H 517.034 3.07294 -0.545588 0
M  V30 5491 N 517.335 0.585699 1.46312 0
M  V30 5492 C 518.283 -0.158577 2.32059 0
M  V30 5493 C 519.277 -0.881427 1.44662 0
M  V30 5494 O 520.483 -0.799476 1.61271 0
M  V30 5495 H 516.858 -0.0700066 0.748734 0
M  V30 5496 H 518.829 0.583383 2.92642 0
M  V30 5497 C 517.578 -1.15701 3.27885 0
M  V30 5498 H 516.901 -0.610215 3.95116 0
M  V30 5499 H 518.341 -1.64812 3.90657 0
M  V30 5500 C 516.8 -2.21951 2.53455 0
M  V30 5501 O 517.33 -3.29352 2.29978 0
M  V30 5502 N 515.536 -1.9664 2.13965 0
M  V30 5503 H 515.083 -1.09309 2.33258 0
M  V30 5504 H 515.041 -2.6794 1.64485 0
M  V30 5505 N 518.813 -1.54241 0.323641 0
M  V30 5506 C 520.053 -2.0248 -0.279502 0
M  V30 5507 C 520.417 -1.20672 -1.49339 0
M  V30 5508 O 521.618 -1.58715 -2.1694 0
M  V30 5509 C 519.889 -3.52238 -0.605266 0
M  V30 5510 S 521.448 -4.22411 -1.18805 0
M  V30 5511 H 518.266 -0.705957 -0.0845313 0
M  V30 5512 H 520.868 -1.90089 0.456781 0
M  V30 5513 H 519.572 -4.094 0.286339 0
M  V30 5514 H 519.103 -3.6871 -1.37174 0
M  V30 5515 H 521.118 -4.30075 -2.47487 0
M  V30 5516 N 520.291 -0.0518155 -1.57515 0
M  V30 5517 C 521.254 0.907547 -2.10467 0
M  V30 5518 C 522.254 1.23947 -1.02439 0
M  V30 5519 O 523.444 1.17604 -1.2851 0
M  V30 5520 C 520.576 2.21723 -2.58944 0
M  V30 5521 H 521.769 0.44851 -2.96527 0
M  V30 5522 H 519.322 0.196598 -1.55059 0
M  V30 5523 H 520.057 2.72206 -1.76279 0
M  V30 5524 H 519.842 1.98935 -3.37886 0
M  V30 5525 H 521.332 2.90441 -3.00056 0
M  V30 5526 N 521.769 1.56035 0.221574 0
M  V30 5527 C 522.679 1.95581 1.29558 0
M  V30 5528 C 523.695 0.859639 1.51282 0
M  V30 5529 O 524.871 1.16321 1.64413 0
M  V30 5530 C 521.936 2.26447 2.62531 0
M  V30 5531 C 520.997 3.49632 2.4911 0
M  V30 5532 C 520.23 3.79017 3.75742 0
M  V30 5533 O 520.453 3.10077 4.78757 0
M  V30 5534 O 519.387 4.72507 3.72855 0
M  V30 5535 H 523.213 2.8711 0.990035 0
M  V30 5536 H 520.798 1.43244 0.424434 0
M  V30 5537 H 522.68 2.47494 3.41064 0
M  V30 5538 H 521.355 1.38092 2.92766 0
M  V30 5539 H 520.262 3.33864 1.68777 0
M  V30 5540 H 521.595 4.3837 2.23814 0
M  V30 5541 N 523.247 -0.488276 1.49845 0
M  V30 5542 C 524.179 -1.60539 1.63584 0
M  V30 5543 C 525.192 -1.5434 0.517972 0
M  V30 5544 O 526.381 -1.60041 0.790516 0
M  V30 5545 C 523.481 -2.99374 1.58835 0
M  V30 5546 C 522.654 -3.30624 2.86368 0
M  V30 5547 C 521.713 -4.4893 2.74496 0
M  V30 5548 O 520.739 -4.50085 3.48443 0
M  V30 5549 N 521.941 -5.49591 1.86894 0
M  V30 5550 H 524.706 -1.49176 2.59936 0
M  V30 5551 H 522.267 -0.67639 1.47094 0
M  V30 5552 H 524.259 -3.76459 1.48529 0
M  V30 5553 H 522.829 -3.04595 0.702892 0
M  V30 5554 H 522.049 -2.42314 3.1093 0
M  V30 5555 H 523.337 -3.48305 3.70892 0
M  V30 5556 H 522.735 -5.51467 1.26097 0
M  V30 5557 H 521.292 -6.25728 1.82503 0
M  V30 5558 N 524.725 -1.39134 -0.740242 0
M  V30 5559 C 526.002 -1.26584 -1.49117 0
M  V30 5560 C 526.382 0.126902 -2.10718 0
M  V30 5561 O 525.73 1.13765 -1.98166 0
M  V30 5562 C 525.94 -2.38619 -2.54681 0
M  V30 5563 C 527.288 -2.77685 -3.21211 0
M  V30 5564 O 528.312 -2.38029 -2.64991 0
M  V30 5565 O 527.171 -3.46115 -4.22926 0
M  V30 5566 H 524.265 -0.495769 -0.661923 0
M  V30 5567 H 526.811 -1.50995 -0.774514 0
M  V30 5568 H 525.583 -3.3175 -2.07504 0
M  V30 5569 H 525.206 -2.15845 -3.33911 0
M  V30 5570 N 526.204 0.969867 -1.24223 0
M  V30 5571 C 527.452 1.70918 -1.0785 0
M  V30 5572 C 527.773 1.91186 0.383763 0
M  V30 5573 O 527.043 1.48806 1.27411 0
M  V30 5574 H 525.623 0.633334 -0.396103 0
M  V30 5575 H 528.285 1.16689 -1.56108 0
M  V30 5576 H 527.381 2.69455 -1.57482 0
M  V30 5577 N 527.682 1.05563 1.17022 0
M  V30 5578 C 528.907 0.788437 1.91829 0
M  V30 5579 C 529.332 -0.650356 1.76499 0
M  V30 5580 O 528.69 -1.45229 1.08527 0
M  V30 5581 C 528.738 1.1786 3.40795 0
M  V30 5582 O 527.842 0.312965 4.11211 0
M  V30 5583 H 527.183 0.288794 0.597908 0
M  V30 5584 H 529.713 1.40948 1.48307 0
M  V30 5585 H 529.723 1.14697 3.91546 0
M  V30 5586 H 528.398 2.22666 3.51273 0
M  V30 5587 H 526.975 0.405515 3.70689 0
M  V30 5588 N 529.16 -1.33526 0.837174 0
M  V30 5589 C 530.408 -1.97446 0.431211 0
M  V30 5590 C 530.729 -1.6665 -1.01255 0
M  V30 5591 O 529.999 -0.964559 -1.70508 0
M  V30 5592 H 528.579 -0.73043 0.156463 0
M  V30 5593 H 531.241 -1.62918 1.06976 0
M  V30 5594 H 530.337 -3.07001 0.561877 0
M  V30 5595 N 530.638 -0.59345 -1.46 0
M  V30 5596 C 531.884 -0.0916503 -2.03193 0
M  V30 5597 C 532.239 1.25839 -1.45541 0
M  V30 5598 O 531.532 1.81455 -0.615191 0
M  V30 5599 C 531.726 0.021178 -3.57394 0
M  V30 5600 C 531.555 -1.31638 -4.30002 0
M  V30 5601 C 530.325 -1.89336 -4.68487 0
M  V30 5602 C 532.523 -2.242 -4.62859 0
M  V30 5603 N 530.505 -3.1672 -5.25891 0
M  V30 5604 C 531.876 -3.36175 -5.20948 0
M  V30 5605 C 533.931 -2.23748 -4.44794 0
M  V30 5606 C 532.634 -4.47844 -5.62875 0
M  V30 5607 C 534.66 -3.34454 -4.87744 0
M  V30 5608 C 534.022 -4.4515 -5.45913 0
M  V30 5609 H 530.121 -0.0765713 -0.778242 0
M  V30 5610 H 532.705 -0.788705 -1.7801 0
M  V30 5611 H 530.876 0.687423 -3.82268 0
M  V30 5612 H 532.608 0.528343 -4.01236 0
M  V30 5613 H 529.363 -1.42704 -4.51589 0
M  V30 5614 H 529.787 -3.81746 -5.59106 0
M  V30 5615 H 534.429 -1.39433 -3.99147 0
M  V30 5616 H 532.147 -5.32894 -6.07495 0
M  V30 5617 H 535.733 -3.35234 -4.75509 0
M  V30 5618 H 534.613 -5.29398 -5.78539 0
M  V30 5619 N 532.116 1.54067 -0.331816 0
M  V30 5620 C 533.362 2.01713 0.261395 0
M  V30 5621 C 533.717 1.21566 1.49129 0
M  V30 5622 O 533.01 0.291867 1.89364 0
M  V30 5623 C 533.204 3.51634 0.639392 0
M  V30 5624 C 533.033 4.46295 -0.552321 0
M  V30 5625 C 531.803 4.94185 -1.05399 0
M  V30 5626 C 534.001 4.94677 -1.40711 0
M  V30 5627 N 531.983 5.7277 -2.20925 0
M  V30 5628 C 533.354 5.71267 -2.40943 0
M  V30 5629 C 535.409 4.76805 -1.43392 0
M  V30 5630 C 534.112 6.31889 -3.4367 0
M  V30 5631 C 536.138 5.38268 -2.44994 0
M  V30 5632 C 535.5 6.14716 -3.43952 0
M  V30 5633 H 531.599 0.77975 0.0592729 0
M  V30 5634 H 534.183 1.88974 -0.468726 0
M  V30 5635 H 532.354 3.64603 1.33863 0
M  V30 5636 H 534.086 3.86038 1.21478 0
M  V30 5637 H 530.841 4.69472 -0.623952 0
M  V30 5638 H 531.265 6.16737 -2.79222 0
M  V30 5639 H 535.907 4.17255 -0.682489 0
M  V30 5640 H 533.625 6.90554 -4.19715 0
M  V30 5641 H 537.211 5.26352 -2.4788 0
M  V30 5642 H 536.091 6.6143 -4.21283 0
M  V30 5643 N 533.594 0.0601682 1.57485 0
M  V30 5644 C 534.527 -0.94676 2.07634 0
M  V30 5645 C 535.505 -1.29837 0.978826 0
M  V30 5646 O 536.689 -1.40969 1.2514 0
M  V30 5647 C 533.816 -2.25822 2.52433 0
M  V30 5648 C 532.862 -2.05901 3.73507 0
M  V30 5649 S 533.695 -1.32907 5.18745 0
M  V30 5650 C 534.851 -2.65356 5.66866 0
M  V30 5651 H 535.084 -0.520003 2.92717 0
M  V30 5652 H 532.617 -0.152319 1.53647 0
M  V30 5653 H 534.575 -3.01201 2.78905 0
M  V30 5654 H 533.236 -2.65624 1.67639 0
M  V30 5655 H 532.429 -3.02929 4.02803 0
M  V30 5656 H 532.031 -1.38659 3.47347 0
M  V30 5657 H 534.323 -3.61492 5.73001 0
M  V30 5658 H 535.266 -2.40685 6.6594 0
M  V30 5659 H 535.674 -2.72028 4.94632 0
M  V30 5660 N 535.072 -1.5615 -0.213296 0
M  V30 5661 C 536.02 -1.93953 -1.28394 0
M  V30 5662 C 537.014 -0.822592 -1.48087 0
M  V30 5663 O 538.22 -1.00748 -1.49164 0
M  V30 5664 H 534.595 -0.61648 -0.430646 0
M  V30 5665 H 536.566 -2.83275 -0.937977 0
M  V30 5666 C 535.315 -2.27969 -2.62537 0
M  V30 5667 H 534.638 -3.13432 -2.48194 0
M  V30 5668 H 536.078 -2.58297 -3.36242 0
M  V30 5669 C 534.537 -1.10775 -3.18167 0
M  V30 5670 O 535.067 -0.373201 -3.99963 0
M  V30 5671 N 533.273 -0.889377 -2.76656 0
M  V30 5672 H 532.82 -1.48843 -2.10246 0
M  V30 5673 H 532.778 -0.107 -3.14218 0
M  V30 5674 N 536.55 0.480323 -1.50102 0
M  V30 5675 C 537.497 1.57946 -1.6829 0
M  V30 5676 C 538.467 1.57611 -0.524223 0
M  V30 5677 O 539.652 1.75282 -0.753709 0
M  V30 5678 C 536.792 2.95978 -1.77457 0
M  V30 5679 C 535.905 3.06173 -3.04766 0
M  V30 5680 C 535.04 4.35063 -3.04784 0
M  V30 5681 C 534.079 4.38966 -4.26586 0
M  V30 5682 N 533.216 5.59314 -4.24396 0
M  V30 5683 H 538.056 1.41743 -2.62131 0
M  V30 5684 H 535.593 0.689304 -1.2995 0
M  V30 5685 H 537.551 3.76011 -1.80752 0
M  V30 5686 H 536.181 3.10837 -0.870637 0
M  V30 5687 H 535.233 2.19071 -3.10986 0
M  V30 5688 H 536.545 3.04916 -3.9475 0
M  V30 5689 H 535.699 5.23436 -3.06757 0
M  V30 5690 H 534.438 4.38915 -2.12614 0
M  V30 5691 H 533.443 3.48992 -4.24835 0
M  V30 5692 H 534.668 4.36813 -5.19972 0
M  V30 5693 H 532.614 5.63969 -3.35074 0
M  V30 5694 H 532.531 5.5976 -5.08138 0
M  V30 5695 H 533.799 6.49837 -4.30502 0
M  V30 5696 N 538.028 1.39524 0.732853 0
M  V30 5697 C 539.268 1.383 1.50508 0
M  V30 5698 C 539.632 -0.0208271 1.91989 0
M  V30 5699 O 540.833 -0.158091 2.68335 0
M  V30 5700 C 539.104 2.33007 2.71003 0
M  V30 5701 S 540.663 2.49989 3.60626 0
M  V30 5702 H 537.481 0.490417 0.514794 0
M  V30 5703 H 540.083 1.75641 0.858524 0
M  V30 5704 H 538.787 3.33862 2.38672 0
M  V30 5705 H 538.318 1.96889 3.40585 0
M  V30 5706 H 540.333 1.7394 4.64714 0
M  V30 5707 N 539.506 -0.963266 1.24736 0
M  V30 5708 C 540.456 -2.0438 1.01058 0
M  V30 5709 C 541.44 -1.60824 -0.0495354 0
M  V30 5710 O 542.632 -1.76232 0.164741 0
M  V30 5711 C 539.761 -3.37617 0.622067 0
M  V30 5712 C 538.847 -3.87722 1.7185 0
M  V30 5713 N 539.238 -4.10715 2.95207 0
M  V30 5714 C 537.536 -4.16426 1.59703 0
M  V30 5715 C 538.237 -4.51872 3.66315 0
M  V30 5716 N 537.213 -4.57302 2.93897 0
M  V30 5717 H 541.015 -2.20138 1.94721 0
M  V30 5718 H 538.529 -1.14741 1.14927 0
M  V30 5719 H 540.526 -4.14638 0.43366 0
M  V30 5720 H 539.186 -3.23242 -0.307327 0
M  V30 5721 H 540.197 -3.98037 3.31341 0
M  V30 5722 H 536.874 -4.10962 0.73598 0
M  V30 5723 H 538.264 -4.78037 4.72155 0
M  V30 5724 N 540.985 -1.06182 -1.16461 0
M  V30 5725 C 541.948 -0.675723 -2.19013 0
M  V30 5726 C 542.948 0.277963 -1.58379 0
M  V30 5727 O 544.138 0.0604962 -1.74095 0
M  V30 5728 C 541.27 0.00591459 -3.40899 0
M  V30 5729 H 542.463 -1.58353 -2.54685 0
M  V30 5730 H 540.016 -0.856908 -1.30716 0
M  V30 5731 H 540.751 0.92652 -3.10783 0
M  V30 5732 H 540.536 -0.67984 -3.86161 0
M  V30 5733 H 542.026 0.26181 -4.16778 0
M  V30 5734 N 542.463 1.3308 -0.844243 0
M  V30 5735 C 543.711 1.97215 -0.441676 0
M  V30 5736 C 544.032 1.67185 1.0037 0
M  V30 5737 O 543.302 0.973588 1.69994 0
M  V30 5738 H 541.882 0.72959 -0.160335 0
M  V30 5739 H 544.544 1.62348 -1.07838 0
M  V30 5740 H 543.64 3.06698 -0.57815 0
M  V30 5741 N 543.941 0.601185 1.45683 0
M  V30 5742 C 544.891 -0.142686 2.27553 0
M  V30 5743 C 545.875 -0.844598 1.3695 0
M  V30 5744 O 547.067 -0.735644 1.60988 0
M  V30 5745 C 544.196 -1.14364 3.23691 0
M  V30 5746 C 543.282 -0.442894 4.21781 0
M  V30 5747 N 543.673 0.51189 5.03203 0
M  V30 5748 C 541.971 -0.691277 4.4061 0
M  V30 5749 C 542.672 0.92318 5.74328 0
M  V30 5750 N 541.648 0.268308 5.42937 0
M  V30 5751 H 545.45 0.590736 2.87902 0
M  V30 5752 H 542.964 0.424365 1.56757 0
M  V30 5753 H 544.961 -1.6909 3.8107 0
M  V30 5754 H 543.621 -1.87768 2.64902 0
M  V30 5755 H 544.632 0.888329 5.10225 0
M  V30 5756 H 541.309 -1.41049 3.92952 0
M  V30 5757 H 542.699 1.71029 6.49768 0
M  V30 5758 N 545.419 -1.53889 0.339982 0
M  V30 5759 C 546.349 -2.27843 -0.510856 0
M  V30 5760 C 547.33 -1.29267 -1.10563 0
M  V30 5761 O 548.515 -1.58104 -1.12768 0
M  V30 5762 C 545.645 -3.04857 -1.66372 0
M  V30 5763 C 544.599 -4.10907 -1.19746 0
M  V30 5764 C 543.925 -4.75855 -2.43857 0
M  V30 5765 C 545.225 -5.21435 -0.300501 0
M  V30 5766 H 546.919 -2.99212 0.106067 0
M  V30 5767 H 544.465 -1.43904 0.0524533 0
M  V30 5768 H 546.418 -3.5533 -2.26537 0
M  V30 5769 H 545.142 -2.31133 -2.30749 0
M  V30 5770 H 543.801 -3.61342 -0.618654 0
M  V30 5771 H 543.449 -3.9873 -3.06633 0
M  V30 5772 H 543.149 -5.47502 -2.13343 0
M  V30 5773 H 544.673 -5.2911 -3.04754 0
M  V30 5774 H 546.087 -5.67565 -0.80889 0
M  V30 5775 H 544.484 -6.00036 -0.0874076 0
M  V30 5776 H 545.554 -4.80328 0.664321 0
M  V30 5777 N 546.897 -0.0685191 -1.57451 0
M  V30 5778 C 547.845 0.917577 -2.13736 0
M  V30 5779 C 548.839 1.31049 -1.07344 0
M  V30 5780 O 550.045 1.28811 -1.25728 0
M  V30 5781 H 546.42 0.313835 -0.683382 0
M  V30 5782 H 548.391 0.417903 -2.95459 0
M  V30 5783 C 547.14 2.17686 -2.71123 0
M  V30 5784 H 546.463 1.88336 -3.52661 0
M  V30 5785 H 547.903 2.84803 -3.14107 0
M  V30 5786 C 546.362 2.9332 -1.65726 0
M  V30 5787 O 546.892 3.86901 -1.08031 0
M  V30 5788 N 545.098 2.56367 -1.36837 0
M  V30 5789 H 544.645 1.80341 -1.83943 0
M  V30 5790 H 544.603 3.07276 -0.665501 0
M  V30 5791 N 548.375 1.56261 0.205012 0
M  V30 5792 C 549.623 1.79684 0.925096 0
M  V30 5793 C 549.944 0.63989 1.84202 0
M  V30 5794 O 549.214 -0.342345 1.92885 0
M  V30 5795 H 547.794 0.662774 0.344587 0
M  V30 5796 H 550.456 1.93734 0.212899 0
M  V30 5797 H 549.552 2.72467 1.52211 0
M  V30 5798 N 549.853 -0.472356 1.50355 0
M  V30 5799 C 551.099 -1.22634 1.6152 0
M  V30 5800 C 551.432 -1.91645 0.313995 0
M  V30 5801 O 550.707 -1.82059 -0.684446 0
M  V30 5802 C 550.99 -2.27099 2.7946 0
M  V30 5803 C 550.843 -1.62402 4.19459 0
M  V30 5804 C 552.162 -3.28421 2.92964 0
M  V30 5805 H 549.281 -0.444494 0.587873 0
M  V30 5806 H 551.923 -0.520321 1.82737 0
M  V30 5807 H 550.073 -2.87314 2.61501 0
M  V30 5808 H 551.745 -1.05793 4.49005 0
M  V30 5809 H 549.988 -0.927184 4.23776 0
M  V30 5810 H 550.659 -2.38309 4.97909 0
M  V30 5811 H 553.135 -2.78227 3.09401 0
M  V30 5812 H 552.011 -3.98845 3.77113 0
M  V30 5813 H 552.272 -3.92467 2.03525 0
M  V30 5814 N 551.331 -1.39911 -0.725443 0
M  V30 5815 C 552.561 -1.40744 -1.51244 0
M  V30 5816 C 552.969 -0.00275403 -1.892 0
M  V30 5817 O 552.312 0.981299 -1.55294 0
M  V30 5818 C 552.374 -2.22527 -2.82351 0
M  V30 5819 C 552.038 -3.71053 -2.66774 0
M  V30 5820 C 553.035 -4.63916 -2.34686 0
M  V30 5821 C 550.72 -4.14753 -2.83347 0
M  V30 5822 C 552.714 -5.98463 -2.19366 0
M  V30 5823 C 550.401 -5.49372 -2.67644 0
M  V30 5824 C 551.399 -6.41042 -2.357 0
M  V30 5825 O 551.087 -7.73181 -2.20107 0
M  V30 5826 H 550.819 -0.482314 -0.473655 0
M  V30 5827 H 553.373 -1.84472 -0.903284 0
M  V30 5828 H 551.603 -1.73563 -3.45562 0
M  V30 5829 H 553.292 -2.15421 -3.44018 0
M  V30 5830 H 554.058 -4.31453 -2.21525 0
M  V30 5831 H 549.937 -3.43728 -3.072 0
M  V30 5832 H 553.481 -6.69979 -1.94354 0
M  V30 5833 H 549.378 -5.81424 -2.80387 0
M  V30 5834 H 550.146 -7.84008 -2.35103 0
M  V30 5835 N 552.809 0.956637 -1.25245 0
M  V30 5836 C 554.039 1.7332 -1.12445 0
M  V30 5837 C 554.447 1.86392 0.324732 0
M  V30 5838 O 553.79 1.35967 1.23526 0
M  V30 5839 C 553.852 3.16603 -1.70303 0
M  V30 5840 C 553.516 3.26966 -3.19284 0
M  V30 5841 C 554.513 3.11434 -4.16299 0
M  V30 5842 C 552.198 3.50851 -3.59456 0
M  V30 5843 C 554.192 3.1963 -5.51467 0
M  V30 5844 C 551.879 3.58684 -4.94761 0
M  V30 5845 C 552.877 3.43087 -5.90576 0
M  V30 5846 O 552.565 3.50598 -7.2342 0
M  V30 5847 H 552.297 0.549981 -0.393061 0
M  V30 5848 H 554.851 1.20892 -1.66055 0
M  V30 5849 H 553.081 3.70385 -1.11138 0
M  V30 5850 H 554.77 3.76109 -1.52632 0
M  V30 5851 H 555.536 2.92853 -3.86604 0
M  V30 5852 H 551.415 3.62053 -2.85375 0
M  V30 5853 H 554.959 3.07373 -6.26233 0
M  V30 5854 H 550.856 3.76782 -5.24124 0
M  V30 5855 H 551.624 3.67242 -7.31489 0
M  V30 5856 N 554.287 1.06798 1.15896 0
M  V30 5857 C 555.219 0.641263 2.20046 0
M  V30 5858 C 556.232 -0.303355 1.59949 0
M  V30 5859 O 557.421 -0.0935478 1.78255 0
M  V30 5860 C 554.521 -0.0794029 3.38807 0
M  V30 5861 C 553.694 0.879986 4.28457 0
M  V30 5862 C 552.753 0.197638 5.25829 0
M  V30 5863 O 551.779 0.836913 5.63014 0
M  V30 5864 N 552.981 -1.05886 5.70761 0
M  V30 5865 H 555.746 1.53718 2.57276 0
M  V30 5866 H 553.307 0.951951 1.30956 0
M  V30 5867 H 555.299 -0.546418 4.00994 0
M  V30 5868 H 553.869 -0.877193 3.0004 0
M  V30 5869 H 553.089 1.52625 3.63454 0
M  V30 5870 H 554.377 1.53065 4.8523 0
M  V30 5871 H 553.775 -1.59828 5.42652 0
M  V30 5872 H 552.332 -1.46965 6.35015 0
M  V30 5873 N 555.766 -1.3263 0.851289 0
M  V30 5874 C 557.014 -1.96978 0.452128 0
M  V30 5875 C 557.335 -1.67715 -0.99482 0
M  V30 5876 O 556.605 -0.98259 -1.69476 0
M  V30 5877 H 555.185 -0.72873 0.164202 0
M  V30 5878 H 557.847 -1.61774 1.08698 0
M  V30 5879 H 556.943 -3.06387 0.594407 0
M  V30 5880 N 557.244 -0.608902 -1.45362 0
M  V30 5881 C 558.492 -0.104401 -2.0183 0
M  V30 5882 C 558.813 1.27007 -1.47967 0
M  V30 5883 O 558.083 1.83924 -0.674455 0
M  V30 5884 H 556.663 -0.0356042 -0.746151 0
M  V30 5885 H 559.325 -0.790596 -1.78145 0
M  V30 5886 H 558.421 -0.0551793 -3.12051 0
M  V30 5887 N 558.722 1.53707 -0.348139 0
M  V30 5888 C 559.95 2.05406 0.248224 0
M  V30 5889 C 560.365 1.22282 1.43849 0
M  V30 5890 O 559.722 0.259244 1.80649 0
M  V30 5891 C 559.773 3.55446 0.658793 0
M  V30 5892 O 559.494 4.35417 -0.484149 0
M  V30 5893 C 560.995 4.23335 1.31539 0
M  V30 5894 H 558.215 0.669344 0.0471075 0
M  V30 5895 H 560.759 1.98257 -0.501456 0
M  V30 5896 H 558.914 3.62803 1.35841 0
M  V30 5897 H 559.328 5.24268 -0.155949 0
M  V30 5898 H 560.802 5.29692 1.55338 0
M  V30 5899 H 561.279 3.75967 2.27036 0
M  V30 5900 H 561.885 4.20184 0.657683 0
M  V30 5901 N 560.2 0.0768682 1.57412 0
M  V30 5902 C 561.43 -0.5991 1.97723 0
M  V30 5903 C 561.838 -1.63378 0.954166 0
M  V30 5904 O 561.181 -1.83578 -0.0668706 0
M  V30 5905 C 561.243 -1.32078 3.34358 0
M  V30 5906 C 560.907 -0.438985 4.54887 0
M  V30 5907 C 561.904 0.305492 5.19002 0
M  V30 5908 C 559.589 -0.362378 5.00991 0
M  V30 5909 C 561.583 1.11475 6.27576 0
M  V30 5910 C 559.27 0.450543 6.09437 0
M  V30 5911 C 560.268 1.18777 6.72593 0
M  V30 5912 O 559.956 1.98727 7.7895 0
M  V30 5913 H 559.688 -0.166725 0.655117 0
M  V30 5914 H 562.242 0.147337 2.04871 0
M  V30 5915 H 560.472 -2.1134 3.2384 0
M  V30 5916 H 562.161 -1.88949 3.5924 0
M  V30 5917 H 562.927 0.25593 4.84324 0
M  V30 5918 H 558.806 -0.925832 4.51608 0
M  V30 5919 H 562.35 1.69068 6.76803 0
M  V30 5920 H 558.247 0.501651 6.43548 0
M  V30 5921 H 559.015 1.91214 7.95851 0
M  V30 5922 N 561.678 -1.56367 -0.196722 0
M  V30 5923 C 562.903 -1.84991 -0.937714 0
M  V30 5924 C 563.328 -0.660244 -1.76132 0
M  V30 5925 O 562.686 0.390967 -1.77034 0
M  V30 5926 C 562.734 -3.11828 -1.81096 0
M  V30 5927 O 561.838 -2.92266 -2.90955 0
M  V30 5928 H 561.179 -0.609193 -0.264159 0
M  V30 5929 H 563.709 -2.03595 -0.202529 0
M  V30 5930 H 563.719 -3.42579 -2.21594 0
M  V30 5931 H 562.394 -3.98037 -1.2058 0
M  V30 5932 H 560.971 -2.72809 -2.54224 0
M  V30 5933 N 563.156 0.464375 -1.50603 0
M  V30 5934 C 564.103 1.56152 -1.69956 0
M  V30 5935 C 565.073 1.57046 -0.54091 0
M  V30 5936 O 566.258 1.74473 -0.772258 0
M  V30 5937 C 563.398 2.94079 -1.80586 0
M  V30 5938 C 562.511 3.02923 -3.07996 0
M  V30 5939 C 561.646 4.31806 -3.09382 0
M  V30 5940 C 560.685 4.34417 -4.31218 0
M  V30 5941 N 559.822 5.54782 -4.30304 0
M  V30 5942 H 564.662 1.38955 -2.6362 0
M  V30 5943 H 562.199 0.675482 -1.30674 0
M  V30 5944 H 564.157 3.74073 -1.8473 0
M  V30 5945 H 562.787 3.09896 -0.903556 0
M  V30 5946 H 561.839 2.1576 -3.13292 0
M  V30 5947 H 563.151 3.00712 -3.97962 0
M  V30 5948 H 562.305 5.20153 -3.12292 0
M  V30 5949 H 561.044 4.36636 -2.17257 0
M  V30 5950 H 560.049 3.44467 -4.28512 0
M  V30 5951 H 561.274 4.31273 -5.24576 0
M  V30 5952 H 559.22 5.60384 -3.41037 0
M  V30 5953 H 559.137 5.54339 -5.14047 0
M  V30 5954 H 560.405 6.45235 -4.3737 0
M  V30 5955 N 564.634 1.40294 0.718013 0
M  V30 5956 C 565.597 1.4012 1.81381 0
M  V30 5957 C 566.597 0.295405 1.58063 0
M  V30 5958 O 567.787 0.554187 1.6515 0
M  V30 5959 C 564.919 1.19056 3.19435 0
M  V30 5960 H 566.112 2.37645 1.82933 0
M  V30 5961 H 563.665 1.26107 0.923405 0
M  V30 5962 H 564.4 0.222809 3.23534 0
M  V30 5963 H 564.185 1.99152 3.37758 0
M  V30 5964 H 565.675 1.21716 3.99468 0
M  V30 5965 N 566.112 -0.949982 1.2575 0
M  V30 5966 C 567.337 -1.73503 1.13628 0
M  V30 5967 C 567.762 -1.85601 -0.30559 0
M  V30 5968 O 567.12 -1.33984 -1.22139 0
M  V30 5969 C 567.168 -3.1243 1.80055 0
M  V30 5970 O 566.272 -3.97916 1.08336 0
M  V30 5971 H 565.613 -0.532665 0.396439 0
M  V30 5972 H 568.143 -1.19043 1.66403 0
M  V30 5973 H 568.153 -3.62866 1.86527 0
M  V30 5974 H 566.828 -3.02941 2.84956 0
M  V30 5975 H 565.405 -3.56375 1.09777 0
M  V30 5976 N 567.59 -1.07411 -1.15328 0
M  V30 5977 C 568.818 -0.818782 -1.90009 0
M  V30 5978 C 569.233 0.628072 -1.78047 0
M  V30 5979 O 568.59 1.43085 -1.13282 0
M  V30 5980 C 568.641 -1.21874 -3.40337 0
M  V30 5981 O 568.362 -2.60883 -3.51954 0
M  V30 5982 C 569.863 -0.992796 -4.3204 0
M  V30 5983 H 567.083 -0.296007 -0.60218 0
M  V30 5984 H 569.627 -1.43073 -1.46117 0
M  V30 5985 H 567.782 -0.651103 -3.81889 0
M  V30 5986 H 568.196 -2.77216 -4.45255 0
M  V30 5987 H 569.67 -1.32215 -5.35932 0
M  V30 5988 H 570.147 0.0708331 -4.39143 0
M  V30 5989 H 570.753 -1.54537 -3.9623 0
M  V30 5990 N 569.068 1.32177 -0.85831 0
M  V30 5991 C 570.479 1.79381 -0.517621 0
M  V30 5992 C 570.83 1.70841 0.964769 0
M  V30 5993 O 569.955 1.26917 1.75274 0
M  V30 5994 C 570.55 3.25706 -0.932801 0
M  V30 5995 C 569.109 3.70851 -0.643953 0
M  V30 5996 C 568.256 2.53208 -1.13054 0
M  V30 5997 H 571.207 1.19424 -1.04516 0
M  V30 5998 H 571.228 3.79673 -0.250674 0
M  V30 5999 H 570.74 3.31889 -2.01174 0
M  V30 6000 H 568.841 3.70178 0.424112 0
M  V30 6001 H 568.954 4.63495 -1.21281 0
M  V30 6002 H 567.318 2.48676 -0.550679 0
M  V30 6003 H 568.101 2.62143 -2.21666 0
M  V30 6004 N 570.547 0.616602 1.45037 0
M  V30 6005 C 571.495 -0.109318 2.32343 0
M  V30 6006 C 572.489 -0.850543 1.465 0
M  V30 6007 O 573.695 -0.765088 1.62931 0
M  V30 6008 H 570.07 -0.0541091 0.750051 0
M  V30 6009 H 572.041 0.645326 2.91338 0
M  V30 6010 C 570.79 -1.0872 3.30266 0
M  V30 6011 H 570.113 -0.526267 3.96321 0
M  V30 6012 H 571.553 -1.56489 3.94065 0
M  V30 6013 C 570.012 -2.16525 2.58105 0
M  V30 6014 O 570.542 -3.244 2.36913 0
M  V30 6015 N 568.748 -1.92057 2.18088 0
M  V30 6016 H 568.295 -1.04337 2.35524 0
M  V30 6017 H 568.253 -2.64391 1.70131 0
M  V30 6018 N 572.025 -1.5352 0.356285 0
M  V30 6019 C 573.273 -2.00719 -0.235837 0
M  V30 6020 C 573.594 -1.24551 -1.5004 0
M  V30 6021 O 572.864 -0.356185 -1.92635 0
M  V30 6022 H 571.444 -0.741542 -0.0901366 0
M  V30 6023 H 574.106 -1.88887 0.480378 0
M  V30 6024 H 573.202 -3.08551 -0.469357 0
M  V30 6025 N 573.503 -0.0852151 -1.57369 0
M  V30 6026 C 574.733 0.588605 -1.98038 0
M  V30 6027 C 575.141 1.62869 -0.962817 0
M  V30 6028 O 574.484 1.83611 0.057134 0
M  V30 6029 C 574.546 1.30303 -3.35054 0
M  V30 6030 C 574.21 0.414855 -4.55113 0
M  V30 6031 C 575.207 -0.333011 -5.18832 0
M  V30 6032 C 572.892 0.335804 -5.01176 0
M  V30 6033 C 574.886 -1.14801 -6.26976 0
M  V30 6034 C 572.573 -0.482857 -6.09189 0
M  V30 6035 C 573.571 -1.22342 -6.71953 0
M  V30 6036 O 573.259 -2.02855 -7.77885 0
M  V30 6037 H 572.991 0.163249 -0.655992 0
M  V30 6038 H 575.545 -0.1582 -2.0479 0
M  V30 6039 H 573.775 2.0962 -3.24956 0
M  V30 6040 H 575.464 1.87041 -3.60237 0
M  V30 6041 H 576.23 -0.281611 -4.84182 0
M  V30 6042 H 572.109 0.901869 -4.52092 0
M  V30 6043 H 575.653 -1.72654 -6.75897 0
M  V30 6044 H 571.55 -0.535773 -6.43273 0
M  V30 6045 H 572.318 -1.95432 -7.94826 0
M  V30 6046 N 574.981 1.5647 0.188427 0
M  V30 6047 C 576.258 1.71857 0.934058 0
M  V30 6048 C 576.638 0.641867 2.01105 0
M  V30 6049 O 575.986 -0.346098 2.25864 0
M  V30 6050 C 576.196 3.14431 1.5144 0
M  V30 6051 C 577.544 3.74869 1.99396 0
M  V30 6052 O 578.568 3.17601 1.61269 0
M  V30 6053 O 577.427 4.75387 2.69573 0
M  V30 6054 H 574.521 0.701186 0.438483 0
M  V30 6055 H 577.067 1.68768 0.177599 0
M  V30 6056 H 575.839 3.8427 0.738416 0
M  V30 6057 H 575.462 3.21775 2.33552 0
M  V30 6058 N 576.459 -0.456382 1.50847 0
M  V30 6059 C 577.407 -1.57318 1.71329 0
M  V30 6060 C 578.401 -1.59187 0.579287 0
M  V30 6061 O 579.607 -1.6316 0.76018 0
M  V30 6062 H 575.982 -0.5223 0.541024 0
M  V30 6063 H 577.953 -1.3721 2.64983 0
M  V30 6064 C 576.702 -2.95142 1.83811 0
M  V30 6065 H 576.025 -2.94428 2.70467 0
M  V30 6066 H 577.465 -3.72702 2.02161 0
M  V30 6067 C 575.924 -3.31636 0.593224 0
M  V30 6068 O 576.454 -4.00852 -0.260898 0
M  V30 6069 N 574.66 -2.87205 0.442902 0
M  V30 6070 H 574.207 -2.31051 1.13901 0
M  V30 6071 H 574.165 -3.11986 -0.38884 0
M  V30 6072 N 577.937 -1.40673 -0.710563 0
M  V30 6073 C 579.185 -1.38947 -1.46759 0
M  V30 6074 C 579.506 0.00572879 -1.94999 0
M  V30 6075 O 578.776 0.961358 -1.70689 0
M  V30 6076 H 577.356 -0.5114 -0.544499 0
M  V30 6077 H 580.018 -1.75773 -0.842012 0
M  V30 6078 H 579.114 -2.06745 -2.33801 0
M  V30 6079 N 579.415 0.9433 -1.26252 0
M  V30 6080 C 580.664 1.68369 -1.11062 0
M  V30 6081 C 580.977 1.92514 0.346104 0
M  V30 6082 O 582.183 2.64358 0.618646 0
M  V30 6083 C 580.639 3.03171 -1.93946 0
M  V30 6084 C 580.247 2.86782 -3.4418 0
M  V30 6085 C 581.991 3.80916 -1.87359 0
M  V30 6086 C 579.898 4.17044 -4.19319 0
M  V30 6087 H 578.828 0.631469 -0.412023 0
M  V30 6088 H 581.479 1.04922 -1.50544 0
M  V30 6089 H 579.861 3.67587 -1.47296 0
M  V30 6090 H 581.035 2.31229 -3.98585 0
M  V30 6091 H 579.35 2.22482 -3.51981 0
M  V30 6092 H 581.947 4.77417 -2.40784 0
M  V30 6093 H 582.29 4.07658 -0.843857 0
M  V30 6094 H 582.823 3.2327 -2.31821 0
M  V30 6095 H 579.562 3.95487 -5.22753 0
M  V30 6096 H 579.082 4.72319 -3.69696 0
M  V30 6097 H 580.761 4.85513 -4.27651 0
M  V30 6098 N 580.893 1.08022 1.14757 0
M  V30 6099 C 582.142 0.802468 1.8505 0
M  V30 6100 C 582.455 -0.674061 1.83619 0
M  V30 6101 O 583.661 -1.06683 2.49662 0
M  V30 6102 C 582.117 1.38551 3.32162 0
M  V30 6103 C 581.725 2.89354 3.42021 0
M  V30 6104 C 583.469 1.18608 4.07594 0
M  V30 6105 C 581.376 3.40815 4.83321 0
M  V30 6106 H 580.306 0.296518 0.693248 0
M  V30 6107 H 582.957 1.30114 1.29393 0
M  V30 6108 H 581.339 0.814556 3.87532 0
M  V30 6109 H 582.513 3.52552 2.96722 0
M  V30 6110 H 580.828 3.08165 2.80041 0
M  V30 6111 H 583.425 1.54525 5.11885 0
M  V30 6112 H 583.768 0.125599 4.1611 0
M  V30 6113 H 584.301 1.72375 3.58513 0
M  V30 6114 H 581.04 4.46418 4.79991 0
M  V30 6115 H 580.56 2.82374 5.29174 0
M  V30 6116 H 582.239 3.37171 5.522 0
M  V30 6117 N 582.371 -1.3172 0.865308 0
M  V30 6118 C 583.617 -1.97559 0.483944 0
M  V30 6119 C 583.972 -1.67181 -0.95227 0
M  V30 6120 O 583.265 -0.955392 -1.66081 0
M  V30 6121 C 583.459 -3.5102 0.672283 0
M  V30 6122 C 583.288 -3.96312 2.12525 0
M  V30 6123 C 582.058 -4.22877 2.76591 0
M  V30 6124 C 584.256 -4.10596 3.09702 0
M  V30 6125 N 582.238 -4.5449 4.12689 0
M  V30 6126 C 583.609 -4.45867 4.30816 0
M  V30 6127 C 585.664 -3.92961 3.05755 0
M  V30 6128 C 584.367 -4.65344 5.48495 0
M  V30 6129 C 586.393 -4.13628 4.22688 0
M  V30 6130 C 585.755 -4.49227 5.42563 0
M  V30 6131 H 581.854 -0.74862 0.226035 0
M  V30 6132 H 584.438 -1.59336 1.11893 0
M  V30 6133 H 582.609 -3.88342 0.0669224 0
M  V30 6134 H 584.341 -4.03865 0.259765 0
M  V30 6135 H 581.096 -4.15343 2.27567 0
M  V30 6136 H 581.52 -4.74464 4.82921 0
M  V30 6137 H 586.162 -3.64531 2.14188 0
M  V30 6138 H 583.88 -4.92624 6.40584 0
M  V30 6139 H 587.466 -4.01474 4.21082 0
M  V30 6140 H 586.346 -4.64895 6.31539 0
M  V30 6141 N 583.85 -0.624285 -1.44708 0
M  V30 6142 C 584.812 0.0749638 -2.29077 0
M  V30 6143 C 585.812 0.778965 -1.40673 0
M  V30 6144 O 587.003 0.624591 -1.62618 0
M  V30 6145 C 584.135 1.11663 -3.22094 0
M  V30 6146 H 585.327 -0.667013 -2.92388 0
M  V30 6147 H 582.88 -0.384098 -1.51507 0
M  V30 6148 H 583.615 1.88881 -2.63618 0
M  V30 6149 H 583.401 0.61583 -3.87234 0
M  V30 6150 H 584.891 1.60585 -3.8549 0
M  V30 6151 N 585.328 1.53329 -0.364422 0
M  V30 6152 C 586.556 2.05657 0.226424 0
M  V30 6153 C 586.971 1.23801 1.42544 0
M  V30 6154 O 586.328 0.27839 1.80364 0
M  V30 6155 C 586.379 3.56125 0.621056 0
M  V30 6156 O 586.1 4.34879 -0.530304 0
M  V30 6157 C 587.601 4.24706 1.27041 0
M  V30 6158 H 584.821 0.669806 0.0400056 0
M  V30 6159 H 587.365 1.97714 -0.522456 0
M  V30 6160 H 585.52 3.64223 1.31985 0
M  V30 6161 H 585.934 5.24073 -0.211546 0
M  V30 6162 H 587.408 5.3131 1.49711 0
M  V30 6163 H 587.885 3.78354 2.23036 0
M  V30 6164 H 588.491 4.20858 0.613079 0
M  V30 6165 N 586.806 0.0935595 1.57322 0
M  V30 6166 C 588.052 -0.565234 1.95388 0
M  V30 6167 C 588.407 -1.65888 0.974632 0
M  V30 6168 O 587.7 -1.916 0.000376385 0
M  V30 6169 C 587.894 -1.16692 3.37813 0
M  V30 6170 C 587.723 -0.133091 4.49503 0
M  V30 6171 C 586.493 0.289884 5.04468 0
M  V30 6172 C 588.691 0.638141 5.10326 0
M  V30 6173 N 586.673 1.31214 5.99713 0
M  V30 6174 C 588.044 1.51227 6.01274 0
M  V30 6175 C 590.099 0.691827 4.9307 0
M  V30 6176 C 588.802 2.43536 6.76818 0
M  V30 6177 C 590.828 1.60251 5.69274 0
M  V30 6178 C 590.19 2.46427 6.59889 0
M  V30 6179 H 586.289 -0.177212 0.761656 0
M  V30 6180 H 588.873 0.175769 1.93905 0
M  V30 6181 H 587.044 -1.87775 3.39993 0
M  V30 6182 H 588.776 -1.78795 3.63063 0
M  V30 6183 H 585.531 -0.0975541 4.735 0
M  V30 6184 H 585.955 1.82143 6.52038 0
M  V30 6185 H 590.597 0.0397431 4.22781 0
M  V30 6186 H 588.315 3.0977 7.4637 0
M  V30 6187 H 591.901 1.64917 5.57937 0
M  V30 6188 H 590.781 3.15751 7.17824 0
M  V30 6189 N 588.284 -1.56567 -0.180126 0
M  V30 6190 C 589.231 -1.95725 -1.22313 0
M  V30 6191 C 590.201 -0.819911 -1.44453 0
M  V30 6192 O 591.386 -1.07931 -1.57339 0
M  V30 6193 C 588.526 -2.31484 -2.55947 0
M  V30 6194 C 587.639 -3.58354 -2.4126 0
M  V30 6195 C 586.774 -3.83366 -3.67701 0
M  V30 6196 C 585.813 -5.03612 -3.47909 0
M  V30 6197 N 584.95 -5.24802 -4.66398 0
M  V30 6198 H 589.79 -2.84642 -0.882198 0
M  V30 6199 H 587.327 -1.4085 -0.42422 0
M  V30 6200 H 589.285 -2.50237 -3.33822 0
M  V30 6201 H 587.915 -1.45689 -2.88053 0
M  V30 6202 H 586.967 -3.47565 -1.54606 0
M  V30 6203 H 588.279 -4.46386 -2.22577 0
M  V30 6204 H 587.433 -4.02439 -4.54013 0
M  V30 6205 H 586.172 -2.93692 -3.89353 0
M  V30 6206 H 585.177 -4.84447 -2.59983 0
M  V30 6207 H 586.402 -5.94809 -3.27688 0
M  V30 6208 H 584.348 -4.38079 -4.88286 0
M  V30 6209 H 584.265 -6.07041 -4.50596 0
M  V30 6210 H 585.533 -5.48346 -5.54019 0
M  V30 6211 N 589.762 0.448376 -1.51087 0
M  V30 6212 C 590.99 1.22143 -1.66999 0
M  V30 6213 C 591.405 1.85283 -0.362699 0
M  V30 6214 O 590.762 1.70236 0.65772 0
M  V30 6215 C 590.813 2.31357 -2.7777 0
M  V30 6216 O 590.534 1.70801 -4.03434 0
M  V30 6217 C 592.035 3.21836 -3.04855 0
M  V30 6218 H 589.255 0.368558 -0.560719 0
M  V30 6219 H 591.799 0.532618 -1.97442 0
M  V30 6220 H 589.954 2.95973 -2.49958 0
M  V30 6221 H 590.368 2.42895 -4.64868 0
M  V30 6222 H 591.842 3.94627 -3.85971 0
M  V30 6223 H 592.319 3.81949 -2.16821 0
M  V30 6224 H 592.925 2.62933 -3.34285 0
M  V30 6225 N 591.24 1.41047 0.703093 0
M  V30 6226 C 592.656 1.23351 1.01275 0
M  V30 6227 C 592.856 0.11754 2.01157 0
M  V30 6228 O 591.912 -0.520518 2.47077 0
M  V30 6229 C 593.225 2.58001 1.54454 0
M  V30 6230 C 594.773 2.65119 1.66376 0
M  V30 6231 C 595.248 4.00067 2.22958 0
M  V30 6232 N 596.739 4.01875 2.30328 0
M  V30 6233 C 597.474 5.03087 2.75119 0
M  V30 6234 N 596.97 6.14692 3.19571 0
M  V30 6235 N 598.763 4.90451 2.74616 0
M  V30 6236 H 590.914 2.1236 0.0412686 0
M  V30 6237 H 593.177 0.944543 0.08089 0
M  V30 6238 H 592.883 3.40378 0.88521 0
M  V30 6239 H 592.757 2.79962 2.52786 0
M  V30 6240 H 595.144 1.83106 2.31422 0
M  V30 6241 H 595.225 2.46975 0.666089 0
M  V30 6242 H 594.869 4.82526 1.58529 0
M  V30 6243 H 594.799 4.15547 3.23462 0
M  V30 6244 H 597.29 3.21291 1.98949 0
M  V30 6245 H 597.603 6.87799 3.52352 0
M  V30 6246 H 595.948 6.18239 3.17498 0
M  V30 6247 H 599.139 4.0235 2.39233 0
M  V30 6248 H 599.312 5.6947 3.09206 0
M  V30 6249 N 592.718 -0.936591 1.26751 0
M  V30 6250 C 593.964 -1.68625 1.13741 0
M  V30 6251 C 594.319 -1.898 -0.315221 0
M  V30 6252 O 593.612 -1.47088 -1.22783 0
M  V30 6253 C 593.806 -3.06099 1.84494 0
M  V30 6254 C 593.635 -2.98338 3.36488 0
M  V30 6255 C 592.405 -3.01104 4.05789 0
M  V30 6256 C 594.603 -2.78128 4.32608 0
M  V30 6257 N 592.585 -2.8369 5.4442 0
M  V30 6258 C 593.956 -2.69329 5.58446 0
M  V30 6259 C 596.011 -2.62946 4.22804 0
M  V30 6260 C 594.714 -2.46899 6.75598 0
M  V30 6261 C 596.74 -2.41892 5.39669 0
M  V30 6262 C 596.102 -2.33829 6.64457 0
M  V30 6263 H 592.201 -0.624227 0.471025 0
M  V30 6264 H 594.785 -1.10798 1.601 0
M  V30 6265 H 592.956 -3.62057 1.40604 0
M  V30 6266 H 594.688 -3.69951 1.64067 0
M  V30 6267 H 591.443 -3.10992 3.57185 0
M  V30 6268 H 591.867 -2.78138 6.17226 0
M  V30 6269 H 596.509 -2.67944 3.27056 0
M  V30 6270 H 594.227 -2.40642 7.71438 0
M  V30 6271 H 597.813 -2.31043 5.33957 0
M  V30 6272 H 596.693 -2.17754 7.53361 0
M  V30 6273 N 594.196 -1.08629 -1.14182 0
M  V30 6274 C 595.426 -0.837673 -1.88856 0
M  V30 6275 C 595.834 0.614024 -1.78959 0
M  V30 6276 O 595.177 1.43384 -1.14833 0
M  V30 6277 C 595.239 -1.18355 -3.39459 0
M  V30 6278 C 594.903 -2.63848 -3.73139 0
M  V30 6279 C 595.9 -3.62099 -3.73069 0
M  V30 6280 C 593.585 -2.99761 -4.03049 0
M  V30 6281 C 595.579 -4.94292 -4.02435 0
M  V30 6282 C 593.266 -4.32147 -4.32078 0
M  V30 6283 C 594.264 -5.29223 -4.31755 0
M  V30 6284 O 593.952 -6.59229 -4.60079 0
M  V30 6285 H 593.684 -0.301609 -0.604986 0
M  V30 6286 H 596.238 -1.44961 -1.45518 0
M  V30 6287 H 594.468 -0.514628 -3.8326 0
M  V30 6288 H 596.157 -0.915391 -3.95443 0
M  V30 6289 H 596.923 -3.35698 -3.50046 0
M  V30 6290 H 592.802 -2.2484 -4.02453 0
M  V30 6291 H 596.346 -5.70055 -4.02098 0
M  V30 6292 H 592.243 -4.58296 -4.54571 0
M  V30 6293 H 593.011 -6.64578 -4.77785 0
M  V30 6294 N 595.674 1.31259 -0.872281 0
M  V30 6295 C 596.899 2.0133 -0.498099 0
M  V30 6296 C 597.324 1.65031 0.902568 0
M  V30 6297 O 596.682 0.860164 1.59596 0
M  V30 6298 C 596.73 3.54411 -0.665205 0
M  V30 6299 O 595.834 4.11347 0.294473 0
M  V30 6300 H 595.175 0.633844 -0.197832 0
M  V30 6301 H 597.705 1.67402 -1.17633 0
M  V30 6302 H 597.715 4.04147 -0.559373 0
M  V30 6303 H 596.39 3.80171 -1.68651 0
M  V30 6304 H 594.967 3.72624 0.143403 0
M  V30 6305 N 597.152 0.631951 1.44375 0
M  V30 6306 C 598.085 -0.121822 2.27875 0
M  V30 6307 C 599.063 -0.850457 1.38586 0
M  V30 6308 O 600.247 -0.854378 1.68026 0
M  V30 6309 C 597.374 -1.17859 3.17533 0
M  V30 6310 C 596.42 -0.550391 4.22934 0
M  V30 6311 S 597.253 0.660145 5.31415 0
M  V30 6312 C 598.409 -0.396613 6.24642 0
M  V30 6313 H 598.642 0.586537 2.91457 0
M  V30 6314 H 596.175 0.420146 1.48574 0
M  V30 6315 H 598.133 -1.78335 3.69739 0
M  V30 6316 H 596.794 -1.85915 2.53169 0
M  V30 6317 H 595.987 -1.34631 4.85685 0
M  V30 6318 H 595.589 -0.0202306 3.73995 0
M  V30 6319 H 597.881 -1.26893 6.65511 0
M  V30 6320 H 598.824 0.195345 7.0783 0
M  V30 6321 H 599.232 -0.72288 5.59852 0
M  V30 6322 N 598.631 -1.53133 0.372548 0
M  V30 6323 C 599.578 -2.25951 -0.470631 0
M  V30 6324 C 600.548 -1.26895 -1.07176 0
M  V30 6325 O 601.733 -1.55691 -1.10294 0
M  V30 6326 C 598.873 -3.05726 -1.6008 0
M  V30 6327 C 597.986 -4.19684 -1.02416 0
M  V30 6328 C 597.121 -4.86888 -2.124 0
M  V30 6329 C 596.16 -5.92866 -1.52238 0
M  V30 6330 N 595.297 -6.53732 -2.56084 0
M  V30 6331 H 600.137 -2.97587 0.156816 0
M  V30 6332 H 597.674 -1.4683 0.0891571 0
M  V30 6333 H 599.632 -3.50258 -2.26661 0
M  V30 6334 H 598.262 -2.36331 -2.1988 0
M  V30 6335 H 597.314 -3.79588 -0.248426 0
M  V30 6336 H 598.626 -4.95821 -0.544366 0
M  V30 6337 H 597.78 -5.34638 -2.86787 0
M  V30 6338 H 596.519 -4.10239 -2.63734 0
M  V30 6339 H 595.524 -5.4447 -0.763685 0
M  V30 6340 H 596.749 -6.71439 -1.0172 0
M  V30 6341 H 594.695 -5.79932 -3.06618 0
M  V30 6342 H 594.612 -7.25429 -2.12811 0
M  V30 6343 H 595.88 -7.0613 -3.30152 0
M  V30 6344 N 600.109 -0.101901 -1.5727 0
M  V30 6345 C 601.056 0.854577 -2.14396 0
M  V30 6346 C 602.026 1.27521 -1.06432 0
M  V30 6347 O 603.211 1.35575 -1.34253 0
M  V30 6348 C 600.351 2.10576 -2.73408 0
M  V30 6349 C 599.464 1.73504 -3.95626 0
M  V30 6350 C 598.599 2.9346 -4.42781 0
M  V30 6351 C 597.638 2.52547 -5.57572 0
M  V30 6352 N 596.775 3.65359 -5.99547 0
M  V30 6353 H 601.615 0.360578 -2.9581 0
M  V30 6354 H 599.152 0.166303 -1.46157 0
M  V30 6355 H 601.11 2.83859 -3.05745 0
M  V30 6356 H 599.74 2.57463 -1.94711 0
M  V30 6357 H 598.792 0.901622 -3.6956 0
M  V30 6358 H 600.104 1.39426 -4.78917 0
M  V30 6359 H 599.258 3.74988 -4.76937 0
M  V30 6360 H 597.997 3.30753 -3.58404 0
M  V30 6361 H 597.002 1.69446 -5.23037 0
M  V30 6362 H 598.227 2.1639 -6.43702 0
M  V30 6363 H 596.173 4.02358 -5.18116 0
M  V30 6364 H 596.09 3.35148 -6.77652 0
M  V30 6365 H 597.358 4.47378 -6.38336 0
M  V30 6366 N 601.587 1.56661 0.17182 0
M  V30 6367 C 602.815 1.861 0.904115 0
M  V30 6368 C 603.23 0.687227 1.75848 0
M  V30 6369 O 602.587 -0.343671 1.79235 0
M  V30 6370 C 602.638 3.14568 1.78127 0
M  V30 6371 O 602.359 4.27422 0.961366 0
M  V30 6372 C 603.86 3.5735 2.62327 0
M  V30 6373 H 601.08 0.617445 0.262684 0
M  V30 6374 H 603.624 2.03775 0.172068 0
M  V30 6375 H 601.779 2.98721 2.46666 0
M  V30 6376 H 602.193 5.00725 1.56123 0
M  V30 6377 H 603.667 4.50144 3.1949 0
M  V30 6378 H 604.144 2.81445 3.37173 0
M  V30 6379 H 604.75 3.75807 1.99121 0
M  V30 6380 N 603.065 -0.440357 1.51323 0
M  V30 6381 C 604.293 -1.21255 1.67645 0
M  V30 6382 C 604.708 -1.85088 0.37252 0
M  V30 6383 O 604.065 -1.70582 -0.648683 0
M  V30 6384 C 604.116 -2.29881 2.78993 0
M  V30 6385 O 603.837 -1.68659 4.04334 0
M  V30 6386 C 605.338 -3.20214 3.06558 0
M  V30 6387 H 602.558 -0.36558 0.562666 0
M  V30 6388 H 605.102 -0.52214 1.97722 0
M  V30 6389 H 603.257 -2.94643 2.51524 0
M  V30 6390 H 603.671 -2.40426 4.6615 0
M  V30 6391 H 605.145 -3.92575 3.88058 0
M  V30 6392 H 605.622 -3.80794 2.18844 0
M  V30 6393 H 606.228 -2.61156 3.35675 0
M  V30 6394 N 604.543 -1.41418 -0.695603 0
M  V30 6395 C 605.476 -1.3768 -1.81988 0
M  V30 6396 C 606.454 -0.244061 -1.60758 0
M  V30 6397 O 607.638 -0.430965 -1.83507 0
M  V30 6398 C 604.765 -1.1476 -3.18666 0
M  V30 6399 C 603.811 -2.30752 -3.58686 0
M  V30 6400 S 604.644 -3.9323 -3.63498 0
M  V30 6401 C 605.8 -3.72613 -5.02902 0
M  V30 6402 H 606.033 -2.32822 -1.84882 0
M  V30 6403 H 603.566 -1.27942 -0.86431 0
M  V30 6404 H 605.524 -1.02223 -3.97569 0
M  V30 6405 H 604.185 -0.212385 -3.13381 0
M  V30 6406 H 603.378 -2.10409 -4.57978 0
M  V30 6407 H 602.98 -2.39696 -2.87092 0
M  V30 6408 H 605.272 -3.32317 -5.904 0
M  V30 6409 H 606.215 -4.71507 -5.28286 0
M  V30 6410 H 606.623 -3.0589 -4.74438 0
M  V30 6411 N 606.021 0.929856 -1.27246 0
M  V30 6412 C 606.968 2.03017 -1.09785 0
M  V30 6413 C 607.938 1.661 0.000456744 0
M  V30 6414 O 609.123 1.90116 -0.161462 0
M  V30 6415 C 606.263 3.36878 -0.748816 0
M  V30 6416 C 605.376 3.86763 -1.92453 0
M  V30 6417 C 604.511 5.09061 -1.51758 0
M  V30 6418 C 603.55 5.51237 -2.66091 0
M  V30 6419 N 602.687 6.64732 -2.25999 0
M  V30 6420 H 607.527 2.17285 -2.03939 0
M  V30 6421 H 605.064 1.06448 -1.01524 0
M  V30 6422 H 607.022 4.13855 -0.527283 0
M  V30 6423 H 605.652 3.22424 0.155771 0
M  V30 6424 H 604.704 3.06086 -2.25867 0
M  V30 6425 H 606.016 4.13994 -2.78227 0
M  V30 6426 H 605.17 5.93532 -1.25716 0
M  V30 6427 H 603.909 4.83602 -0.630896 0
M  V30 6428 H 602.914 4.65316 -2.92849 0
M  V30 6429 H 604.139 5.78692 -3.55377 0
M  V30 6430 H 602.085 6.40935 -1.3978 0
M  V30 6431 H 602.002 6.91607 -3.05313 0
M  V30 6432 H 603.27 7.52549 -2.03199 0
M  V30 6433 N 607.499 1.09233 1.13605 0
M  V30 6434 C 608.748 0.82205 1.84188 0
M  V30 6435 C 609.061 -0.654548 1.84323 0
M  V30 6436 O 610.267 -1.04029 2.50779 0
M  V30 6437 C 608.723 1.42066 3.30674 0
M  V30 6438 C 608.331 2.92965 3.38933 0
M  V30 6439 C 610.075 1.22924 4.06313 0
M  V30 6440 C 607.982 3.45922 4.79679 0
M  V30 6441 H 606.912 0.303854 0.690064 0
M  V30 6442 H 609.563 1.31479 1.28006 0
M  V30 6443 H 607.945 0.855613 3.86646 0
M  V30 6444 H 609.119 3.55679 2.92966 0
M  V30 6445 H 607.434 3.11118 2.76757 0
M  V30 6446 H 610.031 1.59945 5.10217 0
M  V30 6447 H 610.374 0.169726 4.15954 0
M  V30 6448 H 610.907 1.76168 3.56665 0
M  V30 6449 H 607.646 4.51484 4.75229 0
M  V30 6450 H 607.166 2.87971 5.26149 0
M  V30 6451 H 608.845 3.43009 5.48592 0
M  V30 6452 N 608.977 -1.30795 0.87923 0
M  V30 6453 C 610.226 -1.95636 0.490875 0
M  V30 6454 C 610.539 -1.70214 -0.963674 0
M  V30 6455 O 611.745 -2.28991 -1.45861 0
M  V30 6456 C 610.201 -3.50271 0.826929 0
M  V30 6457 C 609.809 -3.84521 2.29886 0
M  V30 6458 C 611.553 -4.21456 0.507494 0
M  V30 6459 C 609.46 -5.32309 2.57685 0
M  V30 6460 H 608.39 -0.732238 0.179841 0
M  V30 6461 H 611.041 -1.48829 1.07341 0
M  V30 6462 H 609.423 -3.9562 0.173542 0
M  V30 6463 H 610.597 -3.50102 2.99609 0
M  V30 6464 H 608.912 -3.26425 2.58526 0
M  V30 6465 H 611.509 -5.30199 0.692293 0
M  V30 6466 H 611.852 -4.12614 -0.552718 0
M  V30 6467 H 612.385 -3.81772 1.11782 0
M  V30 6468 H 609.124 -5.46195 3.62424 0
M  V30 6469 H 608.644 -5.68048 1.92566 0
M  V30 6470 H 610.323 -5.99678 2.42889 0
M  V30 6471 N 610.455 -0.639598 -1.44038 0
M  V30 6472 C 611.866 -0.228866 -1.85292 0
M  V30 6473 C 612.217 1.22161 -1.53529 0
M  V30 6474 O 611.342 1.93064 -0.977518 0
M  V30 6475 C 611.937 -0.408592 -3.36327 0
M  V30 6476 C 610.496 -0.0522953 -3.76364 0
M  V30 6477 C 609.643 -0.717959 -2.67844 0
M  V30 6478 H 612.594 -0.844194 -1.34384 0
M  V30 6479 H 612.615 0.349968 -3.78887 0
M  V30 6480 H 612.127 -1.46435 -3.59414 0
M  V30 6481 H 610.228 1.0014 -3.58891 0
M  V30 6482 H 610.341 -0.468261 -4.76806 0
M  V30 6483 H 608.705 -0.152459 -2.54243 0
M  V30 6484 H 609.488 -1.77648 -2.93762 0
M  V30 6485 N 611.933 1.52934 -0.380664 0
M  V30 6486 C 613.18 2.01467 0.204278 0
M  V30 6487 C 613.508 1.26744 1.47533 0
M  V30 6488 O 612.763 0.353723 1.92477 0
M  V30 6489 C 613.062 3.5349 0.527199 0
M  V30 6490 C 612.728 4.46171 -0.651295 0
M  V30 6491 C 611.39 4.71227 -0.974619 0
M  V30 6492 C 613.742 5.00909 -1.44012 0
M  V30 6493 C 611.07 5.4827 -2.08847 0
M  V30 6494 C 613.422 5.7917 -2.5445 0
M  V30 6495 C 612.086 6.02507 -2.87301 0
M  V30 6496 H 611.356 0.73722 0.0747504 0
M  V30 6497 H 614.003 1.84411 -0.516234 0
M  V30 6498 H 612.308 3.68574 1.32892 0
M  V30 6499 H 614.005 3.88529 0.992283 0
M  V30 6500 H 610.595 4.26829 -0.389276 0
M  V30 6501 H 614.779 4.81485 -1.20357 0
M  V30 6502 H 610.035 5.64567 -2.34679 0
M  V30 6503 H 614.209 6.20588 -3.1598 0
M  V30 6504 H 611.836 6.61989 -3.7373 0
M  V30 6505 N 613.412 0.11024 1.57214 0
M  V30 6506 C 614.36 -0.860586 2.16094 0
M  V30 6507 C 615.354 -1.28156 1.1078 0
M  V30 6508 O 616.56 -1.25433 1.29099 0
M  V30 6509 H 612.935 -0.295606 0.691463 0
M  V30 6510 H 614.906 -0.33942 2.96463 0
M  V30 6511 C 613.655 -2.10421 2.768 0
M  V30 6512 H 612.978 -1.7892 3.5753 0
M  V30 6513 H 614.418 -2.76375 3.21547 0
M  V30 6514 C 612.877 -2.88823 1.73444 0
M  V30 6515 O 613.407 -3.839 1.18251 0
M  V30 6516 N 611.613 -2.52649 1.43586 0
M  V30 6517 H 611.16 -1.754 1.8866 0
M  V30 6518 H 611.118 -3.05403 0.746735 0
M  V30 6519 N 614.89 -1.56749 -0.16351 0
M  V30 6520 C 616.306 -1.51043 -0.515567 0
M  V30 6521 C 616.506 -0.815855 -1.84245 0
M  V30 6522 O 615.562 -0.379477 -2.49632 0
M  V30 6523 C 616.875 -2.95791 -0.541114 0
M  V30 6524 C 618.423 -3.0664 -0.627776 0
M  V30 6525 C 618.898 -4.52861 -0.684141 0
M  V30 6526 N 620.389 -4.5714 -0.746818 0
M  V30 6527 C 621.124 -5.67634 -0.811137 0
M  V30 6528 N 620.62 -6.8774 -0.835811 0
M  V30 6529 N 622.413 -5.55624 -0.850756 0
M  V30 6530 H 614.564 -2.00307 0.70645 0
M  V30 6531 H 616.827 -0.912876 0.255659 0
M  V30 6532 H 616.533 -3.49797 0.365329 0
M  V30 6533 H 616.407 -3.50858 -1.38487 0
M  V30 6534 H 618.794 -2.52663 -1.52464 0
M  V30 6535 H 618.875 -2.54645 0.242805 0
M  V30 6536 H 618.519 -5.07472 0.2085 0
M  V30 6537 H 618.449 -5.02621 -1.57098 0
M  V30 6538 H 620.94 -3.70669 -0.735717 0
M  V30 6539 H 621.253 -7.67701 -0.886279 0
M  V30 6540 H 619.598 -6.90334 -0.803958 0
M  V30 6541 H 622.789 -4.60709 -0.828535 0
M  V30 6542 H 622.962 -6.41756 -0.897418 0
M  V30 6543 N 616.368 0.432326 -1.51554 0
M  V30 6544 C 617.298 1.53242 -1.76179 0
M  V30 6545 C 618.279 1.58717 -0.611801 0
M  V30 6546 O 619.464 1.74364 -0.855033 0
M  V30 6547 C 616.594 2.91278 -1.89141 0
M  V30 6548 C 615.548 3.00663 -3.04608 0
M  V30 6549 C 614.874 4.40728 -3.02759 0
M  V30 6550 C 616.174 2.74281 -4.44485 0
M  V30 6551 H 617.868 1.32886 -2.68294 0
M  V30 6552 H 615.414 0.637841 -1.29103 0
M  V30 6553 H 617.367 3.68203 -2.04951 0
M  V30 6554 H 616.091 3.12877 -0.936785 0
M  V30 6555 H 614.75 2.26179 -2.88511 0
M  V30 6556 H 614.398 4.59301 -2.05065 0
M  V30 6557 H 614.098 4.47936 -3.80299 0
M  V30 6558 H 615.622 5.19619 -3.20669 0
M  V30 6559 H 617.036 3.40936 -4.60907 0
M  V30 6560 H 615.433 2.92893 -5.23769 0
M  V30 6561 H 616.503 1.69856 -4.54177 0
M  V30 6562 N 617.846 1.41785 0.688094 0
M  V30 6563 C 619.074 1.44915 1.47673 0
M  V30 6564 C 619.489 0.0565786 1.88715 0
M  V30 6565 O 618.846 -0.92579 1.57275 0
M  V30 6566 C 618.897 2.36452 2.73446 0
M  V30 6567 O 618.618 3.7029 2.34131 0
M  V30 6568 C 620.119 2.48463 3.67125 0
M  V30 6569 H 617.339 0.493324 0.454832 0
M  V30 6570 H 619.883 1.86153 0.846594 0
M  V30 6571 H 618.038 1.98502 3.3268 0
M  V30 6572 H 618.452 4.19183 3.15255 0
M  V30 6573 H 619.926 3.16662 4.52138 0
M  V30 6574 H 620.403 1.51826 4.12123 0
M  V30 6575 H 621.009 2.8708 3.13792 0
M  V30 6576 N 619.324 -0.923095 1.27737 0
M  V30 6577 C 620.573 -1.66581 1.13727 0
M  V30 6578 C 620.886 -1.9304 -0.315433 0
M  V30 6579 O 622.092 -2.65309 -0.57651 0
M  V30 6580 C 620.548 -3.00047 1.98745 0
M  V30 6581 C 620.156 -2.8127 3.48699 0
M  V30 6582 C 621.9 -3.77887 1.93395 0
M  V30 6583 C 619.807 -4.1032 4.25901 0
M  V30 6584 H 618.737 -0.624834 0.422017 0
M  V30 6585 H 621.388 -1.02514 1.52194 0
M  V30 6586 H 619.77 -3.65197 1.53125 0
M  V30 6587 H 620.944 -2.24859 4.02213 0
M  V30 6588 H 619.259 -2.16854 3.55476 0
M  V30 6589 H 621.856 -4.73526 2.48348 0
M  V30 6590 H 622.199 -4.06264 0.908605 0
M  V30 6591 H 622.732 -3.19541 2.36935 0
M  V30 6592 H 619.471 -3.8712 5.28978 0
M  V30 6593 H 618.991 -4.66377 3.77163 0
M  V30 6594 H 620.67 -4.78648 4.35321 0
M  V30 6595 N 620.802 -1.09834 -1.13024 0
M  V30 6596 C 622.05 -0.835297 -1.8403 0
M  V30 6597 C 622.371 0.640944 -1.84165 0
M  V30 6598 O 621.641 1.46517 -1.30037 0
M  V30 6599 H 620.221 -0.306018 -0.681441 0
M  V30 6600 H 622.883 -1.38734 -1.36891 0
M  V30 6601 H 621.979 -1.19258 -2.88416 0
M  V30 6602 N 622.28 1.30327 -0.886154 0
M  V30 6603 C 623.19 2.31854 -0.357866 0
M  V30 6604 C 624.206 1.65392 0.540502 0
M  V30 6605 O 625.382 1.96683 0.433339 0
M  V30 6606 C 622.447 3.44171 0.417999 0
M  V30 6607 C 621.508 4.26257 -0.510263 0
M  V30 6608 C 620.741 5.3321 0.228669 0
M  V30 6609 O 620.964 5.51542 1.45458 0
M  V30 6610 O 619.898 6.0042 -0.421832 0
M  V30 6611 H 623.724 2.78995 -1.19982 0
M  V30 6612 H 621.309 1.34518 -0.650028 0
M  V30 6613 H 623.191 4.12588 0.857251 0
M  V30 6614 H 621.866 2.99164 1.23623 0
M  V30 6615 H 620.773 3.60533 -0.99835 0
M  V30 6616 H 622.106 4.74871 -1.29454 0
M  V30 6617 N 623.758 0.647228 1.43697 0
M  V30 6618 C 625.006 0.157876 2.01482 0
M  V30 6619 C 625.327 -1.23039 1.51282 0
M  V30 6620 O 624.597 -1.82071 0.722982 0
M  V30 6621 H 623.177 0.0553745 0.744945 0
M  V30 6622 H 625.839 0.83755 1.75986 0
M  V30 6623 H 624.935 0.137895 3.11795 0
M  V30 6624 N 625.236 -1.5273 0.388769 0
M  V30 6625 C 626.168 -2.24081 -0.481704 0
M  V30 6626 C 627.181 -1.26307 -1.02715 0
M  V30 6627 O 628.37 -1.52386 -0.929565 0
M  V30 6628 C 625.47 -2.94315 -1.68024 0
M  V30 6629 C 624.643 -4.18791 -1.26226 0
M  V30 6630 C 623.702 -4.72028 -2.32542 0
M  V30 6631 O 622.728 -5.35129 -1.93972 0
M  V30 6632 N 623.93 -4.51838 -3.64448 0
M  V30 6633 H 626.695 -2.9942 0.129591 0
M  V30 6634 H 624.256 -1.60465 0.2151 0
M  V30 6635 H 626.248 -3.26831 -2.38671 0
M  V30 6636 H 624.818 -2.22287 -2.19789 0
M  V30 6637 H 624.038 -3.92318 -0.384703 0
M  V30 6638 H 625.326 -4.99668 -0.959647 0
M  V30 6639 H 624.724 -4.01468 -3.98547 0
M  V30 6640 H 623.281 -4.88845 -4.31131 0
M  V30 6641 N 626.714 -0.118576 -1.57153 0
M  V30 6642 C 627.646 0.862247 -2.12363 0
M  V30 6643 C 628.659 1.23025 -1.06625 0
M  V30 6644 O 629.848 1.17927 -1.33998 0
M  V30 6645 C 626.948 2.16425 -2.60794 0
M  V30 6646 C 626.121 1.96801 -3.90626 0
M  V30 6647 C 625.18 3.10726 -4.2466 0
M  V30 6648 O 624.206 2.83659 -4.93484 0
M  V30 6649 N 625.408 4.37147 -3.81946 0
M  V30 6650 H 628.173 0.390564 -2.97144 0
M  V30 6651 H 625.734 0.0658591 -1.61766 0
M  V30 6652 H 627.726 2.91633 -2.80593 0
M  V30 6653 H 626.296 2.54943 -1.80895 0
M  V30 6654 H 625.516 1.05787 -3.7974 0
M  V30 6655 H 626.804 1.80993 -4.7552 0
M  V30 6656 H 626.202 4.62014 -3.26435 0
M  V30 6657 H 624.759 5.09229 -4.06853 0
M  V30 6658 N 628.193 1.56834 0.155195 0
M  V30 6659 C 629.143 1.94061 1.19684 0
M  V30 6660 C 630.127 0.810851 1.38975 0
M  V30 6661 O 631.319 1.07422 1.40675 0
M  V30 6662 C 628.448 2.31778 2.53247 0
M  V30 6663 C 627.534 3.51305 2.37583 0
M  V30 6664 N 627.925 4.68081 1.9166 0
M  V30 6665 C 626.223 3.56228 2.6836 0
M  V30 6666 C 626.924 5.50193 1.88845 0
M  V30 6667 N 625.9 4.91676 2.31852 0
M  V30 6668 H 629.702 2.81826 0.833747 0
M  V30 6669 H 627.216 1.58284 0.363328 0
M  V30 6670 H 629.213 2.56649 3.28538 0
M  V30 6671 H 627.873 1.4536 2.90346 0
M  V30 6672 H 628.884 4.91993 1.6175 0
M  V30 6673 H 625.561 2.8033 3.09389 0
M  V30 6674 H 626.951 6.53801 1.54901 0
M  V30 6675 N 629.671 -0.424282 1.51781 0
M  V30 6676 C 630.621 -1.51464 1.70419 0
M  V30 6677 C 631.605 -1.50911 0.558094 0
M  V30 6678 O 632.797 -1.57143 0.814552 0
M  V30 6679 C 629.926 -2.89539 1.84451 0
M  V30 6680 C 629.012 -2.94798 3.04886 0
M  V30 6681 N 629.403 -2.69778 4.27848 0
M  V30 6682 C 627.701 -3.25962 3.04408 0
M  V30 6683 C 628.402 -2.81216 5.09208 0
M  V30 6684 N 627.378 -3.13447 4.44131 0
M  V30 6685 H 631.18 -1.30892 2.63144 0
M  V30 6686 H 628.694 -0.631783 1.49607 0
M  V30 6687 H 630.691 -3.67998 1.95917 0
M  V30 6688 H 629.351 -3.11121 0.929168 0
M  V30 6689 H 630.362 -2.44458 4.56575 0
M  V30 6690 H 627.039 -3.53236 2.22555 0
M  V30 6691 H 628.429 -2.65715 6.17127 0
M  V30 6692 N 631.149 -1.42148 -0.680565 0
M  V30 6693 C 632.079 -1.4796 -1.80638 0
M  V30 6694 C 633.06 -0.336728 -1.66734 0
M  V30 6695 O 634.245 -0.550247 -1.86242 0
M  V30 6696 C 631.375 -1.37569 -3.18892 0
M  V30 6697 C 630.329 -2.49823 -3.47524 0
M  V30 6698 C 629.655 -2.24491 -4.85291 0
M  V30 6699 C 630.955 -3.92144 -3.44994 0
M  V30 6700 H 632.649 -2.42184 -1.76032 0
M  V30 6701 H 630.195 -1.16566 -0.845481 0
M  V30 6702 H 632.148 -1.40243 -3.97379 0
M  V30 6703 H 630.872 -0.398357 -3.24162 0
M  V30 6704 H 629.531 -2.46455 -2.71395 0
M  V30 6705 H 629.179 -1.25066 -4.87204 0
M  V30 6706 H 628.879 -2.99722 -5.05411 0
M  V30 6707 H 630.403 -2.28906 -5.66069 0
M  V30 6708 H 631.817 -3.97145 -4.13459 0
M  V30 6709 H 630.214 -4.67179 -3.76648 0
M  V30 6710 H 631.284 -4.19225 -2.43676 0
M  V30 6711 N 632.627 0.916307 -1.28225 0
M  V30 6712 C 633.875 1.6619 -1.15002 0
M  V30 6713 C 634.196 1.92642 0.302329 0
M  V30 6714 O 633.466 1.54076 1.20985 0
M  V30 6715 H 632.046 0.615964 -0.422608 0
M  V30 6716 H 634.708 1.09963 -1.60917 0
M  V30 6717 H 633.804 2.62533 -1.68769 0
M  V30 6718 N 634.105 1.10431 1.1244 0
M  V30 6719 C 635.353 0.845045 1.83585 0
M  V30 6720 C 635.674 -0.631168 1.84503 0
M  V30 6721 O 634.944 -1.45825 1.30813 0
M  V30 6722 H 633.524 0.309628 0.679809 0
M  V30 6723 H 636.186 1.39458 1.36153 0
M  V30 6724 H 635.282 1.20786 2.8778 0
M  V30 6725 N 635.583 -1.29855 0.893053 0
M  V30 6726 C 636.546 -2.26183 0.370687 0
M  V30 6727 C 637.546 -1.53108 -0.491385 0
M  V30 6728 O 638.736 -1.71643 -0.297386 0
M  V30 6729 C 635.868 -3.37633 -0.470827 0
M  V30 6730 H 637.061 -2.73903 1.22135 0
M  V30 6731 H 634.614 -1.41183 0.67061 0
M  V30 6732 H 635.349 -2.95241 -1.34175 0
M  V30 6733 H 635.134 -3.91825 0.146784 0
M  V30 6734 H 636.624 -4.09313 -0.827825 0
M  V30 6735 N 637.061 -0.65484 -1.43351 0
M  V30 6736 C 638.008 0.0357713 -2.30772 0
M  V30 6737 C 638.978 0.813035 -1.44841 0
M  V30 6738 O 640.163 0.789314 -1.73708 0
M  V30 6739 C 637.303 0.995084 -3.30442 0
M  V30 6740 C 636.416 0.21375 -4.31471 0
M  V30 6741 C 635.551 1.16701 -5.18222 0
M  V30 6742 C 634.59 0.376201 -6.10943 0
M  V30 6743 N 633.727 1.28113 -6.90313 0
M  V30 6744 H 638.567 -0.71559 -2.89281 0
M  V30 6745 H 636.104 -0.364645 -1.42509 0
M  V30 6746 H 638.062 1.5649 -3.86739 0
M  V30 6747 H 636.692 1.7133 -2.7358 0
M  V30 6748 H 635.744 -0.472377 -3.77456 0
M  V30 6749 H 637.056 -0.401103 -4.97185 0
M  V30 6750 H 636.21 1.8074 -5.79153 0
M  V30 6751 H 634.949 1.81577 -4.52638 0
M  V30 6752 H 633.954 -0.277534 -5.49099 0
M  V30 6753 H 635.179 -0.268178 -6.7857 0
M  V30 6754 H 633.125 1.91666 -6.27376 0
M  V30 6755 H 633.042 0.720879 -7.52555 0
M  V30 6756 H 634.31 1.90962 -7.55747 0
M  V30 6757 N 638.539 1.52521 -0.396863 0
M  V30 6758 C 639.471 2.24333 0.469814 0
M  V30 6759 C 640.484 1.2685 1.02043 0
M  V30 6760 O 641.673 1.52876 0.92147 0
M  V30 6761 C 638.773 2.95202 1.66461 0
M  V30 6762 C 637.946 4.19454 1.24003 0
M  V30 6763 C 637.005 4.73255 2.30036 0
M  V30 6764 O 636.031 5.36151 1.91131 0
M  V30 6765 N 637.233 4.53765 3.62047 0
M  V30 6766 H 639.998 2.99347 -0.145468 0
M  V30 6767 H 637.559 1.60348 -0.223606 0
M  V30 6768 H 639.551 3.28092 2.36934 0
M  V30 6769 H 638.121 2.2345 2.18607 0
M  V30 6770 H 637.341 3.92517 0.363892 0
M  V30 6771 H 638.629 5.0017 0.933135 0
M  V30 6772 H 638.027 4.03576 3.96412 0
M  V30 6773 H 636.584 4.91124 4.28533 0
M  V30 6774 N 640.017 0.126909 1.57088 0
M  V30 6775 C 641.263 -0.529952 1.95753 0
M  V30 6776 C 641.596 -1.65823 1.01077 0
M  V30 6777 O 640.871 -1.94437 0.0494162 0
M  V30 6778 C 641.154 -1.05517 3.44294 0
M  V30 6779 C 641.007 0.0702253 4.49745 0
M  V30 6780 C 642.326 -1.9435 3.94862 0
M  V30 6781 H 639.445 -0.191168 0.711775 0
M  V30 6782 H 642.087 0.204071 1.88901 0
M  V30 6783 H 640.237 -1.68069 3.50264 0
M  V30 6784 H 641.909 0.705834 4.55868 0
M  V30 6785 H 640.152 0.732259 4.27575 0
M  V30 6786 H 640.823 -0.338642 5.5096 0
M  V30 6787 H 643.299 -1.41658 3.91244 0
M  V30 6788 H 642.175 -2.28015 4.993 0
M  V30 6789 H 642.436 -2.87299 3.36024 0
M  V30 6790 N 641.495 -1.56914 -0.146875 0
M  V30 6791 C 642.911 -1.51582 -0.499518 0
M  V30 6792 C 643.111 -0.83535 -1.83369 0
M  V30 6793 O 642.167 -0.405932 -2.49216 0
M  V30 6794 C 643.48 -2.96349 -0.509711 0
M  V30 6795 C 645.028 -3.07288 -0.595217 0
M  V30 6796 C 645.503 -4.53562 -0.636071 0
M  V30 6797 N 646.994 -4.57906 -0.69829 0
M  V30 6798 C 647.729 -5.68462 -0.750886 0
M  V30 6799 N 647.225 -6.88588 -0.76282 0
M  V30 6800 N 649.018 -5.56496 -0.791777 0
M  V30 6801 H 641.169 -1.99547 0.727656 0
M  V30 6802 H 643.432 -0.910113 0.265327 0
M  V30 6803 H 643.138 -3.4939 0.402409 0
M  V30 6804 H 643.012 -3.52307 -1.34758 0
M  V30 6805 H 645.399 -2.54266 -1.49776 0
M  V30 6806 H 645.48 -2.54373 0.2698 0
M  V30 6807 H 645.124 -5.07222 0.262313 0
M  V30 6808 H 645.054 -5.04259 -1.51758 0
M  V30 6809 H 647.545 -3.71429 -0.696362 0
M  V30 6810 H 647.858 -7.68598 -0.804804 0
M  V30 6811 H 646.203 -6.91148 -0.730694 0
M  V30 6812 H 649.394 -4.61562 -0.779624 0
M  V30 6813 H 649.567 -6.42671 -0.829301 0
M  V30 6814 N 642.974 0.416227 -1.52004 0
M  V30 6815 C 644.385 0.995319 -1.57957 0
M  V30 6816 C 644.736 1.91744 -0.415754 0
M  V30 6817 O 643.861 2.11349 0.464808 0
M  V30 6818 C 644.456 1.81191 -2.86278 0
M  V30 6819 C 643.015 2.34115 -2.94732 0
M  V30 6820 C 642.162 1.139 -2.52828 0
M  V30 6821 H 645.113 0.196716 -1.57476 0
M  V30 6822 H 645.134 2.66859 -2.71231 0
M  V30 6823 H 644.646 1.14051 -3.70963 0
M  V30 6824 H 642.747 3.04647 -2.14525 0
M  V30 6825 H 642.86 2.65466 -3.98829 0
M  V30 6826 H 641.224 1.49081 -2.06511 0
M  V30 6827 H 642.007 0.483383 -3.3988 0
M  V30 6828 N 644.452 1.42507 0.673017 0
M  V30 6829 C 645.362 1.4853 1.81593 0
M  V30 6830 C 646.378 0.373907 1.69935 0
M  V30 6831 O 647.554 0.625078 1.91454 0
M  V30 6832 C 644.619 1.387 3.17747 0
M  V30 6833 C 643.68 2.60346 3.41348 0
M  V30 6834 C 642.913 2.50975 4.71007 0
M  V30 6835 O 643.136 1.54659 5.49033 0
M  V30 6836 O 642.07 3.41138 4.95892 0
M  V30 6837 H 645.896 2.45001 1.79467 0
M  V30 6838 H 643.481 1.2429 0.82899 0
M  V30 6839 H 645.363 1.35586 3.98992 0
M  V30 6840 H 644.038 0.453555 3.20507 0
M  V30 6841 H 642.945 2.69034 2.59945 0
M  V30 6842 H 644.278 3.52595 3.43421 0
M  V30 6843 N 645.93 -0.909495 1.28709 0
M  V30 6844 C 646.88 -1.9991 1.09636 0
M  V30 6845 C 647.864 -1.60889 0.01872 0
M  V30 6846 O 649.056 -1.75374 0.239338 0
M  V30 6847 C 646.185 -3.34675 0.764702 0
M  V30 6848 C 645.271 -3.80085 1.8814 0
M  V30 6849 N 645.662 -3.97824 3.12361 0
M  V30 6850 C 643.96 -4.09278 1.77221 0
M  V30 6851 C 644.661 -4.35928 3.85151 0
M  V30 6852 N 643.637 -4.44426 3.13028 0
M  V30 6853 H 647.439 -2.11681 2.03883 0
M  V30 6854 H 644.953 -1.09763 1.1969 0
M  V30 6855 H 646.95 -4.12426 0.609132 0
M  V30 6856 H 645.61 -3.24255 -0.169952 0
M  V30 6857 H 646.621 -3.83626 3.47925 0
M  V30 6858 H 643.298 -4.0747 0.909621 0
M  V30 6859 H 644.688 -4.57581 4.92006 0
M  V30 6860 N 647.408 -1.11026 -1.11852 0
M  V30 6861 C 648.819 -0.873203 -1.65021 0
M  V30 6862 C 649.17 0.595364 -1.86949 0
M  V30 6863 O 648.295 1.45645 -1.60051 0
M  V30 6864 C 648.89 -1.57859 -2.99777 0
M  V30 6865 C 647.449 -1.38807 -3.49871 0
M  V30 6866 C 646.596 -1.62403 -2.24768 0
M  V30 6867 H 649.547 -1.26712 -0.955503 0
M  V30 6868 H 649.568 -1.02111 -3.66543 0
M  V30 6869 H 649.08 -2.6474 -2.83786 0
M  V30 6870 H 647.181 -0.341163 -3.71035 0
M  V30 6871 H 647.294 -2.13421 -4.28938 0
M  V30 6872 H 645.658 -1.04714 -2.32179 0
M  V30 6873 H 646.441 -2.70549 -2.11324 0
M  V30 6874 N 648.886 1.2938 -0.899927 0
M  V30 6875 C 649.849 2.25983 -0.382677 0
M  V30 6876 C 650.849 1.53366 0.483259 0
M  V30 6877 O 652.039 1.71798 0.28828 0
M  V30 6878 C 649.171 3.37878 0.452915 0
M  V30 6879 H 650.364 2.73252 -1.23586 0
M  V30 6880 H 647.917 1.40825 -0.678088 0
M  V30 6881 H 648.652 2.95949 1.32608 0
M  V30 6882 H 648.437 3.91742 -0.167562 0
M  V30 6883 H 649.927 4.09746 0.806107 0
M  V30 6884 N 650.364 0.662433 1.43002 0
M  V30 6885 C 651.274 -0.0239199 2.34588 0
M  V30 6886 C 652.29 -0.802255 1.54402 0
M  V30 6887 O 653.466 -0.747401 1.87018 0
M  V30 6888 C 650.531 -0.972098 3.32793 0
M  V30 6889 C 649.592 -0.189673 4.28881 0
M  V30 6890 C 648.825 -1.09269 5.22395 0
M  V30 6891 O 649.048 -2.33209 5.20547 0
M  V30 6892 O 647.982 -0.560136 5.99288 0
M  V30 6893 H 651.808 0.730171 2.94792 0
M  V30 6894 H 649.393 0.422635 1.43297 0
M  V30 6895 H 651.275 -1.51676 3.93157 0
M  V30 6896 H 649.95 -1.70626 2.75079 0
M  V30 6897 H 648.857 0.398794 3.71968 0
M  V30 6898 H 650.19 0.50511 4.89601 0
M  V30 6899 N 651.842 -1.52309 0.404946 0
M  V30 6900 C 653.07 -2.06185 -0.171818 0
M  V30 6901 C 653.485 -1.27536 -1.39212 0
M  V30 6902 O 652.842 -0.326112 -1.79563 0
M  V30 6903 C 652.893 -3.57647 -0.526417 0
M  V30 6904 O 652.614 -4.3332 0.645417 0
M  V30 6905 C 654.115 -4.27925 -1.15736 0
M  V30 6906 H 651.335 -0.670632 -0.0222328 0
M  V30 6907 H 653.879 -1.96259 0.574692 0
M  V30 6908 H 652.034 -3.67595 -1.22282 0
M  V30 6909 H 652.448 -5.23328 0.35042 0
M  V30 6910 H 653.922 -5.35093 -1.35572 0
M  V30 6911 H 654.399 -3.84134 -2.12926 0
M  V30 6912 H 655.005 -4.22335 -0.501281 0
M  V30 6913 N 653.32 -0.135238 -1.57019 0
M  V30 6914 C 654.23 0.822226 -2.19719 0
M  V30 6915 C 655.246 1.28057 -1.17802 0
M  V30 6916 O 656.422 1.3402 -1.50335 0
M  V30 6917 C 653.487 2.0484 -2.79717 0
M  V30 6918 C 652.548 1.64042 -3.96723 0
M  V30 6919 C 651.781 2.80814 -4.53849 0
M  V30 6920 O 652.004 3.967 -4.0986 0
M  V30 6921 O 650.938 2.56963 -5.44292 0
M  V30 6922 H 654.764 0.318552 -3.02025 0
M  V30 6923 H 652.349 0.0912021 -1.49121 0
M  V30 6924 H 654.231 2.76622 -3.17897 0
M  V30 6925 H 652.906 2.54182 -2.00432 0
M  V30 6926 H 651.813 0.893182 -3.63281 0
M  V30 6927 H 653.146 1.19426 -4.77492 0
M  V30 6928 N 654.798 1.5699 0.138552 0
M  V30 6929 C 656.028 1.87704 0.863184 0
M  V30 6930 C 656.436 0.722411 1.74865 0
M  V30 6931 O 655.779 -0.316636 1.80951 0
M  V30 6932 C 655.841 3.13219 1.76449 0
M  V30 6933 C 655.505 4.44648 1.05532 0
M  V30 6934 C 656.502 5.18318 0.405252 0
M  V30 6935 C 654.187 4.91367 1.04231 0
M  V30 6936 C 656.181 6.36916 -0.24835 0
M  V30 6937 C 653.868 6.09887 0.384904 0
M  V30 6938 C 654.866 6.82508 -0.259292 0
M  V30 6939 O 654.554 7.98775 -0.906258 0
M  V30 6940 H 654.286 0.626255 0.254521 0
M  V30 6941 H 656.84 2.04966 0.133472 0
M  V30 6942 H 655.07 2.91988 2.53535 0
M  V30 6943 H 656.759 3.30111 2.36181 0
M  V30 6944 H 657.525 4.83289 0.407053 0
M  V30 6945 H 653.404 4.34759 1.53315 0
M  V30 6946 H 656.948 6.93538 -0.751755 0
M  V30 6947 H 652.845 6.44376 0.380799 0
M  V30 6948 H 653.613 8.14494 -0.80877 0
M  V30 6949 N 656.276 -0.40816 1.52223 0
M  V30 6950 C 657.553 -1.16807 1.56893 0
M  V30 6951 C 657.933 -2.08169 0.350537 0
M  V30 6952 O 657.281 -2.18684 -0.662536 0
M  V30 6953 C 657.491 -1.94451 2.8981 0
M  V30 6954 C 658.839 -2.50484 3.42845 0
M  V30 6955 O 659.863 -2.0463 2.91556 0
M  V30 6956 O 658.722 -3.34192 4.3241 0
M  V30 6957 H 655.816 -0.533382 0.632007 0
M  V30 6958 H 658.362 -0.414862 1.64551 0
M  V30 6959 H 657.134 -1.27527 3.69936 0
M  V30 6960 H 656.757 -2.76775 2.85449 0
M  V30 6961 N 657.755 -1.42862 -0.66545 0
M  V30 6962 C 658.98 -1.47456 -1.45848 0
M  V30 6963 C 659.405 -0.0900312 -1.87884 0
M  V30 6964 O 658.763 0.913587 -1.56599 0
M  V30 6965 C 658.811 -2.41514 -2.67774 0
M  V30 6966 O 657.915 -1.89296 -3.66389 0
M  V30 6967 H 657.256 -0.499236 -0.437789 0
M  V30 6968 H 659.786 -1.8765 -0.815394 0
M  V30 6969 H 659.796 -2.58409 -3.15735 0
M  V30 6970 H 658.471 -3.42099 -2.36519 0
M  V30 6971 H 657.048 -1.82003 -3.25468 0
M  V30 6972 N 659.233 0.902656 -1.29189 0
M  V30 6973 C 660.163 2.02294 -1.16616 0
M  V30 6974 C 661.144 1.6999 -0.0611175 0
M  V30 6975 O 662.329 1.9271 -0.240072 0
M  V30 6976 C 659.459 3.37018 -0.83882 0
M  V30 6977 C 658.413 3.83522 -1.89986 0
M  V30 6978 C 657.739 5.15337 -1.42589 0
M  V30 6979 C 659.039 4.04169 -3.30824 0
M  V30 6980 H 660.733 2.13071 -2.10336 0
M  V30 6981 H 658.279 1.02378 -1.01266 0
M  V30 6982 H 660.232 4.14895 -0.737584 0
M  V30 6983 H 658.956 3.26325 0.134071 0
M  V30 6984 H 657.615 3.07859 -1.99043 0
M  V30 6985 H 657.263 5.01056 -0.441759 0
M  V30 6986 H 656.963 5.47423 -2.13547 0
M  V30 6987 H 658.487 5.95758 -1.3381 0
M  V30 6988 H 659.901 4.72537 -3.24626 0
M  V30 6989 H 658.298 4.47604 -3.99713 0
M  V30 6990 H 659.368 3.08604 -3.74021 0
M  V30 6991 N 660.711 1.11618 1.11262 0
M  V30 6992 C 661.941 0.88745 1.86569 0
M  V30 6993 C 662.349 -0.56636 1.80524 0
M  V30 6994 O 661.692 -1.40289 1.18594 0
M  V30 6995 C 661.754 1.27313 3.36202 0
M  V30 6996 C 661.418 2.73649 3.66013 0
M  V30 6997 C 662.415 3.71863 3.63337 0
M  V30 6998 C 660.1 3.10342 3.9496 0
M  V30 6999 C 662.094 5.04788 3.89188 0
M  V30 7000 C 659.781 4.43451 4.20469 0
M  V30 7001 C 660.779 5.40484 4.17572 0
M  V30 7002 O 660.467 6.71195 4.42439 0
M  V30 7003 H 660.199 0.317543 0.596777 0
M  V30 7004 H 662.753 1.48768 1.41624 0
M  V30 7005 H 660.983 0.616062 3.81761 0
M  V30 7006 H 662.672 1.01991 3.92877 0
M  V30 7007 H 663.438 3.44861 3.41022 0
M  V30 7008 H 659.317 2.35431 3.9635 0
M  V30 7009 H 662.861 5.80516 3.86842 0
M  V30 7010 H 658.758 4.70187 4.42261 0
M  V30 7011 H 659.526 6.77012 4.59997 0
M  V30 7012 N 662.189 -1.289 0.906776 0
M  V30 7013 C 663.6 -1.77336 0.58384 0
M  V30 7014 C 663.951 -1.74304 -0.900697 0
M  V30 7015 O 663.076 -1.33335 -1.70443 0
M  V30 7016 C 663.671 -3.22019 1.05304 0
M  V30 7017 C 662.23 -3.68205 0.781148 0
M  V30 7018 C 661.377 -2.48837 1.22373 0
M  V30 7019 H 664.328 -1.15462 1.08877 0
M  V30 7020 H 664.349 -3.78481 0.391414 0
M  V30 7021 H 663.861 -3.24194 2.13353 0
M  V30 7022 H 661.962 -3.71497 -0.28643 0
M  V30 7023 H 662.075 -4.58675 1.384 0
M  V30 7024 H 660.439 -2.46461 0.642594 0
M  V30 7025 H 661.222 -2.53736 2.31242 0
M  V30 7026 N 663.667 -0.670007 -1.42649 0
M  V30 7027 C 664.577 0.0114788 -2.34597 0
M  V30 7028 C 665.593 0.794055 -1.54825 0
M  V30 7029 O 666.769 0.737472 -1.87412 0
M  V30 7030 C 663.834 0.954436 -3.33304 0
M  V30 7031 C 662.895 0.166925 -4.28975 0
M  V30 7032 C 662.128 1.06497 -5.22967 0
M  V30 7033 O 662.351 2.30446 -5.21777 0
M  V30 7034 O 661.285 0.528347 -5.99577 0
M  V30 7035 H 665.111 -0.745794 -2.944 0
M  V30 7036 H 662.696 -0.430228 -1.43071 0
M  V30 7037 H 664.578 1.49589 -3.93956 0
M  V30 7038 H 663.253 1.69164 -2.7598 0
M  V30 7039 H 662.16 -0.418515 -3.71752 0
M  V30 7040 H 663.493 -0.531067 -4.89327 0
M  V30 7041 N 665.145 1.52092 -0.413018 0
M  V30 7042 C 666.422 1.94356 0.22024 0
M  V30 7043 C 666.802 1.35017 1.62277 0
M  V30 7044 O 666.15 0.527511 2.22328 0
M  V30 7045 C 666.36 3.48289 0.222638 0
M  V30 7046 C 667.708 4.22313 0.440098 0
M  V30 7047 O 668.732 3.54919 0.301826 0
M  V30 7048 O 667.591 5.41829 0.712984 0
M  V30 7049 H 664.685 0.814536 0.14304 0
M  V30 7050 H 667.231 1.63083 -0.469242 0
M  V30 7051 H 666.003 3.83872 -0.758836 0
M  V30 7052 H 665.626 3.85934 0.956057 0
M  V30 7053 N 666.623 0.143563 1.56945 0
M  V30 7054 C 667.9 -0.553285 1.87612 0
M  V30 7055 C 668.28 -1.83195 1.04894 0
M  V30 7056 O 667.628 -2.28102 0.134773 0
M  V30 7057 C 667.838 -0.822055 3.3918 0
M  V30 7058 C 669.186 -1.16435 4.08324 0
M  V30 7059 O 670.21 -0.911522 3.4434 0
M  V30 7060 O 669.069 -1.63996 5.21313 0
M  V30 7061 H 666.163 -0.281851 0.777489 0
M  V30 7062 H 668.709 0.179916 1.68744 0
M  V30 7063 H 667.481 0.0830265 3.91212 0
M  V30 7064 H 667.104 -1.60956 3.63564 0
M  V30 7065 N 668.101 -1.57061 -0.130224 0
M  V30 7066 C 669.031 -2.02552 -1.16168 0
M  V30 7067 C 670.012 -0.907971 -1.4384 0
M  V30 7068 O 671.197 -1.17693 -1.54473 0
M  V30 7069 C 668.327 -2.42035 -2.49071 0
M  V30 7070 C 667.281 -3.5713 -2.35886 0
M  V30 7071 C 666.607 -3.82478 -3.7365 0
M  V30 7072 C 667.907 -4.89236 -1.8288 0
M  V30 7073 H 669.601 -2.8897 -0.783359 0
M  V30 7074 H 667.147 -1.39021 -0.375376 0
M  V30 7075 H 669.1 -2.72462 -3.21469 0
M  V30 7076 H 667.824 -1.52573 -2.88771 0
M  V30 7077 H 666.483 -3.26895 -1.65938 0
M  V30 7078 H 666.131 -2.9024 -4.10816 0
M  V30 7079 H 665.831 -4.59944 -3.65685 0
M  V30 7080 H 667.355 -4.15347 -4.47571 0
M  V30 7081 H 668.769 -5.18272 -2.45085 0
M  V30 7082 H 667.166 -5.70624 -1.85763 0
M  V30 7083 H 668.236 -4.78494 -0.785571 0
M  V30 7084 O 669.618 0.274706 -1.59147 0
M  V30 7085 H 670.309 0.920013 -1.70457 0
M  V30 END ATOM
M  V30 BEGIN BOND
M  V30 END BOND
M  V30 END CTAB
M  END
$$$$
