drugbank_target|P0A0N5 HTH-type transcriptional regulator QacR (DB03808; DB03825; DB03895; DB04115)
 OpenBabel12092119513D

  0  0  0     0  0            999 V3000
M  V30 BEGIN CTAB
M  V30 COUNTS 3127 3158 0 0 0
M  V30 BEGIN ATOM
M  V30 1 H -0.908 1.98254 -0.117106 0
M  V30 2 N 0 1.576 0 0
M  V30 3 C 0.933 2.03868 1.02534 0
M  V30 4 C 1.911 0.928543 1.3348 0
M  V30 5 O 3.095 1.19667 1.45644 0
M  V30 6 C 0.222 2.43627 2.35294 0
M  V30 7 C -0.732 3.65373 2.2001 0
M  V30 8 S 0.101 5.13292 1.52614 0
M  V30 9 C 1.257 5.56322 2.86805 0
M  V30 10 H 1.49 2.90518 0.631377 0
M  V30 11 H -0.977 1.52953 0.210867 0
M  V30 12 H 0.981 2.67203 3.11629 0
M  V30 13 H -0.358 1.57376 2.7183 0
M  V30 14 H -1.165 3.90944 3.18086 0
M  V30 15 H -1.563 3.418 1.51819 0
M  V30 16 H 0.729 5.58782 3.83104 0
M  V30 17 H 1.672 6.56266 2.65933 0
M  V30 18 H 2.08 4.83886 2.90714 0
M  V30 19 N 1.4781 -0.272755 1.55222 0
M  V30 20 C 2.4261 -1.35705 1.88909 0
M  V30 21 C 3.4201 -1.5112 0.765456 0
M  V30 22 O 4.6261 -1.52901 0.949802 0
M  V30 23 H 1.0011 -0.453868 0.59959 0
M  V30 24 H 2.9721 -1.04544 2.79487 0
M  V30 25 C 1.7211 -2.71049 2.17779 0
M  V30 26 H 1.0441 -2.59979 3.03728 0
M  V30 27 H 2.4841 -3.45858 2.45272 0
M  V30 28 C 0.9431 -3.22165 0.985473 0
M  V30 29 O 1.4731 -4.01096 0.220233 0
M  V30 30 N -0.3209 -2.7985 0.783108 0
M  V30 31 H -0.7739 -2.15775 1.40708 0
M  V30 32 H -0.8159 -3.14397 -0.0130392 0
M  V30 33 N 2.9562 -1.48159 -0.537278 0
M  V30 34 C 3.8862 -1.65029 -1.6519 0
M  V30 35 C 4.8672 -0.499281 -1.62607 0
M  V30 36 O 6.0522 -0.730972 -1.79918 0
M  V30 37 C 3.1822 -1.68303 -3.03795 0
M  V30 38 C 2.1362 -2.8283 -3.21234 0
M  V30 39 C 1.4622 -2.71189 -4.60826 0
M  V30 40 C 2.7622 -4.24211 -3.04701 0
M  V30 41 H 4.4562 -2.58341 -1.51328 0
M  V30 42 H 2.0022 -1.24325 -0.726585 0
M  V30 43 H 3.9552 -1.78693 -3.81637 0
M  V30 44 H 2.6792 -0.715635 -3.18663 0
M  V30 45 H 1.3382 -2.71983 -2.45807 0
M  V30 46 H 0.9862 -1.72435 -4.7252 0
M  V30 47 H 0.6862 -3.48035 -4.7344 0
M  V30 48 H 2.2102 -2.83537 -5.40777 0
M  V30 49 H 3.6242 -4.3593 -3.72341 0
M  V30 50 H 2.0212 -5.01998 -3.28813 0
M  V30 51 H 3.0912 -4.41184 -2.01209 0
M  V30 52 N 4.4343 0.785586 -1.36625 0
M  V30 53 C 5.3813 1.89838 -1.31264 0
M  V30 54 C 6.3513 1.65115 -0.180633 0
M  V30 55 O 7.5363 1.87222 -0.36777 0
M  V30 56 C 4.6763 3.26706 -1.11163 0
M  V30 57 C 3.7893 3.63476 -2.33472 0
M  V30 58 C 2.9243 4.89481 -2.06353 0
M  V30 59 C 1.9633 5.18941 -3.24602 0
M  V30 60 N 1.1003 6.36131 -2.97123 0
M  V30 61 H 5.9403 1.93756 -2.26413 0
M  V30 62 H 3.4773 0.947454 -1.12524 0
M  V30 63 H 5.4353 4.05639 -0.975337 0
M  V30 64 H 4.0653 3.222 -0.196674 0
M  V30 65 H 3.1173 2.79636 -2.57891 0
M  V30 66 H 4.4293 3.81193 -3.21704 0
M  V30 67 H 3.5833 5.76288 -1.89675 0
M  V30 68 H 2.3223 4.73841 -1.15437 0
M  V30 69 H 1.3273 4.30615 -3.41834 0
M  V30 70 H 2.5523 5.36498 -4.16349 0
M  V30 71 H 0.4983 6.21875 -2.08823 0
M  V30 72 H 0.4153 6.54198 -3.78894 0
M  V30 73 H 1.6833 7.2591 -2.84033 0
M  V30 74 N 5.9124 1.20967 1.01018 0
M  V30 75 C 7.1894 0.93264 1.71934 0
M  V30 76 C 7.5694 -0.55692 2.03621 0
M  V30 77 O 6.9174 -1.52035 1.7058 0
M  V30 78 C 7.1274 1.81233 2.98254 0
M  V30 79 C 8.4754 2.05804 3.71389 0
M  V30 80 O 9.4994 1.78539 3.08225 0
M  V30 81 O 8.3584 2.51888 4.84989 0
M  V30 82 H 5.4524 0.349272 0.749625 0
M  V30 83 H 7.9984 1.31871 1.06808 0
M  V30 84 H 6.7704 2.82067 2.71208 0
M  V30 85 H 6.3934 1.42674 3.7112 0
M  V30 86 N 7.3905 -1.2043 1.01659 0
M  V30 87 C 8.3375 -2.23215 0.586822 0
M  V30 88 C 9.3075 -1.61382 -0.393085 0
M  V30 89 O 10.4925 -1.88544 -0.292525 0
M  V30 90 C 7.6325 -3.45032 -0.0687464 0
M  V30 91 C 6.7455 -4.21296 0.955724 0
M  V30 92 C 5.8805 -5.30507 0.271208 0
M  V30 93 C 4.9195 -5.98515 1.28244 0
M  V30 94 N 4.0565 -6.99316 0.62459 0
M  V30 95 H 8.8965 -2.59336 1.46796 0
M  V30 96 H 6.4335 -1.27431 0.734836 0
M  V30 97 H 8.3915 -4.1459 -0.465965 0
M  V30 98 H 7.0215 -3.09604 -0.913529 0
M  V30 99 H 6.0735 -3.50803 1.4711 0
M  V30 100 H 7.3855 -4.6803 1.72479 0
M  V30 101 H 6.5395 -6.06428 -0.18151 0
M  V30 102 H 5.2785 -4.8481 -0.530163 0
M  V30 103 H 4.2835 -5.21355 1.74554 0
M  V30 104 H 5.5085 -6.46298 2.08509 0
M  V30 105 H 3.4545 -6.55812 -0.156914 0
M  V30 106 H 3.3715 -7.44178 1.33172 0
M  V30 107 H 4.6395 -7.79255 0.195462 0
M  V30 108 N 8.8686 -0.792821 -1.36206 0
M  V30 109 C 10.1176 -0.363353 -1.984 0
M  V30 110 C 10.4306 1.07172 -1.63626 0
M  V30 111 O 11.6366 1.60362 -2.19081 0
M  V30 112 C 10.0926 -0.59872 -3.54885 0
M  V30 113 C 9.7006 -2.04543 -3.9858 0
M  V30 114 C 11.4446 -0.233926 -4.23855 0
M  V30 115 C 9.3516 -2.22727 -5.47856 0
M  V30 116 H 8.2816 -0.13212 -0.742334 0
M  V30 117 H 10.9326 -0.974935 -1.55458 0
M  V30 118 H 9.3146 0.0826222 -3.95914 0
M  V30 119 H 10.4886 -2.76345 -3.68741 0
M  V30 120 H 8.8036 -2.36879 -3.42458 0
M  V30 121 H 11.4006 -0.348027 -5.33566 0
M  V30 122 H 11.7436 0.818351 -4.08177 0
M  V30 123 H 12.2766 -0.868639 -3.882 0
M  V30 124 H 9.0156 -3.2635 -5.68486 0
M  V30 125 H 8.5356 -1.55434 -5.7931 0
M  V30 126 H 10.2146 -2.03607 -6.14128 0
M  V30 127 N 10.3467 1.47872 -0.545128 0
M  V30 128 C 11.2767 2.32661 0.197793 0
M  V30 129 C 12.2577 1.43041 0.920504 0
M  V30 130 O 13.4427 1.71912 0.90333 0
M  V30 131 C 10.5727 3.24569 1.23582 0
M  V30 132 C 9.5267 4.23333 0.630323 0
M  V30 133 C 8.8527 5.0448 1.77211 0
M  V30 134 C 10.1527 5.20704 -0.407974 0
M  V30 135 H 11.8467 2.95024 -0.510045 0
M  V30 136 H 9.3927 1.4187 -0.246731 0
M  V30 137 H 11.3457 3.8272 1.76362 0
M  V30 138 H 10.0697 2.60236 1.97344 0
M  V30 139 H 8.7287 3.6639 0.123922 0
M  V30 140 H 8.3767 4.36561 2.49847 0
M  V30 141 H 8.0767 5.71339 1.37281 0
M  V30 142 H 9.6007 5.65487 2.3034 0
M  V30 143 H 11.0147 5.7329 0.033305 0
M  V30 144 H 9.4117 5.95699 -0.725486 0
M  V30 145 H 10.4817 4.66917 -1.30828 0
M  V30 146 N 11.8248 0.280983 1.55075 0
M  V30 147 C 13.0728 -0.333455 1.9933 0
M  V30 148 C 13.3938 -1.55937 1.17085 0
M  V30 149 O 12.6638 -1.94143 0.261805 0
M  V30 150 H 11.2438 -0.126197 0.736263 0
M  V30 151 H 13.9058 0.387678 1.91005 0
M  V30 152 H 13.0018 -0.619292 3.05894 0
M  V30 153 N 13.3029 -1.57598 0.00835791 0
M  V30 154 C 14.5489 -1.91211 -0.675732 0
M  V30 155 C 14.8819 -0.883139 -1.72958 0
M  V30 156 O 14.1569 0.097016 -1.94258 0
M  V30 157 C 14.4399 -3.35379 -1.31123 0
M  V30 158 C 14.2929 -4.48999 -0.268356 0
M  V30 159 C 15.6119 -3.7912 -2.23508 0
M  V30 160 H 12.7309 -0.695374 -0.244179 0
M  V30 161 H 15.3729 -1.89901 0.0613655 0
M  V30 162 H 13.5229 -3.36626 -1.93946 0
M  V30 163 H 15.1949 -4.59887 0.360844 0
M  V30 164 H 13.4379 -4.31873 0.408482 0
M  V30 165 H 14.1089 -5.46851 -0.752218 0
M  V30 166 H 16.5849 -3.79477 -1.70693 0
M  V30 167 H 15.4609 -4.80729 -2.64936 0
M  V30 168 H 15.7219 -3.13455 -3.11766 0
M  V30 169 N 14.781 0.264519 -1.55364 0
M  V30 170 C 15.744 1.31046 -1.88042 0
M  V30 171 C 16.744 1.41943 -0.755569 0
M  V30 172 O 17.934 1.40947 -1.02369 0
M  V30 173 C 15.066 2.69067 -2.09323 0
M  V30 174 H 16.259 1.03297 -2.81549 0
M  V30 175 H 13.812 0.502989 -1.47986 0
M  V30 176 H 14.547 3.01982 -1.18226 0
M  V30 177 H 14.332 2.62542 -2.91229 0
M  V30 178 H 15.822 3.44623 -2.35848 0
M  V30 179 N 16.2591 1.48442 0.529413 0
M  V30 180 C 17.2061 1.63007 1.63394 0
M  V30 181 C 18.1761 0.47212 1.59249 0
M  V30 182 O 19.3611 0.695673 1.77666 0
M  V30 183 C 16.5011 1.6763 3.01653 0
M  V30 184 C 15.6141 2.94535 3.16027 0
M  V30 185 C 14.7491 2.90316 4.44849 0
M  V30 186 C 13.7881 4.11923 4.52754 0
M  V30 187 N 12.9251 4.05777 5.72965 0
M  V30 188 H 17.7651 2.5733 1.50285 0
M  V30 189 H 15.3021 1.27613 0.731656 0
M  V30 190 H 17.2601 1.68292 3.81751 0
M  V30 191 H 15.8901 0.76797 3.13532 0
M  V30 192 H 14.9421 3.03615 2.29177 0
M  V30 193 H 16.2541 3.84512 3.17729 0
M  V30 194 H 15.4081 2.89382 5.33238 0
M  V30 195 H 14.1471 1.98068 4.45668 0
M  V30 196 H 13.1521 4.13131 3.62771 0
M  V30 197 H 14.3771 5.0533 4.53672 0
M  V30 198 H 12.3231 3.16351 5.74681 0
M  V30 199 H 12.2401 4.8946 5.76164 0
M  V30 200 H 13.5081 4.08904 6.6364 0
M  V30 201 N 17.7372 -0.778329 1.37039 0
M  V30 202 C 18.6472 -1.92253 1.34446 0
M  V30 203 C 19.6632 -1.72267 0.244991 0
M  V30 204 O 20.8392 -1.95615 0.479258 0
M  V30 205 C 17.9042 -3.27282 1.144 0
M  V30 206 C 16.9652 -3.59969 2.33925 0
M  V30 207 C 16.1982 -4.88555 2.14825 0
M  V30 208 O 16.4212 -5.59113 1.12912 0
M  V30 209 O 15.3552 -5.20153 3.02861 0
M  V30 210 H 19.1812 -1.97392 2.30803 0
M  V30 211 H 16.7662 -0.920154 1.17701 0
M  V30 212 H 18.6482 -4.08062 1.05182 0
M  V30 213 H 17.3232 -3.23011 0.211124 0
M  V30 214 H 16.2302 -2.7945 2.48714 0
M  V30 215 H 17.5632 -3.68976 3.25757 0
M  V30 216 N 19.2153 -1.21501 -1.00376 0
M  V30 217 C 20.1453 -0.999478 -2.11028 0
M  V30 218 C 21.1263 0.0759671 -1.6993 0
M  V30 219 O 22.3113 -0.0841106 -1.94018 0
M  V30 220 C 19.4413 -0.564709 -3.42678 0
M  V30 221 C 18.3953 -1.58486 -3.97576 0
M  V30 222 C 17.7213 -1.00628 -5.25146 0
M  V30 223 C 19.0213 -2.97204 -4.29496 0
M  V30 224 H 20.7153 -1.92495 -2.29317 0
M  V30 225 H 18.2613 -0.92693 -1.102 0
M  V30 226 H 20.2143 -0.401091 -4.19487 0
M  V30 227 H 18.9383 0.396411 -3.24185 0
M  V30 228 H 17.5973 -1.73606 -3.22888 0
M  V30 229 H 17.2453 -0.0368439 -5.02987 0
M  V30 230 H 16.9453 -1.68771 -5.62841 0
M  V30 231 H 18.4693 -0.854015 -6.04598 0
M  V30 232 H 19.8833 -2.8552 -4.97143 0
M  V30 233 H 18.2803 -3.62372 -4.78338 0
M  V30 234 H 19.3503 -3.47956 -3.3772 0
M  V30 235 N 20.6934 1.19889 -1.02296 0
M  V30 236 C 21.9404 1.8942 -0.715972 0
M  V30 237 C 22.2684 1.79251 0.754944 0
M  V30 238 O 21.5234 1.17526 1.56481 0
M  V30 239 C 21.8224 3.39883 -1.10518 0
M  V30 240 C 21.4884 3.70254 -2.57337 0
M  V30 241 C 20.1504 3.78254 -2.97452 0
M  V30 242 C 22.5024 3.84052 -3.52354 0
M  V30 243 C 19.8304 3.97514 -4.31509 0
M  V30 244 C 22.1824 4.04824 -4.86108 0
M  V30 245 C 20.8464 4.11054 -5.25919 0
M  V30 246 H 20.1164 0.693138 -0.261993 0
M  V30 247 H 22.7634 1.42012 -1.28472 0
M  V30 248 H 21.0684 3.8915 -0.454953 0
M  V30 249 H 22.7654 3.9199 -0.845261 0
M  V30 250 H 19.3554 3.64632 -2.25258 0
M  V30 251 H 23.5394 3.77221 -3.22518 0
M  V30 252 H 18.7954 4.00574 -4.61898 0
M  V30 253 H 22.9694 4.14442 -5.59653 0
M  V30 254 H 20.5964 4.2573 -6.29808 0
M  V30 255 N 22.1715 0.800033 1.35784 0
M  V30 256 C 23.4205 0.37387 1.98205 0
M  V30 257 C 23.7335 -1.06302 1.64193 0
M  V30 258 O 24.9395 -1.59198 2.19928 0
M  V30 259 C 23.3955 0.617532 3.54562 0
M  V30 260 C 23.0035 2.06654 3.9749 0
M  V30 261 C 24.7475 0.256401 4.23725 0
M  V30 262 C 22.6545 2.2563 5.46667 0
M  V30 263 H 21.5845 0.136055 0.741623 0
M  V30 264 H 24.2355 0.983166 1.54939 0
M  V30 265 H 22.6175 -0.0616248 3.95952 0
M  V30 266 H 23.7915 2.78296 3.67271 0
M  V30 267 H 22.1065 2.38691 3.41197 0
M  V30 268 H 24.7035 0.376318 5.33374 0
M  V30 269 H 25.0465 -0.796692 4.08606 0
M  V30 270 H 25.5795 0.889214 3.87734 0
M  V30 271 H 22.3185 3.2936 5.66747 0
M  V30 272 H 21.8385 1.58504 5.78478 0
M  V30 273 H 23.5175 2.06861 6.1304 0
M  V30 274 N 23.6496 -1.47581 0.552962 0
M  V30 275 C 24.5966 -2.29957 -0.197108 0
M  V30 276 C 25.5666 -1.38799 -0.912359 0
M  V30 277 O 26.7516 -1.67761 -0.908888 0
M  V30 278 C 23.8916 -3.22672 -1.22379 0
M  V30 279 C 23.0046 -4.28919 -0.515038 0
M  V30 280 C 22.1396 -5.0879 -1.52664 0
M  V30 281 C 21.1786 -6.06815 -0.802631 0
M  V30 282 N 20.3156 -6.7966 -1.76086 0
M  V30 283 H 25.1556 -2.93578 0.511486 0
M  V30 284 H 22.6926 -1.4471 0.264067 0
M  V30 285 H 24.6506 -3.74845 -1.83159 0
M  V30 286 H 23.2806 -2.60925 -1.90047 0
M  V30 287 H 22.3326 -3.79835 0.207192 0
M  V30 288 H 23.6446 -4.98773 0.0523425 0
M  V30 289 H 22.7986 -5.65091 -2.20809 0
M  V30 290 H 21.5376 -4.38828 -2.12794 0
M  V30 291 H 20.5426 -5.49695 -0.107238 0
M  V30 292 H 21.7676 -6.78784 -0.207135 0
M  V30 293 H 19.7136 -6.12432 -2.35081 0
M  V30 294 H 19.6306 -7.45669 -1.24552 0
M  V30 295 H 20.8986 -7.40538 -2.43359 0
M  V30 296 N 25.1277 -0.289203 -1.54924 0
M  V30 297 C 26.0757 0.607966 -2.24514 0
M  V30 298 C 27.0697 1.14655 -1.24702 0
M  V30 299 O 28.2757 1.09856 -1.4259 0
M  V30 300 H 24.6507 0.21464 -0.720718 0
M  V30 301 H 26.6217 -0.00164182 -2.984 0
M  V30 302 C 25.3707 1.77406 -2.99036 0
M  V30 303 H 24.6937 1.36884 -3.75637 0
M  V30 304 H 26.1337 2.37814 -3.51028 0
M  V30 305 C 24.5927 2.67107 -2.05318 0
M  V30 306 O 25.1227 3.6787 -1.61353 0
M  V30 307 N 23.3287 2.34582 -1.71521 0
M  V30 308 H 22.8757 1.52688 -2.07471 0
M  V30 309 H 22.8337 2.94867 -1.0909 0
M  V30 310 N 26.6058 1.57591 -0.0167156 0
M  V30 311 C 27.8538 1.90906 0.663285 0
M  V30 312 C 28.1748 0.892509 1.73376 0
M  V30 313 O 27.4448 -0.0677623 1.95783 0
M  V30 314 H 26.0248 0.704637 0.247983 0
M  V30 315 H 28.6868 1.94803 -0.0615909 0
M  V30 316 H 27.7828 2.9116 1.12393 0
M  V30 317 N 28.0839 -0.256276 1.55502 0
M  V30 318 C 29.3139 -1.00196 1.80677 0
M  V30 319 C 29.7219 -1.79805 0.588797 0
M  V30 320 O 29.0649 -1.78055 -0.451883 0
M  V30 321 C 29.1269 -1.99515 2.99055 0
M  V30 322 C 28.7909 -1.38688 4.35448 0
M  V30 323 C 29.7879 -0.794079 5.138 0
M  V30 324 C 27.4729 -1.40906 4.82132 0
M  V30 325 C 29.4669 -0.231562 6.36979 0
M  V30 326 C 27.1539 -0.842684 6.05262 0
M  V30 327 C 28.1519 -0.254953 6.82524 0
M  V30 328 O 27.8399 0.3027 8.0333 0
M  V30 329 H 27.5719 -0.300919 0.60533 0
M  V30 330 H 30.1259 -0.287307 2.03381 0
M  V30 331 H 28.3559 -2.74785 2.72084 0
M  V30 332 H 30.0449 -2.60349 3.11405 0
M  V30 333 H 30.8109 -0.769519 4.78856 0
M  V30 334 H 26.6899 -1.85591 4.21992 0
M  V30 335 H 30.2339 0.227816 6.97228 0
M  V30 336 H 26.1309 -0.86454 6.39684 0
M  V30 337 H 26.8989 0.193662 8.18271 0
M  V30 338 N 29.562 -1.4872 -0.521534 0
M  V30 339 C 30.51 -1.64328 -1.64618 0
M  V30 340 C 31.504 -0.50953 -1.61555 0
M  V30 341 O 32.71 -0.688525 -1.66311 0
M  V30 342 H 29.085 -0.517805 -0.545328 0
M  V30 343 H 31.056 -2.58767 -1.48601 0
M  V30 344 C 29.805 -1.70805 -3.02855 0
M  V30 345 H 29.128 -2.5741 -3.05909 0
M  V30 346 H 30.568 -1.85766 -3.81139 0
M  V30 347 C 29.027 -0.448479 -3.33902 0
M  V30 348 O 29.557 0.434928 -3.99339 0
M  V30 349 N 27.763 -0.317616 -2.88859 0
M  V30 350 H 27.31 -1.03748 -2.35784 0
M  V30 351 H 27.268 0.524113 -3.10001 0
M  V30 352 N 31.0401 0.771051 -1.3745 0
M  V30 353 C 32.0031 1.86598 -1.33093 0
M  V30 354 C 33.0031 1.59076 -0.234845 0
M  V30 355 O 34.1931 1.67145 -0.490732 0
M  V30 356 C 31.3251 3.23747 -1.06773 0
M  V30 357 H 32.5181 1.91873 -2.30488 0
M  V30 358 H 30.0711 0.970876 -1.2249 0
M  V30 359 H 30.8061 3.24148 -0.099129 0
M  V30 360 H 30.5911 3.45115 -1.86112 0
M  V30 361 H 32.0811 4.03824 -1.06377 0
M  V30 362 N 32.5182 1.22032 0.997298 0
M  V30 363 C 33.7462 1.06841 1.7718 0
M  V30 364 C 34.1612 -0.381325 1.84909 0
M  V30 365 O 33.5182 -1.26437 1.31605 0
M  V30 366 C 33.5692 1.66814 3.20711 0
M  V30 367 O 33.2902 3.06116 3.13408 0
M  V30 368 C 34.7912 1.56838 4.14628 0
M  V30 369 H 32.0112 0.374782 0.556578 0
M  V30 370 H 34.5552 1.61532 1.2541 0
M  V30 371 H 32.7102 1.16196 3.69564 0
M  V30 372 H 33.1242 3.34926 4.0364 0
M  V30 373 H 34.5982 2.03532 5.13107 0
M  V30 374 H 35.0752 0.524155 4.36061 0
M  V30 375 H 35.6812 2.06741 3.7167 0
M  V30 376 N 33.9963 -1.19345 1.0293 0
M  V30 377 C 35.2243 -1.92997 0.745644 0
M  V30 378 C 35.6393 -1.75519 -0.695589 0
M  V30 379 O 34.9963 -1.07737 -1.47306 0
M  V30 380 C 35.0473 -3.44741 1.08792 0
M  V30 381 O 34.7683 -3.61658 2.47256 0
M  V30 382 C 36.2693 -4.35515 0.827129 0
M  V30 383 H 33.4893 -0.613042 0.272801 0
M  V30 384 H 36.0333 -1.51473 1.3739 0
M  V30 385 H 34.1883 -3.84097 0.504832 0
M  V30 386 H 34.6023 -4.55514 2.60015 0
M  V30 387 H 36.0763 -5.40589 1.11658 0
M  V30 388 H 36.5533 -4.38552 -0.238436 0
M  V30 389 H 37.1593 -4.01841 1.39297 0
M  V30 390 N 35.4744 -0.807222 -1.35358 0
M  V30 391 C 36.7024 -0.400377 -2.02989 0
M  V30 392 C 37.1174 0.988859 -1.60832 0
M  V30 393 O 36.4744 1.63729 -0.806175 0
M  V30 394 C 36.5254 -0.474867 -3.58368 0
M  V30 395 O 36.2464 -1.80933 -3.98992 0
M  V30 396 C 37.7474 -0.0609112 -4.43258 0
M  V30 397 H 34.9674 -0.162587 -0.651004 0
M  V30 398 H 37.5114 -1.09102 -1.72965 0
M  V30 399 H 35.6664 0.167534 -3.87038 0
M  V30 400 H 36.0804 -1.77256 -4.9364 0
M  V30 401 H 37.5544 -0.164145 -5.51756 0
M  V30 402 H 38.0314 0.993831 -4.27808 0
M  V30 403 H 38.6374 -0.676492 -4.19885 0
M  V30 404 N 36.9525 1.47285 -0.560781 0
M  V30 405 C 38.2005 2.02064 -0.0379868 0
M  V30 406 C 38.5215 1.43711 1.31803 0
M  V30 407 O 37.7915 0.61362 1.86042 0
M  V30 408 H 36.3715 0.746918 -0.0110531 0
M  V30 409 H 39.0335 1.80648 -0.731598 0
M  V30 410 H 38.1295 3.12064 0.0474463 0
M  V30 411 N 38.4306 0.297415 1.54768 0
M  V30 412 C 39.3406 -0.58983 2.27064 0
M  V30 413 C 40.3566 -1.15144 1.30453 0
M  V30 414 O 41.5326 -1.17699 1.63428 0
M  V30 415 C 38.5976 -1.74714 2.9946 0
M  V30 416 C 37.6586 -1.21997 4.11601 0
M  V30 417 C 36.8916 -2.32212 4.80535 0
M  V30 418 O 37.1146 -3.52036 4.48806 0
M  V30 419 O 36.0486 -1.99106 5.68014 0
M  V30 420 H 39.8746 -0.00348199 3.037 0
M  V30 421 H 37.4596 0.0640035 1.49263 0
M  V30 422 H 39.3416 -2.42147 3.44881 0
M  V30 423 H 38.0166 -2.32016 2.25722 0
M  V30 424 H 36.9236 -0.511458 3.70587 0
M  V30 425 H 38.2566 -0.692419 4.87305 0
M  V30 426 N 39.9087 -1.5758 0.0250728 0
M  V30 427 C 41.1577 -1.90811 -0.653767 0
M  V30 428 C 41.4707 -0.90273 -1.73523 0
M  V30 429 O 42.6767 -1.12614 -2.47043 0
M  V30 430 C 41.1327 -3.38804 -1.21409 0
M  V30 431 C 40.7407 -4.47692 -0.166126 0
M  V30 432 C 42.4847 -3.81108 -1.86967 0
M  V30 433 C 40.3917 -5.86779 -0.737856 0
M  V30 434 H 39.3217 -0.712063 -0.247956 0
M  V30 435 H 41.9727 -1.83281 0.0897137 0
M  V30 436 H 40.3547 -3.41252 -2.00905 0
M  V30 437 H 41.5287 -4.56797 0.606079 0
M  V30 438 H 39.8437 -4.14565 0.390466 0
M  V30 439 H 42.4407 -4.82375 -2.30692 0
M  V30 440 H 42.7837 -3.15953 -2.71071 0
M  V30 441 H 43.3167 -3.81065 -1.14167 0
M  V30 442 H 40.0557 -6.55468 0.0649577 0
M  V30 443 H 39.5757 -5.81288 -1.47864 0
M  V30 444 H 41.2547 -6.35223 -1.22884 0
M  V30 445 N 41.3868 0.248026 -1.55636 0
M  V30 446 C 42.6328 0.97767 -1.77678 0
M  V30 447 C 42.9658 1.85016 -0.590135 0
M  V30 448 O 42.2408 1.90095 0.411611 0
M  V30 449 C 42.5238 1.83914 -3.09593 0
M  V30 450 C 42.3768 0.99491 -4.38659 0
M  V30 451 C 43.6958 2.82183 -3.37729 0
M  V30 452 H 40.8148 0.354005 -0.646413 0
M  V30 453 H 43.4568 0.248253 -1.88371 0
M  V30 454 H 41.6068 2.46104 -3.00608 0
M  V30 455 H 43.2788 0.391789 -4.59633 0
M  V30 456 H 41.5218 0.299231 -4.32767 0
M  V30 457 H 42.1928 1.63145 -5.2734 0
M  V30 458 H 44.6688 2.30129 -3.4667 0
M  V30 459 H 43.5448 3.39582 -4.31249 0
M  V30 460 H 43.8058 3.58588 -2.58586 0
M  V30 461 N 42.8649 1.48995 0.513639 0
M  V30 462 C 43.8119 1.6473 1.61656 0
M  V30 463 C 44.7819 0.488984 1.58739 0
M  V30 464 O 45.9669 0.714478 1.76918 0
M  V30 465 C 43.1069 1.7082 2.99858 0
M  V30 466 C 42.2199 2.9787 3.12885 0
M  V30 467 C 41.3549 2.95017 4.41744 0
M  V30 468 C 40.3939 4.16702 4.48359 0
M  V30 469 N 39.5309 4.11832 5.68629 0
M  V30 470 H 44.3709 2.58909 1.47547 0
M  V30 471 H 41.9079 1.28382 0.71808 0
M  V30 472 H 43.8659 1.72331 3.79944 0
M  V30 473 H 42.4959 0.801181 3.12699 0
M  V30 474 H 41.5479 3.06029 2.25944 0
M  V30 475 H 42.8599 3.8786 3.13633 0
M  V30 476 H 42.0139 2.95021 5.30139 0
M  V30 477 H 40.7529 2.02784 4.43542 0
M  V30 478 H 39.7579 4.16955 3.58369 0
M  V30 479 H 40.9829 5.10113 4.48287 0
M  V30 480 H 38.9289 3.22428 5.71293 0
M  V30 481 H 38.8459 4.95543 5.7094 0
M  V30 482 H 40.1139 4.1592 6.59266 0
M  V30 483 N 44.343 -0.763751 1.37857 0
M  V30 484 C 45.273 -1.89103 1.36975 0
M  V30 485 C 46.254 -1.68439 0.237152 0
M  V30 486 O 47.439 -1.8918 0.438713 0
M  V30 487 C 44.569 -3.26496 1.18395 0
M  V30 488 C 43.523 -3.61741 2.28751 0
M  V30 489 C 42.849 -4.97762 1.95286 0
M  V30 490 C 44.149 -3.67665 3.70972 0
M  V30 491 H 45.843 -1.90099 2.31307 0
M  V30 492 H 43.389 -0.91319 1.11341 0
M  V30 493 H 45.342 -4.05003 1.16406 0
M  V30 494 H 44.066 -3.25955 0.205215 0
M  V30 495 H 42.725 -2.85547 2.29909 0
M  V30 496 H 42.373 -4.93769 0.959221 0
M  V30 497 H 42.073 -5.22313 2.69189 0
M  V30 498 H 43.597 -5.7866 1.94898 0
M  V30 499 H 45.011 -4.36307 3.719 0
M  V30 500 H 43.408 -4.03718 4.43995 0
M  V30 501 H 44.478 -2.68134 4.0402 0
M  V30 502 N 45.8211 -1.22559 -0.990812 0
M  V30 503 C 47.0461 -1.07862 -1.77145 0
M  V30 504 C 47.4711 0.366447 -1.84496 0
M  V30 505 O 46.8291 1.26478 -1.29896 0
M  V30 506 C 46.8771 -1.69686 -3.18181 0
M  V30 507 O 45.9811 -0.951946 -4.01263 0
M  V30 508 H 45.3221 -0.378712 -0.545411 0
M  V30 509 H 47.8521 -1.62399 -1.2445 0
M  V30 510 H 47.8621 -1.74496 -3.68802 0
M  V30 511 H 46.5371 -2.74841 -3.12146 0
M  V30 512 H 45.1141 -0.980011 -3.59792 0
M  V30 513 N 47.2992 1.18797 -1.03562 0
M  V30 514 C 48.2092 2.25913 -0.632505 0
M  V30 515 C 49.2252 1.70668 0.338882 0
M  V30 516 O 50.4012 2.00453 0.195076 0
M  V30 517 C 47.4662 3.467 0.00350942 0
M  V30 518 C 46.5272 4.17098 -1.01624 0
M  V30 519 C 45.7602 5.32119 -0.410478 0
M  V30 520 O 45.9832 5.64976 0.784725 0
M  V30 521 O 44.9172 5.9107 -1.13667 0
M  V30 522 H 48.7432 2.62648 -1.52478 0
M  V30 523 H 46.3282 1.25781 -0.806195 0
M  V30 524 H 48.2102 4.19878 0.35781 0
M  V30 525 H 46.8852 3.11798 0.869686 0
M  V30 526 H 45.7922 3.4601 -1.42224 0
M  V30 527 H 47.1252 4.55987 -1.85301 0
M  V30 528 N 48.7773 0.814389 1.34928 0
M  V30 529 C 50.0023 0.410097 2.03305 0
M  V30 530 C 50.4273 -0.973464 1.60951 0
M  V30 531 O 49.7853 -1.63185 0.789964 0
M  V30 532 C 49.8333 0.51049 3.56968 0
M  V30 533 O 48.9373 -0.473035 4.09678 0
M  V30 534 H 48.2783 0.170088 0.641846 0
M  V30 535 H 50.8083 1.10244 1.72358 0
M  V30 536 H 50.8183 0.383135 4.06197 0
M  V30 537 H 49.4933 1.51963 3.87144 0
M  V30 538 H 48.0703 -0.305272 3.71648 0
M  V30 539 N 50.2554 -1.46986 0.568584 0
M  V30 540 C 51.4804 -2.07335 0.0520528 0
M  V30 541 C 51.9054 -1.41675 -1.23733 0
M  V30 542 O 51.2634 -0.495623 -1.74394 0
M  V30 543 C 51.3114 -3.60417 -0.11501 0
M  V30 544 O 50.4154 -3.95309 -1.17492 0
M  V30 545 H 49.7564 -0.661597 0.0564385 0
M  V30 546 H 52.2864 -1.88837 0.787507 0
M  V30 547 H 52.2964 -4.06698 -0.325644 0
M  V30 548 H 50.9714 -4.07601 0.826675 0
M  V30 549 H 49.5484 -3.60757 -0.943869 0
M  V30 550 N 51.7335 -0.305618 -1.54608 0
M  V30 551 C 52.6805 0.568421 -2.23691 0
M  V30 552 C 53.6505 1.12592 -1.22116 0
M  V30 553 O 54.8355 1.16959 -1.50749 0
M  V30 554 C 51.9755 1.7322 -2.98477 0
M  V30 555 C 51.0885 1.20566 -4.14835 0
M  V30 556 C 50.2235 2.33368 -4.77193 0
M  V30 557 C 49.2625 1.7787 -5.85686 0
M  V30 558 N 48.3995 2.84263 -6.4198 0
M  V30 559 H 53.2395 -0.0272867 -2.97988 0
M  V30 560 H 50.7765 -0.0252363 -1.47078 0
M  V30 561 H 52.7345 2.41675 -3.40072 0
M  V30 562 H 51.3645 2.29947 -2.26548 0
M  V30 563 H 50.4165 0.413223 -3.78149 0
M  V30 564 H 51.7285 0.759417 -4.92985 0
M  V30 565 H 50.8825 3.09761 -5.21664 0
M  V30 566 H 49.6215 2.8132 -3.98385 0
M  V30 567 H 48.6265 0.99968 -5.40635 0
M  V30 568 H 49.8515 1.30816 -6.66381 0
M  V30 569 H 47.7975 3.31541 -5.66053 0
M  V30 570 H 47.7145 2.44149 -7.15491 0
M  V30 571 H 48.9825 3.6054 -6.91109 0
M  V30 572 N 53.2116 1.57565 -0.0334293 0
M  V30 573 C 54.4596 1.91598 0.642999 0
M  V30 574 C 54.7806 0.910847 1.7242 0
M  V30 575 O 54.0506 -0.0469931 1.95844 0
M  V30 576 H 52.6306 0.707228 0.240496 0
M  V30 577 H 55.2926 1.94726 -0.0822488 0
M  V30 578 H 54.3886 2.92336 1.09298 0
M  V30 579 N 54.6897 -0.239769 1.55765 0
M  V30 580 C 55.6377 -1.31668 1.91745 0
M  V30 581 C 56.6317 -1.49462 0.797338 0
M  V30 582 O 57.8377 -1.50852 0.982021 0
M  V30 583 H 54.2127 -0.441048 0.609082 0
M  V30 584 H 56.1837 -0.985923 2.81642 0
M  V30 585 C 54.9327 -2.66368 2.2348 0
M  V30 586 H 54.2557 -2.53478 3.09175 0
M  V30 587 H 55.6957 -3.40578 2.52553 0
M  V30 588 C 54.1547 -3.20002 1.05359 0
M  V30 589 O 54.6847 -4.00538 0.305261 0
M  V30 590 N 52.8907 -2.78126 0.842292 0
M  V30 591 H 52.4377 -2.12742 1.45253 0
M  V30 592 H 52.3957 -3.14354 0.053652 0
M  V30 593 N 56.1678 -1.49265 -0.50573 0
M  V30 594 C 57.0978 -1.68495 -1.61653 0
M  V30 595 C 58.0788 -0.53366 -1.61512 0
M  V30 596 O 59.2638 -0.76897 -1.78327 0
M  V30 597 C 56.3938 -1.74709 -3.00157 0
M  V30 598 C 55.3478 -2.89581 -3.15162 0
M  V30 599 C 54.6738 -2.80903 -4.5497 0
M  V30 600 C 55.9738 -4.30578 -2.95634 0
M  V30 601 H 57.6678 -2.61493 -1.45814 0
M  V30 602 H 55.2138 -1.25838 -0.70005 0
M  V30 603 H 57.1668 -1.86748 -3.77761 0
M  V30 604 H 55.8908 -0.783067 -3.17074 0
M  V30 605 H 54.5498 -2.77136 -2.39982 0
M  V30 606 H 54.1978 -1.82419 -4.68756 0
M  V30 607 H 53.8978 -3.57999 -4.65951 0
M  V30 608 H 55.4218 -2.94944 -5.34641 0
M  V30 609 H 56.8358 -4.4373 -3.63011 0
M  V30 610 H 55.2328 -5.0886 -3.18091 0
M  V30 611 H 56.3028 -4.45352 -1.91806 0
M  V30 612 N 57.6459 0.756429 -1.3826 0
M  V30 613 C 58.8759 1.54341 -1.3734 0
M  V30 614 C 59.2839 1.89159 0.0393917 0
M  V30 615 O 58.6269 1.5307 1.01565 0
M  V30 616 C 58.6889 2.87238 -2.16182 0
M  V30 617 C 58.3529 2.74973 -3.65019 0
M  V30 618 C 59.3499 2.44962 -4.58574 0
M  V30 619 C 57.0349 2.92515 -4.08338 0
M  V30 620 C 59.0289 2.32642 -5.93428 0
M  V30 621 C 56.7159 2.79815 -5.43274 0
M  V30 622 C 57.7139 2.49921 -6.35632 0
M  V30 623 O 57.4019 2.37275 -7.68086 0
M  V30 624 H 57.1339 0.484281 -0.471643 0
M  V30 625 H 59.6879 0.944152 -1.82414 0
M  V30 626 H 57.9179 3.49342 -1.65822 0
M  V30 627 H 59.6069 3.48731 -2.07705 0
M  V30 628 H 60.3729 2.31081 -4.26412 0
M  V30 629 H 56.2519 3.14781 -3.368 0
M  V30 630 H 59.7959 2.0923 -6.65484 0
M  V30 631 H 55.6929 2.93269 -5.75034 0
M  V30 632 H 56.4609 2.52509 -7.78577 0
M  V30 633 N 59.124 1.23083 0.984299 0
M  V30 634 C 60.354 1.08556 1.75781 0
M  V30 635 C 60.762 -0.366171 1.85623 0
M  V30 636 O 60.105 -1.26524 1.33182 0
M  V30 637 C 60.167 1.63208 3.20318 0
M  V30 638 C 59.831 3.11922 3.33997 0
M  V30 639 C 60.828 4.09259 3.2063 0
M  V30 640 C 58.513 3.51552 3.58771 0
M  V30 641 C 60.507 5.4421 3.31835 0
M  V30 642 C 58.194 4.86649 3.69616 0
M  V30 643 C 59.192 5.82787 3.56157 0
M  V30 644 O 58.88 7.15431 3.66626 0
M  V30 645 H 58.612 0.380713 0.5586 0
M  V30 646 H 61.166 1.63321 1.2456 0
M  V30 647 H 59.396 1.0286 3.72769 0
M  V30 648 H 61.085 1.44216 3.79416 0
M  V30 649 H 61.851 3.79984 3.01392 0
M  V30 650 H 57.73 2.77239 3.6832 0
M  V30 651 H 61.274 6.1923 3.21247 0
M  V30 652 H 57.171 5.15601 3.88363 0
M  V30 653 H 57.939 7.23127 3.83445 0
M  V30 654 N 60.6021 -1.18246 1.0419 0
M  V30 655 C 61.5521 -2.19843 0.604392 0
M  V30 656 C 62.5361 -1.56962 -0.353814 0
M  V30 657 O 63.7281 -1.76156 -0.17267 0
M  V30 658 C 60.8571 -3.43287 -0.0298975 0
M  V30 659 C 59.9431 -4.13288 0.951531 0
M  V30 660 N 60.3341 -4.59271 2.11906 0
M  V30 661 C 58.6321 -4.39165 0.7778 0
M  V30 662 C 59.3331 -5.13173 2.73912 0
M  V30 663 N 58.3091 -5.04763 2.01779 0
M  V30 664 H 62.1111 -2.53089 1.4941 0
M  V30 665 H 59.6251 -1.34465 0.910658 0
M  V30 666 H 61.6221 -4.15334 -0.361037 0
M  V30 667 H 60.2821 -3.11537 -0.915127 0
M  V30 668 H 61.2931 -4.5368 2.49789 0
M  V30 669 H 57.9701 -4.17461 -0.0572331 0
M  V30 670 H 59.3601 -5.58947 3.72864 0
M  V30 671 N 62.0802 -0.821533 -1.34494 0
M  V30 672 C 63.3272 -0.408946 -1.98328 0
M  V30 673 C 63.6552 1.02764 -1.65136 0
M  V30 674 O 62.9102 1.73026 -0.914349 0
M  V30 675 C 63.2092 -0.556512 -3.53041 0
M  V30 676 C 62.8752 -1.95861 -4.0614 0
M  V30 677 C 61.5372 -2.34217 -4.20352 0
M  V30 678 C 63.8892 -2.87523 -4.34718 0
M  V30 679 C 61.2172 -3.63572 -4.6047 0
M  V30 680 C 63.5692 -4.1634 -4.76281 0
M  V30 681 C 62.2332 -4.54675 -4.88699 0
M  V30 682 H 61.5032 -0.149644 -0.725732 0
M  V30 683 H 64.1502 -1.04521 -1.6046 0
M  V30 684 H 62.4552 0.163148 -3.9146 0
M  V30 685 H 64.1522 -0.217826 -4.00408 0
M  V30 686 H 60.7422 -1.65066 -3.95539 0
M  V30 687 H 64.9262 -2.59133 -4.23277 0
M  V30 688 H 60.1822 -3.93101 -4.68275 0
M  V30 689 H 64.3562 -4.87455 -4.97354 0
M  V30 690 H 61.9832 -5.54959 -5.19542 0
M  V30 691 N 63.5583 1.46682 -0.576371 0
M  V30 692 C 64.5053 2.30241 0.160499 0
M  V30 693 C 65.4753 1.40233 0.890162 0
M  V30 694 O 66.6603 1.69186 0.882084 0
M  V30 695 C 63.8003 3.24578 1.1723 0
M  V30 696 C 62.9133 4.29684 0.446736 0
M  V30 697 C 62.0483 5.11154 1.44551 0
M  V30 698 C 61.0873 6.08015 0.70599 0
M  V30 699 N 60.2243 6.82376 1.65251 0
M  V30 700 H 65.0643 2.92727 -0.558127 0
M  V30 701 H 62.6013 1.44272 -0.287056 0
M  V30 702 H 64.5593 3.77711 1.77172 0
M  V30 703 H 63.1893 2.63916 1.85872 0
M  V30 704 H 62.2413 3.79458 -0.267594 0
M  V30 705 H 63.5533 4.98626 -0.131686 0
M  V30 706 H 62.7073 5.68533 2.11791 0
M  V30 707 H 61.4463 4.42158 2.05786 0
M  V30 708 H 60.4513 5.49796 0.0197725 0
M  V30 709 H 61.6763 6.79028 0.09912 0
M  V30 710 H 59.6223 6.16094 2.25308 0
M  V30 711 H 59.5393 7.47556 1.12673 0
M  V30 712 H 60.8073 7.44316 2.31546 0
M  V30 713 N 65.0364 0.313813 1.54444 0
M  V30 714 C 66.2644 -0.293918 2.04802 0
M  V30 715 C 66.6794 -1.46537 1.19047 0
M  V30 716 O 66.0364 -1.81182 0.218939 0
M  V30 717 C 66.0874 -0.737806 3.53891 0
M  V30 718 O 65.8084 0.387038 4.36387 0
M  V30 719 C 67.3094 -1.40936 4.203 0
M  V30 720 H 64.5294 -0.0620057 0.668129 0
M  V30 721 H 67.0734 0.457169 1.99324 0
M  V30 722 H 65.2284 -1.43889 3.59687 0
M  V30 723 H 65.6424 0.0391274 5.24485 0
M  V30 724 H 67.1164 -1.67099 5.26101 0
M  V30 725 H 67.5934 -2.35355 3.70816 0
M  V30 726 H 68.1994 -0.751117 4.18615 0
M  V30 727 N 66.5145 -1.57545 0.0417849 0
M  V30 728 C 67.4615 -2.10977 -0.935805 0
M  V30 729 C 68.4315 -1.01486 -1.31491 0
M  V30 730 O 69.6165 -1.2898 -1.40602 0
M  V30 731 C 66.7565 -2.65169 -2.2086 0
M  V30 732 C 65.8695 -3.88714 -1.88482 0
M  V30 733 C 65.0045 -4.31254 -3.1015 0
M  V30 734 C 64.0435 -5.47524 -2.7365 0
M  V30 735 N 63.1805 -5.85162 -3.87982 0
M  V30 736 H 68.0205 -2.94218 -0.473249 0
M  V30 737 H 65.5575 -1.45415 -0.221981 0
M  V30 738 H 67.5155 -2.94685 -2.95325 0
M  V30 739 H 66.1455 -1.8474 -2.64709 0
M  V30 740 H 65.1975 -3.65849 -1.04205 0
M  V30 741 H 66.5095 -4.73245 -1.57608 0
M  V30 742 H 65.6635 -4.62273 -3.92923 0
M  V30 743 H 64.4025 -3.45516 -3.44195 0
M  V30 744 H 63.4075 -5.16187 -1.89291 0
M  V30 745 H 64.6325 -6.34971 -2.40807 0
M  V30 746 H 62.5785 -5.02377 -4.21846 0
M  V30 747 H 62.4955 -6.64362 -3.60775 0
M  V30 748 H 63.7635 -6.20791 -4.71422 0
M  V30 749 N 67.9926 0.231505 -1.5589 0
M  V30 750 C 68.9026 1.308 -1.94752 0
M  V30 751 C 69.9186 1.51826 -0.849989 0
M  V30 752 O 71.0946 1.6515 -1.15271 0
M  V30 753 C 68.1596 2.63968 -2.24771 0
M  V30 754 C 67.2206 2.51331 -3.48039 0
M  V30 755 C 66.4536 3.78148 -3.76616 0
M  V30 756 O 66.6766 4.80722 -3.07022 0
M  V30 757 O 65.6106 3.75857 -4.70123 0
M  V30 758 H 69.4366 1.0083 -2.86474 0
M  V30 759 H 67.0216 0.433547 -1.42971 0
M  V30 760 H 68.9036 3.42633 -2.45318 0
M  V30 761 H 67.5786 2.9364 -1.36225 0
M  V30 762 H 66.4856 1.709 -3.32782 0
M  V30 763 H 67.8186 2.26601 -4.36936 0
M  V30 764 N 69.4707 1.49531 0.497807 0
M  V30 765 C 70.4187 1.66926 1.61983 0
M  V30 766 C 71.4127 0.535167 1.60724 0
M  V30 767 O 72.6187 0.714896 1.65195 0
M  V30 768 H 68.9937 0.526415 0.537021 0
M  V30 769 H 70.9647 2.61098 1.44465 0
M  V30 770 C 69.7137 1.75602 3.00099 0
M  V30 771 H 69.0367 2.62244 3.01775 0
M  V30 772 H 70.4767 1.91807 3.78135 0
M  V30 773 C 68.9357 0.501543 3.33146 0
M  V30 774 O 69.4657 -0.371342 3.9998 0
M  V30 775 N 67.6717 0.363531 2.88317 0
M  V30 776 H 67.2187 1.07485 2.34104 0
M  V30 777 H 67.1767 -0.474728 3.10795 0
M  V30 778 N 70.9488 -0.749086 1.3866 0
M  V30 779 C 71.8788 -1.8764 1.38973 0
M  V30 780 C 72.8598 -1.68178 0.255004 0
M  V30 781 O 74.0448 -1.88704 0.458754 0
M  V30 782 C 71.1748 -3.25222 1.21851 0
M  V30 783 C 70.1288 -3.59295 2.32575 0
M  V30 784 C 69.4548 -4.95663 2.00555 0
M  V30 785 C 70.7548 -3.63709 3.7485 0
M  V30 786 H 72.4488 -1.87635 2.3331 0
M  V30 787 H 69.9948 -0.901329 1.12303 0
M  V30 788 H 71.9478 -4.03746 1.20695 0
M  V30 789 H 70.6718 -3.25719 0.239775 0
M  V30 790 H 69.3308 -2.83093 2.32925 0
M  V30 791 H 68.9788 -4.92724 1.01154 0
M  V30 792 H 68.6788 -5.19429 2.74714 0
M  V30 793 H 70.2028 -5.7656 2.01024 0
M  V30 794 H 71.6168 -4.32338 3.76506 0
M  V30 795 H 70.0138 -3.98986 4.48252 0
M  V30 796 H 71.0838 -2.63834 4.06841 0
M  V30 797 N 72.4269 -1.23603 -0.977757 0
M  V30 798 C 73.6739 -1.06971 -1.71941 0
M  V30 799 C 74.0019 0.393009 -1.90488 0
M  V30 800 O 73.2569 1.30719 -1.4564 0
M  V30 801 C 73.5559 -1.7433 -3.11999 0
M  V30 802 C 73.2219 -3.24252 -3.13323 0
M  V30 803 C 71.8839 -3.65156 -3.13392 0
M  V30 804 C 74.2359 -4.20141 -3.08433 0
M  V30 805 C 71.5639 -5.00403 -3.0629 0
M  V30 806 C 73.9159 -5.55384 -3.02873 0
M  V30 807 C 72.5799 -5.95647 -3.01265 0
M  V30 808 H 71.8499 -0.391433 -0.629175 0
M  V30 809 H 74.4969 -1.53572 -1.14403 0
M  V30 810 H 72.8019 -1.20096 -3.7294 0
M  V30 811 H 74.4989 -1.58936 -3.68158 0
M  V30 812 H 71.0889 -2.91692 -3.14029 0
M  V30 813 H 75.2729 -3.89547 -3.07517 0
M  V30 814 H 70.5289 -5.3081 -3.03399 0
M  V30 815 H 74.7029 -6.29398 -2.98046 0
M  V30 816 H 72.3299 -7.0041 -2.95516 0
M  V30 817 N 73.905 1.17692 -1.04816 0
M  V30 818 C 74.835 2.23777 -0.666791 0
M  V30 819 C 75.816 1.66796 0.33361 0
M  V30 820 O 77.001 1.93039 0.212042 0
M  V30 821 C 74.131 3.47281 -0.0367933 0
M  V30 822 C 73.085 4.17059 -0.961546 0
M  V30 823 C 72.411 5.34342 -0.195626 0
M  V30 824 C 73.711 4.69713 -2.28402 0
M  V30 825 H 75.405 2.55933 -1.55367 0
M  V30 826 H 72.951 1.23019 -0.748484 0
M  V30 827 H 74.904 4.20706 0.241775 0
M  V30 828 H 73.628 3.14381 0.885004 0
M  V30 829 H 72.287 3.45541 -1.22462 0
M  V30 830 H 71.935 4.97692 0.728816 0
M  V30 831 H 71.635 5.81966 -0.811775 0
M  V30 832 H 73.159 6.10553 0.0757473 0
M  V30 833 H 74.573 5.34794 -2.06563 0
M  V30 834 H 72.97 5.279 -2.8538 0
M  V30 835 H 74.04 3.86726 -2.92525 0
M  V30 836 N 75.3831 0.828654 1.34056 0
M  V30 837 C 76.2931 0.256725 2.33191 0
M  V30 838 C 77.3091 -0.611898 1.62886 0
M  V30 839 O 78.4851 -0.51844 1.94613 0
M  V30 840 C 75.5501 -0.567238 3.42028 0
M  V30 841 C 74.6111 0.324458 4.28072 0
M  V30 842 C 73.8441 -0.460274 5.31712 0
M  V30 843 O 74.0671 -1.693 5.44696 0
M  V30 844 O 73.0011 0.160391 6.01686 0
M  V30 845 H 76.8271 1.07739 2.83947 0
M  V30 846 H 74.4121 0.59093 1.37217 0
M  V30 847 H 76.2941 -1.03582 4.08471 0
M  V30 848 H 74.9691 -1.36513 2.93506 0
M  V30 849 H 73.8761 0.840659 3.64532 0
M  V30 850 H 75.2091 1.08685 4.8005 0
M  V30 851 N 76.8612 -1.46375 0.584142 0
M  V30 852 C 78.1102 -2.01585 0.0679741 0
M  V30 853 C 78.4232 -1.46109 -1.30045 0
M  V30 854 O 79.6292 -1.93148 -1.90804 0
M  V30 855 C 78.0852 -3.5983 0.0709207 0
M  V30 856 C 77.6932 -4.24303 1.43775 0
M  V30 857 C 79.4372 -4.22693 -0.391228 0
M  V30 858 C 77.3442 -5.74631 1.39834 0
M  V30 859 H 76.2742 -0.753689 0.0216421 0
M  V30 860 H 78.9252 -1.68093 0.736001 0
M  V30 861 H 77.3072 -3.90405 -0.663299 0
M  V30 862 H 78.4812 -4.05335 2.19181 0
M  V30 863 H 76.7962 -3.73539 1.84004 0
M  V30 864 H 79.3932 -5.3289 -0.439524 0
M  V30 865 H 79.7362 -3.91728 -1.40906 0
M  V30 866 H 80.2692 -3.96749 0.288974 0
M  V30 867 H 77.0082 -6.10258 2.39303 0
M  V30 868 H 76.5282 -5.95858 0.686505 0
M  V30 869 H 78.2072 -6.37375 1.11187 0
M  V30 870 N 78.3393 -0.321999 -1.54275 0
M  V30 871 C 79.2693 0.537411 -2.27231 0
M  V30 872 C 80.2503 1.12064 -1.27968 0
M  V30 873 O 81.4353 1.14606 -1.56777 0
M  V30 874 C 78.5653 1.69919 -3.02894 0
M  V30 875 C 77.5193 1.24534 -4.09482 0
M  V30 876 C 76.8453 2.49394 -4.72977 0
M  V30 877 C 78.1453 0.361335 -5.21049 0
M  V30 878 H 79.8393 -0.0711406 -2.99315 0
M  V30 879 H 77.3853 -0.0356555 -1.43956 0
M  V30 880 H 79.3383 2.30668 -3.52662 0
M  V30 881 H 78.0623 2.33431 -2.28424 0
M  V30 882 H 76.7213 0.660782 -3.60596 0
M  V30 883 H 76.3693 3.11265 -3.95124 0
M  V30 884 H 76.0693 2.19718 -5.44975 0
M  V30 885 H 77.5933 3.10908 -5.25517 0
M  V30 886 H 79.0073 0.875072 -5.66582 0
M  V30 887 H 77.4043 0.157428 -5.99893 0
M  V30 888 H 78.4743 -0.60822 -4.8107 0
M  V30 889 N 79.8174 1.5752 -0.0501392 0
M  V30 890 C 80.7654 2.12651 0.942459 0
M  V30 891 C 81.7594 1.05807 1.32292 0
M  V30 892 O 82.9654 1.24217 1.3027 0
M  V30 893 H 79.3404 0.679673 0.321789 0
M  V30 894 H 81.3114 2.94951 0.452356 0
M  V30 895 C 80.0604 2.68565 2.20836 0
M  V30 896 H 79.3834 3.50439 1.92439 0
M  V30 897 H 80.8234 3.10761 2.8845 0
M  V30 898 C 79.2824 1.62291 2.95234 0
M  V30 899 O 79.8124 1.03508 3.88135 0
M  V30 900 N 78.0184 1.33836 2.57946 0
M  V30 901 H 77.5654 1.81826 1.82475 0
M  V30 902 H 77.5234 0.629595 3.08032 0
M  V30 903 N 81.2955 -0.223234 1.56011 0
M  V30 904 C 82.5445 -0.945912 1.78144 0
M  V30 905 C 82.8575 -1.85567 0.618396 0
M  V30 906 O 84.0635 -2.61688 0.723318 0
M  V30 907 C 82.5195 -1.73216 3.15475 0
M  V30 908 C 82.1275 -0.868619 4.39499 0
M  V30 909 C 83.8715 -2.44615 3.46935 0
M  V30 910 C 81.7785 -1.65212 5.67855 0
M  V30 911 H 80.7085 -0.356929 0.664167 0
M  V30 912 H 83.3595 -0.199845 1.82409 0
M  V30 913 H 81.7415 -2.52107 3.05382 0
M  V30 914 H 82.9155 -0.120366 4.60643 0
M  V30 915 H 81.2305 -0.26683 4.15544 0
M  V30 916 H 83.8275 -3.03732 4.40058 0
M  V30 917 H 84.1705 -3.17417 2.69355 0
M  V30 918 H 84.7035 -1.72715 3.58349 0
M  V30 919 H 81.4425 -0.967407 6.48322 0
M  V30 920 H 80.9625 -2.37503 5.50774 0
M  V30 921 H 82.6415 -2.21322 6.07968 0
M  V30 922 N 82.7736 -1.49793 -0.48987 0
M  V30 923 C 83.6836 -1.70036 -1.61632 0
M  V30 924 C 84.6996 -0.583102 -1.63939 0
M  V30 925 O 85.8756 -0.859169 -1.82154 0
M  V30 926 C 82.9406 -1.77277 -2.97949 0
M  V30 927 C 82.0016 -3.00918 -3.06181 0
M  V30 928 C 81.2346 -3.07804 -4.35996 0
M  V30 929 O 81.4576 -2.21982 -5.25433 0
M  V30 930 O 80.3916 -4.00369 -4.49431 0
M  V30 931 H 84.2176 -2.65486 -1.47482 0
M  V30 932 H 81.8026 -1.33666 -0.667362 0
M  V30 933 H 83.6846 -1.84329 -3.78947 0
M  V30 934 H 82.3596 -0.850076 -3.12339 0
M  V30 935 H 81.2666 -2.99377 -2.2433 0
M  V30 936 H 82.5996 -3.92704 -2.96723 0
M  V30 937 N 84.2517 0.741722 -1.39055 0
M  V30 938 C 85.1617 1.88621 -1.39496 0
M  V30 939 C 86.1777 1.71557 -0.290578 0
M  V30 940 O 87.3537 1.94275 -0.530954 0
M  V30 941 C 84.4187 3.24134 -1.23037 0
M  V30 942 C 83.4797 3.5364 -2.43387 0
M  V30 943 C 82.7127 4.82687 -2.27703 0
M  V30 944 O 82.9357 5.55922 -1.27696 0
M  V30 945 O 81.8697 5.1194 -3.16545 0
M  V30 946 H 85.6957 1.91203 -2.35956 0
M  V30 947 H 83.2807 0.888625 -1.20099 0
M  V30 948 H 85.1627 4.0513 -1.15964 0
M  V30 949 H 83.8377 3.22337 -0.296691 0
M  V30 950 H 82.7447 2.72758 -2.56035 0
M  V30 951 H 84.0777 3.60209 -3.35425 0
M  V30 952 N 85.7298 1.2412 0.971189 0
M  V30 953 C 86.9548 1.10667 1.75407 0
M  V30 954 C 87.3798 -0.337048 1.85056 0
M  V30 955 O 86.7378 -1.24396 1.31892 0
M  V30 956 C 86.7858 1.74726 3.15441 0
M  V30 957 O 85.8898 1.01566 3.99697 0
M  V30 958 H 85.2308 0.387341 0.539317 0
M  V30 959 H 87.7608 1.64358 1.2185 0
M  V30 960 H 87.7708 1.80341 3.6598 0
M  V30 961 H 86.4458 2.79773 3.07734 0
M  V30 962 H 85.0228 1.03713 3.58187 0
M  V30 963 N 87.2079 -1.17134 1.05439 0
M  V30 964 C 88.1549 -2.21235 0.657539 0
M  V30 965 C 89.1249 -1.62551 -0.341543 0
M  V30 966 O 90.3099 -1.89379 -0.232393 0
M  V30 967 C 87.4499 -3.45076 0.0410575 0
M  V30 968 C 86.5629 -4.18042 1.08927 0
M  V30 969 C 85.6979 -5.29376 0.439848 0
M  V30 970 C 84.7369 -5.94132 1.4722 0
M  V30 971 N 83.8739 -6.96975 0.846756 0
M  V30 972 H 88.7139 -2.54534 1.54972 0
M  V30 973 H 86.2509 -1.25028 0.775006 0
M  V30 974 H 88.2089 -4.15862 -0.33383 0
M  V30 975 H 86.8389 -3.12353 -0.814568 0
M  V30 976 H 85.8909 -3.45945 1.58196 0
M  V30 977 H 87.2029 -4.62306 1.87282 0
M  V30 978 H 86.3569 -6.06699 0.0115125 0
M  V30 979 H 85.0959 -4.86251 -0.375656 0
M  V30 980 H 84.1009 -5.15538 1.91052 0
M  V30 981 H 85.3259 -6.39337 2.28965 0
M  V30 982 H 83.2719 -6.5598 0.0518075 0
M  V30 983 H 83.1889 -7.39565 1.5678 0
M  V30 984 H 84.4569 -7.78239 0.443277 0
M  V30 985 N 88.686 -0.835752 -1.33615 0
M  V30 986 C 89.932 -0.439817 -1.98588 0
M  V30 987 C 90.287 0.989274 -1.65019 0
M  V30 988 O 89.58 1.68168 -0.918159 0
M  V30 989 C 89.774 -0.593925 -3.52431 0
M  V30 990 C 89.603 -2.03644 -4.00948 0
M  V30 991 C 88.373 -2.67103 -4.28934 0
M  V30 992 C 90.571 -3.00479 -4.17393 0
M  V30 993 N 88.553 -4.02462 -4.6357 0
M  V30 994 C 89.924 -4.20777 -4.55353 0
M  V30 995 C 91.979 -2.96926 -3.99674 0
M  V30 996 C 90.682 -5.37994 -4.77447 0
M  V30 997 C 92.708 -4.1337 -4.22941 0
M  V30 998 C 92.07 -5.32422 -4.61201 0
M  V30 999 H 88.169 -0.209303 -0.75347 0
M  V30 1000 H 90.753 -1.08316 -1.61789 0
M  V30 1001 H 88.924 0.019599 -3.88395 0
M  V30 1002 H 90.656 -0.169738 -4.04344 0
M  V30 1003 H 87.411 -2.18259 -4.20309 0
M  V30 1004 H 87.835 -4.72232 -4.85104 0
M  V30 1005 H 92.477 -2.06015 -3.69212 0
M  V30 1006 H 90.195 -6.29451 -5.06771 0
M  V30 1007 H 93.781 -4.12034 -4.10754 0
M  V30 1008 H 92.661 -6.21027 -4.78848 0
M  V30 1009 N 90.1641 1.46063 -0.591896 0
M  V30 1010 C 91.0961 2.28539 0.174001 0
M  V30 1011 C 92.1091 1.39047 0.846753 0
M  V30 1012 O 93.2981 1.63564 0.714774 0
M  V30 1013 C 90.3981 3.14347 1.26645 0
M  V30 1014 C 89.5711 4.32021 0.683856 0
M  V30 1015 C 88.6301 4.99157 1.66518 0
M  V30 1016 O 87.6561 5.56458 1.19763 0
M  V30 1017 N 88.8581 4.97005 2.99943 0
M  V30 1018 H 91.6231 2.94911 -0.533633 0
M  V30 1019 H 89.1841 1.56077 -0.430294 0
M  V30 1020 H 91.1761 3.56125 1.92242 0
M  V30 1021 H 89.7461 2.49988 1.87682 0
M  V30 1022 H 88.9661 3.93915 -0.1498 0
M  V30 1023 H 90.2541 5.08059 0.274567 0
M  V30 1024 H 89.6521 4.51714 3.40545 0
M  V30 1025 H 88.2091 5.42696 3.61004 0
M  V30 1026 N 91.6422 0.330177 1.54103 0
M  V30 1027 C 92.5522 -0.541534 2.28264 0
M  V30 1028 C 93.5682 -1.12351 1.32866 0
M  V30 1029 O 94.7442 -1.14206 1.65888 0
M  V30 1030 C 91.8092 -1.68322 3.03098 0
M  V30 1031 C 90.8702 -1.13238 4.14096 0
M  V30 1032 C 90.1032 -2.21966 4.85352 0
M  V30 1033 O 90.3262 -3.42437 4.56172 0
M  V30 1034 O 89.2602 -1.87013 5.7211 0
M  V30 1035 H 93.0862 0.060938 3.03639 0
M  V30 1036 H 90.6712 0.09565 1.49093 0
M  V30 1037 H 92.5532 -2.34777 3.49939 0
M  V30 1038 H 91.2282 -2.27176 2.30593 0
M  V30 1039 H 90.1352 -0.432736 3.71589 0
M  V30 1040 H 91.4682 -0.588898 4.88664 0
M  V30 1041 N 93.1203 -1.57491 0.0584922 0
M  V30 1042 C 94.0523 -2.08916 -0.942694 0
M  V30 1043 C 95.0653 -1.0185 -1.27006 0
M  V30 1044 O 96.2543 -1.29398 -1.22957 0
M  V30 1045 C 93.3543 -2.52341 -2.26224 0
M  V30 1046 C 92.5273 -3.82827 -2.1157 0
M  V30 1047 C 91.5863 -4.12487 -3.26712 0
M  V30 1048 O 90.6123 -4.82295 -3.02292 0
M  V30 1049 N 91.8143 -3.64978 -4.5141 0
M  V30 1050 H 94.5793 -2.95437 -0.503722 0
M  V30 1051 H 92.1403 -1.61397 -0.12757 0
M  V30 1052 H 94.1323 -2.69254 -3.02133 0
M  V30 1053 H 92.7023 -1.7103 -2.61663 0
M  V30 1054 H 91.9223 -3.75425 -1.20208 0
M  V30 1055 H 93.2103 -4.68263 -1.99015 0
M  V30 1056 H 92.6083 -3.08558 -4.7414 0
M  V30 1057 H 91.1653 -3.87115 -5.2439 0
M  V30 1058 N 94.5984 0.214957 -1.56127 0
M  V30 1059 C 95.8444 0.935325 -1.80619 0
M  V30 1060 C 96.1994 1.81706 -0.632507 0
M  V30 1061 O 95.4924 1.87931 0.373182 0
M  V30 1062 C 95.6864 1.80314 -3.0858 0
M  V30 1063 C 95.5154 1.00691 -4.38282 0
M  V30 1064 C 94.2854 0.699211 -5.00439 0
M  V30 1065 C 96.4834 0.369057 -5.12974 0
M  V30 1066 N 94.4654 -0.117734 -6.13787 0
M  V30 1067 C 95.8364 -0.310981 -6.1922 0
M  V30 1068 C 97.8914 0.282759 -4.97096 0
M  V30 1069 C 96.5944 -1.06907 -7.11311 0
M  V30 1070 C 98.6204 -0.461881 -5.89594 0
M  V30 1071 C 97.9824 -1.13044 -6.9527 0
M  V30 1072 H 94.0814 0.322307 -0.71249 0
M  V30 1073 H 96.6654 0.205649 -1.93611 0
M  V30 1074 H 94.8364 2.50458 -2.96859 0
M  V30 1075 H 96.5684 2.46148 -3.21237 0
M  V30 1076 H 93.3234 1.01884 -4.62511 0
M  V30 1077 H 93.7474 -0.515235 -6.75037 0
M  V30 1078 H 98.3894 0.785292 -4.15443 0
M  V30 1079 H 96.1074 -1.5831 -7.92442 0
M  V30 1080 H 99.6934 -0.529746 -5.79383 0
M  V30 1081 H 98.5734 -1.69742 -7.65609 0
M  V30 1082 N 96.0765 1.50051 0.48192 0
M  V30 1083 C 97.0235 1.68122 1.58125 0
M  V30 1084 C 97.9935 0.522545 1.57666 0
M  V30 1085 O 99.1785 0.751844 1.75362 0
M  V30 1086 C 96.3185 1.77142 2.96167 0
M  V30 1087 C 95.4315 3.0444 3.06497 0
M  V30 1088 C 94.5665 3.04321 4.35387 0
M  V30 1089 C 93.6055 4.26118 4.3942 0
M  V30 1090 N 92.7425 4.238 5.59766 0
M  V30 1091 H 97.5825 2.6198 1.42022 0
M  V30 1092 H 95.1195 1.29877 0.690687 0
M  V30 1093 H 97.0775 1.80352 3.76203 0
M  V30 1094 H 95.7075 0.867329 3.1093 0
M  V30 1095 H 94.7595 3.10752 2.19402 0
M  V30 1096 H 96.0715 3.94426 3.05336 0
M  V30 1097 H 95.2255 3.062 5.23762 0
M  V30 1098 H 93.9645 2.12147 4.39141 0
M  V30 1099 H 92.9695 4.24463 3.49444 0
M  V30 1100 H 94.1945 5.19507 4.37366 0
M  V30 1101 H 92.1405 3.34474 5.64326 0
M  V30 1102 H 92.0575 5.07542 5.60301 0
M  V30 1103 H 93.3255 4.2981 6.50295 0
M  V30 1104 N 97.5546 -0.734337 1.39446 0
M  V30 1105 C 98.5016 -1.84835 1.38219 0
M  V30 1106 C 99.4716 -1.64331 0.24179 0
M  V30 1107 O 100.657 -1.85728 0.437002 0
M  V30 1108 C 97.7966 -3.22355 1.23212 0
M  V30 1109 C 96.9096 -3.5456 2.46801 0
M  V30 1110 C 96.0446 -4.81485 2.24377 0
M  V30 1111 C 95.0836 -5.06536 3.43639 0
M  V30 1112 N 94.2206 -6.24665 3.20528 0
M  V30 1113 H 99.0606 -1.85219 2.33448 0
M  V30 1114 H 96.5976 -0.905039 1.15963 0
M  V30 1115 H 98.5556 -4.0174 1.12522 0
M  V30 1116 H 97.1856 -3.21248 0.316121 0
M  V30 1117 H 96.2376 -2.69872 2.68092 0
M  V30 1118 H 97.5496 -3.6899 3.3563 0
M  V30 1119 H 96.7036 -5.68852 2.10933 0
M  V30 1120 H 95.4426 -4.6923 1.32944 0
M  V30 1121 H 94.4476 -4.17632 3.5758 0
M  V30 1122 H 95.6726 -5.20676 4.35974 0
M  V30 1123 H 93.6186 -6.13696 2.3176 0
M  V30 1124 H 93.5356 -6.39685 4.02913 0
M  V30 1125 H 94.8036 -7.14868 3.10779 0
M  V30 1126 N 99.0327 -1.24633 -0.964593 0
M  V30 1127 C 99.9427 -1.05859 -2.09359 0
M  V30 1128 C 100.959 0.00148855 -1.74 0
M  V30 1129 O 102.135 -0.197346 -2.00431 0
M  V30 1130 C 99.1997 -0.668879 -3.40187 0
M  V30 1131 C 98.2607 -1.80578 -3.89474 0
M  V30 1132 C 97.4937 -1.43457 -5.14058 0
M  V30 1133 O 97.7167 -0.325775 -5.69469 0
M  V30 1134 O 96.6507 -2.2613 -5.57807 0
M  V30 1135 H 100.477 -2.00516 -2.28094 0
M  V30 1136 H 98.0617 -1.03481 -1.0776 0
M  V30 1137 H 99.9437 -0.463211 -4.18846 0
M  V30 1138 H 98.6187 0.248536 -3.22744 0
M  V30 1139 H 97.5257 -2.06623 -3.11862 0
M  V30 1140 H 98.8587 -2.70208 -4.11398 0
M  V30 1141 N 100.511 1.16574 -1.06058 0
M  V30 1142 C 101.443 2.2045 -0.627239 0
M  V30 1143 C 102.456 1.59752 0.313534 0
M  V30 1144 O 103.645 1.78192 0.104896 0
M  V30 1145 C 100.745 3.3875 0.100974 0
M  V30 1146 C 99.9178 4.29008 -0.852687 0
M  V30 1147 C 98.9768 5.25944 -0.164152 0
M  V30 1148 O 98.0028 5.63535 -0.801047 0
M  V30 1149 N 99.2048 5.70075 1.09518 0
M  V30 1150 H 101.97 2.58249 -1.52077 0
M  V30 1151 H 99.5308 1.3156 -0.943594 0
M  V30 1152 H 101.523 4.00638 0.57194 0
M  V30 1153 H 100.093 2.99476 0.89628 0
M  V30 1154 H 99.3128 3.64419 -1.50308 0
M  V30 1155 H 100.601 4.86195 -1.49972 0
M  V30 1156 H 99.9988 5.41624 1.6328 0
M  V30 1157 H 98.5558 6.34067 1.51006 0
M  V30 1158 N 101.989 0.842826 1.3317 0
M  V30 1159 C 103.238 0.436738 1.96915 0
M  V30 1160 C 103.551 -1.01025 1.67491 0
M  V30 1161 O 104.757 -1.5212 2.24881 0
M  V30 1162 C 103.213 0.730021 3.52418 0
M  V30 1163 C 102.821 2.19195 3.90714 0
M  V30 1164 C 104.565 0.391076 4.22695 0
M  V30 1165 C 102.472 2.42907 5.39212 0
M  V30 1166 H 101.402 0.15958 0.736919 0
M  V30 1167 H 104.053 1.03196 1.51733 0
M  V30 1168 H 102.435 0.0643755 3.95948 0
M  V30 1169 H 103.609 2.8984 3.58231 0
M  V30 1170 H 101.924 2.49425 3.33431 0
M  V30 1171 H 104.521 0.545817 5.31907 0
M  V30 1172 H 104.864 -0.666294 4.10933 0
M  V30 1173 H 105.397 1.01212 3.84709 0
M  V30 1174 H 102.136 3.47224 5.55982 0
M  V30 1175 H 101.656 1.76827 5.73142 0
M  V30 1176 H 103.335 2.2626 6.06148 0
M  V30 1177 N 103.467 -1.45747 0.599634 0
M  V30 1178 C 104.414 -2.30467 -0.123849 0
M  V30 1179 C 105.384 -1.41632 -0.86774 0
M  V30 1180 O 106.569 -1.70568 -0.855056 0
M  V30 1181 C 103.709 -3.26402 -1.12051 0
M  V30 1182 C 102.822 -4.3034 -0.37832 0
M  V30 1183 C 101.957 -5.13389 -1.364 0
M  V30 1184 C 100.996 -6.09061 -0.609171 0
M  V30 1185 N 100.133 -6.84918 -1.54374 0
M  V30 1186 H 104.973 -2.91802 0.604627 0
M  V30 1187 H 102.51 -1.43797 0.309972 0
M  V30 1188 H 104.468 -3.80482 -1.7114 0
M  V30 1189 H 103.098 -2.66839 -1.8165 0
M  V30 1190 H 102.15 -3.78984 0.327929 0
M  V30 1191 H 103.462 -4.98354 0.210997 0
M  V30 1192 H 102.616 -5.7183 -2.02719 0
M  V30 1193 H 101.355 -4.45376 -1.98725 0
M  V30 1194 H 100.36 -5.49758 0.0676979 0
M  V30 1195 H 101.585 -6.79099 0.00891991 0
M  V30 1196 H 99.531 -6.19601 -2.15478 0
M  V30 1197 H 99.448 -7.49254 -1.00766 0
M  V30 1198 H 100.716 -7.47906 -2.19676 0
M  V30 1199 N 104.945 -0.338344 -1.53925 0
M  V30 1200 C 106.185 0.260168 -2.02737 0
M  V30 1201 C 106.549 1.48181 -1.22092 0
M  V30 1202 O 107.75 2.15416 -1.60777 0
M  V30 1203 C 106.021 0.571627 -3.52799 0
M  V30 1204 S 107.58 1.14769 -4.23525 0
M  V30 1205 H 104.398 0.077791 -0.706732 0
M  V30 1206 H 107 -0.474899 -1.89644 0
M  V30 1207 H 105.704 -0.325392 -4.09108 0
M  V30 1208 H 105.235 1.3365 -3.70002 0
M  V30 1209 H 107.25 2.43372 -4.32417 0
M  V30 1210 N 106.423 1.57458 -0.0668435 0
M  V30 1211 C 107.37 2.12439 0.902122 0
M  V30 1212 C 108.34 1.03565 1.2986 0
M  V30 1213 O 109.525 1.312 1.38532 0
M  V30 1214 C 106.665 2.6865 2.16614 0
M  V30 1215 C 105.778 3.91663 1.82274 0
M  V30 1216 C 104.913 4.36134 3.0325 0
M  V30 1217 C 103.952 5.51808 2.64904 0
M  V30 1218 N 103.089 5.9126 3.78624 0
M  V30 1219 H 107.929 2.94934 0.426382 0
M  V30 1220 H 105.466 1.4575 0.198819 0
M  V30 1221 H 107.424 2.99346 2.90599 0
M  V30 1222 H 106.054 1.88928 2.61737 0
M  V30 1223 H 105.106 3.6746 0.983719 0
M  V30 1224 H 106.418 4.75693 1.50059 0
M  V30 1225 H 105.572 4.68465 3.85519 0
M  V30 1226 H 104.311 3.50948 3.38655 0
M  V30 1227 H 103.316 5.19133 1.81055 0
M  V30 1228 H 104.541 6.38722 2.30675 0
M  V30 1229 H 102.487 5.09024 4.138 0
M  V30 1230 H 102.404 6.70018 3.5016 0
M  V30 1231 H 103.672 6.28212 4.61486 0
M  V30 1232 N 107.901 -0.206675 1.56239 0
M  V30 1233 C 109.129 -0.945345 1.8404 0
M  V30 1234 C 109.544 -1.77336 0.647885 0
M  V30 1235 O 108.901 -1.78425 -0.383511 0
M  V30 1236 C 108.952 -1.8509 3.10522 0
M  V30 1237 O 108.673 -1.05634 4.25174 0
M  V30 1238 C 110.174 -2.70222 3.51418 0
M  V30 1239 H 107.394 -0.276372 0.61144 0
M  V30 1240 H 109.938 -0.217417 2.03341 0
M  V30 1241 H 108.093 -2.53259 2.93153 0
M  V30 1242 H 108.507 -1.67238 4.97124 0
M  V30 1243 H 109.981 -3.29438 4.42916 0
M  V30 1244 H 110.458 -3.43358 2.73864 0
M  V30 1245 H 111.064 -2.07443 3.71278 0
M  V30 1246 N 109.379 -1.50304 -0.473955 0
M  V30 1247 C 110.327 -1.69482 -1.59307 0
M  V30 1248 C 111.321 -0.560669 -1.59853 0
M  V30 1249 O 112.527 -0.741087 -1.64036 0
M  V30 1250 H 108.902 -0.534892 -0.528578 0
M  V30 1251 H 110.873 -2.63364 -1.40293 0
M  V30 1252 C 109.622 -1.80354 -2.97267 0
M  V30 1253 H 108.945 -2.67012 -2.97564 0
M  V30 1254 H 110.385 -1.97798 -3.75036 0
M  V30 1255 C 108.844 -0.55448 -3.32306 0
M  V30 1256 O 109.374 0.307661 -4.0052 0
M  V30 1257 N 107.58 -0.409354 -2.87702 0
M  V30 1258 H 107.127 -1.11196 -2.32364 0
M  V30 1259 H 107.085 0.425223 -3.11511 0
M  V30 1260 N 110.857 0.726932 -1.39834 0
M  V30 1261 C 112.273 1.03354 -1.21615 0
M  V30 1262 C 112.473 2.01327 -0.08338 0
M  V30 1263 O 111.529 2.46158 0.56238 0
M  V30 1264 C 112.842 1.58811 -2.55342 0
M  V30 1265 C 114.39 1.70851 -2.62257 0
M  V30 1266 C 114.865 2.29716 -3.96225 0
M  V30 1267 N 116.356 2.37116 -3.97907 0
M  V30 1268 C 117.091 2.83619 -4.98345 0
M  V30 1269 N 116.587 3.29958 -6.09179 0
M  V30 1270 N 118.38 2.82901 -4.8572 0
M  V30 1271 H 110.531 0.0773069 -2.12259 0
M  V30 1272 H 112.794 0.0969102 -0.943034 0
M  V30 1273 H 112.5 0.942855 -3.38826 0
M  V30 1274 H 112.374 2.57502 -2.75632 0
M  V30 1275 H 114.761 2.34497 -1.79152 0
M  V30 1276 H 114.842 0.707913 -2.45809 0
M  V30 1277 H 114.486 1.66696 -4.79765 0
M  V30 1278 H 114.416 3.30469 -4.09997 0
M  V30 1279 H 116.907 2.04374 -3.17868 0
M  V30 1280 H 117.22 3.63976 -6.8172 0
M  V30 1281 H 115.565 3.27946 -6.12761 0
M  V30 1282 H 118.756 2.46027 -3.98231 0
M  V30 1283 H 118.929 3.18827 -5.6414 0
M  V30 1284 N 112.336 1.25143 0.95797 0
M  V30 1285 C 113.246 1.06968 2.08794 0
M  V30 1286 C 114.262 0.00773911 1.73998 0
M  V30 1287 O 115.438 0.207972 2.00323 0
M  V30 1288 C 112.503 0.68691 3.39827 0
M  V30 1289 C 111.564 1.82641 3.88511 0
M  V30 1290 C 110.797 1.46181 5.1329 0
M  V30 1291 O 111.02 0.355971 5.69288 0
M  V30 1292 O 109.954 2.29085 5.566 0
M  V30 1293 H 113.78 2.01723 2.27027 0
M  V30 1294 H 111.365 1.04051 1.07209 0
M  V30 1295 H 113.247 0.485417 4.18595 0
M  V30 1296 H 111.922 -0.231417 3.22872 0
M  V30 1297 H 110.829 2.08274 3.10762 0
M  V30 1298 H 112.162 2.72386 4.09959 0
M  V30 1299 N 113.814 -1.1601 1.06675 0
M  V30 1300 C 114.761 -2.20525 0.680967 0
M  V30 1301 C 115.731 -1.62904 -0.324283 0
M  V30 1302 O 116.916 -1.89615 -0.212294 0
M  V30 1303 C 114.056 -3.45013 0.0776551 0
M  V30 1304 C 113.169 -4.16863 1.13355 0
M  V30 1305 C 112.304 -5.2888 0.49597 0
M  V30 1306 C 111.343 -5.92537 1.53513 0
M  V30 1307 N 110.48 -6.96038 0.920631 0
M  V30 1308 H 115.32 -2.52876 1.57663 0
M  V30 1309 H 112.857 -1.24199 0.788223 0
M  V30 1310 H 114.815 -4.16193 -0.289704 0
M  V30 1311 H 113.445 -3.132 -0.781393 0
M  V30 1312 H 112.497 -3.44248 1.61857 0
M  V30 1313 H 113.809 -4.60294 1.92174 0
M  V30 1314 H 112.963 -6.06653 0.0758604 0
M  V30 1315 H 111.702 -4.86622 -0.324062 0
M  V30 1316 H 110.707 -5.13482 1.9651 0
M  V30 1317 H 111.932 -6.36873 2.35733 0
M  V30 1318 H 109.878 -6.55888 0.12138 0
M  V30 1319 H 109.795 -7.3786 1.64616 0
M  V30 1320 H 111.063 -7.77725 0.525795 0
M  V30 1321 N 115.292 -0.849877 -1.32721 0
M  V30 1322 C 116.539 -0.450923 -1.97416 0
M  V30 1323 C 116.867 0.992376 -1.67279 0
M  V30 1324 O 116.122 1.71048 -0.950845 0
M  V30 1325 C 116.421 -0.631272 -3.51781 0
M  V30 1326 C 116.087 -2.04432 -4.01894 0
M  V30 1327 C 114.749 -2.4308 -4.1529 0
M  V30 1328 C 117.101 -2.96679 -4.28522 0
M  V30 1329 C 114.429 -3.73257 -4.52654 0
M  V30 1330 C 116.781 -4.26349 -4.67343 0
M  V30 1331 C 115.445 -4.64939 -4.78945 0
M  V30 1332 H 114.715 -0.165004 -0.722395 0
M  V30 1333 H 117.362 -1.07901 -1.58207 0
M  V30 1334 H 115.667 0.0800767 -3.91718 0
M  V30 1335 H 117.364 -0.302709 -3.99856 0
M  V30 1336 H 113.954 -1.73419 -3.91949 0
M  V30 1337 H 118.138 -2.68054 -4.17685 0
M  V30 1338 H 113.394 -4.02946 -4.59831 0
M  V30 1339 H 117.568 -4.97895 -4.86902 0
M  V30 1340 H 115.195 -5.65855 -5.07654 0
M  V30 1341 N 116.77 1.45427 -0.607355 0
M  V30 1342 C 118 2.06314 -0.108656 0
M  V30 1343 C 118.408 1.45269 1.21217 0
M  V30 1344 O 117.751 0.561115 1.74921 0
M  V30 1345 C 117.813 3.59345 0.105618 0
M  V30 1346 C 117.477 4.42723 -1.13337 0
M  V30 1347 C 118.474 4.77715 -2.05145 0
M  V30 1348 C 116.159 4.83478 -1.36213 0
M  V30 1349 C 118.153 5.52317 -3.18158 0
M  V30 1350 C 115.84 5.57835 -2.49527 0
M  V30 1351 C 116.838 5.92171 -3.40327 0
M  V30 1352 O 116.526 6.65019 -4.51669 0
M  V30 1353 H 116.258 0.672782 -0.0658842 0
M  V30 1354 H 118.812 1.87664 -0.834945 0
M  V30 1355 H 117.042 3.76394 0.886796 0
M  V30 1356 H 118.731 4.02076 0.555886 0
M  V30 1357 H 119.497 4.46787 -1.88697 0
M  V30 1358 H 115.376 4.56188 -0.664362 0
M  V30 1359 H 118.92 5.79036 -3.89054 0
M  V30 1360 H 114.817 5.88177 -2.65928 0
M  V30 1361 H 115.585 6.83469 -4.50348 0
M  V30 1362 N 118.248 0.346503 1.53744 0
M  V30 1363 C 119.178 -0.501193 2.28058 0
M  V30 1364 C 120.159 -1.10014 1.29734 0
M  V30 1365 O 121.344 -1.12097 1.58581 0
M  V30 1366 C 118.474 -1.65078 3.05559 0
M  V30 1367 C 117.428 -1.18003 4.11411 0
M  V30 1368 C 116.754 -2.41837 4.76884 0
M  V30 1369 C 118.054 -0.278394 5.21558 0
M  V30 1370 H 119.748 0.11875 2.99164 0
M  V30 1371 H 117.294 0.0585531 1.43881 0
M  V30 1372 H 119.247 -2.25028 3.56287 0
M  V30 1373 H 117.971 -2.29767 2.32109 0
M  V30 1374 H 116.63 -0.603331 3.61601 0
M  V30 1375 H 116.278 -3.0494 4.00026 0
M  V30 1376 H 115.978 -2.1102 5.48402 0
M  V30 1377 H 117.502 -3.02508 5.30397 0
M  V30 1378 H 118.916 -0.784823 5.67903 0
M  V30 1379 H 117.313 -0.0619707 6.00068 0
M  V30 1380 H 118.383 0.684677 4.80042 0
M  V30 1381 N 119.726 -1.57421 0.075193 0
M  V30 1382 C 120.956 -1.97659 -0.601203 0
M  V30 1383 C 121.364 -0.952427 -1.63479 0
M  V30 1384 O 120.707 0.0688241 -1.83571 0
M  V30 1385 C 120.769 -3.34218 -1.32434 0
M  V30 1386 C 120.433 -4.5484 -0.443826 0
M  V30 1387 C 121.43 -5.19034 0.299969 0
M  V30 1388 C 119.115 -5.00952 -0.367709 0
M  V30 1389 C 121.109 -6.27695 1.10807 0
M  V30 1390 C 118.796 -6.09484 0.444058 0
M  V30 1391 C 119.794 -6.72719 1.18061 0
M  V30 1392 O 119.482 -7.79161 1.97898 0
M  V30 1393 H 119.214 -0.65494 -0.167422 0
M  V30 1394 H 121.768 -2.04886 0.145157 0
M  V30 1395 H 119.998 -3.23615 -2.11685 0
M  V30 1396 H 121.687 -3.59038 -1.89331 0
M  V30 1397 H 122.453 -4.84351 0.250776 0
M  V30 1398 H 118.332 -4.51509 -0.930638 0
M  V30 1399 H 121.876 -6.76982 1.68347 0
M  V30 1400 H 117.773 -6.43601 0.494803 0
M  V30 1401 H 118.541 -7.96055 1.90367 0
M  V30 1402 N 121.204 0.198386 -1.56346 0
M  V30 1403 C 122.152 1.26538 -1.95169 0
M  V30 1404 C 123.146 1.47295 -0.836685 0
M  V30 1405 O 124.352 1.48195 -1.02167 0
M  V30 1406 H 120.727 0.424744 -0.620561 0
M  V30 1407 H 122.698 0.910904 -2.84157 0
M  V30 1408 C 121.447 2.6035 -2.30463 0
M  V30 1409 H 120.77 2.45192 -3.15786 0
M  V30 1410 H 122.21 3.33762 -2.61494 0
M  V30 1411 C 120.669 3.17096 -1.13806 0
M  V30 1412 O 121.199 3.99588 -0.41135 0
M  V30 1413 N 119.405 2.75795 -0.915736 0
M  V30 1414 H 118.952 2.08816 -1.50843 0
M  V30 1415 H 118.91 3.14101 -0.136979 0
M  V30 1416 N 122.682 1.50554 0.465978 0
M  V30 1417 C 123.592 1.72585 1.58907 0
M  V30 1418 C 124.608 0.60911 1.6299 0
M  V30 1419 O 125.784 0.88804 1.80765 0
M  V30 1420 C 122.849 1.81995 2.95091 0
M  V30 1421 C 121.91 3.05751 3.01355 0
M  V30 1422 C 121.143 3.14702 4.31043 0
M  V30 1423 O 121.366 2.30313 5.21835 0
M  V30 1424 O 120.3 4.07468 4.43005 0
M  V30 1425 H 124.126 2.67799 1.43239 0
M  V30 1426 H 121.711 1.34711 0.646013 0
M  V30 1427 H 123.593 1.90335 3.75966 0
M  V30 1428 H 122.268 0.899659 3.10947 0
M  V30 1429 H 121.175 3.02908 2.19539 0
M  V30 1430 H 122.508 3.97375 2.90437 0
M  V30 1431 N 124.16 -0.719506 1.40217 0
M  V30 1432 C 125.09 -1.8465 1.42922 0
M  V30 1433 C 126.071 -1.67599 0.29062 0
M  V30 1434 O 127.256 -1.87688 0.498677 0
M  V30 1435 C 124.386 -3.22565 1.28722 0
M  V30 1436 C 123.34 -3.54281 2.40144 0
M  V30 1437 C 122.666 -4.91298 2.11023 0
M  V30 1438 C 123.966 -3.55676 3.82481 0
M  V30 1439 H 125.66 -1.82644 2.37237 0
M  V30 1440 H 123.206 -0.877305 1.1419 0
M  V30 1441 H 125.159 -4.01095 1.29232 0
M  V30 1442 H 123.883 -3.25137 0.308811 0
M  V30 1443 H 122.542 -2.78088 2.38877 0
M  V30 1444 H 122.19 -4.90468 1.11582 0
M  V30 1445 H 121.89 -5.13485 2.8567 0
M  V30 1446 H 123.414 -5.72166 2.13209 0
M  V30 1447 H 124.828 -4.24254 3.85592 0
M  V30 1448 H 123.225 -3.89388 4.56614 0
M  V30 1449 H 124.295 -2.55144 4.12346 0
M  V30 1450 N 125.638 -1.25649 -0.95132 0
M  V30 1451 C 126.863 -1.13443 -1.73624 0
M  V30 1452 C 127.288 0.307565 -1.85568 0
M  V30 1453 O 126.646 1.22282 -1.33854 0
M  V30 1454 C 126.694 -1.79723 -3.12621 0
M  V30 1455 O 125.798 -1.07912 -3.98031 0
M  V30 1456 H 125.139 -0.395872 -0.533086 0
M  V30 1457 H 127.669 -1.66276 -1.1922 0
M  V30 1458 H 127.679 -1.86141 -3.63064 0
M  V30 1459 H 126.354 -2.84633 -3.03244 0
M  V30 1460 H 124.931 -1.09398 -3.56492 0
M  V30 1461 N 127.117 1.15442 -1.07289 0
M  V30 1462 C 128.047 2.22312 -0.714107 0
M  V30 1463 C 129.028 1.67467 0.298155 0
M  V30 1464 O 130.213 1.93445 0.171048 0
M  V30 1465 C 127.343 3.47124 -0.110448 0
M  V30 1466 C 126.297 4.14926 -1.04979 0
M  V30 1467 C 125.623 5.33807 -0.308924 0
M  V30 1468 C 126.923 4.64762 -2.38314 0
M  V30 1469 H 128.617 2.5258 -1.6076 0
M  V30 1470 H 126.163 1.21404 -0.77441 0
M  V30 1471 H 128.116 4.21124 0.152482 0
M  V30 1472 H 126.84 3.16187 0.81812 0
M  V30 1473 H 125.499 3.42866 -1.29764 0
M  V30 1474 H 125.147 4.99126 0.623084 0
M  V30 1475 H 124.847 5.80113 -0.935036 0
M  V30 1476 H 126.371 6.10576 -0.0537771 0
M  V30 1477 H 127.785 5.30292 -2.1786 0
M  V30 1478 H 126.182 5.21728 -2.96514 0
M  V30 1479 H 127.252 3.80434 -3.00663 0
M  V30 1480 N 128.595 0.856903 1.32268 0
M  V30 1481 C 129.823 0.475439 2.01363 0
M  V30 1482 C 130.238 -0.928486 1.64392 0
M  V30 1483 O 129.595 -1.60624 0.866387 0
M  V30 1484 C 129.646 0.607545 3.56358 0
M  V30 1485 O 129.367 1.95617 3.92002 0
M  V30 1486 C 130.868 0.225382 4.42727 0
M  V30 1487 H 128.088 0.186636 0.644521 0
M  V30 1488 H 130.632 1.15446 1.68797 0
M  V30 1489 H 128.787 -0.0237719 3.87393 0
M  V30 1490 H 129.201 1.95455 4.86721 0
M  V30 1491 H 130.675 0.368813 5.50767 0
M  V30 1492 H 131.152 -0.834369 4.31202 0
M  V30 1493 H 131.758 0.831864 4.17085 0
M  V30 1494 N 130.073 -1.45103 0.615059 0
M  V30 1495 C 131.301 -2.06553 0.11977 0
M  V30 1496 C 131.716 -1.45842 -1.19898 0
M  V30 1497 O 131.073 -0.575325 -1.73194 0
M  V30 1498 C 131.124 -3.61495 -0.018364 0
M  V30 1499 O 130.845 -4.19942 1.24822 0
M  V30 1500 C 132.346 -4.39947 -0.544237 0
M  V30 1501 H 129.566 -0.667096 0.0722739 0
M  V30 1502 H 132.11 -1.8623 0.84491 0
M  V30 1503 H 130.265 -3.81135 -0.693865 0
M  V30 1504 H 130.679 -5.13204 1.0827 0
M  V30 1505 H 132.153 -5.48838 -0.589953 0
M  V30 1506 H 132.63 -4.10255 -1.56805 0
M  V30 1507 H 133.236 -4.25188 0.0974703 0
M  V30 1508 N 131.551 -0.354651 -1.53558 0
M  V30 1509 C 132.461 0.50515 -2.29097 0
M  V30 1510 C 133.477 1.10223 -1.34636 0
M  V30 1511 O 134.653 1.11553 -1.67684 0
M  V30 1512 C 131.718 1.63479 -3.05738 0
M  V30 1513 C 130.779 1.06636 -4.15845 0
M  V30 1514 C 130.012 2.14217 -4.88822 0
M  V30 1515 O 130.235 3.35137 -4.61562 0
M  V30 1516 O 129.169 1.77887 -5.75013 0
M  V30 1517 H 132.995 -0.109237 -3.03503 0
M  V30 1518 H 130.58 -0.119357 -1.48922 0
M  V30 1519 H 132.462 2.2918 -3.5363 0
M  V30 1520 H 131.137 2.23478 -2.34178 0
M  V30 1521 H 130.044 0.373565 -3.7223 0
M  V30 1522 H 131.377 0.511081 -4.89539 0
M  V30 1523 N 133.029 1.57378 -0.0835403 0
M  V30 1524 C 134.259 1.97975 0.590713 0
M  V30 1525 C 134.667 0.961083 1.62972 0
M  V30 1526 O 134.01 -0.0590879 1.83605 0
M  V30 1527 C 134.072 3.34915 1.3066 0
M  V30 1528 C 133.736 4.55069 0.419698 0
M  V30 1529 C 134.733 5.18868 -0.32749 0
M  V30 1530 C 132.418 5.0114 0.341137 0
M  V30 1531 C 134.412 6.27098 -1.14134 0
M  V30 1532 C 132.099 6.0924 -0.476374 0
M  V30 1533 C 133.097 6.72083 -1.21627 0
M  V30 1534 O 132.785 7.781 -2.02028 0
M  V30 1535 H 132.517 0.655818 0.163947 0
M  V30 1536 H 135.071 2.04807 -0.156021 0
M  V30 1537 H 133.301 3.24733 2.09966 0
M  V30 1538 H 134.99 3.60037 1.87424 0
M  V30 1539 H 135.756 4.84211 -0.276459 0
M  V30 1540 H 131.635 4.51996 0.90668 0
M  V30 1541 H 135.179 6.7608 -1.71935 0
M  V30 1542 H 131.076 6.43329 -0.528927 0
M  V30 1543 H 131.844 7.95034 -1.94586 0
M  V30 1544 N 134.507 -0.190092 1.56449 0
M  V30 1545 C 135.737 -0.92443 1.84764 0
M  V30 1546 C 136.145 -1.77146 0.664529 0
M  V30 1547 O 135.488 -1.79812 -0.375957 0
M  V30 1548 C 135.55 -1.86651 3.07248 0
M  V30 1549 C 135.214 -1.20094 4.40938 0
M  V30 1550 C 136.211 -0.575445 5.16706 0
M  V30 1551 C 133.896 -1.2033 4.87674 0
M  V30 1552 C 135.89 0.0388111 6.37388 0
M  V30 1553 C 133.577 -0.585214 6.08291 0
M  V30 1554 C 134.575 0.0347578 6.82991 0
M  V30 1555 O 134.263 0.643147 8.01323 0
M  V30 1556 H 133.995 -0.274974 0.617548 0
M  V30 1557 H 136.549 -0.200788 2.04416 0
M  V30 1558 H 134.779 -2.62998 2.83494 0
M  V30 1559 H 136.468 -2.46907 3.22167 0
M  V30 1560 H 137.234 -0.565728 4.81689 0
M  V30 1561 H 133.113 -1.67526 4.29484 0
M  V30 1562 H 136.657 0.523329 6.95634 0
M  V30 1563 H 132.554 -0.592451 6.42775 0
M  V30 1564 H 133.322 0.540545 8.16713 0
M  V30 1565 N 135.985 -1.50799 -0.457987 0
M  V30 1566 C 137.215 -1.65977 -1.23025 0
M  V30 1567 C 137.623 -0.347918 -1.85974 0
M  V30 1568 O 136.966 0.68148 -1.70592 0
M  V30 1569 C 137.028 -2.70309 -2.3701 0
M  V30 1570 C 136.692 -4.135 -1.94594 0
M  V30 1571 C 137.689 -4.98949 -1.46101 0
M  V30 1572 C 135.374 -4.5949 -2.02915 0
M  V30 1573 C 137.368 -6.28442 -1.06489 0
M  V30 1574 C 135.055 -5.88984 -1.62914 0
M  V30 1575 C 136.053 -6.73286 -1.1478 0
M  V30 1576 O 135.741 -8.00362 -0.75339 0
M  V30 1577 H 135.473 -0.56064 -0.377702 0
M  V30 1578 H 138.027 -1.97857 -0.551537 0
M  V30 1579 H 136.257 -2.337 -3.08093 0
M  V30 1580 H 137.946 -2.74574 -2.98938 0
M  V30 1581 H 138.712 -4.6463 -1.39084 0
M  V30 1582 H 134.591 -3.94009 -2.39328 0
M  V30 1583 H 138.135 -6.94194 -0.688488 0
M  V30 1584 H 134.032 -6.22822 -1.69595 0
M  V30 1585 H 134.8 -8.13744 -0.88108 0
M  V30 1586 N 137.463 0.71206 -1.40597 0
M  V30 1587 C 138.874 1.29135 -1.34837 0
M  V30 1588 C 139.225 1.96186 -0.0235395 0
M  V30 1589 O 138.35 1.97768 0.878444 0
M  V30 1590 C 138.945 2.34827 -2.44217 0
M  V30 1591 C 137.504 2.88371 -2.41907 0
M  V30 1592 C 136.651 1.62202 -2.24913 0
M  V30 1593 H 139.602 0.507944 -1.50352 0
M  V30 1594 H 139.623 3.15749 -2.12327 0
M  V30 1595 H 139.135 1.85996 -3.40627 0
M  V30 1596 H 137.236 3.41422 -1.49204 0
M  V30 1597 H 137.349 3.39925 -3.37621 0
M  V30 1598 H 135.713 1.874 -1.72492 0
M  V30 1599 H 136.496 1.15391 -3.23326 0
M  V30 1600 N 138.941 1.26152 0.944643 0
M  V30 1601 C 139.871 1.09902 2.06019 0
M  V30 1602 C 140.852 0.00519538 1.70099 0
M  V30 1603 O 142.037 0.176583 1.93396 0
M  V30 1604 C 139.167 0.727562 3.39594 0
M  V30 1605 C 138.121 1.77274 3.89561 0
M  V30 1606 C 137.447 1.25569 5.19747 0
M  V30 1607 C 138.747 3.17357 4.14827 0
M  V30 1608 H 140.441 2.03217 2.19871 0
M  V30 1609 H 137.987 0.978452 1.05652 0
M  V30 1610 H 139.94 0.600777 4.17095 0
M  V30 1611 H 138.664 -0.241287 3.25707 0
M  V30 1612 H 137.323 1.88814 3.14237 0
M  V30 1613 H 136.971 0.276783 5.02238 0
M  V30 1614 H 136.671 1.95433 5.54148 0
M  V30 1615 H 138.195 1.1415 5.99835 0
M  V30 1616 H 139.609 3.08914 4.82954 0
M  V30 1617 H 138.006 3.84781 4.60504 0
M  V30 1618 H 139.076 3.63673 3.20734 0
M  V30 1619 N 140.419 -1.14872 1.07899 0
M  V30 1620 C 141.351 -2.19425 0.662231 0
M  V30 1621 C 142.364 -1.60231 -0.288079 0
M  V30 1622 O 143.553 -1.78336 -0.076534 0
M  V30 1623 C 140.653 -3.38867 -0.0470695 0
M  V30 1624 C 139.826 -4.27597 0.920831 0
M  V30 1625 C 138.885 -5.25616 0.247805 0
M  V30 1626 O 137.911 -5.62189 0.890599 0
M  V30 1627 N 139.113 -5.71746 -1.00435 0
M  V30 1628 H 141.878 -2.55797 1.56166 0
M  V30 1629 H 139.439 -1.30042 0.964404 0
M  V30 1630 H 141.431 -4.01497 -0.50813 0
M  V30 1631 H 140.001 -3.00864 -0.848523 0
M  V30 1632 H 139.221 -3.61982 1.56087 0
M  V30 1633 H 140.509 -4.83748 1.57688 0
M  V30 1634 H 139.907 -5.44153 -1.54642 0
M  V30 1635 H 138.464 -6.36389 -1.40899 0
M  V30 1636 N 141.898 -0.863906 -1.31812 0
M  V30 1637 C 142.846 -0.30422 -2.30602 0
M  V30 1638 C 143.84 0.577419 -1.59255 0
M  V30 1639 O 145.046 0.464194 -1.73912 0
M  V30 1640 H 141.421 -0.0796877 -0.747766 0
M  V30 1641 H 143.392 -1.15148 -2.75288 0
M  V30 1642 C 142.141 0.484617 -3.44306 0
M  V30 1643 H 141.464 -0.18451 -3.99374 0
M  V30 1644 H 142.904 0.841664 -4.15562 0
M  V30 1645 C 141.363 1.6735 -2.92396 0
M  V30 1646 O 141.893 2.77273 -2.90659 0
M  V30 1647 N 140.099 1.50362 -2.48676 0
M  V30 1648 H 139.646 0.609402 -2.50288 0
M  V30 1649 H 139.604 2.30051 -2.14299 0
M  V30 1650 N 143.376 1.44774 -0.622745 0
M  V30 1651 C 144.339 2.29069 0.0774015 0
M  V30 1652 C 145.339 1.4059 0.780461 0
M  V30 1653 O 146.529 1.62551 0.626322 0
M  V30 1654 C 143.661 3.21974 1.12006 0
M  V30 1655 H 144.854 2.92459 -0.663901 0
M  V30 1656 H 142.407 1.51548 -0.382486 0
M  V30 1657 H 143.142 2.63417 1.89162 0
M  V30 1658 H 142.927 3.87168 0.619951 0
M  V30 1659 H 144.417 3.85318 1.60995 0
M  V30 1660 N 144.854 0.36279 1.53368 0
M  V30 1661 C 146.103 -0.22888 2.00397 0
M  V30 1662 C 146.416 -1.50096 1.25421 0
M  V30 1663 O 147.622 -2.17106 1.63025 0
M  V30 1664 C 146.078 -0.458417 3.56969 0
M  V30 1665 C 145.686 0.798877 4.4082 0
M  V30 1666 C 147.43 -1.00789 4.12361 0
M  V30 1667 C 145.337 0.539078 5.88938 0
M  V30 1668 H 144.267 -0.089305 0.748693 0
M  V30 1669 H 146.918 0.481099 1.77081 0
M  V30 1670 H 145.3 -1.22959 3.76427 0
M  V30 1671 H 146.474 1.57262 4.33134 0
M  V30 1672 H 144.789 1.27137 3.96516 0
M  V30 1673 H 147.386 -1.21754 5.20653 0
M  V30 1674 H 147.729 -1.9692 3.66781 0
M  V30 1675 H 148.262 -0.296961 3.9669 0
M  V30 1676 H 145.001 1.47064 6.3879 0
M  V30 1677 H 144.521 -0.196222 5.99479 0
M  V30 1678 H 146.2 0.163542 6.46793 0
M  V30 1679 N 146.332 -1.57332 0.0918853 0
M  V30 1680 C 147.581 -1.93412 -0.572249 0
M  V30 1681 C 147.894 -0.975515 -1.69538 0
M  V30 1682 O 149.1 -1.22991 -2.42045 0
M  V30 1683 C 147.556 -3.43648 -1.0693 0
M  V30 1684 C 147.164 -4.47994 0.0239049 0
M  V30 1685 C 148.908 -3.88695 -1.70635 0
M  V30 1686 C 146.815 -5.89381 -0.488319 0
M  V30 1687 H 145.745 -0.721939 -0.217532 0
M  V30 1688 H 148.396 -1.82735 0.167369 0
M  V30 1689 H 146.778 -3.49466 -1.8625 0
M  V30 1690 H 147.952 -4.53815 0.799277 0
M  V30 1691 H 146.267 -4.12536 0.565946 0
M  V30 1692 H 148.864 -4.91725 -2.10025 0
M  V30 1693 H 149.207 -3.27166 -2.57426 0
M  V30 1694 H 149.74 -3.85564 -0.979023 0
M  V30 1695 H 146.479 -6.54602 0.342906 0
M  V30 1696 H 145.999 -5.87037 -1.23077 0
M  V30 1697 H 147.678 -6.39863 -0.958317 0
M  V30 1698 N 147.81 0.181792 -1.56548 0
M  V30 1699 C 148.72 1.24538 -1.98815 0
M  V30 1700 C 149.736 1.49045 -0.897861 0
M  V30 1701 O 150.912 1.61399 -1.20467 0
M  V30 1702 C 147.977 2.56683 -2.33055 0
M  V30 1703 C 147.038 2.40131 -3.55859 0
M  V30 1704 C 146.271 3.65975 -3.88456 0
M  V30 1705 O 146.494 4.70711 -3.22161 0
M  V30 1706 O 145.428 3.6071 -4.81842 0
M  V30 1707 H 149.254 0.916647 -2.89536 0
M  V30 1708 H 146.839 0.387842 -1.44278 0
M  V30 1709 H 148.721 3.34655 -2.56094 0
M  V30 1710 H 147.396 2.89157 -1.45498 0
M  V30 1711 H 146.303 1.60226 -3.38051 0
M  V30 1712 H 147.636 2.12585 -4.43924 0
M  V30 1713 N 149.288 1.51039 0.449983 0
M  V30 1714 C 150.535 1.63081 1.20045 0
M  V30 1715 C 150.863 0.341024 1.91487 0
M  V30 1716 O 150.118 -0.674276 1.83717 0
M  V30 1717 C 150.417 2.77556 2.25161 0
M  V30 1718 C 150.083 4.17289 1.70823 0
M  V30 1719 C 148.745 4.55305 1.55725 0
M  V30 1720 C 151.097 5.04536 1.3074 0
M  V30 1721 C 148.425 5.78287 0.989999 0
M  V30 1722 C 150.777 6.28085 0.754482 0
M  V30 1723 C 149.441 6.64885 0.590308 0
M  V30 1724 H 148.711 0.596755 0.439277 0
M  V30 1725 H 151.358 1.85037 0.49333 0
M  V30 1726 H 149.663 2.49771 3.01863 0
M  V30 1727 H 151.36 2.84073 2.83026 0
M  V30 1728 H 147.95 3.8731 1.83546 0
M  V30 1729 H 152.134 4.75782 1.41229 0
M  V30 1730 H 147.39 6.05456 0.850451 0
M  V30 1731 H 151.564 6.95038 0.435324 0
M  V30 1732 H 149.191 7.60055 0.14862 0
M  V30 1733 N 150.766 -0.704594 1.40972 0
M  V30 1734 C 151.996 -1.49138 1.42974 0
M  V30 1735 C 152.404 -1.89175 0.0308406 0
M  V30 1736 O 151.747 -1.56734 -0.958138 0
M  V30 1737 C 151.809 -2.79016 2.26694 0
M  V30 1738 C 151.473 -2.61236 3.74973 0
M  V30 1739 C 152.47 -2.27773 4.67349 0
M  V30 1740 C 150.155 -2.77158 4.18914 0
M  V30 1741 C 152.149 -2.10457 6.01653 0
M  V30 1742 C 149.836 -2.59459 5.53285 0
M  V30 1743 C 150.834 -2.26158 6.4447 0
M  V30 1744 O 150.522 -2.08605 7.76363 0
M  V30 1745 H 150.254 -0.466443 0.489292 0
M  V30 1746 H 152.808 -0.8758 1.85793 0
M  V30 1747 H 151.038 -3.42947 1.78673 0
M  V30 1748 H 152.727 -3.40782 2.20504 0
M  V30 1749 H 153.493 -2.15095 4.34694 0
M  V30 1750 H 149.372 -3.02064 3.48251 0
M  V30 1751 H 152.916 -1.84387 6.72791 0
M  V30 1752 H 148.813 -2.71725 5.85522 0
M  V30 1753 H 149.581 -2.23439 7.87412 0
M  V30 1754 N 152.244 -1.26651 -0.937939 0
M  V30 1755 C 153.472 -1.15173 -1.7188 0
M  V30 1756 C 153.887 0.292668 -1.86518 0
M  V30 1757 O 153.244 1.20014 -1.37488 0
M  V30 1758 C 153.295 -1.81925 -3.12387 0
M  V30 1759 O 153.016 -3.2072 -2.98446 0
M  V30 1760 C 154.517 -1.76442 -4.06673 0
M  V30 1761 H 151.737 -0.400911 -0.538063 0
M  V30 1762 H 154.281 -1.67332 -1.1756 0
M  V30 1763 H 152.436 -1.33696 -3.63599 0
M  V30 1764 H 152.85 -3.53802 -3.872 0
M  V30 1765 H 154.324 -2.27781 -5.02812 0
M  V30 1766 H 154.801 -0.731608 -4.33064 0
M  V30 1767 H 155.407 -2.24238 -3.61382 0
M  V30 1768 N 153.722 1.14298 -1.08507 0
M  V30 1769 C 154.632 2.23027 -0.727753 0
M  V30 1770 C 155.648 1.71952 0.26619 0
M  V30 1771 O 156.824 2.011 0.109882 0
M  V30 1772 C 153.889 3.46403 -0.143541 0
M  V30 1773 C 152.95 4.12413 -1.19223 0
M  V30 1774 C 152.183 5.29899 -0.635798 0
M  V30 1775 O 152.406 5.67796 0.544393 0
M  V30 1776 O 151.34 5.85717 -1.38634 0
M  V30 1777 H 155.166 2.55945 -1.63481 0
M  V30 1778 H 152.751 1.22248 -0.858817 0
M  V30 1779 H 154.633 4.21018 0.179404 0
M  V30 1780 H 153.308 3.15206 0.736659 0
M  V30 1781 H 152.215 3.39667 -1.56772 0
M  V30 1782 H 153.548 4.47718 -2.04474 0
M  V30 1783 N 155.201 0.870884 1.31352 0
M  V30 1784 C 156.431 0.496049 2.00557 0
M  V30 1785 C 156.839 -0.916241 1.65534 0
M  V30 1786 O 156.182 -1.61188 0.881134 0
M  V30 1787 C 156.244 0.574418 3.54881 0
M  V30 1788 C 155.908 1.94849 4.1338 0
M  V30 1789 C 156.905 2.91611 4.30417 0
M  V30 1790 C 154.59 2.25005 4.49086 0
M  V30 1791 C 156.584 4.16672 4.82352 0
M  V30 1792 C 154.271 3.50315 5.00722 0
M  V30 1793 C 155.269 4.45964 5.17306 0
M  V30 1794 O 154.957 5.69052 5.67833 0
M  V30 1795 H 154.689 0.191664 0.64826 0
M  V30 1796 H 157.243 1.17409 1.68536 0
M  V30 1797 H 155.473 -0.160549 3.86367 0
M  V30 1798 H 157.162 0.212879 4.05341 0
M  V30 1799 H 157.928 2.69622 4.03149 0
M  V30 1800 H 153.807 1.51332 4.35453 0
M  V30 1801 H 157.351 4.91336 4.95211 0
M  V30 1802 H 153.248 3.72147 5.27424 0
M  V30 1803 H 154.016 5.71236 5.86201 0
M  V30 1804 N 156.679 -1.44442 0.630414 0
M  V30 1805 C 157.909 -2.06115 0.141465 0
M  V30 1806 C 158.317 -1.47179 -1.1889 0
M  V30 1807 O 157.66 -0.588873 -1.74006 0
M  V30 1808 C 157.722 -3.59467 -0.0484355 0
M  V30 1809 C 157.386 -4.40864 1.20366 0
M  V30 1810 C 158.383 -4.74391 2.12719 0
M  V30 1811 C 156.068 -4.8125 1.43887 0
M  V30 1812 C 158.062 -5.47186 3.26904 0
M  V30 1813 C 155.749 -5.53795 2.5837 0
M  V30 1814 C 156.747 -5.86682 3.49705 0
M  V30 1815 O 156.435 -6.57749 4.62191 0
M  V30 1816 H 156.167 -0.671648 0.0765792 0
M  V30 1817 H 158.721 -1.86312 0.864695 0
M  V30 1818 H 156.951 -3.77758 -0.826803 0
M  V30 1819 H 158.64 -4.02909 -0.491849 0
M  V30 1820 H 159.406 -4.43728 1.95781 0
M  V30 1821 H 155.285 -4.55073 0.736853 0
M  V30 1822 H 158.829 -5.72773 3.98217 0
M  V30 1823 H 154.726 -5.83872 2.75251 0
M  V30 1824 H 155.494 -6.76217 4.61164 0
M  V30 1825 N 158.157 -0.370918 -1.53173 0
M  V30 1826 C 159.104 0.473035 -2.259 0
M  V30 1827 C 160.074 1.07311 -1.26781 0
M  V30 1828 O 161.259 1.1046 -1.55574 0
M  V30 1829 C 158.399 1.60405 -3.05556 0
M  V30 1830 C 157.512 1.02863 -4.19575 0
M  V30 1831 C 156.647 2.12918 -4.86661 0
M  V30 1832 C 155.686 1.52869 -5.92704 0
M  V30 1833 N 154.823 2.56779 -6.53459 0
M  V30 1834 H 159.663 -0.153649 -2.97604 0
M  V30 1835 H 157.2 -0.0875946 -1.46839 0
M  V30 1836 H 159.158 2.27034 -3.50016 0
M  V30 1837 H 157.788 2.20131 -2.36097 0
M  V30 1838 H 156.84 0.252465 -3.79561 0
M  V30 1839 H 158.152 0.549642 -4.95762 0
M  V30 1840 H 157.306 2.87356 -5.34333 0
M  V30 1841 H 156.045 2.6417 -4.09958 0
M  V30 1842 H 155.05 0.769479 -5.44389 0
M  V30 1843 H 156.275 1.02435 -6.7133 0
M  V30 1844 H 154.221 3.07235 -5.79606 0
M  V30 1845 H 154.138 2.13583 -7.25202 0
M  V30 1846 H 155.406 3.30903 -7.05779 0
M  V30 1847 N 159.635 1.57281 -0.100228 0
M  V30 1848 C 160.863 1.98879 0.570509 0
M  V30 1849 C 161.278 0.979476 1.61405 0
M  V30 1850 O 160.635 -0.0302288 1.82475 0
M  V30 1851 C 160.686 3.4052 1.2136 0
M  V30 1852 O 160.407 4.37588 0.211786 0
M  V30 1853 C 161.908 3.97149 1.96945 0
M  V30 1854 H 159.128 0.653428 0.152555 0
M  V30 1855 H 161.672 2.03697 -0.18103 0
M  V30 1856 H 159.827 3.367 1.91603 0
M  V30 1857 H 160.241 5.20118 0.676607 0
M  V30 1858 H 161.715 4.98393 2.37294 0
M  V30 1859 H 162.192 3.3525 2.83733 0
M  V30 1860 H 162.798 4.04458 1.31506 0
M  V30 1861 N 161.113 -0.173488 1.56642 0
M  V30 1862 C 162.061 -1.23417 1.97157 0
M  V30 1863 C 163.055 -1.45946 0.860013 0
M  V30 1864 O 164.261 -1.46551 1.04512 0
M  V30 1865 H 160.636 -0.414818 0.62724 0
M  V30 1866 H 162.607 -0.865582 2.8557 0
M  V30 1867 C 161.356 -2.5665 2.34576 0
M  V30 1868 H 160.679 -2.40137 3.19647 0
M  V30 1869 H 162.119 -3.2956 2.6677 0
M  V30 1870 C 160.578 -3.15245 1.18836 0
M  V30 1871 O 161.108 -3.98883 0.474869 0
M  V30 1872 N 159.314 -2.74303 0.959497 0
M  V30 1873 H 158.861 -2.0639 1.54146 0
M  V30 1874 H 158.819 -3.13844 0.186932 0
M  V30 1875 N 162.591 -1.51276 -0.441967 0
M  V30 1876 C 163.816 -1.67799 -1.21895 0
M  V30 1877 C 164.241 -0.372864 -1.84367 0
M  V30 1878 O 163.599 0.666501 -1.68604 0
M  V30 1879 C 163.647 -2.79199 -2.28211 0
M  V30 1880 O 162.751 -2.42479 -3.33583 0
M  V30 1881 H 162.092 -0.559649 -0.357336 0
M  V30 1882 H 164.622 -1.97815 -0.522522 0
M  V30 1883 H 164.632 -3.03146 -2.73069 0
M  V30 1884 H 163.307 -3.73906 -1.82118 0
M  V30 1885 H 161.884 -2.29087 -2.94234 0
M  V30 1886 N 164.069 0.697108 -1.41344 0
M  V30 1887 C 165.318 1.45279 -1.39918 0
M  V30 1888 C 165.631 1.95597 -0.0109624 0
M  V30 1889 O 166.837 2.71208 0.125919 0
M  V30 1890 C 165.293 2.62695 -2.46007 0
M  V30 1891 C 164.901 2.19169 -3.90729 0
M  V30 1892 C 166.645 3.40336 -2.53715 0
M  V30 1893 C 164.552 3.33535 -4.88373 0
M  V30 1894 H 163.482 0.545692 -0.520323 0
M  V30 1895 H 166.133 0.756929 -1.67161 0
M  V30 1896 H 164.515 3.34541 -2.11892 0
M  V30 1897 H 165.689 1.54623 -4.34083 0
M  V30 1898 H 164.004 1.54525 -3.86666 0
M  V30 1899 H 166.601 4.2547 -3.2385 0
M  V30 1900 H 166.944 3.85418 -1.5735 0
M  V30 1901 H 167.477 2.75546 -2.86913 0
M  V30 1902 H 164.216 2.93468 -5.86137 0
M  V30 1903 H 163.736 3.96936 -4.49668 0
M  V30 1904 H 165.415 3.99335 -5.09059 0
M  V30 1905 N 165.547 1.27147 0.931209 0
M  V30 1906 C 166.495 1.09398 2.05268 0
M  V30 1907 C 167.489 0.0180591 1.6939 0
M  V30 1908 O 168.695 0.17551 1.79142 0
M  V30 1909 H 165.07 0.336986 0.672268 0
M  V30 1910 H 167.041 2.04416 2.17386 0
M  V30 1911 C 165.79 0.75424 3.39421 0
M  V30 1912 H 165.113 1.57404 3.67511 0
M  V30 1913 H 166.553 0.669903 4.18674 0
M  V30 1914 C 165.012 -0.541197 3.32525 0
M  V30 1915 O 165.542 -1.57664 3.69466 0
M  V30 1916 N 163.748 -0.535517 2.85623 0
M  V30 1917 H 163.295 0.307511 2.55758 0
M  V30 1918 H 163.253 -1.40236 2.81392 0
M  V30 1919 N 167.025 -1.13721 1.09112 0
M  V30 1920 C 167.935 -2.22638 0.73957 0
M  V30 1921 C 168.951 -1.72091 -0.257068 0
M  V30 1922 O 170.127 -2.01155 -0.0992154 0
M  V30 1923 C 167.192 -3.46322 0.16191 0
M  V30 1924 C 166.253 -4.11775 1.21408 0
M  V30 1925 C 165.486 -5.29555 0.663891 0
M  V30 1926 O 165.709 -5.68077 -0.514274 0
M  V30 1927 O 164.643 -5.84973 1.41738 0
M  V30 1928 H 168.469 -2.55074 1.64836 0
M  V30 1929 H 166.054 -1.21791 0.865289 0
M  V30 1930 H 167.936 -4.21107 -0.157073 0
M  V30 1931 H 166.611 -3.15593 -0.719932 0
M  V30 1932 H 165.518 -3.3883 1.58571 0
M  V30 1933 H 166.851 -4.46627 2.06845 0
M  V30 1934 N 168.503 -0.877838 -1.30888 0
M  V30 1935 C 169.45 -0.337538 -2.28318 0
M  V30 1936 C 170.42 0.568346 -1.56074 0
M  V30 1937 O 171.605 0.498298 -1.84178 0
M  V30 1938 C 168.745 0.448142 -3.42178 0
M  V30 1939 C 167.858 -0.48615 -4.29256 0
M  V30 1940 C 166.993 0.314427 -5.30269 0
M  V30 1941 C 166.032 -0.615791 -6.08995 0
M  V30 1942 N 165.169 0.14902 -7.01942 0
M  V30 1943 H 170.009 -1.17356 -2.73919 0
M  V30 1944 H 167.546 -0.590094 -1.34745 0
M  V30 1945 H 169.504 0.919517 -4.06941 0
M  V30 1946 H 168.134 1.24879 -2.97666 0
M  V30 1947 H 167.186 -1.076 -3.64865 0
M  V30 1948 H 168.498 -1.19909 -4.84173 0
M  V30 1949 H 167.652 0.847969 -6.00745 0
M  V30 1950 H 166.391 1.06062 -4.76027 0
M  V30 1951 H 165.396 -1.16102 -5.37401 0
M  V30 1952 H 166.621 -1.36097 -6.65323 0
M  V30 1953 H 164.567 0.877884 -6.50099 0
M  V30 1954 H 164.484 -0.504433 -7.54315 0
M  V30 1955 H 165.752 0.663537 -7.76671 0
M  V30 1956 N 169.982 1.44106 -0.638065 0
M  V30 1957 C 170.915 2.27924 0.112161 0
M  V30 1958 C 171.893 1.38945 0.844574 0
M  V30 1959 O 173.077 1.68386 0.847248 0
M  V30 1960 C 170.204 3.18029 1.16512 0
M  V30 1961 C 169.25 4.23163 0.532458 0
M  V30 1962 S 170.083 5.31131 -0.682666 0
M  V30 1963 C 171.239 6.24805 0.37013 0
M  V30 1964 H 171.472 2.91205 -0.598887 0
M  V30 1965 H 169.005 1.48394 -0.426441 0
M  V30 1966 H 170.963 3.70492 1.76766 0
M  V30 1967 H 169.624 2.53955 1.8484 0
M  V30 1968 H 168.817 4.86252 1.32571 0
M  V30 1969 H 168.419 3.74 0.00437644 0
M  V30 1970 H 170.711 6.66042 1.24071 0
M  V30 1971 H 171.654 7.07741 -0.225349 0
M  V30 1972 H 172.062 5.60154 0.699141 0
M  V30 1973 N 171.46 0.379036 1.52974 0
M  V30 1974 C 172.408 -0.476033 2.27677 0
M  V30 1975 C 173.402 -1.0719 1.31174 0
M  V30 1976 O 174.608 -1.01355 1.48752 0
M  V30 1977 H 170.983 -0.172255 0.732006 0
M  V30 1978 H 172.954 0.175615 2.97883 0
M  V30 1979 C 171.703 -1.5967 3.0887 0
M  V30 1980 H 171.026 -1.1475 3.82978 0
M  V30 1981 H 172.466 -2.16943 3.64296 0
M  V30 1982 C 170.925 -2.54682 2.20542 0
M  V30 1983 O 171.455 -3.57836 1.82527 0
M  V30 1984 N 169.661 -2.24183 1.84907 0
M  V30 1985 H 169.208 -1.40333 2.1602 0
M  V30 1986 H 169.166 -2.88006 1.26096 0
M  V30 1987 N 172.938 -1.57226 0.108567 0
M  V30 1988 C 173.885 -2.14756 -0.845481 0
M  V30 1989 C 174.855 -1.06971 -1.27068 0
M  V30 1990 O 176.04 -1.34827 -1.35005 0
M  V30 1991 C 173.18 -2.74298 -2.09415 0
M  V30 1992 C 172.293 -3.96358 -1.71826 0
M  V30 1993 C 171.428 -4.44021 -2.9158 0
M  V30 1994 C 170.467 -5.58637 -2.50181 0
M  V30 1995 N 169.604 -6.01091 -3.62814 0
M  V30 1996 H 174.444 -2.95961 -0.348035 0
M  V30 1997 H 171.981 -1.46226 -0.160106 0
M  V30 1998 H 173.939 -3.06945 -2.82561 0
M  V30 1999 H 172.569 -1.95801 -2.56636 0
M  V30 2000 H 171.621 -3.69939 -0.885947 0
M  V30 2001 H 172.933 -4.79504 -1.37394 0
M  V30 2002 H 172.087 -4.78522 -3.72963 0
M  V30 2003 H 170.826 -3.59803 -3.29231 0
M  V30 2004 H 169.831 -5.23751 -1.67228 0
M  V30 2005 H 171.056 -6.44613 -2.13659 0
M  V30 2006 H 169.002 -5.19817 -4.00158 0
M  V30 2007 H 168.919 -6.79066 -3.32273 0
M  V30 2008 H 170.187 -6.40227 -4.44668 0
M  V30 2009 N 174.416 0.165178 -1.56732 0
M  V30 2010 C 175.346 1.20651 -1.99914 0
M  V30 2011 C 176.327 1.45827 -0.875705 0
M  V30 2012 O 177.512 1.57057 -1.14223 0
M  V30 2013 C 174.642 2.54401 -2.36427 0
M  V30 2014 C 173.596 2.43782 -3.51787 0
M  V30 2015 C 172.922 3.82078 -3.7406 0
M  V30 2016 C 174.222 1.93732 -4.85041 0
M  V30 2017 H 175.916 0.847534 -2.87154 0
M  V30 2018 H 173.462 0.40625 -1.38151 0
M  V30 2019 H 175.415 3.27458 -2.65234 0
M  V30 2020 H 174.139 2.92098 -1.46103 0
M  V30 2021 H 172.798 1.73178 -3.23117 0
M  V30 2022 H 172.446 4.17179 -2.81017 0
M  V30 2023 H 172.146 3.7584 -4.51684 0
M  V30 2024 H 173.67 4.56712 -4.05274 0
M  V30 2025 H 175.084 2.56569 -5.12684 0
M  V30 2026 H 173.481 1.98428 -5.66345 0
M  V30 2027 H 174.551 0.891962 -4.76626 0
M  V30 2028 N 175.894 1.51508 0.433938 0
M  V30 2029 C 176.804 1.75917 1.5521 0
M  V30 2030 C 177.82 0.643545 1.61662 0
M  V30 2031 O 178.996 0.926183 1.7884 0
M  V30 2032 C 176.061 1.88213 2.91164 0
M  V30 2033 C 175.122 3.12074 2.94802 0
M  V30 2034 C 174.355 3.23774 4.24271 0
M  V30 2035 O 174.578 2.4133 5.16833 0
M  V30 2036 O 173.512 4.16774 4.34262 0
M  V30 2037 H 177.338 2.70777 1.37527 0
M  V30 2038 H 174.923 1.36051 0.617293 0
M  V30 2039 H 176.805 1.98267 3.71845 0
M  V30 2040 H 175.48 0.965413 3.08968 0
M  V30 2041 H 174.387 3.07497 2.13065 0
M  V30 2042 H 175.72 4.03446 2.81943 0
M  V30 2043 N 177.372 -0.689602 1.41712 0
M  V30 2044 C 178.32 -1.82475 1.44242 0
M  V30 2045 C 179.314 -1.66354 0.319774 0
M  V30 2046 O 180.52 -1.73143 0.492089 0
M  V30 2047 H 176.895 -0.601416 0.451445 0
M  V30 2048 H 178.866 -1.77458 2.39899 0
M  V30 2049 C 177.615 -3.20535 1.3473 0
M  V30 2050 H 176.938 -3.33559 2.20405 0
M  V30 2051 H 178.378 -4.00023 1.40562 0
M  V30 2052 C 176.837 -3.36846 0.0603281 0
M  V30 2053 O 177.367 -3.91656 -0.892663 0
M  V30 2054 N 175.573 -2.90595 -0.0177039 0
M  V30 2055 H 175.12 -2.46178 0.758572 0
M  V30 2056 H 175.078 -3.01886 -0.878201 0
M  V30 2057 N 178.85 -1.27639 -0.924453 0
M  V30 2058 C 179.797 -1.10644 -2.0255 0
M  V30 2059 C 180.767 -0.00658438 -1.66099 0
M  V30 2060 O 181.952 -0.16952 -1.90045 0
M  V30 2061 C 179.092 -0.76309 -3.36557 0
M  V30 2062 C 178.205 -1.94091 -3.85944 0
M  V30 2063 C 177.34 -1.53914 -5.08413 0
M  V30 2064 C 176.379 -2.68425 -5.50104 0
M  V30 2065 N 175.516 -2.28815 -6.63768 0
M  V30 2066 H 180.356 -2.04858 -2.16419 0
M  V30 2067 H 177.893 -1.01974 -1.06017 0
M  V30 2068 H 179.851 -0.544822 -4.13627 0
M  V30 2069 H 178.481 0.142102 -3.22487 0
M  V30 2070 H 177.533 -2.27162 -3.05125 0
M  V30 2071 H 178.845 -2.7998 -4.12811 0
M  V30 2072 H 177.999 -1.28231 -5.92994 0
M  V30 2073 H 176.738 -0.651391 -4.8333 0
M  V30 2074 H 175.743 -2.94819 -4.64071 0
M  V30 2075 H 176.968 -3.57826 -5.7718 0
M  V30 2076 H 174.914 -1.42495 -6.40337 0
M  V30 2077 H 174.831 -3.08242 -6.90306 0
M  V30 2078 H 176.099 -2.06387 -7.51681 0
M  V30 2079 N 180.328 1.1314 -1.09713 0
M  V30 2080 C 181.558 1.88048 -0.855656 0
M  V30 2081 C 181.966 1.79537 0.596919 0
M  V30 2082 O 181.309 1.16196 1.42282 0
M  V30 2083 C 181.371 3.38314 -1.21589 0
M  V30 2084 C 181.035 3.70605 -2.67397 0
M  V30 2085 C 182.032 3.69596 -3.65643 0
M  V30 2086 C 179.717 4.0017 -3.03593 0
M  V30 2087 C 181.711 3.977 -4.9811 0
M  V30 2088 C 179.398 4.27935 -4.36251 0
M  V30 2089 C 180.396 4.26685 -5.33318 0
M  V30 2090 O 180.084 4.53767 -6.63589 0
M  V30 2091 H 179.816 0.60208 -0.307368 0
M  V30 2092 H 182.37 1.44128 -1.46343 0
M  V30 2093 H 180.6 3.82752 -0.551177 0
M  V30 2094 H 182.289 3.94552 -0.953083 0
M  V30 2095 H 183.055 3.46826 -3.39023 0
M  V30 2096 H 178.934 4.00289 -2.2867 0
M  V30 2097 H 182.478 3.9664 -5.73866 0
M  V30 2098 H 178.375 4.50178 -4.62613 0
M  V30 2099 H 179.143 4.71422 -6.69107 0
M  V30 2100 N 181.806 0.884767 1.30421 0
M  V30 2101 C 183.055 0.499164 1.95426 0
M  V30 2102 C 183.368 -0.95645 1.70621 0
M  V30 2103 O 184.574 -1.44889 2.29607 0
M  V30 2104 C 183.03 0.84177 3.49917 0
M  V30 2105 C 182.638 2.31514 3.83543 0
M  V30 2106 C 184.382 0.525355 4.21237 0
M  V30 2107 C 182.289 2.59939 5.31212 0
M  V30 2108 H 181.219 0.182944 0.73147 0
M  V30 2109 H 183.87 1.07971 1.48373 0
M  V30 2110 H 182.252 0.190311 3.95542 0
M  V30 2111 H 183.426 3.0109 3.48829 0
M  V30 2112 H 181.741 2.59907 3.25326 0
M  V30 2113 H 184.338 0.714762 5.29901 0
M  V30 2114 H 184.681 -0.535222 4.12845 0
M  V30 2115 H 185.214 1.134 3.81294 0
M  V30 2116 H 181.953 3.64736 5.44654 0
M  V30 2117 H 181.473 1.94972 5.67227 0
M  V30 2118 H 183.152 2.45429 5.98643 0
M  V30 2119 N 183.284 -1.43765 0.645699 0
M  V30 2120 C 184.561 -1.9541 0.0862963 0
M  V30 2121 C 184.941 -1.58725 -1.39175 0
M  V30 2122 O 184.289 -0.868581 -2.11348 0
M  V30 2123 C 184.499 -3.47488 0.324565 0
M  V30 2124 C 185.847 -4.24001 0.225497 0
M  V30 2125 O 186.871 -3.55274 0.256715 0
M  V30 2126 O 185.73 -5.46313 0.142801 0
M  V30 2127 H 182.824 -0.826882 -0.0139483 0
M  V30 2128 H 185.37 -1.53743 0.718415 0
M  V30 2129 H 184.142 -3.67289 1.3496 0
M  V30 2130 H 183.765 -3.96135 -0.340987 0
M  V30 2131 N 184.763 -0.387143 -1.52771 0
M  V30 2132 C 185.726 0.436939 -2.24997 0
M  V30 2133 C 186.726 0.991991 -1.26555 0
M  V30 2134 O 187.916 0.874335 -1.50669 0
M  V30 2135 C 185.048 1.61281 -3.00335 0
M  V30 2136 H 186.241 -0.195365 -2.99263 0
M  V30 2137 H 183.794 -0.139218 -1.55679 0
M  V30 2138 H 184.529 2.2826 -2.30364 0
M  V30 2139 H 184.314 1.22154 -3.72587 0
M  V30 2140 H 185.804 2.19629 -3.5518 0
M  V30 2141 N 186.241 1.57166 -0.116904 0
M  V30 2142 C 187.471 1.99184 0.548586 0
M  V30 2143 C 187.879 0.995436 1.60897 0
M  V30 2144 O 187.222 -0.0201293 1.83689 0
M  V30 2145 C 187.284 3.37611 1.23526 0
M  V30 2146 C 186.948 4.55857 0.323077 0
M  V30 2147 C 187.945 5.18056 -0.437476 0
M  V30 2148 C 185.63 5.01751 0.234761 0
M  V30 2149 C 187.624 6.24536 -1.2741 0
M  V30 2150 C 185.311 6.08093 -0.605496 0
M  V30 2151 C 186.309 6.69352 -1.35856 0
M  V30 2152 O 185.997 7.7364 -2.18487 0
M  V30 2153 H 185.729 0.659148 0.149999 0
M  V30 2154 H 188.283 2.0443 -0.199428 0
M  V30 2155 H 186.513 3.29113 2.0303 0
M  V30 2156 H 188.202 3.63932 1.79745 0
M  V30 2157 H 188.968 4.83516 -0.379105 0
M  V30 2158 H 184.847 4.53817 0.810601 0
M  V30 2159 H 188.391 6.72281 -1.86237 0
M  V30 2160 H 184.288 6.42063 -0.665268 0
M  V30 2161 H 185.056 7.90727 -2.11406 0
M  V30 2162 N 187.719 -0.156864 1.56817 0
M  V30 2163 C 188.669 -1.19891 1.93934 0
M  V30 2164 C 189.653 -1.39061 0.809372 0
M  V30 2165 O 190.845 -1.40789 1.07273 0
M  V30 2166 C 187.974 -2.53493 2.31508 0
M  V30 2167 C 187.06 -2.37957 3.51052 0
M  V30 2168 N 187.451 -1.92158 4.67877 0
M  V30 2169 C 185.749 -2.68739 3.55943 0
M  V30 2170 C 186.45 -1.8943 5.49992 0
M  V30 2171 N 185.426 -2.32375 4.91429 0
M  V30 2172 H 189.228 -0.836746 2.81737 0
M  V30 2173 H 186.742 -0.365012 1.58245 0
M  V30 2174 H 188.739 -3.28811 2.56299 0
M  V30 2175 H 187.399 -2.905 1.45051 0
M  V30 2176 H 188.41 -1.62274 4.91821 0
M  V30 2177 H 185.087 -3.09687 2.80001 0
M  V30 2178 H 186.477 -1.55596 6.53636 0
M  V30 2179 N 189.197 -1.51736 -0.425897 0
M  V30 2180 C 190.443 -1.65214 -1.1761 0
M  V30 2181 C 190.776 -0.372778 -1.90589 0
M  V30 2182 O 190.051 0.628139 -1.84078 0
M  V30 2183 C 190.334 -2.86312 -2.18398 0
M  V30 2184 C 190.187 -4.24254 -1.49426 0
M  V30 2185 C 191.506 -3.02925 -3.19256 0
M  V30 2186 H 188.625 -0.601263 -0.426206 0
M  V30 2187 H 191.267 -1.8425 -0.463882 0
M  V30 2188 H 189.417 -2.70213 -2.79137 0
M  V30 2189 H 191.089 -4.52046 -0.919362 0
M  V30 2190 H 189.332 -4.26426 -0.796432 0
M  V30 2191 H 190.003 -5.05001 -2.22885 0
M  V30 2192 H 192.479 -3.1781 -2.68581 0
M  V30 2193 H 191.355 -3.89199 -3.8706 0
M  V30 2194 H 191.616 -2.15497 -3.86023 0
M  V30 2195 N 190.675 0.682077 -1.42076 0
M  V30 2196 C 191.924 1.43786 -1.41451 0
M  V30 2197 C 192.237 1.95574 -0.0317074 0
M  V30 2198 O 193.443 2.71326 0.0971462 0
M  V30 2199 C 191.899 2.60071 -2.48779 0
M  V30 2200 C 191.507 2.15013 -3.93031 0
M  V30 2201 C 193.251 3.37626 -2.57311 0
M  V30 2202 C 191.158 3.28336 -4.91883 0
M  V30 2203 H 190.088 0.540143 -0.526082 0
M  V30 2204 H 192.739 0.739157 -1.67955 0
M  V30 2205 H 191.121 3.32275 -2.15429 0
M  V30 2206 H 192.295 1.5001 -4.35699 0
M  V30 2207 H 190.61 1.50416 -3.88284 0
M  V30 2208 H 193.207 4.22012 -3.28345 0
M  V30 2209 H 193.55 3.83727 -1.61429 0
M  V30 2210 H 194.083 2.72488 -2.89819 0
M  V30 2211 H 190.822 2.87234 -5.89217 0
M  V30 2212 H 190.342 3.92145 -4.53853 0
M  V30 2213 H 192.021 3.93913 -5.13265 0
M  V30 2214 N 192.153 1.28127 0.917671 0
M  V30 2215 C 193.4 1.15052 1.66641 0
M  V30 2216 C 193.728 -0.301677 1.92146 0
M  V30 2217 O 192.983 -1.23622 1.51711 0
M  V30 2218 C 193.282 1.89018 3.03327 0
M  V30 2219 C 192.948 3.38832 2.97496 0
M  V30 2220 C 191.61 3.79693 2.95613 0
M  V30 2221 C 193.962 4.34378 2.88036 0
M  V30 2222 C 191.29 5.14447 2.82066 0
M  V30 2223 C 193.642 5.69201 2.7603 0
M  V30 2224 C 192.306 6.09343 2.72502 0
M  V30 2225 H 191.576 0.421006 0.609783 0
M  V30 2226 H 194.223 1.58855 1.06945 0
M  V30 2227 H 192.528 1.37752 3.66785 0
M  V30 2228 H 194.225 1.76321 3.60156 0
M  V30 2229 H 190.815 3.06342 2.99754 0
M  V30 2230 H 194.999 4.03775 2.88581 0
M  V30 2231 H 190.255 5.44681 2.77728 0
M  V30 2232 H 194.429 6.42901 2.67678 0
M  V30 2233 H 192.056 7.13712 2.61762 0
M  V30 2234 N 193.631 -1.12557 1.10312 0
M  V30 2235 C 194.578 -2.18247 0.750781 0
M  V30 2236 C 195.548 -1.63853 -0.272293 0
M  V30 2237 O 196.733 -1.90195 -0.151862 0
M  V30 2238 C 193.873 -3.44591 0.187379 0
M  V30 2239 C 192.986 -4.13046 1.2656 0
M  V30 2240 C 192.121 -5.27034 0.663978 0
M  V30 2241 C 191.16 -5.87353 1.72287 0
M  V30 2242 N 190.297 -6.92757 1.1416 0
M  V30 2243 H 195.137 -2.47732 1.65628 0
M  V30 2244 H 192.674 -1.21629 0.827337 0
M  V30 2245 H 194.632 -4.16904 -0.157148 0
M  V30 2246 H 193.262 -3.15527 -0.681355 0
M  V30 2247 H 192.314 -3.38924 1.72727 0
M  V30 2248 H 193.626 -4.53947 2.06721 0
M  V30 2249 H 192.78 -6.06104 0.268824 0
M  V30 2250 H 191.519 -4.87407 -0.169082 0
M  V30 2251 H 190.524 -5.06971 2.12746 0
M  V30 2252 H 191.749 -6.29051 2.55875 0
M  V30 2253 H 189.695 -6.5517 0.329984 0
M  V30 2254 H 189.612 -7.3225 1.88007 0
M  V30 2255 H 190.88 -7.75658 0.772956 0
M  V30 2256 N 195.109 -0.891671 -1.2995 0
M  V30 2257 C 196.019 -0.367691 -2.31701 0
M  V30 2258 C 197.035 0.533486 -1.6562 0
M  V30 2259 O 198.211 0.424997 -1.96865 0
M  V30 2260 C 195.276 0.403406 -3.44345 0
M  V30 2261 C 194.337 -0.528328 -4.26037 0
M  V30 2262 C 193.57 0.206063 -5.33302 0
M  V30 2263 O 193.793 1.43119 -5.52153 0
M  V30 2264 O 192.727 -0.447281 -6.00236 0
M  V30 2265 H 196.553 -1.21163 -2.78484 0
M  V30 2266 H 194.138 -0.655725 -1.34241 0
M  V30 2267 H 196.02 0.839753 -4.12948 0
M  V30 2268 H 194.695 1.22354 -2.99685 0
M  V30 2269 H 193.602 -1.01362 -3.60106 0
M  V30 2270 H 194.935 -1.31465 -4.74318 0
M  V30 2271 N 196.587 1.43421 -0.653314 0
M  V30 2272 C 197.835 2.01414 -0.166415 0
M  V30 2273 C 198.156 1.51803 1.22397 0
M  V30 2274 O 197.426 0.730693 1.81763 0
M  V30 2275 H 196.006 0.744703 -0.0585319 0
M  V30 2276 H 198.668 1.75629 -0.845003 0
M  V30 2277 H 197.764 3.11734 -0.151111 0
M  V30 2278 N 198.065 0.39524 1.52563 0
M  V30 2279 C 199.013 -0.451859 2.28169 0
M  V30 2280 C 200.007 -1.05792 1.32304 0
M  V30 2281 O 201.213 -0.997718 1.49818 0
M  V30 2282 H 197.588 -0.164481 0.733792 0
M  V30 2283 H 199.559 0.207199 2.9768 0
M  V30 2284 C 198.308 -1.56385 3.10546 0
M  V30 2285 H 197.631 -1.10682 3.84174 0
M  V30 2286 H 199.071 -2.13067 3.66577 0
M  V30 2287 C 197.53 -2.52328 2.23231 0
M  V30 2288 O 198.06 -3.5588 1.86312 0
M  V30 2289 N 196.266 -2.22209 1.87274 0
M  V30 2290 H 195.813 -1.38033 2.17496 0
M  V30 2291 H 195.771 -2.86652 1.29143 0
M  V30 2292 N 199.544 -1.57102 0.125237 0
M  V30 2293 C 200.474 -2.18659 -0.819174 0
M  V30 2294 C 201.455 -1.12843 -1.27281 0
M  V30 2295 O 202.64 -1.41104 -1.33429 0
M  V30 2296 C 199.77 -2.79096 -2.06695 0
M  V30 2297 C 198.724 -3.90548 -1.75088 0
M  V30 2298 C 198.05 -4.37821 -3.06948 0
M  V30 2299 C 199.35 -5.12356 -1.01435 0
M  V30 2300 H 201.044 -2.9783 -0.306202 0
M  V30 2301 H 198.59 -1.4326 -0.145839 0
M  V30 2302 H 200.543 -3.2082 -2.73226 0
M  V30 2303 H 199.267 -1.97223 -2.60328 0
M  V30 2304 H 197.926 -3.49409 -1.10944 0
M  V30 2305 H 197.574 -3.52799 -3.58527 0
M  V30 2306 H 197.274 -5.12982 -2.86571 0
M  V30 2307 H 198.798 -4.822 -3.74587 0
M  V30 2308 H 200.212 -5.5106 -1.58132 0
M  V30 2309 H 198.609 -5.9314 -0.911319 0
M  V30 2310 H 199.679 -4.849 -0.00218681 0
M  V30 2311 N 201.022 0.148545 -1.56898 0
M  V30 2312 C 201.97 1.20265 -1.99096 0
M  V30 2313 C 202.964 1.44559 -0.883123 0
M  V30 2314 O 204.17 1.4487 -1.0683 0
M  V30 2315 H 200.545 0.404786 -0.63376 0
M  V30 2316 H 202.516 0.82004 -2.86911 0
M  V30 2317 C 201.265 2.52886 -2.3863 0
M  V30 2318 H 200.588 2.35021 -3.23427 0
M  V30 2319 H 202.028 3.25274 -2.7198 0
M  V30 2320 C 200.487 3.13315 -1.23837 0
M  V30 2321 O 201.017 3.98077 -0.538268 0
M  V30 2322 N 199.223 2.72742 -1.00301 0
M  V30 2323 H 198.77 2.03912 -1.5741 0
M  V30 2324 H 198.728 3.13507 -0.236838 0
M  V30 2325 N 202.5 1.5196 0.417844 0
M  V30 2326 C 203.748 1.65263 1.16329 0
M  V30 2327 C 204.069 0.380634 1.91249 0
M  V30 2328 O 203.339 -0.604214 1.86349 0
M  V30 2329 H 201.919 0.60912 0.432414 0
M  V30 2330 H 204.581 1.88969 0.477162 0
M  V30 2331 H 203.677 2.4896 1.88217 0
M  V30 2332 N 203.978 -0.674533 1.42435 0
M  V30 2333 C 204.888 -1.81751 1.48337 0
M  V30 2334 C 205.904 -1.69975 0.372099 0
M  V30 2335 O 207.08 -1.91521 0.62304 0
M  V30 2336 C 204.145 -3.17895 1.38361 0
M  V30 2337 C 203.206 -3.41625 2.59982 0
M  V30 2338 C 202.439 -4.71274 2.50473 0
M  V30 2339 O 202.662 -5.49197 1.54075 0
M  V30 2340 O 201.596 -4.96254 3.4061 0
M  V30 2341 H 205.422 -1.79728 2.44809 0
M  V30 2342 H 203.007 -0.830312 1.24202 0
M  V30 2343 H 204.889 -3.99136 1.35161 0
M  V30 2344 H 203.564 -3.20555 0.450144 0
M  V30 2345 H 202.471 -2.60231 2.68757 0
M  V30 2346 H 203.804 -3.43796 3.52229 0
M  V30 2347 N 205.456 -1.28612 -0.910864 0
M  V30 2348 C 206.702 -1.17116 -1.66299 0
M  V30 2349 C 207.057 0.276917 -1.90397 0
M  V30 2350 O 206.35 1.19795 -1.49532 0
M  V30 2351 C 206.544 -1.90624 -3.0232 0
M  V30 2352 C 206.373 -3.42431 -2.91498 0
M  V30 2353 C 205.143 -4.11773 -2.92867 0
M  V30 2354 C 207.341 -4.38124 -2.69355 0
M  V30 2355 N 205.323 -5.50025 -2.72664 0
M  V30 2356 C 206.694 -5.63759 -2.58023 0
M  V30 2357 C 208.749 -4.28016 -2.54375 0
M  V30 2358 C 207.452 -6.80436 -2.33238 0
M  V30 2359 C 209.478 -5.44433 -2.30969 0
M  V30 2360 C 208.84 -6.69034 -2.20394 0
M  V30 2361 H 204.939 -0.483506 -0.61461 0
M  V30 2362 H 207.523 -1.62299 -1.0755 0
M  V30 2363 H 205.694 -1.4787 -3.5915 0
M  V30 2364 H 207.426 -1.71488 -3.66571 0
M  V30 2365 H 204.181 -3.63378 -3.03732 0
M  V30 2366 H 204.605 -6.22705 -2.65646 0
M  V30 2367 H 209.247 -3.32388 -2.613 0
M  V30 2368 H 206.965 -7.7613 -2.25051 0
M  V30 2369 H 210.551 -5.38504 -2.20238 0
M  V30 2370 H 209.431 -7.57595 -2.02531 0
M  V30 2371 N 206.934 1.1197 -1.10907 0
M  V30 2372 C 208.174 1.85224 -0.864378 0
M  V30 2373 C 208.538 1.82411 0.599178 0
M  V30 2374 O 209.739 2.51057 0.960416 0
M  V30 2375 C 208.01 3.2868 -1.40371 0
M  V30 2376 S 209.569 4.1925 -1.29518 0
M  V30 2377 H 206.387 0.63878 -0.312219 0
M  V30 2378 H 208.989 1.3485 -1.41548 0
M  V30 2379 H 207.693 3.28289 -2.46281 0
M  V30 2380 H 207.224 3.84121 -0.849402 0
M  V30 2381 H 209.239 4.95539 -0.256059 0
M  V30 2382 N 208.412 0.89855 1.29475 0
M  V30 2383 C 209.661 0.519863 1.94885 0
M  V30 2384 C 209.974 -0.9383 1.71625 0
M  V30 2385 O 211.18 -1.42445 2.31131 0
M  V30 2386 C 209.636 0.878836 3.49005 0
M  V30 2387 C 209.244 2.35569 3.81066 0
M  V30 2388 C 210.988 0.570004 4.20656 0
M  V30 2389 C 208.895 2.65558 5.28425 0
M  V30 2390 H 207.825 0.190692 0.729488 0
M  V30 2391 H 210.476 1.09539 1.47219 0
M  V30 2392 H 208.858 0.232253 3.95318 0
M  V30 2393 H 210.032 3.04773 3.45616 0
M  V30 2394 H 208.347 2.63343 3.22552 0
M  V30 2395 H 210.944 0.770925 5.29113 0
M  V30 2396 H 211.287 -0.491404 4.1339 0
M  V30 2397 H 211.82 1.17438 3.8007 0
M  V30 2398 H 208.559 3.70493 5.40754 0
M  V30 2399 H 208.079 2.00977 5.65127 0
M  V30 2400 H 209.758 2.51765 5.96006 0
M  V30 2401 N 209.89 -1.43072 0.660911 0
M  V30 2402 C 210.838 -2.32569 -0.0378199 0
M  V30 2403 C 211.832 -1.49046 -0.805092 0
M  V30 2404 O 213.038 -1.65206 -0.714624 0
M  V30 2405 H 209.413 -0.75136 -0.031019 0
M  V30 2406 H 211.384 -2.89216 0.734609 0
M  V30 2407 C 210.133 -3.33453 -0.985124 0
M  V30 2408 H 209.456 -3.97752 -0.404147 0
M  V30 2409 H 210.896 -3.98691 -1.44297 0
M  V30 2410 C 209.355 -2.64642 -2.08486 0
M  V30 2411 O 209.885 -2.46776 -3.16961 0
M  V30 2412 N 208.091 -2.23891 -1.8526 0
M  V30 2413 H 207.638 -2.38621 -0.970449 0
M  V30 2414 H 207.596 -1.78181 -2.59034 0
M  V30 2415 N 211.368 -0.403325 -1.52352 0
M  V30 2416 C 212.645 0.232611 -1.94212 0
M  V30 2417 C 213.025 1.63133 -1.33981 0
M  V30 2418 O 212.373 2.22659 -0.513344 0
M  V30 2419 C 212.583 0.244811 -3.4814 0
M  V30 2420 C 213.931 0.46698 -4.22024 0
M  V30 2421 O 214.955 0.324419 -3.5472 0
M  V30 2422 O 213.814 0.74747 -5.41364 0
M  V30 2423 H 210.908 0.148223 -0.813609 0
M  V30 2424 H 213.454 -0.458848 -1.63379 0
M  V30 2425 H 212.226 -0.734378 -3.84347 0
M  V30 2426 H 211.849 0.980611 -3.85318 0
M  V30 2427 N 212.846 1.57033 -0.133567 0
M  V30 2428 C 214.092 1.95976 0.521649 0
M  V30 2429 C 214.425 1.01779 1.65393 0
M  V30 2430 O 213.7 0.0576581 1.94415 0
M  V30 2431 C 213.983 3.44738 1.04057 0
M  V30 2432 C 213.836 4.49711 -0.0892897 0
M  V30 2433 C 215.155 3.95682 1.92675 0
M  V30 2434 H 212.274 0.712579 0.188149 0
M  V30 2435 H 214.916 1.88813 -0.212076 0
M  V30 2436 H 213.066 3.50973 1.66583 0
M  V30 2437 H 214.738 4.55565 -0.725152 0
M  V30 2438 H 212.981 4.27261 -0.750378 0
M  V30 2439 H 213.652 5.51099 0.315284 0
M  V30 2440 H 216.128 3.91841 1.39998 0
M  V30 2441 H 215.004 5.00262 2.25897 0
M  V30 2442 H 215.265 3.37239 2.85872 0
M  V30 2443 N 214.325 -0.140222 1.56975 0
M  V30 2444 C 215.273 -1.19207 1.99731 0
M  V30 2445 C 216.267 -1.44089 0.890777 0
M  V30 2446 O 217.473 -1.44301 1.07597 0
M  V30 2447 H 213.848 -0.40142 0.635898 0
M  V30 2448 H 215.819 -0.804813 2.87342 0
M  V30 2449 C 214.568 -2.51617 2.39967 0
M  V30 2450 H 213.891 -2.33303 3.24669 0
M  V30 2451 H 215.331 -3.23827 2.73701 0
M  V30 2452 C 213.79 -3.12654 1.25496 0
M  V30 2453 O 214.32 -3.97786 0.559371 0
M  V30 2454 N 212.526 -2.72206 1.01746 0
M  V30 2455 H 212.073 -2.03074 1.58489 0
M  V30 2456 H 212.031 -3.13377 0.253461 0
M  V30 2457 N 215.803 -1.52179 -0.40978 0
M  V30 2458 C 216.766 -1.74853 -1.48186 0
M  V30 2459 C 217.766 -0.618417 -1.48433 0
M  V30 2460 O 218.956 -0.886286 -1.49969 0
M  V30 2461 C 216.088 -1.8303 -2.87598 0
M  V30 2462 H 217.281 -2.70559 -1.29374 0
M  V30 2463 H 214.834 -1.42586 -0.640233 0
M  V30 2464 H 215.569 -0.89236 -3.11781 0
M  V30 2465 H 215.354 -2.65187 -2.88822 0
M  V30 2466 H 216.844 -2.02316 -3.65319 0
M  V30 2467 N 217.281 0.66697 -1.42791 0
M  V30 2468 C 218.527 1.4291 -1.43891 0
M  V30 2469 C 218.86 1.94114 -0.0578972 0
M  V30 2470 O 218.135 1.71414 0.91911 0
M  V30 2471 C 218.418 2.62049 -2.46987 0
M  V30 2472 C 218.271 2.16426 -3.94309 0
M  V30 2473 C 219.59 3.64266 -2.46978 0
M  V30 2474 H 216.709 0.518306 -0.523954 0
M  V30 2475 H 219.351 0.757321 -1.74255 0
M  V30 2476 H 217.501 3.19361 -2.21225 0
M  V30 2477 H 219.173 1.64221 -4.31079 0
M  V30 2478 H 217.416 1.47925 -4.078 0
M  V30 2479 H 218.087 3.02038 -4.62036 0
M  V30 2480 H 220.563 3.16686 -2.69906 0
M  V30 2481 H 219.439 4.45196 -3.21079 0
M  V30 2482 H 219.7 4.15927 -1.49857 0
M  V30 2483 N 218.759 1.29093 0.90403 0
M  V30 2484 C 219.984 1.19809 1.69294 0
M  V30 2485 C 220.409 -0.238481 1.86582 0
M  V30 2486 O 219.767 -1.1723 1.383 0
M  V30 2487 C 219.815 1.91202 3.05736 0
M  V30 2488 O 218.919 1.22611 3.93752 0
M  V30 2489 H 218.26 0.415385 0.518027 0
M  V30 2490 H 220.79 1.70586 1.12967 0
M  V30 2491 H 220.8 1.99487 3.55906 0
M  V30 2492 H 219.475 2.95692 2.92471 0
M  V30 2493 H 218.052 1.22554 3.52186 0
M  V30 2494 N 220.237 -1.11381 1.11499 0
M  V30 2495 C 221.184 -2.17439 0.773887 0
M  V30 2496 C 222.154 -1.64132 -0.254899 0
M  V30 2497 O 223.339 -1.90345 -0.13168 0
M  V30 2498 C 220.479 -3.44373 0.223917 0
M  V30 2499 C 219.592 -4.1168 1.30934 0
M  V30 2500 C 218.727 -5.263 0.71984 0
M  V30 2501 C 217.766 -5.85493 1.78507 0
M  V30 2502 N 216.903 -6.91507 1.21502 0
M  V30 2503 H 221.743 -2.45962 1.68246 0
M  V30 2504 H 219.28 -1.20744 0.840191 0
M  V30 2505 H 221.238 -4.17047 -0.112921 0
M  V30 2506 H 219.868 -3.16232 -0.647851 0
M  V30 2507 H 218.92 -3.37073 1.76312 0
M  V30 2508 H 220.232 -4.51729 2.11524 0
M  V30 2509 H 219.386 -6.05785 0.333094 0
M  V30 2510 H 218.125 -4.87559 -0.117377 0
M  V30 2511 H 217.13 -5.04686 2.18111 0
M  V30 2512 H 218.355 -6.26301 2.62533 0
M  V30 2513 H 216.301 -6.54783 0.399455 0
M  V30 2514 H 216.218 -7.30214 1.95763 0
M  V30 2515 H 217.486 -7.74795 0.855181 0
M  V30 2516 N 221.715 -0.905404 -1.28997 0
M  V30 2517 C 222.964 -0.530191 -1.94607 0
M  V30 2518 C 223.277 0.929185 -1.72121 0
M  V30 2519 O 224.483 1.41218 -2.31883 0
M  V30 2520 C 222.939 -0.897333 -3.48534 0
M  V30 2521 C 222.547 -2.37587 -3.79811 0
M  V30 2522 C 224.291 -0.592304 -4.20347 0
M  V30 2523 C 222.198 -2.68357 -5.27009 0
M  V30 2524 H 221.128 -0.194558 -0.728466 0
M  V30 2525 H 223.779 -1.10318 -1.46636 0
M  V30 2526 H 222.161 -0.253214 -3.9519 0
M  V30 2527 H 223.335 -3.06602 -3.43994 0
M  V30 2528 H 221.65 -2.6505 -3.2115 0
M  V30 2529 H 224.247 -0.798975 -5.28697 0
M  V30 2530 H 224.59 0.469474 -4.13644 0
M  V30 2531 H 225.123 -1.19452 -3.79442 0
M  V30 2532 H 221.862 -3.73355 -5.38782 0
M  V30 2533 H 221.382 -2.03971 -5.64053 0
M  V30 2534 H 223.061 -2.54922 -5.94663 0
M  V30 2535 N 223.193 1.4272 -0.668489 0
M  V30 2536 C 224.156 2.292 0.00448567 0
M  V30 2537 C 225.156 1.43001 0.735339 0
M  V30 2538 O 226.346 1.64461 0.57429 0
M  V30 2539 C 223.478 3.25375 1.01705 0
M  V30 2540 H 224.671 2.90199 -0.756608 0
M  V30 2541 H 222.224 1.50254 -0.430506 0
M  V30 2542 H 222.959 2.69301 1.80686 0
M  V30 2543 H 222.744 3.88944 0.496463 0
M  V30 2544 H 224.234 3.90245 1.48655 0
M  V30 2545 N 224.671 0.411399 1.52136 0
M  V30 2546 C 225.634 -0.401089 2.25663 0
M  V30 2547 C 226.634 -0.971732 1.28117 0
M  V30 2548 O 227.824 -0.850254 1.52041 0
M  V30 2549 C 224.956 -1.56483 3.02863 0
M  V30 2550 H 226.149 0.24295 2.98914 0
M  V30 2551 H 223.702 0.163968 1.55438 0
M  V30 2552 H 224.437 -2.24567 2.33967 0
M  V30 2553 H 224.222 -1.16211 3.74483 0
M  V30 2554 H 225.712 -2.13951 3.58629 0
M  V30 2555 N 226.149 -1.5696 0.141893 0
M  V30 2556 C 227.097 -2.17784 -0.816874 0
M  V30 2557 C 228.091 -1.1334 -1.25899 0
M  V30 2558 O 229.297 -1.316 -1.22806 0
M  V30 2559 H 225.672 -0.697278 -0.281615 0
M  V30 2560 H 227.643 -2.97087 -0.279621 0
M  V30 2561 C 226.392 -2.80983 -2.04802 0
M  V30 2562 H 225.715 -3.61062 -1.7168 0
M  V30 2563 H 227.155 -3.2705 -2.69841 0
M  V30 2564 C 225.614 -1.79228 -2.8527 0
M  V30 2565 O 226.144 -1.25962 -3.8144 0
M  V30 2566 N 224.35 -1.48647 -2.49704 0
M  V30 2567 H 223.897 -1.92155 -1.71564 0
M  V30 2568 H 223.855 -0.808115 -3.03837 0
M  V30 2569 N 227.627 0.131896 -1.57047 0
M  V30 2570 C 228.59 1.14638 -1.98471 0
M  V30 2571 C 229.59 1.35029 -0.873148 0
M  V30 2572 O 230.78 1.31764 -1.13946 0
M  V30 2573 C 227.912 2.50358 -2.31373 0
M  V30 2574 H 229.105 0.79064 -2.8929 0
M  V30 2575 H 226.658 0.375761 -1.51716 0
M  V30 2576 H 227.393 2.90876 -1.43393 0
M  V30 2577 H 227.178 2.36915 -3.12432 0
M  V30 2578 H 228.668 3.23395 -2.64207 0
M  V30 2579 N 229.106 1.52395 0.401703 0
M  V30 2580 C 230.352 1.67065 1.14966 0
M  V30 2581 C 230.685 0.403052 1.89971 0
M  V30 2582 O 229.96 -0.598774 1.85054 0
M  V30 2583 C 230.243 2.8975 2.13815 0
M  V30 2584 C 230.096 4.26578 1.42658 0
M  V30 2585 C 231.415 3.07965 3.14397 0
M  V30 2586 H 228.534 0.607968 0.416587 0
M  V30 2587 H 231.176 1.84965 0.434511 0
M  V30 2588 H 229.326 2.74619 2.74803 0
M  V30 2589 H 230.998 4.53451 0.847329 0
M  V30 2590 H 229.241 4.27639 0.72849 0
M  V30 2591 H 229.912 5.08483 2.14823 0
M  V30 2592 H 232.388 3.22043 2.63491 0
M  V30 2593 H 231.264 3.95308 3.80819 0
M  V30 2594 H 231.525 2.21611 3.82545 0
M  V30 2595 N 230.584 -0.659388 1.43143 0
M  V30 2596 C 231.532 -1.79374 1.4808 0
M  V30 2597 C 232.526 -1.65639 0.354988 0
M  V30 2598 O 233.732 -1.7206 0.528704 0
M  V30 2599 H 230.107 -0.591705 0.4641 0
M  V30 2600 H 232.078 -1.72329 2.43609 0
M  V30 2601 C 230.827 -3.17606 1.41499 0
M  V30 2602 H 230.15 -3.28809 2.27431 0
M  V30 2603 H 231.59 -3.96951 1.49015 0
M  V30 2604 C 230.049 -3.36642 0.131765 0
M  V30 2605 O 230.579 -3.93461 -0.809386 0
M  V30 2606 N 228.785 -2.90567 0.0439396 0
M  V30 2607 H 228.332 -2.44513 0.810619 0
M  V30 2608 H 228.29 -3.03681 -0.813969 0
M  V30 2609 N 232.062 -1.29571 -0.897171 0
M  V30 2610 C 233.31 -1.17456 -1.64464 0
M  V30 2611 C 233.631 0.273698 -1.9307 0
M  V30 2612 O 232.901 1.18684 -1.55855 0
M  V30 2613 H 231.481 -0.431706 -0.609622 0
M  V30 2614 H 234.143 -1.62531 -1.07562 0
M  V30 2615 H 233.239 -1.72648 -2.59998 0
M  V30 2616 N 233.54 1.10788 -1.12088 0
M  V30 2617 C 234.789 1.82036 -0.868659 0
M  V30 2618 C 235.102 1.85929 0.607426 0
M  V30 2619 O 236.308 2.53346 0.97613 0
M  V30 2620 C 234.764 3.26951 -1.50435 0
M  V30 2621 C 234.372 3.31367 -3.01496 0
M  V30 2622 C 236.116 4.03053 -1.33225 0
M  V30 2623 C 234.023 4.7072 -3.58017 0
M  V30 2624 H 232.953 0.682108 -0.321318 0
M  V30 2625 H 235.604 1.24618 -1.34694 0
M  V30 2626 H 233.986 3.84343 -0.953735 0
M  V30 2627 H 235.16 2.83819 -3.6302 0
M  V30 2628 H 233.475 2.6875 -3.18061 0
M  V30 2629 H 236.072 5.05981 -1.72878 0
M  V30 2630 H 236.415 4.15387 -0.275529 0
M  V30 2631 H 236.948 3.52066 -1.85188 0
M  V30 2632 H 233.687 4.63585 -4.63432 0
M  V30 2633 H 233.207 5.1865 -3.01268 0
M  V30 2634 H 234.886 5.39685 -3.56859 0
M  V30 2635 N 235.018 0.912232 1.28515 0
M  V30 2636 C 236.264 0.545405 1.95328 0
M  V30 2637 C 236.597 -0.908313 1.71649 0
M  V30 2638 O 235.872 -1.64575 1.03659 0
M  V30 2639 C 236.155 0.853483 3.4984 0
M  V30 2640 C 236.008 2.35982 3.82926 0
M  V30 2641 C 237.327 0.348589 4.38717 0
M  V30 2642 H 234.446 0.199626 0.709449 0
M  V30 2643 H 237.088 1.1412 1.5191 0
M  V30 2644 H 235.238 0.34643 3.86952 0
M  V30 2645 H 236.91 2.93738 3.55691 0
M  V30 2646 H 235.153 2.81543 3.30024 0
M  V30 2647 H 235.824 2.52593 4.90816 0
M  V30 2648 H 238.3 0.78294 4.08668 0
M  V30 2649 H 237.176 0.593242 5.45685 0
M  V30 2650 H 237.437 -0.751049 4.35674 0
M  V30 2651 N 236.496 -1.42363 0.676048 0
M  V30 2652 C 237.724 -2.05859 0.207268 0
M  V30 2653 C 238.139 -1.50796 -1.13605 0
M  V30 2654 O 237.496 -0.648265 -1.70598 0
M  V30 2655 C 237.547 -3.61248 0.134975 0
M  V30 2656 O 237.268 -4.1427 1.42521 0
M  V30 2657 C 238.769 -4.41859 -0.357151 0
M  V30 2658 H 235.989 -0.663431 0.100503 0
M  V30 2659 H 238.533 -1.82479 0.923136 0
M  V30 2660 H 236.688 -3.83735 -0.531588 0
M  V30 2661 H 237.102 -5.0815 1.29939 0
M  V30 2662 H 238.576 -5.50847 -0.356641 0
M  V30 2663 H 239.053 -4.16536 -1.39264 0
M  V30 2664 H 239.659 -4.24392 0.27772 0
M  V30 2665 N 237.974 -0.419461 -1.51915 0
M  V30 2666 C 239.221 0.152939 -2.01922 0
M  V30 2667 C 239.549 1.4426 -1.30458 0
M  V30 2668 O 238.804 1.91514 -0.402593 0
M  V30 2669 C 239.103 0.437067 -3.54717 0
M  V30 2670 C 238.769 -0.764632 -4.44369 0
M  V30 2671 C 237.431 -1.09423 -4.68594 0
M  V30 2672 C 239.783 -1.56713 -4.97082 0
M  V30 2673 C 237.111 -2.22732 -5.42777 0
M  V30 2674 C 239.463 -2.69107 -5.72507 0
M  V30 2675 C 238.127 -3.02541 -5.95 0
M  V30 2676 H 237.397 0.0559644 -0.738884 0
M  V30 2677 H 240.044 -0.562998 -1.83037 0
M  V30 2678 H 238.349 1.23469 -3.71837 0
M  V30 2679 H 240.046 0.893083 -3.90928 0
M  V30 2680 H 236.636 -0.497775 -4.257 0
M  V30 2681 H 240.82 -1.32571 -4.78266 0
M  V30 2682 H 236.076 -2.48971 -5.58411 0
M  V30 2683 H 240.25 -3.31671 -6.12346 0
M  V30 2684 H 237.877 -3.90457 -6.52264 0
M  V30 2685 N 239.452 1.56882 -0.150215 0
M  V30 2686 C 240.68 2.00593 0.506948 0
M  V30 2687 C 241.095 1.03033 1.58208 0
M  V30 2688 O 240.452 0.0278396 1.82479 0
M  V30 2689 C 240.503 3.44209 1.10465 0
M  V30 2690 O 240.224 4.3804 0.0724636 0
M  V30 2691 C 241.725 4.03214 1.84211 0
M  V30 2692 H 238.945 0.65795 0.13169 0
M  V30 2693 H 241.489 2.03018 -0.245743 0
M  V30 2694 H 239.644 3.42625 1.80795 0
M  V30 2695 H 240.058 5.22007 0.510793 0
M  V30 2696 H 241.532 5.0569 2.21318 0
M  V30 2697 H 242.009 3.44107 2.72923 0
M  V30 2698 H 242.615 4.08437 1.18572 0
M  V30 2699 N 240.93 -0.123565 1.57115 0
M  V30 2700 C 241.88 -1.1575 1.96433 0
M  V30 2701 C 242.864 -1.37313 0.838686 0
M  V30 2702 O 244.056 -1.38482 1.10235 0
M  V30 2703 C 241.185 -2.48526 2.36833 0
M  V30 2704 C 240.271 -2.30457 3.5602 0
M  V30 2705 N 240.662 -1.8219 4.71848 0
M  V30 2706 C 238.96 -2.61129 3.61563 0
M  V30 2707 C 239.661 -1.77721 5.53886 0
M  V30 2708 N 238.637 -2.21899 4.96248 0
M  V30 2709 H 242.439 -0.776797 2.83449 0
M  V30 2710 H 239.953 -0.331364 1.58983 0
M  V30 2711 H 241.95 -3.233 2.63216 0
M  V30 2712 H 240.61 -2.87358 1.5118 0
M  V30 2713 H 241.621 -1.51805 4.95152 0
M  V30 2714 H 238.298 -3.03678 2.86507 0
M  V30 2715 H 239.688 -1.41697 6.56789 0
M  V30 2716 N 242.408 -1.52605 -0.393616 0
M  V30 2717 C 243.318 -1.79971 -1.50492 0
M  V30 2718 C 244.334 -0.686181 -1.59899 0
M  V30 2719 O 245.51 -0.973274 -1.76322 0
M  V30 2720 C 242.575 -1.95867 -2.86072 0
M  V30 2721 C 241.636 -3.19781 -2.86424 0
M  V30 2722 C 240.869 -3.34909 -4.15538 0
M  V30 2723 O 241.092 -2.54948 -5.10253 0
M  V30 2724 O 240.026 -4.28141 -4.23059 0
M  V30 2725 H 243.852 -2.74328 -1.30299 0
M  V30 2726 H 241.437 -1.3764 -0.581005 0
M  V30 2727 H 243.319 -2.08056 -3.66457 0
M  V30 2728 H 241.994 -1.04699 -3.063 0
M  V30 2729 H 240.901 -3.13038 -2.04837 0
M  V30 2730 H 242.234 -4.1078 -2.71147 0
M  V30 2731 N 243.887 0.651787 -1.4349 0
M  V30 2732 C 244.819 1.77725 -1.44729 0
M  V30 2733 C 245.832 1.59141 -0.343231 0
M  V30 2734 O 247.021 1.67835 -0.607751 0
M  V30 2735 C 244.121 3.15172 -1.24579 0
M  V30 2736 C 243.294 3.60402 -2.47849 0
M  V30 2737 C 242.353 4.76656 -2.22902 0
M  V30 2738 O 241.379 4.86022 -2.96263 0
M  V30 2739 N 242.581 5.66958 -1.24656 0
M  V30 2740 H 245.346 1.77141 -2.41746 0
M  V30 2741 H 242.907 0.835678 -1.38665 0
M  V30 2742 H 244.899 3.90634 -1.0577 0
M  V30 2743 H 243.469 3.1052 -0.360015 0
M  V30 2744 H 242.689 2.75369 -2.82073 0
M  V30 2745 H 243.977 3.87368 -3.29884 0
M  V30 2746 H 243.375 5.62065 -0.640265 0
M  V30 2747 H 241.932 6.42135 -1.1183 0
M  V30 2748 N 245.365 1.30045 0.890287 0
M  V30 2749 C 246.313 1.15873 2.01683 0
M  V30 2750 C 247.307 0.0719403 1.69247 0
M  V30 2751 O 248.513 0.232414 1.78493 0
M  V30 2752 H 244.888 0.358203 0.661207 0
M  V30 2753 H 246.859 2.11229 2.10772 0
M  V30 2754 C 245.608 0.861842 3.36849 0
M  V30 2755 H 244.931 1.69016 3.62317 0
M  V30 2756 H 246.371 0.802762 4.16331 0
M  V30 2757 C 244.83 -0.435132 3.34078 0
M  V30 2758 O 245.36 -1.4583 3.74295 0
M  V30 2759 N 243.566 -0.444377 2.87182 0
M  V30 2760 H 243.113 0.388723 2.5465 0
M  V30 2761 H 243.071 -1.31213 2.85711 0
M  V30 2762 N 246.843 -1.10192 1.12674 0
M  V30 2763 C 248.092 -1.81573 0.8783 0
M  V30 2764 C 248.405 -1.86249 -0.597557 0
M  V30 2765 O 249.611 -2.5386 -0.962681 0
M  V30 2766 C 248.067 -3.26149 1.52167 0
M  V30 2767 C 247.675 -3.29763 3.03249 0
M  V30 2768 C 249.419 -4.0234 1.3536 0
M  V30 2769 C 247.326 -4.68815 3.60508 0
M  V30 2770 H 246.256 -0.680394 0.324931 0
M  V30 2771 H 248.907 -1.23902 1.35353 0
M  V30 2772 H 247.289 -3.83832 0.974104 0
M  V30 2773 H 248.463 -2.8189 3.6452 0
M  V30 2774 H 246.778 -2.67059 3.19481 0
M  V30 2775 H 249.375 -5.05058 1.75559 0
M  V30 2776 H 249.718 -4.15235 0.297554 0
M  V30 2777 H 250.251 -3.51079 1.87052 0
M  V30 2778 H 246.99 -4.61121 4.65884 0
M  V30 2779 H 246.51 -5.17045 3.04014 0
M  V30 2780 H 248.189 -5.37785 3.59717 0
M  V30 2781 N 248.321 -0.919034 -1.28029 0
M  V30 2782 C 249.269 -0.401753 -2.29104 0
M  V30 2783 C 250.263 0.509354 -1.61561 0
M  V30 2784 O 251.469 0.390014 -1.75724 0
M  V30 2785 H 247.844 -0.111331 -0.743713 0
M  V30 2786 H 249.815 -1.2672 -2.70156 0
M  V30 2787 C 248.564 0.338148 -3.46052 0
M  V30 2788 H 247.887 -0.353732 -3.98232 0
M  V30 2789 H 249.327 0.664653 -4.18758 0
M  V30 2790 C 247.786 1.54798 -2.99231 0
M  V30 2791 O 248.316 2.64696 -3.02157 0
M  V30 2792 N 246.522 1.3968 -2.54829 0
M  V30 2793 H 246.069 0.502698 -2.52647 0
M  V30 2794 H 246.027 2.20755 -2.23863 0
M  V30 2795 N 249.799 1.42003 -0.683588 0
M  V30 2796 C 250.709 2.34597 -0.0109075 0
M  V30 2797 C 251.725 1.55576 0.779245 0
M  V30 2798 O 252.901 1.88107 0.719555 0
M  V30 2799 C 249.966 3.34199 0.922588 0
M  V30 2800 C 249.027 4.29115 0.125984 0
M  V30 2801 C 248.26 5.23959 1.01502 0
M  V30 2802 O 248.483 5.23952 2.25456 0
M  V30 2803 O 247.417 6.00053 0.47111 0
M  V30 2804 H 251.243 2.93675 -0.773853 0
M  V30 2805 H 248.828 1.42654 -0.443861 0
M  V30 2806 H 250.71 3.95365 1.45823 0
M  V30 2807 H 249.385 2.77582 1.66523 0
M  V30 2808 H 248.292 3.71335 -0.453969 0
M  V30 2809 H 249.625 4.88798 -0.577736 0
M  V30 2810 N 251.277 0.427512 1.51691 0
M  V30 2811 C 252.693 0.0792977 1.59403 0
M  V30 2812 C 252.893 -1.41035 1.43914 0
M  V30 2813 O 251.949 -2.17922 1.27539 0
M  V30 2814 C 253.262 0.590636 2.94842 0
M  V30 2815 C 254.81 0.550215 3.08126 0
M  V30 2816 C 255.285 1.03836 4.46074 0
M  V30 2817 N 256.776 0.995943 4.52366 0
M  V30 2818 C 257.511 1.34463 5.57411 0
M  V30 2819 N 257.007 1.76569 6.69922 0
M  V30 2820 N 258.8 1.26343 5.47717 0
M  V30 2821 H 250.951 1.39687 1.60004 0
M  V30 2822 H 253.214 0.575003 0.753708 0
M  V30 2823 H 252.92 1.63251 3.11516 0
M  V30 2824 H 252.794 0.0102061 3.77199 0
M  V30 2825 H 255.181 -0.482654 2.91126 0
M  V30 2826 H 255.262 1.16693 2.27632 0
M  V30 2827 H 254.906 2.06965 4.63819 0
M  V30 2828 H 254.836 0.398286 5.25092 0
M  V30 2829 H 257.327 0.68661 3.7161 0
M  V30 2830 H 257.64 2.01438 7.46085 0
M  V30 2831 H 255.985 1.80488 6.71155 0
M  V30 2832 H 259.176 0.933209 4.58703 0
M  V30 2833 H 259.349 1.53846 6.29472 0
M  V30 2834 N 252.755 -1.56801 0.158532 0
M  V30 2835 C 254.004 -1.95665 -0.489702 0
M  V30 2836 C 254.317 -1.04654 -1.65248 0
M  V30 2837 O 255.523 -1.33146 -2.3661 0
M  V30 2838 C 253.979 -3.47874 -0.922582 0
M  V30 2839 C 253.587 -4.47489 0.213893 0
M  V30 2840 C 255.331 -3.95583 -1.53996 0
M  V30 2841 C 253.238 -5.90921 -0.237903 0
M  V30 2842 H 252.168 -0.730516 -0.186716 0
M  V30 2843 H 254.819 -1.81861 0.244722 0
M  V30 2844 H 253.201 -3.57051 -1.71261 0
M  V30 2845 H 254.375 -4.50017 0.991036 0
M  V30 2846 H 252.69 -4.09764 0.740407 0
M  V30 2847 H 255.287 -5.0019 -1.8898 0
M  V30 2848 H 255.63 -3.37789 -2.43319 0
M  V30 2849 H 256.163 -3.8937 -0.814611 0
M  V30 2850 H 252.902 -6.52559 0.620236 0
M  V30 2851 H 252.422 -5.91729 -0.980676 0
M  V30 2852 H 254.101 -6.43352 -0.686067 0
M  V30 2853 N 254.233 0.115231 -1.57178 0
M  V30 2854 C 255.18 1.14115 -2.00615 0
M  V30 2855 C 256.15 1.40939 -0.878941 0
M  V30 2856 O 257.335 1.52741 -1.14345 0
M  V30 2857 C 254.475 2.46156 -2.4187 0
M  V30 2858 C 253.588 2.26236 -3.68024 0
M  V30 2859 C 252.723 3.51534 -3.98243 0
M  V30 2860 C 251.762 3.26787 -5.17568 0
M  V30 2861 N 250.899 4.44298 -5.43639 0
M  V30 2862 H 255.739 0.763743 -2.88047 0
M  V30 2863 H 253.276 0.365615 -1.42484 0
M  V30 2864 H 255.234 3.23189 -2.63827 0
M  V30 2865 H 253.864 2.81783 -1.57475 0
M  V30 2866 H 252.916 1.40102 -3.5366 0
M  V30 2867 H 254.228 2.03929 -4.55208 0
M  V30 2868 H 253.382 4.36984 -4.20868 0
M  V30 2869 H 252.121 3.76876 -3.09541 0
M  V30 2870 H 251.126 2.39729 -4.94783 0
M  V30 2871 H 252.351 3.02812 -6.0785 0
M  V30 2872 H 250.297 4.69754 -4.57895 0
M  V30 2873 H 250.214 4.25109 -6.25154 0
M  V30 2874 H 251.482 5.3087 -5.70786 0
M  V30 2875 N 255.711 1.52812 0.385517 0
M  V30 2876 C 256.641 1.80808 1.47752 0
M  V30 2877 C 257.622 0.660318 1.5676 0
M  V30 2878 O 258.807 0.908246 1.71652 0
M  V30 2879 C 255.937 1.98008 2.85324 0
M  V30 2880 C 254.891 3.13709 2.91154 0
M  V30 2881 C 254.217 3.16169 4.31209 0
M  V30 2882 C 255.517 4.52709 2.60483 0
M  V30 2883 H 257.211 2.72253 1.24573 0
M  V30 2884 H 254.757 1.31003 0.597839 0
M  V30 2885 H 256.71 2.16176 3.61726 0
M  V30 2886 H 255.434 1.03255 3.09848 0
M  V30 2887 H 254.093 2.95329 2.17201 0
M  V30 2888 H 253.741 2.19092 4.52778 0
M  V30 2889 H 253.441 3.93894 4.36029 0
M  V30 2890 H 254.965 3.36496 5.09512 0
M  V30 2891 H 256.379 4.71173 3.26602 0
M  V30 2892 H 254.776 5.32528 2.76648 0
M  V30 2893 H 255.846 4.59186 1.55809 0
M  V30 2894 N 257.189 -0.644168 1.43834 0
M  V30 2895 C 258.122 -1.76906 1.44151 0
M  V30 2896 C 259.1 -1.59774 0.301857 0
M  V30 2897 O 260.284 -1.81834 0.496841 0
M  V30 2898 C 257.411 -3.14321 1.26174 0
M  V30 2899 C 256.457 -3.50134 2.43533 0
M  V30 2900 S 257.29 -3.49085 4.06079 0
M  V30 2901 C 258.446 -4.89142 3.90501 0
M  V30 2902 H 258.679 -1.76368 2.39336 0
M  V30 2903 H 256.212 -0.817624 1.30974 0
M  V30 2904 H 258.17 -3.93625 1.16489 0
M  V30 2905 H 256.831 -3.12412 0.325224 0
M  V30 2906 H 256.024 -4.50095 2.26783 0
M  V30 2907 H 255.626 -2.78264 2.4989 0
M  V30 2908 H 257.918 -5.78036 3.53385 0
M  V30 2909 H 258.861 -5.10945 4.90246 0
M  V30 2910 H 259.269 -4.63102 3.22795 0
M  V30 2911 N 258.668 -1.30515 -0.883378 0
M  V30 2912 C 259.616 -1.16941 -2.01066 0
M  V30 2913 C 260.61 -0.0809148 -1.69207 0
M  V30 2914 O 261.816 -0.241877 -1.78367 0
M  V30 2915 H 258.191 -0.361705 -0.659298 0
M  V30 2916 H 260.162 -2.12344 -2.09649 0
M  V30 2917 C 258.911 -0.879694 -3.36388 0
M  V30 2918 H 258.234 -1.70936 -3.61415 0
M  V30 2919 H 259.674 -0.82483 -4.159 0
M  V30 2920 C 258.133 0.417409 -3.34304 0
M  V30 2921 O 258.663 1.43843 -3.75063 0
M  V30 2922 N 256.869 0.429141 -2.87414 0
M  V30 2923 H 256.416 -0.402222 -2.5444 0
M  V30 2924 H 256.374 1.29696 -2.86403 0
M  V30 2925 N 260.146 1.09593 -1.13257 0
M  V30 2926 C 261.093 2.1618 -0.808381 0
M  V30 2927 C 262.063 1.64517 0.228754 0
M  V30 2928 O 263.248 1.9053 0.101381 0
M  V30 2929 C 260.388 3.43973 -0.278675 0
M  V30 2930 C 259.501 4.09545 -1.37466 0
M  V30 2931 C 258.636 5.25088 -0.803479 0
M  V30 2932 C 257.675 5.82579 -1.87799 0
M  V30 2933 N 256.812 6.89486 -1.32488 0
M  V30 2934 H 261.652 2.43254 -1.72138 0
M  V30 2935 H 259.189 1.19392 -0.859294 0
M  V30 2936 H 261.147 4.17174 0.0465583 0
M  V30 2937 H 259.777 3.17223 0.597459 0
M  V30 2938 H 258.829 3.34226 -1.81652 0
M  V30 2939 H 260.141 4.48307 -2.18684 0
M  V30 2940 H 259.295 6.05178 -0.429427 0
M  V30 2941 H 258.034 4.87684 0.0397956 0
M  V30 2942 H 257.039 5.01152 -2.26113 0
M  V30 2943 H 258.264 6.22045 -2.72463 0
M  V30 2944 H 256.21 6.54064 -0.503575 0
M  V30 2945 H 256.127 7.27007 -2.07355 0
M  V30 2946 H 257.395 7.73336 -0.978336 0
M  V30 2947 N 261.624 0.925811 1.2754 0
M  V30 2948 C 262.871 0.565255 1.94451 0
M  V30 2949 C 263.199 -0.89316 1.7278 0
M  V30 2950 O 262.454 -1.65213 1.04895 0
M  V30 2951 C 262.753 0.835296 3.47502 0
M  V30 2952 C 262.419 2.27515 3.89291 0
M  V30 2953 C 261.081 2.66879 4.00411 0
M  V30 2954 C 263.433 3.21158 4.10496 0
M  V30 2955 C 260.761 3.99014 4.30122 0
M  V30 2956 C 263.113 4.52871 4.4169 0
M  V30 2957 C 261.777 4.92072 4.51023 0
M  V30 2958 H 261.047 0.206841 0.711546 0
M  V30 2959 H 263.694 1.16942 1.51647 0
M  V30 2960 H 261.999 0.148442 3.91519 0
M  V30 2961 H 263.696 0.535322 3.97411 0
M  V30 2962 H 260.286 1.95976 3.81171 0
M  V30 2963 H 264.47 2.9195 4.01346 0
M  V30 2964 H 259.726 4.2907 4.35556 0
M  V30 2965 H 263.9 5.25436 4.57045 0
M  V30 2966 H 261.527 5.9449 4.738 0
M  V30 2967 N 263.102 -1.41638 0.69111 0
M  V30 2968 C 264.327 -2.06148 0.227583 0
M  V30 2969 C 264.752 -1.51652 -1.11281 0
M  V30 2970 O 264.11 -0.64164 -1.69566 0
M  V30 2971 C 264.158 -3.60095 0.190858 0
M  V30 2972 O 263.262 -4.03845 -0.835664 0
M  V30 2973 H 262.603 -0.654434 0.112306 0
M  V30 2974 H 265.133 -1.81484 0.944714 0
M  V30 2975 H 265.143 -4.07995 0.020207 0
M  V30 2976 H 263.818 -3.99129 1.16915 0
M  V30 2977 H 262.395 -3.67458 -0.63473 0
M  V30 2978 N 264.58 -0.43555 -1.51462 0
M  V30 2979 C 265.512 0.41257 -2.25456 0
M  V30 2980 C 266.525 0.987822 -1.29406 0
M  V30 2981 O 267.714 0.882266 -1.55172 0
M  V30 2982 C 264.814 1.58894 -2.99342 0
M  V30 2983 C 263.987 1.13288 -4.22474 0
M  V30 2984 C 263.046 2.17917 -4.78956 0
M  V30 2985 O 262.072 1.77425 -5.40841 0
M  V30 2986 N 263.274 3.50382 -4.62832 0
M  V30 2987 H 266.039 -0.221603 -2.9888 0
M  V30 2988 H 263.6 -0.264342 -1.59727 0
M  V30 2989 H 265.592 2.28508 -3.34015 0
M  V30 2990 H 264.162 2.12849 -2.28941 0
M  V30 2991 H 263.382 0.263881 -3.93316 0
M  V30 2992 H 264.67 0.805542 -5.02383 0
M  V30 2993 H 264.068 3.86013 -4.13534 0
M  V30 2994 H 262.625 4.15895 -5.01871 0
M  V30 2995 N 266.058 1.56714 -0.166846 0
M  V30 2996 C 267.307 1.95922 0.479318 0
M  V30 2997 C 267.62 1.05529 1.6469 0
M  V30 2998 O 268.826 1.34399 2.35901 0
M  V30 2999 C 267.282 3.48359 0.90412 0
M  V30 3000 C 266.89 4.47369 -0.237621 0
M  V30 3001 C 268.634 3.96394 1.51896 0
M  V30 3002 C 266.541 5.91039 0.206561 0
M  V30 3003 H 265.471 0.731495 0.18284 0
M  V30 3004 H 268.122 1.81728 -0.254363 0
M  V30 3005 H 266.504 3.57955 1.69365 0
M  V30 3006 H 267.678 4.49485 -1.01489 0
M  V30 3007 H 265.993 4.09366 -0.762128 0
M  V30 3008 H 268.59 5.01186 1.86325 0
M  V30 3009 H 268.933 3.39075 2.41524 0
M  V30 3010 H 269.466 3.89796 0.79395 0
M  V30 3011 H 266.205 6.52221 -0.654834 0
M  V30 3012 H 265.725 5.9224 0.949282 0
M  V30 3013 H 267.404 6.43707 0.651939 0
M  V30 3014 N 267.536 -0.106894 1.57237 0
M  V30 3015 C 268.783 -0.812526 1.85484 0
M  V30 3016 C 269.111 -1.79304 0.753687 0
M  V30 3017 O 268.366 -1.94047 -0.253853 0
M  V30 3018 C 268.665 -1.58628 3.20268 0
M  V30 3019 C 268.331 -0.748967 4.44636 0
M  V30 3020 C 266.993 -0.518104 4.78403 0
M  V30 3021 C 269.345 -0.166122 5.20935 0
M  V30 3022 C 266.673 0.305659 5.85903 0
M  V30 3023 C 269.025 0.644899 6.29304 0
M  V30 3024 C 267.689 0.885965 6.61594 0
M  V30 3025 H 266.959 -0.297324 0.678734 0
M  V30 3026 H 269.606 -0.0744332 1.91355 0
M  V30 3027 H 267.911 -2.39562 3.10028 0
M  V30 3028 H 269.608 -2.13643 3.39349 0
M  V30 3029 H 266.198 -0.939006 4.18187 0
M  V30 3030 H 270.382 -0.33167 4.95191 0
M  V30 3031 H 265.638 0.501528 6.0934 0
M  V30 3032 H 269.812 1.10345 6.87602 0
M  V30 3033 H 267.439 1.52609 7.44725 0
M  V30 3034 N 269.014 -1.53014 -0.377408 0
M  V30 3035 C 269.944 -1.81589 -1.46791 0
M  V30 3036 C 270.925 -0.668622 -1.56408 0
M  V30 3037 O 272.11 -0.917337 -1.71168 0
M  V30 3038 C 269.24 -1.99519 -2.8427 0
M  V30 3039 C 268.194 -3.15249 -2.89486 0
M  V30 3040 C 267.52 -3.18451 -4.29527 0
M  V30 3041 C 268.82 -4.54084 -2.58079 0
M  V30 3042 H 270.514 -2.7291 -1.23127 0
M  V30 3043 H 268.06 -1.31319 -0.590883 0
M  V30 3044 H 270.013 -2.18092 -3.60575 0
M  V30 3045 H 268.737 -1.04897 -3.09296 0
M  V30 3046 H 267.396 -2.96477 -2.15631 0
M  V30 3047 H 267.044 -2.2149 -4.5161 0
M  V30 3048 H 266.744 -3.962 -4.33934 0
M  V30 3049 H 268.268 -3.39193 -5.07721 0
M  V30 3050 H 269.682 -4.72899 -3.24098 0
M  V30 3051 H 268.079 -5.33987 -2.7382 0
M  V30 3052 H 269.149 -4.60006 -1.53372 0
M  V30 3053 N 270.492 0.636531 -1.44174 0
M  V30 3054 C 271.44 1.76995 -1.50915 0
M  V30 3055 C 272.434 1.65053 -0.381295 0
M  V30 3056 O 273.64 1.71197 -0.55601 0
M  V30 3057 H 270.015 0.584247 -0.473455 0
M  V30 3058 H 271.986 1.68432 -2.4632 0
M  V30 3059 C 270.735 3.15314 -1.46534 0
M  V30 3060 H 270.058 3.25149 -2.32633 0
M  V30 3061 H 271.498 3.9453 -1.55312 0
M  V30 3062 C 269.957 3.3639 -0.185305 0
M  V30 3063 O 270.487 3.94699 0.746688 0
M  V30 3064 N 268.693 2.9046 -0.0901606 0
M  V30 3065 H 268.24 2.43193 -0.849416 0
M  V30 3066 H 268.198 3.04937 0.765553 0
M  V30 3067 N 271.97 1.30982 0.876444 0
M  V30 3068 C 273.218 1.20058 1.62575 0
M  V30 3069 C 273.539 -0.242947 1.93481 0
M  V30 3070 O 272.809 -1.1619 1.57724 0
M  V30 3071 H 271.389 0.44135 0.602677 0
M  V30 3072 H 274.051 1.64222 1.04962 0
M  V30 3073 H 273.147 1.76762 2.57219 0
M  V30 3074 N 273.449 -1.08991 1.13837 0
M  V30 3075 C 274.379 -2.17771 0.842507 0
M  V30 3076 C 275.36 -1.6892 -0.20001 0
M  V30 3077 O 276.545 -1.94113 -0.0579731 0
M  V30 3078 C 273.675 -3.4589 0.312644 0
M  V30 3079 C 272.629 -4.08099 1.28992 0
M  V30 3080 C 271.955 -5.31098 0.619623 0
M  V30 3081 C 273.255 -4.50077 2.65005 0
M  V30 3082 H 274.949 -2.42777 1.75213 0
M  V30 3083 H 272.495 -1.16682 0.843875 0
M  V30 3084 H 274.448 -4.21297 0.0933043 0
M  V30 3085 H 273.172 -3.20419 -0.632382 0
M  V30 3086 H 271.831 -3.34717 1.49533 0
M  V30 3087 H 271.479 -5.0191 -0.33102 0
M  V30 3088 H 271.179 -5.73674 1.27167 0
M  V30 3089 H 272.703 -6.09224 0.409669 0
M  V30 3090 H 274.117 -5.16688 2.48407 0
M  V30 3091 H 272.514 -5.03553 3.26427 0
M  V30 3092 H 273.584 -3.62257 3.22332 0
M  V30 3093 N 274.927 -0.932562 -1.27047 0
M  V30 3094 C 276.152 -0.591474 -1.98787 0
M  V30 3095 C 276.577 0.824601 -1.69062 0
M  V30 3096 O 275.935 1.5541 -0.933677 0
M  V30 3097 C 275.983 -0.829808 -3.50922 0
M  V30 3098 O 275.087 0.102266 -4.12273 0
M  V30 3099 H 274.428 -0.227185 -0.623926 0
M  V30 3100 H 276.958 -1.25314 -1.61733 0
M  V30 3101 H 276.968 -0.747292 -4.01098 0
M  V30 3102 H 275.643 -1.86201 -3.7189 0
M  V30 3103 H 274.22 -0.0305761 -3.72887 0
M  V30 3104 N 276.405 1.4127 -0.698611 0
M  V30 3105 C 277.352 2.30773 -0.0352094 0
M  V30 3106 C 278.322 1.47273 0.768111 0
M  V30 3107 O 279.507 1.76053 0.735524 0
M  V30 3108 C 276.647 3.33346 0.893 0
M  V30 3109 C 275.76 4.31924 0.0809695 0
M  V30 3110 C 274.895 5.21566 1.0071 0
M  V30 3111 C 273.934 6.11811 0.188155 0
M  V30 3112 N 273.071 6.93926 1.06825 0
M  V30 3113 H 277.911 2.86943 -0.804207 0
M  V30 3114 H 275.448 1.4132 -0.408294 0
M  V30 3115 H 277.406 3.91368 1.44523 0
M  V30 3116 H 276.036 2.78719 1.62836 0
M  V30 3117 H 275.088 3.75825 -0.588224 0
M  V30 3118 H 276.4 4.95716 -0.553801 0
M  V30 3119 H 275.554 5.84437 1.62845 0
M  V30 3120 H 274.293 4.58008 1.67572 0
M  V30 3121 H 273.298 5.47986 -0.446254 0
M  V30 3122 H 274.523 6.77425 -0.476716 0
M  V30 3123 H 272.469 6.32973 1.72283 0
M  V30 3124 H 272.386 7.54416 0.489123 0
M  V30 3125 H 273.654 7.61262 1.67632 0
M  V30 3126 O 277.922 0.585593 1.50509 0
M  V30 3127 H 278.613 0.0911067 1.93486 0
M  V30 END ATOM
M  V30 BEGIN BOND
M  V30 END BOND
M  V30 END CTAB
M  END
$$$$
